0:0:0
     RDKit          3D

 98106  0  0  1  0  0  0  0  0999 V2000
  -30.2670  -22.2750   23.8500 C   0  0  0  0  0  3  0  0  0  0  0  0
  -30.5210  -23.4110   23.0590 C   0  0  0  0  0  3  0  0  0  0  0  0
  -30.7470  -21.0170   23.4520 C   0  0  0  0  0  3  0  0  0  0  0  0
  -31.6470  -22.0100   21.4150 C   0  0  0  0  0  3  0  0  0  0  0  0
  -31.2220  -23.2860   21.8430 C   0  0  0  0  0  0  0  0  0  0  0  0
  -31.4490  -20.8760   22.2360 C   0  0  0  0  0  0  0  0  0  0  0  0
  -31.5970  -24.5170   21.0280 C   0  0  0  0  0  2  0  0  0  0  0  0
  -30.6900  -25.7380   21.2450 C   0  0  0  0  0  2  0  0  0  0  0  0
  -31.0130  -26.8540   20.2450 C   0  0  0  0  0  2  0  0  0  0  0  0
  -30.5100  -28.0970   20.7240 O   0  0  0  0  0  0  0  0  0  0  0  0
  -25.0370  -31.6530   23.5170 C   0  0  0  0  0  0  0  0  0  0  0  0
  -29.1650  -28.3810   20.6140 C   0  0  0  0  0  0  0  0  0  0  0  0
  -24.4770  -30.1170   21.6590 C   0  0  0  0  0  3  0  0  0  0  0  0
  -26.4570  -29.1560   20.3780 C   0  0  0  0  0  0  0  0  0  0  0  0
  -26.8040  -31.1610   21.8280 C   0  0  0  0  0  2  0  0  0  0  0  0
  -27.3400  -29.9230   21.1430 C   0  0  0  0  0  0  0  0  0  0  0  0
  -28.6930  -29.5450   21.2570 C   0  0  0  0  0  3  0  0  0  0  0  0
  -28.2570  -27.6080   19.8490 C   0  0  0  0  0  3  0  0  0  0  0  0
  -26.9080  -27.9940   19.7290 C   0  0  0  0  0  3  0  0  0  0  0  0
  -25.0300  -29.6450   20.2890 C   0  0  0  0  0  2  0  0  0  0  0  0
  -25.4460  -30.9910   22.3970 N   0  0  0  0  0  0  0  0  0  0  0  0
  -23.8670  -31.5780   23.9130 O   0  0  0  0  0  0  0  0  0  0  0  0
  -24.0330  -28.8800   22.4700 C   0  0  0  0  0  0  0  0  0  0  0  0
  -22.8820  -28.3000   22.0940 N   0  0  0  0  0  0  0  0  0  0  0  0
  -24.7240  -28.4440   23.3950 O   0  0  0  0  0  0  0  0  0  0  0  0
  -22.3700  -28.7220   21.3320 H   0  0  0  0  0  0  0  0  0  0  0  0
  -20.0790  -26.0350   21.8630 C   0  0  0  0  0  0  0  0  0  0  0  0
  -22.2810  -27.1050   22.6850 C   0  0  0  0  0  3  0  0  0  0  0  0
  -22.9810  -25.8240   22.1710 C   0  0  0  0  0  2  0  0  0  0  0  0
  -22.2920  -25.2110   20.9470 C   0  0  0  0  0  2  0  0  0  0  0  0
  -20.8360  -24.8570   21.2700 C   0  0  0  0  0  2  0  0  0  0  0  0
  -20.7610  -27.0980   22.5140 C   0  0  0  0  0  0  0  0  0  0  0  0
  -20.0120  -28.1850   23.0140 C   0  0  0  0  0  3  0  0  0  0  0  0
  -18.6120  -28.2180   22.8820 C   0  0  0  0  0  3  0  0  0  0  0  0
  -17.9400  -27.1540   22.2550 C   0  0  0  0  0  3  0  0  0  0  0  0
  -18.6730  -26.0650   21.7500 C   0  0  0  0  0  3  0  0  0  0  0  0
  -26.0120  -32.5550   24.3350 C   0  0  0  0  0  3  0  0  0  0  0  0
  -26.3370  -31.9810   25.7680 C   0  0  1  0  0  0  0  0  0  0  0  0
  -25.0890  -31.5180   26.5560 C   0  0  0  0  0  1  0  0  0  0  0  0
  -27.2980  -30.7740   25.6650 C   0  0  0  0  0  1  0  0  0  0  0  0
  -27.0660  -33.0530   26.6150 C   0  0  0  0  0  1  0  0  0  0  0  0
  -25.4080  -33.8920   24.4320 N   0  0  0  0  0  0  0  0  0  0  0  0
  -25.7170  -34.9250   23.6360 C   0  0  0  0  0  0  0  0  0  0  0  0
  -26.6080  -34.8710   22.7850 O   0  0  0  0  0  0  0  0  0  0  0  0
  -24.6440  -33.9990   25.0840 H   0  0  0  0  0  0  0  0  0  0  0  0
  -23.8340  -36.3130   22.7200 C   0  0  0  0  0  1  0  0  0  0  0  0
  -24.9100  -36.2250   23.8140 C   0  0  0  0  0  3  0  0  0  0  0  0
  -26.6740  -37.5260   24.9200 C   0  0  0  0  0  1  0  0  0  0  0  0
  -25.7460  -37.4440   23.7940 N   0  0  0  0  0  0  0  0  0  0  0  0
  -25.1670  -38.2790   23.8010 H   0  0  0  0  0  0  0  0  0  0  0  0
  -32.0110  -19.5090   21.8350 C   0  0  0  0  0  3  0  0  0  0  0  0
  -31.7420  -16.9620   22.1640 C   0  0  0  0  0  1  0  0  0  0  0  0
  -30.3170  -18.5310   23.4960 C   0  0  0  0  0  1  0  0  0  0  0  0
  -31.0380  -18.3350   22.1460 C   0  0  0  0  0  3  0  0  0  0  0  0
  -32.4860  -19.5080   20.4310 N   0  0  0  0  0  4  0  0  0  0  0  0
  -32.3150  -18.5830   20.0720 H   0  0  0  0  0  0  0  0  0  0  0  0
  -31.9260  -20.1440   19.8890 H   0  0  0  0  0  0  0  0  0  0  0  0
  -33.9290  -19.8190   20.2490 C   0  0  0  0  0  2  0  0  0  0  0  0
  -34.6080  -18.8290   19.2890 C   0  0  0  0  0  2  0  0  0  0  0  0
  -36.0460  -18.4250   19.6890 C   0  0  0  0  0  2  0  0  0  0  0  0
  -36.7480  -16.0380   19.3320 C   0  0  0  0  0  0  0  0  0  0  0  0
  -36.6390  -13.6630   18.6750 C   0  0  0  0  0  2  0  0  0  0  0  0
  -35.9300  -13.4650   17.3180 C   0  0  0  0  0  2  0  0  0  0  0  0
  -34.3910  -13.4800   17.4440 C   0  0  0  0  0  2  0  0  0  0  0  0
  -33.8700  -14.6500   18.3220 C   0  0  0  0  0  3  0  0  0  0  0  0
  -34.6570  -14.6720   19.6490 C   0  0  0  0  0  2  0  0  0  0  0  0
  -36.0900  -14.8530   19.3300 N   0  0  0  0  0  0  0  0  0  0  0  0
  -37.8610  -16.2290   18.8240 O   0  0  0  0  0  0  0  0  0  0  0  0
  -36.0440  -16.9940   19.9380 N   0  0  0  0  0  0  0  0  0  0  0  0
  -35.2320  -16.6350   20.4200 H   0  0  0  0  0  0  0  0  0  0  0  0
  -31.4330  -15.5010   18.3690 C   0  0  0  0  0  0  0  0  0  0  0  0
  -30.2490  -14.8640   18.6450 C   0  0  0  0  0  0  0  0  0  0  0  0
  -30.5960  -13.5150   18.9580 C   0  0  0  0  0  0  0  0  0  0  0  0
  -32.4270  -14.5490   18.5400 N   0  0  0  0  0  0  0  0  0  0  0  0
  -31.9130  -13.3590   18.9420 N   0  0  0  0  0  0  0  0  0  0  0  0
  -29.7480  -12.3470   19.2250 C   0  0  0  0  0  0  0  0  0  0  0  0
  -29.6260  -11.8110   20.5270 C   0  0  0  0  0  3  0  0  0  0  0  0
  -28.7960  -10.6930   20.7620 C   0  0  0  0  0  3  0  0  0  0  0  0
  -28.0750  -10.1060   19.6960 C   0  0  0  0  0  0  0  0  0  0  0  0
  -28.2190  -10.6310   18.3990 C   0  0  0  0  0  3  0  0  0  0  0  0
  -29.0500  -11.7400   18.1640 C   0  0  0  0  0  3  0  0  0  0  0  0
  -27.2650   -9.0040   19.8270 O   0  0  0  0  0  0  0  0  0  0  0  0
  -26.3030   -8.9310   20.8050 C   0  0  0  0  0  0  0  0  0  0  0  0
  -25.1900   -9.8000   20.8200 C   0  0  0  0  0  3  0  0  0  0  0  0
  -24.1870   -9.6420   21.7970 C   0  0  0  0  0  3  0  0  0  0  0  0
  -24.2930   -8.6150   22.7540 C   0  0  0  0  0  0  0  0  0  0  0  0
  -25.4010   -7.7490   22.7400 C   0  0  0  0  0  3  0  0  0  0  0  0
  -26.4010   -7.9050   21.7650 C   0  0  0  0  0  0  0  0  0  0  0  0
  -27.4540   -7.0540   21.7380 F   0  0  0  0  0  0  0  0  0  0  0  0
  -23.3270   -8.4580   23.6910 F   0  0  0  0  0  0  0  0  0  0  0  0
  -28.8700  -15.4440   18.5250 C   0  0  0  0  0  0  0  0  0  0  0  0
  -27.9290  -14.9580   19.3280 N   0  0  0  0  0  0  0  0  0  0  0  0
  -28.6250  -16.3660   17.7490 O   0  0  0  0  0  0  0  0  0  0  0  0
  -28.1290  -14.2070   19.9710 H   0  0  0  0  0  0  0  0  0  0  0  0
  -26.9940  -15.3370   19.2870 H   0  0  0  0  0  0  0  0  0  0  0  0
  -31.7420  -16.7990   17.9710 N   0  0  0  0  0  0  0  0  0  0  0  0
  -31.0000  -17.4270   17.6870 H   0  0  0  0  0  0  0  0  0  0  0  0
  -32.6360  -17.0250   17.5570 H   0  0  0  0  0  0  0  0  0  0  0  0
  2  1  2  0
  3  1  1  0
  4  5  2  0
  4  6  1  0
  5  2  1  0
  6  3  2  0
  7  8  1  0
  7  5  1  0
  9 10  1  0
  9  8  1  0
 11 22  2  0
 12 10  1  0
 12 17  1  0
 13 21  1  0
 13 23  1  0
 14 16  1  0
 15 21  1  0
 16 17  2  0
 16 15  1  0
 18 12  2  0
 19 18  1  0
 19 14  2  0
 20 14  1  0
 20 13  1  0
 21 11  1  0
 23 25  2  0
 24 23  1  0
 26 24  1  0
 27 32  1  0
 28 24  1  0
 29 28  1  0
 30 31  1  0
 30 29  1  0
 31 27  1  0
 32 28  1  0
 32 33  2  0
 34 33  1  0
 35 34  2  0
 36 27  2  0
 36 35  1  0
 37 11  1  0
 37 42  1  0
 37 38  1  0
 38 39  1  1
 38 41  1  0
 40 38  1  0
 42 45  1  0
 43 47  1  0
 43 42  1  0
 44 43  2  0
 47 46  1  0
 49 50  1  0
 49 47  1  0
 49 48  1  0
 51 54  1  0
 51  6  1  0
 54 52  1  0
 54 53  1  0
 55 51  1  0
 56 55  1  0
 57 55  1  0
 58 55  1  0
 59 60  1  0
 59 58  1  0
 60 69  1  0
 61 69  1  0
 62 67  1  0
 63 64  1  0
 63 62  1  0
 65 64  1  0
 65 74  1  0
 65 66  1  0
 67 61  1  0
 67 66  1  0
 68 61  2  0
 69 70  1  0
 71 74  1  0
 71 72  2  0
 72 73  1  0
 73 76  1  0
 74 75  1  0
 75 73  2  0
 76 77  1  0
 77 78  2  0
 79 82  1  0
 79 78  1  0
 80 79  2  0
 81 80  1  0
 81 76  2  0
 82 83  1  0
 83 84  2  0
 83 88  1  0
 84 85  1  0
 85 86  2  0
 86 90  1  0
 87 86  1  0
 88 87  2  0
 89 88  1  0
 91 72  1  0
 91 92  1  0
 92 94  1  0
 93 91  2  0
 95 92  1  0
 96 71  1  0
 97 96  1  0
 98 96  1  0
M  ISO  4   9 101  10 101  61 100  69 100
M  END
>  <TORSDO>  (1) 
F 25

>  <SCORE>  (1) 
-1.162

>  <name>  (1) 
0

>  <ligand_id>  (1) 
0

>  <original_smiles>  (1) 
[H]c1c([H])c([H])c2c(c1[H])C([H])([H])C([H])([H])C([H])([H])C2([H])N([H])C(=O)C1([H])N(C(=O)C([H])(N([H])C(=O)C([H])(N([H])C([H])([H])[H])C([H])([H])[H])C(C([H])([H])[H])(C([H])([H])[H])C([H])([H])[H])C([H])([H])c2c([H])c(OC([H])([H])C([H])([H])C([H])([H])c3c([H])c([H])c([H])c(C([H])(C([H])(C([H])([H])[H])C([H])([H])[H])[N+]([H])([H])C([H])([H])C([H])([H])C([H])([H])N([H])C(=O)N4C([H])([H])C([H])([H])C([H])([H])C([H])(n5nc(-c6c([H])c([H])c(Oc7c([H])c([H])c(F)c([H])c7F)c([H])c6[H])c(C(=O)N([H])[H])c5N([H])[H])C4([H])[H])c3[H])c([H])c([H])c2C1([H])[H]

>  <smiles>  (1) 
[H]c1c([H])c([H])c2c(c1[H])C([H])([H])C([H])([H])C([H])([H])C2([H])N([H])C(=O)C1([H])N(C(=O)C([H])(N([H])C(=O)C([H])(N([H])C([H])([H])[H])C([H])([H])[H])C(C([H])([H])[H])(C([H])([H])[H])C([H])([H])[H])C([H])([H])c2c([H])c(OC([H])([H])C([H])([H])C([H])([H])c3c([H])c([H])c([H])c(C([H])(C([H])(C([H])([H])[H])C([H])([H])[H])[N+]([H])([H])C([H])([H])C([H])([H])C([H])([H])N([H])C(=O)N4C([H])([H])C([H])([H])C([H])([H])C([H])(n5nc(-c6c([H])c([H])c(Oc7c([H])c([H])c(F)c([H])c7F)c([H])c6[H])c(C(=O)N([H])[H])c5N([H])[H])C4([H])[H])c3[H])c([H])c([H])c2C1([H])[H]

$$$$
1:0:0
     RDKit          3D

 90 97  0  0  1  0  0  0  0  0999 V2000
  -28.8280  -22.9860   20.7480 N   0  0  0  0  0  4  0  0  0  0  0  0
  -28.0080  -22.7840   21.3000 H   0  0  0  0  0  0  0  0  0  0  0  0
  -28.5500  -22.8850   19.7830 H   0  0  0  0  0  0  0  0  0  0  0  0
  -29.4240  -24.7730   22.4300 C   0  0  0  0  0  1  0  0  0  0  0  0
  -29.2110  -24.4200   20.9380 C   0  0  0  0  0  3  0  0  0  0  0  0
  -28.1070  -25.2900   20.3070 C   0  0  0  0  0  2  0  0  0  0  0  0
  -28.3640  -26.7000   20.2440 O   0  0  0  0  0  0  0  0  0  0  0  0
  -24.5680  -31.8910   23.2340 C   0  0  0  0  0  0  0  0  0  0  0  0
  -27.2170  -27.4650   20.1620 C   0  0  0  0  0  0  0  0  0  0  0  0
  -23.3620  -30.4920   21.5890 C   0  0  0  0  0  3  0  0  0  0  0  0
  -24.8220  -28.9720   20.1570 C   0  0  0  0  0  0  0  0  0  0  0  0
  -25.8900  -30.8560   21.3990 C   0  0  0  0  0  2  0  0  0  0  0  0
  -25.9790  -29.4920   20.7510 C   0  0  0  0  0  0  0  0  0  0  0  0
  -27.1810  -28.7490   20.7480 C   0  0  0  0  0  3  0  0  0  0  0  0
  -26.0420  -26.9720   19.5400 C   0  0  0  0  0  3  0  0  0  0  0  0
  -24.8500  -27.7110   19.5440 C   0  0  0  0  0  3  0  0  0  0  0  0
  -23.5730  -29.8190   20.2060 C   0  0  0  0  0  2  0  0  0  0  0  0
  -24.6250  -31.0930   22.1330 N   0  0  0  0  0  0  0  0  0  0  0  0
  -23.4870  -32.1620   23.7750 O   0  0  0  0  0  0  0  0  0  0  0  0
  -22.7140  -29.4670   22.5450 C   0  0  0  0  0  0  0  0  0  0  0  0
  -21.3880  -29.2850   22.4190 N   0  0  0  0  0  0  0  0  0  0  0  0
  -23.3990  -28.8330   23.3540 O   0  0  0  0  0  0  0  0  0  0  0  0
  -20.8970  -29.8540   21.7430 H   0  0  0  0  0  0  0  0  0  0  0  0
  -18.0080  -28.1250   22.9370 C   0  0  0  0  0  0  0  0  0  0  0  0
  -20.5700  -28.3480   23.1870 C   0  0  0  0  0  3  0  0  0  0  0  0
  -20.6510  -26.9220   22.5960 C   0  0  0  0  0  2  0  0  0  0  0  0
  -19.5370  -26.6220   21.5870 C   0  0  0  0  0  2  0  0  0  0  0  0
  -18.1610  -26.7810   22.2430 C   0  0  0  0  0  2  0  0  0  0  0  0
  -19.1390  -28.8690   23.3640 C   0  0  0  0  0  0  0  0  0  0  0  0
  -18.9410  -30.1320   23.9650 C   0  0  0  0  0  3  0  0  0  0  0  0
  -17.6440  -30.6480   24.1450 C   0  0  0  0  0  3  0  0  0  0  0  0
  -16.5270  -29.8970   23.7370 C   0  0  0  0  0  3  0  0  0  0  0  0
  -16.7090  -28.6380   23.1400 C   0  0  0  0  0  3  0  0  0  0  0  0
  -25.8580  -32.5190   23.8550 C   0  0  0  0  0  3  0  0  0  0  0  0
  -26.3830  -31.7410   25.1250 C   0  0  1  0  0  0  0  0  0  0  0  0
  -25.2970  -31.4880   26.1960 C   0  0  0  0  0  1  0  0  0  0  0  0
  -26.9730  -30.3720   24.7190 C   0  0  0  0  0  1  0  0  0  0  0  0
  -27.5350  -32.5340   25.7850 C   0  0  0  0  0  1  0  0  0  0  0  0
  -25.5570  -33.9160   24.1920 N   0  0  0  0  0  0  0  0  0  0  0  0
  -25.8820  -34.9670   23.4260 C   0  0  0  0  0  0  0  0  0  0  0  0
  -26.5430  -34.8620   22.3900 O   0  0  0  0  0  0  0  0  0  0  0  0
  -24.9870  -34.0740   25.0100 H   0  0  0  0  0  0  0  0  0  0  0  0
  -24.1550  -36.7520   23.0710 C   0  0  0  0  0  1  0  0  0  0  0  0
  -25.3950  -36.3540   23.8840 C   0  0  0  0  0  3  0  0  0  0  0  0
  -27.5270  -37.2340   24.7200 C   0  0  0  0  0  1  0  0  0  0  0  0
  -26.4280  -37.4070   23.7730 N   0  0  0  0  0  0  0  0  0  0  0  0
  -26.0230  -38.3250   23.9280 H   0  0  0  0  0  0  0  0  0  0  0  0
  -29.8600  -21.9540   21.0330 C   0  0  0  0  0  2  0  0  0  0  0  0
  -29.3280  -20.5040   20.8360 C   0  0  0  0  0  2  0  0  0  0  0  0
  -30.3140  -19.3880   21.2660 C   0  0  0  0  0  2  0  0  0  0  0  0
  -29.8130  -17.9460   20.9510 C   0  0  0  0  0  2  0  0  0  0  0  0
  -30.7420  -16.7870   21.4070 C   0  0  0  0  0  2  0  0  0  0  0  0
  -30.7660  -14.4670   20.3710 C   0  0  0  0  0  0  0  0  0  0  0  0
  -30.3800  -12.3050   19.2170 C   0  0  0  0  0  2  0  0  0  0  0  0
  -29.4350  -12.5170   18.0190 C   0  0  0  0  0  2  0  0  0  0  0  0
  -27.9610  -12.4110   18.4600 C   0  0  0  0  0  2  0  0  0  0  0  0
  -27.6510  -13.2490   19.7300 C   0  0  0  0  0  3  0  0  0  0  0  0
  -28.7240  -13.0440   20.8250 C   0  0  0  0  0  2  0  0  0  0  0  0
  -30.0450  -13.3160   20.2310 N   0  0  0  0  0  0  0  0  0  0  0  0
  -31.8510  -14.6400   19.8110 O   0  0  0  0  0  0  0  0  0  0  0  0
  -30.1850  -15.4490   21.0900 N   0  0  0  0  0  0  0  0  0  0  0  0
  -29.2700  -15.2400   21.4580 H   0  0  0  0  0  0  0  0  0  0  0  0
  -25.2800  -13.8840   20.4920 C   0  0  0  0  0  0  0  0  0  0  0  0
  -24.2050  -13.1270   20.8760 C   0  0  0  0  0  0  0  0  0  0  0  0
  -24.6400  -11.7690   20.8260 C   0  0  0  0  0  0  0  0  0  0  0  0
  -26.3030  -12.9870   20.2340 N   0  0  0  0  0  0  0  0  0  0  0  0
  -25.9250  -11.7080   20.4940 N   0  0  0  0  0  0  0  0  0  0  0  0
  -23.8930  -10.5170   21.0220 C   0  0  0  0  0  0  0  0  0  0  0  0
  -24.3230   -9.5360   21.9430 C   0  0  0  0  0  3  0  0  0  0  0  0
  -23.5780   -8.3510   22.1270 C   0  0  0  0  0  3  0  0  0  0  0  0
  -22.3870   -8.1400   21.3920 C   0  0  0  0  0  0  0  0  0  0  0  0
  -21.9760   -9.1080   20.4580 C   0  0  0  0  0  3  0  0  0  0  0  0
  -22.7230  -10.2830   20.2720 C   0  0  0  0  0  3  0  0  0  0  0  0
  -21.6120   -7.0090   21.4870 O   0  0  0  0  0  0  0  0  0  0  0  0
  -21.5620   -6.2630   22.6370 C   0  0  0  0  0  0  0  0  0  0  0  0
  -21.1570   -6.8200   23.8700 C   0  0  0  0  0  3  0  0  0  0  0  0
  -21.0550   -6.0020   25.0140 C   0  0  0  0  0  3  0  0  0  0  0  0
  -21.3470   -4.6280   24.9260 C   0  0  0  0  0  0  0  0  0  0  0  0
  -21.7450   -4.0690   23.6970 C   0  0  0  0  0  3  0  0  0  0  0  0
  -21.8500   -4.8860   22.5560 C   0  0  0  0  0  0  0  0  0  0  0  0
  -22.2130   -4.3390   21.3720 F   0  0  0  0  0  0  0  0  0  0  0  0
  -21.2400   -3.8400   26.0190 F   0  0  0  0  0  0  0  0  0  0  0  0
  -22.8220  -13.6270   21.1760 C   0  0  0  0  0  0  0  0  0  0  0  0
  -22.0930  -12.9410   22.0510 N   0  0  0  0  0  0  0  0  0  0  0  0
  -22.3940  -14.6640   20.6700 O   0  0  0  0  0  0  0  0  0  0  0  0
  -22.4470  -12.1000   22.4830 H   0  0  0  0  0  0  0  0  0  0  0  0
  -21.1640  -13.2580   22.2870 H   0  0  0  0  0  0  0  0  0  0  0  0
  -25.4670  -15.2530   20.3220 N   0  0  0  0  0  0  0  0  0  0  0  0
  -24.7200  -15.9270   20.4580 H   0  0  0  0  0  0  0  0  0  0  0  0
  -26.3260  -15.6730   19.9870 H   0  0  0  0  0  0  0  0  0  0  0  0
  1  5  1  0
  1 48  1  0
  1  2  1  0
  3  1  1  0
  5  4  1  0
  6  5  1  0
  7  6  1  0
  8 19  2  0
  9  7  1  0
  9 14  1  0
 10 18  1  0
 10 20  1  0
 11 17  1  0
 11 13  1  0
 12 18  1  0
 13 12  1  0
 14 13  2  0
 15 16  1  0
 15  9  2  0
 16 11  2  0
 17 10  1  0
 18  8  1  0
 20 22  2  0
 21 20  1  0
 23 21  1  0
 24 33  2  0
 24 29  1  0
 25 21  1  0
 25 29  1  0
 26 25  1  0
 27 28  1  0
 27 26  1  0
 28 24  1  0
 29 30  2  0
 30 31  1  0
 32 31  2  0
 33 32  1  0
 34  8  1  0
 34 39  1  0
 34 35  1  0
 35 38  1  1
 35 36  1  0
 37 35  1  0
 39 42  1  0
 40 44  1  0
 40 39  1  0
 41 40  2  0
 44 43  1  0
 46 44  1  0
 46 47  1  0
 46 45  1  0
 49 48  1  0
 49 50  1  0
 51 50  1  0
 51 52  1  0
 53 61  1  0
 54 59  1  0
 55 56  1  0
 55 54  1  0
 57 56  1  0
 57 66  1  0
 57 58  1  0
 59 53  1  0
 59 58  1  0
 60 53  2  0
 61 52  1  0
 61 62  1  0
 63 64  2  0
 64 83  1  0
 65 64  1  0
 65 68  1  0
 66 63  1  0
 66 67  1  0
 67 65  2  0
 68 69  1  0
 69 70  2  0
 71 74  1  0
 71 70  1  0
 72 71  2  0
 73 72  1  0
 73 68  2  0
 74 75  1  0
 75 76  1  0
 76 77  2  0
 78 77  1  0
 78 82  1  0
 79 78  2  0
 80 75  2  0
 80 79  1  0
 81 80  1  0
 83 84  1  0
 84 87  1  0
 84 86  1  0
 85 83  2  0
 88 89  1  0
 88 63  1  0
 90 88  1  0
M  ISO  4   6 101   7 101  53 100  61 100
M  END
>  <TORSDO>  (2) 
F 23

>  <SCORE>  (2) 
-12.742

>  <name>  (2) 
1

>  <ligand_id>  (2) 
1

>  <original_smiles>  (2) 
[H]c1c([H])c([H])c2c(c1[H])C([H])([H])C([H])([H])C([H])([H])C2([H])N([H])C(=O)C1([H])N(C(=O)C([H])(N([H])C(=O)C([H])(N([H])C([H])([H])[H])C([H])([H])[H])C(C([H])([H])[H])(C([H])([H])[H])C([H])([H])[H])C([H])([H])c2c([H])c(OC([H])([H])C([H])(C([H])([H])[H])[N+]([H])([H])C([H])([H])C([H])([H])C([H])([H])C([H])([H])C([H])([H])N([H])C(=O)N3C([H])([H])C([H])([H])C([H])([H])C([H])(n4nc(-c5c([H])c([H])c(Oc6c([H])c([H])c(F)c([H])c6F)c([H])c5[H])c(C(=O)N([H])[H])c4N([H])[H])C3([H])[H])c([H])c([H])c2C1([H])[H]

>  <smiles>  (2) 
[H]c1c([H])c([H])c2c(c1[H])C([H])([H])C([H])([H])C([H])([H])C2([H])N([H])C(=O)C1([H])N(C(=O)C([H])(N([H])C(=O)C([H])(N([H])C([H])([H])[H])C([H])([H])[H])C(C([H])([H])[H])(C([H])([H])[H])C([H])([H])[H])C([H])([H])c2c([H])c(OC([H])([H])C([H])(C([H])([H])[H])[N+]([H])([H])C([H])([H])C([H])([H])C([H])([H])C([H])([H])C([H])([H])N([H])C(=O)N3C([H])([H])C([H])([H])C([H])([H])C([H])(n4nc(-c5c([H])c([H])c(Oc6c([H])c([H])c(F)c([H])c6F)c([H])c5[H])c(C(=O)N([H])[H])c4N([H])[H])C3([H])[H])c([H])c([H])c2C1([H])[H]

$$$$
2:0:0
     RDKit          3D

105113  0  0  1  0  0  0  0  0999 V2000
  -27.1570  -24.9370   22.3230 C   0  0  0  0  0  3  0  0  0  0  0  0
  -28.0550  -23.3070   20.7690 C   0  0  0  0  0  3  0  0  0  0  0  0
  -26.9590  -24.0400   21.2600 C   0  0  0  0  0  0  0  0  0  0  0  0
  -28.4550  -25.1670   22.8190 C   0  0  0  0  0  0  0  0  0  0  0  0
  -29.3740  -23.4730   21.2690 C   0  0  0  0  0  0  0  0  0  0  0  0
  -29.5660  -24.4720   22.2750 C   0  0  0  0  0  0  0  0  0  0  0  0
  -28.6270  -26.2150   23.9080 C   0  0  0  0  0  1  0  0  0  0  0  0
  -30.8290  -24.8390   22.7420 N   0  0  0  0  0  0  0  0  0  0  0  0
  -30.9340  -25.7280   23.2130 H   0  0  0  0  0  0  0  0  0  0  0  0
  -31.6590  -24.5650   22.2330 H   0  0  0  0  0  0  0  0  0  0  0  0
  -24.4300  -24.0670   21.5670 C   0  0  0  0  0  1  0  0  0  0  0  0
  -25.5940  -23.9080   20.5800 C   0  0  0  0  0  3  0  0  0  0  0  0
  -25.4610  -24.8490   19.4410 N   0  0  0  0  0  4  0  0  0  0  0  0
  -24.6140  -24.5930   18.9540 H   0  0  0  0  0  0  0  0  0  0  0  0
  -25.3270  -25.7830   19.7910 H   0  0  0  0  0  0  0  0  0  0  0  0
  -26.5650  -24.8610   18.4420 C   0  0  0  0  0  2  0  0  0  0  0  0
  -27.6910  -25.8600   18.7930 C   0  0  0  0  0  2  0  0  0  0  0  0
  -27.4840  -27.1710   18.2700 O   0  0  0  0  0  0  0  0  0  0  0  0
  -25.1220  -31.2420   23.6260 C   0  0  0  0  0  0  0  0  0  0  0  0
  -26.4550  -27.9080   18.8040 C   0  0  0  0  0  0  0  0  0  0  0  0
  -23.4540  -30.6520   21.9000 C   0  0  0  0  0  3  0  0  0  0  0  0
  -24.3850  -29.5420   19.8050 C   0  0  0  0  0  0  0  0  0  0  0  0
  -25.9440  -30.7650   21.3270 C   0  0  0  0  0  2  0  0  0  0  0  0
  -25.6920  -29.6980   20.2830 C   0  0  0  0  0  0  0  0  0  0  0  0
  -26.7310  -28.8820   19.7890 C   0  0  0  0  0  3  0  0  0  0  0  0
  -25.1350  -27.7780   18.3180 C   0  0  0  0  0  3  0  0  0  0  0  0
  -24.0950  -28.5760   18.8290 C   0  0  0  0  0  3  0  0  0  0  0  0
  -23.3350  -30.4730   20.3640 C   0  0  0  0  0  2  0  0  0  0  0  0
  -24.8700  -30.8740   22.3400 N   0  0  0  0  0  0  0  0  0  0  0  0
  -24.1990  -31.4390   24.4280 O   0  0  0  0  0  0  0  0  0  0  0  0
  -22.7800  -29.4460   22.5880 C   0  0  0  0  0  0  0  0  0  0  0  0
  -21.4460  -29.3550   22.4550 N   0  0  0  0  0  0  0  0  0  0  0  0
  -23.4480  -28.6050   23.1950 O   0  0  0  0  0  0  0  0  0  0  0  0
  -20.9710  -30.0860   21.9450 H   0  0  0  0  0  0  0  0  0  0  0  0
  -18.0810  -28.0350   22.4690 C   0  0  0  0  0  0  0  0  0  0  0  0
  -20.6030  -28.2810   22.9770 C   0  0  0  0  0  3  0  0  0  0  0  0
  -20.7930  -26.9800   22.1640 C   0  0  0  0  0  2  0  0  0  0  0  0
  -19.7740  -26.8220   21.0320 C   0  0  0  0  0  2  0  0  0  0  0  0
  -18.3490  -26.8240   21.5900 C   0  0  0  0  0  2  0  0  0  0  0  0
  -19.1430  -28.7270   23.1090 C   0  0  0  0  0  0  0  0  0  0  0  0
  -18.8470  -29.8670   23.8870 C   0  0  0  0  0  3  0  0  0  0  0  0
  -17.5190  -30.3140   24.0320 C   0  0  0  0  0  3  0  0  0  0  0  0
  -16.4700  -29.6140   23.4100 C   0  0  0  0  0  3  0  0  0  0  0  0
  -16.7520  -28.4760   22.6330 C   0  0  0  0  0  3  0  0  0  0  0  0
  -26.5790  -31.4590   24.1450 C   0  0  0  0  0  3  0  0  0  0  0  0
  -26.6200  -32.7740   24.7990 N   0  0  0  0  0  0  0  0  0  0  0  0
  -27.0910  -33.8920   24.2320 C   0  0  0  0  0  0  0  0  0  0  0  0
  -27.6090  -33.9060   23.1120 O   0  0  0  0  0  0  0  0  0  0  0  0
  -26.1640  -32.8460   25.6970 H   0  0  0  0  0  0  0  0  0  0  0  0
  -25.7780  -36.0210   24.5060 C   0  0  0  0  0  1  0  0  0  0  0  0
  -26.9690  -35.2030   25.0320 C   0  0  0  0  0  3  0  0  0  0  0  0
  -29.3140  -35.4390   25.7220 C   0  0  0  0  0  1  0  0  0  0  0  0
  -28.1940  -36.0310   24.9930 N   0  0  0  0  0  0  0  0  0  0  0  0
  -28.0170  -36.9540   25.3800 H   0  0  0  0  0  0  0  0  0  0  0  0
  -27.0630  -30.3260   25.1310 C   0  0  1  0  0  0  0  0  0  0  0  0
  -26.0730  -30.0490   26.2870 C   0  0  0  0  0  1  0  0  0  0  0  0
  -27.2820  -28.9960   24.3710 C   0  0  0  0  0  1  0  0  0  0  0  0
  -28.4270  -30.7150   25.7500 C   0  0  0  0  0  1  0  0  0  0  0  0
  -31.8180  -22.5430   21.4680 C   0  0  0  0  0  1  0  0  0  0  0  0
  -30.5100  -22.6090   20.6470 C   0  0  0  0  0  3  0  0  0  0  0  0
  -30.1100  -21.1940   20.4170 N   0  0  0  0  0  4  0  0  0  0  0  0
  -30.8080  -20.6500   20.8930 H   0  0  0  0  0  0  0  0  0  0  0  0
  -29.2330  -21.0120   20.8750 H   0  0  0  0  0  0  0  0  0  0  0  0
  -30.0810  -20.7120   19.0150 C   0  0  0  0  0  2  0  0  0  0  0  0
  -30.7110  -19.3100   18.8700 C   0  0  0  0  0  2  0  0  0  0  0  0
  -29.9100  -18.1020   19.4280 C   0  0  0  0  0  2  0  0  0  0  0  0
  -30.8200  -16.8570   19.4750 C   0  0  0  0  0  2  0  0  0  0  0  0
  -30.7500  -14.4020   19.3900 C   0  0  0  0  0  0  0  0  0  0  0  0
  -30.6810  -11.9480   19.2700 C   0  0  0  0  0  2  0  0  0  0  0  0
  -29.7730  -11.4930   18.1130 C   0  0  0  0  0  2  0  0  0  0  0  0
  -28.3210  -11.3550   18.6020 C   0  0  0  0  0  2  0  0  0  0  0  0
  -27.8270  -12.5990   19.3880 C   0  0  0  0  0  3  0  0  0  0  0  0
  -28.8660  -13.0590   20.4400 C   0  0  0  0  0  2  0  0  0  0  0  0
  -30.1650  -13.2330   19.7690 N   0  0  0  0  0  0  0  0  0  0  0  0
  -31.8020  -14.4260   18.7470 O   0  0  0  0  0  0  0  0  0  0  0  0
  -30.1550  -15.5610   19.7230 N   0  0  0  0  0  0  0  0  0  0  0  0
  -29.2850  -15.5320   20.2350 H   0  0  0  0  0  0  0  0  0  0  0  0
  -25.5070  -13.2600   20.2900 C   0  0  0  0  0  0  0  0  0  0  0  0
  -24.4580  -12.5120   20.7560 C   0  0  0  0  0  0  0  0  0  0  0  0
  -24.8850  -11.1510   20.7000 C   0  0  0  0  0  0  0  0  0  0  0  0
  -26.5130  -12.3560   19.9850 N   0  0  0  0  0  0  0  0  0  0  0  0
  -26.1460  -11.0830   20.2850 N   0  0  0  0  0  0  0  0  0  0  0  0
  -24.1490   -9.9060   20.9630 C   0  0  0  0  0  0  0  0  0  0  0  0
  -24.5180   -9.0350   22.0120 C   0  0  0  0  0  3  0  0  0  0  0  0
  -23.7820   -7.8550   22.2580 C   0  0  0  0  0  3  0  0  0  0  0  0
  -22.6610   -7.5370   21.4540 C   0  0  0  0  0  0  0  0  0  0  0  0
  -22.3110   -8.3960   20.3980 C   0  0  0  0  0  3  0  0  0  0  0  0
  -23.0480   -9.5670   20.1510 C   0  0  0  0  0  3  0  0  0  0  0  0
  -21.9050   -6.3990   21.6030 O   0  0  0  0  0  0  0  0  0  0  0  0
  -21.6550   -5.8580   22.8390 C   0  0  0  0  0  0  0  0  0  0  0  0
  -20.9660   -6.5760   23.8400 C   0  0  0  0  0  3  0  0  0  0  0  0
  -20.6680   -5.9570   25.0710 C   0  0  0  0  0  3  0  0  0  0  0  0
  -21.0490   -4.6210   25.2980 C   0  0  0  0  0  0  0  0  0  0  0  0
  -21.7300   -3.9030   24.3000 C   0  0  0  0  0  3  0  0  0  0  0  0
  -22.0300   -4.5200   23.0730 C   0  0  0  0  0  0  0  0  0  0  0  0
  -22.6680   -3.8160   22.1060 F   0  0  0  0  0  0  0  0  0  0  0  0
  -20.7560   -4.0250   26.4780 F   0  0  0  0  0  0  0  0  0  0  0  0
  -23.0980  -13.0240   21.1390 C   0  0  0  0  0  0  0  0  0  0  0  0
  -22.4290  -12.3530   22.0700 N   0  0  0  0  0  0  0  0  0  0  0  0
  -22.6430  -14.0550   20.6460 O   0  0  0  0  0  0  0  0  0  0  0  0
  -22.8110  -11.5200   22.4900 H   0  0  0  0  0  0  0  0  0  0  0  0
  -21.5210  -12.6810   22.3650 H   0  0  0  0  0  0  0  0  0  0  0  0
  -25.6860  -14.6240   20.0850 N   0  0  0  0  0  0  0  0  0  0  0  0
  -24.9520  -15.3010   20.2620 H   0  0  0  0  0  0  0  0  0  0  0  0
  -26.5170  -15.0410   19.6820 H   0  0  0  0  0  0  0  0  0  0  0  0
  1  4  1  0
  2  3  1  0
  2  5  2  0
  3  1  2  0
  4  7  1  0
  5  6  1  0
  6  8  1  0
  6  4  2  0
  8  9  1  0
 10  8  1  0
 12  3  1  0
 12 11  1  0
 13 15  1  0
 13 12  1  0
 14 13  1  0
 16 17  1  0
 16 13  1  0
 18 17  1  0
 18 20  1  0
 19 30  2  0
 20 25  1  0
 21 29  1  0
 21 31  1  0
 22 24  1  0
 22 28  1  0
 23 29  1  0
 24 23  1  0
 25 24  2  0
 26 20  2  0
 26 27  1  0
 27 22  2  0
 28 21  1  0
 29 19  1  0
 31 33  2  0
 32 31  1  0
 34 32  1  0
 35 44  2  0
 35 40  1  0
 36 32  1  0
 36 40  1  0
 37 36  1  0
 38 39  1  0
 38 37  1  0
 39 35  1  0
 40 41  2  0
 41 42  1  0
 43 42  2  0
 44 43  1  0
 45 19  1  0
 45 46  1  0
 45 55  1  0
 46 49  1  0
 47 46  1  0
 47 51  1  0
 48 47  2  0
 51 50  1  0
 53 51  1  0
 53 54  1  0
 53 52  1  0
 55 58  1  1
 55 56  1  0
 57 55  1  0
 60  5  1  0
 60 59  1  0
 61 60  1  0
 61 63  1  0
 61 62  1  0
 64 61  1  0
 65 64  1  0
 65 66  1  0
 66 67  1  0
 67 76  1  0
 68 76  1  0
 68 74  1  0
 69 74  1  0
 70 71  1  0
 70 69  1  0
 72 71  1  0
 72 81  1  0
 72 73  1  0
 74 73  1  0
 75 68  2  0
 76 77  1  0
 78 79  2  0
 79 98  1  0
 80 79  1  0
 80 83  1  0
 81 82  1  0
 81 78  1  0
 82 80  2  0
 83 84  1  0
 84 85  2  0
 86 89  1  0
 86 85  1  0
 87 86  2  0
 88 87  1  0
 88 83  2  0
 89 90  1  0
 90 95  2  0
 90 91  1  0
 91 92  2  0
 92 93  1  0
 93 97  1  0
 94 93  2  0
 95 94  1  0
 96 95  1  0
 98 99  1  0
 99102  1  0
 99101  1  0
100 98  2  0
103104  1  0
103 78  1  0
105103  1  0
M  ISO  4  17 101  18 101  68 100  76 100
M  END
>  <TORSDO>  (3) 
F 27

>  <SCORE>  (3) 
-8.905

>  <name>  (3) 
2

>  <ligand_id>  (3) 
2

>  <original_smiles>  (3) 
[H]c1c([H])c([H])c2c(c1[H])C([H])([H])C([H])([H])C([H])([H])C2([H])N([H])C(=O)C1([H])N(C(=O)C([H])(N([H])C(=O)C([H])(N([H])C([H])([H])[H])C([H])([H])[H])C(C([H])([H])[H])(C([H])([H])[H])C([H])([H])[H])C([H])([H])c2c([H])c(OC([H])([H])C([H])([H])[N+]([H])([H])C([H])(c3c([H])c(C([H])([H])[H])c(N([H])[H])c(C([H])(C([H])([H])[H])[N+]([H])([H])C([H])([H])C([H])([H])C([H])([H])C([H])([H])N([H])C(=O)N4C([H])([H])C([H])([H])C([H])([H])C([H])(n5nc(-c6c([H])c([H])c(Oc7c([H])c([H])c(F)c([H])c7F)c([H])c6[H])c(C(=O)N([H])[H])c5N([H])[H])C4([H])[H])c3[H])C([H])([H])[H])c([H])c([H])c2C1([H])[H]

>  <smiles>  (3) 
[H]c1c([H])c([H])c2c(c1[H])C([H])([H])C([H])([H])C([H])([H])C2([H])N([H])C(=O)C1([H])N(C(=O)C([H])(N([H])C(=O)C([H])(N([H])C([H])([H])[H])C([H])([H])[H])C(C([H])([H])[H])(C([H])([H])[H])C([H])([H])[H])C([H])([H])c2c([H])c(OC([H])([H])C([H])([H])[N+]([H])([H])C([H])(c3c([H])c(C([H])([H])[H])c(N([H])[H])c(C([H])(C([H])([H])[H])[N+]([H])([H])C([H])([H])C([H])([H])C([H])([H])C([H])([H])N([H])C(=O)N4C([H])([H])C([H])([H])C([H])([H])C([H])(n5nc(-c6c([H])c([H])c(Oc7c([H])c([H])c(F)c([H])c7F)c([H])c6[H])c(C(=O)N([H])[H])c5N([H])[H])C4([H])[H])c3[H])C([H])([H])[H])c([H])c([H])c2C1([H])[H]

$$$$
3:0:0
     RDKit          3D

100108  0  0  1  0  0  0  0  0999 V2000
  -24.0740  -22.4770   21.1390 C   0  0  0  0  0  3  0  0  0  0  0  0
  -23.9940  -23.7510   21.6920 C   0  0  0  0  0  3  0  0  0  0  0  0
  -25.2550  -22.0590   20.5270 C   0  0  0  0  0  3  0  0  0  0  0  0
  -25.1080  -24.6100   21.6710 C   0  0  0  0  0  0  0  0  0  0  0  0
  -26.4230  -22.8700   20.4640 C   0  0  0  0  0  0  0  0  0  0  0  0
  -26.3610  -24.1870   21.0880 C   0  0  0  0  0  0  0  0  0  0  0  0
  -24.8630  -25.9410   22.3120 C   0  0  0  0  0  3  0  0  0  0  0  0
  -24.0880  -26.1180   23.2550 O   0  0  0  0  0  0  0  0  0  0  0  0
  -27.5910  -22.2470   19.6910 C   0  0  0  0  0  0  0  0  0  0  0  0
  -28.5150  -22.8730   19.1920 O   0  0  0  0  0  0  0  0  0  0  0  0
  -27.5650  -20.7190   19.4050 C   0  0  0  0  0  2  0  0  0  0  0  0
  -28.9220  -19.9950   19.0960 C   0  0  0  0  0  3  0  0  0  0  0  0
  -29.0670  -19.7650   17.6320 N   0  0  0  0  0  4  0  0  0  0  0  0
  -28.3280  -19.1860   17.2680 H   0  0  0  0  0  0  0  0  0  0  0  0
  -29.9380  -19.3100   17.4290 H   0  0  0  0  0  0  0  0  0  0  0  0
  -29.0730  -20.6280   17.1200 H   0  0  0  0  0  0  0  0  0  0  0  0
  -28.9840  -18.6480   19.8920 C   0  0  0  0  0  2  0  0  0  0  0  0
  -30.3550  -17.9200   20.0540 C   0  0  0  0  0  2  0  0  0  0  0  0
  -31.0710  -15.5290   20.5270 C   0  0  0  0  0  0  0  0  0  0  0  0
  -31.0030  -13.2160   19.6990 C   0  0  0  0  0  2  0  0  0  0  0  0
  -30.1550  -13.1920   18.4030 C   0  0  0  0  0  2  0  0  0  0  0  0
  -28.6550  -13.0250   18.7490 C   0  0  0  0  0  2  0  0  0  0  0  0
  -28.1630  -14.0040   19.8520 C   0  0  0  0  0  3  0  0  0  0  0  0
  -29.1460  -14.0170   21.0500 C   0  0  0  0  0  2  0  0  0  0  0  0
  -30.4900  -14.3060   20.5360 N   0  0  0  0  0  0  0  0  0  0  0  0
  -32.2620  -15.7290   20.2840 O   0  0  0  0  0  0  0  0  0  0  0  0
  -30.1680  -16.5370   20.5130 N   0  0  0  0  0  0  0  0  0  0  0  0
  -29.2120  -16.2580   20.6520 H   0  0  0  0  0  0  0  0  0  0  0  0
  -25.7480  -14.6220   20.4740 C   0  0  0  0  0  0  0  0  0  0  0  0
  -24.6640  -13.8480   20.7850 C   0  0  0  0  0  0  0  0  0  0  0  0
  -25.1160  -12.4950   20.7250 C   0  0  0  0  0  0  0  0  0  0  0  0
  -26.7950  -13.7370   20.2670 N   0  0  0  0  0  0  0  0  0  0  0  0
  -26.4160  -12.4550   20.4720 N   0  0  0  0  0  0  0  0  0  0  0  0
  -24.3830  -11.2340   20.8480 C   0  0  0  0  0  0  0  0  0  0  0  0
  -24.7570  -10.2610   21.7990 C   0  0  0  0  0  3  0  0  0  0  0  0
  -24.0260   -9.0560   21.9150 C   0  0  0  0  0  3  0  0  0  0  0  0
  -22.8990   -8.8290   21.0910 C   0  0  0  0  0  0  0  0  0  0  0  0
  -22.5510   -9.7900   20.1240 C   0  0  0  0  0  3  0  0  0  0  0  0
  -23.2840  -10.9850   20.0030 C   0  0  0  0  0  3  0  0  0  0  0  0
  -22.1370   -7.6850   21.1270 O   0  0  0  0  0  0  0  0  0  0  0  0
  -21.9770   -6.9650   22.2820 C   0  0  0  0  0  0  0  0  0  0  0  0
  -21.4060   -7.5330   23.4420 C   0  0  0  0  0  3  0  0  0  0  0  0
  -21.1770   -6.7260   24.5790 C   0  0  0  0  0  3  0  0  0  0  0  0
  -21.5060   -5.3590   24.5500 C   0  0  0  0  0  0  0  0  0  0  0  0
  -22.0710   -4.7940   23.3900 C   0  0  0  0  0  3  0  0  0  0  0  0
  -22.2960   -5.5910   22.2600 C   0  0  0  0  0  0  0  0  0  0  0  0
  -22.8220   -5.0370   21.1390 F   0  0  0  0  0  0  0  0  0  0  0  0
  -21.2860   -4.5860   25.6390 F   0  0  0  0  0  0  0  0  0  0  0  0
  -23.2510  -14.3100   20.9910 C   0  0  0  0  0  0  0  0  0  0  0  0
  -22.5070  -13.6260   21.8490 N   0  0  0  0  0  0  0  0  0  0  0  0
  -22.8120  -15.3170   20.4330 O   0  0  0  0  0  0  0  0  0  0  0  0
  -21.5520  -13.9040   22.0150 H   0  0  0  0  0  0  0  0  0  0  0  0
  -22.8920  -12.8630   22.3800 H   0  0  0  0  0  0  0  0  0  0  0  0
  -25.9170  -16.0030   20.3250 N   0  0  0  0  0  0  0  0  0  0  0  0
  -25.1480  -16.6470   20.4630 H   0  0  0  0  0  0  0  0  0  0  0  0
  -26.7450  -16.4630   19.9720 H   0  0  0  0  0  0  0  0  0  0  0  0
  -27.5920  -25.1130   21.3220 C   0  0  0  0  0  2  0  0  0  0  0  0
  -28.4860  -25.5200   20.1420 C   0  0  0  0  0  2  0  0  0  0  0  0
  -29.1130  -26.9240   20.2270 C   0  0  0  0  0  2  0  0  0  0  0  0
  -28.5890  -27.7150   19.1740 O   0  0  0  0  0  0  0  0  0  0  0  0
  -24.7580  -31.8690   23.4950 C   0  0  0  0  0  0  0  0  0  0  0  0
  -27.3870  -28.3130   19.4470 C   0  0  0  0  0  0  0  0  0  0  0  0
  -23.5120  -30.7780   21.6550 C   0  0  0  0  0  3  0  0  0  0  0  0
  -24.9370  -29.6120   19.8970 C   0  0  0  0  0  0  0  0  0  0  0  0
  -26.0030  -31.2840   21.4210 C   0  0  0  0  0  2  0  0  0  0  0  0
  -26.0990  -30.0750   20.5260 C   0  0  0  0  0  0  0  0  0  0  0  0
  -27.3280  -29.4170   20.3180 C   0  0  0  0  0  3  0  0  0  0  0  0
  -26.2140  -27.8430   18.8230 C   0  0  0  0  0  3  0  0  0  0  0  0
  -24.9800  -28.4840   19.0560 C   0  0  0  0  0  3  0  0  0  0  0  0
  -23.6710  -30.3910   20.1600 C   0  0  0  0  0  2  0  0  0  0  0  0
  -24.7780  -31.3160   22.2500 N   0  0  0  0  0  0  0  0  0  0  0  0
  -23.6990  -31.9810   24.1260 O   0  0  0  0  0  0  0  0  0  0  0  0
  -22.9510  -29.5580   22.4160 C   0  0  0  0  0  0  0  0  0  0  0  0
  -21.6450  -29.3010   22.2470 N   0  0  0  0  0  0  0  0  0  0  0  0
  -23.6850  -28.8500   23.1100 O   0  0  0  0  0  0  0  0  0  0  0  0
  -21.1080  -29.9380   21.6740 H   0  0  0  0  0  0  0  0  0  0  0  0
  -18.3890  -27.7400   22.4180 C   0  0  0  0  0  0  0  0  0  0  0  0
  -20.9040  -28.1790   22.8250 C   0  0  0  0  0  3  0  0  0  0  0  0
  -21.1540  -26.8770   22.0310 C   0  0  0  0  0  2  0  0  0  0  0  0
  -20.1110  -26.6210   20.9390 C   0  0  0  0  0  2  0  0  0  0  0  0
  -18.7070  -26.5380   21.5470 C   0  0  0  0  0  2  0  0  0  0  0  0
  -19.4200  -28.5210   23.0050 C   0  0  0  0  0  0  0  0  0  0  0  0
  -19.0710  -29.6510   23.7730 C   0  0  0  0  0  3  0  0  0  0  0  0
  -17.7210  -30.0010   23.9660 C   0  0  0  0  0  3  0  0  0  0  0  0
  -16.7050  -29.2160   23.3960 C   0  0  0  0  0  3  0  0  0  0  0  0
  -17.0390  -28.0860   22.6270 C   0  0  0  0  0  3  0  0  0  0  0  0
  -26.0550  -32.4090   24.1770 C   0  0  0  0  0  3  0  0  0  0  0  0
  -26.5740  -31.4910   25.3500 C   0  0  1  0  0  0  0  0  0  0  0  0
  -25.4880  -31.1430   26.3950 C   0  0  0  0  0  1  0  0  0  0  0  0
  -27.1370  -30.1650   24.7880 C   0  0  0  0  0  1  0  0  0  0  0  0
  -27.7410  -32.1930   26.0830 C   0  0  0  0  0  1  0  0  0  0  0  0
  -25.7680  -33.7650   24.6630 N   0  0  0  0  0  0  0  0  0  0  0  0
  -26.1310  -34.8900   24.0340 C   0  0  0  0  0  0  0  0  0  0  0  0
  -26.8180  -34.8950   23.0080 O   0  0  0  0  0  0  0  0  0  0  0  0
  -25.1620  -33.8370   25.4680 H   0  0  0  0  0  0  0  0  0  0  0  0
  -24.4460  -36.7450   23.8560 C   0  0  0  0  0  1  0  0  0  0  0  0
  -25.6610  -36.2260   24.6400 C   0  0  0  0  0  3  0  0  0  0  0  0
  -27.7950  -36.9600   25.6050 C   0  0  0  0  0  1  0  0  0  0  0  0
  -26.7160  -37.2630   24.6690 N   0  0  0  0  0  0  0  0  0  0  0  0
  -26.3240  -38.1680   24.9150 H   0  0  0  0  0  0  0  0  0  0  0  0
  1  2  1  0
  3  1  2  0
  4  2  2  0
  4  7  1  0
  5  3  1  0
  5  6  2  0
  6 57  1  0
  6  4  1  0
  7  8  2  0
  9  5  1  0
 10  9  2  0
 11  9  1  0
 12 11  1  0
 12 17  1  0
 13 12  1  0
 14 13  1  0
 15 13  1  0
 16 13  1  0
 17 18  1  0
 18 27  1  0
 19 25  1  0
 20 25  1  0
 21 22  1  0
 21 20  1  0
 23 22  1  0
 23 32  1  0
 23 24  1  0
 25 24  1  0
 26 19  2  0
 27 19  1  0
 27 28  1  0
 29 30  2  0
 30 49  1  0
 31 30  1  0
 31 34  1  0
 32 33  1  0
 32 29  1  0
 33 31  2  0
 34 35  1  0
 35 36  2  0
 37 40  1  0
 37 36  1  0
 38 37  2  0
 39 38  1  0
 39 34  2  0
 40 41  1  0
 41 42  1  0
 42 43  2  0
 44 43  1  0
 44 48  1  0
 45 44  2  0
 46 41  2  0
 46 45  1  0
 47 46  1  0
 49 50  1  0
 50 52  1  0
 50 53  1  0
 51 49  2  0
 54 55  1  0
 54 29  1  0
 56 54  1  0
 58 59  1  0
 58 57  1  0
 60 62  1  0
 60 59  1  0
 61 72  2  0
 62 67  1  0
 63 71  1  0
 63 73  1  0
 64 70  1  0
 64 66  1  0
 65 71  1  0
 66 65  1  0
 67 66  2  0
 68 69  1  0
 68 62  2  0
 69 64  2  0
 70 63  1  0
 71 61  1  0
 73 75  2  0
 74 73  1  0
 76 74  1  0
 77 86  2  0
 77 82  1  0
 78 74  1  0
 78 82  1  0
 79 78  1  0
 80 81  1  0
 80 79  1  0
 81 77  1  0
 82 83  2  0
 83 84  1  0
 85 84  2  0
 86 85  1  0
 87 61  1  0
 87 92  1  0
 87 88  1  0
 88 91  1  1
 88 89  1  0
 90 88  1  0
 92 95  1  0
 93 97  1  0
 93 92  1  0
 94 93  2  0
 97 96  1  0
 97 99  1  0
 99100  1  0
 99 98  1  0
M  ISO  4  19 100  27 100  59 101  60 101
M  END
>  <TORSDO>  (4) 
F 26

>  <SCORE>  (4) 
-6.915

>  <name>  (4) 
3

>  <ligand_id>  (4) 
3

>  <original_smiles>  (4) 
[H]C(=O)c1c([H])c([H])c([H])c(C(=O)C([H])([H])C([H])(C([H])([H])C([H])([H])N([H])C(=O)N2C([H])([H])C([H])([H])C([H])([H])C([H])(n3nc(-c4c([H])c([H])c(Oc5c([H])c([H])c(F)c([H])c5F)c([H])c4[H])c(C(=O)N([H])[H])c3N([H])[H])C2([H])[H])[N+]([H])([H])[H])c1C([H])([H])C([H])([H])C([H])([H])Oc1c([H])c([H])c2c(c1[H])C([H])([H])N(C(=O)C([H])(N([H])C(=O)C([H])(N([H])C([H])([H])[H])C([H])([H])[H])C(C([H])([H])[H])(C([H])([H])[H])C([H])([H])[H])C([H])(C(=O)N([H])C1([H])c3c([H])c([H])c([H])c([H])c3C([H])([H])C([H])([H])C1([H])[H])C2([H])[H]

>  <smiles>  (4) 
[H]C(=O)c1c([H])c([H])c([H])c(C(=O)C([H])([H])C([H])(C([H])([H])C([H])([H])N([H])C(=O)N2C([H])([H])C([H])([H])C([H])([H])C([H])(n3nc(-c4c([H])c([H])c(Oc5c([H])c([H])c(F)c([H])c5F)c([H])c4[H])c(C(=O)N([H])[H])c3N([H])[H])C2([H])[H])[N+]([H])([H])[H])c1C([H])([H])C([H])([H])C([H])([H])Oc1c([H])c([H])c2c(c1[H])C([H])([H])N(C(=O)C([H])(N([H])C(=O)C([H])(N([H])C([H])([H])[H])C([H])([H])[H])C(C([H])([H])[H])(C([H])([H])[H])C([H])([H])[H])C([H])(C(=O)N([H])C1([H])c3c([H])c([H])c([H])c([H])c3C([H])([H])C([H])([H])C1([H])[H])C2([H])[H]

$$$$
4:0:0
     RDKit          3D

101109  0  0  1  0  0  0  0  0999 V2000
  -24.4870  -20.6650   18.8590 C   0  0  0  0  0  2  0  0  0  0  0  0
  -27.7780  -19.4720   17.2950 C   0  0  0  0  0  3  0  0  0  0  0  0
  -27.5770  -18.4990   19.5210 C   0  0  0  0  0  3  0  0  0  0  0  0
  -26.5390  -20.1190   17.4640 C   0  0  0  0  0  3  0  0  0  0  0  0
  -26.3360  -19.1410   19.6890 C   0  0  0  0  0  3  0  0  0  0  0  0
  -28.3150  -18.6730   18.3280 C   0  0  0  0  0  0  0  0  0  0  0  0
  -25.8180  -19.9610   18.6660 C   0  0  0  0  0  0  0  0  0  0  0  0
  -29.6410  -17.9990   18.1410 C   0  0  0  0  0  0  0  0  0  0  0  0
  -30.5080  -18.1660   19.1460 N   0  0  0  0  0  0  0  0  0  0  0  0
  -29.9080  -17.3970   17.0980 O   0  0  0  0  0  0  0  0  0  0  0  0
  -30.1880  -18.7100   19.9350 H   0  0  0  0  0  0  0  0  0  0  0  0
  -31.8980  -17.7240   19.1640 C   0  0  0  0  0  2  0  0  0  0  0  0
  -32.2340  -16.9560   20.4560 C   0  0  0  0  0  2  0  0  0  0  0  0
  -32.0650  -14.5410   19.8790 C   0  0  0  0  0  0  0  0  0  0  0  0
  -31.8620  -12.0940   19.6730 C   0  0  0  0  0  2  0  0  0  0  0  0
  -30.9530  -11.6860   18.5000 C   0  0  0  0  0  2  0  0  0  0  0  0
  -29.4780  -11.6460   18.9430 C   0  0  0  0  0  2  0  0  0  0  0  0
  -29.0480  -12.9350   19.6890 C   0  0  0  0  0  3  0  0  0  0  0  0
  -30.0660  -13.3010   20.7910 C   0  0  0  0  0  2  0  0  0  0  0  0
  -31.4060  -13.3950   20.1820 N   0  0  0  0  0  0  0  0  0  0  0  0
  -33.0650  -14.5810   19.1540 O   0  0  0  0  0  0  0  0  0  0  0  0
  -31.6160  -15.6330   20.5070 N   0  0  0  0  0  0  0  0  0  0  0  0
  -30.8150  -15.5160   21.1090 H   0  0  0  0  0  0  0  0  0  0  0  0
  -26.8020  -13.7980   20.6120 C   0  0  0  0  0  0  0  0  0  0  0  0
  -25.6540  -13.1480   20.9770 C   0  0  0  0  0  0  0  0  0  0  0  0
  -25.9090  -11.7560   20.7830 C   0  0  0  0  0  0  0  0  0  0  0  0
  -27.6940  -12.8080   20.2270 N   0  0  0  0  0  0  0  0  0  0  0  0
  -27.1600  -11.5680   20.3830 N   0  0  0  0  0  0  0  0  0  0  0  0
  -25.0170  -10.5950   20.9000 C   0  0  0  0  0  0  0  0  0  0  0  0
  -25.2100   -9.6110   21.8930 C   0  0  0  0  0  3  0  0  0  0  0  0
  -24.3290   -8.5120   21.9950 C   0  0  0  0  0  3  0  0  0  0  0  0
  -23.2390   -8.3920   21.1010 C   0  0  0  0  0  0  0  0  0  0  0  0
  -23.0640   -9.3630   20.0990 C   0  0  0  0  0  3  0  0  0  0  0  0
  -23.9450  -10.4530   19.9950 C   0  0  0  0  0  3  0  0  0  0  0  0
  -22.3460   -7.3480   21.1090 O   0  0  0  0  0  0  0  0  0  0  0  0
  -21.9060   -6.7860   22.2800 C   0  0  0  0  0  0  0  0  0  0  0  0
  -21.1870   -7.5310   23.2400 C   0  0  0  0  0  3  0  0  0  0  0  0
  -20.6930   -6.8980   24.3990 C   0  0  0  0  0  3  0  0  0  0  0  0
  -20.9090   -5.5210   24.5950 C   0  0  0  0  0  0  0  0  0  0  0  0
  -21.6200   -4.7760   23.6380 C   0  0  0  0  0  3  0  0  0  0  0  0
  -22.1150   -5.4070   22.4830 C   0  0  0  0  0  0  0  0  0  0  0  0
  -22.7810   -4.6800   21.5540 F   0  0  0  0  0  0  0  0  0  0  0  0
  -20.4280   -4.9100   25.7040 F   0  0  0  0  0  0  0  0  0  0  0  0
  -24.3590  -13.7840   21.3930 C   0  0  0  0  0  0  0  0  0  0  0  0
  -23.6030  -13.1240   22.2630 N   0  0  0  0  0  0  0  0  0  0  0  0
  -24.0320  -14.8970   20.9820 O   0  0  0  0  0  0  0  0  0  0  0  0
  -23.8790  -12.2190   22.6130 H   0  0  0  0  0  0  0  0  0  0  0  0
  -22.7340  -13.5280   22.5820 H   0  0  0  0  0  0  0  0  0  0  0  0
  -27.1560  -15.1430   20.5570 N   0  0  0  0  0  0  0  0  0  0  0  0
  -26.5050  -15.8860   20.7870 H   0  0  0  0  0  0  0  0  0  0  0  0
  -28.0420  -15.4900   20.2130 H   0  0  0  0  0  0  0  0  0  0  0  0
  -24.6030  -22.2010   18.8470 C   0  0  0  0  0  2  0  0  0  0  0  0
  -25.4330  -22.7260   19.9610 N   0  0  0  0  0  4  0  0  0  0  0  0
  -26.3940  -22.5240   19.7320 H   0  0  0  0  0  0  0  0  0  0  0  0
  -25.2170  -22.2320   20.8110 H   0  0  0  0  0  0  0  0  0  0  0  0
  -23.9160  -24.5120   20.8180 C   0  0  0  0  0  1  0  0  0  0  0  0
  -25.2850  -24.1840   20.1930 C   0  0  0  0  0  3  0  0  0  0  0  0
  -26.4150  -24.7670   21.0760 C   0  0  0  0  0  2  0  0  0  0  0  0
  -27.8060  -24.8590   20.4000 C   0  0  0  0  0  2  0  0  0  0  0  0
  -28.6200  -26.1160   20.8000 C   0  0  0  0  0  2  0  0  0  0  0  0
  -28.5210  -27.1900   19.8590 O   0  0  0  0  0  0  0  0  0  0  0  0
  -24.7500  -31.9040   23.6330 C   0  0  0  0  0  0  0  0  0  0  0  0
  -27.3860  -27.9500   19.9640 C   0  0  0  0  0  0  0  0  0  0  0  0
  -23.5590  -30.7990   21.7670 C   0  0  0  0  0  3  0  0  0  0  0  0
  -25.0210  -29.4690   20.1550 C   0  0  0  0  0  0  0  0  0  0  0  0
  -26.0940  -31.1260   21.6900 C   0  0  0  0  0  2  0  0  0  0  0  0
  -26.1690  -29.8680   20.8520 C   0  0  0  0  0  0  0  0  0  0  0  0
  -27.3550  -29.1080   20.7690 C   0  0  0  0  0  3  0  0  0  0  0  0
  -26.2420  -27.5840   19.2300 C   0  0  0  0  0  3  0  0  0  0  0  0
  -25.0480  -28.3210   19.3440 C   0  0  0  0  0  3  0  0  0  0  0  0
  -23.7890  -30.3330   20.3060 C   0  0  0  0  0  2  0  0  0  0  0  0
  -24.8170  -31.2810   22.4240 N   0  0  0  0  0  0  0  0  0  0  0  0
  -23.6610  -32.1180   24.1840 O   0  0  0  0  0  0  0  0  0  0  0  0
  -22.8630  -29.6580   22.5430 C   0  0  0  0  0  0  0  0  0  0  0  0
  -21.5300  -29.5690   22.4030 N   0  0  0  0  0  0  0  0  0  0  0  0
  -23.5190  -28.8630   23.2220 O   0  0  0  0  0  0  0  0  0  0  0  0
  -21.0680  -30.2650   21.8340 H   0  0  0  0  0  0  0  0  0  0  0  0
  -18.0950  -28.5160   22.7760 C   0  0  0  0  0  0  0  0  0  0  0  0
  -20.6680  -28.5550   23.0060 C   0  0  0  0  0  3  0  0  0  0  0  0
  -20.6600  -27.2600   22.1630 C   0  0  0  0  0  2  0  0  0  0  0  0
  -19.5180  -27.2060   21.1450 C   0  0  0  0  0  2  0  0  0  0  0  0
  -18.1630  -27.3130   21.8510 C   0  0  0  0  0  2  0  0  0  0  0  0
  -19.2710  -29.1100   23.3040 C   0  0  0  0  0  0  0  0  0  0  0  0
  -19.1530  -30.2490   24.1290 C   0  0  0  0  0  3  0  0  0  0  0  0
  -17.8900  -30.7920   24.4300 C   0  0  0  0  0  3  0  0  0  0  0  0
  -16.7270  -30.1900   23.9170 C   0  0  0  0  0  3  0  0  0  0  0  0
  -16.8310  -29.0530   23.0970 C   0  0  0  0  0  3  0  0  0  0  0  0
  -26.0340  -32.3990   24.3720 C   0  0  0  0  0  3  0  0  0  0  0  0
  -26.4200  -31.5050   25.6150 C   0  0  1  0  0  0  0  0  0  0  0  0
  -25.2530  -31.2800   26.6040 C   0  0  0  0  0  1  0  0  0  0  0  0
  -26.9240  -30.1160   25.1570 C   0  0  0  0  0  1  0  0  0  0  0  0
  -27.5890  -32.1610   26.3880 C   0  0  0  0  0  1  0  0  0  0  0  0
  -25.7990  -33.7880   24.7810 N   0  0  0  0  0  0  0  0  0  0  0  0
  -26.2520  -34.8620   24.1200 C   0  0  0  0  0  0  0  0  0  0  0  0
  -26.9820  -34.7800   23.1270 O   0  0  0  0  0  0  0  0  0  0  0  0
  -25.1640  -33.9300   25.5530 H   0  0  0  0  0  0  0  0  0  0  0  0
  -24.6620  -36.7830   23.7940 C   0  0  0  0  0  1  0  0  0  0  0  0
  -25.8260  -36.2470   24.6410 C   0  0  0  0  0  3  0  0  0  0  0  0
  -27.9570  -36.9370   25.6490 C   0  0  0  0  0  1  0  0  0  0  0  0
  -26.9280  -37.2350   24.6550 N   0  0  0  0  0  0  0  0  0  0  0  0
  -26.5710  -38.1680   24.8400 H   0  0  0  0  0  0  0  0  0  0  0  0
  2  4  2  0
  2  6  1  0
  3  5  1  0
  4  7  1  0
  6  3  2  0
  7  1  1  0
  7  5  2  0
  8  6  1  0
  8  9  1  0
  9 12  1  0
  9 11  1  0
 10  8  2  0
 12 13  1  0
 13 22  1  0
 14 20  1  0
 14 22  1  0
 15 20  1  0
 16 17  1  0
 16 15  1  0
 18 17  1  0
 18 27  1  0
 18 19  1  0
 20 19  1  0
 21 14  2  0
 22 23  1  0
 24 25  2  0
 25 44  1  0
 26 29  1  0
 26 25  1  0
 27 28  1  0
 27 24  1  0
 28 26  2  0
 29 30  1  0
 30 31  2  0
 32 35  1  0
 32 31  1  0
 33 32  2  0
 34 33  1  0
 34 29  2  0
 35 36  1  0
 36 41  2  0
 36 37  1  0
 37 38  2  0
 38 39  1  0
 39 43  1  0
 40 39  2  0
 41 40  1  0
 42 41  1  0
 44 45  1  0
 45 48  1  0
 45 47  1  0
 46 44  2  0
 49 24  1  0
 49 50  1  0
 51 49  1  0
 52  1  1  0
 52 53  1  0
 53 57  1  0
 53 55  1  0
 54 53  1  0
 57 56  1  0
 57 58  1  0
 59 60  1  0
 59 58  1  0
 61 63  1  0
 61 60  1  0
 62 73  2  0
 63 68  1  0
 64 72  1  0
 64 74  1  0
 65 71  1  0
 65 67  1  0
 66 72  1  0
 67 66  1  0
 68 67  2  0
 69 70  1  0
 69 63  2  0
 70 65  2  0
 71 64  1  0
 72 62  1  0
 74 76  2  0
 75 74  1  0
 77 75  1  0
 78 87  2  0
 78 83  1  0
 79 75  1  0
 79 83  1  0
 80 79  1  0
 81 82  1  0
 81 80  1  0
 82 78  1  0
 83 84  2  0
 84 85  1  0
 86 85  2  0
 87 86  1  0
 88 62  1  0
 88 93  1  0
 88 89  1  0
 89 92  1  1
 89 90  1  0
 91 89  1  0
 93 96  1  0
 94 98  1  0
 94 93  1  0
 95 94  2  0
 98 97  1  0
 98100  1  0
100101  1  0
100 99  1  0
M  ISO  4  14 100  22 100  60 101  61 101
M  END
>  <TORSDO>  (5) 
F 26

>  <SCORE>  (5) 
-8.207

>  <name>  (5) 
4

>  <ligand_id>  (5) 
4

>  <original_smiles>  (5) 
[H]c1c([H])c([H])c2c(c1[H])C([H])([H])C([H])([H])C([H])([H])C2([H])N([H])C(=O)C1([H])N(C(=O)C([H])(N([H])C(=O)C([H])(N([H])C([H])([H])[H])C([H])([H])[H])C(C([H])([H])[H])(C([H])([H])[H])C([H])([H])[H])C([H])([H])c2c([H])c(OC([H])([H])C([H])([H])C([H])([H])C([H])(C([H])([H])[H])[N+]([H])([H])C([H])([H])C([H])([H])c3c([H])c([H])c(C(=O)N([H])C([H])([H])C([H])([H])N([H])C(=O)N4C([H])([H])C([H])([H])C([H])([H])C([H])(n5nc(-c6c([H])c([H])c(Oc7c([H])c([H])c(F)c([H])c7F)c([H])c6[H])c(C(=O)N([H])[H])c5N([H])[H])C4([H])[H])c([H])c3[H])c([H])c([H])c2C1([H])[H]

>  <smiles>  (5) 
[H]c1c([H])c([H])c2c(c1[H])C([H])([H])C([H])([H])C([H])([H])C2([H])N([H])C(=O)C1([H])N(C(=O)C([H])(N([H])C(=O)C([H])(N([H])C([H])([H])[H])C([H])([H])[H])C(C([H])([H])[H])(C([H])([H])[H])C([H])([H])[H])C([H])([H])c2c([H])c(OC([H])([H])C([H])([H])C([H])([H])C([H])(C([H])([H])[H])[N+]([H])([H])C([H])([H])C([H])([H])c3c([H])c([H])c(C(=O)N([H])C([H])([H])C([H])([H])N([H])C(=O)N4C([H])([H])C([H])([H])C([H])([H])C([H])(n5nc(-c6c([H])c([H])c(Oc7c([H])c([H])c(F)c([H])c7F)c([H])c6[H])c(C(=O)N([H])[H])c5N([H])[H])C4([H])[H])c([H])c3[H])c([H])c([H])c2C1([H])[H]

$$$$
5:0:0
     RDKit          3D

 95103  0  0  1  0  0  0  0  0999 V2000
  -27.8610  -20.2820   20.1650 C   0  0  0  0  0  3  0  0  0  0  0  0
  -26.8550  -21.2430   19.9840 C   0  0  0  0  0  3  0  0  0  0  0  0
  -29.4310  -22.0570   20.7120 C   0  0  0  0  0  3  0  0  0  0  0  0
  -29.1690  -20.6660   20.5380 C   0  0  0  0  0  0  0  0  0  0  0  0
  -27.1080  -22.6100   20.2010 C   0  0  0  0  0  0  0  0  0  0  0  0
  -28.4100  -23.0400   20.5710 C   0  0  0  0  0  0  0  0  0  0  0  0
  -25.9460  -23.5700   20.0290 C   0  0  0  0  0  1  0  0  0  0  0  0
  -28.6870  -24.5190   20.9210 C   0  0  0  0  0  2  0  0  0  0  0  0
  -28.8050  -25.5070   19.7280 C   0  0  0  0  0  2  0  0  0  0  0  0
  -28.6950  -26.8950   20.1310 O   0  0  0  0  0  0  0  0  0  0  0  0
  -24.6230  -31.8630   23.2430 C   0  0  0  0  0  0  0  0  0  0  0  0
  -27.4790  -27.5630   20.1120 C   0  0  0  0  0  0  0  0  0  0  0  0
  -23.5040  -30.4850   21.5200 C   0  0  0  0  0  3  0  0  0  0  0  0
  -25.0400  -29.0250   20.0990 C   0  0  0  0  0  0  0  0  0  0  0  0
  -26.0260  -30.9030   21.4170 C   0  0  0  0  0  2  0  0  0  0  0  0
  -26.1670  -29.5520   20.7420 C   0  0  0  0  0  0  0  0  0  0  0  0
  -27.3830  -28.8250   20.7490 C   0  0  0  0  0  3  0  0  0  0  0  0
  -26.3270  -27.0650   19.4550 C   0  0  0  0  0  3  0  0  0  0  0  0
  -25.1170  -27.7820   19.4520 C   0  0  0  0  0  3  0  0  0  0  0  0
  -23.7750  -29.8530   20.1280 C   0  0  0  0  0  2  0  0  0  0  0  0
  -24.7340  -31.0970   22.1190 N   0  0  0  0  0  0  0  0  0  0  0  0
  -23.5180  -32.0920   23.7550 O   0  0  0  0  0  0  0  0  0  0  0  0
  -22.8490  -29.4190   22.4260 C   0  0  0  0  0  0  0  0  0  0  0  0
  -21.5270  -29.2370   22.2770 N   0  0  0  0  0  0  0  0  0  0  0  0
  -23.5260  -28.7590   23.2180 O   0  0  0  0  0  0  0  0  0  0  0  0
  -21.0420  -29.8220   21.6120 H   0  0  0  0  0  0  0  0  0  0  0  0
  -18.1430  -28.0500   22.7300 C   0  0  0  0  0  0  0  0  0  0  0  0
  -20.7070  -28.2630   22.9950 C   0  0  0  0  0  3  0  0  0  0  0  0
  -20.7880  -26.8690   22.3300 C   0  0  0  0  0  2  0  0  0  0  0  0
  -19.6750  -26.6230   21.3070 C   0  0  0  0  0  2  0  0  0  0  0  0
  -18.2990  -26.7420   21.9720 C   0  0  0  0  0  2  0  0  0  0  0  0
  -19.2740  -28.7710   23.1970 C   0  0  0  0  0  0  0  0  0  0  0  0
  -19.0750  -29.9980   23.8670 C   0  0  0  0  0  3  0  0  0  0  0  0
  -17.7770  -30.5040   24.0730 C   0  0  0  0  0  3  0  0  0  0  0  0
  -16.6610  -29.7770   23.6220 C   0  0  0  0  0  3  0  0  0  0  0  0
  -16.8450  -28.5520   22.9570 C   0  0  0  0  0  3  0  0  0  0  0  0
  -25.8720  -32.5040   23.9230 C   0  0  0  0  0  3  0  0  0  0  0  0
  -25.5420  -33.9020   24.2240 N   0  0  0  0  0  0  0  0  0  0  0  0
  -25.9060  -34.9490   23.4700 C   0  0  0  0  0  0  0  0  0  0  0  0
  -26.6230  -34.8370   22.4730 O   0  0  0  0  0  0  0  0  0  0  0  0
  -24.9070  -34.0600   24.9930 H   0  0  0  0  0  0  0  0  0  0  0  0
  -24.1910  -36.7300   23.0090 C   0  0  0  0  0  1  0  0  0  0  0  0
  -25.3890  -36.3390   23.8880 C   0  0  0  0  0  3  0  0  0  0  0  0
  -27.4660  -37.2490   24.8300 C   0  0  0  0  0  1  0  0  0  0  0  0
  -26.4230  -37.3940   23.8180 N   0  0  0  0  0  0  0  0  0  0  0  0
  -26.0060  -38.3150   23.9230 H   0  0  0  0  0  0  0  0  0  0  0  0
  -26.3260  -31.7430   25.2290 C   0  0  1  0  0  0  0  0  0  0  0  0
  -25.1810  -31.5070   26.2410 C   0  0  0  0  0  1  0  0  0  0  0  0
  -26.9340  -30.3660   24.8740 C   0  0  0  0  0  1  0  0  0  0  0  0
  -27.4380  -32.5460   25.9430 C   0  0  0  0  0  1  0  0  0  0  0  0
  -30.2690  -19.6030   20.7940 C   0  0  0  0  0  3  0  0  0  0  0  0
  -30.8470  -19.8470   22.1240 N   0  0  0  0  0  4  0  0  0  0  0  0
  -30.1700  -19.6790   22.8450 H   0  0  0  0  0  0  0  0  0  0  0  0
  -31.1420  -20.8050   22.1890 H   0  0  0  0  0  0  0  0  0  0  0  0
  -31.6520  -19.2690   22.2830 H   0  0  0  0  0  0  0  0  0  0  0  0
  -29.8010  -18.1060   20.6630 C   0  0  0  0  0  2  0  0  0  0  0  0
  -30.8970  -17.0200   20.8770 C   0  0  0  0  0  2  0  0  0  0  0  0
  -31.0290  -14.6050   20.1610 C   0  0  0  0  0  0  0  0  0  0  0  0
  -30.6500  -12.4310   19.0580 C   0  0  0  0  0  2  0  0  0  0  0  0
  -29.6740  -12.6230   17.8800 C   0  0  0  0  0  2  0  0  0  0  0  0
  -28.2140  -12.5120   18.3590 C   0  0  0  0  0  2  0  0  0  0  0  0
  -27.9280  -13.3800   19.6150 C   0  0  0  0  0  3  0  0  0  0  0  0
  -29.0180  -13.1730   20.6920 C   0  0  0  0  0  2  0  0  0  0  0  0
  -30.3260  -13.4450   20.0730 N   0  0  0  0  0  0  0  0  0  0  0  0
  -32.1330  -14.7610   19.6310 O   0  0  0  0  0  0  0  0  0  0  0  0
  -30.3930  -15.6350   20.7540 N   0  0  0  0  0  0  0  0  0  0  0  0
  -29.4900  -15.4270   21.1520 H   0  0  0  0  0  0  0  0  0  0  0  0
  -25.5910  -14.0390   20.4610 C   0  0  0  0  0  0  0  0  0  0  0  0
  -24.5130  -13.2880   20.8460 C   0  0  0  0  0  0  0  0  0  0  0  0
  -24.9230  -11.9240   20.7390 C   0  0  0  0  0  0  0  0  0  0  0  0
  -26.5900  -13.1320   20.1440 N   0  0  0  0  0  0  0  0  0  0  0  0
  -26.1950  -11.8530   20.3690 N   0  0  0  0  0  0  0  0  0  0  0  0
  -24.1620  -10.6810   20.9160 C   0  0  0  0  0  0  0  0  0  0  0  0
  -24.5580   -9.6970   21.8480 C   0  0  0  0  0  3  0  0  0  0  0  0
  -23.7990   -8.5180   22.0100 C   0  0  0  0  0  3  0  0  0  0  0  0
  -22.6310   -8.3150   21.2390 C   0  0  0  0  0  0  0  0  0  0  0  0
  -22.2530   -9.2880   20.2970 C   0  0  0  0  0  3  0  0  0  0  0  0
  -23.0120  -10.4580   20.1320 C   0  0  0  0  0  3  0  0  0  0  0  0
  -21.8460   -7.1880   21.3100 O   0  0  0  0  0  0  0  0  0  0  0  0
  -21.7130   -6.4760   22.4740 C   0  0  0  0  0  0  0  0  0  0  0  0
  -21.1680   -7.0520   23.6420 C   0  0  0  0  0  3  0  0  0  0  0  0
  -20.9860   -6.2650   24.7970 C   0  0  0  0  0  3  0  0  0  0  0  0
  -21.3370   -4.9020   24.7830 C   0  0  0  0  0  0  0  0  0  0  0  0
  -21.8740   -4.3250   23.6180 C   0  0  0  0  0  3  0  0  0  0  0  0
  -22.0590   -5.1100   22.4670 C   0  0  0  0  0  0  0  0  0  0  0  0
  -22.5570   -4.5440   21.3410 F   0  0  0  0  0  0  0  0  0  0  0  0
  -21.1550   -4.1420   25.8880 F   0  0  0  0  0  0  0  0  0  0  0  0
  -23.1480  -13.8020   21.2040 C   0  0  0  0  0  0  0  0  0  0  0  0
  -22.4390  -13.1000   22.0800 N   0  0  0  0  0  0  0  0  0  0  0  0
  -22.7210  -14.8610   20.7430 O   0  0  0  0  0  0  0  0  0  0  0  0
  -22.8000  -12.2450   22.4770 H   0  0  0  0  0  0  0  0  0  0  0  0
  -21.5230  -13.4240   22.3620 H   0  0  0  0  0  0  0  0  0  0  0  0
  -25.8000  -15.4080   20.3390 N   0  0  0  0  0  0  0  0  0  0  0  0
  -25.0700  -16.0850   20.5320 H   0  0  0  0  0  0  0  0  0  0  0  0
  -26.6590  -15.8330   20.0110 H   0  0  0  0  0  0  0  0  0  0  0  0
  1  4  1  0
  2  1  2  0
  2  5  1  0
  4  3  2  0
  4 51  1  0
  5  6  2  0
  6  3  1  0
  6  8  1  0
  7  5  1  0
  9 10  1  0
  9  8  1  0
 11 22  2  0
 12 10  1  0
 12 17  1  0
 13 21  1  0
 13 23  1  0
 14 20  1  0
 14 16  1  0
 15 21  1  0
 16 17  2  0
 16 15  1  0
 18 12  2  0
 19 18  1  0
 19 14  2  0
 20 13  1  0
 21 11  1  0
 23 25  2  0
 24 23  1  0
 26 24  1  0
 27 36  2  0
 27 32  1  0
 28 24  1  0
 28 32  1  0
 29 28  1  0
 30 31  1  0
 30 29  1  0
 31 27  1  0
 32 33  2  0
 33 34  1  0
 35 34  2  0
 36 35  1  0
 37 11  1  0
 37 38  1  0
 37 47  1  0
 38 41  1  0
 39 43  1  0
 39 38  1  0
 40 39  2  0
 43 42  1  0
 45 43  1  0
 45 46  1  0
 45 44  1  0
 47 50  1  1
 47 48  1  0
 49 47  1  0
 51 56  1  0
 51 52  1  0
 52 54  1  0
 52 55  1  0
 52 53  1  0
 56 57  1  0
 58 66  1  0
 59 64  1  0
 60 61  1  0
 60 59  1  0
 62 61  1  0
 62 71  1  0
 62 63  1  0
 64 58  1  0
 64 63  1  0
 65 58  2  0
 66 57  1  0
 66 67  1  0
 68 69  2  0
 69 88  1  0
 70 69  1  0
 70 73  1  0
 71 72  1  0
 71 68  1  0
 72 70  2  0
 73 74  1  0
 74 75  2  0
 76 79  1  0
 76 75  1  0
 77 76  2  0
 78 77  1  0
 78 73  2  0
 79 80  1  0
 80 81  1  0
 81 82  2  0
 83 82  1  0
 83 87  1  0
 84 83  2  0
 85 80  2  0
 85 84  1  0
 86 85  1  0
 88 89  1  0
 89 92  1  0
 89 91  1  0
 90 88  2  0
 93 68  1  0
 93 94  1  0
 95 93  1  0
M  ISO  4   9 101  10 101  58 100  66 100
M  END
>  <TORSDO>  (6) 
F 22

>  <SCORE>  (6) 
-12.787

>  <name>  (6) 
5

>  <ligand_id>  (6) 
5

>  <original_smiles>  (6) 
[H]c1c([H])c([H])c2c(c1[H])C([H])([H])C([H])([H])C([H])([H])C2([H])N([H])C(=O)C1([H])N(C(=O)C([H])(N([H])C(=O)C([H])(N([H])C([H])([H])[H])C([H])([H])[H])C(C([H])([H])[H])(C([H])([H])[H])C([H])([H])[H])C([H])([H])c2c([H])c(OC([H])([H])C([H])([H])c3c([H])c(C([H])(C([H])([H])C([H])([H])N([H])C(=O)N4C([H])([H])C([H])([H])C([H])([H])C([H])(n5nc(-c6c([H])c([H])c(Oc7c([H])c([H])c(F)c([H])c7F)c([H])c6[H])c(C(=O)N([H])[H])c5N([H])[H])C4([H])[H])[N+]([H])([H])[H])c([H])c([H])c3C([H])([H])[H])c([H])c([H])c2C1([H])[H]

>  <smiles>  (6) 
[H]c1c([H])c([H])c2c(c1[H])C([H])([H])C([H])([H])C([H])([H])C2([H])N([H])C(=O)C1([H])N(C(=O)C([H])(N([H])C(=O)C([H])(N([H])C([H])([H])[H])C([H])([H])[H])C(C([H])([H])[H])(C([H])([H])[H])C([H])([H])[H])C([H])([H])c2c([H])c(OC([H])([H])C([H])([H])c3c([H])c(C([H])(C([H])([H])C([H])([H])N([H])C(=O)N4C([H])([H])C([H])([H])C([H])([H])C([H])(n5nc(-c6c([H])c([H])c(Oc7c([H])c([H])c(F)c([H])c7F)c([H])c6[H])c(C(=O)N([H])[H])c5N([H])[H])C4([H])[H])[N+]([H])([H])[H])c([H])c([H])c3C([H])([H])[H])c([H])c([H])c2C1([H])[H]

$$$$
6:0:0
     RDKit          3D

 96104  0  0  1  0  0  0  0  0999 V2000
  -33.2020  -22.7110   20.5110 C   0  0  0  0  0  0  0  0  0  0  0  0
  -32.5330  -23.7060   19.9140 N   0  0  0  0  0  0  0  0  0  0  0  0
  -34.2750  -22.8730   21.0960 O   0  0  0  0  0  0  0  0  0  0  0  0
  -31.6490  -23.4580   19.4910 H   0  0  0  0  0  0  0  0  0  0  0  0
  -32.0730  -19.1850   21.5210 C   0  0  0  0  0  3  0  0  0  0  0  0
  -31.1200  -19.7040   19.3470 C   0  0  0  0  0  3  0  0  0  0  0  0
  -32.7000  -20.4510   21.5430 C   0  0  0  0  0  3  0  0  0  0  0  0
  -31.7480  -20.9660   19.3670 C   0  0  0  0  0  3  0  0  0  0  0  0
  -31.2650  -18.7990   20.4230 C   0  0  0  0  0  0  0  0  0  0  0  0
  -32.5290  -21.3630   20.4770 C   0  0  0  0  0  0  0  0  0  0  0  0
  -30.5390  -17.4880   20.3760 C   0  0  0  0  0  0  0  0  0  0  0  0
  -29.6640  -17.2500   19.5350 O   0  0  0  0  0  0  0  0  0  0  0  0
  -30.8950  -16.4110   21.4240 C   0  0  0  0  0  2  0  0  0  0  0  0
  -30.7730  -14.2540   20.1830 C   0  0  0  0  0  0  0  0  0  0  0  0
  -30.3360  -12.2050   18.8820 C   0  0  0  0  0  2  0  0  0  0  0  0
  -29.3180  -12.4830   17.7610 C   0  0  0  0  0  2  0  0  0  0  0  0
  -27.8770  -12.3170   18.2820 C   0  0  0  0  0  2  0  0  0  0  0  0
  -27.6290  -13.0920   19.6040 C   0  0  0  0  0  3  0  0  0  0  0  0
  -28.7510  -12.8060   20.6260 C   0  0  0  0  0  2  0  0  0  0  0  0
  -30.0460  -13.1210   19.9970 N   0  0  0  0  0  0  0  0  0  0  0  0
  -31.7860  -14.5260   19.5340 O   0  0  0  0  0  0  0  0  0  0  0  0
  -30.3110  -15.0950   21.1170 N   0  0  0  0  0  0  0  0  0  0  0  0
  -29.4700  -14.8330   21.6060 H   0  0  0  0  0  0  0  0  0  0  0  0
  -25.2600  -13.6600   20.4430 C   0  0  0  0  0  0  0  0  0  0  0  0
  -24.2270  -12.8690   20.8690 C   0  0  0  0  0  0  0  0  0  0  0  0
  -24.7090  -11.5260   20.8110 C   0  0  0  0  0  0  0  0  0  0  0  0
  -26.3070  -12.7980   20.1540 N   0  0  0  0  0  0  0  0  0  0  0  0
  -25.9810  -11.5090   20.4310 N   0  0  0  0  0  0  0  0  0  0  0  0
  -24.0180  -10.2510   21.0410 C   0  0  0  0  0  0  0  0  0  0  0  0
  -24.4620   -9.3360   22.0210 C   0  0  0  0  0  3  0  0  0  0  0  0
  -23.7700   -8.1240   22.2350 C   0  0  0  0  0  3  0  0  0  0  0  0
  -22.6200   -7.8200   21.4690 C   0  0  0  0  0  0  0  0  0  0  0  0
  -22.1950   -8.7230   20.4780 C   0  0  0  0  0  3  0  0  0  0  0  0
  -22.8890   -9.9260   20.2630 C   0  0  0  0  0  3  0  0  0  0  0  0
  -21.8990   -6.6560   21.5910 O   0  0  0  0  0  0  0  0  0  0  0  0
  -21.7960   -5.9940   22.7880 C   0  0  0  0  0  0  0  0  0  0  0  0
  -21.1960   -6.5890   23.9190 C   0  0  0  0  0  3  0  0  0  0  0  0
  -21.0490   -5.8460   25.1090 C   0  0  0  0  0  3  0  0  0  0  0  0
  -21.4920   -4.5120   25.1660 C   0  0  0  0  0  0  0  0  0  0  0  0
  -22.0840   -3.9170   24.0380 C   0  0  0  0  0  3  0  0  0  0  0  0
  -22.2340   -4.6550   22.8510 C   0  0  0  0  0  0  0  0  0  0  0  0
  -22.7850   -4.0710   21.7610 F   0  0  0  0  0  0  0  0  0  0  0  0
  -21.3440   -3.7970   26.3050 F   0  0  0  0  0  0  0  0  0  0  0  0
  -22.8400  -13.3210   21.2220 C   0  0  0  0  0  0  0  0  0  0  0  0
  -22.1690  -12.6020   22.1150 N   0  0  0  0  0  0  0  0  0  0  0  0
  -22.3600  -14.3470   20.7400 O   0  0  0  0  0  0  0  0  0  0  0  0
  -22.5710  -11.7730   22.5260 H   0  0  0  0  0  0  0  0  0  0  0  0
  -21.2390  -12.8850   22.3920 H   0  0  0  0  0  0  0  0  0  0  0  0
  -25.3900  -15.0330   20.2590 N   0  0  0  0  0  0  0  0  0  0  0  0
  -24.6210  -15.6750   20.4140 H   0  0  0  0  0  0  0  0  0  0  0  0
  -26.2210  -15.4890   19.8980 H   0  0  0  0  0  0  0  0  0  0  0  0
  -32.9660  -25.0990   19.7830 C   0  0  0  0  0  2  0  0  0  0  0  0
  -31.9840  -26.0920   20.4380 C   0  0  0  0  0  2  0  0  0  0  0  0
  -30.5310  -25.9150   19.9650 C   0  0  0  0  0  2  0  0  0  0  0  0
  -29.5360  -26.9370   20.5370 C   0  0  0  0  0  2  0  0  0  0  0  0
  -28.2730  -26.5310   20.0370 O   0  0  0  0  0  0  0  0  0  0  0  0
  -24.6140  -31.7370   23.3560 C   0  0  0  0  0  0  0  0  0  0  0  0
  -27.1740  -27.3480   20.1540 C   0  0  0  0  0  0  0  0  0  0  0  0
  -23.3790  -30.4140   21.6710 C   0  0  0  0  0  3  0  0  0  0  0  0
  -24.8020  -28.8810   20.2140 C   0  0  0  0  0  0  0  0  0  0  0  0
  -25.9100  -30.7220   21.4900 C   0  0  0  0  0  2  0  0  0  0  0  0
  -25.9680  -29.3680   20.8180 C   0  0  0  0  0  0  0  0  0  0  0  0
  -27.1580  -28.6080   20.7970 C   0  0  0  0  0  3  0  0  0  0  0  0
  -25.9890  -26.8660   19.5630 C   0  0  0  0  0  3  0  0  0  0  0  0
  -24.8040  -27.6250   19.5880 C   0  0  0  0  0  3  0  0  0  0  0  0
  -23.5770  -29.7650   20.2760 C   0  0  0  0  0  2  0  0  0  0  0  0
  -24.6520  -30.9690   22.2320 N   0  0  0  0  0  0  0  0  0  0  0  0
  -23.5380  -32.0210   23.9000 O   0  0  0  0  0  0  0  0  0  0  0  0
  -22.6990  -29.3820   22.5990 C   0  0  0  0  0  0  0  0  0  0  0  0
  -21.3830  -29.1910   22.4150 N   0  0  0  0  0  0  0  0  0  0  0  0
  -23.3540  -28.7580   23.4380 O   0  0  0  0  0  0  0  0  0  0  0  0
  -20.9180  -29.7460   21.7090 H   0  0  0  0  0  0  0  0  0  0  0  0
  -18.0080  -27.9380   22.7310 C   0  0  0  0  0  0  0  0  0  0  0  0
  -20.5420  -28.2440   23.1460 C   0  0  0  0  0  3  0  0  0  0  0  0
  -20.7030  -26.8110   22.5910 C   0  0  0  0  0  2  0  0  0  0  0  0
  -19.6670  -26.4590   21.5190 C   0  0  0  0  0  2  0  0  0  0  0  0
  -18.2480  -26.5850   22.0810 C   0  0  0  0  0  2  0  0  0  0  0  0
  -19.0870  -28.7230   23.2170 C   0  0  0  0  0  0  0  0  0  0  0  0
  -18.8140  -29.9880   23.7820 C   0  0  0  0  0  3  0  0  0  0  0  0
  -17.4930  -30.4680   23.8670 C   0  0  0  0  0  3  0  0  0  0  0  0
  -16.4290  -29.6790   23.3980 C   0  0  0  0  0  3  0  0  0  0  0  0
  -16.6860  -28.4170   22.8360 C   0  0  0  0  0  3  0  0  0  0  0  0
  -25.9150  -32.3160   23.9960 C   0  0  0  0  0  3  0  0  0  0  0  0
  -25.6520  -33.7170   24.3460 N   0  0  0  0  0  0  0  0  0  0  0  0
  -26.0200  -34.7680   23.6020 C   0  0  0  0  0  0  0  0  0  0  0  0
  -26.6880  -34.6580   22.5700 O   0  0  0  0  0  0  0  0  0  0  0  0
  -25.0650  -33.8800   25.1510 H   0  0  0  0  0  0  0  0  0  0  0  0
  -24.3670  -36.6260   23.2490 C   0  0  0  0  0  1  0  0  0  0  0  0
  -25.5750  -36.1630   24.0790 C   0  0  0  0  0  3  0  0  0  0  0  0
  -27.7120  -36.9600   24.9860 C   0  0  0  0  0  1  0  0  0  0  0  0
  -26.6480  -37.1790   24.0110 N   0  0  0  0  0  0  0  0  0  0  0  0
  -26.2700  -38.1100   24.1600 H   0  0  0  0  0  0  0  0  0  0  0  0
  -26.4010  -31.5040   25.2590 C   0  0  1  0  0  0  0  0  0  0  0  0
  -25.2930  -31.2730   26.3140 C   0  0  0  0  0  1  0  0  0  0  0  0
  -26.9500  -30.1210   24.8400 C   0  0  0  0  0  1  0  0  0  0  0  0
  -27.5680  -32.2530   25.9460 C   0  0  0  0  0  1  0  0  0  0  0  0
  1  3  2  0
  2  1  1  0
  4  2  1  0
  5  7  1  0
  6  8  2  0
  6  9  1  0
  8 10  1  0
  9  5  2  0
 10  1  1  0
 10  7  2  0
 11  9  1  0
 11 13  1  0
 12 11  2  0
 14 22  1  0
 15 20  1  0
 16 17  1  0
 16 15  1  0
 18 17  1  0
 18 27  1  0
 18 19  1  0
 20 14  1  0
 20 19  1  0
 21 14  2  0
 22 13  1  0
 22 23  1  0
 24 25  2  0
 25 44  1  0
 26 25  1  0
 26 29  1  0
 27 28  1  0
 27 24  1  0
 28 26  2  0
 29 30  1  0
 30 31  2  0
 32 35  1  0
 32 31  1  0
 33 32  2  0
 34 33  1  0
 34 29  2  0
 35 36  1  0
 36 41  2  0
 36 37  1  0
 37 38  2  0
 38 39  1  0
 39 43  1  0
 40 39  2  0
 41 40  1  0
 42 41  1  0
 44 45  1  0
 45 48  1  0
 45 47  1  0
 46 44  2  0
 49 50  1  0
 49 24  1  0
 51 49  1  0
 52  2  1  0
 52 53  1  0
 54 53  1  0
 54 55  1  0
 56 58  1  0
 56 55  1  0
 57 68  2  0
 58 63  1  0
 59 67  1  0
 59 69  1  0
 60 66  1  0
 60 62  1  0
 61 67  1  0
 62 61  1  0
 63 62  2  0
 64 65  1  0
 64 58  2  0
 65 60  2  0
 66 59  1  0
 67 57  1  0
 69 71  2  0
 70 69  1  0
 72 70  1  0
 73 82  2  0
 73 78  1  0
 74 70  1  0
 74 78  1  0
 75 74  1  0
 76 77  1  0
 76 75  1  0
 77 73  1  0
 78 79  2  0
 79 80  1  0
 81 80  2  0
 82 81  1  0
 83 57  1  0
 83 84  1  0
 83 93  1  0
 84 87  1  0
 85 89  1  0
 85 84  1  0
 86 85  2  0
 89 88  1  0
 91 89  1  0
 91 92  1  0
 91 90  1  0
 93 96  1  1
 93 94  1  0
 95 93  1  0
M  ISO  4  14 100  22 100  55 101  56 101
M  END
>  <TORSDO>  (7) 
F 23

>  <SCORE>  (7) 
-11.880

>  <name>  (7) 
6

>  <ligand_id>  (7) 
6

>  <original_smiles>  (7) 
[H]c1c([H])c([H])c2c(c1[H])C([H])([H])C([H])([H])C([H])([H])C2([H])N([H])C(=O)C1([H])N(C(=O)C([H])(N([H])C(=O)C([H])(N([H])C([H])([H])[H])C([H])([H])[H])C(C([H])([H])[H])(C([H])([H])[H])C([H])([H])[H])C([H])([H])c2c([H])c(OC([H])([H])C([H])([H])C([H])([H])C([H])([H])N([H])C(=O)c3c([H])c([H])c(C(=O)C([H])([H])N([H])C(=O)N4C([H])([H])C([H])([H])C([H])([H])C([H])(n5nc(-c6c([H])c([H])c(Oc7c([H])c([H])c(F)c([H])c7F)c([H])c6[H])c(C(=O)N([H])[H])c5N([H])[H])C4([H])[H])c([H])c3[H])c([H])c([H])c2C1([H])[H]

>  <smiles>  (7) 
[H]c1c([H])c([H])c2c(c1[H])C([H])([H])C([H])([H])C([H])([H])C2([H])N([H])C(=O)C1([H])N(C(=O)C([H])(N([H])C(=O)C([H])(N([H])C([H])([H])[H])C([H])([H])[H])C(C([H])([H])[H])(C([H])([H])[H])C([H])([H])[H])C([H])([H])c2c([H])c(OC([H])([H])C([H])([H])C([H])([H])C([H])([H])N([H])C(=O)c3c([H])c([H])c(C(=O)C([H])([H])N([H])C(=O)N4C([H])([H])C([H])([H])C([H])([H])C([H])(n5nc(-c6c([H])c([H])c(Oc7c([H])c([H])c(F)c([H])c7F)c([H])c6[H])c(C(=O)N([H])[H])c5N([H])[H])C4([H])[H])c([H])c3[H])c([H])c([H])c2C1([H])[H]

$$$$
7:0:0
     RDKit          3D

106113  0  0  1  0  0  0  0  0999 V2000
  -23.0550  -12.1230   20.3780 C   0  0  0  0  0  3  0  0  0  0  0  0
  -26.1370  -10.3340   21.4940 C   0  0  0  0  0  2  0  0  0  0  0  0
  -22.7110  -11.0670   21.6670 C   0  0  0  0  0  3  0  0  0  0  0  0
  -25.1550   -9.6590   22.4490 C   0  0  0  0  0  2  0  0  0  0  0  0
  -24.6150  -12.3420   19.7750 C   0  0  0  0  0  2  0  0  0  0  0  0
  -23.7010  -10.1170   22.6310 C   0  0  0  0  0  3  0  0  0  0  0  0
  -25.0990  -13.7880   19.0630 C   0  0  0  0  0  0  0  0  0  0  0  0
  -25.5910  -14.9680   19.7620 N   0  0  0  0  0  2  0  0  0  0  0  0
  -25.1550  -13.7870   17.8330 O   0  0  0  0  0  0  0  0  0  0  0  0
  -25.3100  -14.9320   20.7330 H   0  0  0  0  0  0  0  0  0  0  0  0
  -26.8520  -15.9650   19.5510 C   0  0  0  0  0  2  0  0  0  0  0  0
  -27.0830  -17.6790   19.8310 C   0  0  0  0  0  2  0  0  0  0  0  0
  -28.4390  -18.6250   20.4260 C   0  0  0  0  0  2  0  0  0  0  0  0
  -28.9180  -20.1180   19.9860 N   0  0  0  0  0  4  0  0  0  0  0  0
  -28.1720  -20.5100   19.4230 H   0  0  0  0  0  0  0  0  0  0  0  0
  -29.6720  -19.9590   19.3330 H   0  0  0  0  0  0  0  0  0  0  0  0
  -29.4330  -21.3350   20.9570 C   0  0  0  0  0  3  0  0  0  0  0  0
  -30.3350  -22.7650   20.4880 C   0  0  0  0  0  3  0  0  0  0  0  0
  -30.6880  -24.2200   21.1420 O   0  0  0  0  0  0  0  0  0  0  0  0
  -26.9830  -30.2040   23.7650 C   0  0  0  0  0  0  0  0  0  0  0  0
  -29.8790  -25.4160   21.0190 C   0  0  0  0  0  0  0  0  0  0  0  0
  -26.1240  -28.9260   21.8600 C   0  0  0  0  0  3  0  0  0  0  0  0
  -27.7820  -27.3760   20.6820 C   0  0  0  0  0  0  0  0  0  0  0  0
  -28.6770  -29.0530   22.2710 C   0  0  0  0  0  2  0  0  0  0  0  0
  -28.8300  -27.6880   21.5590 C   0  0  0  0  0  0  0  0  0  0  0  0
  -29.8980  -26.7080   21.7280 C   0  0  0  0  0  3  0  0  0  0  0  0
  -28.8260  -25.2570   20.1210 C   0  0  0  0  0  3  0  0  0  0  0  0
  -27.7950  -26.1820   19.9650 C   0  0  0  0  0  3  0  0  0  0  0  0
  -26.6150  -28.3270   20.5240 C   0  0  0  0  0  2  0  0  0  0  0  0
  -27.2750  -29.4180   22.6840 N   0  0  0  0  0  0  0  0  0  0  0  0
  -25.8130  -30.5060   24.0580 O   0  0  0  0  0  0  0  0  0  0  0  0
  -25.2460  -27.8810   22.6000 C   0  0  0  0  0  0  0  0  0  0  0  0
  -23.9950  -27.6960   22.1400 N   0  0  0  0  0  0  0  0  0  0  0  0
  -25.6990  -27.2520   23.5600 O   0  0  0  0  0  0  0  0  0  0  0  0
  -23.6950  -28.2620   21.3580 H   0  0  0  0  0  0  0  0  0  0  0  0
  -20.6050  -26.4720   21.7730 C   0  0  0  0  0  0  0  0  0  0  0  0
  -23.0160  -26.7380   22.6670 C   0  0  0  0  0  3  0  0  0  0  0  0
  -23.2650  -25.3150   22.1150 C   0  0  0  0  0  2  0  0  0  0  0  0
  -22.4510  -25.0040   20.8570 C   0  0  0  0  0  2  0  0  0  0  0  0
  -20.9510  -25.1330   21.1420 C   0  0  0  0  0  2  0  0  0  0  0  0
  -21.5770  -27.2330   22.4750 C   0  0  0  0  0  0  0  0  0  0  0  0
  -21.2100  -28.4840   23.0140 C   0  0  0  0  0  3  0  0  0  0  0  0
  -19.9010  -28.9760   22.8610 C   0  0  0  0  0  3  0  0  0  0  0  0
  -18.9390  -28.2150   22.1750 C   0  0  0  0  0  3  0  0  0  0  0  0
  -19.2890  -26.9630   21.6380 C   0  0  0  0  0  3  0  0  0  0  0  0
  -28.1040  -30.7860   24.6760 C   0  0  0  0  0  3  0  0  0  0  0  0
  -27.7540  -32.1860   24.9710 N   0  0  0  0  0  0  0  0  0  0  0  0
  -28.2850  -33.2550   24.3590 C   0  0  0  0  0  0  0  0  0  0  0  0
  -29.1810  -33.1610   23.5160 O   0  0  0  0  0  0  0  0  0  0  0  0
  -26.9840  -32.3320   25.6060 H   0  0  0  0  0  0  0  0  0  0  0  0
  -26.7370  -35.1220   23.6720 C   0  0  0  0  0  1  0  0  0  0  0  0
  -27.7320  -34.6410   24.7440 C   0  0  0  0  0  3  0  0  0  0  0  0
  -29.6170  -35.4250   26.1070 C   0  0  0  0  0  1  0  0  0  0  0  0
  -28.7830  -35.6640   24.9320 N   0  0  0  0  0  0  0  0  0  0  0  0
  -28.3700  -36.5870   25.0180 H   0  0  0  0  0  0  0  0  0  0  0  0
  -28.2920  -29.9760   26.0180 C   0  0  1  0  0  0  0  0  0  0  0  0
  -26.9810  -29.7670   26.8100 C   0  0  0  0  0  1  0  0  0  0  0  0
  -28.9020  -28.5810   25.7430 C   0  0  0  0  0  1  0  0  0  0  0  0
  -29.2840  -30.7190   26.9400 C   0  0  0  0  0  1  0  0  0  0  0  0
  -22.7410   -8.5720   24.4410 C   0  0  0  0  0  1  0  0  0  0  0  0
  -23.6500   -9.7760   24.1860 C   0  0  0  0  0  3  0  0  0  0  0  0
  -24.9920   -9.4700   24.9780 N   0  0  0  0  0  4  0  0  0  0  0  0
  -24.6780   -9.7160   25.9010 H   0  0  0  0  0  0  0  0  0  0  0  0
  -25.0740   -8.4660   25.0910 H   0  0  0  0  0  0  0  0  0  0  0  0
  -26.4490  -10.0810   24.9600 C   0  0  0  0  0  3  0  0  0  0  0  0
  -27.8770   -9.4090   24.3700 C   0  0  0  0  0  3  0  0  0  0  0  0
  -29.2690  -10.2910   24.0920 C   0  0  0  0  0  2  0  0  0  0  0  0
  -30.7760   -9.7540   23.6490 C   0  0  0  0  0  2  0  0  0  0  0  0
  -32.4100  -10.4970   21.5990 C   0  0  0  0  0  0  0  0  0  0  0  0
  -32.1680   -9.8450   19.1440 C   0  0  0  0  0  2  0  0  0  0  0  0
  -31.6540  -11.0320   18.2720 C   0  0  0  0  0  2  0  0  0  0  0  0
  -30.1830  -11.4290   18.5350 C   0  0  0  0  0  2  0  0  0  0  0  0
  -29.8960  -11.4900   20.0380 C   0  0  0  0  0  3  0  0  0  0  0  0
  -30.2720  -10.0940   20.5610 C   0  0  0  0  0  2  0  0  0  0  0  0
  -31.7040  -10.0260   20.5500 N   0  0  0  0  0  0  0  0  0  0  0  0
  -33.5670  -10.8920   21.3930 O   0  0  0  0  0  0  0  0  0  0  0  0
  -31.6810  -10.6860   22.7950 N   0  0  0  0  0  0  0  0  0  0  0  0
  -32.0490  -11.4940   23.2770 H   0  0  0  0  0  0  0  0  0  0  0  0
  -27.8830  -12.9190   21.4040 C   0  0  0  0  0  3  0  0  0  0  0  0
  -26.2820  -12.6110   21.7870 C   0  0  0  0  0  2  0  0  0  0  0  0
  -26.0540  -10.5050   20.3410 C   0  0  0  0  0  3  0  0  0  0  0  0
  -28.5270  -11.7270   20.2950 N   0  0  0  0  0  0  0  0  0  0  0  0
  -27.5700  -10.4550   19.7300 N   0  0  0  0  0  2  0  0  0  0  0  0
  -25.1130   -9.4400   20.1100 C   0  0  0  0  0  0  0  0  0  0  0  0
  -25.3970   -8.1580   20.6080 C   0  0  0  0  0  3  0  0  0  0  0  0
  -24.3410   -7.2680   20.7790 C   0  0  0  0  0  3  0  0  0  0  0  0
  -23.0370   -7.6770   20.4290 C   0  0  0  0  0  0  0  0  0  0  0  0
  -22.7800   -8.9430   19.9220 C   0  0  0  0  0  3  0  0  0  0  0  0
  -23.8350   -9.7930   19.6640 C   0  0  0  0  0  3  0  0  0  0  0  0
  -21.9350   -6.8880   20.4440 O   0  0  0  0  0  0  0  0  0  0  0  0
  -21.9010   -5.7910   21.2230 C   0  0  0  0  0  0  0  0  0  0  0  0
  -21.6820   -5.8890   22.6120 C   0  0  0  0  0  3  0  0  0  0  0  0
  -21.5520   -4.7230   23.3800 C   0  0  0  0  0  3  0  0  0  0  0  0
  -21.6120   -3.4580   22.7520 C   0  0  0  0  0  0  0  0  0  0  0  0
  -21.8610   -3.3660   21.3690 C   0  0  0  0  0  3  0  0  0  0  0  0
  -22.0050   -4.5310   20.6080 C   0  0  0  0  0  0  0  0  0  0  0  0
  -22.2160   -4.4590   19.2700 F   0  0  0  0  0  0  0  0  0  0  0  0
  -21.4540   -2.3330   23.4790 F   0  0  0  0  0  0  0  0  0  0  0  0
  -25.3300  -13.7670   22.1610 C   0  0  0  0  0  3  0  0  0  0  0  0
  -24.2400  -13.5230   22.8800 N   0  0  0  0  0  0  0  0  0  0  0  0
  -25.3530  -14.7870   21.4800 O   0  0  0  0  0  0  0  0  0  0  0  0
  -24.0200  -12.5640   23.0980 H   0  0  0  0  0  0  0  0  0  0  0  0
  -23.5410  -14.2500   22.9540 H   0  0  0  0  0  0  0  0  0  0  0  0
  -28.6630  -13.9740   21.7250 N   0  0  0  0  0  0  0  0  0  0  0  0
  -28.3980  -14.6690   22.4110 H   0  0  0  0  0  0  0  0  0  0  0  0
  -29.6640  -13.9740   21.5480 H   0  0  0  0  0  0  0  0  0  0  0  0
  1  3  2  0
  2  4  1  0
  4  6  1  0
  5  1  1  0
  6  3  1  0
  6 61  1  0
  7  8  1  0
  7  5  1  0
  9  7  2  0
 10101  1  0
 11  8  1  0
 11 12  1  0
 12 13  1  0
 14 13  1  0
 14 17  1  0
 15 14  1  0
 16 14  1  0
 18 17  2  0
 18 19  1  0
 20 31  2  0
 21 19  1  0
 21 26  1  0
 22 32  1  0
 22 30  1  0
 23 25  1  0
 24 30  1  0
 25 26  2  0
 25 24  1  0
 27 21  2  0
 28 27  1  0
 28 23  2  0
 29 23  1  0
 29 22  1  0
 30 20  1  0
 32 34  2  0
 33 32  1  0
 35 33  1  0
 36 41  1  0
 37 33  1  0
 38 37  1  0
 39 40  1  0
 39 38  1  0
 40 36  1  0
 41 37  1  0
 41 42  2  0
 43 42  1  0
 44 43  2  0
 45 36  2  0
 45 44  1  0
 46 20  1  0
 46 47  1  0
 46 56  1  0
 47 50  1  0
 48 52  1  0
 48 47  1  0
 49 48  2  0
 52 51  1  0
 52 54  1  0
 54 55  1  0
 54 53  1  0
 56 57  1  1
 56 59  1  0
 58 56  1  0
 61 60  1  0
 61 62  1  0
 62 64  1  0
 62 63  1  0
 65 62  1  0
 66 65  2  0
 67 66  1  0
 68 67  1  0
 69 77  1  0
 70 75  1  0
 71 72  1  0
 71 70  1  0
 73 72  1  0
 73 82  1  0
 73 74  1  0
 75 74  1  0
 75 69  1  0
 76 69  2  0
 77 78  1  0
 77 68  1  0
 79104  1  0
 79 80  1  0
 81 84  1  0
 81  2  1  0
 82 79  1  0
 83 82  1  0
 83 81  1  0
 84 85  1  0
 85 86  2  0
 87 90  1  0
 87 86  1  0
 88 87  2  0
 89 88  1  0
 89 84  2  0
 90 91  1  0
 91 92  1  0
 92 93  2  0
 94 93  1  0
 94 98  1  0
 95 94  2  0
 96 91  2  0
 96 95  1  0
 97 96  1  0
 99 80  1  0
 99100  1  0
100103  1  0
100102  1  0
101 99  1  0
104105  1  0
106104  1  0
M  ISO  4  18 101  19 101  69 100  77 100
M  END
>  <TORSDO>  (8) 
F 29

>  <SCORE>  (8) 
9.863

>  <name>  (8) 
7

>  <ligand_id>  (8) 
7

>  <original_smiles>  (8) 
[H]c1c([H])c([H])c2c(c1[H])C([H])([H])C([H])([H])C([H])([H])C2([H])N([H])C(=O)C1([H])N(C(=O)C([H])(N([H])C(=O)C([H])(N([H])C([H])([H])[H])C([H])([H])[H])C(C([H])([H])[H])(C([H])([H])[H])C([H])([H])[H])C([H])([H])c2c([H])c(OC([H])([H])C([H])([H])[N+]([H])([H])C([H])([H])C([H])([H])C([H])([H])N([H])C(=O)c3c([H])c([H])c(C([H])(C([H])([H])[H])[N+]([H])([H])C([H])([H])C([H])([H])C([H])([H])C([H])([H])N([H])C(=O)N4C([H])([H])C([H])([H])C([H])([H])C([H])(n5nc(-c6c([H])c([H])c(Oc7c([H])c([H])c(F)c([H])c7F)c([H])c6[H])c(C(=O)N([H])[H])c5N([H])[H])C4([H])[H])c([H])c3[H])c([H])c([H])c2C1([H])[H]

>  <smiles>  (8) 
[H]c1c([H])c([H])c2c(c1[H])C([H])([H])C([H])([H])C([H])([H])C2([H])N([H])C(=O)C1([H])N(C(=O)C([H])(N([H])C(=O)C([H])(N([H])C([H])([H])[H])C([H])([H])[H])C(C([H])([H])[H])(C([H])([H])[H])C([H])([H])[H])C([H])([H])c2c([H])c(OC([H])([H])C([H])([H])[N+]([H])([H])C([H])([H])C([H])([H])C([H])([H])N([H])C(=O)c3c([H])c([H])c(C([H])(C([H])([H])[H])[N+]([H])([H])C([H])([H])C([H])([H])C([H])([H])C([H])([H])N([H])C(=O)N4C([H])([H])C([H])([H])C([H])([H])C([H])(n5nc(-c6c([H])c([H])c(Oc7c([H])c([H])c(F)c([H])c7F)c([H])c6[H])c(C(=O)N([H])[H])c5N([H])[H])C4([H])[H])c([H])c3[H])c([H])c([H])c2C1([H])[H]

$$$$
8:0:0
     RDKit          3D

107115  0  0  1  0  0  0  0  0999 V2000
  -25.6740  -20.7640   17.7260 C   0  0  0  0  0  3  0  0  0  0  0  0
  -24.7400  -21.7780   17.9850 C   0  0  0  0  0  3  0  0  0  0  0  0
  -26.8980  -21.3950   19.7250 C   0  0  0  0  0  3  0  0  0  0  0  0
  -26.7250  -20.5160   18.6310 C   0  0  0  0  0  0  0  0  0  0  0  0
  -24.8710  -22.6060   19.1200 C   0  0  0  0  0  0  0  0  0  0  0  0
  -26.0120  -22.4710   19.9630 C   0  0  0  0  0  0  0  0  0  0  0  0
  -23.7400  -23.5840   19.4020 C   0  0  0  0  0  1  0  0  0  0  0  0
  -26.3590  -22.8140   22.4980 C   0  0  0  0  0  1  0  0  0  0  0  0
  -26.3280  -23.4640   21.1020 C   0  0  0  0  0  3  0  0  0  0  0  0
  -27.5940  -24.1990   20.8300 N   0  0  0  0  0  4  0  0  0  0  0  0
  -27.8840  -24.6340   21.6920 H   0  0  0  0  0  0  0  0  0  0  0  0
  -28.3120  -23.5440   20.5600 H   0  0  0  0  0  0  0  0  0  0  0  0
  -27.4560  -25.2460   19.7890 C   0  0  0  0  0  2  0  0  0  0  0  0
  -28.5740  -26.3190   19.7310 C   0  0  0  0  0  2  0  0  0  0  0  0
  -28.3260  -27.3490   18.7460 O   0  0  0  0  0  0  0  0  0  0  0  0
  -24.5680  -31.6250   22.9950 C   0  0  0  0  0  0  0  0  0  0  0  0
  -27.1520  -28.0360   18.9390 C   0  0  0  0  0  0  0  0  0  0  0  0
  -23.2850  -30.4020   21.2680 C   0  0  0  0  0  3  0  0  0  0  0  0
  -24.6750  -29.2790   19.4490 C   0  0  0  0  0  0  0  0  0  0  0  0
  -25.7360  -31.0280   20.8820 C   0  0  0  0  0  2  0  0  0  0  0  0
  -25.8490  -29.7960   20.0140 C   0  0  0  0  0  0  0  0  0  0  0  0
  -27.0930  -29.1710   19.7730 C   0  0  0  0  0  3  0  0  0  0  0  0
  -25.9770  -27.5890   18.3010 C   0  0  0  0  0  3  0  0  0  0  0  0
  -24.7330  -28.1700   18.5910 C   0  0  0  0  0  3  0  0  0  0  0  0
  -23.3810  -29.9870   19.7760 C   0  0  0  0  0  2  0  0  0  0  0  0
  -24.5520  -31.0240   21.7730 N   0  0  0  0  0  0  0  0  0  0  0  0
  -23.5400  -31.7030   23.6820 O   0  0  0  0  0  0  0  0  0  0  0  0
  -22.8340  -29.1770   22.0970 C   0  0  0  0  0  0  0  0  0  0  0  0
  -21.5430  -28.8240   21.9880 N   0  0  0  0  0  0  0  0  0  0  0  0
  -23.6390  -28.5560   22.7950 O   0  0  0  0  0  0  0  0  0  0  0  0
  -20.9450  -29.3900   21.4020 H   0  0  0  0  0  0  0  0  0  0  0  0
  -18.4410  -27.0000   22.2840 C   0  0  0  0  0  0  0  0  0  0  0  0
  -20.9050  -27.6860   22.6470 C   0  0  0  0  0  3  0  0  0  0  0  0
  -21.2710  -26.3570   21.9470 C   0  0  0  0  0  2  0  0  0  0  0  0
  -20.2570  -25.9370   20.8790 C   0  0  0  0  0  2  0  0  0  0  0  0
  -18.8650  -25.7720   21.4960 C   0  0  0  0  0  2  0  0  0  0  0  0
  -19.3960  -27.9060   22.8110 C   0  0  0  0  0  0  0  0  0  0  0  0
  -18.9470  -29.0520   23.5050 C   0  0  0  0  0  3  0  0  0  0  0  0
  -17.5710  -29.2930   23.6780 C   0  0  0  0  0  3  0  0  0  0  0  0
  -16.6290  -28.3840   23.1680 C   0  0  0  0  0  3  0  0  0  0  0  0
  -17.0620  -27.2390   22.4770 C   0  0  0  0  0  3  0  0  0  0  0  0
  -25.8680  -32.2660   23.5750 C   0  0  0  0  0  3  0  0  0  0  0  0
  -25.5360  -33.6320   23.9960 N   0  0  0  0  0  0  0  0  0  0  0  0
  -25.8400  -34.7370   23.3020 C   0  0  0  0  0  0  0  0  0  0  0  0
  -26.5030  -34.7120   22.2600 O   0  0  0  0  0  0  0  0  0  0  0  0
  -24.9500  -33.7250   24.8130 H   0  0  0  0  0  0  0  0  0  0  0  0
  -24.0950  -36.5300   23.0470 C   0  0  0  0  0  1  0  0  0  0  0  0
  -25.3280  -36.0810   23.8500 C   0  0  0  0  0  3  0  0  0  0  0  0
  -27.4430  -36.9210   24.7720 C   0  0  0  0  0  1  0  0  0  0  0  0
  -26.3490  -37.1510   23.8320 N   0  0  0  0  0  0  0  0  0  0  0  0
  -25.9300  -38.0530   24.0480 H   0  0  0  0  0  0  0  0  0  0  0  0
  -26.4860  -31.4430   24.7710 C   0  0  1  0  0  0  0  0  0  0  0  0
  -25.4690  -31.1130   25.8880 C   0  0  0  0  0  1  0  0  0  0  0  0
  -27.0840  -30.1090   24.2660 C   0  0  0  0  0  1  0  0  0  0  0  0
  -27.6510  -32.2400   25.4060 C   0  0  0  0  0  1  0  0  0  0  0  0
  -27.6050  -19.2710   18.4200 C   0  0  0  0  0  3  0  0  0  0  0  0
  -26.8020  -18.0600   18.0860 N   0  0  0  0  0  4  0  0  0  0  0  0
  -26.6120  -18.1020   17.0980 H   0  0  0  0  0  0  0  0  0  0  0  0
  -27.3780  -17.2460   18.2430 H   0  0  0  0  0  0  0  0  0  0  0  0
  -25.5100  -17.8650   18.7960 C   0  0  0  0  0  2  0  0  0  0  0  0
  -24.9890  -16.4180   18.6730 C   0  0  0  0  0  2  0  0  0  0  0  0
  -23.5980  -16.1870   19.3150 C   0  0  0  0  0  2  0  0  0  0  0  0
  -22.4660  -16.3390   18.3780 N   0  0  0  0  0  4  0  0  0  0  0  0
  -22.3650  -17.2800   18.0450 H   0  0  0  0  0  0  0  0  0  0  0  0
  -21.6130  -16.0960   18.8520 H   0  0  0  0  0  0  0  0  0  0  0  0
  -22.5540  -15.7190   17.5920 H   0  0  0  0  0  0  0  0  0  0  0  0
  -28.6030  -18.9820   19.5740 C   0  0  0  0  0  2  0  0  0  0  0  0
  -29.6160  -17.8750   19.2430 C   0  0  0  0  0  2  0  0  0  0  0  0
  -30.2690  -17.2390   20.4890 C   0  0  0  0  0  2  0  0  0  0  0  0
  -32.1590  -15.4660   20.4660 C   0  0  0  0  0  0  0  0  0  0  0  0
  -31.9170  -13.1700   19.6530 C   0  0  0  0  0  2  0  0  0  0  0  0
  -30.9860  -13.1640   18.4250 C   0  0  0  0  0  2  0  0  0  0  0  0
  -29.5160  -13.0200   18.8680 C   0  0  0  0  0  2  0  0  0  0  0  0
  -29.1260  -14.0100   19.9990 C   0  0  0  0  0  3  0  0  0  0  0  0
  -30.1850  -14.0150   21.1270 C   0  0  0  0  0  2  0  0  0  0  0  0
  -31.4800  -14.2900   20.4970 N   0  0  0  0  0  0  0  0  0  0  0  0
  -33.3610  -15.5300   20.2200 O   0  0  0  0  0  0  0  0  0  0  0  0
  -31.4910  -16.5610   20.0790 N   0  0  0  0  0  0  0  0  0  0  0  0
  -32.1470  -17.2110   19.6740 H   0  0  0  0  0  0  0  0  0  0  0  0
  -26.7930  -14.6720   20.8630 C   0  0  0  0  0  0  0  0  0  0  0  0
  -25.6950  -13.9190   21.1810 C   0  0  0  0  0  0  0  0  0  0  0  0
  -26.0790  -12.5590   20.9850 C   0  0  0  0  0  0  0  0  0  0  0  0
  -27.7790  -13.7640   20.5000 N   0  0  0  0  0  0  0  0  0  0  0  0
  -27.3540  -12.4840   20.6310 N   0  0  0  0  0  0  0  0  0  0  0  0
  -25.2920  -11.3230   21.0600 C   0  0  0  0  0  0  0  0  0  0  0  0
  -25.6360  -10.2850   21.9530 C   0  0  0  0  0  3  0  0  0  0  0  0
  -24.8570   -9.1120   22.0200 C   0  0  0  0  0  3  0  0  0  0  0  0
  -23.7180   -8.9710   21.1910 C   0  0  0  0  0  0  0  0  0  0  0  0
  -23.3920   -9.9990   20.2880 C   0  0  0  0  0  3  0  0  0  0  0  0
  -24.1730  -11.1640   20.2200 C   0  0  0  0  0  3  0  0  0  0  0  0
  -22.9150   -7.8570   21.1680 O   0  0  0  0  0  0  0  0  0  0  0  0
  -22.6050   -7.1680   22.3130 C   0  0  0  0  0  0  0  0  0  0  0  0
  -22.0050   -7.8000   23.4220 C   0  0  0  0  0  3  0  0  0  0  0  0
  -21.6400   -7.0410   24.5510 C   0  0  0  0  0  3  0  0  0  0  0  0
  -21.8660   -5.6520   24.5720 C   0  0  0  0  0  0  0  0  0  0  0  0
  -22.4590   -5.0210   23.4650 C   0  0  0  0  0  3  0  0  0  0  0  0
  -22.8250   -5.7760   22.3370 C   0  0  0  0  0  0  0  0  0  0  0  0
  -23.3750   -5.1580   21.2650 F   0  0  0  0  0  0  0  0  0  0  0  0
  -21.5080   -4.9210   25.6550 F   0  0  0  0  0  0  0  0  0  0  0  0
  -24.3370  -14.4320   21.5630 C   0  0  0  0  0  0  0  0  0  0  0  0
  -23.5990  -13.6830   22.3740 N   0  0  0  0  0  0  0  0  0  0  0  0
  -23.9430  -15.5300   21.1850 O   0  0  0  0  0  0  0  0  0  0  0  0
  -23.9240  -12.7870   22.7080 H   0  0  0  0  0  0  0  0  0  0  0  0
  -22.6900  -14.0170   22.6610 H   0  0  0  0  0  0  0  0  0  0  0  0
  -27.0360  -16.0450   20.8480 N   0  0  0  0  0  0  0  0  0  0  0  0
  -26.3800  -16.5270   21.4510 H   0  0  0  0  0  0  0  0  0  0  0  0
  -27.9900  -16.2610   21.0940 H   0  0  0  0  0  0  0  0  0  0  0  0
  1  2  2  0
  1  4  1  0
  2  5  1  0
  3  6  1  0
  4  3  2  0
  5  7  1  0
  5  6  2  0
  6  9  1  0
  9  8  1  0
 10  9  1  0
 10 11  1  0
 12 10  1  0
 13 10  1  0
 14 13  1  0
 15 17  1  0
 15 14  1  0
 16 27  2  0
 17 22  1  0
 18 26  1  0
 18 28  1  0
 19 25  1  0
 19 21  1  0
 20 26  1  0
 21 20  1  0
 22 21  2  0
 23 24  1  0
 23 17  2  0
 24 19  2  0
 25 18  1  0
 26 16  1  0
 28 30  2  0
 29 28  1  0
 31 29  1  0
 32 41  2  0
 32 37  1  0
 33 29  1  0
 33 37  1  0
 34 33  1  0
 35 36  1  0
 35 34  1  0
 36 32  1  0
 37 38  2  0
 38 39  1  0
 40 39  2  0
 41 40  1  0
 42 16  1  0
 42 43  1  0
 42 52  1  0
 43 46  1  0
 44 48  1  0
 44 43  1  0
 45 44  2  0
 48 47  1  0
 50 48  1  0
 50 51  1  0
 50 49  1  0
 52 55  1  1
 52 53  1  0
 54 52  1  0
 56  4  1  0
 56 67  1  0
 57 59  1  0
 57 56  1  0
 57 60  1  0
 58 57  1  0
 61 60  1  0
 61 62  1  0
 63 65  1  0
 63 62  1  0
 64 63  1  0
 66 63  1  0
 68 67  1  0
 68 69  1  0
 70 76  1  0
 71 76  1  0
 72 73  1  0
 72 71  1  0
 74 73  1  0
 74 83  1  0
 74 75  1  0
 76 75  1  0
 77 70  2  0
 78 70  1  0
 78 69  1  0
 79 78  1  0
 80 81  2  0
 81100  1  0
 82 85  1  0
 82 81  1  0
 83 84  1  0
 83 80  1  0
 84 82  2  0
 85 86  1  0
 86 87  2  0
 88 87  1  0
 89 88  2  0
 90 89  1  0
 90 85  2  0
 91 88  1  0
 91 92  1  0
 92 97  2  0
 92 93  1  0
 93 94  2  0
 94 95  1  0
 95 99  1  0
 96 95  2  0
 97 96  1  0
 98 97  1  0
100101  1  0
101104  1  0
101103  1  0
102100  2  0
105 80  1  0
105107  1  0
105106  1  0
M  ISO  4  14 101  15 101  70 100  78 100
M  END
>  <TORSDO>  (9) 
F 29

>  <SCORE>  (9) 
2.241

>  <name>  (9) 
8

>  <ligand_id>  (9) 
8

>  <original_smiles>  (9) 
[H]c1c([H])c([H])c2c(c1[H])C([H])([H])C([H])([H])C([H])([H])C2([H])N([H])C(=O)C1([H])N(C(=O)C([H])(N([H])C(=O)C([H])(N([H])C([H])([H])[H])C([H])([H])[H])C(C([H])([H])[H])(C([H])([H])[H])C([H])([H])[H])C([H])([H])c2c([H])c(OC([H])([H])C([H])([H])[N+]([H])([H])C([H])(c3c([H])c(C([H])(C([H])([H])C([H])([H])C([H])([H])N([H])C(=O)N4C([H])([H])C([H])([H])C([H])([H])C([H])(n5nc(-c6c([H])c([H])c(Oc7c([H])c([H])c(F)c([H])c7F)c([H])c6[H])c(C(=O)N([H])[H])c5N([H])[H])C4([H])[H])[N+]([H])([H])C([H])([H])C([H])([H])C([H])([H])[N+]([H])([H])[H])c([H])c([H])c3C([H])([H])[H])C([H])([H])[H])c([H])c([H])c2C1([H])[H]

>  <smiles>  (9) 
[H]c1c([H])c([H])c2c(c1[H])C([H])([H])C([H])([H])C([H])([H])C2([H])N([H])C(=O)C1([H])N(C(=O)C([H])(N([H])C(=O)C([H])(N([H])C([H])([H])[H])C([H])([H])[H])C(C([H])([H])[H])(C([H])([H])[H])C([H])([H])[H])C([H])([H])c2c([H])c(OC([H])([H])C([H])([H])[N+]([H])([H])C([H])(c3c([H])c(C([H])(C([H])([H])C([H])([H])C([H])([H])N([H])C(=O)N4C([H])([H])C([H])([H])C([H])([H])C([H])(n5nc(-c6c([H])c([H])c(Oc7c([H])c([H])c(F)c([H])c7F)c([H])c6[H])c(C(=O)N([H])[H])c5N([H])[H])C4([H])[H])[N+]([H])([H])C([H])([H])C([H])([H])C([H])([H])[N+]([H])([H])[H])c([H])c([H])c3C([H])([H])[H])C([H])([H])[H])c([H])c([H])c2C1([H])[H]

$$$$
9:0:0
     RDKit          3D

105114  0  0  1  0  0  0  0  0999 V2000
  -26.1160  -21.3230   12.6660 N   0  0  0  0  0  4  0  0  0  0  0  0
  -26.9310  -20.9340   12.2200 H   0  0  0  0  0  0  0  0  0  0  0  0
  -26.4290  -21.9750   13.3660 H   0  0  0  0  0  0  0  0  0  0  0  0
  -25.3670  -20.2280   13.3150 C   0  0  0  0  0  2  0  0  0  0  0  0
  -25.8840  -19.9330   14.7310 C   0  0  0  0  0  2  0  0  0  0  0  0
  -24.7410  -22.9900   16.7590 C   0  0  0  0  0  3  0  0  0  0  0  0
  -26.9490  -22.3100   17.5360 C   0  0  0  0  0  3  0  0  0  0  0  0
  -24.7990  -22.0070   15.7510 C   0  0  0  0  0  3  0  0  0  0  0  0
  -27.0070  -21.3250   16.5310 C   0  0  0  0  0  3  0  0  0  0  0  0
  -25.7900  -23.0970   17.6930 C   0  0  0  0  0  0  0  0  0  0  0  0
  -25.9080  -21.1350   15.6660 C   0  0  0  0  0  0  0  0  0  0  0  0
  -25.5590  -23.8280   18.9980 C   0  0  0  0  0  2  0  0  0  0  0  0
  -26.9520  -28.1420   21.6180 C   0  0  0  0  0  0  0  0  0  0  0  0
  -25.9950  -26.8670   23.4770 C   0  0  0  0  0  2  0  0  0  0  0  0
  -25.5070  -25.5070   22.9450 C   0  0  0  0  0  2  0  0  0  0  0  0
  -24.0680  -25.6120   22.3830 C   0  0  0  0  0  2  0  0  0  0  0  0
  -23.8000  -26.8660   21.5030 C   0  0  0  0  0  3  0  0  0  0  0  0
  -24.4560  -28.1380   22.0910 C   0  0  0  0  0  2  0  0  0  0  0  0
  -25.8640  -27.8240   22.3720 N   0  0  0  0  0  0  0  0  0  0  0  0
  -28.0360  -28.3910   22.1460 O   0  0  0  0  0  0  0  0  0  0  0  0
  -25.8710  -26.4180   18.4420 C   0  0  0  0  0  2  0  0  0  0  0  0
  -27.7350  -25.2030   19.6300 C   0  0  0  0  0  2  0  0  0  0  0  0
  -26.1930  -27.7480   19.2110 C   0  0  0  0  0  2  0  0  0  0  0  0
  -28.1740  -26.6410   20.0340 C   0  0  0  0  0  2  0  0  0  0  0  0
  -26.2430  -25.1800   19.2810 C   0  0  0  0  0  3  0  0  0  0  0  0
  -27.0130  -27.4900   20.4160 N   0  0  0  0  0  0  0  0  0  0  0  0
  -21.7840  -27.3020   19.9670 C   0  0  0  0  0  0  0  0  0  0  0  0
  -20.4400  -27.2730   20.1960 C   0  0  0  0  0  0  0  0  0  0  0  0
  -20.2920  -26.9930   21.5900 C   0  0  0  0  0  0  0  0  0  0  0  0
  -22.3890  -27.0410   21.1890 N   0  0  0  0  0  0  0  0  0  0  0  0
  -21.4760  -26.9190   22.1810 N   0  0  0  0  0  0  0  0  0  0  0  0
  -19.0900  -26.7340   22.3860 C   0  0  0  0  0  0  0  0  0  0  0  0
  -18.8330  -27.4520   23.5740 C   0  0  0  0  0  3  0  0  0  0  0  0
  -17.6620  -27.2020   24.3160 C   0  0  0  0  0  3  0  0  0  0  0  0
  -16.7340  -26.2290   23.8740 C   0  0  0  0  0  0  0  0  0  0  0  0
  -17.0110  -25.4990   22.7050 C   0  0  0  0  0  3  0  0  0  0  0  0
  -18.1790  -25.7460   21.9680 C   0  0  0  0  0  3  0  0  0  0  0  0
  -15.5830  -25.9000   24.5470 O   0  0  0  0  0  0  0  0  0  0  0  0
  -14.9420  -26.8000   25.3610 C   0  0  0  0  0  0  0  0  0  0  0  0
  -14.5000  -28.0540   24.8830 C   0  0  0  0  0  3  0  0  0  0  0  0
  -13.7870  -28.9220   25.7330 C   0  0  0  0  0  3  0  0  0  0  0  0
  -13.5050  -28.5360   27.0570 C   0  0  0  0  0  0  0  0  0  0  0  0
  -13.9370  -27.2860   27.5330 C   0  0  0  0  0  3  0  0  0  0  0  0
  -14.6510  -26.4210   26.6860 C   0  0  0  0  0  0  0  0  0  0  0  0
  -15.0510  -25.2100   27.1450 F   0  0  0  0  0  0  0  0  0  0  0  0
  -12.8100  -29.3660   27.8690 F   0  0  0  0  0  0  0  0  0  0  0  0
  -19.3510  -27.3940   19.1700 C   0  0  0  0  0  0  0  0  0  0  0  0
  -18.2010  -27.9240   19.5600 N   0  0  0  0  0  0  0  0  0  0  0  0
  -19.5330  -27.0630   17.9970 O   0  0  0  0  0  0  0  0  0  0  0  0
  -18.0670  -28.2210   20.5160 H   0  0  0  0  0  0  0  0  0  0  0  0
  -17.4450  -28.0390   18.8980 H   0  0  0  0  0  0  0  0  0  0  0  0
  -22.5290  -27.5020   18.8100 N   0  0  0  0  0  0  0  0  0  0  0  0
  -22.0880  -27.6190   17.9040 H   0  0  0  0  0  0  0  0  0  0  0  0
  -23.5380  -27.4770   18.7720 H   0  0  0  0  0  0  0  0  0  0  0  0
  -25.3380  -22.0460   11.6430 C   0  0  0  0  0  2  0  0  0  0  0  0
  -24.7430  -23.3510   12.2010 C   0  0  0  0  0  2  0  0  0  0  0  0
  -25.4210  -24.5330   11.6670 N   0  0  0  0  0  0  0  0  0  0  0  0
  -26.3830  -24.5980   12.0030 H   0  0  0  0  0  0  0  0  0  0  0  0
  -24.7340  -25.7800   11.9790 C   0  0  0  0  0  2  0  0  0  0  0  0
  -24.7860  -26.7100   10.7650 C   0  0  0  0  0  2  0  0  0  0  0  0
  -23.8370  -27.8100   10.8980 N   0  0  0  0  0  0  0  0  0  0  0  0
  -24.2900  -28.5670   11.4110 H   0  0  0  0  0  0  0  0  0  0  0  0
  -23.3830  -28.3270    9.6040 C   0  0  0  0  0  2  0  0  0  0  0  0
  -22.5870  -27.2910    8.7880 C   0  0  0  0  0  2  0  0  0  0  0  0
  -21.2140  -27.3910    9.1300 O   0  0  0  0  0  0  0  0  0  0  0  0
  -15.3280  -24.0970   11.2250 C   0  0  0  0  0  0  0  0  0  0  0  0
  -20.6990  -26.4840   10.0210 C   0  0  0  0  0  0  0  0  0  0  0  0
  -17.2820  -23.8180   12.7220 C   0  0  0  0  0  3  0  0  0  0  0  0
  -19.5170  -24.6220   11.7860 C   0  0  0  0  0  0  0  0  0  0  0  0
  -17.6010  -24.2290   10.2230 C   0  0  0  0  0  2  0  0  0  0  0  0
  -18.8970  -24.9290   10.5690 C   0  0  0  0  0  0  0  0  0  0  0  0
  -19.4750  -25.8690    9.6940 C   0  0  0  0  0  3  0  0  0  0  0  0
  -21.3220  -26.1740   11.2510 C   0  0  0  0  0  3  0  0  0  0  0  0
  -20.7290  -25.2490   12.1380 C   0  0  0  0  0  3  0  0  0  0  0  0
  -18.8220  -23.6070   12.6630 C   0  0  0  0  0  2  0  0  0  0  0  0
  -16.6830  -24.0780   11.3740 N   0  0  0  0  0  0  0  0  0  0  0  0
  -14.5780  -23.8550   12.1810 O   0  0  0  0  0  0  0  0  0  0  0  0
  -16.9770  -24.9290   13.7510 C   0  0  0  0  0  0  0  0  0  0  0  0
  -16.7630  -24.5280   15.0150 N   0  0  0  0  0  0  0  0  0  0  0  0
  -16.9640  -26.1140   13.4150 O   0  0  0  0  0  0  0  0  0  0  0  0
  -16.7800  -23.5370   15.2040 H   0  0  0  0  0  0  0  0  0  0  0  0
  -15.6650  -24.5530   18.4540 C   0  0  0  0  0  0  0  0  0  0  0  0
  -16.4990  -25.3990   16.1590 C   0  0  0  0  0  3  0  0  0  0  0  0
  -17.8090  -25.7740   16.8870 C   0  0  0  0  0  2  0  0  0  0  0  0
  -18.1470  -24.8300   18.0480 C   0  0  0  0  0  2  0  0  0  0  0  0
  -17.0190  -24.8300   19.0840 C   0  0  0  0  0  2  0  0  0  0  0  0
  -15.4260  -24.8050   17.0780 C   0  0  0  0  0  0  0  0  0  0  0  0
  -14.1600  -24.4960   16.5350 C   0  0  0  0  0  3  0  0  0  0  0  0
  -13.1450  -23.9490   17.3420 C   0  0  0  0  0  3  0  0  0  0  0  0
  -13.3810  -23.7170   18.7080 C   0  0  0  0  0  3  0  0  0  0  0  0
  -14.6370  -24.0220   19.2620 C   0  0  0  0  0  3  0  0  0  0  0  0
  -14.6570  -24.3970    9.8470 C   0  0  0  0  0  3  0  0  0  0  0  0
  -13.4900  -23.5130    9.7230 N   0  0  0  0  0  0  0  0  0  0  0  0
  -13.4760  -22.3660    9.0310 C   0  0  0  0  0  0  0  0  0  0  0  0
  -14.4380  -21.9750    8.3640 O   0  0  0  0  0  0  0  0  0  0  0  0
  -12.6850  -23.7430   10.2870 H   0  0  0  0  0  0  0  0  0  0  0  0
  -12.3460  -20.4250   10.1580 C   0  0  0  0  0  1  0  0  0  0  0  0
  -12.1920  -21.5180    9.0890 C   0  0  0  0  0  3  0  0  0  0  0  0
  -11.4240  -21.8720    6.7840 C   0  0  0  0  0  1  0  0  0  0  0  0
  -11.8370  -20.8990    7.7930 N   0  0  0  0  0  0  0  0  0  0  0  0
  -11.0850  -20.2240    7.9080 H   0  0  0  0  0  0  0  0  0  0  0  0
  -14.2370  -25.9080    9.6750 C   0  0  1  0  0  0  0  0  0  0  0  0
  -13.4020  -26.4600   10.8550 C   0  0  0  0  0  1  0  0  0  0  0  0
  -15.4860  -26.8040    9.5170 C   0  0  0  0  0  1  0  0  0  0  0  0
  -13.4030  -26.0770    8.3820 C   0  0  0  0  0  1  0  0  0  0  0  0
  1  4  1  0
  1  3  1  0
  2  1  1  0
  4  5  1  0
  5 11  1  0
  6 10  1  0
  7 10  2  0
  8  6  2  0
  9  7  1  0
 10 12  1  0
 11  8  1  0
 11  9  2  0
 13 20  2  0
 13 19  1  0
 15 14  1  0
 16 15  1  0
 17 30  1  0
 17 18  1  0
 17 16  1  0
 18 19  1  0
 19 14  1  0
 21 23  1  0
 21 25  1  0
 22 24  1  0
 23 26  1  0
 24 26  1  0
 25 12  1  0
 25 22  1  0
 26 13  1  0
 27 28  2  0
 27 30  1  0
 28 29  1  0
 29 31  2  0
 29 32  1  0
 30 31  1  0
 32 33  1  0
 33 34  2  0
 35 34  1  0
 35 38  1  0
 36 35  2  0
 37 32  2  0
 37 36  1  0
 38 39  1  0
 39 44  1  0
 40 39  2  0
 40 41  1  0
 41 42  2  0
 42 43  1  0
 42 46  1  0
 44 45  1  0
 44 43  2  0
 47 48  1  0
 47 28  1  0
 48 50  1  0
 49 47  2  0
 51 48  1  0
 52 27  1  0
 53 52  1  0
 54 52  1  0
 55 56  1  0
 55  1  1  0
 57 59  1  0
 57 58  1  0
 57 56  1  0
 60 61  1  0
 60 59  1  0
 61 62  1  0
 63 61  1  0
 64 65  1  0
 64 63  1  0
 65 67  1  0
 66 76  1  0
 66 77  2  0
 67 73  1  0
 68 78  1  0
 69 74  1  0
 69 75  1  0
 70 71  1  0
 70 76  1  0
 71 69  2  0
 72 67  2  0
 72 71  1  0
 73 74  2  0
 75 68  1  0
 76 68  1  0
 78 79  1  0
 79 81  1  0
 80 78  2  0
 82 86  1  0
 82 91  1  0
 83 79  1  0
 83 84  1  0
 83 87  1  0
 84 85  1  0
 85 86  1  0
 87 82  2  0
 88 87  1  0
 88 89  2  0
 89 90  1  0
 90 91  2  0
 92 66  1  0
 93 92  1  0
 93 96  1  0
 94 98  1  0
 94 93  1  0
 95 94  2  0
 98 97  1  0
 99100  1  0
100101  1  0
100 98  1  0
102 92  1  0
102103  1  1
104102  1  0
105102  1  0
M  ISO  4  13 100  26 100  64 101  65 101
M  END
>  <TORSDO>  (10) 
F 28

>  <SCORE>  (10) 
22.836

>  <name>  (10) 
9

>  <ligand_id>  (10) 
9

>  <original_smiles>  (10) 
[H]c1c([H])c([H])c2c(c1[H])C([H])([H])C([H])([H])C([H])([H])C2([H])N([H])C(=O)C1([H])N(C(=O)C([H])(N([H])C(=O)C([H])(N([H])C([H])([H])[H])C([H])([H])[H])C(C([H])([H])[H])(C([H])([H])[H])C([H])([H])[H])C([H])([H])c2c([H])c(OC([H])([H])C([H])([H])N([H])C([H])([H])C([H])([H])N([H])C([H])([H])C([H])([H])[N+]([H])([H])C([H])([H])C([H])([H])c3c([H])c([H])c(C([H])([H])C4([H])C([H])([H])C([H])([H])N(C(=O)N5C([H])([H])C([H])([H])C([H])([H])C([H])(n6nc(-c7c([H])c([H])c(Oc8c([H])c([H])c(F)c([H])c8F)c([H])c7[H])c(C(=O)N([H])[H])c6N([H])[H])C5([H])[H])C([H])([H])C4([H])[H])c([H])c3[H])c([H])c([H])c2C1([H])[H]

>  <smiles>  (10) 
[H]c1c([H])c([H])c2c(c1[H])C([H])([H])C([H])([H])C([H])([H])C2([H])N([H])C(=O)C1([H])N(C(=O)C([H])(N([H])C(=O)C([H])(N([H])C([H])([H])[H])C([H])([H])[H])C(C([H])([H])[H])(C([H])([H])[H])C([H])([H])[H])C([H])([H])c2c([H])c(OC([H])([H])C([H])([H])N([H])C([H])([H])C([H])([H])N([H])C([H])([H])C([H])([H])[N+]([H])([H])C([H])([H])C([H])([H])c3c([H])c([H])c(C([H])([H])C4([H])C([H])([H])C([H])([H])N(C(=O)N5C([H])([H])C([H])([H])C([H])([H])C([H])(n6nc(-c7c([H])c([H])c(Oc8c([H])c([H])c(F)c([H])c8F)c([H])c7[H])c(C(=O)N([H])[H])c6N([H])[H])C5([H])[H])C([H])([H])C4([H])[H])c([H])c3[H])c([H])c([H])c2C1([H])[H]

$$$$
10:0:0
     RDKit          3D

106114  0  0  1  0  0  0  0  0999 V2000
  -24.0930  -25.4540   24.4170 C   0  0  0  0  0  3  0  0  0  0  0  0
  -23.7880  -26.4070   25.4930 C   0  0  0  0  0  3  0  0  0  0  0  0
  -25.9680  -26.7460   25.9470 C   0  0  0  0  0  3  0  0  0  0  0  0
  -25.4270  -25.1460   23.9500 C   0  0  0  0  0  0  0  0  0  0  0  0
  -24.6610  -27.3700   26.1670 C   0  0  0  0  0  0  0  0  0  0  0  0
  -26.2960  -25.6680   24.9990 C   0  0  0  0  0  0  0  0  0  0  0  0
  -27.5080  -25.0020   25.2730 N   0  0  0  0  0  0  0  0  0  0  0  0
  -28.0780  -24.6940   24.4910 H   0  0  0  0  0  0  0  0  0  0  0  0
  -28.0160  -25.2120   26.1170 H   0  0  0  0  0  0  0  0  0  0  0  0
  -25.9290  -24.3820   22.5220 C   0  0  0  0  0  0  0  0  0  0  0  0
  -26.7670  -25.0320   21.8740 O   0  0  0  0  0  0  0  0  0  0  0  0
  -25.5290  -22.9240   21.7410 C   0  0  0  0  0  2  0  0  0  0  0  0
  -26.1560  -22.5040   20.2630 N   0  0  0  0  0  4  0  0  0  0  0  0
  -26.3990  -23.4000   19.8800 H   0  0  0  0  0  0  0  0  0  0  0  0
  -25.3420  -22.2190   19.7480 H   0  0  0  0  0  0  0  0  0  0  0  0
  -27.3890  -21.4690   19.8490 C   0  0  0  0  0  2  0  0  0  0  0  0
  -27.8610  -20.7610   18.2350 C   0  0  0  0  0  2  0  0  0  0  0  0
  -29.2840  -20.8920   17.1320 C   0  0  0  0  0  2  0  0  0  0  0  0
  -30.6650  -19.1770   15.0300 C   0  0  0  0  0  0  0  0  0  0  0  0
  -32.7820  -18.5450   13.6000 C   0  0  0  0  0  2  0  0  0  0  0  0
  -34.0530  -18.1390   14.4000 C   0  0  0  0  0  2  0  0  0  0  0  0
  -34.7650  -19.3820   14.9600 C   0  0  0  0  0  2  0  0  0  0  0  0
  -33.7510  -20.3620   15.5990 C   0  0  0  0  0  3  0  0  0  0  0  0
  -32.6220  -20.7160   14.6300 C   0  0  0  0  0  2  0  0  0  0  0  0
  -31.9060  -19.4740   14.4260 N   0  0  0  0  0  0  0  0  0  0  0  0
  -30.1610  -18.1420   14.5450 O   0  0  0  0  0  0  0  0  0  0  0  0
  -30.2210  -19.7310   16.3450 N   0  0  0  0  0  0  0  0  0  0  0  0
  -30.2250  -18.9370   16.9670 H   0  0  0  0  0  0  0  0  0  0  0  0
  -34.3280  -22.0780   17.3730 C   0  0  0  0  0  0  0  0  0  0  0  0
  -35.0910  -23.2340   17.3160 C   0  0  0  0  0  0  0  0  0  0  0  0
  -35.5280  -23.3510   15.9730 C   0  0  0  0  0  0  0  0  0  0  0  0
  -34.3580  -21.5810   16.0890 N   0  0  0  0  0  0  0  0  0  0  0  0
  -35.0310  -22.3810   15.2280 N   0  0  0  0  0  0  0  0  0  0  0  0
  -36.4540  -24.3070   15.3460 C   0  0  0  0  0  0  0  0  0  0  0  0
  -36.0600  -25.1070   14.2570 C   0  0  0  0  0  3  0  0  0  0  0  0
  -36.9650  -26.0330   13.6940 C   0  0  0  0  0  3  0  0  0  0  0  0
  -38.2760  -26.1550   14.2190 C   0  0  0  0  0  0  0  0  0  0  0  0
  -38.6630  -25.3330   15.2920 C   0  0  0  0  0  3  0  0  0  0  0  0
  -37.7620  -24.4100   15.8470 C   0  0  0  0  0  3  0  0  0  0  0  0
  -39.2310  -27.0130   13.7200 O   0  0  0  0  0  0  0  0  0  0  0  0
  -38.8980  -28.2520   13.2310 C   0  0  0  0  0  0  0  0  0  0  0  0
  -38.1970  -29.2030   14.0050 C   0  0  0  0  0  3  0  0  0  0  0  0
  -37.9420  -30.4840   13.4790 C   0  0  0  0  0  3  0  0  0  0  0  0
  -38.3930  -30.8180   12.1890 C   0  0  0  0  0  0  0  0  0  0  0  0
  -39.0970  -29.8750   11.4210 C   0  0  0  0  0  3  0  0  0  0  0  0
  -39.3510  -28.5950   11.9420 C   0  0  0  0  0  0  0  0  0  0  0  0
  -40.0460  -27.6980   11.1990 F   0  0  0  0  0  0  0  0  0  0  0  0
  -38.1550  -32.0560   11.6940 F   0  0  0  0  0  0  0  0  0  0  0  0
  -35.4480  -24.0900   18.4890 C   0  0  0  0  0  0  0  0  0  0  0  0
  -35.6350  -25.3990   18.2410 N   0  0  0  0  0  0  0  0  0  0  0  0
  -35.5220  -23.6470   19.6220 O   0  0  0  0  0  0  0  0  0  0  0  0
  -35.5480  -25.7660   17.3100 H   0  0  0  0  0  0  0  0  0  0  0  0
  -35.8620  -26.0210   19.0000 H   0  0  0  0  0  0  0  0  0  0  0  0
  -33.6450  -21.4390   18.3830 N   0  0  0  0  0  0  0  0  0  0  0  0
  -33.6230  -21.7650   19.3450 H   0  0  0  0  0  0  0  0  0  0  0  0
  -33.1260  -20.5720   18.2530 H   0  0  0  0  0  0  0  0  0  0  0  0
  -24.6550  -28.8140   28.5670 C   0  0  0  0  0  1  0  0  0  0  0  0
  -24.2250  -28.8550   27.0470 C   0  0  0  0  0  3  0  0  0  0  0  0
  -24.0610  -30.5610   26.7210 N   0  0  0  0  0  4  0  0  0  0  0  0
  -23.3890  -30.7760   27.4420 H   0  0  0  0  0  0  0  0  0  0  0  0
  -24.9280  -30.9100   27.1390 H   0  0  0  0  0  0  0  0  0  0  0  0
  -23.6520  -31.7340   25.4770 C   0  0  0  0  0  3  0  0  0  0  0  0
  -24.0770  -31.9390   23.6400 C   0  0  0  0  0  3  0  0  0  0  0  0
  -25.1570  -31.1120   22.3190 C   0  0  0  0  0  2  0  0  0  0  0  0
  -26.7110  -30.0830   22.0700 C   0  0  0  0  0  2  0  0  0  0  0  0
  -28.3780  -30.0500   21.7100 O   0  0  0  0  0  0  0  0  0  0  0  0
  -29.2460  -32.2380   26.8560 C   0  0  0  0  0  0  0  0  0  0  0  0
  -29.2170  -30.9810   21.1310 C   0  0  0  0  0  3  0  0  0  0  0  0
  -27.4720  -32.0930   25.1820 C   0  0  0  0  0  3  0  0  0  0  0  0
  -27.9680  -32.6300   22.7770 C   0  0  0  0  0  0  0  0  0  0  0  0
  -29.7950  -32.6350   24.4820 C   0  0  0  0  0  2  0  0  0  0  0  0
  -29.2670  -32.2680   23.1120 C   0  0  0  0  0  0  0  0  0  0  0  0
  -29.9930  -31.5310   22.1800 C   0  0  0  0  0  2  0  0  0  0  0  0
  -28.2740  -31.7600   20.5230 C   0  0  0  0  0  2  0  0  0  0  0  0
  -27.5200  -32.5380   21.4190 C   0  0  0  0  0  2  0  0  0  0  0  0
  -27.2280  -33.0700   23.9580 C   0  0  0  0  0  2  0  0  0  0  0  0
  -28.8810  -32.2810   25.5710 N   0  0  0  0  0  0  0  0  0  0  0  0
  -28.4380  -32.0920   27.7730 O   0  0  0  0  0  0  0  0  0  0  0  0
  -27.1350  -30.4940   25.0820 C   0  0  0  0  0  0  0  0  0  0  0  0
  -26.1950  -29.8000   24.2270 N   0  0  0  0  0  0  0  0  0  0  0  0
  -27.8310  -29.8620   25.7980 O   0  0  0  0  0  0  0  0  0  0  0  0
  -26.2140  -30.4690   23.4460 H   0  0  0  0  0  0  0  0  0  0  0  0
  -23.2880  -28.5500   21.7600 C   0  0  0  0  0  0  0  0  0  0  0  0
  -24.8560  -29.0510   23.8780 C   0  0  0  0  0  3  0  0  0  0  0  0
  -25.5040  -27.7000   23.5330 C   0  0  0  0  0  2  0  0  0  0  0  0
  -25.4700  -27.3630   22.0310 C   0  0  0  0  0  2  0  0  0  0  0  0
  -24.0500  -27.2610   21.5210 C   0  0  0  0  0  2  0  0  0  0  0  0
  -23.5960  -29.4120   22.8710 C   0  0  0  0  0  0  0  0  0  0  0  0
  -22.5630  -30.4000   23.1070 C   0  0  0  0  0  3  0  0  0  0  0  0
  -21.5920  -30.7430   22.1430 C   0  0  0  0  0  3  0  0  0  0  0  0
  -21.3760  -29.9130   21.0400 C   0  0  0  0  0  3  0  0  0  0  0  0
  -22.1750  -28.7700   20.9160 C   0  0  0  0  0  3  0  0  0  0  0  0
  -30.7340  -32.4150   27.2380 C   0  0  0  0  0  3  0  0  0  0  0  0
  -30.7520  -32.7590   28.6600 N   0  0  0  0  0  0  0  0  0  0  0  0
  -31.1960  -33.9200   29.1740 C   0  0  0  0  0  0  0  0  0  0  0  0
  -31.6130  -34.8430   28.4620 O   0  0  0  0  0  0  0  0  0  0  0  0
  -30.2290  -32.1260   29.2550 H   0  0  0  0  0  0  0  0  0  0  0  0
  -29.9010  -34.8970   31.0640 C   0  0  0  0  0  1  0  0  0  0  0  0
  -31.1400  -34.0680   30.6930 C   0  0  0  0  0  3  0  0  0  0  0  0
  -33.5110  -33.7620   31.2060 C   0  0  0  0  0  1  0  0  0  0  0  0
  -32.3580  -34.6620   31.2730 N   0  0  0  0  0  0  0  0  0  0  0  0
  -32.2300  -34.9430   32.2360 H   0  0  0  0  0  0  0  0  0  0  0  0
  -31.5930  -31.1340   26.9250 C   0  0  1  0  0  0  0  0  0  0  0  0
  -31.0720  -29.8650   27.5550 C   0  0  0  0  0  1  0  0  0  0  0  0
  -31.7370  -30.8740   25.4230 C   0  0  0  0  0  1  0  0  0  0  0  0
  -33.0050  -31.3480   27.4840 C   0  0  0  0  0  1  0  0  0  0  0  0
  1  2  1  0
  2  5  2  0
  3  5  1  0
  4  1  2  0
  4  6  1  0
  5 58  1  0
  6  7  1  0
  6  3  2  0
  7  9  1  0
  8  7  1  0
 10  4  1  0
 11 10  2  0
 12 10  1  0
 13 12  1  0
 14 13  1  0
 15 13  1  0
 16 13  1  0
 17 16  1  0
 18 17  1  0
 19 27  1  0
 20 21  1  0
 20 25  1  0
 21 22  1  0
 22 23  1  0
 23 24  1  0
 23 32  1  0
 25 24  1  0
 25 19  1  0
 26 19  2  0
 27 28  1  0
 27 18  1  0
 29 54  1  0
 30 29  2  0
 30 49  1  0
 31 30  1  0
 32 29  1  0
 33 31  2  0
 33 32  1  0
 34 39  1  0
 34 31  1  0
 35 34  2  0
 36 37  2  0
 36 35  1  0
 37 38  1  0
 38 39  2  0
 40 37  1  0
 41 40  1  0
 41 42  1  0
 43 42  2  0
 44 43  1  0
 45 46  1  0
 45 44  2  0
 46 41  2  0
 47 46  1  0
 48 44  1  0
 49 51  2  0
 50 49  1  0
 50 53  1  0
 52 50  1  0
 54 55  1  0
 56 54  1  0
 58 57  1  0
 59 58  1  0
 59 61  1  0
 59 60  1  0
 62 59  1  0
 63 62  2  0
 64 63  1  0
 65 64  1  0
 66 65  1  0
 67 78  2  0
 68 66  1  0
 68 73  1  0
 69 79  1  0
 69 77  1  0
 70 72  2  0
 70 76  1  0
 71 77  1  0
 72 71  1  0
 73 72  1  0
 74 68  1  0
 74 75  1  0
 75 70  1  0
 76 69  1  0
 77 67  1  0
 79 81  2  0
 80 79  1  0
 82 80  1  0
 83 88  1  0
 84 80  1  0
 85 84  1  0
 86 85  1  0
 87 83  1  0
 87 86  1  0
 88 89  2  0
 88 84  1  0
 90 89  1  0
 91 90  2  0
 92 91  1  0
 92 83  2  0
 93 67  1  0
 93 94  1  0
 94 95  1  0
 94 97  1  0
 95 99  1  0
 96 95  2  0
 99 98  1  0
 99101  1  0
100101  1  0
101102  1  0
103 93  1  0
103106  1  1
103104  1  0
105103  1  0
M  ISO  4  19 100  27 100  65 101  66 101
M  END
>  <TORSDO>  (11) 
F 29

>  <SCORE>  (11) 
26.968

>  <name>  (11) 
10

>  <ligand_id>  (11) 
10

>  <original_smiles>  (11) 
[H]c1c([H])c([H])c2c(c1[H])C([H])([H])C([H])([H])C([H])([H])C2([H])N([H])C(=O)C1([H])N(C(=O)C([H])(N([H])C(=O)C([H])(N([H])C([H])([H])[H])C([H])([H])[H])C(C([H])([H])[H])(C([H])([H])[H])C([H])([H])[H])C([H])([H])c2c([H])c(OC([H])([H])C([H])([H])C([H])([H])C([H])([H])[N+]([H])([H])C([H])(c3c([H])c([H])c(C(=O)C([H])([H])[N+]([H])([H])C([H])([H])C([H])([H])C([H])([H])N([H])C(=O)N4C([H])([H])C([H])([H])C([H])([H])C([H])(n5nc(-c6c([H])c([H])c(Oc7c([H])c([H])c(F)c([H])c7F)c([H])c6[H])c(C(=O)N([H])[H])c5N([H])[H])C4([H])[H])c(N([H])[H])c3[H])C([H])([H])[H])c([H])c([H])c2C1([H])[H]

>  <smiles>  (11) 
[H]c1c([H])c([H])c2c(c1[H])C([H])([H])C([H])([H])C([H])([H])C2([H])N([H])C(=O)C1([H])N(C(=O)C([H])(N([H])C(=O)C([H])(N([H])C([H])([H])[H])C([H])([H])[H])C(C([H])([H])[H])(C([H])([H])[H])C([H])([H])[H])C([H])([H])c2c([H])c(OC([H])([H])C([H])([H])C([H])([H])C([H])([H])[N+]([H])([H])C([H])(c3c([H])c([H])c(C(=O)C([H])([H])[N+]([H])([H])C([H])([H])C([H])([H])C([H])([H])N([H])C(=O)N4C([H])([H])C([H])([H])C([H])([H])C([H])(n5nc(-c6c([H])c([H])c(Oc7c([H])c([H])c(F)c([H])c7F)c([H])c6[H])c(C(=O)N([H])[H])c5N([H])[H])C4([H])[H])c(N([H])[H])c3[H])C([H])([H])[H])c([H])c([H])c2C1([H])[H]

$$$$
11:0:0
     RDKit          3D

 91 98  0  0  1  0  0  0  0  0999 V2000
  -29.1620  -22.9140   20.1690 N   0  0  0  0  0  4  0  0  0  0  0  0
  -29.0600  -22.7450   19.1800 H   0  0  0  0  0  0  0  0  0  0  0  0
  -28.2840  -22.6390   20.5870 H   0  0  0  0  0  0  0  0  0  0  0  0
  -31.5270  -22.0910   19.9810 C   0  0  0  0  0  1  0  0  0  0  0  0
  -30.1650  -21.9430   20.6910 C   0  0  0  0  0  3  0  0  0  0  0  0
  -29.5890  -20.5100   20.4860 C   0  0  0  0  0  0  0  0  0  0  0  0
  -28.5420  -20.3040   19.8630 O   0  0  0  0  0  0  0  0  0  0  0  0
  -30.3690  -19.3170   21.0830 C   0  0  0  0  0  2  0  0  0  0  0  0
  -29.7860  -17.9060   20.7820 C   0  0  0  0  0  2  0  0  0  0  0  0
  -30.6120  -16.7660   21.4300 C   0  0  0  0  0  2  0  0  0  0  0  0
  -30.7060  -14.4410   20.4710 C   0  0  0  0  0  0  0  0  0  0  0  0
  -30.3710  -12.3010   19.2860 C   0  0  0  0  0  2  0  0  0  0  0  0
  -29.4360  -12.5120   18.0790 C   0  0  0  0  0  2  0  0  0  0  0  0
  -27.9590  -12.3870   18.5040 C   0  0  0  0  0  2  0  0  0  0  0  0
  -27.6260  -13.2310   19.7640 C   0  0  0  0  0  3  0  0  0  0  0  0
  -28.6740  -12.9960   20.8770 C   0  0  0  0  0  2  0  0  0  0  0  0
  -30.0050  -13.2850   20.3170 N   0  0  0  0  0  0  0  0  0  0  0  0
  -31.8100  -14.6270   19.9530 O   0  0  0  0  0  0  0  0  0  0  0  0
  -30.0810  -15.4210   21.1500 N   0  0  0  0  0  0  0  0  0  0  0  0
  -29.1700  -15.1960   21.5220 H   0  0  0  0  0  0  0  0  0  0  0  0
  -25.2310  -13.8680   20.4570 C   0  0  0  0  0  0  0  0  0  0  0  0
  -24.1520  -13.1090   20.8240 C   0  0  0  0  0  0  0  0  0  0  0  0
  -24.5990  -11.7520   20.8000 C   0  0  0  0  0  0  0  0  0  0  0  0
  -26.2670  -12.9740   20.2360 N   0  0  0  0  0  0  0  0  0  0  0  0
  -25.8890  -11.6960   20.4990 N   0  0  0  0  0  0  0  0  0  0  0  0
  -23.8570  -10.4990   20.9910 C   0  0  0  0  0  0  0  0  0  0  0  0
  -24.2760   -9.5290   21.9290 C   0  0  0  0  0  3  0  0  0  0  0  0
  -23.5370   -8.3390   22.1080 C   0  0  0  0  0  3  0  0  0  0  0  0
  -22.3650   -8.1120   21.3500 C   0  0  0  0  0  0  0  0  0  0  0  0
  -21.9640   -9.0700   20.4020 C   0  0  0  0  0  3  0  0  0  0  0  0
  -22.7040  -10.2510   20.2200 C   0  0  0  0  0  3  0  0  0  0  0  0
  -21.5980   -6.9750   21.4380 O   0  0  0  0  0  0  0  0  0  0  0  0
  -21.5360   -6.2360   22.5910 C   0  0  0  0  0  0  0  0  0  0  0  0
  -21.1100   -6.7980   23.8150 C   0  0  0  0  0  3  0  0  0  0  0  0
  -20.9940   -5.9860   24.9600 C   0  0  0  0  0  3  0  0  0  0  0  0
  -21.2960   -4.6130   24.8840 C   0  0  0  0  0  0  0  0  0  0  0  0
  -21.7160   -4.0500   23.6660 C   0  0  0  0  0  3  0  0  0  0  0  0
  -21.8320   -4.8600   22.5220 C   0  0  0  0  0  0  0  0  0  0  0  0
  -22.2170   -4.3080   21.3460 F   0  0  0  0  0  0  0  0  0  0  0  0
  -21.1780   -3.8310   25.9830 F   0  0  0  0  0  0  0  0  0  0  0  0
  -22.7590  -13.6030   21.0880 C   0  0  0  0  0  0  0  0  0  0  0  0
  -22.0200  -12.9190   21.9550 N   0  0  0  0  0  0  0  0  0  0  0  0
  -22.3330  -14.6300   20.5620 O   0  0  0  0  0  0  0  0  0  0  0  0
  -22.3760  -12.0870   22.4040 H   0  0  0  0  0  0  0  0  0  0  0  0
  -21.0840  -13.2300   22.1720 H   0  0  0  0  0  0  0  0  0  0  0  0
  -25.4130  -15.2360   20.2750 N   0  0  0  0  0  0  0  0  0  0  0  0
  -24.6560  -15.9030   20.3750 H   0  0  0  0  0  0  0  0  0  0  0  0
  -26.2750  -15.6610   19.9540 H   0  0  0  0  0  0  0  0  0  0  0  0
  -29.4010  -24.3690   20.4360 C   0  0  0  0  0  2  0  0  0  0  0  0
  -28.2170  -25.2430   19.9520 C   0  0  0  0  0  2  0  0  0  0  0  0
  -28.3660  -26.6580   20.1990 O   0  0  0  0  0  0  0  0  0  0  0  0
  -24.5950  -31.8920   23.2450 C   0  0  0  0  0  0  0  0  0  0  0  0
  -27.2060  -27.4200   20.1560 C   0  0  0  0  0  0  0  0  0  0  0  0
  -23.3800  -30.5000   21.6040 C   0  0  0  0  0  3  0  0  0  0  0  0
  -24.8210  -28.9620   20.1720 C   0  0  0  0  0  0  0  0  0  0  0  0
  -25.9100  -30.8400   21.4050 C   0  0  0  0  0  2  0  0  0  0  0  0
  -25.9860  -29.4700   20.7600 C   0  0  0  0  0  0  0  0  0  0  0  0
  -27.1810  -28.7070   20.7490 C   0  0  0  0  0  3  0  0  0  0  0  0
  -26.0180  -26.9430   19.5480 C   0  0  0  0  0  3  0  0  0  0  0  0
  -24.8340  -27.6990   19.5620 C   0  0  0  0  0  3  0  0  0  0  0  0
  -23.5830  -29.8260   20.2220 C   0  0  0  0  0  2  0  0  0  0  0  0
  -24.6470  -31.0920   22.1420 N   0  0  0  0  0  0  0  0  0  0  0  0
  -23.5150  -32.1700   23.7860 O   0  0  0  0  0  0  0  0  0  0  0  0
  -22.7250  -29.4790   22.5630 C   0  0  0  0  0  0  0  0  0  0  0  0
  -21.4000  -29.3020   22.4380 N   0  0  0  0  0  0  0  0  0  0  0  0
  -23.4070  -28.8490   23.3760 O   0  0  0  0  0  0  0  0  0  0  0  0
  -20.9110  -29.8630   21.7530 H   0  0  0  0  0  0  0  0  0  0  0  0
  -18.0190  -28.1290   22.9440 C   0  0  0  0  0  0  0  0  0  0  0  0
  -20.5790  -28.3680   23.2080 C   0  0  0  0  0  3  0  0  0  0  0  0
  -20.6700  -26.9370   22.6290 C   0  0  0  0  0  2  0  0  0  0  0  0
  -19.5620  -26.6250   21.6170 C   0  0  0  0  0  2  0  0  0  0  0  0
  -18.1830  -26.7790   22.2650 C   0  0  0  0  0  2  0  0  0  0  0  0
  -19.1450  -28.8820   23.3720 C   0  0  0  0  0  0  0  0  0  0  0  0
  -18.9360  -30.1460   23.9650 C   0  0  0  0  0  3  0  0  0  0  0  0
  -17.6360  -30.6570   24.1350 C   0  0  0  0  0  3  0  0  0  0  0  0
  -16.5260  -29.9010   23.7230 C   0  0  0  0  0  3  0  0  0  0  0  0
  -16.7180  -28.6390   23.1330 C   0  0  0  0  0  3  0  0  0  0  0  0
  -25.8850  -32.5170   23.8620 C   0  0  0  0  0  3  0  0  0  0  0  0
  -26.4070  -31.7370   25.1310 C   0  0  1  0  0  0  0  0  0  0  0  0
  -25.3180  -31.4960   26.2030 C   0  0  0  0  0  1  0  0  0  0  0  0
  -26.9860  -30.3620   24.7280 C   0  0  0  0  0  1  0  0  0  0  0  0
  -27.5610  -32.5260   25.7910 C   0  0  0  0  0  1  0  0  0  0  0  0
  -25.5810  -33.9140   24.1990 N   0  0  0  0  0  0  0  0  0  0  0  0
  -25.9070  -34.9680   23.4380 C   0  0  0  0  0  0  0  0  0  0  0  0
  -26.5680  -34.8660   22.4000 O   0  0  0  0  0  0  0  0  0  0  0  0
  -24.9940  -34.0670   25.0050 H   0  0  0  0  0  0  0  0  0  0  0  0
  -24.1760  -36.7610   23.1030 C   0  0  0  0  0  1  0  0  0  0  0  0
  -25.4240  -36.3550   23.9020 C   0  0  0  0  0  3  0  0  0  0  0  0
  -27.5670  -37.2370   24.7150 C   0  0  0  0  0  1  0  0  0  0  0  0
  -26.4570  -37.4070   23.7820 N   0  0  0  0  0  0  0  0  0  0  0  0
  -26.0530  -38.3280   23.9330 H   0  0  0  0  0  0  0  0  0  0  0  0
  1 49  1  0
  1  3  1  0
  1  5  1  0
  2  1  1  0
  5  4  1  0
  6  5  1  0
  6  8  1  0
  7  6  2  0
  9  8  1  0
  9 10  1  0
 11 19  1  0
 12 17  1  0
 13 14  1  0
 13 12  1  0
 15 14  1  0
 15 24  1  0
 15 16  1  0
 17 11  1  0
 17 16  1  0
 18 11  2  0
 19 10  1  0
 19 20  1  0
 21 22  2  0
 22 41  1  0
 23 22  1  0
 23 26  1  0
 24 21  1  0
 24 25  1  0
 25 23  2  0
 26 27  1  0
 27 28  2  0
 29 32  1  0
 29 28  1  0
 30 29  2  0
 31 30  1  0
 31 26  2  0
 32 33  1  0
 33 34  1  0
 34 35  2  0
 36 35  1  0
 36 40  1  0
 37 36  2  0
 38 33  2  0
 38 37  1  0
 39 38  1  0
 41 42  1  0
 42 45  1  0
 42 44  1  0
 43 41  2  0
 46 47  1  0
 46 21  1  0
 48 46  1  0
 50 51  1  0
 50 49  1  0
 52 63  2  0
 53 51  1  0
 53 58  1  0
 54 62  1  0
 54 64  1  0
 55 61  1  0
 55 57  1  0
 56 62  1  0
 57 56  1  0
 58 57  2  0
 59 60  1  0
 59 53  2  0
 60 55  2  0
 61 54  1  0
 62 52  1  0
 64 66  2  0
 65 64  1  0
 67 65  1  0
 68 77  2  0
 68 73  1  0
 69 65  1  0
 69 73  1  0
 70 69  1  0
 71 72  1  0
 71 70  1  0
 72 68  1  0
 73 74  2  0
 74 75  1  0
 76 75  2  0
 77 76  1  0
 78 52  1  0
 78 83  1  0
 78 79  1  0
 79 82  1  1
 79 80  1  0
 81 79  1  0
 83 86  1  0
 84 88  1  0
 84 83  1  0
 85 84  2  0
 88 87  1  0
 90 88  1  0
 90 91  1  0
 90 89  1  0
M  ISO  4  11 100  19 100  50 101  51 101
M  END
>  <TORSDO>  (12) 
F 23

>  <SCORE>  (12) 
-12.799

>  <name>  (12) 
11

>  <ligand_id>  (12) 
11

>  <original_smiles>  (12) 
[H]c1c([H])c([H])c2c(c1[H])C([H])([H])C([H])([H])C([H])([H])C2([H])N([H])C(=O)C1([H])N(C(=O)C([H])(N([H])C(=O)C([H])(N([H])C([H])([H])[H])C([H])([H])[H])C(C([H])([H])[H])(C([H])([H])[H])C([H])([H])[H])C([H])([H])c2c([H])c(OC([H])([H])C([H])([H])[N+]([H])([H])C([H])(C(=O)C([H])([H])C([H])([H])C([H])([H])N([H])C(=O)N3C([H])([H])C([H])([H])C([H])([H])C([H])(n4nc(-c5c([H])c([H])c(Oc6c([H])c([H])c(F)c([H])c6F)c([H])c5[H])c(C(=O)N([H])[H])c4N([H])[H])C3([H])[H])C([H])([H])[H])c([H])c([H])c2C1([H])[H]

>  <smiles>  (12) 
[H]c1c([H])c([H])c2c(c1[H])C([H])([H])C([H])([H])C([H])([H])C2([H])N([H])C(=O)C1([H])N(C(=O)C([H])(N([H])C(=O)C([H])(N([H])C([H])([H])[H])C([H])([H])[H])C(C([H])([H])[H])(C([H])([H])[H])C([H])([H])[H])C([H])([H])c2c([H])c(OC([H])([H])C([H])([H])[N+]([H])([H])C([H])(C(=O)C([H])([H])C([H])([H])C([H])([H])N([H])C(=O)N3C([H])([H])C([H])([H])C([H])([H])C([H])(n4nc(-c5c([H])c([H])c(Oc6c([H])c([H])c(F)c([H])c6F)c([H])c5[H])c(C(=O)N([H])[H])c4N([H])[H])C3([H])[H])C([H])([H])[H])c([H])c([H])c2C1([H])[H]

$$$$
12:0:0
     RDKit          3D

 96103  0  0  1  0  0  0  0  0999 V2000
  -25.3380  -18.5770   19.1470 C   0  0  0  0  0  0  0  0  0  0  0  0
  -25.9910  -19.6450   19.7970 N   0  0  0  0  0  0  0  0  0  0  0  0
  -25.2620  -18.6170   17.9210 O   0  0  0  0  0  0  0  0  0  0  0  0
  -26.0670  -19.4770   20.7920 H   0  0  0  0  0  0  0  0  0  0  0  0
  -24.5030  -17.3640   19.8990 C   0  0  0  0  0  2  0  0  0  0  0  0
  -24.0980  -15.7430   19.4950 C   0  0  0  0  0  2  0  0  0  0  0  0
  -23.6620  -13.2740   18.9130 C   0  0  0  0  0  1  0  0  0  0  0  0
  -24.4950  -14.0890   20.0260 C   0  0  0  0  0  3  0  0  0  0  0  0
  -25.9050  -14.3180   19.1240 C   0  0  0  0  0  2  0  0  0  0  0  0
  -27.1730  -15.1640   19.6340 C   0  0  0  0  0  2  0  0  0  0  0  0
  -28.6190  -14.6860   19.2890 C   0  0  0  0  0  0  0  0  0  0  0  0
  -28.8250  -14.2070   18.1720 O   0  0  0  0  0  0  0  0  0  0  0  0
  -29.8280  -14.8820   20.2900 C   0  0  0  0  0  2  0  0  0  0  0  0
  -30.7820  -12.8660   21.5960 C   0  0  0  0  0  0  0  0  0  0  0  0
  -30.5850  -10.8510   20.2650 C   0  0  0  0  0  2  0  0  0  0  0  0
  -29.7000  -11.2480   19.0760 C   0  0  0  0  0  2  0  0  0  0  0  0
  -28.2730  -10.9920   19.5130 C   0  0  0  0  0  2  0  0  0  0  0  0
  -28.0030  -11.7800   20.8230 C   0  0  0  0  0  3  0  0  0  0  0  0
  -28.8700  -11.3330   21.9640 C   0  0  0  0  0  2  0  0  0  0  0  0
  -30.1870  -11.6620   21.4320 N   0  0  0  0  0  0  0  0  0  0  0  0
  -31.9990  -12.9910   21.5170 O   0  0  0  0  0  0  0  0  0  0  0  0
  -29.9610  -13.9490   21.4640 N   0  0  0  0  0  0  0  0  0  0  0  0
  -29.8940  -14.4610   22.3320 H   0  0  0  0  0  0  0  0  0  0  0  0
  -25.4500  -12.9960   21.8880 C   0  0  0  0  0  0  0  0  0  0  0  0
  -23.9290  -12.1310   21.8720 C   0  0  0  0  0  0  0  0  0  0  0  0
  -24.1990  -10.4820   21.2070 C   0  0  0  0  0  0  0  0  0  0  0  0
  -26.6970  -11.8150   21.1390 N   0  0  0  0  0  0  0  0  0  0  0  0
  -25.8310  -10.3160   20.7400 N   0  0  0  0  0  0  0  0  0  0  0  0
  -23.5860   -9.2270   21.6510 C   0  0  0  0  0  0  0  0  0  0  0  0
  -24.1190   -8.3230   22.6210 C   0  0  0  0  0  3  0  0  0  0  0  0
  -23.4330   -7.1130   22.9190 C   0  0  0  0  0  3  0  0  0  0  0  0
  -22.2230   -6.8230   22.2340 C   0  0  0  0  0  0  0  0  0  0  0  0
  -21.7340   -7.7310   21.2900 C   0  0  0  0  0  3  0  0  0  0  0  0
  -22.3930   -8.9250   21.0140 C   0  0  0  0  0  3  0  0  0  0  0  0
  -21.4830   -5.6770   22.3350 O   0  0  0  0  0  0  0  0  0  0  0  0
  -21.5340   -4.8520   23.4250 C   0  0  0  0  0  0  0  0  0  0  0  0
  -21.1680   -5.2750   24.7180 C   0  0  0  0  0  3  0  0  0  0  0  0
  -21.1570   -4.3480   25.7760 C   0  0  0  0  0  3  0  0  0  0  0  0
  -21.5080   -3.0050   25.5420 C   0  0  0  0  0  0  0  0  0  0  0  0
  -21.8710   -2.5850   24.2520 C   0  0  0  0  0  3  0  0  0  0  0  0
  -21.8800   -3.5050   23.1930 C   0  0  0  0  0  0  0  0  0  0  0  0
  -22.1900   -3.0960   21.9400 F   0  0  0  0  0  0  0  0  0  0  0  0
  -21.4870   -2.1130   26.5620 F   0  0  0  0  0  0  0  0  0  0  0  0
  -22.5760  -12.5260   22.2250 C   0  0  0  0  0  0  0  0  0  0  0  0
  -21.9170  -11.6540   22.9710 N   0  0  0  0  0  0  0  0  0  0  0  0
  -22.0850  -13.5430   21.7710 O   0  0  0  0  0  0  0  0  0  0  0  0
  -22.3520  -10.7890   23.2550 H   0  0  0  0  0  0  0  0  0  0  0  0
  -20.9780  -11.8590   23.2790 H   0  0  0  0  0  0  0  0  0  0  0  0
  -25.8670  -14.2350   22.2230 N   0  0  0  0  0  0  0  0  0  0  0  0
  -25.2380  -14.7660   22.8090 H   0  0  0  0  0  0  0  0  0  0  0  0
  -26.8330  -14.3700   22.5010 H   0  0  0  0  0  0  0  0  0  0  0  0
  -26.1930  -21.1660   19.4410 C   0  0  0  0  0  2  0  0  0  0  0  0
  -27.5820  -22.0710   19.6040 C   0  0  0  0  0  2  0  0  0  0  0  0
  -27.6690  -23.6330   20.2610 C   0  0  0  0  0  3  0  0  0  0  0  0
  -28.2520  -25.0610   19.5830 C   0  0  0  0  0  3  0  0  0  0  0  0
  -28.3800  -26.4850   20.2230 O   0  0  0  0  0  0  0  0  0  0  0  0
  -24.5410  -32.0160   23.3060 C   0  0  0  0  0  0  0  0  0  0  0  0
  -27.3600  -27.4840   20.1870 C   0  0  0  0  0  0  0  0  0  0  0  0
  -23.4950  -30.6520   21.5570 C   0  0  0  0  0  3  0  0  0  0  0  0
  -25.0560  -29.2170   20.1270 C   0  0  0  0  0  0  0  0  0  0  0  0
  -26.0510  -30.9870   21.5660 C   0  0  0  0  0  2  0  0  0  0  0  0
  -26.1920  -29.6380   20.8300 C   0  0  0  0  0  0  0  0  0  0  0  0
  -27.3560  -28.7810   20.8470 C   0  0  0  0  0  3  0  0  0  0  0  0
  -26.1870  -27.1530   19.4890 C   0  0  0  0  0  3  0  0  0  0  0  0
  -25.0670  -27.9970   19.4450 C   0  0  0  0  0  3  0  0  0  0  0  0
  -23.8140  -30.0900   20.1530 C   0  0  0  0  0  2  0  0  0  0  0  0
  -24.7130  -31.2370   22.1970 N   0  0  0  0  0  0  0  0  0  0  0  0
  -23.4140  -32.2400   23.7730 O   0  0  0  0  0  0  0  0  0  0  0  0
  -22.8150  -29.5560   22.4170 C   0  0  0  0  0  0  0  0  0  0  0  0
  -21.4840  -29.4060   22.2810 N   0  0  0  0  0  0  0  0  0  0  0  0
  -23.4830  -28.8580   23.1840 O   0  0  0  0  0  0  0  0  0  0  0  0
  -20.9990  -30.0280   21.6490 H   0  0  0  0  0  0  0  0  0  0  0  0
  -18.0840  -28.2580   22.7550 C   0  0  0  0  0  0  0  0  0  0  0  0
  -20.6540  -28.4190   22.9770 C   0  0  0  0  0  3  0  0  0  0  0  0
  -20.6990  -27.0470   22.2660 C   0  0  0  0  0  2  0  0  0  0  0  0
  -19.5640  -26.8540   21.2560 C   0  0  0  0  0  2  0  0  0  0  0  0
  -18.2020  -26.9760   21.9480 C   0  0  0  0  0  2  0  0  0  0  0  0
  -19.2350  -28.9430   23.2260 C   0  0  0  0  0  0  0  0  0  0  0  0
  -19.0680  -30.1470   23.9440 C   0  0  0  0  0  3  0  0  0  0  0  0
  -17.7840  -30.6660   24.1940 C   0  0  0  0  0  3  0  0  0  0  0  0
  -16.6470  -29.9740   23.7410 C   0  0  0  0  0  3  0  0  0  0  0  0
  -16.7980  -28.7720   23.0260 C   0  0  0  0  0  3  0  0  0  0  0  0
  -25.7500  -32.6800   24.0300 C   0  0  0  0  0  3  0  0  0  0  0  0
  -26.1520  -31.9410   25.3660 C   0  0  1  0  0  0  0  0  0  0  0  0
  -24.9670  -31.7290   26.3380 C   0  0  0  0  0  1  0  0  0  0  0  0
  -26.7690  -30.5540   25.0730 C   0  0  0  0  0  1  0  0  0  0  0  0
  -27.2400  -32.7530   26.1060 C   0  0  0  0  0  1  0  0  0  0  0  0
  -25.3880  -34.0800   24.3100 N   0  0  0  0  0  0  0  0  0  0  0  0
  -25.7660  -35.1280   23.5680 C   0  0  0  0  0  0  0  0  0  0  0  0
  -26.5250  -35.0220   22.6010 O   0  0  0  0  0  0  0  0  0  0  0  0
  -24.7250  -34.2390   25.0550 H   0  0  0  0  0  0  0  0  0  0  0  0
  -24.0400  -36.8830   23.0440 C   0  0  0  0  0  1  0  0  0  0  0  0
  -25.2170  -36.5150   23.9610 C   0  0  0  0  0  3  0  0  0  0  0  0
  -27.2570  -37.4550   24.9550 C   0  0  0  0  0  1  0  0  0  0  0  0
  -26.2380  -37.5860   23.9180 N   0  0  0  0  0  0  0  0  0  0  0  0
  -25.8050  -38.5010   24.0120 H   0  0  0  0  0  0  0  0  0  0  0  0
  1  2  1  0
  1  5  1  0
  2  4  1  0
  3  1  2  0
  6  5  1  0
  6  8  1  0
  8  7  1  0
  9 10  1  0
  9  8  1  0
 11 10  1  0
 11 13  1  0
 12 11  2  0
 13 22  1  0
 15 20  1  0
 16 17  1  0
 16 15  1  0
 18 17  1  0
 18 27  1  0
 18 19  1  0
 20 14  1  0
 20 19  1  0
 21 14  2  0
 22 14  1  0
 22 23  1  0
 24 49  1  0
 25 24  2  0
 25 44  1  0
 26 29  1  0
 26 25  1  0
 27 24  1  0
 28 27  1  0
 28 26  2  0
 29 30  1  0
 30 31  2  0
 32 35  1  0
 32 31  1  0
 33 32  2  0
 34 33  1  0
 34 29  2  0
 35 36  1  0
 36 37  1  0
 37 38  2  0
 39 38  1  0
 39 43  1  0
 40 39  2  0
 41 36  2  0
 41 40  1  0
 42 41  1  0
 44 45  1  0
 45 47  1  0
 45 48  1  0
 46 44  2  0
 49 51  1  0
 49 50  1  0
 52 53  1  0
 52  2  1  0
 53 54  1  0
 55 56  1  0
 55 54  2  0
 57 68  2  0
 58 56  1  0
 58 63  1  0
 59 67  1  0
 59 69  1  0
 60 66  1  0
 60 62  1  0
 61 67  1  0
 62 63  2  0
 62 61  1  0
 64 58  2  0
 65 64  1  0
 65 60  2  0
 66 59  1  0
 67 57  1  0
 69 71  2  0
 70 69  1  0
 72 70  1  0
 73 82  2  0
 73 78  1  0
 74 70  1  0
 74 78  1  0
 75 74  1  0
 76 77  1  0
 76 75  1  0
 77 73  1  0
 78 79  2  0
 79 80  1  0
 81 80  2  0
 82 81  1  0
 83 57  1  0
 83 88  1  0
 83 84  1  0
 84 87  1  1
 84 85  1  0
 86 84  1  0
 88 91  1  0
 89 93  1  0
 89 88  1  0
 90 89  2  0
 93 92  1  0
 95 93  1  0
 95 96  1  0
 95 94  1  0
M  ISO  4  14 100  22 100  55 101  56 101
M  END
>  <TORSDO>  (13) 
F 27

>  <SCORE>  (13) 
-0.574

>  <name>  (13) 
12

>  <ligand_id>  (13) 
12

>  <original_smiles>  (13) 
[H]c1c([H])c([H])c2c(c1[H])C([H])([H])C([H])([H])C([H])([H])C2([H])N([H])C(=O)C1([H])N(C(=O)C([H])(N([H])C(=O)C([H])(N([H])C([H])([H])[H])C([H])([H])[H])C(C([H])([H])[H])(C([H])([H])[H])C([H])([H])[H])C([H])([H])c2c([H])c(OC([H])([H])C([H])([H])C([H])([H])C([H])([H])N([H])C(=O)C([H])([H])C([H])([H])C([H])(C([H])([H])[H])C([H])([H])C([H])([H])C(=O)C([H])([H])N([H])C(=O)N3C([H])([H])C([H])([H])C([H])([H])C([H])(n4nc(-c5c([H])c([H])c(Oc6c([H])c([H])c(F)c([H])c6F)c([H])c5[H])c(C(=O)N([H])[H])c4N([H])[H])C3([H])[H])c([H])c([H])c2C1([H])[H]

>  <smiles>  (13) 
[H]c1c([H])c([H])c2c(c1[H])C([H])([H])C([H])([H])C([H])([H])C2([H])N([H])C(=O)C1([H])N(C(=O)C([H])(N([H])C(=O)C([H])(N([H])C([H])([H])[H])C([H])([H])[H])C(C([H])([H])[H])(C([H])([H])[H])C([H])([H])[H])C([H])([H])c2c([H])c(OC([H])([H])C([H])([H])C([H])([H])C([H])([H])N([H])C(=O)C([H])([H])C([H])([H])C([H])(C([H])([H])[H])C([H])([H])C([H])([H])C(=O)C([H])([H])N([H])C(=O)N3C([H])([H])C([H])([H])C([H])([H])C([H])(n4nc(-c5c([H])c([H])c(Oc6c([H])c([H])c(F)c([H])c6F)c([H])c5[H])c(C(=O)N([H])[H])c4N([H])[H])C3([H])[H])c([H])c([H])c2C1([H])[H]

$$$$
13:0:0
     RDKit          3D

108116  0  0  1  0  0  0  0  0999 V2000
  -23.0320  -25.0390   21.6990 C   0  0  0  0  0  3  0  0  0  0  0  0
  -22.5900  -23.6920   23.6810 C   0  0  0  0  0  3  0  0  0  0  0  0
  -22.5500  -23.9970   20.8850 C   0  0  0  0  0  3  0  0  0  0  0  0
  -22.0970  -22.6530   22.8700 C   0  0  0  0  0  3  0  0  0  0  0  0
  -23.0890  -24.8820   23.1040 C   0  0  0  0  0  0  0  0  0  0  0  0
  -22.1170  -22.7870   21.4690 C   0  0  0  0  0  0  0  0  0  0  0  0
  -23.6680  -25.9550   23.9830 C   0  0  0  0  0  0  0  0  0  0  0  0
  -24.6470  -26.6800   23.4280 N   0  0  0  0  0  0  0  0  0  0  0  0
  -23.3110  -26.0910   25.1560 O   0  0  0  0  0  0  0  0  0  0  0  0
  -24.8360  -26.4800   22.4590 H   0  0  0  0  0  0  0  0  0  0  0  0
  -25.4160  -27.7180   24.1190 C   0  0  0  0  0  2  0  0  0  0  0  0
  -26.4810  -28.3610   23.2080 C   0  0  0  0  0  2  0  0  0  0  0  0
  -27.3930  -27.3650   22.5890 N   0  0  0  0  0  4  0  0  0  0  0  0
  -26.8310  -26.6220   22.2080 H   0  0  0  0  0  0  0  0  0  0  0  0
  -27.9820  -26.9610   23.3020 H   0  0  0  0  0  0  0  0  0  0  0  0
  -28.2420  -27.9130   21.5000 C   0  0  0  0  0  2  0  0  0  0  0  0
  -28.3400  -26.9650   20.2680 C   0  0  0  0  0  2  0  0  0  0  0  0
  -27.8190  -27.5410   19.0570 O   0  0  0  0  0  0  0  0  0  0  0  0
  -24.6290  -31.9860   23.4850 C   0  0  0  0  0  0  0  0  0  0  0  0
  -26.6760  -28.2670   19.2680 C   0  0  0  0  0  0  0  0  0  0  0  0
  -23.1440  -30.8530   21.8620 C   0  0  0  0  0  3  0  0  0  0  0  0
  -24.3150  -29.6360   19.9500 C   0  0  0  0  0  0  0  0  0  0  0  0
  -25.5820  -31.3430   21.2790 C   0  0  0  0  0  2  0  0  0  0  0  0
  -25.5540  -30.1140   20.3950 C   0  0  0  0  0  0  0  0  0  0  0  0
  -26.7410  -29.4460   20.0370 C   0  0  0  0  0  3  0  0  0  0  0  0
  -25.4260  -27.7960   18.8120 C   0  0  0  0  0  3  0  0  0  0  0  0
  -24.2430  -28.4790   19.1520 C   0  0  0  0  0  3  0  0  0  0  0  0
  -23.0950  -30.4230   20.3700 C   0  0  0  0  0  2  0  0  0  0  0  0
  -24.4800  -31.3960   22.2650 N   0  0  0  0  0  0  0  0  0  0  0  0
  -23.6610  -32.1310   24.2460 O   0  0  0  0  0  0  0  0  0  0  0  0
  -22.6760  -29.6620   22.7290 C   0  0  0  0  0  0  0  0  0  0  0  0
  -21.3910  -29.2980   22.5920 N   0  0  0  0  0  0  0  0  0  0  0  0
  -23.4620  -29.0740   23.4760 O   0  0  0  0  0  0  0  0  0  0  0  0
  -20.8190  -29.8310   21.9510 H   0  0  0  0  0  0  0  0  0  0  0  0
  -18.3040  -27.4410   22.8390 C   0  0  0  0  0  0  0  0  0  0  0  0
  -20.7380  -28.1860   23.2810 C   0  0  0  0  0  3  0  0  0  0  0  0
  -21.1600  -26.8350   22.6590 C   0  0  0  0  0  2  0  0  0  0  0  0
  -20.1990  -26.3560   21.5670 C   0  0  0  0  0  2  0  0  0  0  0  0
  -18.7920  -26.1800   22.1440 C   0  0  0  0  0  2  0  0  0  0  0  0
  -19.2190  -28.3910   23.3610 C   0  0  0  0  0  0  0  0  0  0  0  0
  -18.7170  -29.5590   23.9730 C   0  0  0  0  0  3  0  0  0  0  0  0
  -17.3300  -29.7900   24.0590 C   0  0  0  0  0  3  0  0  0  0  0  0
  -16.4280  -28.8390   23.5480 C   0  0  0  0  0  3  0  0  0  0  0  0
  -16.9160  -27.6640   22.9500 C   0  0  0  0  0  3  0  0  0  0  0  0
  -26.0100  -32.5330   23.9690 C   0  0  0  0  0  3  0  0  0  0  0  0
  -25.7920  -33.8920   24.4810 N   0  0  0  0  0  0  0  0  0  0  0  0
  -26.1840  -35.0100   23.8540 C   0  0  0  0  0  0  0  0  0  0  0  0
  -26.8390  -34.9980   22.8090 O   0  0  0  0  0  0  0  0  0  0  0  0
  -25.2120  -33.9810   25.3030 H   0  0  0  0  0  0  0  0  0  0  0  0
  -24.6200  -36.9730   23.7010 C   0  0  0  0  0  1  0  0  0  0  0  0
  -25.7850  -36.3550   24.4900 C   0  0  0  0  0  3  0  0  0  0  0  0
  -27.9420  -36.9240   25.5130 C   0  0  0  0  0  1  0  0  0  0  0  0
  -26.9000  -37.3230   24.5700 N   0  0  0  0  0  0  0  0  0  0  0  0
  -26.5610  -38.2410   24.8430 H   0  0  0  0  0  0  0  0  0  0  0  0
  -26.6910  -31.6230   25.0640 C   0  0  1  0  0  0  0  0  0  0  0  0
  -25.7490  -31.2410   26.2290 C   0  0  0  0  0  1  0  0  0  0  0  0
  -27.2150  -30.3090   24.4320 C   0  0  0  0  0  1  0  0  0  0  0  0
  -27.9200  -32.3520   25.6610 C   0  0  0  0  0  1  0  0  0  0  0  0
  -21.8150  -21.5790   20.6020 C   0  0  0  0  0  2  0  0  0  0  0  0
  -23.0940  -20.8360   20.1440 C   0  0  0  0  0  2  0  0  0  0  0  0
  -24.0350  -21.6720   19.2280 C   0  0  0  0  0  2  0  0  0  0  0  0
  -24.6670  -19.4430   18.1170 C   0  0  0  0  0  1  0  0  0  0  0  0
  -25.0270  -20.9370   18.2840 C   0  0  0  0  0  3  0  0  0  0  0  0
  -27.2110  -22.1880   17.6920 C   0  0  0  0  0  1  0  0  0  0  0  0
  -26.5220  -21.1970   18.6670 C   0  0  0  0  0  3  0  0  0  0  0  0
  -27.2820  -19.9260   18.6940 N   0  0  0  0  0  4  0  0  0  0  0  0
  -27.7840  -19.8230   17.8270 H   0  0  0  0  0  0  0  0  0  0  0  0
  -26.5930  -19.1870   18.7410 H   0  0  0  0  0  0  0  0  0  0  0  0
  -28.2100  -19.7600   19.8380 C   0  0  0  0  0  2  0  0  0  0  0  0
  -29.1890  -18.5930   19.6320 C   0  0  0  0  0  2  0  0  0  0  0  0
  -30.7760  -17.2710   20.8680 C   0  0  0  0  0  0  0  0  0  0  0  0
  -31.1650  -14.8830   20.4500 C   0  0  0  0  0  2  0  0  0  0  0  0
  -30.5100  -14.4870   19.1110 C   0  0  0  0  0  2  0  0  0  0  0  0
  -29.0310  -14.1000   19.3190 C   0  0  0  0  0  2  0  0  0  0  0  0
  -28.2470  -15.1400   20.1610 C   0  0  0  0  0  3  0  0  0  0  0  0
  -29.0340  -15.5380   21.4300 C   0  0  0  0  0  2  0  0  0  0  0  0
  -30.3770  -15.9830   21.0180 N   0  0  0  0  0  0  0  0  0  0  0  0
  -31.9200  -17.6090   20.5600 O   0  0  0  0  0  0  0  0  0  0  0  0
  -29.8020  -18.1840   20.8980 N   0  0  0  0  0  0  0  0  0  0  0  0
  -30.0950  -19.0010   21.4140 H   0  0  0  0  0  0  0  0  0  0  0  0
  -25.7250  -15.4060   20.5700 C   0  0  0  0  0  0  0  0  0  0  0  0
  -24.7320  -14.4910   20.7840 C   0  0  0  0  0  0  0  0  0  0  0  0
  -25.3770  -13.2180   20.8170 C   0  0  0  0  0  0  0  0  0  0  0  0
  -26.9010  -14.6800   20.4740 N   0  0  0  0  0  0  0  0  0  0  0  0
  -26.6900  -13.3580   20.6810 N   0  0  0  0  0  0  0  0  0  0  0  0
  -24.8200  -11.8690   20.9230 C   0  0  0  0  0  0  0  0  0  0  0  0
  -25.1260  -11.0250   22.0110 C   0  0  0  0  0  3  0  0  0  0  0  0
  -24.5580   -9.7340   22.0940 C   0  0  0  0  0  3  0  0  0  0  0  0
  -23.6750   -9.2820   21.0850 C   0  0  0  0  0  0  0  0  0  0  0  0
  -23.3940  -10.1210   19.9930 C   0  0  0  0  0  3  0  0  0  0  0  0
  -23.9630  -11.4020   19.9100 C   0  0  0  0  0  3  0  0  0  0  0  0
  -23.0970   -8.0350   21.0700 O   0  0  0  0  0  0  0  0  0  0  0  0
  -22.6490   -7.4390   22.2200 C   0  0  0  0  0  0  0  0  0  0  0  0
  -21.6720   -8.0410   23.0410 C   0  0  0  0  0  3  0  0  0  0  0  0
  -21.1830   -7.3570   24.1700 C   0  0  0  0  0  3  0  0  0  0  0  0
  -21.6660   -6.0700   24.4790 C   0  0  0  0  0  0  0  0  0  0  0  0
  -22.6370   -5.4680   23.6610 C   0  0  0  0  0  3  0  0  0  0  0  0
  -23.1240   -6.1490   22.5320 C   0  0  0  0  0  0  0  0  0  0  0  0
  -24.0430   -5.5520   21.7340 F   0  0  0  0  0  0  0  0  0  0  0  0
  -21.1910   -5.4100   25.5610 F   0  0  0  0  0  0  0  0  0  0  0  0
  -23.2640  -14.7780   20.8960 C   0  0  0  0  0  0  0  0  0  0  0  0
  -22.5450  -13.9820   21.6810 N   0  0  0  0  0  0  0  0  0  0  0  0
  -22.7600  -15.7470   20.3350 O   0  0  0  0  0  0  0  0  0  0  0  0
  -22.9710  -13.2050   22.1650 H   0  0  0  0  0  0  0  0  0  0  0  0
  -21.5580  -14.1570   21.8040 H   0  0  0  0  0  0  0  0  0  0  0  0
  -25.7220  -16.7900   20.4630 N   0  0  0  0  0  0  0  0  0  0  0  0
  -24.7680  -17.1200   20.5500 H   0  0  0  0  0  0  0  0  0  0  0  0
  -26.2550  -17.1320   21.2490 H   0  0  0  0  0  0  0  0  0  0  0  0
  1  5  1  0
  3  6  1  0
  3  1  2  0
  4  2  1  0
  5  2  2  0
  5  7  1  0
  6  4  2  0
  7  9  2  0
  8  7  1  0
  8 11  1  0
 10  8  1  0
 12 11  1  0
 13 12  1  0
 13 15  1  0
 14 13  1  0
 16 13  1  0
 17 16  1  0
 18 20  1  0
 18 17  1  0
 19 30  2  0
 20 25  1  0
 21 29  1  0
 21 31  1  0
 22 28  1  0
 22 24  1  0
 23 29  1  0
 24 23  1  0
 25 24  2  0
 26 27  1  0
 26 20  2  0
 27 22  2  0
 28 21  1  0
 29 19  1  0
 31 33  2  0
 32 31  1  0
 34 32  1  0
 35 44  2  0
 35 40  1  0
 36 32  1  0
 36 40  1  0
 37 36  1  0
 38 39  1  0
 38 37  1  0
 39 35  1  0
 40 41  2  0
 41 42  1  0
 43 42  2  0
 44 43  1  0
 45 19  1  0
 45 46  1  0
 45 55  1  0
 46 49  1  0
 47 46  1  0
 47 51  1  0
 48 47  2  0
 51 50  1  0
 51 53  1  0
 53 54  1  0
 53 52  1  0
 55 58  1  1
 55 56  1  0
 57 55  1  0
 59  6  1  0
 60 59  1  0
 61 60  1  0
 63 62  1  0
 63 65  1  0
 63 61  1  0
 65 64  1  0
 65 66  1  0
 66 68  1  0
 66 69  1  0
 67 66  1  0
 70 69  1  0
 70 79  1  0
 71 79  1  0
 71 77  1  0
 72 77  1  0
 73 74  1  0
 73 72  1  0
 75 74  1  0
 75 84  1  0
 75 76  1  0
 77 76  1  0
 78 71  2  0
 79 80  1  0
 81 82  2  0
 82 83  1  0
 82101  1  0
 83 86  1  0
 84 81  1  0
 84 85  1  0
 85 83  2  0
 86 87  1  0
 87 88  2  0
 89 88  1  0
 90 89  2  0
 91 90  1  0
 91 86  2  0
 92 89  1  0
 92 93  1  0
 93 98  2  0
 93 94  1  0
 94 95  2  0
 95 96  1  0
 96100  1  0
 97 96  2  0
 98 97  1  0
 99 98  1  0
101102  1  0
102105  1  0
102104  1  0
103101  2  0
106107  1  0
106 81  1  0
106108  1  0
M  ISO  4  17 101  18 101  71 100  79 100
M  END
>  <TORSDO>  (14) 
F 30

>  <SCORE>  (14) 
5.002

>  <name>  (14) 
13

>  <ligand_id>  (14) 
13

>  <original_smiles>  (14) 
[H]c1c([H])c([H])c2c(c1[H])C([H])([H])C([H])([H])C([H])([H])C2([H])N([H])C(=O)C1([H])N(C(=O)C([H])(N([H])C(=O)C([H])(N([H])C([H])([H])[H])C([H])([H])[H])C(C([H])([H])[H])(C([H])([H])[H])C([H])([H])[H])C([H])([H])c2c([H])c(OC([H])([H])C([H])([H])[N+]([H])([H])C([H])([H])C([H])([H])N([H])C(=O)c3c([H])c([H])c(C([H])([H])C([H])([H])C([H])([H])C([H])(C([H])([H])[H])C([H])(C([H])([H])[H])[N+]([H])([H])C([H])([H])C([H])([H])N([H])C(=O)N4C([H])([H])C([H])([H])C([H])([H])C([H])(n5nc(-c6c([H])c([H])c(Oc7c([H])c([H])c(F)c([H])c7F)c([H])c6[H])c(C(=O)N([H])[H])c5N([H])[H])C4([H])[H])c([H])c3[H])c([H])c([H])c2C1([H])[H]

>  <smiles>  (14) 
[H]c1c([H])c([H])c2c(c1[H])C([H])([H])C([H])([H])C([H])([H])C2([H])N([H])C(=O)C1([H])N(C(=O)C([H])(N([H])C(=O)C([H])(N([H])C([H])([H])[H])C([H])([H])[H])C(C([H])([H])[H])(C([H])([H])[H])C([H])([H])[H])C([H])([H])c2c([H])c(OC([H])([H])C([H])([H])[N+]([H])([H])C([H])([H])C([H])([H])N([H])C(=O)c3c([H])c([H])c(C([H])([H])C([H])([H])C([H])([H])C([H])(C([H])([H])[H])C([H])(C([H])([H])[H])[N+]([H])([H])C([H])([H])C([H])([H])N([H])C(=O)N4C([H])([H])C([H])([H])C([H])([H])C([H])(n5nc(-c6c([H])c([H])c(Oc7c([H])c([H])c(F)c([H])c7F)c([H])c6[H])c(C(=O)N([H])[H])c5N([H])[H])C4([H])[H])c([H])c3[H])c([H])c([H])c2C1([H])[H]

$$$$
14:0:0
     RDKit          3D

 99107  0  0  1  0  0  0  0  0999 V2000
  -33.2800  -22.8920   18.5860 C   0  0  0  0  0  2  0  0  0  0  0  0
  -32.8510  -20.5430   19.3070 C   0  0  0  0  0  0  0  0  0  0  0  0
  -32.5320  -21.6440   18.6200 N   0  0  0  0  0  0  0  0  0  0  0  0
  -33.8950  -20.4260   19.9510 O   0  0  0  0  0  0  0  0  0  0  0  0
  -31.6410  -21.6300   18.1440 H   0  0  0  0  0  0  0  0  0  0  0  0
  -29.8610  -18.3550   18.3190 C   0  0  0  0  0  3  0  0  0  0  0  0
  -30.8690  -19.3360   18.2660 C   0  0  0  0  0  3  0  0  0  0  0  0
  -29.7710  -17.4960   19.4310 C   0  0  0  0  0  3  0  0  0  0  0  0
  -31.6950  -18.6030   20.4370 C   0  0  0  0  0  3  0  0  0  0  0  0
  -31.7860  -19.4810   19.3340 C   0  0  0  0  0  0  0  0  0  0  0  0
  -30.6990  -17.6050   20.4920 C   0  0  0  0  0  0  0  0  0  0  0  0
  -30.6560  -16.6640   21.6930 C   0  0  0  0  0  2  0  0  0  0  0  0
  -30.7370  -14.4240   20.6210 C   0  0  0  0  0  0  0  0  0  0  0  0
  -30.4090  -12.3370   19.3570 C   0  0  0  0  0  2  0  0  0  0  0  0
  -29.4880  -12.5910   18.1490 C   0  0  0  0  0  2  0  0  0  0  0  0
  -28.0060  -12.4530   18.5510 C   0  0  0  0  0  2  0  0  0  0  0  0
  -27.6560  -13.2630   19.8270 C   0  0  0  0  0  3  0  0  0  0  0  0
  -28.6870  -12.9890   20.9440 C   0  0  0  0  0  2  0  0  0  0  0  0
  -30.0300  -13.2840   20.4140 N   0  0  0  0  0  0  0  0  0  0  0  0
  -31.8230  -14.6550   20.0840 O   0  0  0  0  0  0  0  0  0  0  0  0
  -30.1390  -15.3280   21.4030 N   0  0  0  0  0  0  0  0  0  0  0  0
  -29.2520  -15.0760   21.8090 H   0  0  0  0  0  0  0  0  0  0  0  0
  -25.2380  -13.8710   20.4720 C   0  0  0  0  0  0  0  0  0  0  0  0
  -24.1650  -13.0980   20.8270 C   0  0  0  0  0  0  0  0  0  0  0  0
  -24.6310  -11.7480   20.8200 C   0  0  0  0  0  0  0  0  0  0  0  0
  -26.2910  -12.9920   20.2750 N   0  0  0  0  0  0  0  0  0  0  0  0
  -25.9270  -11.7110   20.5400 N   0  0  0  0  0  0  0  0  0  0  0  0
  -23.9060  -10.4850   21.0080 C   0  0  0  0  0  0  0  0  0  0  0  0
  -24.3150   -9.5370   21.9720 C   0  0  0  0  0  3  0  0  0  0  0  0
  -23.5920   -8.3380   22.1490 C   0  0  0  0  0  3  0  0  0  0  0  0
  -22.4470   -8.0780   21.3600 C   0  0  0  0  0  0  0  0  0  0  0  0
  -22.0590   -9.0130   20.3850 C   0  0  0  0  0  3  0  0  0  0  0  0
  -22.7820  -10.2040   20.2070 C   0  0  0  0  0  3  0  0  0  0  0  0
  -21.7010   -6.9270   21.4400 O   0  0  0  0  0  0  0  0  0  0  0  0
  -21.6050   -6.2100   22.6060 C   0  0  0  0  0  0  0  0  0  0  0  0
  -21.1140   -6.7870   23.7970 C   0  0  0  0  0  3  0  0  0  0  0  0
  -20.9680   -5.9960   24.9550 C   0  0  0  0  0  3  0  0  0  0  0  0
  -21.3020   -4.6300   24.9200 C   0  0  0  0  0  0  0  0  0  0  0  0
  -21.7860   -4.0520   23.7330 C   0  0  0  0  0  3  0  0  0  0  0  0
  -21.9340   -4.8400   22.5790 C   0  0  0  0  0  0  0  0  0  0  0  0
  -22.3800   -4.2730   21.4320 F   0  0  0  0  0  0  0  0  0  0  0  0
  -21.1570   -3.8680   26.0300 F   0  0  0  0  0  0  0  0  0  0  0  0
  -22.7590  -13.5730   21.0650 C   0  0  0  0  0  0  0  0  0  0  0  0
  -22.0140  -12.8800   21.9210 N   0  0  0  0  0  0  0  0  0  0  0  0
  -22.3280  -14.5920   20.5300 O   0  0  0  0  0  0  0  0  0  0  0  0
  -22.3750  -12.0540   22.3760 H   0  0  0  0  0  0  0  0  0  0  0  0
  -21.0710  -13.1780   22.1210 H   0  0  0  0  0  0  0  0  0  0  0  0
  -25.4020  -15.2410   20.2830 N   0  0  0  0  0  0  0  0  0  0  0  0
  -24.6330  -15.8960   20.3690 H   0  0  0  0  0  0  0  0  0  0  0  0
  -26.2610  -15.6780   19.9740 H   0  0  0  0  0  0  0  0  0  0  0  0
  -32.8450  -23.7980   19.7490 C   0  0  0  0  0  2  0  0  0  0  0  0
  -33.2680  -25.2640   19.5620 C   0  0  0  0  0  2  0  0  0  0  0  0
  -32.8540  -26.2070   20.7110 C   0  0  0  0  0  2  0  0  0  0  0  0
  -31.4600  -26.7060   20.6210 N   0  0  0  0  0  4  0  0  0  0  0  0
  -31.2350  -26.9360   19.6650 H   0  0  0  0  0  0  0  0  0  0  0  0
  -31.4450  -27.5750   21.1340 H   0  0  0  0  0  0  0  0  0  0  0  0
  -30.4090  -25.8350   21.2050 C   0  0  0  0  0  2  0  0  0  0  0  0
  -29.0930  -26.5960   21.4060 C   0  0  0  0  0  2  0  0  0  0  0  0
  -28.4640  -26.7810   20.1390 O   0  0  0  0  0  0  0  0  0  0  0  0
  -24.6070  -31.9060   23.2300 C   0  0  0  0  0  0  0  0  0  0  0  0
  -27.2990  -27.5080   20.1750 C   0  0  0  0  0  0  0  0  0  0  0  0
  -23.4070  -30.4860   21.5930 C   0  0  0  0  0  3  0  0  0  0  0  0
  -24.8760  -28.9520   20.1780 C   0  0  0  0  0  0  0  0  0  0  0  0
  -25.9230  -30.8770   21.3890 C   0  0  0  0  0  2  0  0  0  0  0  0
  -26.0210  -29.5040   20.7630 C   0  0  0  0  0  0  0  0  0  0  0  0
  -27.2350  -28.7890   20.7640 C   0  0  0  0  0  3  0  0  0  0  0  0
  -26.1430  -26.9650   19.5760 C   0  0  0  0  0  3  0  0  0  0  0  0
  -24.9270  -27.6770   19.5850 C   0  0  0  0  0  3  0  0  0  0  0  0
  -23.6220  -29.7940   20.2190 C   0  0  0  0  0  2  0  0  0  0  0  0
  -24.6640  -31.1030   22.1300 N   0  0  0  0  0  0  0  0  0  0  0  0
  -23.5260  -32.1710   23.7720 O   0  0  0  0  0  0  0  0  0  0  0  0
  -22.7670  -29.4660   22.5590 C   0  0  0  0  0  0  0  0  0  0  0  0
  -21.4450  -29.2710   22.4290 N   0  0  0  0  0  0  0  0  0  0  0  0
  -23.4550  -28.8510   23.3790 O   0  0  0  0  0  0  0  0  0  0  0  0
  -20.9520  -29.8170   21.7350 H   0  0  0  0  0  0  0  0  0  0  0  0
  -18.0780  -28.0630   22.9230 C   0  0  0  0  0  0  0  0  0  0  0  0
  -20.6340  -28.3330   23.2030 C   0  0  0  0  0  3  0  0  0  0  0  0
  -20.7470  -26.9010   22.6320 C   0  0  0  0  0  2  0  0  0  0  0  0
  -19.6490  -26.5680   21.6180 C   0  0  0  0  0  2  0  0  0  0  0  0
  -18.2650  -26.7100   22.2560 C   0  0  0  0  0  2  0  0  0  0  0  0
  -19.1920  -28.8320   23.3540 C   0  0  0  0  0  0  0  0  0  0  0  0
  -18.9660  -30.0970   23.9360 C   0  0  0  0  0  3  0  0  0  0  0  0
  -17.6600  -30.5950   24.0930 C   0  0  0  0  0  3  0  0  0  0  0  0
  -16.5600  -29.8230   23.6800 C   0  0  0  0  0  3  0  0  0  0  0  0
  -16.7700  -28.5590   23.1010 C   0  0  0  0  0  3  0  0  0  0  0  0
  -25.8910  -32.5450   23.8450 C   0  0  0  0  0  3  0  0  0  0  0  0
  -26.4220  -31.7750   25.1160 C   0  0  1  0  0  0  0  0  0  0  0  0
  -25.3360  -31.5280   26.1890 C   0  0  0  0  0  1  0  0  0  0  0  0
  -27.0130  -30.4030   24.7150 C   0  0  0  0  0  1  0  0  0  0  0  0
  -27.5690  -32.5790   25.7740 C   0  0  0  0  0  1  0  0  0  0  0  0
  -25.5770  -33.9400   24.1740 N   0  0  0  0  0  0  0  0  0  0  0  0
  -25.9110  -34.9920   23.4150 C   0  0  0  0  0  0  0  0  0  0  0  0
  -26.5860  -34.8900   22.3850 O   0  0  0  0  0  0  0  0  0  0  0  0
  -24.9780  -34.0930   24.9710 H   0  0  0  0  0  0  0  0  0  0  0  0
  -24.1850  -36.7790   23.0350 C   0  0  0  0  0  1  0  0  0  0  0  0
  -25.4130  -36.3780   23.8670 C   0  0  0  0  0  3  0  0  0  0  0  0
  -27.5320  -37.2620   24.7350 C   0  0  0  0  0  1  0  0  0  0  0  0
  -26.4460  -37.4320   23.7730 N   0  0  0  0  0  0  0  0  0  0  0  0
  -26.0360  -38.3510   23.9160 H   0  0  0  0  0  0  0  0  0  0  0  0
  1  3  1  0
  1 51  1  0
  2 10  1  0
  2  4  2  0
  3  2  1  0
  5  3  1  0
  6  8  1  0
  7  6  2  0
  7 10  1  0
  8 11  2  0
  9 11  1  0
 10  9  2  0
 11 12  1  0
 13 21  1  0
 14 19  1  0
 15 16  1  0
 15 14  1  0
 17 16  1  0
 17 26  1  0
 17 18  1  0
 19 13  1  0
 19 18  1  0
 20 13  2  0
 21 12  1  0
 21 22  1  0
 23 24  2  0
 24 43  1  0
 25 24  1  0
 25 28  1  0
 26 23  1  0
 26 27  1  0
 27 25  2  0
 28 29  1  0
 29 30  2  0
 31 34  1  0
 31 30  1  0
 32 31  2  0
 33 32  1  0
 33 28  2  0
 34 35  1  0
 35 36  1  0
 36 37  2  0
 38 37  1  0
 38 42  1  0
 39 38  2  0
 40 35  2  0
 40 39  1  0
 41 40  1  0
 43 44  1  0
 44 47  1  0
 44 46  1  0
 45 43  2  0
 48 49  1  0
 48 23  1  0
 50 48  1  0
 52 51  1  0
 52 53  1  0
 54 53  1  0
 54 56  1  0
 54 57  1  0
 55 54  1  0
 57 58  1  0
 59 61  1  0
 59 58  1  0
 60 71  2  0
 61 66  1  0
 62 70  1  0
 62 72  1  0
 63 69  1  0
 63 65  1  0
 64 70  1  0
 65 66  2  0
 65 64  1  0
 67 68  1  0
 67 61  2  0
 68 63  2  0
 69 62  1  0
 70 60  1  0
 72 74  2  0
 73 72  1  0
 75 73  1  0
 76 85  2  0
 76 81  1  0
 77 73  1  0
 77 81  1  0
 78 77  1  0
 79 80  1  0
 79 78  1  0
 80 76  1  0
 81 82  2  0
 82 83  1  0
 84 83  2  0
 85 84  1  0
 86 60  1  0
 86 91  1  0
 86 87  1  0
 87 90  1  1
 87 88  1  0
 89 87  1  0
 91 94  1  0
 92 96  1  0
 92 91  1  0
 93 92  2  0
 96 95  1  0
 98 96  1  0
 98 99  1  0
 98 97  1  0
M  ISO  4  13 100  21 100  58 101  59 101
M  END
>  <TORSDO>  (15) 
F 25

>  <SCORE>  (15) 
-12.343

>  <name>  (15) 
14

>  <ligand_id>  (15) 
14

>  <original_smiles>  (15) 
[H]c1c([H])c(C(=O)N([H])C([H])([H])C([H])([H])C([H])([H])C([H])([H])[N+]([H])([H])C([H])([H])C([H])([H])Oc2c([H])c([H])c3c(c2[H])C([H])([H])N(C(=O)C([H])(N([H])C(=O)C([H])(N([H])C([H])([H])[H])C([H])([H])[H])C(C([H])([H])[H])(C([H])([H])[H])C([H])([H])[H])C([H])(C(=O)N([H])C2([H])c4c([H])c([H])c([H])c([H])c4C([H])([H])C([H])([H])C2([H])[H])C3([H])[H])c([H])c(C([H])([H])N([H])C(=O)N2C([H])([H])C([H])([H])C([H])([H])C([H])(n3nc(-c4c([H])c([H])c(Oc5c([H])c([H])c(F)c([H])c5F)c([H])c4[H])c(C(=O)N([H])[H])c3N([H])[H])C2([H])[H])c1[H]

>  <smiles>  (15) 
[H]c1c([H])c(C(=O)N([H])C([H])([H])C([H])([H])C([H])([H])C([H])([H])[N+]([H])([H])C([H])([H])C([H])([H])Oc2c([H])c([H])c3c(c2[H])C([H])([H])N(C(=O)C([H])(N([H])C(=O)C([H])(N([H])C([H])([H])[H])C([H])([H])[H])C(C([H])([H])[H])(C([H])([H])[H])C([H])([H])[H])C([H])(C(=O)N([H])C2([H])c4c([H])c([H])c([H])c([H])c4C([H])([H])C([H])([H])C2([H])[H])C3([H])[H])c([H])c(C([H])([H])N([H])C(=O)N2C([H])([H])C([H])([H])C([H])([H])C([H])(n3nc(-c4c([H])c([H])c(Oc5c([H])c([H])c(F)c([H])c5F)c([H])c4[H])c(C(=O)N([H])[H])c3N([H])[H])C2([H])[H])c1[H]

$$$$
15:0:0
     RDKit          3D

100108  0  0  1  0  0  0  0  0999 V2000
  -29.8320  -22.8850   23.4050 C   0  0  0  0  0  3  0  0  0  0  0  0
  -30.2590  -21.6420   22.9070 C   0  0  0  0  0  3  0  0  0  0  0  0
  -30.0950  -23.8390   21.2030 C   0  0  0  0  0  3  0  0  0  0  0  0
  -29.7450  -24.0000   22.5580 C   0  0  0  0  0  0  0  0  0  0  0  0
  -30.6390  -21.4420   21.5490 C   0  0  0  0  0  0  0  0  0  0  0  0
  -30.4950  -22.5830   20.6960 C   0  0  0  0  0  0  0  0  0  0  0  0
  -30.8090  -22.5470   19.2100 C   0  0  0  0  0  1  0  0  0  0  0  0
  -29.3980  -25.3470   23.1350 C   0  0  0  0  0  0  0  0  0  0  0  0
  -28.4580  -26.1000   22.5380 N   0  0  0  0  0  0  0  0  0  0  0  0
  -29.9690  -25.7300   24.1570 O   0  0  0  0  0  0  0  0  0  0  0  0
  -28.2720  -26.9970   22.9700 H   0  0  0  0  0  0  0  0  0  0  0  0
  -27.5220  -25.6970   21.4940 C   0  0  0  0  0  2  0  0  0  0  0  0
  -27.9870  -26.1520   20.0970 C   0  0  0  0  0  2  0  0  0  0  0  0
  -26.8910  -26.2310   19.1860 O   0  0  0  0  0  0  0  0  0  0  0  0
  -24.3510  -31.5610   23.1840 C   0  0  0  0  0  0  0  0  0  0  0  0
  -25.8890  -27.1390   19.4530 C   0  0  0  0  0  0  0  0  0  0  0  0
  -22.7310  -30.4930   21.6460 C   0  0  0  0  0  3  0  0  0  0  0  0
  -23.7340  -28.9090   19.9150 C   0  0  0  0  0  0  0  0  0  0  0  0
  -25.2210  -30.5430   21.0870 C   0  0  0  0  0  2  0  0  0  0  0  0
  -25.0200  -29.2330   20.3630 C   0  0  0  0  0  0  0  0  0  0  0  0
  -26.0970  -28.3580   20.1350 C   0  0  0  0  0  3  0  0  0  0  0  0
  -24.5930  -26.8270   18.9950 C   0  0  0  0  0  3  0  0  0  0  0  0
  -23.5110  -27.7000   19.2320 C   0  0  0  0  0  3  0  0  0  0  0  0
  -22.6420  -29.9140   20.2080 C   0  0  0  0  0  2  0  0  0  0  0  0
  -24.1290  -30.8720   22.0290 N   0  0  0  0  0  0  0  0  0  0  0  0
  -23.4100  -31.9240   23.9040 O   0  0  0  0  0  0  0  0  0  0  0  0
  -22.0810  -29.4840   22.6200 C   0  0  0  0  0  0  0  0  0  0  0  0
  -20.7450  -29.3700   22.5540 N   0  0  0  0  0  0  0  0  0  0  0  0
  -22.7720  -28.8100   23.3880 O   0  0  0  0  0  0  0  0  0  0  0  0
  -20.2510  -29.9630   21.9010 H   0  0  0  0  0  0  0  0  0  0  0  0
  -17.3620  -28.2200   23.0650 C   0  0  0  0  0  0  0  0  0  0  0  0
  -19.9180  -28.4580   23.3460 C   0  0  0  0  0  3  0  0  0  0  0  0
  -20.0120  -27.0120   22.8060 C   0  0  0  0  0  2  0  0  0  0  0  0
  -18.9130  -26.6750   21.7940 C   0  0  0  0  0  2  0  0  0  0  0  0
  -17.5290  -26.8510   22.4260 C   0  0  0  0  0  2  0  0  0  0  0  0
  -18.4840  -28.9830   23.4810 C   0  0  0  0  0  0  0  0  0  0  0  0
  -18.2760  -30.2640   24.0360 C   0  0  0  0  0  3  0  0  0  0  0  0
  -16.9740  -30.7830   24.1800 C   0  0  0  0  0  3  0  0  0  0  0  0
  -15.8650  -30.0180   23.7810 C   0  0  0  0  0  3  0  0  0  0  0  0
  -16.0580  -28.7390   23.2290 C   0  0  0  0  0  3  0  0  0  0  0  0
  -25.7930  -31.9480   23.6450 C   0  0  0  0  0  3  0  0  0  0  0  0
  -25.7470  -33.3370   24.1220 N   0  0  0  0  0  0  0  0  0  0  0  0
  -26.1820  -34.3940   23.4230 C   0  0  0  0  0  0  0  0  0  0  0  0
  -26.7380  -34.2920   22.3270 O   0  0  0  0  0  0  0  0  0  0  0  0
  -25.2540  -33.4990   24.9880 H   0  0  0  0  0  0  0  0  0  0  0  0
  -24.7600  -36.4660   23.3700 C   0  0  0  0  0  1  0  0  0  0  0  0
  -25.9660  -35.7880   24.0400 C   0  0  0  0  0  3  0  0  0  0  0  0
  -28.2630  -36.2340   24.7810 C   0  0  0  0  0  1  0  0  0  0  0  0
  -27.1520  -36.6670   23.9390 N   0  0  0  0  0  0  0  0  0  0  0  0
  -26.9150  -37.6220   24.1930 H   0  0  0  0  0  0  0  0  0  0  0  0
  -26.3720  -30.9900   24.7570 C   0  0  1  0  0  0  0  0  0  0  0  0
  -25.4230  -30.7960   25.9620 C   0  0  0  0  0  1  0  0  0  0  0  0
  -26.6790  -29.5940   24.1650 C   0  0  0  0  0  1  0  0  0  0  0  0
  -27.7110  -31.5510   25.2860 C   0  0  0  0  0  1  0  0  0  0  0  0
  -31.1380  -20.0770   21.0870 C   0  0  0  0  0  3  0  0  0  0  0  0
  -30.8790  -19.0030   22.0780 N   0  0  0  0  0  4  0  0  0  0  0  0
  -30.4170  -19.4340   22.8540 H   0  0  0  0  0  0  0  0  0  0  0  0
  -31.7970  -18.7040   22.3730 H   0  0  0  0  0  0  0  0  0  0  0  0
  -30.0710  -17.8360   21.6600 C   0  0  0  0  0  2  0  0  0  0  0  0
  -30.9660  -16.6080   21.4240 C   0  0  0  0  0  2  0  0  0  0  0  0
  -30.8150  -14.3210   20.5640 C   0  0  0  0  0  0  0  0  0  0  0  0
  -30.4020  -12.1930   19.4230 C   0  0  0  0  0  2  0  0  0  0  0  0
  -29.4630  -12.4210   18.2240 C   0  0  0  0  0  2  0  0  0  0  0  0
  -27.9960  -12.3050   18.6630 C   0  0  0  0  0  2  0  0  0  0  0  0
  -27.6710  -13.1480   19.9240 C   0  0  0  0  0  3  0  0  0  0  0  0
  -28.7380  -12.9620   21.0250 C   0  0  0  0  0  2  0  0  0  0  0  0
  -30.0590  -13.2030   20.4280 N   0  0  0  0  0  0  0  0  0  0  0  0
  -31.9560  -14.4240   20.1230 O   0  0  0  0  0  0  0  0  0  0  0  0
  -30.2190  -15.3950   21.0920 N   0  0  0  0  0  0  0  0  0  0  0  0
  -29.2440  -15.3380   21.3220 H   0  0  0  0  0  0  0  0  0  0  0  0
  -25.2850  -13.7450   20.6720 C   0  0  0  0  0  0  0  0  0  0  0  0
  -24.2130  -12.9710   21.0290 C   0  0  0  0  0  0  0  0  0  0  0  0
  -24.6700  -11.6190   20.9670 C   0  0  0  0  0  0  0  0  0  0  0  0
  -26.3220  -12.8670   20.4170 N   0  0  0  0  0  0  0  0  0  0  0  0
  -25.9610  -11.5800   20.6600 N   0  0  0  0  0  0  0  0  0  0  0  0
  -23.9370  -10.3560   21.1240 C   0  0  0  0  0  0  0  0  0  0  0  0
  -24.3550   -9.3700   22.0460 C   0  0  0  0  0  3  0  0  0  0  0  0
  -23.6250   -8.1710   22.1940 C   0  0  0  0  0  3  0  0  0  0  0  0
  -22.4590   -7.9500   21.4240 C   0  0  0  0  0  0  0  0  0  0  0  0
  -22.0620   -8.9210   20.4880 C   0  0  0  0  0  3  0  0  0  0  0  0
  -22.7920  -10.1130   20.3380 C   0  0  0  0  0  3  0  0  0  0  0  0
  -21.7020   -6.8070   21.4840 O   0  0  0  0  0  0  0  0  0  0  0  0
  -21.6200   -6.0560   22.6300 C   0  0  0  0  0  0  0  0  0  0  0  0
  -21.1090   -6.5880   23.8310 C   0  0  0  0  0  3  0  0  0  0  0  0
  -20.9770   -5.7640   24.9660 C   0  0  0  0  0  3  0  0  0  0  0  0
  -21.3410   -4.4050   24.8980 C   0  0  0  0  0  0  0  0  0  0  0  0
  -21.8420   -3.8720   23.6980 C   0  0  0  0  0  3  0  0  0  0  0  0
  -21.9760   -4.6930   22.5650 C   0  0  0  0  0  0  0  0  0  0  0  0
  -22.4430   -4.1680   21.4070 F   0  0  0  0  0  0  0  0  0  0  0  0
  -21.2050   -3.6130   25.9850 F   0  0  0  0  0  0  0  0  0  0  0  0
  -22.8190  -13.4460   21.3110 C   0  0  0  0  0  0  0  0  0  0  0  0
  -22.0930  -12.7330   22.1650 N   0  0  0  0  0  0  0  0  0  0  0  0
  -22.3790  -14.4820   20.8130 O   0  0  0  0  0  0  0  0  0  0  0  0
  -22.4620  -11.8960   22.5930 H   0  0  0  0  0  0  0  0  0  0  0  0
  -21.1560  -13.0320   22.3970 H   0  0  0  0  0  0  0  0  0  0  0  0
  -25.4510  -15.1160   20.5270 N   0  0  0  0  0  0  0  0  0  0  0  0
  -24.6950  -15.7760   20.6710 H   0  0  0  0  0  0  0  0  0  0  0  0
  -26.2990  -15.5640   20.2040 H   0  0  0  0  0  0  0  0  0  0  0  0
  -32.6690  -20.1870   21.0320 C   0  0  0  0  0  3  0  0  0  0  0  0
  -33.4540  -19.3650   21.5260 O   0  0  0  0  0  0  0  0  0  0  0  0
  2  1  1  0
  3  4  1  0
  4  8  1  0
  4  1  2  0
  5  2  2  0
  6  3  2  0
  6  5  1  0
  7  6  1  0
  8 10  2  0
  9 11  1  0
  9  8  1  0
 12  9  1  0
 13 12  1  0
 14 16  1  0
 14 13  1  0
 15 26  2  0
 16 21  1  0
 17 25  1  0
 17 27  1  0
 18 24  1  0
 18 20  1  0
 19 25  1  0
 20 19  1  0
 21 20  2  0
 22 23  1  0
 22 16  2  0
 23 18  2  0
 24 17  1  0
 25 15  1  0
 27 29  2  0
 28 27  1  0
 30 28  1  0
 31 40  2  0
 31 36  1  0
 32 28  1  0
 32 36  1  0
 33 32  1  0
 34 35  1  0
 34 33  1  0
 35 31  1  0
 36 37  2  0
 37 38  1  0
 39 38  2  0
 40 39  1  0
 41 15  1  0
 41 42  1  0
 41 51  1  0
 42 45  1  0
 43 47  1  0
 43 42  1  0
 44 43  2  0
 47 46  1  0
 49 47  1  0
 49 50  1  0
 49 48  1  0
 51 54  1  1
 51 52  1  0
 53 51  1  0
 55 99  1  0
 55  5  1  0
 55 56  1  0
 56 58  1  0
 56 57  1  0
 59 56  1  0
 60 59  1  0
 61 69  1  0
 62 67  1  0
 63 64  1  0
 63 62  1  0
 65 64  1  0
 65 74  1  0
 65 66  1  0
 67 61  1  0
 67 66  1  0
 68 61  2  0
 69 70  1  0
 69 60  1  0
 71 72  2  0
 72 91  1  0
 73 72  1  0
 73 76  1  0
 74 75  1  0
 74 71  1  0
 75 73  2  0
 76 77  1  0
 77 78  2  0
 79 82  1  0
 79 78  1  0
 80 79  2  0
 81 80  1  0
 81 76  2  0
 82 83  1  0
 83 84  1  0
 84 85  2  0
 86 85  1  0
 86 90  1  0
 87 86  2  0
 88 83  2  0
 88 87  1  0
 89 88  1  0
 91 92  1  0
 92 95  1  0
 92 94  1  0
 93 91  2  0
 96 97  1  0
 96 71  1  0
 98 96  1  0
 99100  2  0
M  ISO  4  13 101  14 101  61 100  69 100
M  END
>  <TORSDO>  (16) 
F 24

>  <SCORE>  (16) 
-11.397

>  <name>  (16) 
15

>  <ligand_id>  (16) 
15

>  <original_smiles>  (16) 
[H]C(=O)C([H])(c1c([H])c([H])c(C(=O)N([H])C([H])([H])C([H])([H])Oc2c([H])c([H])c3c(c2[H])C([H])([H])N(C(=O)C([H])(N([H])C(=O)C([H])(N([H])C([H])([H])[H])C([H])([H])[H])C(C([H])([H])[H])(C([H])([H])[H])C([H])([H])[H])C([H])(C(=O)N([H])C2([H])c4c([H])c([H])c([H])c([H])c4C([H])([H])C([H])([H])C2([H])[H])C3([H])[H])c([H])c1C([H])([H])[H])[N+]([H])([H])C([H])([H])C([H])([H])N([H])C(=O)N1C([H])([H])C([H])([H])C([H])([H])C([H])(n2nc(-c3c([H])c([H])c(Oc4c([H])c([H])c(F)c([H])c4F)c([H])c3[H])c(C(=O)N([H])[H])c2N([H])[H])C1([H])[H]

>  <smiles>  (16) 
[H]C(=O)C([H])(c1c([H])c([H])c(C(=O)N([H])C([H])([H])C([H])([H])Oc2c([H])c([H])c3c(c2[H])C([H])([H])N(C(=O)C([H])(N([H])C(=O)C([H])(N([H])C([H])([H])[H])C([H])([H])[H])C(C([H])([H])[H])(C([H])([H])[H])C([H])([H])[H])C([H])(C(=O)N([H])C2([H])c4c([H])c([H])c([H])c([H])c4C([H])([H])C([H])([H])C2([H])[H])C3([H])[H])c([H])c1C([H])([H])[H])[N+]([H])([H])C([H])([H])C([H])([H])N([H])C(=O)N1C([H])([H])C([H])([H])C([H])([H])C([H])(n2nc(-c3c([H])c([H])c(Oc4c([H])c([H])c(F)c([H])c4F)c([H])c3[H])c(C(=O)N([H])[H])c2N([H])[H])C1([H])[H]

$$$$
16:0:0
     RDKit          3D

 95103  0  0  1  0  0  0  0  0999 V2000
  -29.6790  -21.8380   20.7800 C   0  0  0  0  0  3  0  0  0  0  0  0
  -30.0020  -22.8850   18.6170 C   0  0  0  0  0  3  0  0  0  0  0  0
  -29.5650  -22.9920   19.9540 C   0  0  0  0  0  0  0  0  0  0  0  0
  -30.1910  -20.5960   20.3040 C   0  0  0  0  0  0  0  0  0  0  0  0
  -30.5680  -21.6870   18.1330 C   0  0  0  0  0  0  0  0  0  0  0  0
  -30.6830  -20.5490   18.9690 C   0  0  0  0  0  0  0  0  0  0  0  0
  -31.1040  -21.6430   16.7110 C   0  0  0  0  0  1  0  0  0  0  0  0
  -29.0610  -24.3030   20.5180 C   0  0  0  0  0  0  0  0  0  0  0  0
  -29.0540  -24.5250   21.7330 O   0  0  0  0  0  0  0  0  0  0  0  0
  -28.4950  -25.3760   19.5470 C   0  0  0  0  0  2  0  0  0  0  0  0
  -28.3530  -26.6760   20.1800 O   0  0  0  0  0  0  0  0  0  0  0  0
  -24.5580  -31.8940   23.2190 C   0  0  0  0  0  0  0  0  0  0  0  0
  -27.1600  -27.3870   20.1490 C   0  0  0  0  0  0  0  0  0  0  0  0
  -23.3320  -30.4820   21.6020 C   0  0  0  0  0  3  0  0  0  0  0  0
  -24.7660  -28.9260   20.1750 C   0  0  0  0  0  0  0  0  0  0  0  0
  -25.8610  -30.8200   21.3840 C   0  0  0  0  0  2  0  0  0  0  0  0
  -25.9340  -29.4420   20.7500 C   0  0  0  0  0  0  0  0  0  0  0  0
  -27.1270  -28.6790   20.7350 C   0  0  0  0  0  3  0  0  0  0  0  0
  -25.9650  -26.8930   19.5710 C   0  0  0  0  0  3  0  0  0  0  0  0
  -24.7790  -27.6520   19.5850 C   0  0  0  0  0  3  0  0  0  0  0  0
  -23.5280  -29.7920   20.2260 C   0  0  0  0  0  2  0  0  0  0  0  0
  -24.6010  -31.0830   22.1250 N   0  0  0  0  0  0  0  0  0  0  0  0
  -23.4830  -32.1770   23.7660 O   0  0  0  0  0  0  0  0  0  0  0  0
  -22.6860  -29.4710   22.5770 C   0  0  0  0  0  0  0  0  0  0  0  0
  -21.3650  -29.2660   22.4430 N   0  0  0  0  0  0  0  0  0  0  0  0
  -23.3700  -28.8730   23.4120 O   0  0  0  0  0  0  0  0  0  0  0  0
  -20.8720  -29.8040   21.7430 H   0  0  0  0  0  0  0  0  0  0  0  0
  -18.0050  -28.0230   22.9240 C   0  0  0  0  0  0  0  0  0  0  0  0
  -20.5540  -28.3320   23.2240 C   0  0  0  0  0  3  0  0  0  0  0  0
  -20.6900  -26.8890   22.6850 C   0  0  0  0  0  2  0  0  0  0  0  0
  -19.6080  -26.5230   21.6640 C   0  0  0  0  0  2  0  0  0  0  0  0
  -18.2150  -26.6610   22.2850 C   0  0  0  0  0  2  0  0  0  0  0  0
  -19.1050  -28.8140   23.3510 C   0  0  0  0  0  0  0  0  0  0  0  0
  -18.8560  -30.0880   23.9060 C   0  0  0  0  0  3  0  0  0  0  0  0
  -17.5410  -30.5710   24.0410 C   0  0  0  0  0  3  0  0  0  0  0  0
  -16.4560  -29.7770   23.6320 C   0  0  0  0  0  3  0  0  0  0  0  0
  -16.6890  -28.5060   23.0790 C   0  0  0  0  0  3  0  0  0  0  0  0
  -25.8520  -32.5270   23.8200 C   0  0  0  0  0  3  0  0  0  0  0  0
  -25.5500  -33.9260   24.1480 N   0  0  0  0  0  0  0  0  0  0  0  0
  -25.8850  -34.9750   23.3840 C   0  0  0  0  0  0  0  0  0  0  0  0
  -26.5530  -34.8660   22.3520 O   0  0  0  0  0  0  0  0  0  0  0  0
  -24.9590  -34.0870   24.9500 H   0  0  0  0  0  0  0  0  0  0  0  0
  -24.1750  -36.7810   23.0140 C   0  0  0  0  0  1  0  0  0  0  0  0
  -25.4040  -36.3660   23.8390 C   0  0  0  0  0  3  0  0  0  0  0  0
  -27.5320  -37.2360   24.7020 C   0  0  0  0  0  1  0  0  0  0  0  0
  -26.4470  -37.4120   23.7400 N   0  0  0  0  0  0  0  0  0  0  0  0
  -26.0450  -38.3350   23.8800 H   0  0  0  0  0  0  0  0  0  0  0  0
  -26.3870  -31.7600   25.0910 C   0  0  1  0  0  0  0  0  0  0  0  0
  -25.3070  -31.5200   26.1710 C   0  0  0  0  0  1  0  0  0  0  0  0
  -26.9700  -30.3830   24.6950 C   0  0  0  0  0  1  0  0  0  0  0  0
  -27.5420  -32.5580   25.7380 C   0  0  0  0  0  1  0  0  0  0  0  0
  -30.2690  -19.4380   21.2740 C   0  0  0  0  0  0  0  0  0  0  0  0
  -30.5930  -19.6060   22.4540 O   0  0  0  0  0  0  0  0  0  0  0  0
  -29.8560  -18.0090   20.8220 C   0  0  0  0  0  2  0  0  0  0  0  0
  -30.7670  -16.8570   21.3520 C   0  0  0  0  0  2  0  0  0  0  0  0
  -30.8850  -14.5210   20.3610 C   0  0  0  0  0  0  0  0  0  0  0  0
  -30.5430  -12.3910   19.1510 C   0  0  0  0  0  2  0  0  0  0  0  0
  -29.5800  -12.6060   17.9650 C   0  0  0  0  0  2  0  0  0  0  0  0
  -28.1130  -12.4710   18.4160 C   0  0  0  0  0  2  0  0  0  0  0  0
  -27.8010  -13.2970   19.6930 C   0  0  0  0  0  3  0  0  0  0  0  0
  -28.8710  -13.0550   20.7820 C   0  0  0  0  0  2  0  0  0  0  0  0
  -30.1910  -13.3620   20.2020 N   0  0  0  0  0  0  0  0  0  0  0  0
  -31.9830  -14.7180   19.8340 O   0  0  0  0  0  0  0  0  0  0  0  0
  -30.2600  -15.4960   21.0560 N   0  0  0  0  0  0  0  0  0  0  0  0
  -29.3660  -15.2440   21.4510 H   0  0  0  0  0  0  0  0  0  0  0  0
  -25.4110  -13.9110   20.4320 C   0  0  0  0  0  0  0  0  0  0  0  0
  -24.3450  -13.1440   20.8180 C   0  0  0  0  0  0  0  0  0  0  0  0
  -24.8000  -11.7900   20.7800 C   0  0  0  0  0  0  0  0  0  0  0  0
  -26.4510  -13.0280   20.1900 N   0  0  0  0  0  0  0  0  0  0  0  0
  -26.0870  -11.7470   20.4550 N   0  0  0  0  0  0  0  0  0  0  0  0
  -24.0700  -10.5310   20.9790 C   0  0  0  0  0  0  0  0  0  0  0  0
  -24.4920   -9.5780   21.9330 C   0  0  0  0  0  3  0  0  0  0  0  0
  -23.7630   -8.3830   22.1180 C   0  0  0  0  0  3  0  0  0  0  0  0
  -22.5980   -8.1350   21.3530 C   0  0  0  0  0  0  0  0  0  0  0  0
  -22.2000   -9.0750   20.3860 C   0  0  0  0  0  3  0  0  0  0  0  0
  -22.9290  -10.2620   20.1980 C   0  0  0  0  0  3  0  0  0  0  0  0
  -21.8410   -6.9920   21.4490 O   0  0  0  0  0  0  0  0  0  0  0  0
  -21.7520   -6.2840   22.6200 C   0  0  0  0  0  0  0  0  0  0  0  0
  -21.2490   -6.8620   23.8080 C   0  0  0  0  0  3  0  0  0  0  0  0
  -21.1130   -6.0770   24.9690 C   0  0  0  0  0  3  0  0  0  0  0  0
  -21.4680   -4.7140   24.9450 C   0  0  0  0  0  0  0  0  0  0  0  0
  -21.9620   -4.1360   23.7630 C   0  0  0  0  0  3  0  0  0  0  0  0
  -22.1010   -4.9180   22.6030 C   0  0  0  0  0  0  0  0  0  0  0  0
  -22.5590   -4.3510   21.4620 F   0  0  0  0  0  0  0  0  0  0  0  0
  -21.3270   -3.9590   26.0580 F   0  0  0  0  0  0  0  0  0  0  0  0
  -22.9540  -13.6260   21.1120 C   0  0  0  0  0  0  0  0  0  0  0  0
  -22.2340  -12.9280   21.9840 N   0  0  0  0  0  0  0  0  0  0  0  0
  -22.5150  -14.6550   20.6000 O   0  0  0  0  0  0  0  0  0  0  0  0
  -22.6030  -12.0960   22.4220 H   0  0  0  0  0  0  0  0  0  0  0  0
  -21.3010  -13.2320   22.2190 H   0  0  0  0  0  0  0  0  0  0  0  0
  -25.5780  -15.2810   20.2460 N   0  0  0  0  0  0  0  0  0  0  0  0
  -24.8080  -15.9330   20.3400 H   0  0  0  0  0  0  0  0  0  0  0  0
  -26.4220  -15.7150   19.8910 H   0  0  0  0  0  0  0  0  0  0  0  0
  -31.3240  -19.4550   18.4470 O   0  0  0  0  0  0  0  0  0  0  0  0
  -31.8270  -18.9430   19.0710 H   0  0  0  0  0  0  0  0  0  0  0  0
  2  3  1  0
  3  8  1  0
  3  1  2  0
  4  1  1  0
  4 52  1  0
  5  2  2  0
  5  6  1  0
  6  4  2  0
  7  5  1  0
  8  9  2  0
 10 11  1  0
 10  8  1  0
 12 23  2  0
 13 11  1  0
 13 18  1  0
 14 22  1  0
 14 24  1  0
 15 21  1  0
 15 17  1  0
 16 22  1  0
 17 16  1  0
 18 17  2  0
 19 20  1  0
 19 13  2  0
 20 15  2  0
 21 14  1  0
 22 12  1  0
 24 26  2  0
 25 24  1  0
 27 25  1  0
 28 37  2  0
 28 33  1  0
 29 25  1  0
 29 33  1  0
 30 29  1  0
 31 32  1  0
 31 30  1  0
 32 28  1  0
 33 34  2  0
 34 35  1  0
 36 35  2  0
 37 36  1  0
 38 12  1  0
 38 39  1  0
 38 48  1  0
 39 42  1  0
 40 44  1  0
 40 39  1  0
 41 40  2  0
 44 43  1  0
 46 44  1  0
 46 47  1  0
 46 45  1  0
 48 51  1  1
 48 49  1  0
 50 48  1  0
 52 53  2  0
 54 52  1  0
 54 55  1  0
 56 64  1  0
 57 62  1  0
 58 59  1  0
 58 57  1  0
 60 59  1  0
 60 69  1  0
 60 61  1  0
 62 56  1  0
 62 61  1  0
 63 56  2  0
 64 55  1  0
 64 65  1  0
 66 67  2  0
 67 86  1  0
 68 67  1  0
 68 71  1  0
 69 66  1  0
 69 70  1  0
 70 68  2  0
 71 72  1  0
 72 73  2  0
 74 77  1  0
 74 73  1  0
 75 74  2  0
 76 75  1  0
 76 71  2  0
 77 78  1  0
 78 79  1  0
 79 80  2  0
 81 80  1  0
 81 85  1  0
 82 81  2  0
 83 78  2  0
 83 82  1  0
 84 83  1  0
 86 87  1  0
 87 90  1  0
 87 89  1  0
 88 86  2  0
 91 92  1  0
 91 66  1  0
 93 91  1  0
 94  6  1  0
 94 95  1  0
M  ISO  4  10 101  11 101  56 100  64 100
M  END
>  <TORSDO>  (17) 
F 22

>  <SCORE>  (17) 
-13.312

>  <name>  (17) 
16

>  <ligand_id>  (17) 
16

>  <original_smiles>  (17) 
[H]Oc1c(C(=O)C([H])([H])C([H])([H])N([H])C(=O)N2C([H])([H])C([H])([H])C([H])([H])C([H])(n3nc(-c4c([H])c([H])c(Oc5c([H])c([H])c(F)c([H])c5F)c([H])c4[H])c(C(=O)N([H])[H])c3N([H])[H])C2([H])[H])c([H])c(C(=O)C([H])([H])Oc2c([H])c([H])c3c(c2[H])C([H])([H])N(C(=O)C([H])(N([H])C(=O)C([H])(N([H])C([H])([H])[H])C([H])([H])[H])C(C([H])([H])[H])(C([H])([H])[H])C([H])([H])[H])C([H])(C(=O)N([H])C2([H])c4c([H])c([H])c([H])c([H])c4C([H])([H])C([H])([H])C2([H])[H])C3([H])[H])c([H])c1C([H])([H])[H]

>  <smiles>  (17) 
[H]Oc1c(C(=O)C([H])([H])C([H])([H])N([H])C(=O)N2C([H])([H])C([H])([H])C([H])([H])C([H])(n3nc(-c4c([H])c([H])c(Oc5c([H])c([H])c(F)c([H])c5F)c([H])c4[H])c(C(=O)N([H])[H])c3N([H])[H])C2([H])[H])c([H])c(C(=O)C([H])([H])Oc2c([H])c([H])c3c(c2[H])C([H])([H])N(C(=O)C([H])(N([H])C(=O)C([H])(N([H])C([H])([H])[H])C([H])([H])[H])C(C([H])([H])[H])(C([H])([H])[H])C([H])([H])[H])C([H])(C(=O)N([H])C2([H])c4c([H])c([H])c([H])c([H])c4C([H])([H])C([H])([H])C2([H])[H])C3([H])[H])c([H])c1C([H])([H])[H]

$$$$
17:0:0
     RDKit          3D

103109  0  0  1  0  0  0  0  0999 V2000
  -32.1410  -19.1210   21.7290 C   0  0  0  0  0  0  0  0  0  0  0  0
  -32.4550  -20.0010   20.7480 N   0  0  0  0  0  0  0  0  0  0  0  0
  -32.1740  -19.3960   22.9270 O   0  0  0  0  0  0  0  0  0  0  0  0
  -32.4050  -19.5460   19.8490 H   0  0  0  0  0  0  0  0  0  0  0  0
  -29.5830  -17.8650   21.8900 C   0  0  2  0  0  0  0  0  0  0  0  0
  -31.7240  -17.4010   19.2900 C   0  0  0  0  0 15  0  0  0  0  0  0
  -28.0700  -17.4110   20.7430 C   0  0  0  0  0  2  0  0  0  0  0  0
  -30.2110  -16.8760   18.1410 C   0  0  0  0  0 15  0  0  0  0  0  0
  -31.3920  -17.9120   21.1720 C   0  0  0  0  0  2  0  0  0  0  0  0
  -28.3680  -16.9230   18.8440 C   0  0  0  0  0  1  0  0  0  0  0  0
  -27.1770  -17.0070   17.8730 C   0  0  0  0  0  2  0  0  0  0  0  0
  -26.9150  -18.4280   17.4380 C   0  0  0  0  0  3  0  0  0  0  0  0
  -26.3030  -19.2900   18.1480 N   0  0  0  0  0  0  0  0  0  0  0  0
  -26.4680  -20.6840   17.7650 C   0  0  0  0  0  2  0  0  0  0  0  0
  -27.5960  -21.3820   18.5810 C   0  0  0  0  0  2  0  0  0  0  0  0
  -28.7490  -20.4680   19.0700 C   0  0  0  0  0  2  0  0  0  0  0  0
  -28.2710  -19.4450   20.1280 C   0  0  0  0  0  2  0  0  0  0  0  0
  -29.9620  -16.1860   21.2040 C   0  0  0  0  0  0  0  0  0  0  0  0
  -30.0730  -13.8870   20.0950 C   0  0  0  0  0  2  0  0  0  0  0  0
  -29.2260  -13.6690   18.8360 C   0  0  0  0  0  2  0  0  0  0  0  0
  -27.7310  -13.3820   19.1300 C   0  0  0  0  0  2  0  0  0  0  0  0
  -27.1500  -14.0730   20.3880 C   0  0  0  0  0  3  0  0  0  0  0  0
  -28.1970  -14.1910   21.5370 C   0  0  0  0  0  2  0  0  0  0  0  0
  -29.3960  -14.8760   20.9680 N   0  0  0  0  0  0  0  0  0  0  0  0
  -31.0520  -15.8120   21.7080 O   0  0  0  0  0  0  0  0  0  0  0  0
  -29.3260  -18.4110   20.4660 N   0  0  1  0  0  4  0  0  0  0  0  0
  -30.2200  -18.8700   20.4880 H   0  0  0  0  0  0  0  0  0  0  0  0
  -24.6480  -14.2670   20.9880 C   0  0  0  0  0  0  0  0  0  0  0  0
  -23.7000  -13.3080   21.1880 C   0  0  0  0  0  0  0  0  0  0  0  0
  -24.3970  -12.0650   21.1410 C   0  0  0  0  0  0  0  0  0  0  0  0
  -25.8480  -13.5830   20.8090 N   0  0  0  0  0  0  0  0  0  0  0  0
  -25.6940  -12.2550   20.9790 N   0  0  0  0  0  0  0  0  0  0  0  0
  -23.9040  -10.6930   21.1770 C   0  0  0  0  0  0  0  0  0  0  0  0
  -24.3620   -9.7800   22.1490 C   0  0  0  0  0  3  0  0  0  0  0  0
  -23.8620   -8.4630   22.1760 C   0  0  0  0  0  3  0  0  0  0  0  0
  -22.8960   -8.0540   21.2290 C   0  0  0  0  0  0  0  0  0  0  0  0
  -22.4650   -8.9620   20.2450 C   0  0  0  0  0  3  0  0  0  0  0  0
  -22.9670  -10.2720   20.2140 C   0  0  0  0  0  3  0  0  0  0  0  0
  -22.3690   -6.7880   21.1680 O   0  0  0  0  0  0  0  0  0  0  0  0
  -22.1600   -6.0470   22.3010 C   0  0  0  0  0  0  0  0  0  0  0  0
  -21.3870   -6.5320   23.3790 C   0  0  0  0  0  3  0  0  0  0  0  0
  -21.1400   -5.7070   24.4950 C   0  0  0  0  0  3  0  0  0  0  0  0
  -21.6580   -4.3980   24.5310 C   0  0  0  0  0  0  0  0  0  0  0  0
  -22.4260   -3.9140   23.4570 C   0  0  0  0  0  3  0  0  0  0  0  0
  -22.6740   -4.7360   22.3440 C   0  0  0  0  0  0  0  0  0  0  0  0
  -23.3960   -4.2590   21.3030 F   0  0  0  0  0  0  0  0  0  0  0  0
  -21.4130   -3.6030   25.5980 F   0  0  0  0  0  0  0  0  0  0  0  0
  -22.2210  -13.5230   21.3240 C   0  0  0  0  0  0  0  0  0  0  0  0
  -21.5540  -12.6720   22.0920 N   0  0  0  0  0  0  0  0  0  0  0  0
  -21.6570  -14.4800   20.7920 O   0  0  0  0  0  0  0  0  0  0  0  0
  -22.0190  -11.8990   22.5470 H   0  0  0  0  0  0  0  0  0  0  0  0
  -20.5610  -12.7920   22.2250 H   0  0  0  0  0  0  0  0  0  0  0  0
  -24.5560  -15.6510   20.9210 N   0  0  0  0  0  0  0  0  0  0  0  0
  -23.6770  -16.1440   21.0370 H   0  0  0  0  0  0  0  0  0  0  0  0
  -25.3590  -16.2620   20.9230 H   0  0  0  0  0  0  0  0  0  0  0  0
  -32.5290  -21.4840   20.5640 C   0  0  0  0  0  2  0  0  0  0  0  0
  -31.7880  -22.5350   21.4660 C   0  0  0  0  0  2  0  0  0  0  0  0
  -31.1200  -23.6030   20.6280 N   0  0  0  0  0  4  0  0  0  0  0  0
  -30.3190  -23.1660   20.1960 H   0  0  0  0  0  0  0  0  0  0  0  0
  -31.7520  -23.8450   19.8780 H   0  0  0  0  0  0  0  0  0  0  0  0
  -30.6600  -24.8970   21.2610 C   0  0  0  0  0  2  0  0  0  0  0  0
  -29.5580  -25.6730   20.4360 C   0  0  0  0  0  2  0  0  0  0  0  0
  -29.3410  -27.0710   20.8090 O   0  0  0  0  0  0  0  0  0  0  0  0
  -24.6690  -31.8780   23.3250 C   0  0  0  0  0  0  0  0  0  0  0  0
  -28.0970  -27.6850   20.6170 C   0  0  0  0  0  0  0  0  0  0  0  0
  -23.7950  -30.3260   21.6110 C   0  0  0  0  0  3  0  0  0  0  0  0
  -25.5470  -28.9460   20.3600 C   0  0  0  0  0  0  0  0  0  0  0  0
  -26.2770  -30.9580   21.6480 C   0  0  0  0  0  2  0  0  0  0  0  0
  -26.5800  -29.5940   21.0470 C   0  0  0  0  0  0  0  0  0  0  0  0
  -27.8510  -28.9720   21.1690 C   0  0  0  0  0  3  0  0  0  0  0  0
  -27.0400  -27.0740   19.9000 C   0  0  0  0  0  3  0  0  0  0  0  0
  -25.7760  -27.6870   19.7810 C   0  0  0  0  0  3  0  0  0  0  0  0
  -24.2150  -29.6600   20.2730 C   0  0  0  0  0  2  0  0  0  0  0  0
  -24.9260  -31.0720   22.2540 N   0  0  0  0  0  0  0  0  0  0  0  0
  -23.5160  -32.0350   23.7510 O   0  0  0  0  0  0  0  0  0  0  0  0
  -23.1650  -29.2520   22.5290 C   0  0  0  0  0  0  0  0  0  0  0  0
  -21.8810  -28.9370   22.2940 N   0  0  0  0  0  0  0  0  0  0  0  0
  -23.8350  -28.7050   23.4100 O   0  0  0  0  0  0  0  0  0  0  0  0
  -21.3960  -29.4370   21.5620 H   0  0  0  0  0  0  0  0  0  0  0  0
  -18.5920  -27.4630   22.5820 C   0  0  0  0  0  0  0  0  0  0  0  0
  -21.1000  -27.9240   23.0060 C   0  0  0  0  0  3  0  0  0  0  0  0
  -21.3530  -26.5160   22.4220 C   0  0  0  0  0  2  0  0  0  0  0  0
  -20.3410  -26.1210   21.3410 C   0  0  0  0  0  2  0  0  0  0  0  0
  -18.9180  -26.1430   21.9040 C   0  0  0  0  0  2  0  0  0  0  0  0
  -19.6170  -28.3070   23.0860 C   0  0  0  0  0  0  0  0  0  0  0  0
  -19.2620  -29.5380   23.6750 C   0  0  0  0  0  3  0  0  0  0  0  0
  -17.9120  -29.9310   23.7670 C   0  0  0  0  0  3  0  0  0  0  0  0
  -16.9010  -29.0830   23.2810 C   0  0  0  0  0  3  0  0  0  0  0  0
  -17.2410  -27.8510   22.6950 C   0  0  0  0  0  3  0  0  0  0  0  0
  -25.8100  -32.6580   24.0520 C   0  0  0  0  0  3  0  0  0  0  0  0
  -25.3340  -34.0280   24.2850 N   0  0  0  0  0  0  0  0  0  0  0  0
  -25.6430  -35.0820   23.5190 C   0  0  0  0  0  0  0  0  0  0  0  0
  -26.4260  -35.0100   22.5660 O   0  0  0  0  0  0  0  0  0  0  0  0
  -24.6470  -34.1520   25.0140 H   0  0  0  0  0  0  0  0  0  0  0  0
  -23.8150  -36.6860   22.8880 C   0  0  0  0  0  1  0  0  0  0  0  0
  -24.9780  -36.4270   23.8590 C   0  0  0  0  0  3  0  0  0  0  0  0
  -26.9210  -37.5190   24.8880 C   0  0  0  0  0  1  0  0  0  0  0  0
  -25.9150  -37.5710   23.8300 N   0  0  0  0  0  0  0  0  0  0  0  0
  -25.4130  -38.4510   23.9130 H   0  0  0  0  0  0  0  0  0  0  0  0
  -26.2600  -31.9830   25.4060 C   0  0  1  0  0  0  0  0  0  0  0  0
  -25.0790  -31.6040   26.3330 C   0  0  0  0  0  1  0  0  0  0  0  0
  -27.0740  -30.6980   25.1300 C   0  0  0  0  0  1  0  0  0  0  0  0
  -27.1930  -32.9410   26.1830 C   0  0  0  0  0  1  0  0  0  0  0  0
  1  3  2  0
  2  1  1  0
  4  2  1  0
  5  9  1  6
  7  5  1  0
  9  1  1  0
 11 10  1  0
 12 11  1  0
 12 13  2  0
 14 13  1  0
 14 15  1  0
 15 16  1  0
 16 17  1  0
 17 26  1  0
 18 25  2  0
 18  5  1  0
 19 24  1  0
 20 21  1  0
 20 19  1  0
 22 21  1  0
 22 31  1  0
 22 23  1  0
 24 18  1  0
 24 23  1  0
 26 27  1  1
 26  7  1  0
 26  5  1  0
 28 29  2  0
 29 48  1  0
 30 33  1  0
 30 29  1  0
 31 32  1  0
 31 28  1  0
 32 30  2  0
 33 34  1  0
 34 35  2  0
 36 35  1  0
 37 36  2  0
 38 37  1  0
 38 33  2  0
 39 36  1  0
 39 40  1  0
 40 45  2  0
 40 41  1  0
 41 42  2  0
 42 43  1  0
 43 47  1  0
 44 43  2  0
 45 44  1  0
 46 45  1  0
 48 49  1  0
 49 52  1  0
 49 51  1  0
 50 48  2  0
 53 55  1  0
 53 28  1  0
 53 54  1  0
 56  2  1  0
 56 57  1  0
 58 61  1  0
 58 57  1  0
 59 58  1  0
 60 58  1  0
 62 63  1  0
 62 61  1  0
 64 75  2  0
 65 63  1  0
 65 70  1  0
 66 74  1  0
 66 76  1  0
 67 69  1  0
 68 74  1  0
 69 70  2  0
 69 68  1  0
 71 65  2  0
 72 71  1  0
 72 67  2  0
 73 67  1  0
 73 66  1  0
 74 64  1  0
 76 78  2  0
 77 76  1  0
 79 77  1  0
 80 89  2  0
 80 85  1  0
 81 77  1  0
 81 85  1  0
 82 81  1  0
 83 84  1  0
 83 82  1  0
 84 80  1  0
 85 86  2  0
 86 87  1  0
 88 87  2  0
 89 88  1  0
 90 64  1  0
 90 91  1  0
 90100  1  0
 91 94  1  0
 92 96  1  0
 92 91  1  0
 93 92  2  0
 96 95  1  0
 98 96  1  0
 98 99  1  0
 98 97  1  0
100103  1  1
100101  1  0
102100  1  0
M  ISO  4  18 100  26 100  62 101  63 101
M  END
>  <TORSDO>  (18) 
F 28

>  <SCORE>  (18) 
-7.093

>  <name>  (18) 
17

>  <ligand_id>  (18) 
17

>  <original_smiles>  (18) 
[H]C(=NC([H])([H])C([H])([H])C([H])([H])C([H])([H])N([H])C(=O)N1C([H])([H])C([H])([H])C([H])([H])C([H])(n2nc(-c3c([H])c([H])c(Oc4c([H])c([H])c(F)c([H])c4F)c([H])c3[H])c(C(=O)N([H])[H])c2N([H])[H])C1([H])[H])C([H])([H])c1c([H])c([H])c(C(=O)N([H])C([H])([H])C([H])([H])[N+]([H])([H])C([H])([H])C([H])([H])Oc2c([H])c([H])c3c(c2[H])C([H])([H])N(C(=O)C([H])(N([H])C(=O)C([H])(N([H])C([H])([H])[H])C([H])([H])[H])C(C([H])([H])[H])(C([H])([H])[H])C([H])([H])[H])C([H])(C(=O)N([H])C2([H])c4c([H])c([H])c([H])c([H])c4C([H])([H])C([H])([H])C2([H])[H])C3([H])[H])c([H])c1[H]

>  <smiles>  (18) 
[H]C(=NC([H])([H])C([H])([H])C([H])([H])C([H])([H])N([H])C(=O)N1C([H])([H])C([H])([H])C([H])([H])C([H])(n2nc(-c3c([H])c([H])c(Oc4c([H])c([H])c(F)c([H])c4F)c([H])c3[H])c(C(=O)N([H])[H])c2N([H])[H])C1([H])[H])C([H])([H])c1c([H])c([H])c(C(=O)N([H])C([H])([H])C([H])([H])[N+]([H])([H])C([H])([H])C([H])([H])Oc2c([H])c([H])c3c(c2[H])C([H])([H])N(C(=O)C([H])(N([H])C(=O)C([H])(N([H])C([H])([H])[H])C([H])([H])[H])C(C([H])([H])[H])(C([H])([H])[H])C([H])([H])[H])C([H])(C(=O)N([H])C2([H])c4c([H])c([H])c([H])c([H])c4C([H])([H])C([H])([H])C2([H])[H])C3([H])[H])c([H])c1[H]

$$$$
18:0:0
     RDKit          3D

101109  0  0  1  0  0  0  0  0999 V2000
  -30.7120  -22.8550   19.8630 C   0  0  0  0  0  3  0  0  0  0  0  0
  -29.6500  -23.6760   19.4640 C   0  0  0  0  0  3  0  0  0  0  0  0
  -32.2270  -24.7560   19.7080 C   0  0  0  0  0  3  0  0  0  0  0  0
  -32.0230  -23.3810   19.9780 C   0  0  0  0  0  0  0  0  0  0  0  0
  -31.1570  -25.5970   19.3110 C   0  0  0  0  0  0  0  0  0  0  0  0
  -29.8540  -25.0420   19.1900 C   0  0  0  0  0  0  0  0  0  0  0  0
  -31.4220  -27.0470   19.0080 C   0  0  0  0  0  0  0  0  0  0  0  0
  -32.0780  -27.7250   19.9420 N   0  0  0  0  0  0  0  0  0  0  0  0
  -31.0330  -27.5820   17.9720 O   0  0  0  0  0  0  0  0  0  0  0  0
  -32.3910  -27.2560   20.7780 H   0  0  0  0  0  0  0  0  0  0  0  0
  -32.2120  -28.7220   19.8410 H   0  0  0  0  0  0  0  0  0  0  0  0
  -33.1880  -22.5110   20.3510 C   0  0  0  0  0  0  0  0  0  0  0  0
  -34.3330  -22.9540   20.4880 O   0  0  0  0  0  0  0  0  0  0  0  0
  -32.9250  -20.9930   20.5710 C   0  0  0  0  0  0  0  0  0  0  0  0
  -32.8650  -20.3100   19.4130 N   0  0  0  0  0  0  0  0  0  0  0  0
  -32.7340  -20.5230   21.6960 O   0  0  0  0  0  0  0  0  0  0  0  0
  -33.0730  -20.8620   18.5880 H   0  0  0  0  0  0  0  0  0  0  0  0
  -32.2850  -18.9860   19.1480 C   0  0  0  0  0  2  0  0  0  0  0  0
  -32.6500  -17.8640   20.1490 C   0  0  0  0  0  2  0  0  0  0  0  0
  -31.5580  -17.5040   21.1940 C   0  0  0  0  0  2  0  0  0  0  0  0
  -30.2470  -16.9230   20.6020 C   0  0  0  0  0  2  0  0  0  0  0  0
  -30.5800  -14.5030   20.1980 C   0  0  0  0  0  0  0  0  0  0  0  0
  -30.1770  -12.4030   19.0060 C   0  0  0  0  0  2  0  0  0  0  0  0
  -29.1860  -12.6420   17.8480 C   0  0  0  0  0  2  0  0  0  0  0  0
  -27.7360  -12.4890   18.3440 C   0  0  0  0  0  2  0  0  0  0  0  0
  -27.4510  -13.2910   19.6410 C   0  0  0  0  0  3  0  0  0  0  0  0
  -28.5630  -13.0490   20.6940 C   0  0  0  0  0  2  0  0  0  0  0  0
  -29.8680  -13.3530   20.0810 N   0  0  0  0  0  0  0  0  0  0  0  0
  -31.6300  -14.7060   19.5830 O   0  0  0  0  0  0  0  0  0  0  0  0
  -30.0090  -15.4970   20.8920 N   0  0  0  0  0  0  0  0  0  0  0  0
  -29.2040  -15.2520   21.4520 H   0  0  0  0  0  0  0  0  0  0  0  0
  -25.0650  -13.8480   20.4530 C   0  0  0  0  0  0  0  0  0  0  0  0
  -24.0310  -13.0480   20.8630 C   0  0  0  0  0  0  0  0  0  0  0  0
  -24.5160  -11.7050   20.7910 C   0  0  0  0  0  0  0  0  0  0  0  0
  -26.1190  -12.9880   20.1700 N   0  0  0  0  0  0  0  0  0  0  0  0
  -25.7910  -11.6960   20.4290 N   0  0  0  0  0  0  0  0  0  0  0  0
  -23.8210  -10.4230   20.9900 C   0  0  0  0  0  0  0  0  0  0  0  0
  -24.2880   -9.4620   21.9130 C   0  0  0  0  0  3  0  0  0  0  0  0
  -23.5920   -8.2460   22.0950 C   0  0  0  0  0  3  0  0  0  0  0  0
  -22.4180   -7.9810   21.3530 C   0  0  0  0  0  0  0  0  0  0  0  0
  -21.9710   -8.9320   20.4190 C   0  0  0  0  0  3  0  0  0  0  0  0
  -22.6660  -10.1400   20.2350 C   0  0  0  0  0  3  0  0  0  0  0  0
  -21.6880   -6.8200   21.4500 O   0  0  0  0  0  0  0  0  0  0  0  0
  -21.6590   -6.0830   22.6060 C   0  0  0  0  0  0  0  0  0  0  0  0
  -21.1880   -6.6280   23.8220 C   0  0  0  0  0  3  0  0  0  0  0  0
  -21.1090   -5.8160   24.9710 C   0  0  0  0  0  3  0  0  0  0  0  0
  -21.4910   -4.4630   24.9050 C   0  0  0  0  0  0  0  0  0  0  0  0
  -21.9520   -3.9160   23.6940 C   0  0  0  0  0  3  0  0  0  0  0  0
  -22.0320   -4.7230   22.5470 C   0  0  0  0  0  0  0  0  0  0  0  0
  -22.4530   -4.1870   21.3770 F   0  0  0  0  0  0  0  0  0  0  0  0
  -21.4100   -3.6830   26.0060 F   0  0  0  0  0  0  0  0  0  0  0  0
  -22.6390  -13.4910   21.2110 C   0  0  0  0  0  0  0  0  0  0  0  0
  -21.9640  -12.7630   22.0950 N   0  0  0  0  0  0  0  0  0  0  0  0
  -22.1580  -14.5220   20.7380 O   0  0  0  0  0  0  0  0  0  0  0  0
  -22.3620  -11.9300   22.5050 H   0  0  0  0  0  0  0  0  0  0  0  0
  -21.0370  -13.0510   22.3780 H   0  0  0  0  0  0  0  0  0  0  0  0
  -25.1990  -15.2210   20.2770 N   0  0  0  0  0  0  0  0  0  0  0  0
  -24.4330  -15.8750   20.4110 H   0  0  0  0  0  0  0  0  0  0  0  0
  -26.0280  -15.6620   19.9010 H   0  0  0  0  0  0  0  0  0  0  0  0
  -28.6320  -25.8770   18.8500 C   0  0  0  0  0  2  0  0  0  0  0  0
  -28.3480  -26.7660   19.9240 O   0  0  0  0  0  0  0  0  0  0  0  0
  -24.6650  -31.8660   23.1690 C   0  0  0  0  0  0  0  0  0  0  0  0
  -27.1540  -27.4450   19.9430 C   0  0  0  0  0  0  0  0  0  0  0  0
  -23.3860  -30.4940   21.5570 C   0  0  0  0  0  3  0  0  0  0  0  0
  -24.7670  -28.9460   20.0780 C   0  0  0  0  0  0  0  0  0  0  0  0
  -25.9050  -30.8230   21.2770 C   0  0  0  0  0  2  0  0  0  0  0  0
  -25.9460  -29.4550   20.6320 C   0  0  0  0  0  0  0  0  0  0  0  0
  -27.1380  -28.7060   20.5740 C   0  0  0  0  0  3  0  0  0  0  0  0
  -25.9520  -26.9340   19.4030 C   0  0  0  0  0  3  0  0  0  0  0  0
  -24.7600  -27.6780   19.4700 C   0  0  0  0  0  3  0  0  0  0  0  0
  -23.5400  -29.8220   20.1670 C   0  0  0  0  0  2  0  0  0  0  0  0
  -24.6730  -31.0760   22.0590 N   0  0  0  0  0  0  0  0  0  0  0  0
  -23.6060  -32.1490   23.7450 O   0  0  0  0  0  0  0  0  0  0  0  0
  -22.7560  -29.4730   22.5310 C   0  0  0  0  0  0  0  0  0  0  0  0
  -21.4390  -29.2510   22.3920 N   0  0  0  0  0  0  0  0  0  0  0  0
  -23.4460  -28.8800   23.3640 O   0  0  0  0  0  0  0  0  0  0  0  0
  -20.9450  -29.7840   21.6890 H   0  0  0  0  0  0  0  0  0  0  0  0
  -18.1050  -27.9240   22.8170 C   0  0  0  0  0  0  0  0  0  0  0  0
  -20.6370  -28.3070   23.1690 C   0  0  0  0  0  3  0  0  0  0  0  0
  -20.8240  -26.8630   22.6530 C   0  0  0  0  0  2  0  0  0  0  0  0
  -19.7750  -26.4510   21.6150 C   0  0  0  0  0  2  0  0  0  0  0  0
  -18.3650  -26.5600   22.2030 C   0  0  0  0  0  2  0  0  0  0  0  0
  -19.1720  -28.7520   23.2550 C   0  0  0  0  0  0  0  0  0  0  0  0
  -18.8770  -30.0260   23.7870 C   0  0  0  0  0  3  0  0  0  0  0  0
  -17.5460  -30.4740   23.8840 C   0  0  0  0  0  3  0  0  0  0  0  0
  -16.4920  -29.6450   23.4620 C   0  0  0  0  0  3  0  0  0  0  0  0
  -16.7730  -28.3720   22.9350 C   0  0  0  0  0  3  0  0  0  0  0  0
  -25.9810  -32.4720   23.7530 C   0  0  0  0  0  3  0  0  0  0  0  0
  -25.6910  -33.8540   24.1520 N   0  0  0  0  0  0  0  0  0  0  0  0
  -25.9530  -34.9330   23.4030 C   0  0  0  0  0  0  0  0  0  0  0  0
  -26.5400  -34.8700   22.3190 O   0  0  0  0  0  0  0  0  0  0  0  0
  -25.1620  -33.9770   25.0030 H   0  0  0  0  0  0  0  0  0  0  0  0
  -24.1750  -36.7060   23.2530 C   0  0  0  0  0  1  0  0  0  0  0  0
  -25.4890  -36.3010   23.9410 C   0  0  0  0  0  3  0  0  0  0  0  0
  -27.6820  -37.1920   24.6010 C   0  0  0  0  0  1  0  0  0  0  0  0
  -26.4930  -37.3750   23.7700 N   0  0  0  0  0  0  0  0  0  0  0  0
  -26.0920  -38.2820   23.9870 H   0  0  0  0  0  0  0  0  0  0  0  0
  -26.5600  -31.6500   24.9700 C   0  0  1  0  0  0  0  0  0  0  0  0
  -25.5140  -31.3550   26.0710 C   0  0  0  0  0  1  0  0  0  0  0  0
  -27.1390  -30.2990   24.4890 C   0  0  0  0  0  1  0  0  0  0  0  0
  -27.7340  -32.4270   25.6130 C   0  0  0  0  0  1  0  0  0  0  0  0
  1  4  1  0
  2  1  2  0
  3  4  2  0
  4 12  1  0
  5  3  1  0
  6  5  2  0
  6  2  1  0
  7  5  1  0
  7  8  1  0
  8 10  1  0
  9  7  2  0
 11  8  1  0
 12 13  2  0
 12 14  1  0
 14 16  2  0
 15 14  1  0
 17 15  1  0
 18 15  1  0
 18 19  1  0
 19 20  1  0
 21 30  1  0
 21 20  1  0
 22 30  1  0
 23 28  1  0
 24 25  1  0
 24 23  1  0
 26 25  1  0
 26 35  1  0
 26 27  1  0
 28 22  1  0
 28 27  1  0
 29 22  2  0
 30 31  1  0
 32 33  2  0
 33 52  1  0
 34 33  1  0
 34 37  1  0
 35 36  1  0
 35 32  1  0
 36 34  2  0
 37 38  1  0
 38 39  2  0
 40 43  1  0
 40 39  1  0
 41 40  2  0
 42 41  1  0
 42 37  2  0
 43 44  1  0
 44 45  1  0
 45 46  2  0
 47 46  1  0
 47 51  1  0
 48 47  2  0
 49 44  2  0
 49 48  1  0
 50 49  1  0
 52 53  1  0
 53 56  1  0
 53 55  1  0
 54 52  2  0
 57 58  1  0
 57 32  1  0
 59 57  1  0
 60  6  1  0
 60 61  1  0
 61 63  1  0
 62 73  2  0
 63 68  1  0
 64 72  1  0
 64 74  1  0
 65 71  1  0
 65 67  1  0
 66 72  1  0
 67 66  1  0
 68 67  2  0
 69 70  1  0
 69 63  2  0
 70 65  2  0
 71 64  1  0
 72 62  1  0
 74 76  2  0
 75 74  1  0
 77 75  1  0
 78 87  2  0
 78 83  1  0
 79 75  1  0
 79 83  1  0
 80 79  1  0
 81 82  1  0
 81 80  1  0
 82 78  1  0
 83 84  2  0
 84 85  1  0
 86 85  2  0
 87 86  1  0
 88 62  1  0
 88 89  1  0
 88 98  1  0
 89 92  1  0
 90 94  1  0
 90 89  1  0
 91 90  2  0
 94 93  1  0
 96 94  1  0
 96 97  1  0
 96 95  1  0
 98101  1  1
 98 99  1  0
100 98  1  0
M  ISO  4  22 100  30 100  60 101  61 101
M  END
>  <TORSDO>  (19) 
F 24

>  <SCORE>  (19) 
-12.161

>  <name>  (19) 
18

>  <ligand_id>  (19) 
18

>  <original_smiles>  (19) 
[H]c1c([H])c([H])c2c(c1[H])C([H])([H])C([H])([H])C([H])([H])C2([H])N([H])C(=O)C1([H])N(C(=O)C([H])(N([H])C(=O)C([H])(N([H])C([H])([H])[H])C([H])([H])[H])C(C([H])([H])[H])(C([H])([H])[H])C([H])([H])[H])C([H])([H])c2c([H])c(OC([H])([H])c3c([H])c([H])c(C(=O)C(=O)N([H])C([H])([H])C([H])([H])C([H])([H])C([H])([H])N([H])C(=O)N4C([H])([H])C([H])([H])C([H])([H])C([H])(n5nc(-c6c([H])c([H])c(Oc7c([H])c([H])c(F)c([H])c7F)c([H])c6[H])c(C(=O)N([H])[H])c5N([H])[H])C4([H])[H])c([H])c3C(=O)N([H])[H])c([H])c([H])c2C1([H])[H]

>  <smiles>  (19) 
[H]c1c([H])c([H])c2c(c1[H])C([H])([H])C([H])([H])C([H])([H])C2([H])N([H])C(=O)C1([H])N(C(=O)C([H])(N([H])C(=O)C([H])(N([H])C([H])([H])[H])C([H])([H])[H])C(C([H])([H])[H])(C([H])([H])[H])C([H])([H])[H])C([H])([H])c2c([H])c(OC([H])([H])c3c([H])c([H])c(C(=O)C(=O)N([H])C([H])([H])C([H])([H])C([H])([H])C([H])([H])N([H])C(=O)N4C([H])([H])C([H])([H])C([H])([H])C([H])(n5nc(-c6c([H])c([H])c(Oc7c([H])c([H])c(F)c([H])c7F)c([H])c6[H])c(C(=O)N([H])[H])c5N([H])[H])C4([H])[H])c([H])c3C(=O)N([H])[H])c([H])c([H])c2C1([H])[H]

$$$$
19:0:0
     RDKit          3D

103111  0  0  1  0  0  0  0  0999 V2000
  -31.1510  -20.9430   23.9990 C   0  0  0  0  0  3  0  0  0  0  0  0
  -30.6990  -22.2450   23.6930 C   0  0  0  0  0  3  0  0  0  0  0  0
  -29.5830  -20.0290   22.3870 C   0  0  0  0  0  3  0  0  0  0  0  0
  -30.5820  -19.8200   23.3620 C   0  0  0  0  0  0  0  0  0  0  0  0
  -29.6840  -22.4600   22.7320 C   0  0  0  0  0  0  0  0  0  0  0  0
  -29.1380  -21.3290   22.0660 C   0  0  0  0  0  0  0  0  0  0  0  0
  -28.1440  -21.4380   21.0910 N   0  0  0  0  0  0  0  0  0  0  0  0
  -27.6650  -20.5960   20.7870 H   0  0  0  0  0  0  0  0  0  0  0  0
  -27.5470  -22.2560   21.0480 H   0  0  0  0  0  0  0  0  0  0  0  0
  -28.8810  -24.6190   23.8120 C   0  0  0  0  0  1  0  0  0  0  0  0
  -29.1730  -23.8950   22.4860 C   0  0  0  0  0  3  0  0  0  0  0  0
  -30.0820  -24.7110   21.6450 N   0  0  0  0  0  4  0  0  0  0  0  0
  -29.8090  -25.6690   21.7760 H   0  0  0  0  0  0  0  0  0  0  0  0
  -31.0240  -24.6180   21.9870 H   0  0  0  0  0  0  0  0  0  0  0  0
  -30.0650  -24.4200   20.1920 C   0  0  0  0  0  2  0  0  0  0  0  0
  -30.7680  -25.5280   19.3690 C   0  0  0  0  0  2  0  0  0  0  0  0
  -30.0360  -26.8830   19.3980 C   0  0  0  0  0  2  0  0  0  0  0  0
  -28.8100  -26.7090   18.7030 O   0  0  0  0  0  0  0  0  0  0  0  0
  -25.3850  -31.0460   23.2640 C   0  0  0  0  0  0  0  0  0  0  0  0
  -27.7250  -27.4870   19.0320 C   0  0  0  0  0  0  0  0  0  0  0  0
  -24.0450  -30.1170   21.4000 C   0  0  0  0  0  3  0  0  0  0  0  0
  -25.3710  -28.9580   19.5580 C   0  0  0  0  0  0  0  0  0  0  0  0
  -26.5620  -30.4810   21.1440 C   0  0  0  0  0  2  0  0  0  0  0  0
  -26.5720  -29.3080   20.1880 C   0  0  0  0  0  0  0  0  0  0  0  0
  -27.7540  -28.5780   19.9300 C   0  0  0  0  0  3  0  0  0  0  0  0
  -26.5110  -27.1530   18.4000 C   0  0  0  0  0  3  0  0  0  0  0  0
  -25.3320  -27.8740   18.6630 C   0  0  0  0  0  3  0  0  0  0  0  0
  -24.1570  -29.7960   19.8850 C   0  0  0  0  0  2  0  0  0  0  0  0
  -25.3520  -30.5460   21.9950 N   0  0  0  0  0  0  0  0  0  0  0  0
  -24.3450  -31.1930   23.9200 O   0  0  0  0  0  0  0  0  0  0  0  0
  -23.4150  -28.9030   22.1170 C   0  0  0  0  0  0  0  0  0  0  0  0
  -22.0980  -28.7170   21.9300 N   0  0  0  0  0  0  0  0  0  0  0  0
  -24.1080  -28.1380   22.7950 O   0  0  0  0  0  0  0  0  0  0  0  0
  -21.6020  -29.3900   21.3640 H   0  0  0  0  0  0  0  0  0  0  0  0
  -18.7910  -27.2640   21.9620 C   0  0  0  0  0  0  0  0  0  0  0  0
  -21.3000  -27.6200   22.4740 C   0  0  0  0  0  3  0  0  0  0  0  0
  -21.5420  -26.3120   21.6840 C   0  0  0  0  0  2  0  0  0  0  0  0
  -20.5370  -26.0980   20.5470 C   0  0  0  0  0  2  0  0  0  0  0  0
  -19.1070  -26.0570   21.0950 C   0  0  0  0  0  2  0  0  0  0  0  0
  -19.8210  -28.0080   22.5960 C   0  0  0  0  0  0  0  0  0  0  0  0
  -19.4760  -29.1420   23.3610 C   0  0  0  0  0  3  0  0  0  0  0  0
  -18.1310  -29.5340   23.5010 C   0  0  0  0  0  3  0  0  0  0  0  0
  -17.1130  -28.7850   22.8840 C   0  0  0  0  0  3  0  0  0  0  0  0
  -17.4440  -27.6510   22.1210 C   0  0  0  0  0  3  0  0  0  0  0  0
  -26.7250  -31.4760   23.9390 C   0  0  0  0  0  3  0  0  0  0  0  0
  -27.1430  -30.5440   25.1420 C   0  0  1  0  0  0  0  0  0  0  0  0
  -26.0250  -30.3490   26.1930 C   0  0  0  0  0  1  0  0  0  0  0  0
  -27.5590  -29.1440   24.6290 C   0  0  0  0  0  1  0  0  0  0  0  0
  -28.3790  -31.1380   25.8600 C   0  0  0  0  0  1  0  0  0  0  0  0
  -26.5700  -32.8660   24.3850 N   0  0  0  0  0  0  0  0  0  0  0  0
  -27.1330  -33.9230   23.7860 C   0  0  0  0  0  0  0  0  0  0  0  0
  -27.9080  -33.8170   22.8300 O   0  0  0  0  0  0  0  0  0  0  0  0
  -25.9070  -33.0310   25.1280 H   0  0  0  0  0  0  0  0  0  0  0  0
  -25.7830  -36.0050   23.3860 C   0  0  0  0  0  1  0  0  0  0  0  0
  -26.7820  -35.3200   24.3330 C   0  0  0  0  0  3  0  0  0  0  0  0
  -28.8420  -35.7310   25.6000 C   0  0  0  0  0  1  0  0  0  0  0  0
  -27.9610  -36.1890   24.5290 N   0  0  0  0  0  0  0  0  0  0  0  0
  -27.6750  -37.1410   24.7390 H   0  0  0  0  0  0  0  0  0  0  0  0
  -30.6580  -18.1010   25.2280 C   0  0  0  0  0  1  0  0  0  0  0  0
  -31.0100  -18.4030   23.7570 C   0  0  0  0  0  3  0  0  0  0  0  0
  -30.4380  -17.3820   22.8430 N   0  0  0  0  0  4  0  0  0  0  0  0
  -30.4870  -16.4800   23.2820 H   0  0  0  0  0  0  0  0  0  0  0  0
  -29.4650  -17.5980   22.7120 H   0  0  0  0  0  0  0  0  0  0  0  0
  -31.0740  -17.2920   21.5060 C   0  0  0  0  0  2  0  0  0  0  0  0
  -31.9510  -16.0300   21.3330 C   0  0  0  0  0  2  0  0  0  0  0  0
  -31.3570  -14.2340   19.6920 C   0  0  0  0  0  0  0  0  0  0  0  0
  -30.6210  -12.3390   18.2890 C   0  0  0  0  0  2  0  0  0  0  0  0
  -29.5510  -12.7780   17.2690 C   0  0  0  0  0  2  0  0  0  0  0  0
  -28.1430  -12.7230   17.8920 C   0  0  0  0  0  2  0  0  0  0  0  0
  -28.0750  -13.4450   19.2650 C   0  0  0  0  0  3  0  0  0  0  0  0
  -29.2280  -12.9760   20.1820 C   0  0  0  0  0  2  0  0  0  0  0  0
  -30.5060  -13.1970   19.4790 N   0  0  0  0  0  0  0  0  0  0  0  0
  -32.2620  -14.5430   18.9100 O   0  0  0  0  0  0  0  0  0  0  0  0
  -31.1830  -14.8720   20.8600 N   0  0  0  0  0  0  0  0  0  0  0  0
  -30.4930  -14.4680   21.4740 H   0  0  0  0  0  0  0  0  0  0  0  0
  -25.8800  -14.2120   20.3750 C   0  0  0  0  0  0  0  0  0  0  0  0
  -24.7880  -13.5160   20.8210 C   0  0  0  0  0  0  0  0  0  0  0  0
  -25.0760  -12.1390   20.5840 C   0  0  0  0  0  0  0  0  0  0  0  0
  -26.7720  -13.2620   19.9020 N   0  0  0  0  0  0  0  0  0  0  0  0
  -26.2950  -12.0040   20.0780 N   0  0  0  0  0  0  0  0  0  0  0  0
  -24.2390  -10.9440   20.7540 C   0  0  0  0  0  0  0  0  0  0  0  0
  -24.7010   -9.8190   21.4700 C   0  0  0  0  0  3  0  0  0  0  0  0
  -23.8740   -8.6860   21.6340 C   0  0  0  0  0  3  0  0  0  0  0  0
  -22.5700   -8.6740   21.0850 C   0  0  0  0  0  0  0  0  0  0  0  0
  -22.1240   -9.7890   20.3550 C   0  0  0  0  0  3  0  0  0  0  0  0
  -22.9500  -10.9130   20.1870 C   0  0  0  0  0  3  0  0  0  0  0  0
  -21.7040   -7.6100   21.1730 O   0  0  0  0  0  0  0  0  0  0  0  0
  -21.7500   -6.7320   22.2270 C   0  0  0  0  0  0  0  0  0  0  0  0
  -21.6300   -7.1670   23.5640 C   0  0  0  0  0  3  0  0  0  0  0  0
  -21.6090   -6.2250   24.6130 C   0  0  0  0  0  3  0  0  0  0  0  0
  -21.6950   -4.8490   24.3250 C   0  0  0  0  0  0  0  0  0  0  0  0
  -21.8060   -4.4150   22.9930 C   0  0  0  0  0  3  0  0  0  0  0  0
  -21.8310   -5.3540   21.9470 C   0  0  0  0  0  0  0  0  0  0  0  0
  -21.9180   -4.9260   20.6650 F   0  0  0  0  0  0  0  0  0  0  0  0
  -21.6670   -3.9450   25.3320 F   0  0  0  0  0  0  0  0  0  0  0  0
  -23.5070  -14.1010   21.3480 C   0  0  0  0  0  0  0  0  0  0  0  0
  -22.8490  -13.4090   22.2720 N   0  0  0  0  0  0  0  0  0  0  0  0
  -23.1050  -15.2020   20.9750 O   0  0  0  0  0  0  0  0  0  0  0  0
  -23.1890  -12.5190   22.6020 H   0  0  0  0  0  0  0  0  0  0  0  0
  -21.9910  -13.7770   22.6570 H   0  0  0  0  0  0  0  0  0  0  0  0
  -26.1830  -15.5700   20.3120 N   0  0  0  0  0  0  0  0  0  0  0  0
  -25.5130  -16.2830   20.5810 H   0  0  0  0  0  0  0  0  0  0  0  0
  -26.9970  -15.9470   19.8450 H   0  0  0  0  0  0  0  0  0  0  0  0
  2  1  1  0
  3  4  1  0
  4 60  1  0
  4  1  2  0
  5  2  2  0
  6  3  2  0
  6  5  1  0
  7  6  1  0
  8  7  1  0
  9  7  1  0
 11  5  1  0
 11 10  1  0
 12 13  1  0
 12 14  1  0
 12 11  1  0
 15 12  1  0
 16 17  1  0
 16 15  1  0
 18 20  1  0
 18 17  1  0
 19 30  2  0
 20 25  1  0
 21 29  1  0
 21 31  1  0
 22 28  1  0
 22 24  1  0
 23 29  1  0
 24 23  1  0
 25 24  2  0
 26 27  1  0
 26 20  2  0
 27 22  2  0
 28 21  1  0
 29 19  1  0
 31 33  2  0
 32 31  1  0
 34 32  1  0
 35 44  2  0
 35 40  1  0
 36 32  1  0
 36 40  1  0
 37 36  1  0
 38 39  1  0
 38 37  1  0
 39 35  1  0
 40 41  2  0
 41 42  1  0
 43 42  2  0
 44 43  1  0
 45 19  1  0
 45 50  1  0
 45 46  1  0
 46 49  1  1
 46 47  1  0
 48 46  1  0
 50 53  1  0
 51 55  1  0
 51 50  1  0
 52 51  2  0
 55 54  1  0
 55 57  1  0
 57 58  1  0
 57 56  1  0
 60 59  1  0
 61 62  1  0
 61 60  1  0
 63 61  1  0
 64 61  1  0
 65 64  1  0
 66 74  1  0
 67 72  1  0
 68 69  1  0
 68 67  1  0
 70 69  1  0
 70 79  1  0
 70 71  1  0
 72 66  1  0
 72 71  1  0
 73 66  2  0
 74 65  1  0
 74 75  1  0
 76 77  2  0
 77 96  1  0
 78 81  1  0
 78 77  1  0
 79 80  1  0
 79 76  1  0
 80 78  2  0
 81 82  1  0
 82 83  2  0
 84 87  1  0
 84 83  1  0
 85 84  2  0
 86 85  1  0
 86 81  2  0
 87 88  1  0
 88 89  1  0
 89 90  2  0
 91 90  1  0
 91 95  1  0
 92 91  2  0
 93 88  2  0
 93 92  1  0
 94 93  1  0
 96 97  1  0
 97 99  1  0
 97100  1  0
 98 96  2  0
101 76  1  0
101102  1  0
103101  1  0
M  ISO  4  17 101  18 101  66 100  74 100
M  END
>  <TORSDO>  (20) 
F 26

>  <SCORE>  (20) 
-4.640

>  <name>  (20) 
19

>  <ligand_id>  (20) 
19

>  <original_smiles>  (20) 
[H]c1c([H])c([H])c2c(c1[H])C([H])([H])C([H])([H])C([H])([H])C2([H])N([H])C(=O)C1([H])N(C(=O)C([H])(N([H])C(=O)C([H])(N([H])C([H])([H])[H])C([H])([H])[H])C(C([H])([H])[H])(C([H])([H])[H])C([H])([H])[H])C([H])([H])c2c([H])c(OC([H])([H])C([H])([H])C([H])([H])[N+]([H])([H])C([H])(c3c([H])c([H])c(C([H])(C([H])([H])[H])[N+]([H])([H])C([H])([H])C([H])([H])N([H])C(=O)N4C([H])([H])C([H])([H])C([H])([H])C([H])(n5nc(-c6c([H])c([H])c(Oc7c([H])c([H])c(F)c([H])c7F)c([H])c6[H])c(C(=O)N([H])[H])c5N([H])[H])C4([H])[H])c([H])c3N([H])[H])C([H])([H])[H])c([H])c([H])c2C1([H])[H]

>  <smiles>  (20) 
[H]c1c([H])c([H])c2c(c1[H])C([H])([H])C([H])([H])C([H])([H])C2([H])N([H])C(=O)C1([H])N(C(=O)C([H])(N([H])C(=O)C([H])(N([H])C([H])([H])[H])C([H])([H])[H])C(C([H])([H])[H])(C([H])([H])[H])C([H])([H])[H])C([H])([H])c2c([H])c(OC([H])([H])C([H])([H])C([H])([H])[N+]([H])([H])C([H])(c3c([H])c([H])c(C([H])(C([H])([H])[H])[N+]([H])([H])C([H])([H])C([H])([H])N([H])C(=O)N4C([H])([H])C([H])([H])C([H])([H])C([H])(n5nc(-c6c([H])c([H])c(Oc7c([H])c([H])c(F)c([H])c7F)c([H])c6[H])c(C(=O)N([H])[H])c5N([H])[H])C4([H])[H])c([H])c3N([H])[H])C([H])([H])[H])c([H])c([H])c2C1([H])[H]

$$$$
20:0:0
     RDKit          3D

 97105  0  0  1  0  0  0  0  0999 V2000
  -31.4200  -22.1240   22.2070 C   0  0  0  0  0  3  0  0  0  0  0  0
  -30.8930  -22.9490   23.2240 C   0  0  0  0  0  3  0  0  0  0  0  0
  -29.7270  -22.9540   20.6710 C   0  0  0  0  0  3  0  0  0  0  0  0
  -30.8550  -22.1380   20.9100 C   0  0  0  0  0  0  0  0  0  0  0  0
  -29.1940  -23.7770   21.6850 C   0  0  0  0  0  0  0  0  0  0  0  0
  -29.7900  -23.7860   22.9600 C   0  0  0  0  0  0  0  0  0  0  0  0
  -29.3000  -24.6130   23.9300 O   0  0  0  0  0  0  0  0  0  0  0  0
  -29.8020  -24.5800   24.7400 H   0  0  0  0  0  0  0  0  0  0  0  0
  -32.6920  -22.1130   19.1570 C   0  0  0  0  0  1  0  0  0  0  0  0
  -31.4810  -21.3630   19.7430 C   0  0  0  0  0  3  0  0  0  0  0  0
  -31.8180  -19.9550   20.0560 N   0  0  0  0  0  4  0  0  0  0  0  0
  -32.1990  -19.5670   19.2090 H   0  0  0  0  0  0  0  0  0  0  0  0
  -32.5410  -19.9250   20.7580 H   0  0  0  0  0  0  0  0  0  0  0  0
  -30.6700  -19.1090   20.4510 C   0  0  0  0  0  2  0  0  0  0  0  0
  -31.0220  -17.6010   20.5110 C   0  0  0  0  0  2  0  0  0  0  0  0
  -29.7570  -16.7190   20.5350 C   0  0  0  0  0  2  0  0  0  0  0  0
  -30.7030  -14.3840   20.1390 C   0  0  0  0  0  0  0  0  0  0  0  0
  -30.3990  -12.2600   18.9270 C   0  0  0  0  0  2  0  0  0  0  0  0
  -29.3940  -12.5180   17.7830 C   0  0  0  0  0  2  0  0  0  0  0  0
  -27.9320  -12.4110   18.2680 C   0  0  0  0  0  2  0  0  0  0  0  0
  -27.6730  -13.1890   19.5870 C   0  0  0  0  0  3  0  0  0  0  0  0
  -28.7720  -12.8500   20.6230 C   0  0  0  0  0  2  0  0  0  0  0  0
  -30.0770  -13.1820   20.0210 N   0  0  0  0  0  0  0  0  0  0  0  0
  -31.7620  -14.6620   19.5700 O   0  0  0  0  0  0  0  0  0  0  0  0
  -29.9560  -15.2900   20.7910 N   0  0  0  0  0  0  0  0  0  0  0  0
  -29.1770  -14.8530   21.2600 H   0  0  0  0  0  0  0  0  0  0  0  0
  -25.2970  -13.8350   20.3590 C   0  0  0  0  0  0  0  0  0  0  0  0
  -24.2340  -13.0750   20.7750 C   0  0  0  0  0  0  0  0  0  0  0  0
  -24.6800  -11.7200   20.7360 C   0  0  0  0  0  0  0  0  0  0  0  0
  -26.3270  -12.9400   20.1060 N   0  0  0  0  0  0  0  0  0  0  0  0
  -25.9590  -11.6630   20.3830 N   0  0  0  0  0  0  0  0  0  0  0  0
  -23.9490  -10.4660   20.9620 C   0  0  0  0  0  0  0  0  0  0  0  0
  -24.4050   -9.5050   21.8890 C   0  0  0  0  0  3  0  0  0  0  0  0
  -23.6760   -8.3150   22.1030 C   0  0  0  0  0  3  0  0  0  0  0  0
  -22.4770   -8.0800   21.3890 C   0  0  0  0  0  0  0  0  0  0  0  0
  -22.0410   -9.0310   20.4490 C   0  0  0  0  0  3  0  0  0  0  0  0
  -22.7700  -10.2120   20.2340 C   0  0  0  0  0  3  0  0  0  0  0  0
  -21.7150   -6.9430   21.5120 O   0  0  0  0  0  0  0  0  0  0  0  0
  -21.6950   -6.2120   22.6730 C   0  0  0  0  0  0  0  0  0  0  0  0
  -21.3090   -6.7830   23.9060 C   0  0  0  0  0  3  0  0  0  0  0  0
  -21.2390   -5.9780   25.0610 C   0  0  0  0  0  3  0  0  0  0  0  0
  -21.5420   -4.6050   24.9840 C   0  0  0  0  0  0  0  0  0  0  0  0
  -21.9220   -4.0350   23.7560 C   0  0  0  0  0  3  0  0  0  0  0  0
  -21.9960   -4.8380   22.6030 C   0  0  0  0  0  0  0  0  0  0  0  0
  -22.3420   -4.2790   21.4170 F   0  0  0  0  0  0  0  0  0  0  0  0
  -21.4680   -3.8300   26.0910 F   0  0  0  0  0  0  0  0  0  0  0  0
  -22.8510  -13.5690   21.0950 C   0  0  0  0  0  0  0  0  0  0  0  0
  -22.1500  -12.8850   21.9940 N   0  0  0  0  0  0  0  0  0  0  0  0
  -22.4020  -14.5950   20.5870 O   0  0  0  0  0  0  0  0  0  0  0  0
  -22.5250  -12.0540   22.4260 H   0  0  0  0  0  0  0  0  0  0  0  0
  -21.2250  -13.2000   22.2550 H   0  0  0  0  0  0  0  0  0  0  0  0
  -25.4670  -15.2010   20.1690 N   0  0  0  0  0  0  0  0  0  0  0  0
  -24.7190  -15.8660   20.3280 H   0  0  0  0  0  0  0  0  0  0  0  0
  -26.3070  -15.6350   19.8030 H   0  0  0  0  0  0  0  0  0  0  0  0
  -28.0320  -24.7100   21.3780 C   0  0  0  0  0  2  0  0  0  0  0  0
  -28.5300  -26.1230   21.0360 C   0  0  0  0  0  2  0  0  0  0  0  0
  -28.0010  -26.5260   19.7750 O   0  0  0  0  0  0  0  0  0  0  0  0
  -24.4440  -31.7260   23.0950 C   0  0  0  0  0  0  0  0  0  0  0  0
  -26.8710  -27.2960   19.8580 C   0  0  0  0  0  0  0  0  0  0  0  0
  -23.1550  -30.4200   21.4310 C   0  0  0  0  0  3  0  0  0  0  0  0
  -24.5280  -28.8580   19.9500 C   0  0  0  0  0  0  0  0  0  0  0  0
  -25.6850  -30.6860   21.2060 C   0  0  0  0  0  2  0  0  0  0  0  0
  -25.7080  -29.3330   20.5360 C   0  0  0  0  0  0  0  0  0  0  0  0
  -26.8840  -28.5570   20.4940 C   0  0  0  0  0  3  0  0  0  0  0  0
  -25.6810  -26.8280   19.2660 C   0  0  0  0  0  3  0  0  0  0  0  0
  -24.5020  -27.5990   19.3200 C   0  0  0  0  0  3  0  0  0  0  0  0
  -23.3180  -29.7600   20.0340 C   0  0  0  0  0  2  0  0  0  0  0  0
  -24.4480  -30.9560   21.9710 N   0  0  0  0  0  0  0  0  0  0  0  0
  -23.3840  -32.0300   23.6600 O   0  0  0  0  0  0  0  0  0  0  0  0
  -22.4740  -29.4070   22.3740 C   0  0  0  0  0  0  0  0  0  0  0  0
  -21.1380  -29.3070   22.2770 N   0  0  0  0  0  0  0  0  0  0  0  0
  -23.1420  -28.7170   23.1500 O   0  0  0  0  0  0  0  0  0  0  0  0
  -20.6660  -29.9070   21.6140 H   0  0  0  0  0  0  0  0  0  0  0  0
  -17.7140  -28.3130   22.8590 C   0  0  0  0  0  0  0  0  0  0  0  0
  -20.2910  -28.3940   23.0410 C   0  0  0  0  0  3  0  0  0  0  0  0
  -20.2810  -26.9850   22.4040 C   0  0  0  0  0  2  0  0  0  0  0  0
  -19.1240  -26.7780   21.4230 C   0  0  0  0  0  2  0  0  0  0  0  0
  -17.7780  -26.9850   22.1230 C   0  0  0  0  0  2  0  0  0  0  0  0
  -18.8950  -28.9800   23.2780 C   0  0  0  0  0  0  0  0  0  0  0  0
  -18.7860  -30.2250   23.9310 C   0  0  0  0  0  3  0  0  0  0  0  0
  -17.5260  -30.8070   24.1650 C   0  0  0  0  0  3  0  0  0  0  0  0
  -16.3580  -30.1360   23.7630 C   0  0  0  0  0  3  0  0  0  0  0  0
  -16.4540  -28.8900   23.1140 C   0  0  0  0  0  3  0  0  0  0  0  0
  -25.7680  -32.2810   23.7110 C   0  0  0  0  0  3  0  0  0  0  0  0
  -25.5220  -33.6790   24.0900 N   0  0  0  0  0  0  0  0  0  0  0  0
  -25.8980  -34.7400   23.3630 C   0  0  0  0  0  0  0  0  0  0  0  0
  -26.5620  -34.6390   22.3270 O   0  0  0  0  0  0  0  0  0  0  0  0
  -24.9250  -33.8360   24.8890 H   0  0  0  0  0  0  0  0  0  0  0  0
  -24.2530  -36.6190   23.0690 C   0  0  0  0  0  1  0  0  0  0  0  0
  -25.4750  -36.1310   23.8630 C   0  0  0  0  0  3  0  0  0  0  0  0
  -27.6510  -36.8880   24.7100 C   0  0  0  0  0  1  0  0  0  0  0  0
  -26.5530  -37.1400   23.7810 N   0  0  0  0  0  0  0  0  0  0  0  0
  -26.1890  -38.0720   23.9660 H   0  0  0  0  0  0  0  0  0  0  0  0
  -26.2770  -31.4470   24.9510 C   0  0  1  0  0  0  0  0  0  0  0  0
  -25.1950  -31.2160   26.0320 C   0  0  0  0  0  1  0  0  0  0  0  0
  -26.7890  -30.0570   24.5020 C   0  0  0  0  0  1  0  0  0  0  0  0
  -27.4820  -32.1620   25.6090 C   0  0  0  0  0  1  0  0  0  0  0  0
  1  2  1  0
  3  4  1  0
  3  5  2  0
  4  1  2  0
  5  6  1  0
  6  2  2  0
  6  7  1  0
  7  8  1  0
 10  9  1  0
 10 11  1  0
 10  4  1  0
 11 14  1  0
 11 13  1  0
 12 11  1  0
 14 15  1  0
 15 16  1  0
 16 25  1  0
 17 25  1  0
 18 23  1  0
 19 20  1  0
 19 18  1  0
 21 20  1  0
 21 30  1  0
 21 22  1  0
 23 17  1  0
 23 22  1  0
 24 17  2  0
 25 26  1  0
 27 28  2  0
 28 47  1  0
 29 28  1  0
 29 32  1  0
 30 27  1  0
 30 31  1  0
 31 29  2  0
 32 33  1  0
 33 34  2  0
 35 38  1  0
 35 34  1  0
 36 35  2  0
 37 36  1  0
 37 32  2  0
 38 39  1  0
 39 40  1  0
 40 41  2  0
 42 41  1  0
 42 46  1  0
 43 42  2  0
 44 39  2  0
 44 43  1  0
 45 44  1  0
 47 48  1  0
 48 51  1  0
 48 50  1  0
 49 47  2  0
 52 53  1  0
 52 27  1  0
 54 52  1  0
 55  5  1  0
 56 55  1  0
 57 59  1  0
 57 56  1  0
 58 69  2  0
 59 64  1  0
 60 68  1  0
 60 70  1  0
 61 67  1  0
 61 63  1  0
 62 68  1  0
 63 62  1  0
 64 63  2  0
 65 66  1  0
 65 59  2  0
 66 61  2  0
 67 60  1  0
 68 58  1  0
 70 72  2  0
 71 70  1  0
 73 71  1  0
 74 83  2  0
 74 79  1  0
 75 71  1  0
 75 79  1  0
 76 75  1  0
 77 78  1  0
 77 76  1  0
 78 74  1  0
 79 80  2  0
 80 81  1  0
 82 81  2  0
 83 82  1  0
 84 58  1  0
 84 85  1  0
 84 94  1  0
 85 88  1  0
 86 90  1  0
 86 85  1  0
 87 86  2  0
 90 89  1  0
 92 90  1  0
 92 93  1  0
 92 91  1  0
 94 97  1  1
 94 95  1  0
 96 94  1  0
M  ISO  4  17 100  25 100  56 101  57 101
M  END
>  <TORSDO>  (21) 
F 24

>  <SCORE>  (21) 
-11.939

>  <name>  (21) 
20

>  <ligand_id>  (21) 
20

>  <original_smiles>  (21) 
[H]Oc1c([H])c([H])c(C([H])(C([H])([H])[H])[N+]([H])([H])C([H])([H])C([H])([H])C([H])([H])N([H])C(=O)N2C([H])([H])C([H])([H])C([H])([H])C([H])(n3nc(-c4c([H])c([H])c(Oc5c([H])c([H])c(F)c([H])c5F)c([H])c4[H])c(C(=O)N([H])[H])c3N([H])[H])C2([H])[H])c([H])c1C([H])([H])C([H])([H])Oc1c([H])c([H])c2c(c1[H])C([H])([H])N(C(=O)C([H])(N([H])C(=O)C([H])(N([H])C([H])([H])[H])C([H])([H])[H])C(C([H])([H])[H])(C([H])([H])[H])C([H])([H])[H])C([H])(C(=O)N([H])C1([H])c3c([H])c([H])c([H])c([H])c3C([H])([H])C([H])([H])C1([H])[H])C2([H])[H]

>  <smiles>  (21) 
[H]Oc1c([H])c([H])c(C([H])(C([H])([H])[H])[N+]([H])([H])C([H])([H])C([H])([H])C([H])([H])N([H])C(=O)N2C([H])([H])C([H])([H])C([H])([H])C([H])(n3nc(-c4c([H])c([H])c(Oc5c([H])c([H])c(F)c([H])c5F)c([H])c4[H])c(C(=O)N([H])[H])c3N([H])[H])C2([H])[H])c([H])c1C([H])([H])C([H])([H])Oc1c([H])c([H])c2c(c1[H])C([H])([H])N(C(=O)C([H])(N([H])C(=O)C([H])(N([H])C([H])([H])[H])C([H])([H])[H])C(C([H])([H])[H])(C([H])([H])[H])C([H])([H])[H])C([H])(C(=O)N([H])C1([H])c3c([H])c([H])c([H])c([H])c3C([H])([H])C([H])([H])C1([H])[H])C2([H])[H]

$$$$
21:0:0
     RDKit          3D

105110  0  0  1  0  0  0  0  0999 V2000
  -18.0990  -28.4410   24.7920 C   0  0  0  0  0  1  0  0  0  0  0  0
  -19.5420  -28.0000   25.6690 C   0  0  0  0  0  2  0  0  0  0  0  0
  -18.6910  -29.9840   22.7000 C   0  0  0  0  0  1  0  0  0  0  0  0
  -21.4280  -29.7130   24.0300 C   0  0  0  0  0  2  0  0  0  0  0  0
  -21.1380  -28.4430   25.2160 C   0  0  0  0  0  3  0  0  0  0  0  0
  -20.4220  -30.2340   22.6040 C   0  0  0  0  0  3  0  0  0  0  0  0
  -22.3290  -26.9320   27.0280 C   0  0  0  0  0  1  0  0  0  0  0  0
  -22.4440  -27.1660   25.5150 C   0  0  0  0  0  3  0  0  0  0  0  0
  -22.8030  -25.5760   24.8630 N   0  0  0  0  0  4  0  0  0  0  0  0
  -22.4430  -24.9610   25.5740 H   0  0  0  0  0  0  0  0  0  0  0  0
  -22.1380  -25.4790   24.1170 H   0  0  0  0  0  0  0  0  0  0  0  0
  -24.1650  -24.7060   24.2360 C   0  0  0  0  0  2  0  0  0  0  0  0
  -24.7600  -22.9060   24.1610 C   0  0  0  0  0  2  0  0  0  0  0  0
  -25.5760  -21.6840   22.9700 C   0  0  0  0  0  2  0  0  0  0  0  0
  -26.7710  -20.4360   23.0610 N   0  0  0  0  0  4  0  0  0  0  0  0
  -26.8120  -20.1800   24.0340 H   0  0  0  0  0  0  0  0  0  0  0  0
  -27.6190  -20.9570   22.9060 H   0  0  0  0  0  0  0  0  0  0  0  0
  -27.0810  -18.9610   22.2100 C   0  0  0  0  0  3  0  0  0  0  0  0
  -28.6020  -17.8700   21.9380 C   0  0  0  0  0  3  0  0  0  0  0  0
  -29.9910  -15.2760   20.8430 C   0  0  0  0  0  0  0  0  0  0  0  0
  -30.3940  -12.9180   19.6430 C   0  0  0  0  0  2  0  0  0  0  0  0
  -29.5440  -12.6400   18.3640 C   0  0  0  0  0  2  0  0  0  0  0  0
  -28.0830  -12.3010   18.7110 C   0  0  0  0  0  2  0  0  0  0  0  0
  -27.5690  -13.2270   19.8360 C   0  0  0  0  0  3  0  0  0  0  0  0
  -28.5100  -13.2440   21.0420 C   0  0  0  0  0  2  0  0  0  0  0  0
  -29.6990  -13.9080   20.5710 N   0  0  0  0  0  0  0  0  0  0  0  0
  -31.1790  -15.5160   20.5170 O   0  0  0  0  0  0  0  0  0  0  0  0
  -28.9350  -16.2620   21.3560 N   0  0  0  0  0  0  0  0  0  0  0  0
  -28.0880  -15.7220   21.4470 H   0  0  0  0  0  0  0  0  0  0  0  0
  -25.2170  -13.8140   20.5550 C   0  0  0  0  0  0  0  0  0  0  0  0
  -24.1520  -13.0410   20.9160 C   0  0  0  0  0  0  0  0  0  0  0  0
  -24.6080  -11.6880   20.8630 C   0  0  0  0  0  0  0  0  0  0  0  0
  -26.2360  -12.9240   20.2850 N   0  0  0  0  0  0  0  0  0  0  0  0
  -25.8920  -11.6410   20.5410 N   0  0  0  0  0  0  0  0  0  0  0  0
  -23.8830  -10.4290   21.0390 C   0  0  0  0  0  0  0  0  0  0  0  0
  -24.3470   -9.4270   21.9190 C   0  0  0  0  0  3  0  0  0  0  0  0
  -23.6240   -8.2260   22.0740 C   0  0  0  0  0  3  0  0  0  0  0  0
  -22.4240   -8.0230   21.3520 C   0  0  0  0  0  0  0  0  0  0  0  0
  -21.9790   -9.0170   20.4650 C   0  0  0  0  0  3  0  0  0  0  0  0
  -22.7010  -10.2100   20.3070 C   0  0  0  0  0  3  0  0  0  0  0  0
  -21.6630   -6.8820   21.4220 O   0  0  0  0  0  0  0  0  0  0  0  0
  -21.6860   -6.0690   22.5270 C   0  0  0  0  0  0  0  0  0  0  0  0
  -21.4010   -6.5620   23.8190 C   0  0  0  0  0  3  0  0  0  0  0  0
  -21.3640   -5.6790   24.9160 C   0  0  0  0  0  3  0  0  0  0  0  0
  -21.6040   -4.3050   24.7230 C   0  0  0  0  0  0  0  0  0  0  0  0
  -21.8830   -3.8120   23.4360 C   0  0  0  0  0  3  0  0  0  0  0  0
  -21.9190   -4.6920   22.3400 C   0  0  0  0  0  0  0  0  0  0  0  0
  -22.1670   -4.2090   21.0990 F   0  0  0  0  0  0  0  0  0  0  0  0
  -21.5620   -3.4550   25.7760 F   0  0  0  0  0  0  0  0  0  0  0  0
  -22.7630  -13.5280   21.1900 C   0  0  0  0  0  0  0  0  0  0  0  0
  -22.0260  -12.8330   22.0470 N   0  0  0  0  0  0  0  0  0  0  0  0
  -22.3390  -14.5600   20.6720 O   0  0  0  0  0  0  0  0  0  0  0  0
  -22.3810  -11.9950   22.4840 H   0  0  0  0  0  0  0  0  0  0  0  0
  -21.0890  -13.1430   22.2610 H   0  0  0  0  0  0  0  0  0  0  0  0
  -25.4030  -15.1860   20.4040 N   0  0  0  0  0  0  0  0  0  0  0  0
  -24.6230  -15.8330   20.4590 H   0  0  0  0  0  0  0  0  0  0  0  0
  -26.2140  -15.5930   19.9590 H   0  0  0  0  0  0  0  0  0  0  0  0
  -20.8750  -31.3100   20.1390 C   0  0  0  0  0  1  0  0  0  0  0  0
  -20.8430  -29.9690   20.9130 C   0  0  0  0  0  3  0  0  0  0  0  0
  -21.3890  -28.6550   19.9690 N   0  0  0  0  0  0  0  0  0  0  0  0
  -20.6170  -28.0070   20.0640 H   0  0  0  0  0  0  0  0  0  0  0  0
  -21.2290  -28.9860   19.0230 H   0  0  0  0  0  0  0  0  0  0  0  0
  -22.7380  -27.6200   19.7130 C   0  0  0  0  0  1  0  0  0  0  0  0
  -24.1570  -26.7770   20.5750 C   0  0  0  0  0  2  0  0  0  0  0  0
  -25.8320  -26.6150   20.6420 O   0  0  0  0  0  0  0  0  0  0  0  0
  -24.6690  -31.8710   23.2540 C   0  0  0  0  0  0  0  0  0  0  0  0
  -26.8060  -27.3780   20.0640 C   0  0  0  0  0  3  0  0  0  0  0  0
  -23.6170  -30.3190   21.6280 C   0  0  0  0  0  3  0  0  0  0  0  0
  -25.0750  -29.3750   19.7890 C   0  0  0  0  0  3  0  0  0  0  0  0
  -26.0830  -30.7960   21.5360 C   0  0  0  0  0  2  0  0  0  0  0  0
  -26.1090  -29.5500   20.6920 C   0  0  0  0  0  0  0  0  0  0  0  0
  -27.0870  -28.5570   20.7790 C   0  0  0  0  0  3  0  0  0  0  0  0
  -26.2270  -27.4640   18.8310 C   0  0  0  0  0  2  0  0  0  0  0  0
  -25.2270  -28.4390   18.7380 C   0  0  0  0  0  2  0  0  0  0  0  0
  -23.8880  -30.2410   20.0720 C   0  0  0  0  0  2  0  0  0  0  0  0
  -24.7850  -31.0290   22.1970 N   0  0  0  0  0  0  0  0  0  0  0  0
  -23.5730  -32.1690   23.7480 O   0  0  0  0  0  0  0  0  0  0  0  0
  -23.3600  -28.9570   22.4270 C   0  0  0  0  0  0  0  0  0  0  0  0
  -22.2130  -28.2100   22.2280 N   0  0  0  0  0  0  0  0  0  0  0  0
  -24.0350  -28.6930   23.3980 O   0  0  0  0  0  0  0  0  0  0  0  0
  -21.9550  -28.4370   21.2790 H   0  0  0  0  0  0  0  0  0  0  0  0
  -18.1630  -27.7000   22.5780 C   0  0  0  0  0  0  0  0  0  0  0  0
  -21.0030  -27.4570   22.8160 C   0  0  0  0  0  3  0  0  0  0  0  0
  -20.6620  -26.2550   22.0320 C   0  0  0  0  0  2  0  0  0  0  0  0
  -19.4670  -26.3500   21.0960 C   0  0  0  0  0  2  0  0  0  0  0  0
  -18.1370  -26.4650   21.8000 C   0  0  0  0  0  2  0  0  0  0  0  0
  -19.6750  -28.1580   23.3140 C   0  0  0  0  0  2  0  0  0  0  0  0
  -19.3070  -30.2290   24.7670 C   0  0  0  0  0  1  0  0  0  0  0  0
  -17.6700  -30.7750   24.6690 C   0  0  0  0  0  3  0  0  0  0  0  0
  -16.5150  -29.9580   23.7490 C   0  0  0  0  0  3  0  0  0  0  0  0
  -16.7300  -28.5730   22.8160 C   0  0  0  0  0  3  0  0  0  0  0  0
  -25.9430  -32.4930   23.8820 C   0  0  0  0  0  3  0  0  0  0  0  0
  -25.6210  -33.8730   24.2570 N   0  0  0  0  0  0  0  0  0  0  0  0
  -25.9090  -34.9530   23.5180 C   0  0  0  0  0  0  0  0  0  0  0  0
  -26.5540  -34.8950   22.4660 O   0  0  0  0  0  0  0  0  0  0  0  0
  -25.0490  -33.9950   25.0780 H   0  0  0  0  0  0  0  0  0  0  0  0
  -24.1480  -36.7320   23.2610 C   0  0  0  0  0  1  0  0  0  0  0  0
  -25.4120  -36.3150   24.0300 C   0  0  0  0  0  3  0  0  0  0  0  0
  -27.5570  -37.1780   24.8430 C   0  0  0  0  0  1  0  0  0  0  0  0
  -26.4330  -37.3800   23.9330 N   0  0  0  0  0  0  0  0  0  0  0  0
  -26.0260  -38.2900   24.1280 H   0  0  0  0  0  0  0  0  0  0  0  0
  -26.4600  -31.6720   25.1250 C   0  0  1  0  0  0  0  0  0  0  0  0
  -25.3660  -31.3900   26.1800 C   0  0  0  0  0  1  0  0  0  0  0  0
  -27.0560  -30.3030   24.7170 C   0  0  0  0  0  1  0  0  0  0  0  0
  -27.6040  -32.4510   25.8090 C   0  0  0  0  0  1  0  0  0  0  0  0
  1  2  1  0
  5  4  1  0
  5  8  1  0
  5  2  1  0
  6  3  1  0
  6  4  1  0
  8  7  1  0
  9  8  1  0
  9 10  1  0
 11  9  1  0
 12  9  1  0
 13 12  1  0
 14 15  1  0
 14 13  1  0
 15 16  1  0
 17 15  1  0
 18 15  1  0
 19 18  2  0
 20 28  1  0
 21 26  1  0
 22 23  1  0
 22 21  1  0
 24 23  1  0
 24 33  1  0
 24 25  1  0
 26 20  1  0
 26 25  1  0
 27 20  2  0
 28 29  1  0
 28 19  1  0
 30 31  2  0
 31 50  1  0
 32 31  1  0
 32 35  1  0
 33 34  1  0
 33 30  1  0
 34 32  2  0
 35 36  1  0
 36 37  2  0
 38 41  1  0
 38 37  1  0
 39 38  2  0
 40 39  1  0
 40 35  2  0
 41 42  1  0
 42 43  1  0
 43 44  2  0
 45 44  1  0
 45 49  1  0
 46 45  2  0
 47 42  2  0
 47 46  1  0
 48 47  1  0
 50 51  1  0
 51 54  1  0
 51 53  1  0
 52 50  2  0
 55 56  1  0
 55 30  1  0
 57 55  1  0
 59 58  1  0
 59  6  1  0
 60 61  1  0
 60 59  1  0
 62 60  1  0
 63 64  1  0
 64 65  1  0
 66 77  2  0
 67 65  1  0
 67 72  1  0
 68 76  1  0
 68 78  1  0
 69 74  1  0
 69 75  1  0
 69 71  1  0
 70 76  1  0
 71 72  2  0
 71 70  1  0
 73 67  1  0
 74 73  1  0
 75 68  1  0
 76 66  1  0
 78 80  2  0
 79 78  1  0
 81 79  1  0
 82 91  2  0
 82 87  1  0
 83 79  1  0
 83 87  1  0
 84 83  1  0
 85 86  1  0
 85 84  1  0
 86 82  1  0
 89 88  1  0
 90 89  2  0
 91 90  1  0
 92 66  1  0
 92 93  1  0
 92102  1  0
 93 96  1  0
 94 98  1  0
 94 93  1  0
 95 94  2  0
 98 97  1  0
100 98  1  0
100101  1  0
100 99  1  0
102105  1  1
102103  1  0
104102  1  0
M  ISO  4  20 100  28 100  64 101  65 101
M  END
>  <TORSDO>  (22) 
F 28

>  <SCORE>  (22) 
51.717

>  <name>  (22) 
21

>  <ligand_id>  (22) 
21

>  <original_smiles>  (22) 
[H]c1c([H])c([H])c2c(c1[H])C([H])([H])C([H])([H])C([H])([H])C2([H])N([H])C(=O)C1([H])N(C(=O)C([H])(N([H])C(=O)C([H])(N([H])C([H])([H])[H])C([H])([H])[H])C(C([H])([H])[H])(C([H])([H])[H])C([H])([H])[H])C([H])([H])c2c([H])c(OC([H])([H])C([H])([H])[N+]([H])([H])C([H])(c3c([H])c([H])c([H])c(C([H])(C([H])([H])[H])[N+]([H])([H])C([H])([H])C([H])([H])C([H])([H])[N+]([H])([H])C([H])([H])C([H])([H])N([H])C(=O)N4C([H])([H])C([H])([H])C([H])([H])C([H])(n5nc(-c6c([H])c([H])c(Oc7c([H])c([H])c(F)c([H])c7F)c([H])c6[H])c(C(=O)N([H])[H])c5N([H])[H])C4([H])[H])c3[H])C([H])([H])[H])c([H])c([H])c2C1([H])[H]

>  <smiles>  (22) 
[H]c1c([H])c([H])c2c(c1[H])C([H])([H])C([H])([H])C([H])([H])C2([H])N([H])C(=O)C1([H])N(C(=O)C([H])(N([H])C(=O)C([H])(N([H])C([H])([H])[H])C([H])([H])[H])C(C([H])([H])[H])(C([H])([H])[H])C([H])([H])[H])C([H])([H])c2c([H])c(OC([H])([H])C([H])([H])[N+]([H])([H])C([H])(c3c([H])c([H])c([H])c(C([H])(C([H])([H])[H])[N+]([H])([H])C([H])([H])C([H])([H])C([H])([H])[N+]([H])([H])C([H])([H])C([H])([H])N([H])C(=O)N4C([H])([H])C([H])([H])C([H])([H])C([H])(n5nc(-c6c([H])c([H])c(Oc7c([H])c([H])c(F)c([H])c7F)c([H])c6[H])c(C(=O)N([H])[H])c5N([H])[H])C4([H])[H])c3[H])C([H])([H])[H])c([H])c([H])c2C1([H])[H]

$$$$
22:0:0
     RDKit          3D

101108  0  0  1  0  0  0  0  0999 V2000
  -26.3810  -19.4290   16.6670 C   0  0  0  0  0  3  0  0  0  0  0  0
  -26.5500  -18.7030   17.9460 N   0  0  0  0  0  4  0  0  0  0  0  0
  -26.6260  -19.3740   18.6920 H   0  0  0  0  0  0  0  0  0  0  0  0
  -25.6740  -18.2240   18.0850 H   0  0  0  0  0  0  0  0  0  0  0  0
  -27.6570  -17.7290   18.0680 C   0  0  0  0  0  2  0  0  0  0  0  0
  -28.8790  -18.3690   18.7370 C   0  0  0  0  0  0  0  0  0  0  0  0
  -29.4870  -17.6910   19.7170 N   0  0  0  0  0  0  0  0  0  0  0  0
  -29.2750  -19.4770   18.3820 O   0  0  0  0  0  0  0  0  0  0  0  0
  -29.1330  -16.7770   19.9600 H   0  0  0  0  0  0  0  0  0  0  0  0
  -30.6460  -18.1750   20.4750 C   0  0  0  0  0  2  0  0  0  0  0  0
  -30.8270  -17.3760   21.7860 C   0  0  0  0  0  2  0  0  0  0  0  0
  -31.2490  -15.1120   20.8380 C   0  0  0  0  0  0  0  0  0  0  0  0
  -30.9090  -13.3260   19.1820 C   0  0  0  0  0  2  0  0  0  0  0  0
  -29.9880  -13.8840   18.0800 C   0  0  0  0  0  2  0  0  0  0  0  0
  -28.4930  -13.7660   18.4590 C   0  0  0  0  0  2  0  0  0  0  0  0
  -28.1870  -14.1880   19.9250 C   0  0  0  0  0  3  0  0  0  0  0  0
  -29.2310  -13.6080   20.9050 C   0  0  0  0  0  2  0  0  0  0  0  0
  -30.5650  -14.0130   20.4340 N   0  0  0  0  0  0  0  0  0  0  0  0
  -32.3630  -15.4190   20.4010 O   0  0  0  0  0  0  0  0  0  0  0  0
  -30.5300  -15.9590   21.5930 N   0  0  0  0  0  0  0  0  0  0  0  0
  -29.6300  -15.6480   21.9330 H   0  0  0  0  0  0  0  0  0  0  0  0
  -25.7340  -14.6900   20.5020 C   0  0  0  0  0  0  0  0  0  0  0  0
  -24.6770  -13.8670   20.7930 C   0  0  0  0  0  0  0  0  0  0  0  0
  -25.1870  -12.5370   20.7540 C   0  0  0  0  0  0  0  0  0  0  0  0
  -26.8220  -13.8490   20.3170 N   0  0  0  0  0  0  0  0  0  0  0  0
  -26.4930  -12.5480   20.5110 N   0  0  0  0  0  0  0  0  0  0  0  0
  -24.4970  -11.2440   20.8850 C   0  0  0  0  0  0  0  0  0  0  0  0
  -24.8620  -10.3110   21.8800 C   0  0  0  0  0  3  0  0  0  0  0  0
  -24.1710   -9.0840   22.0020 C   0  0  0  0  0  3  0  0  0  0  0  0
  -23.1030   -8.7810   21.1220 C   0  0  0  0  0  0  0  0  0  0  0  0
  -22.7550   -9.7060   20.1220 C   0  0  0  0  0  3  0  0  0  0  0  0
  -23.4460  -10.9240   20.0000 C   0  0  0  0  0  3  0  0  0  0  0  0
  -22.3970   -7.6030   21.1420 O   0  0  0  0  0  0  0  0  0  0  0  0
  -22.1050   -6.9600   22.3170 C   0  0  0  0  0  0  0  0  0  0  0  0
  -21.3820   -7.5910   23.3530 C   0  0  0  0  0  3  0  0  0  0  0  0
  -21.0460   -6.8720   24.5160 C   0  0  0  0  0  3  0  0  0  0  0  0
  -21.4200   -5.5180   24.6390 C   0  0  0  0  0  0  0  0  0  0  0  0
  -22.1320   -4.8860   23.6040 C   0  0  0  0  0  3  0  0  0  0  0  0
  -22.4720   -5.6040   22.4460 C   0  0  0  0  0  0  0  0  0  0  0  0
  -23.1410   -4.9860   21.4430 F   0  0  0  0  0  0  0  0  0  0  0  0
  -21.0860   -4.8230   25.7520 F   0  0  0  0  0  0  0  0  0  0  0  0
  -23.2530  -14.2910   21.0140 C   0  0  0  0  0  0  0  0  0  0  0  0
  -22.5190  -13.5690   21.8550 N   0  0  0  0  0  0  0  0  0  0  0  0
  -22.7940  -15.3000   20.4820 O   0  0  0  0  0  0  0  0  0  0  0  0
  -22.8970  -12.7540   22.3140 H   0  0  0  0  0  0  0  0  0  0  0  0
  -21.5630  -13.8360   22.0420 H   0  0  0  0  0  0  0  0  0  0  0  0
  -25.8480  -16.0720   20.3800 N   0  0  0  0  0  0  0  0  0  0  0  0
  -25.0260  -16.5680   20.7110 H   0  0  0  0  0  0  0  0  0  0  0  0
  -26.6960  -16.5270   20.6870 H   0  0  0  0  0  0  0  0  0  0  0  0
  -24.9110  -19.8540   16.6350 C   0  0  0  0  0  3  0  0  0  0  0  0
  -24.2550  -20.1340   17.6430 O   0  0  0  0  0  0  0  0  0  0  0  0
  -27.3220  -20.6560   16.5200 C   0  0  0  0  0  2  0  0  0  0  0  0
  -27.5070  -21.5070   17.7930 C   0  0  0  0  0  2  0  0  0  0  0  0
  -28.6710  -22.5000   17.6870 C   0  0  0  0  0  2  0  0  0  0  0  0
  -29.0190  -23.0990   19.0620 C   0  0  0  0  0  2  0  0  0  0  0  0
  -29.8650  -24.2730   18.9140 N   0  0  0  0  0  4  0  0  0  0  0  0
  -29.4710  -24.8840   18.2140 H   0  0  0  0  0  0  0  0  0  0  0  0
  -30.7730  -24.0140   18.5570 H   0  0  0  0  0  0  0  0  0  0  0  0
  -29.9690  -24.9620   20.2010 C   0  0  0  0  0  2  0  0  0  0  0  0
  -30.3180  -26.4440   19.9950 C   0  0  0  0  0  2  0  0  0  0  0  0
  -29.7150  -27.2440   21.0040 O   0  0  0  0  0  0  0  0  0  0  0  0
  -24.6870  -31.6120   23.3960 C   0  0  0  0  0  0  0  0  0  0  0  0
  -28.4240  -27.6890   20.8080 C   0  0  0  0  0  0  0  0  0  0  0  0
  -23.9570  -30.0300   21.6380 C   0  0  0  0  0  3  0  0  0  0  0  0
  -25.8230  -28.7430   20.4680 C   0  0  0  0  0  0  0  0  0  0  0  0
  -26.3900  -30.7980   21.7760 C   0  0  0  0  0  2  0  0  0  0  0  0
  -26.7810  -29.4570   21.1980 C   0  0  0  0  0  0  0  0  0  0  0  0
  -28.0730  -28.9260   21.3820 C   0  0  0  0  0  3  0  0  0  0  0  0
  -27.4470  -26.9740   20.0720 C   0  0  0  0  0  3  0  0  0  0  0  0
  -26.1490  -27.4940   19.9090 C   0  0  0  0  0  3  0  0  0  0  0  0
  -24.4630  -29.3800   20.3210 C   0  0  0  0  0  2  0  0  0  0  0  0
  -25.0190  -30.8290   22.3320 N   0  0  0  0  0  0  0  0  0  0  0  0
  -23.5130  -31.7090   23.7790 O   0  0  0  0  0  0  0  0  0  0  0  0
  -23.3460  -28.9220   22.5260 C   0  0  0  0  0  0  0  0  0  0  0  0
  -22.1270  -28.4790   22.1760 N   0  0  0  0  0  0  0  0  0  0  0  0
  -23.9720  -28.4600   23.4820 O   0  0  0  0  0  0  0  0  0  0  0  0
  -21.6760  -28.9150   21.3860 H   0  0  0  0  0  0  0  0  0  0  0  0
  -19.0200  -26.6440   22.1150 C   0  0  0  0  0  0  0  0  0  0  0  0
  -21.3750  -27.4170   22.8400 C   0  0  0  0  0  3  0  0  0  0  0  0
  -21.8650  -26.0230   22.3830 C   0  0  0  0  0  2  0  0  0  0  0  0
  -21.0630  -25.4590   21.2040 C   0  0  0  0  0  2  0  0  0  0  0  0
  -19.5810  -25.3400   21.5710 C   0  0  0  0  0  2  0  0  0  0  0  0
  -19.8650  -27.6240   22.6970 C   0  0  0  0  0  0  0  0  0  0  0  0
  -19.2970  -28.8340   23.1520 C   0  0  0  0  0  3  0  0  0  0  0  0
  -17.9130  -29.0670   23.0390 C   0  0  0  0  0  3  0  0  0  0  0  0
  -17.0790  -28.0850   22.4780 C   0  0  0  0  0  3  0  0  0  0  0  0
  -17.6310  -26.8750   22.0220 C   0  0  0  0  0  3  0  0  0  0  0  0
  -25.7620  -32.4390   24.1700 C   0  0  0  0  0  3  0  0  0  0  0  0
  -25.2530  -33.8110   24.3010 N   0  0  0  0  0  0  0  0  0  0  0  0
  -25.6110  -34.8330   23.5100 C   0  0  0  0  0  0  0  0  0  0  0  0
  -26.4660  -34.7280   22.6280 O   0  0  0  0  0  0  0  0  0  0  0  0
  -24.5100  -33.9570   24.9680 H   0  0  0  0  0  0  0  0  0  0  0  0
  -23.8000  -36.3640   22.6780 C   0  0  0  0  0  1  0  0  0  0  0  0
  -24.9040  -36.1820   23.7320 C   0  0  0  0  0  3  0  0  0  0  0  0
  -26.7420  -37.3830   24.8300 C   0  0  0  0  0  1  0  0  0  0  0  0
  -25.8210  -37.3410   23.6960 N   0  0  0  0  0  0  0  0  0  0  0  0
  -25.2980  -38.2130   23.6810 H   0  0  0  0  0  0  0  0  0  0  0  0
  -26.1100  -31.8360   25.5860 C   0  0  1  0  0  0  0  0  0  0  0  0
  -24.8670  -31.5090   26.4460 C   0  0  0  0  0  1  0  0  0  0  0  0
  -26.9360  -30.5400   25.4350 C   0  0  0  0  0  1  0  0  0  0  0  0
  -26.9880  -32.8330   26.3780 C   0  0  0  0  0  1  0  0  0  0  0  0
  1 52  1  0
  1  2  1  0
  2  5  1  0
  2  4  1  0
  2  3  1  0
  5  6  1  0
  6  7  1  0
  7  9  1  0
  7 10  1  0
  8  6  2  0
 10 11  1  0
 12 20  1  0
 13 18  1  0
 14 15  1  0
 14 13  1  0
 16 15  1  0
 16 25  1  0
 16 17  1  0
 18 12  1  0
 18 17  1  0
 19 12  2  0
 20 11  1  0
 20 21  1  0
 22 23  2  0
 23 42  1  0
 24 23  1  0
 24 27  1  0
 25 22  1  0
 25 26  1  0
 26 24  2  0
 27 28  1  0
 28 29  2  0
 30 33  1  0
 30 29  1  0
 31 30  2  0
 32 31  1  0
 32 27  2  0
 33 34  1  0
 34 39  2  0
 34 35  1  0
 35 36  2  0
 36 37  1  0
 37 41  1  0
 38 37  2  0
 39 38  1  0
 40 39  1  0
 42 43  1  0
 43 46  1  0
 43 45  1  0
 44 42  2  0
 47 22  1  0
 47 49  1  0
 47 48  1  0
 50  1  1  0
 50 51  2  0
 52 53  1  0
 54 53  1  0
 54 55  1  0
 56 55  1  0
 56 59  1  0
 57 56  1  0
 58 56  1  0
 60 59  1  0
 60 61  1  0
 62 73  2  0
 63 61  1  0
 63 68  1  0
 64 72  1  0
 64 74  1  0
 65 67  1  0
 66 72  1  0
 67 68  2  0
 67 66  1  0
 69 63  2  0
 70 69  1  0
 70 65  2  0
 71 65  1  0
 71 64  1  0
 72 62  1  0
 74 76  2  0
 75 74  1  0
 77 75  1  0
 78 83  1  0
 79 75  1  0
 80 79  1  0
 81 82  1  0
 81 80  1  0
 82 78  1  0
 83 79  1  0
 83 84  2  0
 85 84  1  0
 86 85  2  0
 87 78  2  0
 87 86  1  0
 88 62  1  0
 88 89  1  0
 88 98  1  0
 89 92  1  0
 90 94  1  0
 90 89  1  0
 91 90  2  0
 94 93  1  0
 96 94  1  0
 96 95  1  0
 97 96  1  0
 98101  1  1
 98 99  1  0
100 98  1  0
M  ISO  4  12 100  20 100  60 101  61 101
M  END
>  <TORSDO>  (23) 
F 29

>  <SCORE>  (23) 
-6.444

>  <name>  (23) 
22

>  <ligand_id>  (23) 
22

>  <original_smiles>  (23) 
[H]C(=O)C([H])(C([H])([H])C([H])([H])C([H])([H])C([H])([H])[N+]([H])([H])C([H])([H])C([H])([H])Oc1c([H])c([H])c2c(c1[H])C([H])([H])N(C(=O)C([H])(N([H])C(=O)C([H])(N([H])C([H])([H])[H])C([H])([H])[H])C(C([H])([H])[H])(C([H])([H])[H])C([H])([H])[H])C([H])(C(=O)N([H])C1([H])c3c([H])c([H])c([H])c([H])c3C([H])([H])C([H])([H])C1([H])[H])C2([H])[H])[N+]([H])([H])C([H])([H])C(=O)N([H])C([H])([H])C([H])([H])N([H])C(=O)N1C([H])([H])C([H])([H])C([H])([H])C([H])(n2nc(-c3c([H])c([H])c(Oc4c([H])c([H])c(F)c([H])c4F)c([H])c3[H])c(C(=O)N([H])[H])c2N([H])[H])C1([H])[H]

>  <smiles>  (23) 
[H]C(=O)C([H])(C([H])([H])C([H])([H])C([H])([H])C([H])([H])[N+]([H])([H])C([H])([H])C([H])([H])Oc1c([H])c([H])c2c(c1[H])C([H])([H])N(C(=O)C([H])(N([H])C(=O)C([H])(N([H])C([H])([H])[H])C([H])([H])[H])C(C([H])([H])[H])(C([H])([H])[H])C([H])([H])[H])C([H])(C(=O)N([H])C1([H])c3c([H])c([H])c([H])c([H])c3C([H])([H])C([H])([H])C1([H])[H])C2([H])[H])[N+]([H])([H])C([H])([H])C(=O)N([H])C([H])([H])C([H])([H])N([H])C(=O)N1C([H])([H])C([H])([H])C([H])([H])C([H])(n2nc(-c3c([H])c([H])c(Oc4c([H])c([H])c(F)c([H])c4F)c([H])c3[H])c(C(=O)N([H])[H])c2N([H])[H])C1([H])[H]

$$$$
23:0:0
     RDKit          3D

100108  0  0  1  0  0  0  0  0999 V2000
  -29.8690  -19.4970   18.9280 C   0  0  0  0  0  3  0  0  0  0  0  0
  -29.4870  -18.2090   16.8940 C   0  0  0  0  0  3  0  0  0  0  0  0
  -29.6710  -20.6340   16.7740 C   0  0  0  0  0  3  0  0  0  0  0  0
  -29.6740  -18.2470   18.2960 C   0  0  0  0  0  0  0  0  0  0  0  0
  -29.8520  -20.6900   18.1720 C   0  0  0  0  0  0  0  0  0  0  0  0
  -29.4920  -19.3940   16.1360 C   0  0  0  0  0  0  0  0  0  0  0  0
  -29.3040  -19.3450   14.7560 N   0  0  0  0  0  0  0  0  0  0  0  0
  -29.3200  -18.4630   14.2520 H   0  0  0  0  0  0  0  0  0  0  0  0
  -29.4750  -20.1620   14.1760 H   0  0  0  0  0  0  0  0  0  0  0  0
  -29.5960  -16.9730   19.0640 C   0  0  0  0  0  0  0  0  0  0  0  0
  -29.1900  -15.9340   18.5330 O   0  0  0  0  0  0  0  0  0  0  0  0
  -30.0160  -16.9500   20.5550 C   0  0  0  0  0  2  0  0  0  0  0  0
  -30.7000  -14.5880   20.8910 C   0  0  0  0  0  0  0  0  0  0  0  0
  -30.5470  -12.3670   19.8610 C   0  0  0  0  0  2  0  0  0  0  0  0
  -29.6930  -12.5020   18.5820 C   0  0  0  0  0  2  0  0  0  0  0  0
  -28.1900  -12.3730   18.9040 C   0  0  0  0  0  2  0  0  0  0  0  0
  -27.7460  -13.2530   20.1020 C   0  0  0  0  0  3  0  0  0  0  0  0
  -28.7220  -13.0870   21.2930 C   0  0  0  0  0  2  0  0  0  0  0  0
  -30.0840  -13.3820   20.8150 N   0  0  0  0  0  0  0  0  0  0  0  0
  -31.8590  -14.7950   20.5230 O   0  0  0  0  0  0  0  0  0  0  0  0
  -29.8680  -15.6080   21.1410 N   0  0  0  0  0  0  0  0  0  0  0  0
  -28.9330  -15.3440   21.4140 H   0  0  0  0  0  0  0  0  0  0  0  0
  -25.2950  -13.8570   20.6100 C   0  0  0  0  0  0  0  0  0  0  0  0
  -24.2090  -13.0810   20.9190 C   0  0  0  0  0  0  0  0  0  0  0  0
  -24.6850  -11.7350   20.9550 C   0  0  0  0  0  0  0  0  0  0  0  0
  -26.3630  -12.9800   20.4830 N   0  0  0  0  0  0  0  0  0  0  0  0
  -25.9940  -11.7020   20.7470 N   0  0  0  0  0  0  0  0  0  0  0  0
  -23.9630  -10.4670   21.1210 C   0  0  0  0  0  0  0  0  0  0  0  0
  -24.3460   -9.5240   22.0990 C   0  0  0  0  0  3  0  0  0  0  0  0
  -23.6250   -8.3210   22.2530 C   0  0  0  0  0  3  0  0  0  0  0  0
  -22.5070   -8.0520   21.4270 C   0  0  0  0  0  0  0  0  0  0  0  0
  -22.1450   -8.9850   20.4390 C   0  0  0  0  0  3  0  0  0  0  0  0
  -22.8670  -10.1800   20.2840 C   0  0  0  0  0  3  0  0  0  0  0  0
  -21.7640   -6.8990   21.4840 O   0  0  0  0  0  0  0  0  0  0  0  0
  -21.6520   -6.1730   22.6430 C   0  0  0  0  0  0  0  0  0  0  0  0
  -21.1360   -6.7410   23.8290 C   0  0  0  0  0  3  0  0  0  0  0  0
  -20.9720   -5.9420   24.9770 C   0  0  0  0  0  3  0  0  0  0  0  0
  -21.3150   -4.5760   24.9420 C   0  0  0  0  0  0  0  0  0  0  0  0
  -21.8240   -4.0100   23.7600 C   0  0  0  0  0  3  0  0  0  0  0  0
  -21.9890   -4.8060   22.6130 C   0  0  0  0  0  0  0  0  0  0  0  0
  -22.4590   -4.2490   21.4710 F   0  0  0  0  0  0  0  0  0  0  0  0
  -21.1510   -3.8060   26.0430 F   0  0  0  0  0  0  0  0  0  0  0  0
  -22.7910  -13.5460   21.0760 C   0  0  0  0  0  0  0  0  0  0  0  0
  -22.0100  -12.8600   21.9040 N   0  0  0  0  0  0  0  0  0  0  0  0
  -22.3780  -14.5510   20.5000 O   0  0  0  0  0  0  0  0  0  0  0  0
  -22.3550  -12.0460   22.3900 H   0  0  0  0  0  0  0  0  0  0  0  0
  -21.0560  -13.1550   22.0540 H   0  0  0  0  0  0  0  0  0  0  0  0
  -25.4620  -15.2240   20.4090 N   0  0  0  0  0  0  0  0  0  0  0  0
  -24.6870  -15.8780   20.4400 H   0  0  0  0  0  0  0  0  0  0  0  0
  -26.3230  -15.6470   20.0850 H   0  0  0  0  0  0  0  0  0  0  0  0
  -29.9970  -22.0380   18.8580 C   0  0  0  0  0  2  0  0  0  0  0  0
  -29.0770  -22.1810   20.0830 C   0  0  0  0  0  2  0  0  0  0  0  0
  -28.9640  -23.6350   20.5570 C   0  0  0  0  0  2  0  0  0  0  0  0
  -28.2160  -23.7730   21.8960 C   0  0  0  0  0  2  0  0  0  0  0  0
  -27.7000  -25.1390   22.1440 N   0  0  0  0  0  4  0  0  0  0  0  0
  -27.0480  -25.0690   22.9120 H   0  0  0  0  0  0  0  0  0  0  0  0
  -27.1740  -25.4540   21.3410 H   0  0  0  0  0  0  0  0  0  0  0  0
  -28.6880  -26.1890   22.4940 C   0  0  0  0  0  2  0  0  0  0  0  0
  -29.3270  -26.8620   21.2590 C   0  0  0  0  0  2  0  0  0  0  0  0
  -28.4480  -26.8350   20.1270 O   0  0  0  0  0  0  0  0  0  0  0  0
  -24.5980  -31.9480   23.2640 C   0  0  0  0  0  0  0  0  0  0  0  0
  -27.2990  -27.5890   20.1710 C   0  0  0  0  0  0  0  0  0  0  0  0
  -23.3980  -30.5470   21.6100 C   0  0  0  0  0  3  0  0  0  0  0  0
  -24.8700  -29.0290   20.1830 C   0  0  0  0  0  0  0  0  0  0  0  0
  -25.9120  -30.9430   21.4080 C   0  0  0  0  0  2  0  0  0  0  0  0
  -26.0150  -29.5740   20.7760 C   0  0  0  0  0  0  0  0  0  0  0  0
  -27.2290  -28.8630   20.7770 C   0  0  0  0  0  3  0  0  0  0  0  0
  -26.1450  -27.0490   19.5680 C   0  0  0  0  0  3  0  0  0  0  0  0
  -24.9290  -27.7590   19.5770 C   0  0  0  0  0  3  0  0  0  0  0  0
  -23.6130  -29.8670   20.2280 C   0  0  0  0  0  2  0  0  0  0  0  0
  -24.6550  -31.1600   22.1540 N   0  0  0  0  0  0  0  0  0  0  0  0
  -23.5170  -32.2090   23.8090 O   0  0  0  0  0  0  0  0  0  0  0  0
  -22.7600  -29.5170   22.5670 C   0  0  0  0  0  0  0  0  0  0  0  0
  -21.4390  -29.3170   22.4340 N   0  0  0  0  0  0  0  0  0  0  0  0
  -23.4510  -28.8970   23.3820 O   0  0  0  0  0  0  0  0  0  0  0  0
  -20.9390  -29.8800   21.7590 H   0  0  0  0  0  0  0  0  0  0  0  0
  -18.0840  -28.0690   22.8930 C   0  0  0  0  0  0  0  0  0  0  0  0
  -20.6330  -28.3650   23.1950 C   0  0  0  0  0  3  0  0  0  0  0  0
  -20.7660  -26.9370   22.6190 C   0  0  0  0  0  2  0  0  0  0  0  0
  -19.6790  -26.5910   21.5960 C   0  0  0  0  0  2  0  0  0  0  0  0
  -18.2870  -26.7200   22.2230 C   0  0  0  0  0  2  0  0  0  0  0  0
  -19.1840  -28.8470   23.3360 C   0  0  0  0  0  0  0  0  0  0  0  0
  -18.9410  -30.1090   23.9200 C   0  0  0  0  0  3  0  0  0  0  0  0
  -17.6270  -30.5930   24.0630 C   0  0  0  0  0  3  0  0  0  0  0  0
  -16.5390  -29.8120   23.6350 C   0  0  0  0  0  3  0  0  0  0  0  0
  -16.7700  -28.5510   23.0570 C   0  0  0  0  0  3  0  0  0  0  0  0
  -25.8840  -32.5830   23.8840 C   0  0  0  0  0  3  0  0  0  0  0  0
  -26.4050  -31.8130   25.1600 C   0  0  1  0  0  0  0  0  0  0  0  0
  -25.3120  -31.5740   26.2300 C   0  0  0  0  0  1  0  0  0  0  0  0
  -26.9930  -30.4370   24.7660 C   0  0  0  0  0  1  0  0  0  0  0  0
  -27.5530  -32.6120   25.8210 C   0  0  0  0  0  1  0  0  0  0  0  0
  -25.5740  -33.9820   24.2070 N   0  0  0  0  0  0  0  0  0  0  0  0
  -25.9160  -35.0300   23.4480 C   0  0  0  0  0  0  0  0  0  0  0  0
  -26.5980  -34.9240   22.4230 O   0  0  0  0  0  0  0  0  0  0  0  0
  -24.9630  -34.1410   24.9950 H   0  0  0  0  0  0  0  0  0  0  0  0
  -24.1940  -36.8230   23.0620 C   0  0  0  0  0  1  0  0  0  0  0  0
  -25.4230  -36.4210   23.8940 C   0  0  0  0  0  3  0  0  0  0  0  0
  -27.5450  -37.2990   24.7580 C   0  0  0  0  0  1  0  0  0  0  0  0
  -26.4590  -37.4720   23.7980 N   0  0  0  0  0  0  0  0  0  0  0  0
  -26.0540  -38.3920   23.9410 H   0  0  0  0  0  0  0  0  0  0  0  0
  2  4  2  0
  3  5  1  0
  4  1  1  0
  4 10  1  0
  5 51  1  0
  5  1  2  0
  6  3  2  0
  6  2  1  0
  7  6  1  0
  8  7  1  0
  9  7  1  0
 10 12  1  0
 11 10  2  0
 12 21  1  0
 13 21  1  0
 14 19  1  0
 15 16  1  0
 15 14  1  0
 17 16  1  0
 17 26  1  0
 17 18  1  0
 19 13  1  0
 19 18  1  0
 20 13  2  0
 21 22  1  0
 23 24  2  0
 24 25  1  0
 24 43  1  0
 25 28  1  0
 26 23  1  0
 26 27  1  0
 27 25  2  0
 28 29  1  0
 29 30  2  0
 31 34  1  0
 31 30  1  0
 32 31  2  0
 33 32  1  0
 33 28  2  0
 34 35  1  0
 35 36  1  0
 36 37  2  0
 38 37  1  0
 38 42  1  0
 39 38  2  0
 40 35  2  0
 40 39  1  0
 41 40  1  0
 43 44  1  0
 44 47  1  0
 44 46  1  0
 45 43  2  0
 48 49  1  0
 48 23  1  0
 50 48  1  0
 51 52  1  0
 52 53  1  0
 53 54  1  0
 54 55  1  0
 55 58  1  0
 55 56  1  0
 57 55  1  0
 59 58  1  0
 60 62  1  0
 60 59  1  0
 61 72  2  0
 62 67  1  0
 63 71  1  0
 63 73  1  0
 64 70  1  0
 64 66  1  0
 65 71  1  0
 66 67  2  0
 66 65  1  0
 68 69  1  0
 68 62  2  0
 69 64  2  0
 70 63  1  0
 71 61  1  0
 73 75  2  0
 74 73  1  0
 76 74  1  0
 77 86  2  0
 77 82  1  0
 78 74  1  0
 78 82  1  0
 79 78  1  0
 80 81  1  0
 80 79  1  0
 81 77  1  0
 82 83  2  0
 83 84  1  0
 85 84  2  0
 86 85  1  0
 87 61  1  0
 87 92  1  0
 87 88  1  0
 88 91  1  1
 88 89  1  0
 90 88  1  0
 92 95  1  0
 93 97  1  0
 93 92  1  0
 94 93  2  0
 97 96  1  0
 99 97  1  0
 99100  1  0
 99 98  1  0
M  ISO  4  13 100  21 100  59 101  60 101
M  END
>  <TORSDO>  (24) 
F 26

>  <SCORE>  (24) 
-11.728

>  <name>  (24) 
23

>  <ligand_id>  (24) 
23

>  <original_smiles>  (24) 
[H]c1c([H])c([H])c2c(c1[H])C([H])([H])C([H])([H])C([H])([H])C2([H])N([H])C(=O)C1([H])N(C(=O)C([H])(N([H])C(=O)C([H])(N([H])C([H])([H])[H])C([H])([H])[H])C(C([H])([H])[H])(C([H])([H])[H])C([H])([H])[H])C([H])([H])c2c([H])c(OC([H])([H])C([H])([H])[N+]([H])([H])C([H])([H])C([H])([H])C([H])([H])C([H])([H])c3c([H])c(C(=O)C([H])([H])N([H])C(=O)N4C([H])([H])C([H])([H])C([H])([H])C([H])(n5nc(-c6c([H])c([H])c(Oc7c([H])c([H])c(F)c([H])c7F)c([H])c6[H])c(C(=O)N([H])[H])c5N([H])[H])C4([H])[H])c([H])c(N([H])[H])c3[H])c([H])c([H])c2C1([H])[H]

>  <smiles>  (24) 
[H]c1c([H])c([H])c2c(c1[H])C([H])([H])C([H])([H])C([H])([H])C2([H])N([H])C(=O)C1([H])N(C(=O)C([H])(N([H])C(=O)C([H])(N([H])C([H])([H])[H])C([H])([H])[H])C(C([H])([H])[H])(C([H])([H])[H])C([H])([H])[H])C([H])([H])c2c([H])c(OC([H])([H])C([H])([H])[N+]([H])([H])C([H])([H])C([H])([H])C([H])([H])C([H])([H])c3c([H])c(C(=O)C([H])([H])N([H])C(=O)N4C([H])([H])C([H])([H])C([H])([H])C([H])(n5nc(-c6c([H])c([H])c(Oc7c([H])c([H])c(F)c([H])c7F)c([H])c6[H])c(C(=O)N([H])[H])c5N([H])[H])C4([H])[H])c([H])c(N([H])[H])c3[H])c([H])c([H])c2C1([H])[H]

$$$$
24:0:0
     RDKit          3D

 96104  0  0  1  0  0  0  0  0999 V2000
  -28.9230  -22.6110   22.0000 C   0  0  0  0  0  3  0  0  0  0  0  0
  -27.7090  -22.9890   19.9300 C   0  0  0  0  0  3  0  0  0  0  0  0
  -29.2630  -23.9790   22.0500 C   0  0  0  0  0  3  0  0  0  0  0  0
  -28.0450  -24.3600   19.9820 C   0  0  0  0  0  3  0  0  0  0  0  0
  -28.1680  -22.0860   20.9210 C   0  0  0  0  0  0  0  0  0  0  0  0
  -28.8410  -24.8640   21.0360 C   0  0  0  0  0  0  0  0  0  0  0  0
  -27.8360  -20.6230   20.8010 C   0  0  0  0  0  0  0  0  0  0  0  0
  -26.8510  -20.2160   20.1730 O   0  0  0  0  0  0  0  0  0  0  0  0
  -28.7640  -19.5840   21.4570 C   0  0  0  0  0  2  0  0  0  0  0  0
  -30.1050  -19.6340   20.8240 N   0  0  0  0  0  4  0  0  0  0  0  0
  -30.4130  -20.5920   20.8030 H   0  0  0  0  0  0  0  0  0  0  0  0
  -30.0070  -19.3290   19.8670 H   0  0  0  0  0  0  0  0  0  0  0  0
  -31.1530  -18.8110   21.4790 C   0  0  0  0  0  2  0  0  0  0  0  0
  -32.2320  -18.3570   20.4690 C   0  0  0  0  0  2  0  0  0  0  0  0
  -32.5530  -16.8360   20.5170 C   0  0  0  0  0  2  0  0  0  0  0  0
  -34.1390  -15.1020   19.3660 C   0  0  0  0  0  0  0  0  0  0  0  0
  -33.6720  -12.7470   18.7890 C   0  0  0  0  0  2  0  0  0  0  0  0
  -32.7570  -12.6360   17.5490 C   0  0  0  0  0  2  0  0  0  0  0  0
  -31.2660  -12.7400   17.9320 C   0  0  0  0  0  2  0  0  0  0  0  0
  -30.9870  -13.9250   18.8950 C   0  0  0  0  0  3  0  0  0  0  0  0
  -31.9940  -13.8940   20.0660 C   0  0  0  0  0  2  0  0  0  0  0  0
  -33.3500  -13.9950   19.5000 N   0  0  0  0  0  0  0  0  0  0  0  0
  -35.1950  -15.0840   18.7290 O   0  0  0  0  0  0  0  0  0  0  0  0
  -33.8130  -16.2490   20.0080 N   0  0  0  0  0  0  0  0  0  0  0  0
  -34.5910  -16.8930   20.0060 H   0  0  0  0  0  0  0  0  0  0  0  0
  -28.7340  -14.9780   19.5740 C   0  0  0  0  0  0  0  0  0  0  0  0
  -27.5460  -14.4160   19.9710 C   0  0  0  0  0  0  0  0  0  0  0  0
  -27.7680  -13.0060   19.9880 C   0  0  0  0  0  0  0  0  0  0  0  0
  -29.6040  -13.9180   19.3710 N   0  0  0  0  0  0  0  0  0  0  0  0
  -29.0260  -12.7290   19.6740 N   0  0  0  0  0  0  0  0  0  0  0  0
  -26.8420  -11.8930   20.2250 C   0  0  0  0  0  0  0  0  0  0  0  0
  -26.9420  -11.0910   21.3830 C   0  0  0  0  0  3  0  0  0  0  0  0
  -26.0300  -10.0350   21.6030 C   0  0  0  0  0  3  0  0  0  0  0  0
  -25.0030   -9.7790   20.6650 C   0  0  0  0  0  0  0  0  0  0  0  0
  -24.9230  -10.5660   19.5030 C   0  0  0  0  0  3  0  0  0  0  0  0
  -25.8340  -11.6120   19.2820 C   0  0  0  0  0  3  0  0  0  0  0  0
  -24.0920   -8.7570   20.7800 O   0  0  0  0  0  0  0  0  0  0  0  0
  -23.4440   -8.5020   21.9600 C   0  0  0  0  0  0  0  0  0  0  0  0
  -22.6220   -9.4640   22.5890 C   0  0  0  0  0  3  0  0  0  0  0  0
  -21.9220   -9.1310   23.7670 C   0  0  0  0  0  3  0  0  0  0  0  0
  -22.0350   -7.8360   24.3120 C   0  0  0  0  0  0  0  0  0  0  0  0
  -22.8530   -6.8790   23.6840 C   0  0  0  0  0  3  0  0  0  0  0  0
  -23.5530   -7.2100   22.5130 C   0  0  0  0  0  0  0  0  0  0  0  0
  -24.3220   -6.2760   21.8980 F   0  0  0  0  0  0  0  0  0  0  0  0
  -21.3640   -7.5100   25.4390 F   0  0  0  0  0  0  0  0  0  0  0  0
  -26.2520  -15.1360   20.2240 C   0  0  0  0  0  0  0  0  0  0  0  0
  -25.4300  -14.6110   21.1290 N   0  0  0  0  0  0  0  0  0  0  0  0
  -25.9860  -16.1940   19.6590 O   0  0  0  0  0  0  0  0  0  0  0  0
  -25.6610  -13.7490   21.6030 H   0  0  0  0  0  0  0  0  0  0  0  0
  -24.5630  -15.0780   21.3550 H   0  0  0  0  0  0  0  0  0  0  0  0
  -29.1320  -16.2930   19.3500 N   0  0  0  0  0  0  0  0  0  0  0  0
  -28.4940  -17.0700   19.4670 H   0  0  0  0  0  0  0  0  0  0  0  0
  -30.0130  -16.5550   18.9280 H   0  0  0  0  0  0  0  0  0  0  0  0
  -29.1600  -26.3580   21.1120 C   0  0  0  0  0  2  0  0  0  0  0  0
  -30.0170  -26.9170   19.9500 C   0  0  0  0  0  2  0  0  0  0  0  0
  -29.7720  -28.3260   19.7620 O   0  0  0  0  0  0  0  0  0  0  0  0
  -24.7960  -31.5360   23.7040 C   0  0  0  0  0  0  0  0  0  0  0  0
  -28.4540  -28.7170   19.8560 C   0  0  0  0  0  0  0  0  0  0  0  0
  -23.9700  -30.2340   21.7710 C   0  0  0  0  0  3  0  0  0  0  0  0
  -25.7430  -29.4770   20.1030 C   0  0  0  0  0  0  0  0  0  0  0  0
  -26.2940  -31.2960   21.7270 C   0  0  0  0  0  2  0  0  0  0  0  0
  -26.7320  -30.1650   20.8200 C   0  0  0  0  0  0  0  0  0  0  0  0
  -28.0920  -29.7970   20.6930 C   0  0  0  0  0  3  0  0  0  0  0  0
  -27.4450  -28.0480   19.1300 C   0  0  0  0  0  3  0  0  0  0  0  0
  -26.0950  -28.4140   19.2570 C   0  0  0  0  0  3  0  0  0  0  0  0
  -24.3170  -29.9380   20.2870 C   0  0  0  0  0  2  0  0  0  0  0  0
  -25.0350  -31.0290   22.4620 N   0  0  0  0  0  0  0  0  0  0  0  0
  -23.6970  -31.3880   24.2550 O   0  0  0  0  0  0  0  0  0  0  0  0
  -23.6540  -28.8970   22.4770 C   0  0  0  0  0  0  0  0  0  0  0  0
  -22.4560  -28.3510   22.2070 N   0  0  0  0  0  0  0  0  0  0  0  0
  -24.4770  -28.3640   23.2260 O   0  0  0  0  0  0  0  0  0  0  0  0
  -21.8310  -28.8720   21.6060 H   0  0  0  0  0  0  0  0  0  0  0  0
  -19.6370  -26.0860   22.1640 C   0  0  0  0  0  0  0  0  0  0  0  0
  -21.9580  -27.0750   22.7160 C   0  0  0  0  0  3  0  0  0  0  0  0
  -22.5430  -25.8950   21.9080 C   0  0  0  0  0  2  0  0  0  0  0  0
  -21.6360  -25.4350   20.7610 C   0  0  0  0  0  2  0  0  0  0  0  0
  -20.2670  -25.0090   21.2980 C   0  0  0  0  0  2  0  0  0  0  0  0
  -20.4290  -27.0670   22.8160 C   0  0  0  0  0  0  0  0  0  0  0  0
  -19.7910  -28.0690   23.5800 C   0  0  0  0  0  3  0  0  0  0  0  0
  -18.3870  -28.1030   23.6890 C   0  0  0  0  0  3  0  0  0  0  0  0
  -17.6090  -27.1220   23.0500 C   0  0  0  0  0  3  0  0  0  0  0  0
  -18.2340  -26.1140   22.2960 C   0  0  0  0  0  3  0  0  0  0  0  0
  -25.8840  -32.3420   24.4810 C   0  0  0  0  0  3  0  0  0  0  0  0
  -25.3390  -33.6820   24.7360 N   0  0  0  0  0  0  0  0  0  0  0  0
  -25.6540  -34.7750   24.0260 C   0  0  0  0  0  0  0  0  0  0  0  0
  -26.5030  -34.7720   23.1290 O   0  0  0  0  0  0  0  0  0  0  0  0
  -24.6000  -33.7470   25.4190 H   0  0  0  0  0  0  0  0  0  0  0  0
  -23.7830  -36.3130   23.3480 C   0  0  0  0  0  1  0  0  0  0  0  0
  -24.9090  -36.0800   24.3680 C   0  0  0  0  0  3  0  0  0  0  0  0
  -26.7380  -37.2360   25.5300 C   0  0  0  0  0  1  0  0  0  0  0  0
  -25.7940  -37.2650   24.4150 N   0  0  0  0  0  0  0  0  0  0  0  0
  -25.2480  -38.1180   24.4850 H   0  0  0  0  0  0  0  0  0  0  0  0
  -26.3290  -31.6520   25.8270 C   0  0  1  0  0  0  0  0  0  0  0  0
  -25.1460  -31.2390   26.7320 C   0  0  0  0  0  1  0  0  0  0  0  0
  -27.1710  -30.3870   25.5400 C   0  0  0  0  0  1  0  0  0  0  0  0
  -27.2380  -32.6090   26.6300 C   0  0  0  0  0  1  0  0  0  0  0  0
  1  3  1  0
  2  4  2  0
  2  5  1  0
  4  6  1  0
  5  1  2  0
  6 54  1  0
  6  3  2  0
  7  5  1  0
  7  9  1  0
  8  7  2  0
 10  9  1  0
 10 13  1  0
 11 10  1  0
 12 10  1  0
 14 15  1  0
 14 13  1  0
 16 22  1  0
 16 24  1  0
 17 22  1  0
 18 19  1  0
 18 17  1  0
 20 19  1  0
 20 29  1  0
 20 21  1  0
 22 21  1  0
 23 16  2  0
 24 15  1  0
 25 24  1  0
 26 27  2  0
 27 28  1  0
 27 46  1  0
 28 31  1  0
 29 26  1  0
 29 30  1  0
 30 28  2  0
 31 32  1  0
 32 33  2  0
 34 37  1  0
 34 33  1  0
 35 34  2  0
 36 35  1  0
 36 31  2  0
 37 38  1  0
 38 43  2  0
 38 39  1  0
 39 40  2  0
 40 41  1  0
 41 45  1  0
 42 41  2  0
 43 42  1  0
 44 43  1  0
 46 47  1  0
 47 50  1  0
 47 49  1  0
 48 46  2  0
 51 52  1  0
 51 26  1  0
 53 51  1  0
 55 54  1  0
 56 58  1  0
 56 55  1  0
 57 68  2  0
 58 63  1  0
 59 67  1  0
 59 69  1  0
 60 66  1  0
 60 62  1  0
 61 67  1  0
 62 61  1  0
 63 62  2  0
 64 65  1  0
 64 58  2  0
 65 60  2  0
 66 59  1  0
 67 57  1  0
 69 71  2  0
 70 69  1  0
 72 70  1  0
 73 82  2  0
 73 78  1  0
 74 70  1  0
 74 78  1  0
 75 74  1  0
 76 77  1  0
 76 75  1  0
 77 73  1  0
 78 79  2  0
 79 80  1  0
 81 80  2  0
 82 81  1  0
 83 57  1  0
 83 84  1  0
 83 93  1  0
 84 87  1  0
 85 89  1  0
 85 84  1  0
 86 85  2  0
 89 88  1  0
 89 91  1  0
 91 92  1  0
 91 90  1  0
 93 96  1  1
 93 94  1  0
 95 93  1  0
M  ISO  4  16 100  24 100  55 101  56 101
M  END
>  <TORSDO>  (25) 
F 24

>  <SCORE>  (25) 
-0.115

>  <name>  (25) 
24

>  <ligand_id>  (25) 
24

>  <original_smiles>  (25) 
[H]c1c([H])c([H])c2c(c1[H])C([H])([H])C([H])([H])C([H])([H])C2([H])N([H])C(=O)C1([H])N(C(=O)C([H])(N([H])C(=O)C([H])(N([H])C([H])([H])[H])C([H])([H])[H])C(C([H])([H])[H])(C([H])([H])[H])C([H])([H])[H])C([H])([H])c2c([H])c(OC([H])([H])C([H])([H])c3c([H])c([H])c(C(=O)C([H])([H])[N+]([H])([H])C([H])([H])C([H])([H])C([H])([H])N([H])C(=O)N4C([H])([H])C([H])([H])C([H])([H])C([H])(n5nc(-c6c([H])c([H])c(Oc7c([H])c([H])c(F)c([H])c7F)c([H])c6[H])c(C(=O)N([H])[H])c5N([H])[H])C4([H])[H])c([H])c3[H])c([H])c([H])c2C1([H])[H]

>  <smiles>  (25) 
[H]c1c([H])c([H])c2c(c1[H])C([H])([H])C([H])([H])C([H])([H])C2([H])N([H])C(=O)C1([H])N(C(=O)C([H])(N([H])C(=O)C([H])(N([H])C([H])([H])[H])C([H])([H])[H])C(C([H])([H])[H])(C([H])([H])[H])C([H])([H])[H])C([H])([H])c2c([H])c(OC([H])([H])C([H])([H])c3c([H])c([H])c(C(=O)C([H])([H])[N+]([H])([H])C([H])([H])C([H])([H])C([H])([H])N([H])C(=O)N4C([H])([H])C([H])([H])C([H])([H])C([H])(n5nc(-c6c([H])c([H])c(Oc7c([H])c([H])c(F)c([H])c7F)c([H])c6[H])c(C(=O)N([H])[H])c5N([H])[H])C4([H])[H])c([H])c3[H])c([H])c([H])c2C1([H])[H]

$$$$
25:0:0
     RDKit          3D

 97105  0  0  1  0  0  0  0  0999 V2000
  -25.0170  -23.2280   20.4470 C   0  0  0  0  0  3  0  0  0  0  0  0
  -26.0170  -22.4580   21.0590 C   0  0  0  0  0  3  0  0  0  0  0  0
  -25.3510  -24.4290   19.8040 C   0  0  0  0  0  3  0  0  0  0  0  0
  -27.6750  -24.1390   20.4290 C   0  0  0  0  0  3  0  0  0  0  0  0
  -27.3530  -22.9040   21.0360 C   0  0  0  0  0  0  0  0  0  0  0  0
  -26.6830  -24.8980   19.7770 C   0  0  0  0  0  0  0  0  0  0  0  0
  -28.4530  -22.0210   21.5920 C   0  0  0  0  0  2  0  0  0  0  0  0
  -29.7470  -22.1010   20.7590 C   0  0  0  0  0  2  0  0  0  0  0  0
  -29.5220  -21.9650   19.2320 C   0  0  0  0  0  2  0  0  0  0  0  0
  -30.7270  -22.2910   18.4310 N   0  0  2  0  0  4  0  0  0  0  0  0
  -31.4920  -21.8760   18.9380 H   0  0  0  0  0  0  0  0  0  0  0  0
  -32.3680  -24.0960   18.9630 C   0  0  0  0  0  1  0  0  0  0  0  0
  -31.0270  -23.7430   18.3100 C   0  0  0  0  0  2  0  0  0  0  0  0
  -30.7260  -21.6100   17.1150 C   0  0  0  0  0  2  0  0  0  0  0  0
  -32.1390  -21.1470   16.7640 C   0  0  0  0  0  2  0  0  0  0  0  0
  -32.1840  -20.4230   15.4240 C   0  0  0  0  0  2  0  0  0  0  0  0
  -33.7020  -18.8010   14.3820 C   0  0  0  0  0  0  0  0  0  0  0  0
  -34.4420  -16.6260   13.5280 C   0  0  0  0  0  2  0  0  0  0  0  0
  -33.2230  -15.6850   13.4500 C   0  0  0  0  0  2  0  0  0  0  0  0
  -33.0090  -14.9550   14.7910 C   0  0  0  0  0  2  0  0  0  0  0  0
  -33.0010  -15.9290   16.0010 C   0  0  0  0  0  3  0  0  0  0  0  0
  -34.2180  -16.8820   15.9350 C   0  0  0  0  0  2  0  0  0  0  0  0
  -34.2060  -17.5680   14.6240 N   0  0  0  0  0  0  0  0  0  0  0  0
  -33.5790  -19.3040   13.2590 O   0  0  0  0  0  0  0  0  0  0  0  0
  -33.2140  -19.4010   15.4600 N   0  0  0  0  0  0  0  0  0  0  0  0
  -33.3790  -18.9320   16.3370 H   0  0  0  0  0  0  0  0  0  0  0  0
  -32.0680  -15.3350   18.3290 C   0  0  0  0  0  0  0  0  0  0  0  0
  -32.4160  -14.3650   19.2320 C   0  0  0  0  0  0  0  0  0  0  0  0
  -33.5180  -13.6650   18.6520 C   0  0  0  0  0  0  0  0  0  0  0  0
  -32.9500  -15.2010   17.2680 N   0  0  0  0  0  0  0  0  0  0  0  0
  -33.8570  -14.2180   17.4950 N   0  0  0  0  0  0  0  0  0  0  0  0
  -34.2340  -12.4640   19.1010 C   0  0  0  0  0  0  0  0  0  0  0  0
  -35.6400  -12.3640   19.0050 C   0  0  0  0  0  3  0  0  0  0  0  0
  -36.3080  -11.2070   19.4620 C   0  0  0  0  0  3  0  0  0  0  0  0
  -35.5710  -10.1380   20.0220 C   0  0  0  0  0  0  0  0  0  0  0  0
  -34.1700  -10.2330   20.0930 C   0  0  0  0  0  3  0  0  0  0  0  0
  -33.5060  -11.3820   19.6340 C   0  0  0  0  0  3  0  0  0  0  0  0
  -36.1330   -8.9650   20.4670 O   0  0  0  0  0  0  0  0  0  0  0  0
  -37.4770   -8.8620   20.7220 C   0  0  0  0  0  0  0  0  0  0  0  0
  -38.1710   -9.8400   21.4690 C   0  0  0  0  0  3  0  0  0  0  0  0
  -39.5360   -9.6600   21.7680 C   0  0  0  0  0  3  0  0  0  0  0  0
  -40.2060   -8.5000   21.3310 C   0  0  0  0  0  0  0  0  0  0  0  0
  -39.5160   -7.5240   20.5920 C   0  0  0  0  0  3  0  0  0  0  0  0
  -38.1530   -7.7030   20.2930 C   0  0  0  0  0  0  0  0  0  0  0  0
  -37.4880   -6.7470   19.6000 F   0  0  0  0  0  0  0  0  0  0  0  0
  -41.5150   -8.3230   21.6250 F   0  0  0  0  0  0  0  0  0  0  0  0
  -31.7150  -14.0400   20.5180 C   0  0  0  0  0  0  0  0  0  0  0  0
  -32.4470  -13.5470   21.5100 N   0  0  0  0  0  0  0  0  0  0  0  0
  -30.5140  -14.2680   20.6660 O   0  0  0  0  0  0  0  0  0  0  0  0
  -33.4350  -13.3750   21.3930 H   0  0  0  0  0  0  0  0  0  0  0  0
  -32.0140  -13.3390   22.4000 H   0  0  0  0  0  0  0  0  0  0  0  0
  -31.0700  -16.3070   18.3120 N   0  0  0  0  0  0  0  0  0  0  0  0
  -30.3630  -16.3810   19.0350 H   0  0  0  0  0  0  0  0  0  0  0  0
  -30.9130  -16.9400   17.5380 H   0  0  0  0  0  0  0  0  0  0  0  0
  -27.0490  -26.2260   19.1180 C   0  0  0  0  0  2  0  0  0  0  0  0
  -26.4110  -26.4820   17.7190 C   0  0  0  0  0  2  0  0  0  0  0  0
  -26.3620  -27.8710   17.3700 O   0  0  0  0  0  0  0  0  0  0  0  0
  -25.7800  -30.3070   23.9810 C   0  0  0  0  0  0  0  0  0  0  0  0
  -25.6250  -28.6680   18.2130 C   0  0  0  0  0  0  0  0  0  0  0  0
  -23.7720  -30.5860   22.5600 C   0  0  0  0  0  3  0  0  0  0  0  0
  -24.1150  -30.1590   20.0690 C   0  0  0  0  0  0  0  0  0  0  0  0
  -26.1090  -30.5330   21.5260 C   0  0  0  0  0  2  0  0  0  0  0  0
  -25.4810  -29.9390   20.2890 C   0  0  0  0  0  0  0  0  0  0  0  0
  -26.2390  -29.1880   19.3680 C   0  0  0  0  0  3  0  0  0  0  0  0
  -24.2640  -28.9490   17.9710 C   0  0  0  0  0  3  0  0  0  0  0  0
  -23.4990  -29.6670   18.9070 C   0  0  0  0  0  3  0  0  0  0  0  0
  -23.3680  -30.9590   21.1100 C   0  0  0  0  0  2  0  0  0  0  0  0
  -25.2540  -30.4490   22.7310 N   0  0  0  0  0  0  0  0  0  0  0  0
  -25.0560  -30.3410   24.9880 O   0  0  0  0  0  0  0  0  0  0  0  0
  -22.9880  -29.3230   22.9760 C   0  0  0  0  0  0  0  0  0  0  0  0
  -21.6510  -29.3990   22.8800 N   0  0  0  0  0  0  0  0  0  0  0  0
  -23.5760  -28.3040   23.3470 O   0  0  0  0  0  0  0  0  0  0  0  0
  -21.2490  -30.2740   22.5700 H   0  0  0  0  0  0  0  0  0  0  0  0
  -18.2540  -28.2890   22.3700 C   0  0  0  0  0  0  0  0  0  0  0  0
  -20.7090  -28.3210   23.1760 C   0  0  0  0  0  3  0  0  0  0  0  0
  -20.9290  -27.1160   22.2330 C   0  0  0  0  0  2  0  0  0  0  0  0
  -20.0460  -27.1610   20.9830 C   0  0  0  0  0  2  0  0  0  0  0  0
  -18.5650  -27.1810   21.3740 C   0  0  0  0  0  2  0  0  0  0  0  0
  -19.2650  -28.8330   23.2040 C   0  0  0  0  0  0  0  0  0  0  0  0
  -18.9310  -29.8850   24.0860 C   0  0  0  0  0  3  0  0  0  0  0  0
  -17.6160  -30.3870   24.1430 C   0  0  0  0  0  3  0  0  0  0  0  0
  -16.6150  -29.8320   23.3260 C   0  0  0  0  0  3  0  0  0  0  0  0
  -16.9340  -28.7840   22.4440 C   0  0  0  0  0  3  0  0  0  0  0  0
  -27.3130  -30.1230   24.2100 C   0  0  0  0  0  3  0  0  0  0  0  0
  -27.7320  -28.6180   24.4280 C   0  0  1  0  0  0  0  0  0  0  0  0
  -26.9040  -27.8960   25.5170 C   0  0  0  0  0  1  0  0  0  0  0  0
  -27.5900  -27.8150   23.1140 C   0  0  0  0  0  1  0  0  0  0  0  0
  -29.2240  -28.5470   24.8340 C   0  0  0  0  0  1  0  0  0  0  0  0
  -27.6880  -30.9480   25.3640 N   0  0  0  0  0  0  0  0  0  0  0  0
  -28.3850  -32.0910   25.2890 C   0  0  0  0  0  0  0  0  0  0  0  0
  -28.8460  -32.5270   24.2280 O   0  0  0  0  0  0  0  0  0  0  0  0
  -27.2970  -30.6830   26.2570 H   0  0  0  0  0  0  0  0  0  0  0  0
  -27.6420  -34.0690   26.6510 C   0  0  0  0  0  1  0  0  0  0  0  0
  -28.6060  -32.8730   26.5960 C   0  0  0  0  0  3  0  0  0  0  0  0
  -30.9510  -32.2620   26.9910 C   0  0  0  0  0  1  0  0  0  0  0  0
  -29.9970  -33.3450   26.7690 N   0  0  0  0  0  0  0  0  0  0  0  0
  -30.0620  -33.9930   27.5480 H   0  0  0  0  0  0  0  0  0  0  0  0
  1  2  1  0
  3  1  2  0
  4  5  1  0
  5  2  2  0
  5  7  1  0
  6  3  1  0
  6  4  2  0
  8  7  1  0
  9  8  1  0
 10 11  1  1
 10  9  1  0
 13 10  1  0
 13 12  1  0
 14 10  1  0
 15 14  1  0
 16 25  1  0
 16 15  1  0
 17 23  1  0
 17 25  1  0
 18 23  1  0
 19 18  1  0
 19 20  1  0
 21 20  1  0
 21 30  1  0
 22 21  1  0
 23 22  1  0
 24 17  2  0
 25 26  1  0
 27 28  2  0
 28 47  1  0
 29 32  1  0
 29 28  1  0
 30 31  1  0
 30 27  1  0
 31 29  2  0
 32 37  1  0
 33 32  2  0
 33 34  1  0
 34 35  2  0
 35 36  1  0
 35 38  1  0
 37 36  2  0
 38 39  1  0
 39 40  1  0
 40 41  2  0
 42 46  1  0
 42 41  1  0
 43 42  2  0
 44 43  1  0
 44 39  2  0
 45 44  1  0
 47 49  2  0
 47 48  1  0
 48 51  1  0
 50 48  1  0
 52 27  1  0
 52 53  1  0
 54 52  1  0
 55  6  1  0
 56 55  1  0
 57 56  1  0
 57 59  1  0
 58 69  2  0
 59 64  1  0
 60 68  1  0
 60 70  1  0
 61 63  1  0
 61 67  1  0
 62 68  1  0
 63 62  1  0
 64 63  2  0
 65 59  2  0
 65 66  1  0
 66 61  2  0
 67 60  1  0
 68 58  1  0
 70 72  2  0
 71 70  1  0
 73 71  1  0
 74 83  2  0
 74 79  1  0
 75 71  1  0
 75 79  1  0
 76 75  1  0
 77 78  1  0
 77 76  1  0
 78 74  1  0
 79 80  2  0
 80 81  1  0
 82 81  2  0
 83 82  1  0
 84 58  1  0
 84 85  1  0
 84 89  1  0
 85 88  1  1
 85 86  1  0
 87 85  1  0
 89 92  1  0
 90 89  1  0
 90 94  1  0
 91 90  2  0
 94 93  1  0
 94 96  1  0
 96 95  1  0
 96 97  1  0
M  ISO  4  17 100  25 100  56 101  57 101
M  END
>  <TORSDO>  (26) 
F 26

>  <SCORE>  (26) 
-5.137

>  <name>  (26) 
25

>  <ligand_id>  (26) 
25

>  <original_smiles>  (26) 
[H]c1c([H])c([H])c2c(c1[H])C([H])([H])C([H])([H])C([H])([H])C2([H])N([H])C(=O)C1([H])N(C(=O)C([H])(N([H])C(=O)C([H])(N([H])C([H])([H])[H])C([H])([H])[H])C(C([H])([H])[H])(C([H])([H])[H])C([H])([H])[H])C([H])([H])c2c([H])c(OC([H])([H])C([H])([H])c3c([H])c([H])c([H])c(C([H])([H])C([H])([H])C([H])([H])[N+]([H])(C([H])([H])C([H])([H])[H])C([H])([H])C([H])([H])C([H])([H])N([H])C(=O)N4C([H])([H])C([H])([H])C([H])([H])C([H])(n5nc(-c6c([H])c([H])c(Oc7c([H])c([H])c(F)c([H])c7F)c([H])c6[H])c(C(=O)N([H])[H])c5N([H])[H])C4([H])[H])c3[H])c([H])c([H])c2C1([H])[H]

>  <smiles>  (26) 
[H]c1c([H])c([H])c2c(c1[H])C([H])([H])C([H])([H])C([H])([H])C2([H])N([H])C(=O)C1([H])N(C(=O)C([H])(N([H])C(=O)C([H])(N([H])C([H])([H])[H])C([H])([H])[H])C(C([H])([H])[H])(C([H])([H])[H])C([H])([H])[H])C([H])([H])c2c([H])c(OC([H])([H])C([H])([H])c3c([H])c([H])c([H])c(C([H])([H])C([H])([H])C([H])([H])[N+]([H])(C([H])([H])C([H])([H])[H])C([H])([H])C([H])([H])C([H])([H])N([H])C(=O)N4C([H])([H])C([H])([H])C([H])([H])C([H])(n5nc(-c6c([H])c([H])c(Oc7c([H])c([H])c(F)c([H])c7F)c([H])c6[H])c(C(=O)N([H])[H])c5N([H])[H])C4([H])[H])c3[H])c([H])c([H])c2C1([H])[H]

$$$$
26:0:0
     RDKit          3D

 97105  0  0  1  0  0  0  0  0999 V2000
  -30.8630  -23.6160   19.2970 C   0  0  0  0  0  2  0  0  0  0  0  0
  -30.1080  -24.6840   18.4880 C   0  0  0  0  0  2  0  0  0  0  0  0
  -26.3880  -24.7030   17.6880 C   0  0  0  0  0  3  0  0  0  0  0  0
  -26.7470  -23.2730   19.6330 C   0  0  0  0  0  3  0  0  0  0  0  0
  -27.7520  -25.0400   17.6870 C   0  0  0  0  0  3  0  0  0  0  0  0
  -28.1170  -23.5990   19.6220 C   0  0  0  0  0  3  0  0  0  0  0  0
  -25.8900  -23.7690   18.6240 C   0  0  0  0  0  0  0  0  0  0  0  0
  -28.6220  -24.4530   18.6250 C   0  0  0  0  0  0  0  0  0  0  0  0
  -24.4740  -23.3260   18.5900 C   0  0  0  0  0  0  0  0  0  0  0  0
  -24.1420  -22.1340   18.5980 O   0  0  0  0  0  0  0  0  0  0  0  0
  -23.3850  -24.4030   18.4560 C   0  0  0  0  0  2  0  0  0  0  0  0
  -21.5220  -25.0550   20.0050 C   0  0  0  0  0  0  0  0  0  0  0  0
  -20.1450  -25.8480   21.8970 C   0  0  0  0  0  2  0  0  0  0  0  0
  -20.2840  -27.3640   22.1420 C   0  0  0  0  0  2  0  0  0  0  0  0
  -21.5390  -27.7080   22.9680 C   0  0  0  0  0  2  0  0  0  0  0  0
  -22.8130  -26.9980   22.4490 C   0  0  0  0  0  3  0  0  0  0  0  0
  -22.5310  -25.4920   22.2630 C   0  0  0  0  0  2  0  0  0  0  0  0
  -21.3980  -25.3430   21.3230 N   0  0  0  0  0  0  0  0  0  0  0  0
  -20.6440  -25.2540   19.1590 O   0  0  0  0  0  0  0  0  0  0  0  0
  -22.6820  -24.4620   19.7260 N   0  0  0  0  0  0  0  0  0  0  0  0
  -23.2730  -24.2850   20.5260 H   0  0  0  0  0  0  0  0  0  0  0  0
  -25.2280  -27.6860   23.0430 C   0  0  0  0  0  0  0  0  0  0  0  0
  -25.8760  -27.7950   24.2460 C   0  0  0  0  0  0  0  0  0  0  0  0
  -24.9260  -27.4140   25.2410 C   0  0  0  0  0  0  0  0  0  0  0  0
  -23.9500  -27.2350   23.3400 N   0  0  0  0  0  0  0  0  0  0  0  0
  -23.7890  -27.0300   24.6720 N   0  0  0  0  0  0  0  0  0  0  0  0
  -25.0120  -27.4440   26.7070 C   0  0  0  0  0  0  0  0  0  0  0  0
  -25.5850  -26.3760   27.4340 C   0  0  0  0  0  3  0  0  0  0  0  0
  -25.6720  -26.4370   28.8420 C   0  0  0  0  0  3  0  0  0  0  0  0
  -25.1890  -27.5710   29.5350 C   0  0  0  0  0  0  0  0  0  0  0  0
  -24.6000  -28.6200   28.8090 C   0  0  0  0  0  3  0  0  0  0  0  0
  -24.5070  -28.5570   27.4080 C   0  0  0  0  0  3  0  0  0  0  0  0
  -25.2090  -27.7060   30.9020 O   0  0  0  0  0  0  0  0  0  0  0  0
  -25.9090  -26.8370   31.7010 C   0  0  0  0  0  0  0  0  0  0  0  0
  -27.3180  -26.8750   31.7870 C   0  0  0  0  0  3  0  0  0  0  0  0
  -27.9920  -26.0110   32.6730 C   0  0  0  0  0  3  0  0  0  0  0  0
  -27.2600  -25.1150   33.4770 C   0  0  0  0  0  0  0  0  0  0  0  0
  -25.8560  -25.0810   33.3960 C   0  0  0  0  0  3  0  0  0  0  0  0
  -25.1830  -25.9420   32.5120 C   0  0  0  0  0  0  0  0  0  0  0  0
  -23.8300  -25.9200   32.4530 F   0  0  0  0  0  0  0  0  0  0  0  0
  -27.9050  -24.2900   34.3340 F   0  0  0  0  0  0  0  0  0  0  0  0
  -27.2660  -28.3150   24.4710 C   0  0  0  0  0  0  0  0  0  0  0  0
  -28.1180  -27.5330   25.1260 N   0  0  0  0  0  0  0  0  0  0  0  0
  -27.6210  -29.4050   24.0240 O   0  0  0  0  0  0  0  0  0  0  0  0
  -27.8370  -26.6290   25.4740 H   0  0  0  0  0  0  0  0  0  0  0  0
  -29.0680  -27.8420   25.2750 H   0  0  0  0  0  0  0  0  0  0  0  0
  -25.6130  -27.9520   21.7320 N   0  0  0  0  0  0  0  0  0  0  0  0
  -26.5200  -28.3480   21.5150 H   0  0  0  0  0  0  0  0  0  0  0  0
  -25.0020  -27.8910   20.9270 H   0  0  0  0  0  0  0  0  0  0  0  0
  -31.2690  -22.4180   18.4470 C   0  0  0  0  0  2  0  0  0  0  0  0
  -31.1730  -21.0870   19.2190 C   0  0  0  0  0  2  0  0  0  0  0  0
  -31.2910  -19.9230   18.3210 N   0  0  0  0  0  4  0  0  0  0  0  0
  -31.5640  -19.1240   18.8730 H   0  0  0  0  0  0  0  0  0  0  0  0
  -32.0380  -20.1060   17.6710 H   0  0  0  0  0  0  0  0  0  0  0  0
  -30.0640  -19.5840   17.5640 C   0  0  0  0  0  2  0  0  0  0  0  0
  -30.3950  -19.3160   16.0930 C   0  0  0  0  0  2  0  0  0  0  0  0
  -29.7890  -20.3330   15.2850 O   0  0  0  0  0  0  0  0  0  0  0  0
  -34.8230  -25.3500   14.6330 C   0  0  0  0  0  0  0  0  0  0  0  0
  -30.6220  -21.0700   14.4770 C   0  0  0  0  0  0  0  0  0  0  0  0
  -33.7940  -24.5610   12.5180 C   0  0  0  0  0  3  0  0  0  0  0  0
  -32.3040  -22.5010   12.7170 C   0  0  0  0  0  0  0  0  0  0  0  0
  -33.9170  -23.0350   14.5560 C   0  0  0  0  0  2  0  0  0  0  0  0
  -32.6370  -22.3910   14.0720 C   0  0  0  0  0  0  0  0  0  0  0  0
  -31.8000  -21.6880   14.9560 C   0  0  0  0  0  3  0  0  0  0  0  0
  -30.2730  -21.2210   13.1180 C   0  0  0  0  0  3  0  0  0  0  0  0
  -31.1160  -21.9240   12.2320 C   0  0  0  0  0  3  0  0  0  0  0  0
  -33.2760  -23.2590   11.8430 C   0  0  0  0  0  2  0  0  0  0  0  0
  -34.1790  -24.3570   13.9520 N   0  0  0  0  0  0  0  0  0  0  0  0
  -35.1360  -26.4080   14.0710 O   0  0  0  0  0  0  0  0  0  0  0  0
  -32.7340  -25.6700   12.3250 C   0  0  0  0  0  0  0  0  0  0  0  0
  -33.1240  -26.7560   11.6400 N   0  0  0  0  0  0  0  0  0  0  0  0
  -31.5880  -25.5310   12.7610 O   0  0  0  0  0  0  0  0  0  0  0  0
  -34.0860  -26.8040   11.3330 H   0  0  0  0  0  0  0  0  0  0  0  0
  -33.1990  -30.2800   10.8640 C   0  0  0  0  0  0  0  0  0  0  0  0
  -32.2840  -27.9050   11.3020 C   0  0  0  0  0  3  0  0  0  0  0  0
  -31.8920  -27.8900    9.8060 C   0  0  0  0  0  2  0  0  0  0  0  0
  -32.8500  -28.6940    8.9220 C   0  0  0  0  0  2  0  0  0  0  0  0
  -32.9030  -30.1560    9.3790 C   0  0  0  0  0  2  0  0  0  0  0  0
  -32.9200  -29.2190   11.7650 C   0  0  0  0  0  0  0  0  0  0  0  0
  -33.2450  -29.3760   13.1290 C   0  0  0  0  0  3  0  0  0  0  0  0
  -33.8370  -30.5640   13.5970 C   0  0  0  0  0  3  0  0  0  0  0  0
  -34.0980  -31.6170   12.7040 C   0  0  0  0  0  3  0  0  0  0  0  0
  -33.7740  -31.4770   11.3430 C   0  0  0  0  0  3  0  0  0  0  0  0
  -35.2160  -25.1930   16.1350 C   0  0  0  0  0  3  0  0  0  0  0  0
  -34.2530  -25.9650   17.1180 C   0  0  1  0  0  0  0  0  0  0  0  0
  -34.7310  -27.3920   17.4680 C   0  0  0  0  0  1  0  0  0  0  0  0
  -32.8350  -26.0720   16.5090 C   0  0  0  0  0  1  0  0  0  0  0  0
  -34.1120  -25.1840   18.4460 C   0  0  0  0  0  1  0  0  0  0  0  0
  -36.5980  -25.6690   16.2810 N   0  0  0  0  0  0  0  0  0  0  0  0
  -37.6830  -24.8910   16.1770 C   0  0  0  0  0  0  0  0  0  0  0  0
  -37.6190  -23.6690   16.0140 O   0  0  0  0  0  0  0  0  0  0  0  0
  -36.7260  -26.6670   16.3620 H   0  0  0  0  0  0  0  0  0  0  0  0
  -39.6220  -25.7970   14.8510 C   0  0  0  0  0  1  0  0  0  0  0  0
  -39.0600  -25.5790   16.2660 C   0  0  0  0  0  3  0  0  0  0  0  0
  -39.8250  -24.9580   18.5170 C   0  0  0  0  0  1  0  0  0  0  0  0
  -40.0420  -24.8290   17.0790 N   0  0  0  0  0  0  0  0  0  0  0  0
  -40.9880  -25.1400   16.8750 H   0  0  0  0  0  0  0  0  0  0  0  0
  2  8  1  0
  2  1  1  0
  3  7  1  0
  5  3  2  0
  5  8  1  0
  6  4  1  0
  7  4  2  0
  8  6  2  0
  9 10  2  0
  9  7  1  0
 11  9  1  0
 11 20  1  0
 12 18  1  0
 13 14  1  0
 14 15  1  0
 16 17  1  0
 16 15  1  0
 16 25  1  0
 18 13  1  0
 18 17  1  0
 19 12  2  0
 20 12  1  0
 20 21  1  0
 22 25  1  0
 22 23  2  0
 23 42  1  0
 23 24  1  0
 24 27  1  0
 25 26  1  0
 26 24  2  0
 27 32  2  0
 27 28  1  0
 28 29  2  0
 29 30  1  0
 30 33  1  0
 31 30  2  0
 32 31  1  0
 33 34  1  0
 34 35  2  0
 34 39  1  0
 35 36  1  0
 36 37  2  0
 37 41  1  0
 38 37  1  0
 39 38  2  0
 40 39  1  0
 42 43  1  0
 43 46  1  0
 43 45  1  0
 44 42  2  0
 47 22  1  0
 48 47  1  0
 49 47  1  0
 50 51  1  0
 50  1  1  0
 52 53  1  0
 52 51  1  0
 54 52  1  0
 55 52  1  0
 56 55  1  0
 57 56  1  0
 59 64  1  0
 59 57  1  0
 60 70  1  0
 60 68  1  0
 61 63  1  0
 63 62  1  0
 63 64  2  0
 65 59  2  0
 66 61  2  0
 66 65  1  0
 67 60  1  0
 67 61  1  0
 68 62  1  0
 68 58  1  0
 69 58  2  0
 70 72  2  0
 71 70  1  0
 73 71  1  0
 74 83  2  0
 74 79  1  0
 75 71  1  0
 75 79  1  0
 76 75  1  0
 77 78  1  0
 77 76  1  0
 78 74  1  0
 79 80  2  0
 80 81  1  0
 82 81  2  0
 83 82  1  0
 84 58  1  0
 84 89  1  0
 84 85  1  0
 85 86  1  1
 85 88  1  0
 87 85  1  0
 89 92  1  0
 90 94  1  0
 90 89  1  0
 91 90  2  0
 94 93  1  0
 94 96  1  0
 96 95  1  0
 97 96  1  0
M  ISO  4  12 100  20 100  56 101  57 101
M  END
>  <TORSDO>  (27) 
F 25

>  <SCORE>  (27) 
-5.043

>  <name>  (27) 
26

>  <ligand_id>  (27) 
26

>  <original_smiles>  (27) 
[H]c1c([H])c([H])c2c(c1[H])C([H])([H])C([H])([H])C([H])([H])C2([H])N([H])C(=O)C1([H])N(C(=O)C([H])(N([H])C(=O)C([H])(N([H])C([H])([H])[H])C([H])([H])[H])C(C([H])([H])[H])(C([H])([H])[H])C([H])([H])[H])C([H])([H])c2c([H])c(OC([H])([H])C([H])([H])[N+]([H])([H])C([H])([H])C([H])([H])C([H])([H])C([H])([H])c3c([H])c([H])c(C(=O)C([H])([H])N([H])C(=O)N4C([H])([H])C([H])([H])C([H])([H])C([H])(n5nc(-c6c([H])c([H])c(Oc7c([H])c([H])c(F)c([H])c7F)c([H])c6[H])c(C(=O)N([H])[H])c5N([H])[H])C4([H])[H])c([H])c3[H])c([H])c([H])c2C1([H])[H]

>  <smiles>  (27) 
[H]c1c([H])c([H])c2c(c1[H])C([H])([H])C([H])([H])C([H])([H])C2([H])N([H])C(=O)C1([H])N(C(=O)C([H])(N([H])C(=O)C([H])(N([H])C([H])([H])[H])C([H])([H])[H])C(C([H])([H])[H])(C([H])([H])[H])C([H])([H])[H])C([H])([H])c2c([H])c(OC([H])([H])C([H])([H])[N+]([H])([H])C([H])([H])C([H])([H])C([H])([H])C([H])([H])c3c([H])c([H])c(C(=O)C([H])([H])N([H])C(=O)N4C([H])([H])C([H])([H])C([H])([H])C([H])(n5nc(-c6c([H])c([H])c(Oc7c([H])c([H])c(F)c([H])c7F)c([H])c6[H])c(C(=O)N([H])[H])c5N([H])[H])C4([H])[H])c([H])c3[H])c([H])c([H])c2C1([H])[H]

$$$$
27:0:0
     RDKit          3D

105113  0  0  1  0  0  0  0  0999 V2000
  -23.6520  -19.3470   19.4260 C   0  0  0  0  0  1  0  0  0  0  0  0
  -24.4120  -20.2620   18.4490 C   0  0  0  0  0  3  0  0  0  0  0  0
  -27.9940  -19.3960   19.5130 C   0  0  0  0  0  3  0  0  0  0  0  0
  -26.6280  -19.7240   19.5430 C   0  0  0  0  0  3  0  0  0  0  0  0
  -28.6600  -19.1840   18.2880 C   0  0  0  0  0  0  0  0  0  0  0  0
  -25.8890  -19.8620   18.3470 C   0  0  0  0  0  0  0  0  0  0  0  0
  -26.5440  -19.6360   17.1050 C   0  0  0  0  0  0  0  0  0  0  0  0
  -27.9230  -19.3110   17.0820 C   0  0  0  0  0  0  0  0  0  0  0  0
  -25.7980  -19.7300   15.7790 C   0  0  0  0  0  1  0  0  0  0  0  0
  -28.5280  -19.1480   15.8810 F   0  0  0  0  0  0  0  0  0  0  0  0
  -30.1250  -18.8910   18.3280 C   0  0  0  0  0  0  0  0  0  0  0  0
  -30.9360  -19.6660   18.8440 O   0  0  0  0  0  0  0  0  0  0  0  0
  -30.6220  -17.5670   17.7270 C   0  0  0  0  0  2  0  0  0  0  0  0
  -32.0530  -17.1500   18.1270 C   0  0  0  0  0  2  0  0  0  0  0  0
  -32.3120  -16.9790   19.6410 C   0  0  0  0  0  2  0  0  0  0  0  0
  -32.4860  -14.6130   20.4210 C   0  0  0  0  0  0  0  0  0  0  0  0
  -32.4190  -12.3190   21.3210 C   0  0  0  0  0  2  0  0  0  0  0  0
  -31.8070  -11.3420   20.3000 C   0  0  0  0  0  2  0  0  0  0  0  0
  -30.2720  -11.3140   20.4270 C   0  0  0  0  0  2  0  0  0  0  0  0
  -29.6500  -12.7360   20.4340 C   0  0  0  0  0  3  0  0  0  0  0  0
  -30.3870  -13.6490   21.4380 C   0  0  0  0  0  2  0  0  0  0  0  0
  -31.8220  -13.6420   21.0980 N   0  0  0  0  0  0  0  0  0  0  0  0
  -33.6550  -14.4970   20.0420 O   0  0  0  0  0  0  0  0  0  0  0  0
  -31.7840  -15.7320   20.1940 N   0  0  0  0  0  0  0  0  0  0  0  0
  -30.8340  -15.7410   20.5340 H   0  0  0  0  0  0  0  0  0  0  0  0
  -27.2910  -13.7210   20.7450 C   0  0  0  0  0  0  0  0  0  0  0  0
  -26.0760  -13.1290   20.9690 C   0  0  0  0  0  0  0  0  0  0  0  0
  -26.3280  -11.7260   21.0470 C   0  0  0  0  0  0  0  0  0  0  0  0
  -28.2150  -12.6870   20.7040 N   0  0  0  0  0  0  0  0  0  0  0  0
  -27.6300  -11.4850   20.9420 N   0  0  0  0  0  0  0  0  0  0  0  0
  -25.4010  -10.5920   21.1600 C   0  0  0  0  0  0  0  0  0  0  0  0
  -25.4850   -9.6740   22.2300 C   0  0  0  0  0  3  0  0  0  0  0  0
  -24.5700   -8.6020   22.3270 C   0  0  0  0  0  3  0  0  0  0  0  0
  -23.5570   -8.4440   21.3510 C   0  0  0  0  0  0  0  0  0  0  0  0
  -23.4920   -9.3480   20.2770 C   0  0  0  0  0  3  0  0  0  0  0  0
  -24.4070  -10.4100   20.1790 C   0  0  0  0  0  3  0  0  0  0  0  0
  -22.6420   -7.4190   21.3510 O   0  0  0  0  0  0  0  0  0  0  0  0
  -22.2150   -6.8340   22.5160 C   0  0  0  0  0  0  0  0  0  0  0  0
  -21.5170   -7.5630   23.5030 C   0  0  0  0  0  3  0  0  0  0  0  0
  -21.0350   -6.9060   24.6540 C   0  0  0  0  0  3  0  0  0  0  0  0
  -21.2430   -5.5240   24.8150 C   0  0  0  0  0  0  0  0  0  0  0  0
  -21.9330   -4.7950   23.8310 C   0  0  0  0  0  3  0  0  0  0  0  0
  -22.4140   -5.4490   22.6820 C   0  0  0  0  0  0  0  0  0  0  0  0
  -23.0610   -4.7380   21.7250 F   0  0  0  0  0  0  0  0  0  0  0  0
  -20.7740   -4.8900   25.9150 F   0  0  0  0  0  0  0  0  0  0  0  0
  -24.7410  -13.8160   21.0150 C   0  0  0  0  0  0  0  0  0  0  0  0
  -23.8000  -13.2740   21.7810 N   0  0  0  0  0  0  0  0  0  0  0  0
  -24.5390  -14.8650   20.4050 O   0  0  0  0  0  0  0  0  0  0  0  0
  -23.9740  -12.4230   22.2960 H   0  0  0  0  0  0  0  0  0  0  0  0
  -22.8950  -13.7160   21.8550 H   0  0  0  0  0  0  0  0  0  0  0  0
  -27.6850  -15.0420   20.5580 N   0  0  0  0  0  0  0  0  0  0  0  0
  -27.0200  -15.8060   20.5370 H   0  0  0  0  0  0  0  0  0  0  0  0
  -28.6350  -15.3350   20.3670 H   0  0  0  0  0  0  0  0  0  0  0  0
  -24.2990  -21.6910   18.8280 N   0  0  0  0  0  4  0  0  0  0  0  0
  -23.3350  -21.9640   18.7090 H   0  0  0  0  0  0  0  0  0  0  0  0
  -24.5170  -21.7890   19.8040 H   0  0  0  0  0  0  0  0  0  0  0  0
  -25.1160  -22.6310   18.0220 C   0  0  0  0  0  2  0  0  0  0  0  0
  -25.5990  -23.8760   18.8050 C   0  0  0  0  0  2  0  0  0  0  0  0
  -27.0230  -23.7320   19.3930 C   0  0  0  0  0  2  0  0  0  0  0  0
  -27.3740  -24.8490   20.3040 N   0  0  0  0  0  4  0  0  0  0  0  0
  -26.8820  -24.7570   21.1810 H   0  0  0  0  0  0  0  0  0  0  0  0
  -27.0650  -25.7100   19.8740 H   0  0  0  0  0  0  0  0  0  0  0  0
  -28.8280  -25.0060   20.5600 C   0  0  0  0  0  2  0  0  0  0  0  0
  -29.2030  -26.4500   20.9570 C   0  0  0  0  0  2  0  0  0  0  0  0
  -28.9240  -27.3520   19.8840 O   0  0  0  0  0  0  0  0  0  0  0  0
  -24.6850  -31.7960   23.4980 C   0  0  0  0  0  0  0  0  0  0  0  0
  -27.7210  -28.0030   19.9700 C   0  0  0  0  0  0  0  0  0  0  0  0
  -23.6260  -30.5520   21.6380 C   0  0  0  0  0  3  0  0  0  0  0  0
  -25.2250  -29.3060   20.0890 C   0  0  0  0  0  0  0  0  0  0  0  0
  -26.1240  -31.0910   21.5930 C   0  0  0  0  0  2  0  0  0  0  0  0
  -26.3210  -29.8210   20.7960 C   0  0  0  0  0  0  0  0  0  0  0  0
  -27.5700  -29.1700   20.7470 C   0  0  0  0  0  3  0  0  0  0  0  0
  -26.6230  -27.5070   19.2380 C   0  0  0  0  0  3  0  0  0  0  0  0
  -25.3700  -28.1440   19.3110 C   0  0  0  0  0  3  0  0  0  0  0  0
  -23.9260  -30.0690   20.1920 C   0  0  0  0  0  2  0  0  0  0  0  0
  -24.8260  -31.1550   22.3040 N   0  0  0  0  0  0  0  0  0  0  0  0
  -23.5710  -31.9270   24.0260 O   0  0  0  0  0  0  0  0  0  0  0  0
  -23.0170  -29.3730   22.4300 C   0  0  0  0  0  0  0  0  0  0  0  0
  -21.7050  -29.1480   22.2490 N   0  0  0  0  0  0  0  0  0  0  0  0
  -23.7200  -28.6690   23.1600 O   0  0  0  0  0  0  0  0  0  0  0  0
  -21.1970  -29.7720   21.6370 H   0  0  0  0  0  0  0  0  0  0  0  0
  -18.4000  -27.7060   22.4500 C   0  0  0  0  0  0  0  0  0  0  0  0
  -20.9250  -28.0710   22.8590 C   0  0  0  0  0  3  0  0  0  0  0  0
  -21.1380  -26.7360   22.1090 C   0  0  0  0  0  2  0  0  0  0  0  0
  -20.0910  -26.4850   21.0170 C   0  0  0  0  0  2  0  0  0  0  0  0
  -18.6830  -26.4660   21.6180 C   0  0  0  0  0  2  0  0  0  0  0  0
  -19.4540  -28.4680   23.0190 C   0  0  0  0  0  0  0  0  0  0  0  0
  -19.1380  -29.6320   23.7530 C   0  0  0  0  0  3  0  0  0  0  0  0
  -17.8000  -30.0330   23.9250 C   0  0  0  0  0  3  0  0  0  0  0  0
  -16.7600  -29.2660   23.3750 C   0  0  0  0  0  3  0  0  0  0  0  0
  -17.0600  -28.1040   22.6410 C   0  0  0  0  0  3  0  0  0  0  0  0
  -25.9080  -32.4140   24.2440 C   0  0  0  0  0  3  0  0  0  0  0  0
  -25.6190  -33.8380   24.4580 N   0  0  0  0  0  0  0  0  0  0  0  0
  -26.1150  -34.8350   23.7120 C   0  0  0  0  0  0  0  0  0  0  0  0
  -26.9310  -34.6490   22.8040 O   0  0  0  0  0  0  0  0  0  0  0  0
  -24.9180  -34.0590   25.1490 H   0  0  0  0  0  0  0  0  0  0  0  0
  -24.5700  -36.6800   22.9840 C   0  0  0  0  0  1  0  0  0  0  0  0
  -25.6260  -36.2620   24.0200 C   0  0  0  0  0  3  0  0  0  0  0  0
  -27.6290  -37.0860   25.1780 C   0  0  0  0  0  1  0  0  0  0  0  0
  -26.7160  -37.2620   24.0510 N   0  0  0  0  0  0  0  0  0  0  0  0
  -26.3400  -38.2050   24.0920 H   0  0  0  0  0  0  0  0  0  0  0  0
  -26.2320  -31.6950   25.6120 C   0  0  1  0  0  0  0  0  0  0  0  0
  -25.0070  -31.5540   26.5440 C   0  0  0  0  0  1  0  0  0  0  0  0
  -26.8000  -30.2780   25.3620 C   0  0  0  0  0  1  0  0  0  0  0  0
  -27.3240  -32.4830   26.3730 C   0  0  0  0  0  1  0  0  0  0  0  0
  2 54  1  0
  2  1  1  0
  3  4  1  0
  5 11  1  0
  5  3  2  0
  6  2  1  0
  6  4  2  0
  7  6  1  0
  8  7  2  0
  8  5  1  0
  9  7  1  0
 10  8  1  0
 11 12  2  0
 13 14  1  0
 13 11  1  0
 14 15  1  0
 15 24  1  0
 16 22  1  0
 18 19  1  0
 18 17  1  0
 20 19  1  0
 20 29  1  0
 20 21  1  0
 22 17  1  0
 22 21  1  0
 23 16  2  0
 24 16  1  0
 24 25  1  0
 26 27  2  0
 27 46  1  0
 27 28  1  0
 28 31  1  0
 29 26  1  0
 29 30  1  0
 30 28  2  0
 31 32  1  0
 32 33  2  0
 34 33  1  0
 35 34  2  0
 36 35  1  0
 36 31  2  0
 37 34  1  0
 37 38  1  0
 38 43  2  0
 38 39  1  0
 39 40  2  0
 40 41  1  0
 41 45  1  0
 42 41  2  0
 43 42  1  0
 44 43  1  0
 46 47  1  0
 47 50  1  0
 47 49  1  0
 48 46  2  0
 51 26  1  0
 52 51  1  0
 53 51  1  0
 54 56  1  0
 55 54  1  0
 57 58  1  0
 57 54  1  0
 58 59  1  0
 59 60  1  0
 60 63  1  0
 60 61  1  0
 62 60  1  0
 63 64  1  0
 65 67  1  0
 65 64  1  0
 66 77  2  0
 67 72  1  0
 68 76  1  0
 68 78  1  0
 69 75  1  0
 69 71  1  0
 70 76  1  0
 71 70  1  0
 72 71  2  0
 73 74  1  0
 73 67  2  0
 74 69  2  0
 75 68  1  0
 76 66  1  0
 78 80  2  0
 79 78  1  0
 81 79  1  0
 82 91  2  0
 82 87  1  0
 83 79  1  0
 83 87  1  0
 84 83  1  0
 85 86  1  0
 85 84  1  0
 86 82  1  0
 87 88  2  0
 88 89  1  0
 90 89  2  0
 91 90  1  0
 92 66  1  0
 92 93  1  0
 92102  1  0
 93 96  1  0
 94 98  1  0
 94 93  1  0
 95 94  2  0
 98 97  1  0
 98100  1  0
100101  1  0
100 99  1  0
102105  1  1
102103  1  0
104102  1  0
M  ISO  4  16 100  24 100  64 101  65 101
M  END
>  <TORSDO>  (28) 
F 28

>  <SCORE>  (28) 
-5.273

>  <name>  (28) 
27

>  <ligand_id>  (28) 
27

>  <original_smiles>  (28) 
[H]c1c([H])c([H])c2c(c1[H])C([H])([H])C([H])([H])C([H])([H])C2([H])N([H])C(=O)C1([H])N(C(=O)C([H])(N([H])C(=O)C([H])(N([H])C([H])([H])[H])C([H])([H])[H])C(C([H])([H])[H])(C([H])([H])[H])C([H])([H])[H])C([H])([H])c2c([H])c(OC([H])([H])C([H])([H])[N+]([H])([H])C([H])([H])C([H])([H])C([H])([H])[N+]([H])([H])C([H])(c3c([H])c([H])c(C(=O)C([H])([H])C([H])([H])C([H])([H])N([H])C(=O)N4C([H])([H])C([H])([H])C([H])([H])C([H])(n5nc(-c6c([H])c([H])c(Oc7c([H])c([H])c(F)c([H])c7F)c([H])c6[H])c(C(=O)N([H])[H])c5N([H])[H])C4([H])[H])c(F)c3C([H])([H])[H])C([H])([H])[H])c([H])c([H])c2C1([H])[H]

>  <smiles>  (28) 
[H]c1c([H])c([H])c2c(c1[H])C([H])([H])C([H])([H])C([H])([H])C2([H])N([H])C(=O)C1([H])N(C(=O)C([H])(N([H])C(=O)C([H])(N([H])C([H])([H])[H])C([H])([H])[H])C(C([H])([H])[H])(C([H])([H])[H])C([H])([H])[H])C([H])([H])c2c([H])c(OC([H])([H])C([H])([H])[N+]([H])([H])C([H])([H])C([H])([H])C([H])([H])[N+]([H])([H])C([H])(c3c([H])c([H])c(C(=O)C([H])([H])C([H])([H])C([H])([H])N([H])C(=O)N4C([H])([H])C([H])([H])C([H])([H])C([H])(n5nc(-c6c([H])c([H])c(Oc7c([H])c([H])c(F)c([H])c7F)c([H])c6[H])c(C(=O)N([H])[H])c5N([H])[H])C4([H])[H])c(F)c3C([H])([H])[H])C([H])([H])[H])c([H])c([H])c2C1([H])[H]

$$$$
28:0:0
     RDKit          3D

102110  0  0  1  0  0  0  0  0999 V2000
  -30.0760  -21.8950   25.2190 C   0  0  0  0  0  3  0  0  0  0  0  0
  -30.0170  -23.2640   24.8900 C   0  0  0  0  0  3  0  0  0  0  0  0
  -30.0060  -20.9170   24.2050 C   0  0  0  0  0  3  0  0  0  0  0  0
  -29.8470  -22.6760   22.5330 C   0  0  0  0  0  3  0  0  0  0  0  0
  -29.9050  -23.6640   23.5400 C   0  0  0  0  0  0  0  0  0  0  0  0
  -29.8880  -21.3000   22.8500 C   0  0  0  0  0  0  0  0  0  0  0  0
  -29.7420  -25.1110   23.1760 C   0  0  0  0  0  0  0  0  0  0  0  0
  -30.1990  -25.4380   21.9650 N   0  0  0  0  0  0  0  0  0  0  0  0
  -29.1860  -25.9060   23.9360 O   0  0  0  0  0  0  0  0  0  0  0  0
  -30.7190  -24.7190   21.4800 H   0  0  0  0  0  0  0  0  0  0  0  0
  -29.7410  -26.5670   21.1660 C   0  0  0  0  0  2  0  0  0  0  0  0
  -28.5270  -26.1190   20.3350 C   0  0  0  0  0  2  0  0  0  0  0  0
  -28.2530  -27.0600   19.3100 O   0  0  0  0  0  0  0  0  0  0  0  0
  -24.4940  -31.6840   23.1590 C   0  0  0  0  0  0  0  0  0  0  0  0
  -27.0710  -27.7210   19.4840 C   0  0  0  0  0  0  0  0  0  0  0  0
  -23.2270  -30.4280   21.4410 C   0  0  0  0  0  3  0  0  0  0  0  0
  -24.6360  -29.0910   19.7900 C   0  0  0  0  0  0  0  0  0  0  0  0
  -25.7230  -30.8930   21.1470 C   0  0  0  0  0  2  0  0  0  0  0  0
  -25.8070  -29.5990   20.3710 C   0  0  0  0  0  0  0  0  0  0  0  0
  -27.0270  -28.9170   20.2230 C   0  0  0  0  0  3  0  0  0  0  0  0
  -25.8940  -27.2070   18.9060 C   0  0  0  0  0  3  0  0  0  0  0  0
  -24.6690  -27.8880   19.0600 C   0  0  0  0  0  3  0  0  0  0  0  0
  -23.3760  -29.9000   19.9880 C   0  0  0  0  0  2  0  0  0  0  0  0
  -24.5010  -31.0110   21.9740 N   0  0  0  0  0  0  0  0  0  0  0  0
  -23.4400  -31.8720   23.7800 O   0  0  0  0  0  0  0  0  0  0  0  0
  -22.6560  -29.2940   22.3200 C   0  0  0  0  0  0  0  0  0  0  0  0
  -21.3360  -29.0670   22.2190 N   0  0  0  0  0  0  0  0  0  0  0  0
  -23.3940  -28.6260   23.0500 O   0  0  0  0  0  0  0  0  0  0  0  0
  -20.7990  -29.6650   21.6070 H   0  0  0  0  0  0  0  0  0  0  0  0
  -18.0410  -27.6670   22.6790 C   0  0  0  0  0  0  0  0  0  0  0  0
  -20.5890  -28.0290   22.9240 C   0  0  0  0  0  3  0  0  0  0  0  0
  -20.7460  -26.6590   22.2240 C   0  0  0  0  0  2  0  0  0  0  0  0
  -19.6380  -26.3680   21.2070 C   0  0  0  0  0  2  0  0  0  0  0  0
  -18.2650  -26.3890   21.8870 C   0  0  0  0  0  2  0  0  0  0  0  0
  -19.1320  -28.4440   23.1520 C   0  0  0  0  0  0  0  0  0  0  0  0
  -18.8670  -29.6410   23.8510 C   0  0  0  0  0  3  0  0  0  0  0  0
  -17.5450  -30.0630   24.0830 C   0  0  0  0  0  3  0  0  0  0  0  0
  -16.4690  -29.2830   23.6270 C   0  0  0  0  0  3  0  0  0  0  0  0
  -16.7190  -28.0860   22.9310 C   0  0  0  0  0  3  0  0  0  0  0  0
  -25.8010  -32.2770   23.7700 C   0  0  0  0  0  3  0  0  0  0  0  0
  -26.3270  -31.4670   25.0170 C   0  0  1  0  0  0  0  0  0  0  0  0
  -25.2420  -31.2090   26.0880 C   0  0  0  0  0  1  0  0  0  0  0  0
  -26.8980  -30.0960   24.5850 C   0  0  0  0  0  1  0  0  0  0  0  0
  -27.4890  -32.2330   25.6960 C   0  0  0  0  0  1  0  0  0  0  0  0
  -25.5260  -33.6730   24.1320 N   0  0  0  0  0  0  0  0  0  0  0  0
  -25.9170  -34.7360   23.4140 C   0  0  0  0  0  0  0  0  0  0  0  0
  -26.6200  -34.6410   22.4050 O   0  0  0  0  0  0  0  0  0  0  0  0
  -24.8960  -33.8210   24.9060 H   0  0  0  0  0  0  0  0  0  0  0  0
  -24.2660  -36.5960   23.0380 C   0  0  0  0  0  1  0  0  0  0  0  0
  -25.4520  -36.1240   23.8930 C   0  0  0  0  0  3  0  0  0  0  0  0
  -27.5850  -36.8920   24.8370 C   0  0  0  0  0  1  0  0  0  0  0  0
  -26.5240  -37.1420   23.8660 N   0  0  0  0  0  0  0  0  0  0  0  0
  -26.1430  -38.0680   24.0390 H   0  0  0  0  0  0  0  0  0  0  0  0
  -29.7710  -20.2370   21.7500 C   0  0  0  0  0  3  0  0  0  0  0  0
  -32.3540  -20.4150   21.4340 C   0  0  0  0  0  1  0  0  0  0  0  0
  -31.1170  -19.4930   21.5000 C   0  0  0  0  0  3  0  0  0  0  0  0
  -31.3150  -18.4320   22.5200 N   0  0  0  0  0  4  0  0  0  0  0  0
  -32.2940  -18.1930   22.5530 H   0  0  0  0  0  0  0  0  0  0  0  0
  -31.0720  -18.7930   23.4300 H   0  0  0  0  0  0  0  0  0  0  0  0
  -30.5630  -17.1880   22.2470 C   0  0  0  0  0  2  0  0  0  0  0  0
  -31.4000  -16.2600   21.3520 C   0  0  0  0  0  2  0  0  0  0  0  0
  -30.9990  -14.2380   20.0210 C   0  0  0  0  0  0  0  0  0  0  0  0
  -30.4560  -12.1990   18.7610 C   0  0  0  0  0  2  0  0  0  0  0  0
  -29.4650  -12.4820   17.6200 C   0  0  0  0  0  2  0  0  0  0  0  0
  -28.0150  -12.4030   18.1310 C   0  0  0  0  0  2  0  0  0  0  0  0
  -27.7880  -13.2390   19.4180 C   0  0  0  0  0  3  0  0  0  0  0  0
  -28.8830  -12.9410   20.4670 C   0  0  0  0  0  2  0  0  0  0  0  0
  -30.2060  -13.1530   19.8490 N   0  0  0  0  0  0  0  0  0  0  0  0
  -31.9460  -14.5160   19.2790 O   0  0  0  0  0  0  0  0  0  0  0  0
  -30.7310  -14.9890   21.0920 N   0  0  0  0  0  0  0  0  0  0  0  0
  -29.9850  -14.6870   21.7000 H   0  0  0  0  0  0  0  0  0  0  0  0
  -25.4410  -13.9430   20.2290 C   0  0  0  0  0  0  0  0  0  0  0  0
  -24.3630  -13.2140   20.6570 C   0  0  0  0  0  0  0  0  0  0  0  0
  -24.7710  -11.8460   20.6160 C   0  0  0  0  0  0  0  0  0  0  0  0
  -26.4440  -13.0230   19.9600 N   0  0  0  0  0  0  0  0  0  0  0  0
  -26.0420  -11.7570   20.2450 N   0  0  0  0  0  0  0  0  0  0  0  0
  -24.0100  -10.6120   20.8580 C   0  0  0  0  0  0  0  0  0  0  0  0
  -24.4600   -9.6280   21.7670 C   0  0  0  0  0  3  0  0  0  0  0  0
  -23.7020   -8.4590   21.9930 C   0  0  0  0  0  3  0  0  0  0  0  0
  -22.4760   -8.2670   21.3130 C   0  0  0  0  0  0  0  0  0  0  0  0
  -22.0410   -9.2390   20.3940 C   0  0  0  0  0  3  0  0  0  0  0  0
  -22.8020  -10.3980   20.1640 C   0  0  0  0  0  3  0  0  0  0  0  0
  -21.6860   -7.1500   21.4490 O   0  0  0  0  0  0  0  0  0  0  0  0
  -21.6560   -6.4270   22.6150 C   0  0  0  0  0  0  0  0  0  0  0  0
  -21.3360   -7.0260   23.8540 C   0  0  0  0  0  3  0  0  0  0  0  0
  -21.2430   -6.2340   25.0150 C   0  0  0  0  0  3  0  0  0  0  0  0
  -21.4670   -4.8460   24.9420 C   0  0  0  0  0  0  0  0  0  0  0  0
  -21.7830   -4.2480   23.7100 C   0  0  0  0  0  3  0  0  0  0  0  0
  -21.8750   -5.0370   22.5490 C   0  0  0  0  0  0  0  0  0  0  0  0
  -22.1560   -4.4510   21.3600 F   0  0  0  0  0  0  0  0  0  0  0  0
  -21.3740   -4.0850   26.0570 F   0  0  0  0  0  0  0  0  0  0  0  0
  -22.9960  -13.7460   20.9890 C   0  0  0  0  0  0  0  0  0  0  0  0
  -22.2960  -13.1100   21.9230 N   0  0  0  0  0  0  0  0  0  0  0  0
  -22.5580  -14.7630   20.4540 O   0  0  0  0  0  0  0  0  0  0  0  0
  -22.6600  -12.2910   22.3850 H   0  0  0  0  0  0  0  0  0  0  0  0
  -21.3840  -13.4550   22.1850 H   0  0  0  0  0  0  0  0  0  0  0  0
  -25.6470  -15.3060   20.0320 N   0  0  0  0  0  0  0  0  0  0  0  0
  -24.9140  -15.9910   20.1680 H   0  0  0  0  0  0  0  0  0  0  0  0
  -26.4960  -15.7050   19.6500 H   0  0  0  0  0  0  0  0  0  0  0  0
  -29.1290  -20.7840   20.4480 C   0  0  0  0  0  2  0  0  0  0  0  0
  -27.9100  -21.4450   20.7490 O   0  0  0  0  0  0  0  0  0  0  0  0
  -28.1110  -22.1020   21.4100 H   0  0  0  0  0  0  0  0  0  0  0  0
  2  1  1  0
  3  1  2  0
  4  6  2  0
  4  5  1  0
  5  2  2  0
  6  3  1  0
  7  5  1  0
  7  9  2  0
  8  7  1  0
 10  8  1  0
 11  8  1  0
 12 11  1  0
 13 15  1  0
 13 12  1  0
 14 25  2  0
 15 20  1  0
 16 24  1  0
 16 26  1  0
 17 23  1  0
 17 19  1  0
 18 24  1  0
 19 18  1  0
 20 19  2  0
 21 22  1  0
 21 15  2  0
 22 17  2  0
 23 16  1  0
 24 14  1  0
 26 28  2  0
 27 26  1  0
 29 27  1  0
 30 39  2  0
 30 35  1  0
 31 27  1  0
 31 35  1  0
 32 31  1  0
 33 34  1  0
 33 32  1  0
 34 30  1  0
 35 36  2  0
 36 37  1  0
 38 37  2  0
 39 38  1  0
 40 14  1  0
 40 45  1  0
 40 41  1  0
 41 44  1  1
 41 42  1  0
 43 41  1  0
 45 48  1  0
 46 50  1  0
 46 45  1  0
 47 46  2  0
 50 49  1  0
 52 50  1  0
 52 53  1  0
 52 51  1  0
 54100  1  0
 54  6  1  0
 56 55  1  0
 56 54  1  0
 56 57  1  0
 57 58  1  0
 57 59  1  0
 60 57  1  0
 61 60  1  0
 62 70  1  0
 63 68  1  0
 64 65  1  0
 64 63  1  0
 66 65  1  0
 66 75  1  0
 66 67  1  0
 68 62  1  0
 68 67  1  0
 69 62  2  0
 70 61  1  0
 70 71  1  0
 72 73  2  0
 73 92  1  0
 74 73  1  0
 74 77  1  0
 75 72  1  0
 75 76  1  0
 76 74  2  0
 77 78  1  0
 78 79  2  0
 80 83  1  0
 80 79  1  0
 81 80  2  0
 82 81  1  0
 82 77  2  0
 83 84  1  0
 84 85  1  0
 85 86  2  0
 87 86  1  0
 87 91  1  0
 88 87  2  0
 89 84  2  0
 89 88  1  0
 90 89  1  0
 92 93  1  0
 93 96  1  0
 93 95  1  0
 94 92  2  0
 97 98  1  0
 97 72  1  0
 99 97  1  0
100101  1  0
101102  1  0
M  ISO  4  12 101  13 101  62 100  70 100
M  END
>  <TORSDO>  (29) 
F 26

>  <SCORE>  (29) 
-10.740

>  <name>  (29) 
28

>  <ligand_id>  (29) 
28

>  <original_smiles>  (29) 
[H]OC([H])([H])C([H])(c1c([H])c([H])c([H])c(C(=O)N([H])C([H])([H])C([H])([H])Oc2c([H])c([H])c3c(c2[H])C([H])([H])N(C(=O)C([H])(N([H])C(=O)C([H])(N([H])C([H])([H])[H])C([H])([H])[H])C(C([H])([H])[H])(C([H])([H])[H])C([H])([H])[H])C([H])(C(=O)N([H])C2([H])c4c([H])c([H])c([H])c([H])c4C([H])([H])C([H])([H])C2([H])[H])C3([H])[H])c1[H])C([H])(C([H])([H])[H])[N+]([H])([H])C([H])([H])C([H])([H])N([H])C(=O)N1C([H])([H])C([H])([H])C([H])([H])C([H])(n2nc(-c3c([H])c([H])c(Oc4c([H])c([H])c(F)c([H])c4F)c([H])c3[H])c(C(=O)N([H])[H])c2N([H])[H])C1([H])[H]

>  <smiles>  (29) 
[H]OC([H])([H])C([H])(c1c([H])c([H])c([H])c(C(=O)N([H])C([H])([H])C([H])([H])Oc2c([H])c([H])c3c(c2[H])C([H])([H])N(C(=O)C([H])(N([H])C(=O)C([H])(N([H])C([H])([H])[H])C([H])([H])[H])C(C([H])([H])[H])(C([H])([H])[H])C([H])([H])[H])C([H])(C(=O)N([H])C2([H])c4c([H])c([H])c([H])c([H])c4C([H])([H])C([H])([H])C2([H])[H])C3([H])[H])c1[H])C([H])(C([H])([H])[H])[N+]([H])([H])C([H])([H])C([H])([H])N([H])C(=O)N1C([H])([H])C([H])([H])C([H])([H])C([H])(n2nc(-c3c([H])c([H])c(Oc4c([H])c([H])c(F)c([H])c4F)c([H])c3[H])c(C(=O)N([H])[H])c2N([H])[H])C1([H])[H]

$$$$
29:0:0
     RDKit          3D

108116  0  0  1  0  0  0  0  0999 V2000
  -29.0170  -20.2400   18.6390 C   0  0  0  0  0  2  0  0  0  0  0  0
  -28.5060  -19.6190   19.8750 N   0  0  0  0  0  4  0  0  0  0  0  0
  -28.1270  -20.3380   20.4700 H   0  0  0  0  0  0  0  0  0  0  0  0
  -27.7630  -18.9750   19.6570 H   0  0  0  0  0  0  0  0  0  0  0  0
  -29.5420  -18.9040   20.6400 C   0  0  0  0  0  2  0  0  0  0  0  0
  -30.2380  -19.2030   23.0730 C   0  0  0  0  0  3  0  0  0  0  0  0
  -30.6840  -20.0230   24.1260 C   0  0  0  0  0  3  0  0  0  0  0  0
  -30.2470  -21.1330   21.5830 C   0  0  0  0  0  3  0  0  0  0  0  0
  -30.0160  -19.7590   21.7980 C   0  0  0  0  0  0  0  0  0  0  0  0
  -30.9070  -21.4020   23.9170 C   0  0  0  0  0  0  0  0  0  0  0  0
  -30.6860  -21.9640   22.6300 C   0  0  0  0  0  0  0  0  0  0  0  0
  -31.4270  -22.2320   25.0790 C   0  0  0  0  0  1  0  0  0  0  0  0
  -30.9670  -23.4260   22.3170 C   0  0  0  0  0  2  0  0  0  0  0  0
  -29.7970  -24.3880   22.5910 C   0  0  0  0  0  2  0  0  0  0  0  0
  -28.8880  -24.4940   21.4810 O   0  0  0  0  0  0  0  0  0  0  0  0
  -24.6080  -27.8290   26.1410 C   0  0  0  0  0  0  0  0  0  0  0  0
  -27.7980  -25.3020   21.7250 C   0  0  0  0  0  0  0  0  0  0  0  0
  -23.9450  -27.9830   23.7580 C   0  0  0  0  0  3  0  0  0  0  0  0
  -25.6630  -27.1200   22.0800 C   0  0  0  0  0  0  0  0  0  0  0  0
  -26.3890  -27.6490   24.4170 C   0  0  0  0  0  2  0  0  0  0  0  0
  -26.5690  -26.8900   23.1210 C   0  0  0  0  0  0  0  0  0  0  0  0
  -27.6270  -25.9770   22.9550 C   0  0  0  0  0  3  0  0  0  0  0  0
  -26.8550  -25.5070   20.6960 C   0  0  0  0  0  3  0  0  0  0  0  0
  -25.7930  -26.4200   20.8640 C   0  0  0  0  0  3  0  0  0  0  0  0
  -24.5700  -28.1310   22.3420 C   0  0  0  0  0  2  0  0  0  0  0  0
  -24.9770  -27.7950   24.8290 N   0  0  0  0  0  0  0  0  0  0  0  0
  -23.4350  -28.0600   26.4690 O   0  0  0  0  0  0  0  0  0  0  0  0
  -22.9000  -26.8470   23.7100 C   0  0  0  0  0  0  0  0  0  0  0  0
  -21.8220  -27.0630   22.9420 N   0  0  0  0  0  0  0  0  0  0  0  0
  -23.0800  -25.7940   24.3280 O   0  0  0  0  0  0  0  0  0  0  0  0
  -21.7440  -27.9550   22.4720 H   0  0  0  0  0  0  0  0  0  0  0  0
  -18.7200  -26.5930   21.1530 C   0  0  0  0  0  0  0  0  0  0  0  0
  -20.7280  -26.1210   22.7100 C   0  0  0  0  0  3  0  0  0  0  0  0
  -21.1360  -25.0350   21.6870 C   0  0  0  0  0  2  0  0  0  0  0  0
  -20.7530  -25.3890   20.2470 C   0  0  0  0  0  2  0  0  0  0  0  0
  -19.2410  -25.5990   20.1290 C   0  0  0  0  0  2  0  0  0  0  0  0
  -19.4270  -26.8490   22.3580 C   0  0  0  0  0  0  0  0  0  0  0  0
  -18.9180  -27.8090   23.2590 C   0  0  0  0  0  3  0  0  0  0  0  0
  -17.7260  -28.5030   22.9760 C   0  0  0  0  0  3  0  0  0  0  0  0
  -17.0210  -28.2320   21.7900 C   0  0  0  0  0  3  0  0  0  0  0  0
  -17.5160  -27.2770   20.8850 C   0  0  0  0  0  3  0  0  0  0  0  0
  -25.6400  -27.6030   27.2900 C   0  0  0  0  0  3  0  0  0  0  0  0
  -24.9260  -27.7560   28.5640 N   0  0  0  0  0  0  0  0  0  0  0  0
  -25.2010  -28.6930   29.4800 C   0  0  0  0  0  0  0  0  0  0  0  0
  -26.1430  -29.4830   29.3700 O   0  0  0  0  0  0  0  0  0  0  0  0
  -24.1080  -27.1780   28.6970 H   0  0  0  0  0  0  0  0  0  0  0  0
  -23.2050  -29.8380   30.4930 C   0  0  0  0  0  1  0  0  0  0  0  0
  -24.2840  -28.7660   30.7170 C   0  0  0  0  0  3  0  0  0  0  0  0
  -25.8440  -27.9290   32.4170 C   0  0  0  0  0  1  0  0  0  0  0  0
  -25.0120  -29.0450   31.9730 N   0  0  0  0  0  0  0  0  0  0  0  0
  -24.3640  -29.2740   32.7220 H   0  0  0  0  0  0  0  0  0  0  0  0
  -26.3590  -26.2000   27.2170 C   0  0  1  0  0  0  0  0  0  0  0  0
  -25.3810  -25.0060   27.1160 C   0  0  0  0  0  1  0  0  0  0  0  0
  -27.3090  -26.1370   25.9970 C   0  0  0  0  0  1  0  0  0  0  0  0
  -27.2380  -25.9940   28.4730 C   0  0  0  0  0  1  0  0  0  0  0  0
  -27.9460  -21.0670   17.9100 C   0  0  0  0  0  2  0  0  0  0  0  0
  -28.3650  -22.5420   17.8280 C   0  0  0  0  0  2  0  0  0  0  0  0
  -28.2190  -23.1650   16.4350 C   0  0  0  0  0  2  0  0  0  0  0  0
  -27.4270  -24.4780   16.5160 C   0  0  0  0  0  2  0  0  0  0  0  0
  -28.0890  -25.6510   15.7870 C   0  0  0  0  0  2  0  0  0  0  0  0
  -28.1260  -26.9470   16.6150 C   0  0  0  0  0  2  0  0  0  0  0  0
  -28.7260  -28.0980   15.7930 C   0  0  0  0  0  2  0  0  0  0  0  0
  -27.7650  -29.2340   15.4200 C   0  0  0  0  0  2  0  0  0  0  0  0
  -26.8900  -29.7930   16.5650 C   0  0  0  0  0  2  0  0  0  0  0  0
  -25.5330  -29.0890   16.7600 C   0  0  0  0  0  2  0  0  0  0  0  0
  -25.6480  -27.7820   17.4440 N   0  0  0  0  0  4  0  0  0  0  0  0
  -25.9660  -27.9410   18.3890 H   0  0  0  0  0  0  0  0  0  0  0  0
  -26.3490  -27.2420   16.9620 H   0  0  0  0  0  0  0  0  0  0  0  0
  -24.3810  -27.0110   17.4980 C   0  0  0  0  0  2  0  0  0  0  0  0
  -24.5990  -25.4790   17.4140 C   0  0  0  0  0  2  0  0  0  0  0  0
  -22.6560  -23.8410   17.6030 C   0  0  0  0  0  0  0  0  0  0  0  0
  -20.2850  -23.7830   16.9090 C   0  0  0  0  0  2  0  0  0  0  0  0
  -20.0040  -23.0260   15.5980 C   0  0  0  0  0  2  0  0  0  0  0  0
  -20.2080  -23.9390   14.3790 C   0  0  0  0  0  2  0  0  0  0  0  0
  -21.5550  -24.6980   14.4390 C   0  0  0  0  0  3  0  0  0  0  0  0
  -21.7440  -25.3810   15.8080 C   0  0  0  0  0  2  0  0  0  0  0  0
  -21.6360  -24.3740   16.8760 N   0  0  0  0  0  0  0  0  0  0  0  0
  -22.5750  -22.7360   18.1440 O   0  0  0  0  0  0  0  0  0  0  0  0
  -23.5480  -24.7190   18.1090 N   0  0  0  0  0  0  0  0  0  0  0  0
  -23.8730  -24.4080   19.0170 H   0  0  0  0  0  0  0  0  0  0  0  0
  -22.6070  -26.6480   13.1330 C   0  0  0  0  0  0  0  0  0  0  0  0
  -22.2910  -27.2190   11.9310 C   0  0  0  0  0  0  0  0  0  0  0  0
  -21.1470  -26.5140   11.4470 C   0  0  0  0  0  0  0  0  0  0  0  0
  -21.6660  -25.6540   13.3430 N   0  0  0  0  0  0  0  0  0  0  0  0
  -20.7540  -25.6130   12.3390 N   0  0  0  0  0  0  0  0  0  0  0  0
  -20.4370  -26.6080   10.1650 C   0  0  0  0  0  0  0  0  0  0  0  0
  -19.0620  -26.9360   10.1060 C   0  0  0  0  0  3  0  0  0  0  0  0
  -18.4050  -27.0330    8.8610 C   0  0  0  0  0  3  0  0  0  0  0  0
  -19.1180  -26.8110    7.6580 C   0  0  0  0  0  0  0  0  0  0  0  0
  -20.4800  -26.4700    7.7230 C   0  0  0  0  0  3  0  0  0  0  0  0
  -21.1340  -26.3660    8.9660 C   0  0  0  0  0  3  0  0  0  0  0  0
  -18.5530  -26.8620    6.4060 O   0  0  0  0  0  0  0  0  0  0  0  0
  -17.4440  -27.6240    6.1460 C   0  0  0  0  0  0  0  0  0  0  0  0
  -17.4390  -29.0240    6.3390 C   0  0  0  0  0  3  0  0  0  0  0  0
  -16.2960  -29.7760    5.9980 C   0  0  0  0  0  3  0  0  0  0  0  0
  -15.1680  -29.1360    5.4540 C   0  0  0  0  0  0  0  0  0  0  0  0
  -15.1750  -27.7460    5.2530 C   0  0  0  0  0  3  0  0  0  0  0  0
  -16.3110  -26.9930    5.5970 C   0  0  0  0  0  0  0  0  0  0  0  0
  -16.3180  -25.6560    5.3870 F   0  0  0  0  0  0  0  0  0  0  0  0
  -14.0720  -29.8620    5.1190 F   0  0  0  0  0  0  0  0  0  0  0  0
  -23.0620  -28.2940   11.2210 C   0  0  0  0  0  0  0  0  0  0  0  0
  -22.3750  -29.1810   10.5110 N   0  0  0  0  0  0  0  0  0  0  0  0
  -24.2840  -28.3790   11.3330 O   0  0  0  0  0  0  0  0  0  0  0  0
  -21.3710  -29.1250   10.4480 H   0  0  0  0  0  0  0  0  0  0  0  0
  -22.8610  -29.9270   10.0320 H   0  0  0  0  0  0  0  0  0  0  0  0
  -23.6240  -26.8750   14.0570 N   0  0  0  0  0  0  0  0  0  0  0  0
  -24.3590  -27.5540   13.9020 H   0  0  0  0  0  0  0  0  0  0  0  0
  -23.7630  -26.3090   14.8830 H   0  0  0  0  0  0  0  0  0  0  0  0
  1  2  1  0
  2  3  1  0
  2  5  1  0
  4  2  1  0
  5  9  1  0
  6  7  1  0
  8  9  1  0
  8 11  2  0
  9  6  2  0
 10  7  2  0
 10 12  1  0
 11 10  1  0
 13 14  1  0
 13 11  1  0
 15 17  1  0
 15 14  1  0
 16 27  2  0
 17 22  1  0
 18 28  1  0
 18 26  1  0
 19 25  1  0
 19 21  1  0
 20 26  1  0
 21 20  1  0
 22 21  2  0
 23 24  1  0
 23 17  2  0
 24 19  2  0
 25 18  1  0
 26 16  1  0
 28 30  2  0
 29 28  1  0
 31 29  1  0
 32 37  1  0
 33 29  1  0
 34 33  1  0
 35 34  1  0
 36 35  1  0
 36 32  1  0
 37 33  1  0
 37 38  2  0
 39 38  1  0
 40 39  2  0
 41 32  2  0
 41 40  1  0
 42 16  1  0
 42 43  1  0
 43 46  1  0
 43 44  1  0
 44 48  1  0
 45 44  2  0
 48 47  1  0
 48 50  1  0
 50 49  1  0
 50 51  1  0
 52 42  1  0
 52 55  1  1
 53 52  1  0
 54 52  1  0
 56  1  1  0
 57 56  1  0
 58 59  1  0
 58 57  1  0
 60 59  1  0
 60 61  1  0
 62 61  1  0
 63 62  1  0
 63 64  1  0
 64 65  1  0
 65 66  1  0
 66 69  1  0
 66 67  1  0
 68 66  1  0
 70 69  1  0
 70 79  1  0
 71 79  1  0
 71 78  2  0
 73 72  1  0
 74 75  1  0
 74 73  1  0
 75 84  1  0
 75 76  1  0
 76 77  1  0
 77 72  1  0
 77 71  1  0
 79 80  1  0
 81 84  1  0
 81106  1  0
 82 81  2  0
 83 82  1  0
 83 85  2  0
 85 84  1  0
 86 83  1  0
 87 86  1  0
 88 87  2  0
 89 90  2  0
 89 88  1  0
 90 91  1  0
 91 86  2  0
 92 89  1  0
 93 94  1  0
 93 92  1  0
 95 94  2  0
 96 95  1  0
 97 96  2  0
 97 98  1  0
 98 93  2  0
 99 98  1  0
100 96  1  0
101103  2  0
101 82  1  0
102101  1  0
104102  1  0
105102  1  0
106108  1  0
107106  1  0
M  ISO  4  14 101  15 101  71 100  79 100
M  END
>  <TORSDO>  (30) 
F 34

>  <SCORE>  (30) 
-1.841

>  <name>  (30) 
29

>  <ligand_id>  (30) 
29

>  <original_smiles>  (30) 
[H]c1c([H])c([H])c2c(c1[H])C([H])([H])C([H])([H])C([H])([H])C2([H])N([H])C(=O)C1([H])N(C(=O)C([H])(N([H])C(=O)C([H])(N([H])C([H])([H])[H])C([H])([H])[H])C(C([H])([H])[H])(C([H])([H])[H])C([H])([H])[H])C([H])([H])c2c([H])c(OC([H])([H])C([H])([H])c3c([H])c(C([H])([H])[N+]([H])([H])C([H])([H])C([H])([H])C([H])([H])C([H])([H])C([H])([H])C([H])([H])C([H])([H])C([H])([H])C([H])([H])C([H])([H])C([H])([H])[N+]([H])([H])C([H])([H])C([H])([H])N([H])C(=O)N4C([H])([H])C([H])([H])C([H])([H])C([H])(n5nc(-c6c([H])c([H])c(Oc7c([H])c([H])c(F)c([H])c7F)c([H])c6[H])c(C(=O)N([H])[H])c5N([H])[H])C4([H])[H])c([H])c([H])c3C([H])([H])[H])c([H])c([H])c2C1([H])[H]

>  <smiles>  (30) 
[H]c1c([H])c([H])c2c(c1[H])C([H])([H])C([H])([H])C([H])([H])C2([H])N([H])C(=O)C1([H])N(C(=O)C([H])(N([H])C(=O)C([H])(N([H])C([H])([H])[H])C([H])([H])[H])C(C([H])([H])[H])(C([H])([H])[H])C([H])([H])[H])C([H])([H])c2c([H])c(OC([H])([H])C([H])([H])c3c([H])c(C([H])([H])[N+]([H])([H])C([H])([H])C([H])([H])C([H])([H])C([H])([H])C([H])([H])C([H])([H])C([H])([H])C([H])([H])C([H])([H])C([H])([H])C([H])([H])[N+]([H])([H])C([H])([H])C([H])([H])N([H])C(=O)N4C([H])([H])C([H])([H])C([H])([H])C([H])(n5nc(-c6c([H])c([H])c(Oc7c([H])c([H])c(F)c([H])c7F)c([H])c6[H])c(C(=O)N([H])[H])c5N([H])[H])C4([H])[H])c([H])c([H])c3C([H])([H])[H])c([H])c([H])c2C1([H])[H]

$$$$
30:0:0
     RDKit          3D

102109  0  0  1  0  0  0  0  0999 V2000
  -31.1020  -19.6480   15.9570 N   0  0  0  0  0  4  0  0  0  0  0  0
  -30.1610  -19.3650   15.7290 H   0  0  0  0  0  0  0  0  0  0  0  0
  -31.4980  -20.1090   15.1530 H   0  0  0  0  0  0  0  0  0  0  0  0
  -31.0520  -20.5810   17.1060 C   0  0  0  0  0  2  0  0  0  0  0  0
  -30.2230  -21.8560   16.8720 C   0  0  0  0  0  2  0  0  0  0  0  0
  -30.2090  -22.6370   18.1070 N   0  0  0  0  0  0  0  0  0  0  0  0
  -29.6630  -22.1700   18.8310 H   0  0  0  0  0  0  0  0  0  0  0  0
  -29.5990  -23.9410   17.8670 C   0  0  0  0  0  2  0  0  0  0  0  0
  -29.2150  -24.7000   19.1350 C   0  0  0  0  0  0  0  0  0  0  0  0
  -29.2050  -24.1460   20.2460 O   0  0  0  0  0  0  0  0  0  0  0  0
  -28.8010  -26.1550   18.9320 C   0  0  0  0  0  2  0  0  0  0  0  0
  -28.4080  -26.7400   20.1680 O   0  0  0  0  0  0  0  0  0  0  0  0
  -24.5710  -31.8470   23.2270 C   0  0  0  0  0  0  0  0  0  0  0  0
  -27.2140  -27.4180   20.1650 C   0  0  0  0  0  0  0  0  0  0  0  0
  -23.3610  -30.4440   21.5830 C   0  0  0  0  0  3  0  0  0  0  0  0
  -24.8120  -28.8910   20.1760 C   0  0  0  0  0  0  0  0  0  0  0  0
  -25.8830  -30.7980   21.3900 C   0  0  0  0  0  2  0  0  0  0  0  0
  -25.9640  -29.4240   20.7690 C   0  0  0  0  0  0  0  0  0  0  0  0
  -27.1630  -28.6830   20.7810 C   0  0  0  0  0  3  0  0  0  0  0  0
  -26.0420  -26.8760   19.5910 C   0  0  0  0  0  3  0  0  0  0  0  0
  -24.8400  -27.6110   19.5930 C   0  0  0  0  0  3  0  0  0  0  0  0
  -23.5740  -29.7550   20.2070 C   0  0  0  0  0  2  0  0  0  0  0  0
  -24.6230  -31.0470   22.1250 N   0  0  0  0  0  0  0  0  0  0  0  0
  -23.4900  -32.1240   23.7640 O   0  0  0  0  0  0  0  0  0  0  0  0
  -22.7050  -29.4290   22.5470 C   0  0  0  0  0  0  0  0  0  0  0  0
  -21.3800  -29.2510   22.4130 N   0  0  0  0  0  0  0  0  0  0  0  0
  -23.3850  -28.8060   23.3680 O   0  0  0  0  0  0  0  0  0  0  0  0
  -20.8950  -29.8090   21.7230 H   0  0  0  0  0  0  0  0  0  0  0  0
  -18.0030  -28.0640   22.8930 C   0  0  0  0  0  0  0  0  0  0  0  0
  -20.5580  -28.3200   23.1860 C   0  0  0  0  0  3  0  0  0  0  0  0
  -20.6650  -26.8840   22.6230 C   0  0  0  0  0  2  0  0  0  0  0  0
  -19.5710  -26.5540   21.6020 C   0  0  0  0  0  2  0  0  0  0  0  0
  -18.1830  -26.7070   22.2320 C   0  0  0  0  0  2  0  0  0  0  0  0
  -19.1190  -28.8270   23.3270 C   0  0  0  0  0  0  0  0  0  0  0  0
  -18.8970  -30.0960   23.9060 C   0  0  0  0  0  3  0  0  0  0  0  0
  -17.5930  -30.6000   24.0560 C   0  0  0  0  0  3  0  0  0  0  0  0
  -16.4910  -29.8350   23.6370 C   0  0  0  0  0  3  0  0  0  0  0  0
  -16.6960  -28.5680   23.0620 C   0  0  0  0  0  3  0  0  0  0  0  0
  -25.8610  -32.4720   23.8480 C   0  0  0  0  0  3  0  0  0  0  0  0
  -25.5600  -33.8730   24.1730 N   0  0  0  0  0  0  0  0  0  0  0  0
  -25.8990  -34.9190   23.4070 C   0  0  0  0  0  0  0  0  0  0  0  0
  -26.5710  -34.8070   22.3780 O   0  0  0  0  0  0  0  0  0  0  0  0
  -24.9680  -34.0340   24.9730 H   0  0  0  0  0  0  0  0  0  0  0  0
  -24.1830  -36.7200   23.0370 C   0  0  0  0  0  1  0  0  0  0  0  0
  -25.4180  -36.3130   23.8570 C   0  0  0  0  0  3  0  0  0  0  0  0
  -27.5580  -37.1850   24.6880 C   0  0  0  0  0  1  0  0  0  0  0  0
  -26.4570  -37.3590   23.7440 N   0  0  0  0  0  0  0  0  0  0  0  0
  -26.0560  -38.2820   23.8900 H   0  0  0  0  0  0  0  0  0  0  0  0
  -26.3760  -31.7000   25.1230 C   0  0  1  0  0  0  0  0  0  0  0  0
  -25.2860  -31.4730   26.1960 C   0  0  0  0  0  1  0  0  0  0  0  0
  -26.9500  -30.3190   24.7290 C   0  0  0  0  0  1  0  0  0  0  0  0
  -27.5340  -32.4890   25.7810 C   0  0  0  0  0  1  0  0  0  0  0  0
  -31.9110  -18.4590   16.3050 C   0  0  0  0  0  2  0  0  0  0  0  0
  -32.0070  -17.3850   15.2050 C   0  0  0  0  0  2  0  0  0  0  0  0
  -32.8110  -16.1800   15.7320 C   0  0  0  0  0  2  0  0  0  0  0  0
  -32.7050  -14.9040   14.8780 C   0  0  0  0  0  2  0  0  0  0  0  0
  -33.7320  -13.9130   15.2730 N   0  0  0  0  0  4  0  0  0  0  0  0
  -33.7850  -13.2080   14.5530 H   0  0  0  0  0  0  0  0  0  0  0  0
  -34.6150  -14.3920   15.2760 H   0  0  0  0  0  0  0  0  0  0  0  0
  -33.5430  -13.2620   16.5950 C   0  0  0  0  0  2  0  0  0  0  0  0
  -34.8010  -13.4130   17.4840 C   0  0  0  0  0  2  0  0  0  0  0  0
  -34.7660  -12.7140   18.8720 C   0  0  0  0  0  2  0  0  0  0  0  0
  -34.2490  -13.5720   20.0590 C   0  0  0  0  0  2  0  0  0  0  0  0
  -33.2220  -12.8810   21.0160 C   0  0  0  0  0  2  0  0  0  0  0  0
  -31.1870  -14.1470   20.5270 C   0  0  0  0  0  0  0  0  0  0  0  0
  -30.5320  -12.3260   19.0880 C   0  0  0  0  0  2  0  0  0  0  0  0
  -29.5280  -12.6100   17.9740 C   0  0  0  0  0  2  0  0  0  0  0  0
  -28.1130  -12.3720   18.4970 C   0  0  0  0  0  2  0  0  0  0  0  0
  -27.8270  -13.2730   19.7250 C   0  0  0  0  0  3  0  0  0  0  0  0
  -28.9180  -13.0680   20.8130 C   0  0  0  0  0  2  0  0  0  0  0  0
  -30.2740  -13.1960   20.2350 N   0  0  0  0  0  0  0  0  0  0  0  0
  -31.5940  -14.9900   19.7340 O   0  0  0  0  0  0  0  0  0  0  0  0
  -32.0620  -13.7000   21.4360 N   0  0  0  0  0  0  0  0  0  0  0  0
  -32.2910  -14.3850   22.1460 H   0  0  0  0  0  0  0  0  0  0  0  0
  -25.4160  -13.9090   20.4160 C   0  0  0  0  0  0  0  0  0  0  0  0
  -24.3480  -13.1420   20.7920 C   0  0  0  0  0  0  0  0  0  0  0  0
  -24.8060  -11.7890   20.7880 C   0  0  0  0  0  0  0  0  0  0  0  0
  -26.4680  -13.0250   20.2140 N   0  0  0  0  0  0  0  0  0  0  0  0
  -26.1000  -11.7500   20.5020 N   0  0  0  0  0  0  0  0  0  0  0  0
  -24.0750  -10.5300   20.9790 C   0  0  0  0  0  0  0  0  0  0  0  0
  -24.4960   -9.5630   21.9210 C   0  0  0  0  0  3  0  0  0  0  0  0
  -23.7580   -8.3760   22.1050 C   0  0  0  0  0  3  0  0  0  0  0  0
  -22.5800   -8.1490   21.3510 C   0  0  0  0  0  0  0  0  0  0  0  0
  -22.1770   -9.1020   20.3980 C   0  0  0  0  0  3  0  0  0  0  0  0
  -22.9180  -10.2810   20.2110 C   0  0  0  0  0  3  0  0  0  0  0  0
  -21.8100   -7.0190   21.4490 O   0  0  0  0  0  0  0  0  0  0  0  0
  -21.7590   -6.2820   22.6070 C   0  0  0  0  0  0  0  0  0  0  0  0
  -21.3590   -6.8480   23.8360 C   0  0  0  0  0  3  0  0  0  0  0  0
  -21.2440   -6.0320   24.9820 C   0  0  0  0  0  3  0  0  0  0  0  0
  -21.5320   -4.6570   24.9000 C   0  0  0  0  0  0  0  0  0  0  0  0
  -21.9360   -4.0940   23.6780 C   0  0  0  0  0  3  0  0  0  0  0  0
  -22.0450   -4.9050   22.5340 C   0  0  0  0  0  0  0  0  0  0  0  0
  -22.4100   -4.3510   21.3540 F   0  0  0  0  0  0  0  0  0  0  0  0
  -21.4150   -3.8720   25.9990 F   0  0  0  0  0  0  0  0  0  0  0  0
  -22.9470  -13.6260   21.0500 C   0  0  0  0  0  0  0  0  0  0  0  0
  -22.2160  -12.9540   21.9340 N   0  0  0  0  0  0  0  0  0  0  0  0
  -22.5140  -14.6480   20.5180 O   0  0  0  0  0  0  0  0  0  0  0  0
  -22.5700  -12.1320   22.4010 H   0  0  0  0  0  0  0  0  0  0  0  0
  -21.2830  -13.2720   22.1580 H   0  0  0  0  0  0  0  0  0  0  0  0
  -25.5570  -15.2820   20.2250 N   0  0  0  0  0  0  0  0  0  0  0  0
  -24.7650  -15.9040   20.3590 H   0  0  0  0  0  0  0  0  0  0  0  0
  -26.3960  -15.7750   19.9390 H   0  0  0  0  0  0  0  0  0  0  0  0
  1 53  1  0
  1  4  1  0
  2  1  1  0
  3  1  1  0
  5  4  1  0
  5  6  1  0
  6  7  1  0
  8  6  1  0
  8  9  1  0
  9 10  2  0
 11  9  1  0
 11 12  1  0
 13 24  2  0
 14 12  1  0
 14 19  1  0
 15 23  1  0
 15 25  1  0
 16 22  1  0
 16 18  1  0
 17 23  1  0
 18 19  2  0
 18 17  1  0
 20 21  1  0
 20 14  2  0
 21 16  2  0
 22 15  1  0
 23 13  1  0
 25 27  2  0
 26 25  1  0
 28 26  1  0
 29 38  2  0
 29 34  1  0
 30 26  1  0
 30 34  1  0
 31 30  1  0
 32 33  1  0
 32 31  1  0
 33 29  1  0
 34 35  2  0
 35 36  1  0
 37 36  2  0
 38 37  1  0
 39 13  1  0
 39 40  1  0
 39 49  1  0
 40 43  1  0
 41 45  1  0
 41 40  1  0
 42 41  2  0
 45 44  1  0
 47 45  1  0
 47 48  1  0
 47 46  1  0
 49 52  1  1
 49 50  1  0
 51 49  1  0
 54 55  1  0
 54 53  1  0
 56 57  1  0
 56 55  1  0
 57 59  1  0
 57 60  1  0
 58 57  1  0
 60 61  1  0
 61 62  1  0
 62 63  1  0
 63 64  1  0
 64 73  1  0
 65 73  1  0
 66 71  1  0
 67 68  1  0
 67 66  1  0
 69 68  1  0
 69 78  1  0
 69 70  1  0
 71 65  1  0
 71 70  1  0
 72 65  2  0
 73 74  1  0
 75 76  2  0
 76 95  1  0
 77 76  1  0
 77 80  1  0
 78 75  1  0
 78 79  1  0
 79 77  2  0
 80 81  1  0
 81 82  2  0
 83 86  1  0
 83 82  1  0
 84 83  2  0
 85 84  1  0
 85 80  2  0
 86 87  1  0
 87 88  1  0
 88 89  2  0
 90 89  1  0
 90 94  1  0
 91 90  2  0
 92 87  2  0
 92 91  1  0
 93 92  1  0
 95 96  1  0
 96 99  1  0
 96 98  1  0
 97 95  2  0
100101  1  0
100 75  1  0
102100  1  0
M  ISO  4  11 101  12 101  65 100  73 100
M  END
>  <TORSDO>  (31) 
F 32

>  <SCORE>  (31) 
-10.459

>  <name>  (31) 
30

>  <ligand_id>  (31) 
30

>  <original_smiles>  (31) 
[H]c1c([H])c([H])c2c(c1[H])C([H])([H])C([H])([H])C([H])([H])C2([H])N([H])C(=O)C1([H])N(C(=O)C([H])(N([H])C(=O)C([H])(N([H])C([H])([H])[H])C([H])([H])[H])C(C([H])([H])[H])(C([H])([H])[H])C([H])([H])[H])C([H])([H])c2c([H])c(OC([H])([H])C(=O)C([H])([H])N([H])C([H])([H])C([H])([H])[N+]([H])([H])C([H])([H])C([H])([H])C([H])([H])C([H])([H])[N+]([H])([H])C([H])([H])C([H])([H])C([H])([H])C([H])([H])C([H])([H])N([H])C(=O)N3C([H])([H])C([H])([H])C([H])([H])C([H])(n4nc(-c5c([H])c([H])c(Oc6c([H])c([H])c(F)c([H])c6F)c([H])c5[H])c(C(=O)N([H])[H])c4N([H])[H])C3([H])[H])c([H])c([H])c2C1([H])[H]

>  <smiles>  (31) 
[H]c1c([H])c([H])c2c(c1[H])C([H])([H])C([H])([H])C([H])([H])C2([H])N([H])C(=O)C1([H])N(C(=O)C([H])(N([H])C(=O)C([H])(N([H])C([H])([H])[H])C([H])([H])[H])C(C([H])([H])[H])(C([H])([H])[H])C([H])([H])[H])C([H])([H])c2c([H])c(OC([H])([H])C(=O)C([H])([H])N([H])C([H])([H])C([H])([H])[N+]([H])([H])C([H])([H])C([H])([H])C([H])([H])C([H])([H])[N+]([H])([H])C([H])([H])C([H])([H])C([H])([H])C([H])([H])C([H])([H])N([H])C(=O)N3C([H])([H])C([H])([H])C([H])([H])C([H])(n4nc(-c5c([H])c([H])c(Oc6c([H])c([H])c(F)c([H])c6F)c([H])c5[H])c(C(=O)N([H])[H])c4N([H])[H])C3([H])[H])c([H])c([H])c2C1([H])[H]

$$$$
31:0:0
     RDKit          3D

102110  0  0  1  0  0  0  0  0999 V2000
  -28.6550  -22.4760   17.4870 C   0  0  0  0  0  3  0  0  0  0  0  0
  -30.8200  -22.5500   16.3820 C   0  0  0  0  0  3  0  0  0  0  0  0
  -28.2810  -23.6680   16.8350 C   0  0  0  0  0  3  0  0  0  0  0  0
  -30.4480  -23.7400   15.7260 C   0  0  0  0  0  3  0  0  0  0  0  0
  -29.9310  -21.9010   17.2680 C   0  0  0  0  0  0  0  0  0  0  0  0
  -29.1800  -24.3150   15.9580 C   0  0  0  0  0  0  0  0  0  0  0  0
  -27.5120  -25.5860   14.5200 C   0  0  0  0  0  1  0  0  0  0  0  0
  -28.8230  -25.6630   15.3250 C   0  0  0  0  0  3  0  0  0  0  0  0
  -28.7760  -26.7160   16.3680 N   0  0  0  0  0  4  0  0  0  0  0  0
  -28.4670  -27.5750   15.9440 H   0  0  0  0  0  0  0  0  0  0  0  0
  -28.0820  -26.4540   17.0480 H   0  0  0  0  0  0  0  0  0  0  0  0
  -30.0600  -26.9890   17.0610 C   0  0  0  0  0  2  0  0  0  0  0  0
  -29.8590  -27.5300   18.4920 C   0  0  0  0  0  2  0  0  0  0  0  0
  -29.6580  -26.4240   19.5630 C   0  0  0  0  0  2  0  0  0  0  0  0
  -29.1590  -26.9390   20.8020 O   0  0  0  0  0  0  0  0  0  0  0  0
  -24.8620  -31.9320   23.4980 C   0  0  0  0  0  0  0  0  0  0  0  0
  -27.9160  -27.5300   20.7750 C   0  0  0  0  0  0  0  0  0  0  0  0
  -23.8300  -30.4030   21.8510 C   0  0  0  0  0  3  0  0  0  0  0  0
  -25.4420  -28.8750   20.5990 C   0  0  0  0  0  0  0  0  0  0  0  0
  -26.3400  -30.8810   21.7920 C   0  0  0  0  0  2  0  0  0  0  0  0
  -26.5290  -29.4860   21.2390 C   0  0  0  0  0  0  0  0  0  0  0  0
  -27.7620  -28.8100   21.3460 C   0  0  0  0  0  3  0  0  0  0  0  0
  -26.8030  -26.9100   20.1630 C   0  0  0  0  0  3  0  0  0  0  0  0
  -25.5690  -27.5800   20.0710 C   0  0  0  0  0  3  0  0  0  0  0  0
  -24.1590  -29.6720   20.5200 C   0  0  0  0  0  2  0  0  0  0  0  0
  -25.0260  -31.0890   22.4400 N   0  0  0  0  0  0  0  0  0  0  0  0
  -23.7360  -32.1740   23.9550 O   0  0  0  0  0  0  0  0  0  0  0  0
  -23.1690  -29.3920   22.8140 C   0  0  0  0  0  0  0  0  0  0  0  0
  -21.8820  -29.0940   22.5760 N   0  0  0  0  0  0  0  0  0  0  0  0
  -23.8160  -28.8760   23.7300 O   0  0  0  0  0  0  0  0  0  0  0  0
  -21.4230  -29.5620   21.8070 H   0  0  0  0  0  0  0  0  0  0  0  0
  -18.5770  -27.6580   22.8220 C   0  0  0  0  0  0  0  0  0  0  0  0
  -21.0650  -28.1460   23.3300 C   0  0  0  0  0  3  0  0  0  0  0  0
  -21.3360  -26.6940   22.8730 C   0  0  0  0  0  2  0  0  0  0  0  0
  -20.3750  -26.2140   21.7800 C   0  0  0  0  0  2  0  0  0  0  0  0
  -18.9260  -26.2860   22.2710 C   0  0  0  0  0  2  0  0  0  0  0  0
  -19.5830  -28.5370   23.3040 C   0  0  0  0  0  0  0  0  0  0  0  0
  -19.2100  -29.8140   23.7740 C   0  0  0  0  0  3  0  0  0  0  0  0
  -17.8620  -30.2190   23.7660 C   0  0  0  0  0  3  0  0  0  0  0  0
  -16.8670  -29.3390   23.3040 C   0  0  0  0  0  3  0  0  0  0  0  0
  -17.2250  -28.0610   22.8380 C   0  0  0  0  0  3  0  0  0  0  0  0
  -26.0750  -32.6510   24.1640 C   0  0  0  0  0  3  0  0  0  0  0  0
  -26.5380  -31.9710   25.5090 C   0  0  1  0  0  0  0  0  0  0  0  0
  -25.3770  -31.6890   26.4910 C   0  0  0  0  0  1  0  0  0  0  0  0
  -27.2520  -30.6280   25.2240 C   0  0  0  0  0  1  0  0  0  0  0  0
  -27.5760  -32.8680   26.2230 C   0  0  0  0  0  1  0  0  0  0  0  0
  -25.6890  -34.0500   24.3900 N   0  0  0  0  0  0  0  0  0  0  0  0
  -26.0180  -35.0690   23.5840 C   0  0  0  0  0  0  0  0  0  0  0  0
  -26.7500  -34.9340   22.6000 O   0  0  0  0  0  0  0  0  0  0  0  0
  -25.0370  -34.2250   25.1410 H   0  0  0  0  0  0  0  0  0  0  0  0
  -24.2250  -36.7440   23.0350 C   0  0  0  0  0  1  0  0  0  0  0  0
  -25.4450  -36.4590   23.9240 C   0  0  0  0  0  3  0  0  0  0  0  0
  -27.4920  -37.5070   24.7860 C   0  0  0  0  0  1  0  0  0  0  0  0
  -26.4320  -37.5520   23.7830 N   0  0  0  0  0  0  0  0  0  0  0  0
  -25.9770  -38.4590   23.8450 H   0  0  0  0  0  0  0  0  0  0  0  0
  -30.3710  -20.6520   17.9650 C   0  0  0  0  0  0  0  0  0  0  0  0
  -31.5540  -20.2860   17.9480 O   0  0  0  0  0  0  0  0  0  0  0  0
  -28.6440  -18.8460   17.5780 C   0  0  0  0  0  1  0  0  0  0  0  0
  -29.2970  -19.7700   18.6400 C   0  0  0  0  0  3  0  0  0  0  0  0
  -29.9750  -19.0610   19.7610 N   0  0  0  0  0  4  0  0  0  0  0  0
  -30.9580  -19.1040   19.5210 H   0  0  0  0  0  0  0  0  0  0  0  0
  -29.8600  -19.6110   20.5960 H   0  0  0  0  0  0  0  0  0  0  0  0
  -29.5800  -17.6580   20.0250 C   0  0  0  0  0  2  0  0  0  0  0  0
  -30.1800  -17.0710   21.3220 C   0  0  0  0  0  2  0  0  0  0  0  0
  -30.6000  -14.7190   20.6600 C   0  0  0  0  0  0  0  0  0  0  0  0
  -30.3440  -12.6500   19.3580 C   0  0  0  0  0  2  0  0  0  0  0  0
  -29.4020  -12.9090   18.1670 C   0  0  0  0  0  2  0  0  0  0  0  0
  -27.9280  -12.7160   18.5780 C   0  0  0  0  0  2  0  0  0  0  0  0
  -27.5640  -13.4600   19.8910 C   0  0  0  0  0  3  0  0  0  0  0  0
  -28.6210  -13.1840   20.9860 C   0  0  0  0  0  2  0  0  0  0  0  0
  -29.9480  -13.5450   20.4530 N   0  0  0  0  0  0  0  0  0  0  0  0
  -31.6680  -15.0110   20.1170 O   0  0  0  0  0  0  0  0  0  0  0  0
  -29.9250  -15.6260   21.3770 N   0  0  0  0  0  0  0  0  0  0  0  0
  -29.0620  -15.3120   21.7950 H   0  0  0  0  0  0  0  0  0  0  0  0
  -25.1220  -13.9500   20.5580 C   0  0  0  0  0  0  0  0  0  0  0  0
  -24.0880  -13.1240   20.9050 C   0  0  0  0  0  0  0  0  0  0  0  0
  -24.6100  -11.7960   20.8660 C   0  0  0  0  0  0  0  0  0  0  0  0
  -26.2140  -13.1200   20.3400 N   0  0  0  0  0  0  0  0  0  0  0  0
  -25.9050  -11.8190   20.5800 N   0  0  0  0  0  0  0  0  0  0  0  0
  -23.9420  -10.4990   21.0300 C   0  0  0  0  0  0  0  0  0  0  0  0
  -24.3640   -9.5700   22.0060 C   0  0  0  0  0  3  0  0  0  0  0  0
  -23.6930   -8.3370   22.1590 C   0  0  0  0  0  3  0  0  0  0  0  0
  -22.5860   -8.0240   21.3350 C   0  0  0  0  0  0  0  0  0  0  0  0
  -22.1840   -8.9440   20.3500 C   0  0  0  0  0  3  0  0  0  0  0  0
  -22.8570  -10.1670   20.1950 C   0  0  0  0  0  3  0  0  0  0  0  0
  -21.8880   -6.8410   21.3960 O   0  0  0  0  0  0  0  0  0  0  0  0
  -21.7690   -6.1350   22.5660 C   0  0  0  0  0  0  0  0  0  0  0  0
  -21.1490   -6.6840   23.7090 C   0  0  0  0  0  3  0  0  0  0  0  0
  -20.9860   -5.8980   24.8680 C   0  0  0  0  0  3  0  0  0  0  0  0
  -21.4330   -4.5630   24.8810 C   0  0  0  0  0  0  0  0  0  0  0  0
  -22.0460   -4.0130   23.7420 C   0  0  0  0  0  3  0  0  0  0  0  0
  -22.2100   -4.7970   22.5860 C   0  0  0  0  0  0  0  0  0  0  0  0
  -22.7810   -4.2550   21.4830 F   0  0  0  0  0  0  0  0  0  0  0  0
  -21.2690   -3.8040   25.9910 F   0  0  0  0  0  0  0  0  0  0  0  0
  -22.6650  -13.5320   21.1620 C   0  0  0  0  0  0  0  0  0  0  0  0
  -21.9560  -12.7850   22.0000 N   0  0  0  0  0  0  0  0  0  0  0  0
  -22.1890  -14.5460   20.6530 O   0  0  0  0  0  0  0  0  0  0  0  0
  -22.3570  -11.9630   22.4280 H   0  0  0  0  0  0  0  0  0  0  0  0
  -21.0010  -13.0350   22.2120 H   0  0  0  0  0  0  0  0  0  0  0  0
  -25.2230  -15.3280   20.3970 N   0  0  0  0  0  0  0  0  0  0  0  0
  -24.4180  -15.9380   20.4890 H   0  0  0  0  0  0  0  0  0  0  0  0
  -26.0470  -15.8120   20.0630 H   0  0  0  0  0  0  0  0  0  0  0  0
  2  5  2  0
  3  1  2  0
  4  6  2  0
  4  2  1  0
  5  1  1  0
  5 56  1  0
  6  3  1  0
  8  7  1  0
  8  6  1  0
  8  9  1  0
  9 11  1  0
  9 12  1  0
 10  9  1  0
 12 13  1  0
 13 14  1  0
 14 15  1  0
 16 27  2  0
 17 15  1  0
 17 22  1  0
 18 26  1  0
 18 28  1  0
 19 21  1  0
 20 26  1  0
 21 22  2  0
 21 20  1  0
 23 17  2  0
 24 23  1  0
 24 19  2  0
 25 19  1  0
 25 18  1  0
 26 16  1  0
 28 30  2  0
 29 28  1  0
 31 29  1  0
 32 41  2  0
 32 37  1  0
 33 29  1  0
 34 33  1  0
 35 36  1  0
 35 34  1  0
 36 32  1  0
 37 33  1  0
 37 38  2  0
 39 38  1  0
 40 39  2  0
 41 40  1  0
 42 16  1  0
 42 47  1  0
 42 43  1  0
 43 46  1  1
 43 44  1  0
 45 43  1  0
 47 50  1  0
 48 52  1  0
 48 47  1  0
 49 48  2  0
 52 51  1  0
 54 55  1  0
 54 52  1  0
 54 53  1  0
 56 59  1  0
 57 56  2  0
 59 58  1  0
 59 60  1  0
 60 63  1  0
 60 62  1  0
 61 60  1  0
 63 64  1  0
 64 73  1  0
 65 73  1  0
 66 71  1  0
 67 68  1  0
 67 66  1  0
 69 68  1  0
 69 78  1  0
 69 70  1  0
 71 65  1  0
 71 70  1  0
 72 65  2  0
 73 74  1  0
 75 76  2  0
 76 95  1  0
 77 76  1  0
 77 80  1  0
 78 75  1  0
 78 79  1  0
 79 77  2  0
 80 81  1  0
 81 82  2  0
 83 86  1  0
 83 82  1  0
 84 83  2  0
 85 84  1  0
 85 80  2  0
 86 87  1  0
 87 92  2  0
 87 88  1  0
 88 89  2  0
 89 90  1  0
 90 94  1  0
 91 90  2  0
 92 91  1  0
 93 92  1  0
 95 96  1  0
 96 99  1  0
 96 98  1  0
 97 95  2  0
100101  1  0
100 75  1  0
102100  1  0
M  ISO  4  14 101  15 101  65 100  73 100
M  END
>  <TORSDO>  (32) 
F 26

>  <SCORE>  (32) 
-11.337

>  <name>  (32) 
31

>  <ligand_id>  (32) 
31

>  <original_smiles>  (32) 
[H]c1c([H])c([H])c2c(c1[H])C([H])([H])C([H])([H])C([H])([H])C2([H])N([H])C(=O)C1([H])N(C(=O)C([H])(N([H])C(=O)C([H])(N([H])C([H])([H])[H])C([H])([H])[H])C(C([H])([H])[H])(C([H])([H])[H])C([H])([H])[H])C([H])([H])c2c([H])c(OC([H])([H])C([H])([H])C([H])([H])[N+]([H])([H])C([H])(c3c([H])c([H])c(C(=O)C([H])(C([H])([H])[H])[N+]([H])([H])C([H])([H])C([H])([H])N([H])C(=O)N4C([H])([H])C([H])([H])C([H])([H])C([H])(n5nc(-c6c([H])c([H])c(Oc7c([H])c([H])c(F)c([H])c7F)c([H])c6[H])c(C(=O)N([H])[H])c5N([H])[H])C4([H])[H])c([H])c3[H])C([H])([H])[H])c([H])c([H])c2C1([H])[H]

>  <smiles>  (32) 
[H]c1c([H])c([H])c2c(c1[H])C([H])([H])C([H])([H])C([H])([H])C2([H])N([H])C(=O)C1([H])N(C(=O)C([H])(N([H])C(=O)C([H])(N([H])C([H])([H])[H])C([H])([H])[H])C(C([H])([H])[H])(C([H])([H])[H])C([H])([H])[H])C([H])([H])c2c([H])c(OC([H])([H])C([H])([H])C([H])([H])[N+]([H])([H])C([H])(c3c([H])c([H])c(C(=O)C([H])(C([H])([H])[H])[N+]([H])([H])C([H])([H])C([H])([H])N([H])C(=O)N4C([H])([H])C([H])([H])C([H])([H])C([H])(n5nc(-c6c([H])c([H])c(Oc7c([H])c([H])c(F)c([H])c7F)c([H])c6[H])c(C(=O)N([H])[H])c5N([H])[H])C4([H])[H])c([H])c3[H])C([H])([H])[H])c([H])c([H])c2C1([H])[H]

$$$$
33:0:0
     RDKit          3D

 91 98  0  0  1  0  0  0  0  0999 V2000
  -28.7910  -21.5610   20.3640 C   0  0  0  0  0  0  0  0  0  0  0  0
  -27.7800  -21.3940   19.6730 O   0  0  0  0  0  0  0  0  0  0  0  0
  -30.2460  -20.4520   22.1830 C   0  0  0  0  0  1  0  0  0  0  0  0
  -29.7180  -20.3540   20.7370 C   0  0  0  0  0  3  0  0  0  0  0  0
  -28.8960  -19.1260   20.5410 N   0  0  0  0  0  4  0  0  0  0  0  0
  -28.2820  -18.9940   21.3280 H   0  0  0  0  0  0  0  0  0  0  0  0
  -28.2880  -19.4100   19.7820 H   0  0  0  0  0  0  0  0  0  0  0  0
  -29.5180  -17.8260   20.1350 C   0  0  0  0  0  2  0  0  0  0  0  0
  -30.0940  -16.9480   21.2920 C   0  0  0  0  0  2  0  0  0  0  0  0
  -30.6540  -14.5340   20.5540 C   0  0  0  0  0  0  0  0  0  0  0  0
  -30.4300  -12.3700   19.3690 C   0  0  0  0  0  2  0  0  0  0  0  0
  -29.5000  -12.5620   18.1500 C   0  0  0  0  0  2  0  0  0  0  0  0
  -28.0180  -12.4200   18.5520 C   0  0  0  0  0  2  0  0  0  0  0  0
  -27.6570  -13.2530   19.8110 C   0  0  0  0  0  3  0  0  0  0  0  0
  -28.6880  -13.0040   20.9340 C   0  0  0  0  0  2  0  0  0  0  0  0
  -30.0220  -13.3360   20.4010 N   0  0  0  0  0  0  0  0  0  0  0  0
  -31.7790  -14.7690   20.1040 O   0  0  0  0  0  0  0  0  0  0  0  0
  -29.8830  -15.4950   21.1050 N   0  0  0  0  0  0  0  0  0  0  0  0
  -28.9890  -15.1510   21.4250 H   0  0  0  0  0  0  0  0  0  0  0  0
  -25.2420  -13.8790   20.4460 C   0  0  0  0  0  0  0  0  0  0  0  0
  -24.1640  -13.1150   20.8030 C   0  0  0  0  0  0  0  0  0  0  0  0
  -24.6220  -11.7630   20.8070 C   0  0  0  0  0  0  0  0  0  0  0  0
  -26.2910  -12.9920   20.2580 N   0  0  0  0  0  0  0  0  0  0  0  0
  -25.9190  -11.7150   20.5300 N   0  0  0  0  0  0  0  0  0  0  0  0
  -23.8910  -10.5050   21.0010 C   0  0  0  0  0  0  0  0  0  0  0  0
  -24.3040   -9.5500   21.9540 C   0  0  0  0  0  3  0  0  0  0  0  0
  -23.5730   -8.3550   22.1340 C   0  0  0  0  0  3  0  0  0  0  0  0
  -22.4150   -8.1090   21.3600 C   0  0  0  0  0  0  0  0  0  0  0  0
  -22.0220   -9.0540   20.3950 C   0  0  0  0  0  3  0  0  0  0  0  0
  -22.7530  -10.2390   20.2130 C   0  0  0  0  0  3  0  0  0  0  0  0
  -21.6580   -6.9660   21.4480 O   0  0  0  0  0  0  0  0  0  0  0  0
  -21.5890   -6.2370   22.6070 C   0  0  0  0  0  0  0  0  0  0  0  0
  -21.1390   -6.8050   23.8190 C   0  0  0  0  0  3  0  0  0  0  0  0
  -21.0170   -6.0010   24.9700 C   0  0  0  0  0  3  0  0  0  0  0  0
  -21.3350   -4.6310   24.9110 C   0  0  0  0  0  0  0  0  0  0  0  0
  -21.7780   -4.0620   23.7040 C   0  0  0  0  0  3  0  0  0  0  0  0
  -21.9010   -4.8630   22.5540 C   0  0  0  0  0  0  0  0  0  0  0  0
  -22.3080   -4.3060   21.3890 F   0  0  0  0  0  0  0  0  0  0  0  0
  -21.2100   -3.8570   26.0140 F   0  0  0  0  0  0  0  0  0  0  0  0
  -22.7600  -13.5990   21.0350 C   0  0  0  0  0  0  0  0  0  0  0  0
  -22.0110  -12.9180   21.8940 N   0  0  0  0  0  0  0  0  0  0  0  0
  -22.3370  -14.6180   20.4890 O   0  0  0  0  0  0  0  0  0  0  0  0
  -22.3670  -12.0950   22.3580 H   0  0  0  0  0  0  0  0  0  0  0  0
  -21.0690  -13.2230   22.0920 H   0  0  0  0  0  0  0  0  0  0  0  0
  -25.4140  -15.2460   20.2460 N   0  0  0  0  0  0  0  0  0  0  0  0
  -24.6410  -15.8990   20.3050 H   0  0  0  0  0  0  0  0  0  0  0  0
  -26.2610  -15.6660   19.8850 H   0  0  0  0  0  0  0  0  0  0  0  0
  -29.1410  -22.9890   20.8600 C   0  0  0  0  0  2  0  0  0  0  0  0
  -28.4910  -24.1940   20.0960 C   0  0  0  0  0  2  0  0  0  0  0  0
  -28.4590  -25.5160   20.9160 C   0  0  0  0  0  2  0  0  0  0  0  0
  -28.4090  -26.7220   20.1280 O   0  0  0  0  0  0  0  0  0  0  0  0
  -24.5780  -31.8940   23.2370 C   0  0  0  0  0  0  0  0  0  0  0  0
  -27.2370  -27.4470   20.1700 C   0  0  0  0  0  0  0  0  0  0  0  0
  -23.3770  -30.4880   21.5930 C   0  0  0  0  0  3  0  0  0  0  0  0
  -24.8370  -28.9470   20.1720 C   0  0  0  0  0  0  0  0  0  0  0  0
  -25.9010  -30.8520   21.3960 C   0  0  0  0  0  2  0  0  0  0  0  0
  -25.9940  -29.4790   20.7590 C   0  0  0  0  0  0  0  0  0  0  0  0
  -27.1980  -28.7380   20.7490 C   0  0  0  0  0  3  0  0  0  0  0  0
  -26.0660  -26.9270   19.5820 C   0  0  0  0  0  3  0  0  0  0  0  0
  -24.8680  -27.6710   19.5800 C   0  0  0  0  0  3  0  0  0  0  0  0
  -23.5900  -29.8050   20.2140 C   0  0  0  0  0  2  0  0  0  0  0  0
  -24.6370  -31.0940   22.1340 N   0  0  0  0  0  0  0  0  0  0  0  0
  -23.4950  -32.1640   23.7770 O   0  0  0  0  0  0  0  0  0  0  0  0
  -22.7260  -29.4680   22.5540 C   0  0  0  0  0  0  0  0  0  0  0  0
  -21.4010  -29.2830   22.4250 N   0  0  0  0  0  0  0  0  0  0  0  0
  -23.4090  -28.8440   23.3700 O   0  0  0  0  0  0  0  0  0  0  0  0
  -20.9110  -29.8400   21.7410 H   0  0  0  0  0  0  0  0  0  0  0  0
  -18.0300  -28.0780   22.9170 C   0  0  0  0  0  0  0  0  0  0  0  0
  -20.5860  -28.3420   23.1930 C   0  0  0  0  0  3  0  0  0  0  0  0
  -20.6930  -26.9120   22.6150 C   0  0  0  0  0  2  0  0  0  0  0  0
  -19.5930  -26.5880   21.5990 C   0  0  0  0  0  2  0  0  0  0  0  0
  -18.2110  -26.7300   22.2410 C   0  0  0  0  0  2  0  0  0  0  0  0
  -19.1460  -28.8420   23.3490 C   0  0  0  0  0  0  0  0  0  0  0  0
  -18.9240  -30.1050   23.9410 C   0  0  0  0  0  3  0  0  0  0  0  0
  -17.6190  -30.6050   24.1030 C   0  0  0  0  0  3  0  0  0  0  0  0
  -16.5160  -29.8370   23.6880 C   0  0  0  0  0  3  0  0  0  0  0  0
  -16.7230  -28.5770   23.1000 C   0  0  0  0  0  3  0  0  0  0  0  0
  -25.8620  -32.5270   23.8570 C   0  0  0  0  0  3  0  0  0  0  0  0
  -26.3780  -31.7610   25.1360 C   0  0  1  0  0  0  0  0  0  0  0  0
  -25.2860  -31.5250   26.2040 C   0  0  0  0  0  1  0  0  0  0  0  0
  -26.9620  -30.3830   24.7460 C   0  0  0  0  0  1  0  0  0  0  0  0
  -27.5290  -32.5580   25.7950 C   0  0  0  0  0  1  0  0  0  0  0  0
  -25.5540  -33.9270   24.1800 N   0  0  0  0  0  0  0  0  0  0  0  0
  -25.8930  -34.9760   23.4190 C   0  0  0  0  0  0  0  0  0  0  0  0
  -26.5700  -34.8670   22.3940 O   0  0  0  0  0  0  0  0  0  0  0  0
  -24.9520  -34.0860   24.9760 H   0  0  0  0  0  0  0  0  0  0  0  0
  -24.1750  -36.7720   23.0400 C   0  0  0  0  0  1  0  0  0  0  0  0
  -25.4040  -36.3670   23.8690 C   0  0  0  0  0  3  0  0  0  0  0  0
  -27.5320  -37.2470   24.7210 C   0  0  0  0  0  1  0  0  0  0  0  0
  -26.4410  -37.4160   23.7640 N   0  0  0  0  0  0  0  0  0  0  0  0
  -26.0370  -38.3390   23.9040 H   0  0  0  0  0  0  0  0  0  0  0  0
  1  4  1  0
  1 48  1  0
  2  1  2  0
  4  3  1  0
  5  4  1  0
  5  6  1  0
  7  5  1  0
  8  5  1  0
  8  9  1  0
 10 18  1  0
 11 16  1  0
 12 13  1  0
 12 11  1  0
 14 13  1  0
 14 23  1  0
 14 15  1  0
 16 10  1  0
 16 15  1  0
 17 10  2  0
 18  9  1  0
 18 19  1  0
 20 21  2  0
 21 22  1  0
 21 40  1  0
 22 25  1  0
 23 20  1  0
 23 24  1  0
 24 22  2  0
 25 26  1  0
 26 27  2  0
 28 31  1  0
 28 27  1  0
 29 28  2  0
 30 29  1  0
 30 25  2  0
 31 32  1  0
 32 33  1  0
 33 34  2  0
 35 34  1  0
 35 39  1  0
 36 35  2  0
 37 32  2  0
 37 36  1  0
 38 37  1  0
 40 41  1  0
 41 44  1  0
 41 43  1  0
 42 40  2  0
 45 46  1  0
 45 20  1  0
 47 45  1  0
 49 48  1  0
 49 50  1  0
 51 53  1  0
 51 50  1  0
 52 63  2  0
 53 58  1  0
 54 62  1  0
 54 64  1  0
 55 61  1  0
 55 57  1  0
 56 62  1  0
 57 56  1  0
 58 57  2  0
 59 53  2  0
 60 59  1  0
 60 55  2  0
 61 54  1  0
 62 52  1  0
 64 66  2  0
 65 64  1  0
 67 65  1  0
 68 77  2  0
 68 73  1  0
 69 65  1  0
 69 73  1  0
 70 69  1  0
 71 72  1  0
 71 70  1  0
 72 68  1  0
 73 74  2  0
 74 75  1  0
 76 75  2  0
 77 76  1  0
 78 52  1  0
 78 83  1  0
 78 79  1  0
 79 82  1  1
 79 80  1  0
 81 79  1  0
 83 86  1  0
 84 88  1  0
 84 83  1  0
 85 84  2  0
 88 87  1  0
 90 88  1  0
 90 91  1  0
 90 89  1  0
M  ISO  4  10 100  18 100  50 101  51 101
M  END
>  <TORSDO>  (33) 
F 23

>  <SCORE>  (33) 
-12.828

>  <name>  (33) 
33

>  <ligand_id>  (33) 
33

>  <original_smiles>  (33) 
[H]c1c([H])c([H])c2c(c1[H])C([H])([H])C([H])([H])C([H])([H])C2([H])N([H])C(=O)C1([H])N(C(=O)C([H])(N([H])C(=O)C([H])(N([H])C([H])([H])[H])C([H])([H])[H])C(C([H])([H])[H])(C([H])([H])[H])C([H])([H])[H])C([H])([H])c2c([H])c(OC([H])([H])C([H])([H])C([H])([H])C(=O)C([H])(C([H])([H])[H])[N+]([H])([H])C([H])([H])C([H])([H])N([H])C(=O)N3C([H])([H])C([H])([H])C([H])([H])C([H])(n4nc(-c5c([H])c([H])c(Oc6c([H])c([H])c(F)c([H])c6F)c([H])c5[H])c(C(=O)N([H])[H])c4N([H])[H])C3([H])[H])c([H])c([H])c2C1([H])[H]

>  <smiles>  (33) 
[H]c1c([H])c([H])c2c(c1[H])C([H])([H])C([H])([H])C([H])([H])C2([H])N([H])C(=O)C1([H])N(C(=O)C([H])(N([H])C(=O)C([H])(N([H])C([H])([H])[H])C([H])([H])[H])C(C([H])([H])[H])(C([H])([H])[H])C([H])([H])[H])C([H])([H])c2c([H])c(OC([H])([H])C([H])([H])C([H])([H])C(=O)C([H])(C([H])([H])[H])[N+]([H])([H])C([H])([H])C([H])([H])N([H])C(=O)N3C([H])([H])C([H])([H])C([H])([H])C([H])(n4nc(-c5c([H])c([H])c(Oc6c([H])c([H])c(F)c([H])c6F)c([H])c5[H])c(C(=O)N([H])[H])c4N([H])[H])C3([H])[H])c([H])c([H])c2C1([H])[H]

$$$$
34:0:0
     RDKit          3D

105113  0  0  1  0  0  0  0  0999 V2000
  -29.3530  -22.7450   22.4560 C   0  0  0  0  0  3  0  0  0  0  0  0
  -29.2910  -21.3450   22.3930 C   0  0  0  0  0  3  0  0  0  0  0  0
  -30.0420  -23.4820   21.4660 C   0  0  0  0  0  0  0  0  0  0  0  0
  -29.9420  -20.6510   21.3570 C   0  0  0  0  0  0  0  0  0  0  0  0
  -30.6130  -22.8050   20.3480 C   0  0  0  0  0  0  0  0  0  0  0  0
  -30.5690  -21.3800   20.3090 C   0  0  0  0  0  0  0  0  0  0  0  0
  -30.1980  -24.9610   21.6700 C   0  0  0  0  0  0  0  0  0  0  0  0
  -29.0990  -25.6880   21.4680 N   0  0  0  0  0  0  0  0  0  0  0  0
  -31.2900  -25.4510   21.9600 O   0  0  0  0  0  0  0  0  0  0  0  0
  -28.2530  -25.1950   21.2090 H   0  0  0  0  0  0  0  0  0  0  0  0
  -29.0560  -27.1440   21.3990 C   0  0  0  0  0  2  0  0  0  0  0  0
  -29.0520  -27.5810   19.9240 C   0  0  0  0  0  2  0  0  0  0  0  0
  -27.8220  -27.2190   19.2920 O   0  0  0  0  0  0  0  0  0  0  0  0
  -24.3650  -32.0640   23.2460 C   0  0  0  0  0  0  0  0  0  0  0  0
  -26.6920  -27.9680   19.5430 C   0  0  0  0  0  0  0  0  0  0  0  0
  -22.9900  -30.8180   21.6080 C   0  0  0  0  0  3  0  0  0  0  0  0
  -24.2890  -29.4120   19.9250 C   0  0  0  0  0  0  0  0  0  0  0  0
  -25.4760  -31.2160   21.1880 C   0  0  0  0  0  2  0  0  0  0  0  0
  -25.4930  -29.9060   20.4360 C   0  0  0  0  0  0  0  0  0  0  0  0
  -26.6910  -29.1970   20.2450 C   0  0  0  0  0  3  0  0  0  0  0  0
  -25.4670  -27.4760   19.0420 C   0  0  0  0  0  3  0  0  0  0  0  0
  -24.2680  -28.1920   19.2280 C   0  0  0  0  0  3  0  0  0  0  0  0
  -23.0620  -30.2600   20.1610 C   0  0  0  0  0  2  0  0  0  0  0  0
  -24.3010  -31.3730   22.0750 N   0  0  0  0  0  0  0  0  0  0  0  0
  -23.3440  -32.2820   23.9150 O   0  0  0  0  0  0  0  0  0  0  0  0
  -22.4270  -29.7160   22.5340 C   0  0  0  0  0  0  0  0  0  0  0  0
  -21.1130  -29.4600   22.4220 N   0  0  0  0  0  0  0  0  0  0  0  0
  -23.1670  -29.0920   23.2980 O   0  0  0  0  0  0  0  0  0  0  0  0
  -20.5710  -30.0190   21.7790 H   0  0  0  0  0  0  0  0  0  0  0  0
  -17.8590  -27.9580   22.8360 C   0  0  0  0  0  0  0  0  0  0  0  0
  -20.3740  -28.4430   23.1680 C   0  0  0  0  0  3  0  0  0  0  0  0
  -20.6190  -27.0350   22.5790 C   0  0  0  0  0  2  0  0  0  0  0  0
  -19.5730  -26.6270   21.5370 C   0  0  0  0  0  2  0  0  0  0  0  0
  -18.1720  -26.6400   22.1510 C   0  0  0  0  0  2  0  0  0  0  0  0
  -18.8930  -28.8130   23.3000 C   0  0  0  0  0  0  0  0  0  0  0  0
  -18.5460  -30.0440   23.8980 C   0  0  0  0  0  3  0  0  0  0  0  0
  -17.1990  -30.4220   24.0410 C   0  0  0  0  0  3  0  0  0  0  0  0
  -16.1780  -29.5680   23.5870 C   0  0  0  0  0  3  0  0  0  0  0  0
  -16.5090  -28.3380   22.9880 C   0  0  0  0  0  3  0  0  0  0  0  0
  -25.7140  -32.6300   23.7900 C   0  0  0  0  0  3  0  0  0  0  0  0
  -25.4910  -34.0370   24.1440 N   0  0  0  0  0  0  0  0  0  0  0  0
  -25.8830  -35.0770   23.3950 C   0  0  0  0  0  0  0  0  0  0  0  0
  -26.5440  -34.9480   22.3600 O   0  0  0  0  0  0  0  0  0  0  0  0
  -24.8960  -34.2170   24.9400 H   0  0  0  0  0  0  0  0  0  0  0  0
  -24.2720  -36.9780   23.0600 C   0  0  0  0  0  1  0  0  0  0  0  0
  -25.4790  -36.4840   23.8730 C   0  0  0  0  0  3  0  0  0  0  0  0
  -27.6630  -37.2120   24.7270 C   0  0  0  0  0  1  0  0  0  0  0  0
  -26.5750  -37.4730   23.7880 N   0  0  0  0  0  0  0  0  0  0  0  0
  -26.2250  -38.4130   23.9550 H   0  0  0  0  0  0  0  0  0  0  0  0
  -26.2750  -31.8230   25.0230 C   0  0  1  0  0  0  0  0  0  0  0  0
  -25.2300  -31.5820   26.1380 C   0  0  0  0  0  1  0  0  0  0  0  0
  -26.8130  -30.4430   24.5750 C   0  0  0  0  0  1  0  0  0  0  0  0
  -27.4710  -32.5810   25.6460 C   0  0  0  0  0  1  0  0  0  0  0  0
  -29.9280  -19.1690   21.4240 C   0  0  0  0  0  0  0  0  0  0  0  0
  -28.9470  -18.4760   21.1360 O   0  0  0  0  0  0  0  0  0  0  0  0
  -31.1960  -18.5270   21.9970 C   0  0  0  0  0  2  0  0  0  0  0  0
  -31.3110  -17.0110   21.7600 C   0  0  0  0  0  2  0  0  0  0  0  0
  -31.8810  -16.6360   20.3820 C   0  0  0  0  0  2  0  0  0  0  0  0
  -32.3720  -15.1830   20.3360 C   0  0  0  0  0  2  0  0  0  0  0  0
  -31.1090  -13.5050   19.0150 C   0  0  0  0  0  0  0  0  0  0  0  0
  -30.5620  -11.1880   18.4220 C   0  0  0  0  0  2  0  0  0  0  0  0
  -29.4240  -11.0350   17.4040 C   0  0  0  0  0  2  0  0  0  0  0  0
  -28.0670  -10.9960   18.1240 C   0  0  0  0  0  2  0  0  0  0  0  0
  -27.8880  -12.1920   19.0920 C   0  0  0  0  0  3  0  0  0  0  0  0
  -29.1130  -12.3560   20.0220 C   0  0  0  0  0  2  0  0  0  0  0  0
  -30.3400  -12.4070   19.2070 N   0  0  0  0  0  0  0  0  0  0  0  0
  -31.8030  -13.6860   18.0090 O   0  0  0  0  0  0  0  0  0  0  0  0
  -31.2780  -14.2370   20.1230 N   0  0  0  0  0  0  0  0  0  0  0  0
  -30.7300  -13.9670   20.9290 H   0  0  0  0  0  0  0  0  0  0  0  0
  -25.8230  -13.0710   20.3610 C   0  0  0  0  0  0  0  0  0  0  0  0
  -24.7490  -12.4300   20.9160 C   0  0  0  0  0  0  0  0  0  0  0  0
  -24.9680  -11.0350   20.7010 C   0  0  0  0  0  0  0  0  0  0  0  0
  -26.6410  -12.0750   19.8500 N   0  0  0  0  0  0  0  0  0  0  0  0
  -26.1380  -10.8390   20.1060 N   0  0  0  0  0  0  0  0  0  0  0  0
  -24.1070   -9.8770   20.9810 C   0  0  0  0  0  0  0  0  0  0  0  0
  -24.5210   -8.8400   21.8460 C   0  0  0  0  0  3  0  0  0  0  0  0
  -23.6700   -7.7470   22.1120 C   0  0  0  0  0  3  0  0  0  0  0  0
  -22.3890   -7.6830   21.5150 C   0  0  0  0  0  0  0  0  0  0  0  0
  -21.9910   -8.7040   20.6340 C   0  0  0  0  0  3  0  0  0  0  0  0
  -22.8420   -9.7890   20.3660 C   0  0  0  0  0  3  0  0  0  0  0  0
  -21.5060   -6.6460   21.6930 O   0  0  0  0  0  0  0  0  0  0  0  0
  -21.4380   -5.9530   22.8740 C   0  0  0  0  0  0  0  0  0  0  0  0
  -21.1380   -6.5920   24.0970 C   0  0  0  0  0  3  0  0  0  0  0  0
  -21.0110   -5.8320   25.2770 C   0  0  0  0  0  3  0  0  0  0  0  0
  -21.1730   -4.4340   25.2360 C   0  0  0  0  0  0  0  0  0  0  0  0
  -21.4650   -3.7950   24.0180 C   0  0  0  0  0  3  0  0  0  0  0  0
  -21.5940   -4.5530   22.8400 C   0  0  0  0  0  0  0  0  0  0  0  0
  -21.8550   -3.9290   21.6660 F   0  0  0  0  0  0  0  0  0  0  0  0
  -21.0420   -3.7020   26.3680 F   0  0  0  0  0  0  0  0  0  0  0  0
  -23.5390  -13.0730   21.5310 C   0  0  0  0  0  0  0  0  0  0  0  0
  -22.9340  -12.4230   22.5200 N   0  0  0  0  0  0  0  0  0  0  0  0
  -23.1530  -14.1840   21.1690 O   0  0  0  0  0  0  0  0  0  0  0  0
  -23.2680  -11.5230   22.8320 H   0  0  0  0  0  0  0  0  0  0  0  0
  -22.1280  -12.8320   22.9710 H   0  0  0  0  0  0  0  0  0  0  0  0
  -26.1610  -14.4140   20.2300 N   0  0  0  0  0  0  0  0  0  0  0  0
  -25.5570  -15.1620   20.5500 H   0  0  0  0  0  0  0  0  0  0  0  0
  -27.0020  -14.7500   19.7750 H   0  0  0  0  0  0  0  0  0  0  0  0
  -32.7660  -23.2280   19.0300 C   0  0  0  0  0  1  0  0  0  0  0  0
  -31.2770  -23.5830   19.1890 C   0  0  0  0  0  3  0  0  0  0  0  0
  -30.5370  -23.3770   17.9350 N   0  0  0  0  0  4  0  0  0  0  0  0
  -30.5160  -22.3810   17.7690 H   0  0  0  0  0  0  0  0  0  0  0  0
  -30.9820  -23.8480   17.1690 H   0  0  0  0  0  0  0  0  0  0  0  0
  -29.5940  -23.7110   18.0240 H   0  0  0  0  0  0  0  0  0  0  0  0
  -31.1240  -20.7360   19.2300 O   0  0  0  0  0  0  0  0  0  0  0  0
  -31.1340  -19.7880   19.2780 H   0  0  0  0  0  0  0  0  0  0  0  0
  2  1  1  0
  3  7  1  0
  3  1  2  0
  4 54  1  0
  4  2  2  0
  5  3  1  0
  6  5  2  0
  6  4  1  0
  7  9  2  0
  8  7  1  0
 10  8  1  0
 11  8  1  0
 12 11  1  0
 13 15  1  0
 13 12  1  0
 14 25  2  0
 15 20  1  0
 16 24  1  0
 16 26  1  0
 17 23  1  0
 17 19  1  0
 18 24  1  0
 19 18  1  0
 20 19  2  0
 21 22  1  0
 21 15  2  0
 22 17  2  0
 23 16  1  0
 24 14  1  0
 26 28  2  0
 27 26  1  0
 29 27  1  0
 30 39  2  0
 30 35  1  0
 31 27  1  0
 31 35  1  0
 32 31  1  0
 33 34  1  0
 33 32  1  0
 34 30  1  0
 35 36  2  0
 36 37  1  0
 38 37  2  0
 39 38  1  0
 40 14  1  0
 40 41  1  0
 40 50  1  0
 41 44  1  0
 42 46  1  0
 42 41  1  0
 43 42  2  0
 46 45  1  0
 48 46  1  0
 48 49  1  0
 48 47  1  0
 50 53  1  1
 50 51  1  0
 52 50  1  0
 54 56  1  0
 55 54  2  0
 57 56  1  0
 58 57  1  0
 59 58  1  0
 60 66  1  0
 60 68  1  0
 61 66  1  0
 62 63  1  0
 62 61  1  0
 64 63  1  0
 64 73  1  0
 64 65  1  0
 66 65  1  0
 67 60  2  0
 68 59  1  0
 68 69  1  0
 70 71  2  0
 71 90  1  0
 72 71  1  0
 72 75  1  0
 73 74  1  0
 73 70  1  0
 74 72  2  0
 75 76  1  0
 76 77  2  0
 78 81  1  0
 78 77  1  0
 79 78  2  0
 80 79  1  0
 80 75  2  0
 81 82  1  0
 82 83  1  0
 83 84  2  0
 85 84  1  0
 85 89  1  0
 86 85  2  0
 87 82  2  0
 87 86  1  0
 88 87  1  0
 90 91  1  0
 91 93  1  0
 91 94  1  0
 92 90  2  0
 95 70  1  0
 95 96  1  0
 97 95  1  0
 99 98  1  0
 99  5  1  0
100103  1  0
100 99  1  0
101100  1  0
102100  1  0
104105  1  0
104  6  1  0
M  ISO  4  12 101  13 101  60 100  68 100
M  END
>  <TORSDO>  (34) 
F 27

>  <SCORE>  (34) 
-8.540

>  <name>  (34) 
34

>  <ligand_id>  (34) 
34

>  <original_smiles>  (34) 
[H]Oc1c(C(=O)C([H])([H])C([H])([H])C([H])([H])C([H])([H])N([H])C(=O)N2C([H])([H])C([H])([H])C([H])([H])C([H])(n3nc(-c4c([H])c([H])c(Oc5c([H])c([H])c(F)c([H])c5F)c([H])c4[H])c(C(=O)N([H])[H])c3N([H])[H])C2([H])[H])c([H])c([H])c(C(=O)N([H])C([H])([H])C([H])([H])Oc2c([H])c([H])c3c(c2[H])C([H])([H])N(C(=O)C([H])(N([H])C(=O)C([H])(N([H])C([H])([H])[H])C([H])([H])[H])C(C([H])([H])[H])(C([H])([H])[H])C([H])([H])[H])C([H])(C(=O)N([H])C2([H])c4c([H])c([H])c([H])c([H])c4C([H])([H])C([H])([H])C2([H])[H])C3([H])[H])c1C([H])(C([H])([H])[H])[N+]([H])([H])[H]

>  <smiles>  (34) 
[H]Oc1c(C(=O)C([H])([H])C([H])([H])C([H])([H])C([H])([H])N([H])C(=O)N2C([H])([H])C([H])([H])C([H])([H])C([H])(n3nc(-c4c([H])c([H])c(Oc5c([H])c([H])c(F)c([H])c5F)c([H])c4[H])c(C(=O)N([H])[H])c3N([H])[H])C2([H])[H])c([H])c([H])c(C(=O)N([H])C([H])([H])C([H])([H])Oc2c([H])c([H])c3c(c2[H])C([H])([H])N(C(=O)C([H])(N([H])C(=O)C([H])(N([H])C([H])([H])[H])C([H])([H])[H])C(C([H])([H])[H])(C([H])([H])[H])C([H])([H])[H])C([H])(C(=O)N([H])C2([H])c4c([H])c([H])c([H])c([H])c4C([H])([H])C([H])([H])C2([H])[H])C3([H])[H])c1C([H])(C([H])([H])[H])[N+]([H])([H])[H]

$$$$
35:0:0
     RDKit          3D

107115  0  0  1  0  0  0  0  0999 V2000
  -28.5650  -20.9390   19.8850 C   0  0  0  0  0  3  0  0  0  0  0  0
  -28.2180  -21.8100   18.8370 C   0  0  0  0  0  3  0  0  0  0  0  0
  -30.6580  -22.1440   20.1830 C   0  0  0  0  0  3  0  0  0  0  0  0
  -29.8010  -21.0840   20.5500 C   0  0  0  0  0  0  0  0  0  0  0  0
  -29.0990  -22.8340   18.4210 C   0  0  0  0  0  0  0  0  0  0  0  0
  -30.3280  -23.0130   19.1250 C   0  0  0  0  0  0  0  0  0  0  0  0
  -28.6740  -23.6900   17.2600 C   0  0  0  0  0  0  0  0  0  0  0  0
  -29.6370  -24.0140   16.3920 N   0  0  0  0  0  0  0  0  0  0  0  0
  -27.5060  -24.0570   17.1160 O   0  0  0  0  0  0  0  0  0  0  0  0
  -30.5650  -23.6680   16.5960 H   0  0  0  0  0  0  0  0  0  0  0  0
  -29.4540  -24.7820   15.1620 C   0  0  0  0  0  2  0  0  0  0  0  0
  -29.8540  -26.2600   15.3270 C   0  0  0  0  0  2  0  0  0  0  0  0
  -29.0310  -26.9590   16.3390 N   0  0  0  0  0  4  0  0  0  0  0  0
  -28.2640  -26.3450   16.5970 H   0  0  0  0  0  0  0  0  0  0  0  0
  -28.6270  -27.7760   15.9090 H   0  0  0  0  0  0  0  0  0  0  0  0
  -29.7450  -27.3540   17.5790 C   0  0  0  0  0  2  0  0  0  0  0  0
  -28.8350  -28.1640   18.5080 C   0  0  0  0  0  2  0  0  0  0  0  0
  -27.5330  -27.6030   18.4150 O   0  0  0  0  0  0  0  0  0  0  0  0
  -24.6450  -31.6730   23.5370 C   0  0  0  0  0  0  0  0  0  0  0  0
  -26.4710  -28.3200   18.9120 C   0  0  0  0  0  0  0  0  0  0  0  0
  -23.0840  -30.7660   21.8420 C   0  0  0  0  0  3  0  0  0  0  0  0
  -24.1710  -29.7030   19.7960 C   0  0  0  0  0  0  0  0  0  0  0  0
  -25.5300  -31.2100   21.2590 C   0  0  0  0  0  2  0  0  0  0  0  0
  -25.4360  -30.0680   20.2730 C   0  0  0  0  0  0  0  0  0  0  0  0
  -26.5870  -29.3800   19.8440 C   0  0  0  0  0  3  0  0  0  0  0  0
  -25.1900  -27.9550   18.4490 C   0  0  0  0  0  3  0  0  0  0  0  0
  -24.0400  -28.6400   18.8860 C   0  0  0  0  0  3  0  0  0  0  0  0
  -22.9930  -30.4960   20.3150 C   0  0  0  0  0  2  0  0  0  0  0  0
  -24.4480  -31.2150   22.2690 N   0  0  0  0  0  0  0  0  0  0  0  0
  -23.7040  -31.7690   24.3360 O   0  0  0  0  0  0  0  0  0  0  0  0
  -22.5920  -29.5100   22.5930 C   0  0  0  0  0  0  0  0  0  0  0  0
  -21.2930  -29.2000   22.4500 N   0  0  0  0  0  0  0  0  0  0  0  0
  -23.3730  -28.8240   23.2590 O   0  0  0  0  0  0  0  0  0  0  0  0
  -20.7190  -29.8140   21.8910 H   0  0  0  0  0  0  0  0  0  0  0  0
  -18.1880  -27.3600   22.4740 C   0  0  0  0  0  0  0  0  0  0  0  0
  -20.6170  -28.0440   23.0340 C   0  0  0  0  0  3  0  0  0  0  0  0
  -21.0420  -26.7360   22.3290 C   0  0  0  0  0  2  0  0  0  0  0  0
  -20.1100  -26.3430   21.1780 C   0  0  0  0  0  2  0  0  0  0  0  0
  -18.6780  -26.1560   21.6860 C   0  0  0  0  0  2  0  0  0  0  0  0
  -19.1000  -28.2560   23.0940 C   0  0  0  0  0  0  0  0  0  0  0  0
  -18.5960  -29.3780   23.7840 C   0  0  0  0  0  3  0  0  0  0  0  0
  -17.2100  -29.6100   23.8650 C   0  0  0  0  0  3  0  0  0  0  0  0
  -16.3110  -28.7130   23.2630 C   0  0  0  0  0  3  0  0  0  0  0  0
  -16.8010  -27.5890   22.5740 C   0  0  0  0  0  3  0  0  0  0  0  0
  -26.0550  -32.1220   24.0370 C   0  0  0  0  0  3  0  0  0  0  0  0
  -25.9180  -33.4780   24.5800 N   0  0  0  0  0  0  0  0  0  0  0  0
  -26.3390  -34.5900   23.9620 C   0  0  0  0  0  0  0  0  0  0  0  0
  -26.9550  -34.5720   22.8930 O   0  0  0  0  0  0  0  0  0  0  0  0
  -25.3750  -33.5740   25.4250 H   0  0  0  0  0  0  0  0  0  0  0  0
  -24.8560  -36.6210   23.9070 C   0  0  0  0  0  1  0  0  0  0  0  0
  -26.0220  -35.9380   24.6380 C   0  0  0  0  0  3  0  0  0  0  0  0
  -28.2350  -36.4020   25.5950 C   0  0  0  0  0  1  0  0  0  0  0  0
  -27.1810  -36.8570   24.6930 N   0  0  0  0  0  0  0  0  0  0  0  0
  -26.8880  -37.7840   24.9900 H   0  0  0  0  0  0  0  0  0  0  0  0
  -26.6740  -31.1470   25.1120 C   0  0  1  0  0  0  0  0  0  0  0  0
  -25.7440  -30.8840   26.3180 C   0  0  0  0  0  1  0  0  0  0  0  0
  -27.0240  -29.7820   24.4750 C   0  0  0  0  0  1  0  0  0  0  0  0
  -27.9990  -31.7370   25.6520 C   0  0  0  0  0  1  0  0  0  0  0  0
  -30.1970  -20.1050   21.6170 C   0  0  0  0  0  0  0  0  0  0  0  0
  -31.4990  -19.8080   21.6440 N   0  0  0  0  0  0  0  0  0  0  0  0
  -29.3560  -19.5460   22.3240 O   0  0  0  0  0  0  0  0  0  0  0  0
  -32.0860  -20.3460   21.0220 H   0  0  0  0  0  0  0  0  0  0  0  0
  -32.1180  -18.6520   22.2800 C   0  0  0  0  0  2  0  0  0  0  0  0
  -32.0030  -17.4130   21.3700 C   0  0  0  0  0  2  0  0  0  0  0  0
  -32.5890  -17.6210   19.9520 C   0  0  0  0  0  2  0  0  0  0  0  0
  -33.2800  -16.3840   19.3550 C   0  0  0  0  0  2  0  0  0  0  0  0
  -32.5160  -14.0970   18.6570 C   0  0  0  0  0  0  0  0  0  0  0  0
  -32.0170  -11.6890   18.8380 C   0  0  0  0  0  2  0  0  0  0  0  0
  -30.9250  -11.1840   17.8800 C   0  0  0  0  0  2  0  0  0  0  0  0
  -29.5240  -11.4100   18.4750 C   0  0  0  0  0  2  0  0  0  0  0  0
  -29.3210  -12.8550   18.9910 C   0  0  0  0  0  3  0  0  0  0  0  0
  -30.4890  -13.2750   19.9010 C   0  0  0  0  0  2  0  0  0  0  0  0
  -31.7540  -13.0960   19.1590 N   0  0  0  0  0  0  0  0  0  0  0  0
  -33.3700  -13.9420   17.7750 O   0  0  0  0  0  0  0  0  0  0  0  0
  -32.3900  -15.2300   19.3490 N   0  0  0  0  0  0  0  0  0  0  0  0
  -31.6710  -15.2160   20.0560 H   0  0  0  0  0  0  0  0  0  0  0  0
  -27.4040  -14.1530   20.1270 C   0  0  0  0  0  0  0  0  0  0  0  0
  -26.1920  -13.7460   20.6190 C   0  0  0  0  0  0  0  0  0  0  0  0
  -26.1450  -12.3310   20.4310 C   0  0  0  0  0  0  0  0  0  0  0  0
  -28.0340  -13.0050   19.6710 N   0  0  0  0  0  0  0  0  0  0  0  0
  -27.2840  -11.8970   19.9070 N   0  0  0  0  0  0  0  0  0  0  0  0
  -25.0590  -11.3690   20.6600 C   0  0  0  0  0  0  0  0  0  0  0  0
  -25.2710  -10.1730   21.3760 C   0  0  0  0  0  3  0  0  0  0  0  0
  -24.2070   -9.2730   21.6010 C   0  0  0  0  0  3  0  0  0  0  0  0
  -22.9130   -9.5700   21.1080 C   0  0  0  0  0  0  0  0  0  0  0  0
  -22.7130  -10.7510   20.3720 C   0  0  0  0  0  3  0  0  0  0  0  0
  -23.7760  -11.6410   20.1460 C   0  0  0  0  0  3  0  0  0  0  0  0
  -21.8260   -8.7450   21.2550 O   0  0  0  0  0  0  0  0  0  0  0  0
  -21.7790   -7.7810   22.2310 C   0  0  0  0  0  0  0  0  0  0  0  0
  -21.7920   -8.1100   23.6050 C   0  0  0  0  0  3  0  0  0  0  0  0
  -21.6700   -7.0940   24.5730 C   0  0  0  0  0  3  0  0  0  0  0  0
  -21.5250   -5.7530   24.1740 C   0  0  0  0  0  0  0  0  0  0  0  0
  -21.5070   -5.4240   22.8070 C   0  0  0  0  0  3  0  0  0  0  0  0
  -21.6300   -6.4350   21.8390 C   0  0  0  0  0  0  0  0  0  0  0  0
  -21.5890   -6.1150   20.5240 F   0  0  0  0  0  0  0  0  0  0  0  0
  -21.4000   -4.7770   25.1040 F   0  0  0  0  0  0  0  0  0  0  0  0
  -25.1000  -14.6310   21.1500 C   0  0  0  0  0  0  0  0  0  0  0  0
  -24.3390  -14.1460   22.1230 N   0  0  0  0  0  0  0  0  0  0  0  0
  -24.9480  -15.7800   20.7360 O   0  0  0  0  0  0  0  0  0  0  0  0
  -24.4810  -13.2150   22.4830 H   0  0  0  0  0  0  0  0  0  0  0  0
  -23.6060  -14.7180   22.5210 H   0  0  0  0  0  0  0  0  0  0  0  0
  -28.0110  -15.3990   20.0120 N   0  0  0  0  0  0  0  0  0  0  0  0
  -27.5530  -16.2530   20.3120 H   0  0  0  0  0  0  0  0  0  0  0  0
  -28.9230  -15.5600   19.6010 H   0  0  0  0  0  0  0  0  0  0  0  0
  -31.2560  -24.0170   18.8290 N   0  0  0  0  0  0  0  0  0  0  0  0
  -31.9660  -24.2470   19.5180 H   0  0  0  0  0  0  0  0  0  0  0  0
  -30.9980  -24.8060   18.2520 H   0  0  0  0  0  0  0  0  0  0  0  0
  1  4  1  0
  2  1  2  0
  3  4  2  0
  4 59  1  0
  5  2  1  0
  5  6  2  0
  6  3  1  0
  7  5  1  0
  8 10  1  0
  8  7  1  0
  9  7  2  0
 11 12  1  0
 11  8  1  0
 12 13  1  0
 13 14  1  0
 13 16  1  0
 15 13  1  0
 16 17  1  0
 18 17  1  0
 18 20  1  0
 19 30  2  0
 20 25  1  0
 21 29  1  0
 21 31  1  0
 22 24  1  0
 22 28  1  0
 23 29  1  0
 24 23  1  0
 25 24  2  0
 26 27  1  0
 26 20  2  0
 27 22  2  0
 28 21  1  0
 29 19  1  0
 31 33  2  0
 32 31  1  0
 34 32  1  0
 35 44  2  0
 35 40  1  0
 36 32  1  0
 36 40  1  0
 37 36  1  0
 38 39  1  0
 38 37  1  0
 39 35  1  0
 40 41  2  0
 41 42  1  0
 43 42  2  0
 44 43  1  0
 45 19  1  0
 45 46  1  0
 45 55  1  0
 46 49  1  0
 47 46  1  0
 47 51  1  0
 48 47  2  0
 51 50  1  0
 51 53  1  0
 53 54  1  0
 53 52  1  0
 55 58  1  1
 55 56  1  0
 57 55  1  0
 59 60  1  0
 59 61  2  0
 60 63  1  0
 62 60  1  0
 64 63  1  0
 65 64  1  0
 66 65  1  0
 67 73  1  0
 67 75  1  0
 68 73  1  0
 69 70  1  0
 69 68  1  0
 71 70  1  0
 71 80  1  0
 71 72  1  0
 73 72  1  0
 74 67  2  0
 75 66  1  0
 75 76  1  0
 77 78  2  0
 78 97  1  0
 79 78  1  0
 79 82  1  0
 80 81  1  0
 80 77  1  0
 81 79  2  0
 82 83  1  0
 83 84  2  0
 85 88  1  0
 85 84  1  0
 86 85  2  0
 87 86  1  0
 87 82  2  0
 88 89  1  0
 89 90  1  0
 90 91  2  0
 92 91  1  0
 92 96  1  0
 93 92  2  0
 94 89  2  0
 94 93  1  0
 95 94  1  0
 97 98  1  0
 98100  1  0
 98101  1  0
 99 97  2  0
102 77  1  0
102103  1  0
104102  1  0
105  6  1  0
105106  1  0
107105  1  0
M  ISO  4  17 101  18 101  67 100  75 100
M  END
>  <TORSDO>  (35) 
F 28

>  <SCORE>  (35) 
-6.734

>  <name>  (35) 
35

>  <ligand_id>  (35) 
35

>  <original_smiles>  (35) 
[H]c1c([H])c([H])c2c(c1[H])C([H])([H])C([H])([H])C([H])([H])C2([H])N([H])C(=O)C1([H])N(C(=O)C([H])(N([H])C(=O)C([H])(N([H])C([H])([H])[H])C([H])([H])[H])C(C([H])([H])[H])(C([H])([H])[H])C([H])([H])[H])C([H])([H])c2c([H])c(OC([H])([H])C([H])([H])[N+]([H])([H])C([H])([H])C([H])([H])N([H])C(=O)c3c([H])c([H])c(C(=O)N([H])C([H])([H])C([H])([H])C([H])([H])C([H])([H])N([H])C(=O)N4C([H])([H])C([H])([H])C([H])([H])C([H])(n5nc(-c6c([H])c([H])c(Oc7c([H])c([H])c(F)c([H])c7F)c([H])c6[H])c(C(=O)N([H])[H])c5N([H])[H])C4([H])[H])c([H])c3N([H])[H])c([H])c([H])c2C1([H])[H]

>  <smiles>  (35) 
[H]c1c([H])c([H])c2c(c1[H])C([H])([H])C([H])([H])C([H])([H])C2([H])N([H])C(=O)C1([H])N(C(=O)C([H])(N([H])C(=O)C([H])(N([H])C([H])([H])[H])C([H])([H])[H])C(C([H])([H])[H])(C([H])([H])[H])C([H])([H])[H])C([H])([H])c2c([H])c(OC([H])([H])C([H])([H])[N+]([H])([H])C([H])([H])C([H])([H])N([H])C(=O)c3c([H])c([H])c(C(=O)N([H])C([H])([H])C([H])([H])C([H])([H])C([H])([H])N([H])C(=O)N4C([H])([H])C([H])([H])C([H])([H])C([H])(n5nc(-c6c([H])c([H])c(Oc7c([H])c([H])c(F)c([H])c7F)c([H])c6[H])c(C(=O)N([H])[H])c5N([H])[H])C4([H])[H])c([H])c3N([H])[H])c([H])c([H])c2C1([H])[H]

$$$$
36:0:0
     RDKit          3D

 93100  0  0  1  0  0  0  0  0999 V2000
  -27.9740  -23.1700   20.3580 N   0  0  0  0  0  4  0  0  0  0  0  0
  -27.0460  -23.2620   19.9740 H   0  0  0  0  0  0  0  0  0  0  0  0
  -28.5940  -22.9690   19.5850 H   0  0  0  0  0  0  0  0  0  0  0  0
  -27.3990  -24.9730   22.0310 C   0  0  0  0  0  1  0  0  0  0  0  0
  -28.3800  -24.4900   20.9270 C   0  0  0  0  0  3  0  0  0  0  0  0
  -28.5770  -25.5100   19.7610 C   0  0  0  0  0  2  0  0  0  0  0  0
  -28.4650  -26.8790   20.1560 O   0  0  0  0  0  0  0  0  0  0  0  0
  -24.5830  -31.9200   23.2170 C   0  0  0  0  0  0  0  0  0  0  0  0
  -27.2410  -27.5190   20.1310 C   0  0  0  0  0  0  0  0  0  0  0  0
  -23.3740  -30.5200   21.5760 C   0  0  0  0  0  3  0  0  0  0  0  0
  -24.8220  -28.9810   20.1600 C   0  0  0  0  0  0  0  0  0  0  0  0
  -25.8940  -30.8960   21.3640 C   0  0  0  0  0  2  0  0  0  0  0  0
  -25.9760  -29.5220   20.7390 C   0  0  0  0  0  0  0  0  0  0  0  0
  -27.1810  -28.7950   20.7260 C   0  0  0  0  0  3  0  0  0  0  0  0
  -26.0590  -26.9860   19.5540 C   0  0  0  0  0  3  0  0  0  0  0  0
  -24.8590  -27.7110   19.5640 C   0  0  0  0  0  3  0  0  0  0  0  0
  -23.5750  -29.8260   20.2020 C   0  0  0  0  0  2  0  0  0  0  0  0
  -24.6350  -31.1340   22.1060 N   0  0  0  0  0  0  0  0  0  0  0  0
  -23.5030  -32.1870   23.7580 O   0  0  0  0  0  0  0  0  0  0  0  0
  -22.7270  -29.5030   22.5450 C   0  0  0  0  0  0  0  0  0  0  0  0
  -21.4030  -29.3270   22.4220 N   0  0  0  0  0  0  0  0  0  0  0  0
  -23.4140  -28.8680   23.3510 O   0  0  0  0  0  0  0  0  0  0  0  0
  -20.9160  -29.8920   21.7390 H   0  0  0  0  0  0  0  0  0  0  0  0
  -18.0200  -28.1590   22.9360 C   0  0  0  0  0  0  0  0  0  0  0  0
  -20.5820  -28.3920   23.1940 C   0  0  0  0  0  3  0  0  0  0  0  0
  -20.6700  -26.9660   22.6030 C   0  0  0  0  0  2  0  0  0  0  0  0
  -19.5580  -26.6630   21.5930 C   0  0  0  0  0  2  0  0  0  0  0  0
  -18.1820  -26.8140   22.2470 C   0  0  0  0  0  2  0  0  0  0  0  0
  -19.1500  -28.9080   23.3640 C   0  0  0  0  0  0  0  0  0  0  0  0
  -18.9480  -30.1710   23.9620 C   0  0  0  0  0  3  0  0  0  0  0  0
  -17.6470  -30.6840   24.1380 C   0  0  0  0  0  3  0  0  0  0  0  0
  -16.5340  -29.9320   23.7280 C   0  0  0  0  0  3  0  0  0  0  0  0
  -16.7220  -28.6700   23.1370 C   0  0  0  0  0  3  0  0  0  0  0  0
  -25.8700  -32.5490   23.8390 C   0  0  0  0  0  3  0  0  0  0  0  0
  -25.5620  -33.9490   24.1620 N   0  0  0  0  0  0  0  0  0  0  0  0
  -25.9010  -34.9990   23.4020 C   0  0  0  0  0  0  0  0  0  0  0  0
  -26.5780  -34.8870   22.3740 O   0  0  0  0  0  0  0  0  0  0  0  0
  -24.9630  -34.1040   24.9600 H   0  0  0  0  0  0  0  0  0  0  0  0
  -24.1810  -36.7950   23.0360 C   0  0  0  0  0  1  0  0  0  0  0  0
  -25.4170  -36.3890   23.8530 C   0  0  0  0  0  3  0  0  0  0  0  0
  -27.5540  -37.2700   24.6850 C   0  0  0  0  0  1  0  0  0  0  0  0
  -26.4540  -37.4390   23.7400 N   0  0  0  0  0  0  0  0  0  0  0  0
  -26.0500  -38.3600   23.8830 H   0  0  0  0  0  0  0  0  0  0  0  0
  -26.3860  -31.7780   25.1170 C   0  0  1  0  0  0  0  0  0  0  0  0
  -25.2960  -31.5540   26.1890 C   0  0  0  0  0  1  0  0  0  0  0  0
  -26.9550  -30.3980   24.7190 C   0  0  0  0  0  1  0  0  0  0  0  0
  -27.5450  -32.5680   25.7700 C   0  0  0  0  0  1  0  0  0  0  0  0
  -27.9760  -21.9880   21.2590 C   0  0  0  0  0  2  0  0  0  0  0  0
  -27.5810  -20.6900   20.5120 C   0  0  0  0  0  2  0  0  0  0  0  0
  -28.7390  -19.8920   19.8710 C   0  0  0  0  0  2  0  0  0  0  0  0
  -29.4940  -19.0540   20.8390 N   0  0  0  0  0  4  0  0  0  0  0  0
  -29.0040  -19.0410   21.7230 H   0  0  0  0  0  0  0  0  0  0  0  0
  -30.4040  -19.4670   20.9910 H   0  0  0  0  0  0  0  0  0  0  0  0
  -29.6550  -17.6490   20.4020 C   0  0  0  0  0  2  0  0  0  0  0  0
  -30.5130  -16.8050   21.3670 C   0  0  0  0  0  2  0  0  0  0  0  0
  -30.9450  -14.4700   20.4950 C   0  0  0  0  0  0  0  0  0  0  0  0
  -30.6550  -12.3320   19.2950 C   0  0  0  0  0  2  0  0  0  0  0  0
  -29.7300  -12.5630   18.0810 C   0  0  0  0  0  2  0  0  0  0  0  0
  -28.2460  -12.4470   18.4880 C   0  0  0  0  0  2  0  0  0  0  0  0
  -27.9080  -13.2900   19.7470 C   0  0  0  0  0  3  0  0  0  0  0  0
  -28.9320  -13.0110   20.8660 C   0  0  0  0  0  2  0  0  0  0  0  0
  -30.2800  -13.3010   20.3320 N   0  0  0  0  0  0  0  0  0  0  0  0
  -32.0430  -14.7210   19.9830 O   0  0  0  0  0  0  0  0  0  0  0  0
  -30.2470  -15.3820   21.1770 N   0  0  0  0  0  0  0  0  0  0  0  0
  -29.3560  -15.0520   21.5240 H   0  0  0  0  0  0  0  0  0  0  0  0
  -25.5010  -13.9510   20.3970 C   0  0  0  0  0  0  0  0  0  0  0  0
  -24.4190  -13.2010   20.7690 C   0  0  0  0  0  0  0  0  0  0  0  0
  -24.8620  -11.8440   20.7730 C   0  0  0  0  0  0  0  0  0  0  0  0
  -26.5400  -13.0540   20.2040 N   0  0  0  0  0  0  0  0  0  0  0  0
  -26.1530  -11.7810   20.4820 N   0  0  0  0  0  0  0  0  0  0  0  0
  -24.1200  -10.5930   20.9770 C   0  0  0  0  0  0  0  0  0  0  0  0
  -24.5310   -9.6410   21.9340 C   0  0  0  0  0  3  0  0  0  0  0  0
  -23.7940   -8.4550   22.1260 C   0  0  0  0  0  3  0  0  0  0  0  0
  -22.6300   -8.2090   21.3600 C   0  0  0  0  0  0  0  0  0  0  0  0
  -22.2370   -9.1520   20.3910 C   0  0  0  0  0  3  0  0  0  0  0  0
  -22.9760  -10.3310   20.1980 C   0  0  0  0  0  3  0  0  0  0  0  0
  -21.8630   -7.0740   21.4570 O   0  0  0  0  0  0  0  0  0  0  0  0
  -21.7910   -6.3530   22.6210 C   0  0  0  0  0  0  0  0  0  0  0  0
  -21.3600   -6.9350   23.8340 C   0  0  0  0  0  3  0  0  0  0  0  0
  -21.2380   -6.1410   24.9900 C   0  0  0  0  0  3  0  0  0  0  0  0
  -21.5280   -4.7660   24.9360 C   0  0  0  0  0  0  0  0  0  0  0  0
  -21.9540   -4.1830   23.7290 C   0  0  0  0  0  3  0  0  0  0  0  0
  -22.0810   -4.9750   22.5730 C   0  0  0  0  0  0  0  0  0  0  0  0
  -22.4690   -4.4030   21.4080 F   0  0  0  0  0  0  0  0  0  0  0  0
  -21.4010   -4.0010   26.0460 F   0  0  0  0  0  0  0  0  0  0  0  0
  -23.0230  -13.7010   21.0100 C   0  0  0  0  0  0  0  0  0  0  0  0
  -22.2720  -13.0310   21.8750 N   0  0  0  0  0  0  0  0  0  0  0  0
  -22.6040  -14.7190   20.4590 O   0  0  0  0  0  0  0  0  0  0  0  0
  -22.6140  -12.2050   22.3430 H   0  0  0  0  0  0  0  0  0  0  0  0
  -21.3350  -13.3510   22.0800 H   0  0  0  0  0  0  0  0  0  0  0  0
  -25.6910  -15.3180   20.1930 N   0  0  0  0  0  0  0  0  0  0  0  0
  -24.9360  -15.9910   20.2680 H   0  0  0  0  0  0  0  0  0  0  0  0
  -26.5410  -15.7180   19.8230 H   0  0  0  0  0  0  0  0  0  0  0  0
  1  5  1  0
  1 48  1  0
  2  1  1  0
  3  1  1  0
  5  4  1  0
  6  7  1  0
  6  5  1  0
  8 19  2  0
  9  7  1  0
  9 14  1  0
 10 18  1  0
 10 20  1  0
 11 17  1  0
 11 13  1  0
 12 18  1  0
 13 12  1  0
 14 13  2  0
 15 16  1  0
 15  9  2  0
 16 11  2  0
 17 10  1  0
 18  8  1  0
 20 22  2  0
 21 20  1  0
 23 21  1  0
 24 33  2  0
 24 29  1  0
 25 21  1  0
 25 29  1  0
 26 25  1  0
 27 28  1  0
 27 26  1  0
 28 24  1  0
 29 30  2  0
 30 31  1  0
 32 31  2  0
 33 32  1  0
 34  8  1  0
 34 35  1  0
 34 44  1  0
 35 38  1  0
 36 40  1  0
 36 35  1  0
 37 36  2  0
 40 39  1  0
 42 40  1  0
 42 43  1  0
 42 41  1  0
 44 47  1  1
 44 45  1  0
 46 44  1  0
 49 48  1  0
 50 49  1  0
 50 51  1  0
 51 53  1  0
 51 52  1  0
 54 51  1  0
 54 55  1  0
 56 64  1  0
 57 62  1  0
 58 59  1  0
 58 57  1  0
 60 59  1  0
 60 69  1  0
 60 61  1  0
 62 56  1  0
 62 61  1  0
 63 56  2  0
 64 55  1  0
 64 65  1  0
 66 67  2  0
 67 68  1  0
 67 86  1  0
 68 71  1  0
 69 66  1  0
 69 70  1  0
 70 68  2  0
 71 72  1  0
 72 73  2  0
 74 77  1  0
 74 73  1  0
 75 74  2  0
 76 75  1  0
 76 71  2  0
 77 78  1  0
 78 79  1  0
 79 80  2  0
 81 80  1  0
 81 85  1  0
 82 81  2  0
 83 78  2  0
 83 82  1  0
 84 83  1  0
 86 87  1  0
 87 90  1  0
 87 89  1  0
 88 86  2  0
 91 92  1  0
 91 66  1  0
 93 91  1  0
M  ISO  4   6 101   7 101  56 100  64 100
M  END
>  <TORSDO>  (36) 
F 24

>  <SCORE>  (36) 
-12.317

>  <name>  (36) 
36

>  <ligand_id>  (36) 
36

>  <original_smiles>  (36) 
[H]c1c([H])c([H])c2c(c1[H])C([H])([H])C([H])([H])C([H])([H])C2([H])N([H])C(=O)C1([H])N(C(=O)C([H])(N([H])C(=O)C([H])(N([H])C([H])([H])[H])C([H])([H])[H])C(C([H])([H])[H])(C([H])([H])[H])C([H])([H])[H])C([H])([H])c2c([H])c(OC([H])([H])C([H])(C([H])([H])[H])[N+]([H])([H])C([H])([H])C([H])([H])C([H])([H])[N+]([H])([H])C([H])([H])C([H])([H])N([H])C(=O)N3C([H])([H])C([H])([H])C([H])([H])C([H])(n4nc(-c5c([H])c([H])c(Oc6c([H])c([H])c(F)c([H])c6F)c([H])c5[H])c(C(=O)N([H])[H])c4N([H])[H])C3([H])[H])c([H])c([H])c2C1([H])[H]

>  <smiles>  (36) 
[H]c1c([H])c([H])c2c(c1[H])C([H])([H])C([H])([H])C([H])([H])C2([H])N([H])C(=O)C1([H])N(C(=O)C([H])(N([H])C(=O)C([H])(N([H])C([H])([H])[H])C([H])([H])[H])C(C([H])([H])[H])(C([H])([H])[H])C([H])([H])[H])C([H])([H])c2c([H])c(OC([H])([H])C([H])(C([H])([H])[H])[N+]([H])([H])C([H])([H])C([H])([H])C([H])([H])[N+]([H])([H])C([H])([H])C([H])([H])N([H])C(=O)N3C([H])([H])C([H])([H])C([H])([H])C([H])(n4nc(-c5c([H])c([H])c(Oc6c([H])c([H])c(F)c([H])c6F)c([H])c5[H])c(C(=O)N([H])[H])c4N([H])[H])C3([H])[H])c([H])c([H])c2C1([H])[H]

$$$$
37:0:0
     RDKit          3D

 93100  0  0  1  0  0  0  0  0999 V2000
  -28.9840  -22.0370   20.4850 C   0  0  0  0  0  1  0  0  0  0  0  0
  -30.3040  -22.7910   20.2200 C   0  0  0  0  0  3  0  0  0  0  0  0
  -30.1600  -23.7460   19.0960 N   0  0  0  0  0  4  0  0  0  0  0  0
  -31.0460  -23.7440   18.6140 H   0  0  0  0  0  0  0  0  0  0  0  0
  -29.4750  -23.4240   18.4300 H   0  0  0  0  0  0  0  0  0  0  0  0
  -29.9180  -25.1580   19.4750 C   0  0  0  0  0  2  0  0  0  0  0  0
  -28.4350  -25.4960   19.6580 C   0  0  0  0  0  2  0  0  0  0  0  0
  -28.3900  -26.8440   20.0940 O   0  0  0  0  0  0  0  0  0  0  0  0
  -24.6520  -31.8780   23.3620 C   0  0  0  0  0  0  0  0  0  0  0  0
  -27.1830  -27.5010   20.1330 C   0  0  0  0  0  0  0  0  0  0  0  0
  -23.3980  -30.5500   21.6920 C   0  0  0  0  0  3  0  0  0  0  0  0
  -24.8060  -29.0200   20.2190 C   0  0  0  0  0  0  0  0  0  0  0  0
  -25.9250  -30.8710   21.4760 C   0  0  0  0  0  2  0  0  0  0  0  0
  -25.9750  -29.5170   20.8040 C   0  0  0  0  0  0  0  0  0  0  0  0
  -27.1630  -28.7630   20.7590 C   0  0  0  0  0  3  0  0  0  0  0  0
  -25.9880  -26.9980   19.5620 C   0  0  0  0  0  3  0  0  0  0  0  0
  -24.8040  -27.7570   19.6010 C   0  0  0  0  0  3  0  0  0  0  0  0
  -23.5800  -29.9010   20.2940 C   0  0  0  0  0  2  0  0  0  0  0  0
  -24.6770  -31.1100   22.2370 N   0  0  0  0  0  0  0  0  0  0  0  0
  -23.5820  -32.1590   23.9210 O   0  0  0  0  0  0  0  0  0  0  0  0
  -22.7350  -29.5180   22.6300 C   0  0  0  0  0  0  0  0  0  0  0  0
  -21.4080  -29.3570   22.4950 N   0  0  0  0  0  0  0  0  0  0  0  0
  -23.4100  -28.8640   23.4300 O   0  0  0  0  0  0  0  0  0  0  0  0
  -20.9280  -29.9350   21.8200 H   0  0  0  0  0  0  0  0  0  0  0  0
  -18.0210  -28.1860   22.9300 C   0  0  0  0  0  0  0  0  0  0  0  0
  -20.5770  -28.4140   23.2400 C   0  0  0  0  0  3  0  0  0  0  0  0
  -20.6740  -26.9910   22.6440 C   0  0  0  0  0  2  0  0  0  0  0  0
  -19.5830  -26.6940   21.6100 C   0  0  0  0  0  2  0  0  0  0  0  0
  -18.1940  -26.8450   22.2380 C   0  0  0  0  0  2  0  0  0  0  0  0
  -19.1410  -28.9310   23.3860 C   0  0  0  0  0  0  0  0  0  0  0  0
  -18.9270  -30.1890   23.9890 C   0  0  0  0  0  3  0  0  0  0  0  0
  -17.6260  -30.7030   24.1430 C   0  0  0  0  0  3  0  0  0  0  0  0
  -16.5200  -29.9550   23.7050 C   0  0  0  0  0  3  0  0  0  0  0  0
  -16.7180  -28.6990   23.1040 C   0  0  0  0  0  3  0  0  0  0  0  0
  -25.9590  -32.4590   23.9880 C   0  0  0  0  0  3  0  0  0  0  0  0
  -26.4750  -31.6330   25.2290 C   0  0  1  0  0  0  0  0  0  0  0  0
  -25.3920  -31.3800   26.3030 C   0  0  0  0  0  1  0  0  0  0  0  0
  -27.0220  -30.2580   24.7760 C   0  0  0  0  0  1  0  0  0  0  0  0
  -27.6510  -32.3760   25.9040 C   0  0  0  0  0  1  0  0  0  0  0  0
  -25.6850  -33.8520   24.3680 N   0  0  0  0  0  0  0  0  0  0  0  0
  -26.0420  -34.9190   23.6420 C   0  0  0  0  0  0  0  0  0  0  0  0
  -26.7060  -34.8340   22.6060 O   0  0  0  0  0  0  0  0  0  0  0  0
  -25.0990  -33.9950   25.1760 H   0  0  0  0  0  0  0  0  0  0  0  0
  -24.3560  -36.7620   23.3480 C   0  0  0  0  0  1  0  0  0  0  0  0
  -25.5870  -36.3030   24.1440 C   0  0  0  0  0  3  0  0  0  0  0  0
  -27.7440  -37.1070   24.9980 C   0  0  0  0  0  1  0  0  0  0  0  0
  -26.6450  -37.3340   24.0640 N   0  0  0  0  0  0  0  0  0  0  0  0
  -26.2610  -38.2580   24.2430 H   0  0  0  0  0  0  0  0  0  0  0  0
  -31.4750  -21.8230   19.9260 C   0  0  0  0  0  2  0  0  0  0  0  0
  -32.3160  -21.4350   21.1580 C   0  0  0  0  0  2  0  0  0  0  0  0
  -31.6220  -20.4870   22.1100 C   0  0  0  0  0  3  0  0  0  0  0  0
  -31.5910  -19.2320   21.9250 N   0  0  0  0  0  0  0  0  0  0  0  0
  -30.9480  -18.4290   22.9500 C   0  0  0  0  0  2  0  0  0  0  0  0
  -30.3040  -17.1740   22.3360 C   0  0  0  0  0  2  0  0  0  0  0  0
  -31.3090  -16.2040   21.6870 C   0  0  0  0  0  2  0  0  0  0  0  0
  -31.0070  -14.2380   20.1720 C   0  0  0  0  0  0  0  0  0  0  0  0
  -30.5160  -12.1810   18.8930 C   0  0  0  0  0  2  0  0  0  0  0  0
  -29.5290  -12.4530   17.7430 C   0  0  0  0  0  2  0  0  0  0  0  0
  -28.0750  -12.3550   18.2380 C   0  0  0  0  0  2  0  0  0  0  0  0
  -27.8290  -13.1940   19.5190 C   0  0  0  0  0  3  0  0  0  0  0  0
  -28.9110  -12.8970   20.5790 C   0  0  0  0  0  2  0  0  0  0  0  0
  -30.2370  -13.1370   19.9750 N   0  0  0  0  0  0  0  0  0  0  0  0
  -31.9960  -14.5110   19.4820 O   0  0  0  0  0  0  0  0  0  0  0  0
  -30.6390  -14.9960   21.2120 N   0  0  0  0  0  0  0  0  0  0  0  0
  -29.8330  -14.6780   21.7300 H   0  0  0  0  0  0  0  0  0  0  0  0
  -25.4850  -13.9030   20.3230 C   0  0  0  0  0  0  0  0  0  0  0  0
  -24.4040  -13.1740   20.7420 C   0  0  0  0  0  0  0  0  0  0  0  0
  -24.8090  -11.8060   20.6940 C   0  0  0  0  0  0  0  0  0  0  0  0
  -26.4850  -12.9800   20.0520 N   0  0  0  0  0  0  0  0  0  0  0  0
  -26.0820  -11.7140   20.3300 N   0  0  0  0  0  0  0  0  0  0  0  0
  -24.0430  -10.5720   20.9200 C   0  0  0  0  0  0  0  0  0  0  0  0
  -24.4790   -9.5910   21.8370 C   0  0  0  0  0  3  0  0  0  0  0  0
  -23.7180   -8.4220   22.0520 C   0  0  0  0  0  3  0  0  0  0  0  0
  -22.5050   -8.2280   21.3490 C   0  0  0  0  0  0  0  0  0  0  0  0
  -22.0860   -9.1960   20.4200 C   0  0  0  0  0  3  0  0  0  0  0  0
  -22.8480  -10.3570   20.2030 C   0  0  0  0  0  3  0  0  0  0  0  0
  -21.7130   -7.1120   21.4710 O   0  0  0  0  0  0  0  0  0  0  0  0
  -21.6810   -6.3750   22.6270 C   0  0  0  0  0  0  0  0  0  0  0  0
  -21.3500   -6.9550   23.8720 C   0  0  0  0  0  3  0  0  0  0  0  0
  -21.2620   -6.1480   25.0230 C   0  0  0  0  0  3  0  0  0  0  0  0
  -21.4940   -4.7620   24.9320 C   0  0  0  0  0  0  0  0  0  0  0  0
  -21.8170   -4.1810   23.6940 C   0  0  0  0  0  3  0  0  0  0  0  0
  -21.9080   -4.9860   22.5440 C   0  0  0  0  0  0  0  0  0  0  0  0
  -22.1980   -4.4180   21.3480 F   0  0  0  0  0  0  0  0  0  0  0  0
  -21.4020   -3.9850   26.0370 F   0  0  0  0  0  0  0  0  0  0  0  0
  -23.0400  -13.7070   21.0730 C   0  0  0  0  0  0  0  0  0  0  0  0
  -22.3270  -13.0460   21.9790 N   0  0  0  0  0  0  0  0  0  0  0  0
  -22.6160  -14.7430   20.5630 O   0  0  0  0  0  0  0  0  0  0  0  0
  -22.6840  -12.2100   22.4150 H   0  0  0  0  0  0  0  0  0  0  0  0
  -21.4100  -13.3800   22.2390 H   0  0  0  0  0  0  0  0  0  0  0  0
  -25.6970  -15.2650   20.1350 N   0  0  0  0  0  0  0  0  0  0  0  0
  -24.9660  -15.9520   20.2820 H   0  0  0  0  0  0  0  0  0  0  0  0
  -26.5590  -15.6730   19.7920 H   0  0  0  0  0  0  0  0  0  0  0  0
  2  1  1  0
  3  6  1  0
  3  2  1  0
  4  3  1  0
  5  3  1  0
  6  7  1  0
  7  8  1  0
  8 10  1  0
  9 20  2  0
 10 15  1  0
 11 19  1  0
 11 21  1  0
 12 18  1  0
 12 14  1  0
 13 19  1  0
 14 13  1  0
 15 14  2  0
 16 17  1  0
 16 10  2  0
 17 12  2  0
 18 11  1  0
 19  9  1  0
 21 23  2  0
 22 21  1  0
 24 22  1  0
 25 34  2  0
 25 30  1  0
 26 22  1  0
 26 30  1  0
 27 26  1  0
 28 29  1  0
 28 27  1  0
 29 25  1  0
 30 31  2  0
 31 32  1  0
 33 32  2  0
 34 33  1  0
 35  9  1  0
 35 40  1  0
 35 36  1  0
 36 39  1  1
 36 37  1  0
 38 36  1  0
 40 43  1  0
 41 45  1  0
 41 40  1  0
 42 41  2  0
 45 44  1  0
 47 45  1  0
 47 48  1  0
 47 46  1  0
 49  2  1  0
 49 50  1  0
 50 51  1  0
 52 51  2  0
 52 53  1  0
 54 53  1  0
 55 54  1  0
 56 64  1  0
 57 62  1  0
 58 59  1  0
 58 57  1  0
 60 59  1  0
 60 69  1  0
 60 61  1  0
 62 56  1  0
 62 61  1  0
 63 56  2  0
 64 55  1  0
 64 65  1  0
 66 67  2  0
 67 86  1  0
 68 67  1  0
 68 71  1  0
 69 66  1  0
 69 70  1  0
 70 68  2  0
 71 72  1  0
 72 73  2  0
 74 77  1  0
 74 73  1  0
 75 74  2  0
 76 75  1  0
 76 71  2  0
 77 78  1  0
 78 79  1  0
 79 80  2  0
 81 80  1  0
 81 85  1  0
 82 81  2  0
 83 78  2  0
 83 82  1  0
 84 83  1  0
 86 87  1  0
 87 90  1  0
 87 89  1  0
 88 86  2  0
 91 92  1  0
 91 66  1  0
 93 91  1  0
M  ISO  4   7 101   8 101  56 100  64 100
M  END
>  <TORSDO>  (37) 
F 25

>  <SCORE>  (37) 
-11.564

>  <name>  (37) 
37

>  <ligand_id>  (37) 
37

>  <original_smiles>  (37) 
[H]C(=NC([H])([H])C([H])([H])C([H])([H])N([H])C(=O)N1C([H])([H])C([H])([H])C([H])([H])C([H])(n2nc(-c3c([H])c([H])c(Oc4c([H])c([H])c(F)c([H])c4F)c([H])c3[H])c(C(=O)N([H])[H])c2N([H])[H])C1([H])[H])C([H])([H])C([H])([H])C([H])(C([H])([H])[H])[N+]([H])([H])C([H])([H])C([H])([H])Oc1c([H])c([H])c2c(c1[H])C([H])([H])N(C(=O)C([H])(N([H])C(=O)C([H])(N([H])C([H])([H])[H])C([H])([H])[H])C(C([H])([H])[H])(C([H])([H])[H])C([H])([H])[H])C([H])(C(=O)N([H])C1([H])c3c([H])c([H])c([H])c([H])c3C([H])([H])C([H])([H])C1([H])[H])C2([H])[H]

>  <smiles>  (37) 
[H]C(=NC([H])([H])C([H])([H])C([H])([H])N([H])C(=O)N1C([H])([H])C([H])([H])C([H])([H])C([H])(n2nc(-c3c([H])c([H])c(Oc4c([H])c([H])c(F)c([H])c4F)c([H])c3[H])c(C(=O)N([H])[H])c2N([H])[H])C1([H])[H])C([H])([H])C([H])([H])C([H])(C([H])([H])[H])[N+]([H])([H])C([H])([H])C([H])([H])Oc1c([H])c([H])c2c(c1[H])C([H])([H])N(C(=O)C([H])(N([H])C(=O)C([H])(N([H])C([H])([H])[H])C([H])([H])[H])C(C([H])([H])[H])(C([H])([H])[H])C([H])([H])[H])C([H])(C(=O)N([H])C1([H])c3c([H])c([H])c([H])c([H])c3C([H])([H])C([H])([H])C1([H])[H])C2([H])[H]

$$$$
38:0:0
     RDKit          3D

106112  0  0  1  0  0  0  0  0999 V2000
  -28.6010  -17.9740   19.2170 N   0  0  0  0  0  0  0  0  0  0  0  0
  -27.7210  -18.3630   18.8850 H   0  0  0  0  0  0  0  0  0  0  0  0
  -28.0380  -14.6120   17.9080 C   0  0  0  0  0  3  0  0  0  0  0  0
  -30.1460  -14.7470   18.3390 C   0  0  0  0  0  3  0  0  0  0  0  0
  -27.8330  -16.0070   18.0190 C   0  0  0  0  0  3  0  0  0  0  0  0
  -30.1040  -16.1490   18.5340 C   0  0  0  0  0  3  0  0  0  0  0  0
  -29.0370  -13.8540   18.7280 C   0  0  0  0  0  0  0  0  0  0  0  0
  -28.8530  -16.7580   18.5820 C   0  0  0  0  0  0  0  0  0  0  0  0
  -28.8500  -10.0070   19.6280 C   0  0  0  0  0  1  0  0  0  0  0  0
  -28.8800  -11.5700   20.1330 C   0  0  0  0  0  3  0  0  0  0  0  0
  -29.2950  -11.2530   21.5970 N   0  0  0  0  0  4  0  0  0  0  0  0
  -29.3490  -12.1250   22.0950 H   0  0  0  0  0  0  0  0  0  0  0  0
  -28.4910  -10.7710   21.9690 H   0  0  0  0  0  0  0  0  0  0  0  0
  -30.4620  -10.4020   22.0010 C   0  0  0  0  0  2  0  0  0  0  0  0
  -31.8040  -11.1160   22.3280 C   0  0  0  0  0  2  0  0  0  0  0  0
  -31.7350  -12.4730   23.0880 C   0  0  0  0  0  2  0  0  0  0  0  0
  -31.9640  -13.8000   20.9570 C   0  0  0  0  0  0  0  0  0  0  0  0
  -31.4940  -12.0810   18.9100 C   0  0  0  0  0  1  0  0  0  0  0  0
  -30.0660  -11.6310   17.5400 C   0  0  0  0  0 15  0  0  0  0  0  0
  -28.1340  -11.9460   18.0820 C   0  0  0  0  0 15  0  0  0  0  0  0
  -27.8490  -13.0030   19.7880 C   0  0  0  0  0  0  0  0  0  0  0  0
  -29.3590  -13.4520   20.9160 C   0  0  0  0  0  2  0  0  0  0  0  0
  -31.0390  -13.0090   20.4320 N   0  0  0  0  0  0  0  0  0  0  0  0
  -32.7710  -14.4260   20.2830 O   0  0  0  0  0  0  0  0  0  0  0  0
  -32.1350  -13.6310   22.2730 N   0  0  0  0  0  0  0  0  0  0  0  0
  -32.8600  -14.2120   22.6720 H   0  0  0  0  0  0  0  0  0  0  0  0
  -25.7410  -13.7120   20.8280 C   0  0  0  0  0  0  0  0  0  0  0  0
  -24.6730  -12.9690   21.1800 C   0  0  0  0  0  0  0  0  0  0  0  0
  -25.0640  -11.6010   21.0500 C   0  0  0  0  0  0  0  0  0  0  0  0
  -26.6700  -12.7660   20.4660 N   0  0  0  0  0  0  0  0  0  0  0  0
  -26.3170  -11.4960   20.6770 N   0  0  0  0  0  0  0  0  0  0  0  0
  -24.3080  -10.3750   21.1830 C   0  0  0  0  0  0  0  0  0  0  0  0
  -24.7130   -9.3640   22.0800 C   0  0  0  0  0  3  0  0  0  0  0  0
  -23.9370   -8.1980   22.2200 C   0  0  0  0  0  3  0  0  0  0  0  0
  -22.7540   -8.0450   21.4580 C   0  0  0  0  0  0  0  0  0  0  0  0
  -22.3840   -9.0410   20.5400 C   0  0  0  0  0  3  0  0  0  0  0  0
  -23.1590  -10.1990   20.3960 C   0  0  0  0  0  3  0  0  0  0  0  0
  -21.9400   -6.9470   21.5220 O   0  0  0  0  0  0  0  0  0  0  0  0
  -21.8040   -6.2280   22.6800 C   0  0  0  0  0  0  0  0  0  0  0  0
  -21.3540   -6.8200   23.8810 C   0  0  0  0  0  3  0  0  0  0  0  0
  -21.1620   -6.0240   25.0270 C   0  0  0  0  0  3  0  0  0  0  0  0
  -21.4150   -4.6400   24.9730 C   0  0  0  0  0  0  0  0  0  0  0  0
  -21.8610   -4.0500   23.7780 C   0  0  0  0  0  3  0  0  0  0  0  0
  -22.0520   -4.8430   22.6340 C   0  0  0  0  0  0  0  0  0  0  0  0
  -22.4660   -4.2700   21.4770 F   0  0  0  0  0  0  0  0  0  0  0  0
  -21.2220   -3.8740   26.0720 F   0  0  0  0  0  0  0  0  0  0  0  0
  -23.3290  -13.5150   21.4930 C   0  0  0  0  0  0  0  0  0  0  0  0
  -22.6010  -12.8430   22.3710 N   0  0  0  0  0  0  0  0  0  0  0  0
  -22.9450  -14.5730   20.9960 O   0  0  0  0  0  0  0  0  0  0  0  0
  -22.9350  -11.9860   22.7820 H   0  0  0  0  0  0  0  0  0  0  0  0
  -21.6890  -13.1910   22.6330 H   0  0  0  0  0  0  0  0  0  0  0  0
  -25.9690  -15.0890   20.7240 N   0  0  0  0  0  0  0  0  0  0  0  0
  -25.2330  -15.7630   20.9070 H   0  0  0  0  0  0  0  0  0  0  0  0
  -26.7690  -15.4910   20.2570 H   0  0  0  0  0  0  0  0  0  0  0  0
  -28.5210  -17.6460   20.6500 C   0  0  0  0  0  2  0  0  0  0  0  0
  -28.1910  -18.8470   21.5260 C   0  0  0  0  0  2  0  0  0  0  0  0
  -28.9310  -20.0010   21.0140 N   0  0  0  0  0  4  0  0  0  0  0  0
  -28.7590  -19.9770   20.0200 H   0  0  0  0  0  0  0  0  0  0  0  0
  -29.9190  -19.8630   21.1480 H   0  0  0  0  0  0  0  0  0  0  0  0
  -28.5200  -21.2910   21.5740 C   0  0  0  0  0  2  0  0  0  0  0  0
  -28.8410  -22.4000   20.5760 C   0  0  0  0  0  2  0  0  0  0  0  0
  -28.6660  -23.6980   21.1980 N   0  0  0  0  0  0  0  0  0  0  0  0
  -29.4070  -23.8560   21.8780 H   0  0  0  0  0  0  0  0  0  0  0  0
  -28.7580  -24.6800   20.1360 C   0  0  0  0  0  2  0  0  0  0  0  0
  -28.7280  -26.0880   20.7100 C   0  0  0  0  0  2  0  0  0  0  0  0
  -28.5000  -26.9380   19.6020 O   0  0  0  0  0  0  0  0  0  0  0  0
  -24.5390  -31.6820   23.0210 C   0  0  0  0  0  0  0  0  0  0  0  0
  -27.2920  -27.5690   19.6690 C   0  0  0  0  0  0  0  0  0  0  0  0
  -23.3460  -30.3140   21.3350 C   0  0  0  0  0  3  0  0  0  0  0  0
  -24.8280  -28.9080   19.8090 C   0  0  0  0  0  0  0  0  0  0  0  0
  -25.8400  -30.8020   21.0970 C   0  0  0  0  0  2  0  0  0  0  0  0
  -25.9670  -29.4710   20.3970 C   0  0  0  0  0  0  0  0  0  0  0  0
  -27.2040  -28.8050   20.3300 C   0  0  0  0  0  3  0  0  0  0  0  0
  -26.1440  -26.9940   19.0850 C   0  0  0  0  0  3  0  0  0  0  0  0
  -24.9070  -27.6640   19.1540 C   0  0  0  0  0  3  0  0  0  0  0  0
  -23.5480  -29.7040   19.9200 C   0  0  0  0  0  2  0  0  0  0  0  0
  -24.5940  -30.9440   21.8780 N   0  0  0  0  0  0  0  0  0  0  0  0
  -23.4630  -31.8860   23.6000 O   0  0  0  0  0  0  0  0  0  0  0  0
  -22.7590  -29.2250   22.2590 C   0  0  0  0  0  0  0  0  0  0  0  0
  -21.4350  -29.0200   22.1710 N   0  0  0  0  0  0  0  0  0  0  0  0
  -23.4880  -28.5680   23.0070 O   0  0  0  0  0  0  0  0  0  0  0  0
  -20.9070  -29.6070   21.5380 H   0  0  0  0  0  0  0  0  0  0  0  0
  -18.1060  -27.7360   22.7210 C   0  0  0  0  0  0  0  0  0  0  0  0
  -20.6670  -28.0230   22.9130 C   0  0  0  0  0  3  0  0  0  0  0  0
  -20.7710  -26.6320   22.2460 C   0  0  0  0  0  2  0  0  0  0  0  0
  -19.6360  -26.3510   21.2570 C   0  0  0  0  0  2  0  0  0  0  0  0
  -18.2790  -26.4320   21.9600 C   0  0  0  0  0  2  0  0  0  0  0  0
  -19.2280  -28.4900   23.1540 C   0  0  0  0  0  0  0  0  0  0  0  0
  -19.0130  -29.7140   23.8260 C   0  0  0  0  0  3  0  0  0  0  0  0
  -17.7080  -30.1820   24.0680 C   0  0  0  0  0  3  0  0  0  0  0  0
  -16.6010  -29.4230   23.6510 C   0  0  0  0  0  3  0  0  0  0  0  0
  -16.8010  -28.2020   22.9830 C   0  0  0  0  0  3  0  0  0  0  0  0
  -25.8190  -32.3270   23.6440 C   0  0  0  0  0  3  0  0  0  0  0  0
  -25.4620  -33.6830   24.0780 N   0  0  0  0  0  0  0  0  0  0  0  0
  -25.7320  -34.7980   23.3840 C   0  0  0  0  0  0  0  0  0  0  0  0
  -26.3800  -34.7940   22.3340 O   0  0  0  0  0  0  0  0  0  0  0  0
  -24.8830  -33.7580   24.9020 H   0  0  0  0  0  0  0  0  0  0  0  0
  -23.9230  -36.5320   23.1880 C   0  0  0  0  0  1  0  0  0  0  0  0
  -25.1970  -36.1280   23.9460 C   0  0  0  0  0  3  0  0  0  0  0  0
  -27.3090  -37.0460   24.7980 C   0  0  0  0  0  1  0  0  0  0  0  0
  -26.1820  -37.2300   23.8860 N   0  0  0  0  0  0  0  0  0  0  0  0
  -25.7410  -38.1200   24.1020 H   0  0  0  0  0  0  0  0  0  0  0  0
  -26.4170  -31.4920   24.8420 C   0  0  1  0  0  0  0  0  0  0  0  0
  -25.3780  -31.1320   25.9280 C   0  0  0  0  0  1  0  0  0  0  0  0
  -27.0410  -30.1740   24.3260 C   0  0  0  0  0  1  0  0  0  0  0  0
  -27.5580  -32.2890   25.5170 C   0  0  0  0  0  1  0  0  0  0  0  0
  1 55  1  0
  2  1  1  0
  3  5  2  0
  3  7  1  0
  4  6  1  0
  4  7  2  3
  5  8  1  0
  6  8  2  0
  8  1  1  0
 10  9  1  0
 10 11  1  0
 11 13  1  0
 11 14  1  0
 11 12  1  0
 14 15  1  0
 15 16  1  0
 17 25  1  0
 18 23  1  0
 21  7  1  0
 21 10  1  0
 21 30  1  0
 21 22  1  0
 23 22  1  0
 23 17  1  0
 24 17  2  0
 25 26  1  0
 25 16  1  0
 27 28  2  0
 28 47  1  0
 29 28  1  0
 29 32  1  0
 30 31  1  0
 30 27  1  0
 31 29  2  0
 32 33  1  0
 33 34  2  0
 35 38  1  0
 35 34  1  0
 36 35  2  0
 37 36  1  0
 37 32  2  0
 38 39  1  0
 39 40  1  0
 40 41  2  0
 42 41  1  0
 42 46  1  0
 43 42  2  0
 44 39  2  0
 44 43  1  0
 45 44  1  0
 47 48  1  0
 48 51  1  0
 48 50  1  0
 49 47  2  0
 52 27  1  0
 52 53  1  0
 54 52  1  0
 55 56  1  0
 57 59  1  0
 57 56  1  0
 57 60  1  0
 58 57  1  0
 61 62  1  0
 61 60  1  0
 62 63  1  0
 64 65  1  0
 64 62  1  0
 66 68  1  0
 66 65  1  0
 67 78  2  0
 68 73  1  0
 69 77  1  0
 69 79  1  0
 70 76  1  0
 70 72  1  0
 71 77  1  0
 72 71  1  0
 73 72  2  0
 74 75  1  0
 74 68  2  0
 75 70  2  0
 76 69  1  0
 77 67  1  0
 79 81  2  0
 80 79  1  0
 82 80  1  0
 83 92  2  0
 83 88  1  0
 84 80  1  0
 84 88  1  0
 85 84  1  0
 86 87  1  0
 86 85  1  0
 87 83  1  0
 88 89  2  0
 89 90  1  0
 91 90  2  0
 92 91  1  0
 93 67  1  0
 93 94  1  0
 93103  1  0
 94 97  1  0
 95 99  1  0
 95 94  1  0
 96 95  2  0
 99 98  1  0
101 99  1  0
101102  1  0
101100  1  0
103106  1  1
103104  1  0
105103  1  0
M  ISO  4  17 100  25 100  65 101  66 101
M  END
>  <TORSDO>  (38) 
F 30

>  <SCORE>  (38) 
-4.207

>  <name>  (38) 
38

>  <ligand_id>  (38) 
38

>  <original_smiles>  (38) 
[H]c1c([H])c([H])c2c(c1[H])C([H])([H])C([H])([H])C([H])([H])C2([H])N([H])C(=O)C1([H])N(C(=O)C([H])(N([H])C(=O)C([H])(N([H])C([H])([H])[H])C([H])([H])[H])C(C([H])([H])[H])(C([H])([H])[H])C([H])([H])[H])C([H])([H])c2c([H])c(OC([H])([H])C([H])([H])N([H])C([H])([H])C([H])([H])[N+]([H])([H])C([H])([H])C([H])([H])N([H])c3c([H])c([H])c(C([H])(C([H])([H])[H])[N+]([H])([H])C([H])([H])C([H])([H])C([H])([H])N([H])C(=O)N4C([H])([H])C([H])([H])C([H])([H])C([H])(n5nc(-c6c([H])c([H])c(Oc7c([H])c([H])c(F)c([H])c7F)c([H])c6[H])c(C(=O)N([H])[H])c5N([H])[H])C4([H])[H])c([H])c3[H])c([H])c([H])c2C1([H])[H]

>  <smiles>  (38) 
[H]c1c([H])c([H])c2c(c1[H])C([H])([H])C([H])([H])C([H])([H])C2([H])N([H])C(=O)C1([H])N(C(=O)C([H])(N([H])C(=O)C([H])(N([H])C([H])([H])[H])C([H])([H])[H])C(C([H])([H])[H])(C([H])([H])[H])C([H])([H])[H])C([H])([H])c2c([H])c(OC([H])([H])C([H])([H])N([H])C([H])([H])C([H])([H])[N+]([H])([H])C([H])([H])C([H])([H])N([H])c3c([H])c([H])c(C([H])(C([H])([H])[H])[N+]([H])([H])C([H])([H])C([H])([H])C([H])([H])N([H])C(=O)N4C([H])([H])C([H])([H])C([H])([H])C([H])(n5nc(-c6c([H])c([H])c(Oc7c([H])c([H])c(F)c([H])c7F)c([H])c6[H])c(C(=O)N([H])[H])c5N([H])[H])C4([H])[H])c([H])c3[H])c([H])c([H])c2C1([H])[H]

$$$$
39:0:0
     RDKit          3D

100108  0  0  1  0  0  0  0  0999 V2000
  -24.4860  -22.7050   18.3340 C   0  0  0  0  0  3  0  0  0  0  0  0
  -24.2570  -23.0540   16.9980 C   0  0  0  0  0  3  0  0  0  0  0  0
  -26.5240  -24.0450   18.3270 C   0  0  0  0  0  3  0  0  0  0  0  0
  -25.6270  -23.1850   18.9980 C   0  0  0  0  0  0  0  0  0  0  0  0
  -26.3040  -24.4080   16.9780 C   0  0  0  0  0  0  0  0  0  0  0  0
  -25.1550  -23.9100   16.3130 C   0  0  0  0  0  0  0  0  0  0  0  0
  -26.3000  -23.9870   21.2540 C   0  0  0  0  0  1  0  0  0  0  0  0
  -25.9100  -22.7530   20.4220 C   0  0  0  0  0  3  0  0  0  0  0  0
  -26.7470  -20.3590   20.0730 C   0  0  0  0  0  3  0  0  0  0  0  0
  -26.9610  -21.6430   20.4440 C   0  0  0  0  0  3  0  0  0  0  0  0
  -27.8390  -19.3910   20.0490 C   0  0  0  0  0  0  0  0  0  0  0  0
  -27.4160  -18.1200   19.8890 N   0  0  0  0  0  0  0  0  0  0  0  0
  -29.0330  -19.6820   20.0960 O   0  0  0  0  0  0  0  0  0  0  0  0
  -26.4160  -17.9930   19.8320 H   0  0  0  0  0  0  0  0  0  0  0  0
  -28.2520  -16.9730   19.4810 C   0  0  0  0  0  2  0  0  0  0  0  0
  -28.7200  -16.0610   20.6410 C   0  0  0  0  0  2  0  0  0  0  0  0
  -30.5140  -14.5960   19.4790 C   0  0  0  0  0  0  0  0  0  0  0  0
  -30.3310  -12.3520   18.4260 C   0  0  0  0  0  2  0  0  0  0  0  0
  -29.1730  -12.3060   17.4090 C   0  0  0  0  0  2  0  0  0  0  0  0
  -27.8090  -12.0720   18.0920 C   0  0  0  0  0  2  0  0  0  0  0  0
  -27.6100  -12.9880   19.3290 C   0  0  0  0  0  3  0  0  0  0  0  0
  -28.8370  -12.8790   20.2510 C   0  0  0  0  0  2  0  0  0  0  0  0
  -29.9880  -13.3400   19.4680 N   0  0  0  0  0  0  0  0  0  0  0  0
  -31.4680  -14.9040   18.7530 O   0  0  0  0  0  0  0  0  0  0  0  0
  -30.0640  -15.4520   20.4330 N   0  0  0  0  0  0  0  0  0  0  0  0
  -30.7840  -16.0990   20.7240 H   0  0  0  0  0  0  0  0  0  0  0  0
  -25.4610  -13.5320   20.6400 C   0  0  0  0  0  0  0  0  0  0  0  0
  -24.4750  -12.7230   21.1420 C   0  0  0  0  0  0  0  0  0  0  0  0
  -24.8590  -11.3880   20.8150 C   0  0  0  0  0  0  0  0  0  0  0  0
  -26.3830  -12.6790   20.0490 N   0  0  0  0  0  0  0  0  0  0  0  0
  -26.0380  -11.3780   20.2090 N   0  0  0  0  0  0  0  0  0  0  0  0
  -24.1470  -10.1190   20.9870 C   0  0  0  0  0  0  0  0  0  0  0  0
  -24.6040   -9.1350   21.8900 C   0  0  0  0  0  3  0  0  0  0  0  0
  -23.8930   -7.9270   22.0460 C   0  0  0  0  0  3  0  0  0  0  0  0
  -22.7110   -7.6980   21.3020 C   0  0  0  0  0  0  0  0  0  0  0  0
  -22.2780   -8.6710   20.3830 C   0  0  0  0  0  3  0  0  0  0  0  0
  -22.9890   -9.8720   20.2250 C   0  0  0  0  0  3  0  0  0  0  0  0
  -21.9680   -6.5460   21.3690 O   0  0  0  0  0  0  0  0  0  0  0  0
  -21.7260   -5.9190   22.5640 C   0  0  0  0  0  0  0  0  0  0  0  0
  -21.0970   -6.5840   23.6410 C   0  0  0  0  0  3  0  0  0  0  0  0
  -20.8010   -5.8790   24.8260 C   0  0  0  0  0  3  0  0  0  0  0  0
  -21.1250   -4.5130   24.9330 C   0  0  0  0  0  0  0  0  0  0  0  0
  -21.7470   -3.8510   23.8600 C   0  0  0  0  0  3  0  0  0  0  0  0
  -22.0430   -4.5510   22.6800 C   0  0  0  0  0  0  0  0  0  0  0  0
  -22.6240   -3.9050   21.6400 F   0  0  0  0  0  0  0  0  0  0  0  0
  -20.8370   -3.8320   26.0690 F   0  0  0  0  0  0  0  0  0  0  0  0
  -23.2040  -13.1710   21.8030 C   0  0  0  0  0  0  0  0  0  0  0  0
  -22.7120  -12.3990   22.7700 N   0  0  0  0  0  0  0  0  0  0  0  0
  -22.6590  -14.2320   21.5020 O   0  0  0  0  0  0  0  0  0  0  0  0
  -23.1630  -11.5360   23.0310 H   0  0  0  0  0  0  0  0  0  0  0  0
  -21.8690  -12.6760   23.2480 H   0  0  0  0  0  0  0  0  0  0  0  0
  -25.6340  -14.9100   20.6150 N   0  0  0  0  0  0  0  0  0  0  0  0
  -24.9320  -15.5420   20.9850 H   0  0  0  0  0  0  0  0  0  0  0  0
  -26.4040  -15.3760   20.1570 H   0  0  0  0  0  0  0  0  0  0  0  0
  -23.6090  -24.3430   14.5570 C   0  0  0  0  0  1  0  0  0  0  0  0
  -24.9580  -24.2680   14.9970 O   0  0  0  0  0  0  0  0  0  0  0  0
  -27.3000  -25.2760   16.1970 C   0  0  0  0  0  2  0  0  0  0  0  0
  -28.4410  -26.0120   16.9570 C   0  0  0  0  0  2  0  0  0  0  0  0
  -28.1660  -27.4900   17.3060 C   0  0  0  0  0  2  0  0  0  0  0  0
  -27.9460  -27.6860   18.7060 O   0  0  0  0  0  0  0  0  0  0  0  0
  -24.3600  -31.7230   23.3330 C   0  0  0  0  0  0  0  0  0  0  0  0
  -26.7490  -28.2690   19.0390 C   0  0  0  0  0  0  0  0  0  0  0  0
  -23.0020  -30.6350   21.5770 C   0  0  0  0  0  3  0  0  0  0  0  0
  -24.3190  -29.5430   19.6850 C   0  0  0  0  0  0  0  0  0  0  0  0
  -25.4650  -31.2000   21.1650 C   0  0  0  0  0  2  0  0  0  0  0  0
  -25.5200  -30.0100   20.2340 C   0  0  0  0  0  0  0  0  0  0  0  0
  -26.7370  -29.3710   19.9200 C   0  0  0  0  0  3  0  0  0  0  0  0
  -25.5280  -27.7890   18.5200 C   0  0  0  0  0  3  0  0  0  0  0  0
  -24.3130  -28.4210   18.8350 C   0  0  0  0  0  3  0  0  0  0  0  0
  -23.0570  -30.2850   20.0670 C   0  0  0  0  0  2  0  0  0  0  0  0
  -24.3020  -31.1880   22.0820 N   0  0  0  0  0  0  0  0  0  0  0  0
  -23.3500  -31.8020   24.0430 O   0  0  0  0  0  0  0  0  0  0  0  0
  -22.5280  -29.3880   22.3530 C   0  0  0  0  0  0  0  0  0  0  0  0
  -21.2230  -29.0870   22.2560 N   0  0  0  0  0  0  0  0  0  0  0  0
  -23.3260  -28.7020   22.9960 O   0  0  0  0  0  0  0  0  0  0  0  0
  -20.6360  -29.7020   21.7090 H   0  0  0  0  0  0  0  0  0  0  0  0
  -18.0770  -27.3190   22.4760 C   0  0  0  0  0  0  0  0  0  0  0  0
  -20.5560  -27.9390   22.8660 C   0  0  0  0  0  3  0  0  0  0  0  0
  -20.8970  -26.6250   22.1190 C   0  0  0  0  0  2  0  0  0  0  0  0
  -19.8730  -26.2720   21.0340 C   0  0  0  0  0  2  0  0  0  0  0  0
  -18.4750  -26.1140   21.6420 C   0  0  0  0  0  2  0  0  0  0  0  0
  -19.0540  -28.1850   23.0390 C   0  0  0  0  0  0  0  0  0  0  0  0
  -18.6300  -29.3100   23.7810 C   0  0  0  0  0  3  0  0  0  0  0  0
  -17.2600  -29.5750   23.9640 C   0  0  0  0  0  3  0  0  0  0  0  0
  -16.2970  -28.7130   23.4120 C   0  0  0  0  0  3  0  0  0  0  0  0
  -16.7050  -27.5840   22.6760 C   0  0  0  0  0  3  0  0  0  0  0  0
  -25.6930  -32.2880   23.9190 C   0  0  0  0  0  3  0  0  0  0  0  0
  -26.2220  -31.4780   25.1670 C   0  0  1  0  0  0  0  0  0  0  0  0
  -25.1620  -31.2930   26.2810 C   0  0  0  0  0  1  0  0  0  0  0  0
  -26.7060  -30.0720   24.7400 C   0  0  0  0  0  1  0  0  0  0  0  0
  -27.4460  -32.1960   25.7820 C   0  0  0  0  0  1  0  0  0  0  0  0
  -25.4520  -33.6920   24.2760 N   0  0  0  0  0  0  0  0  0  0  0  0
  -25.8550  -34.7420   23.5460 C   0  0  0  0  0  0  0  0  0  0  0  0
  -26.5390  -34.6250   22.5250 O   0  0  0  0  0  0  0  0  0  0  0  0
  -24.8590  -33.8580   25.0760 H   0  0  0  0  0  0  0  0  0  0  0  0
  -24.2670  -36.6530   23.1630 C   0  0  0  0  0  1  0  0  0  0  0  0
  -25.4350  -36.1470   24.0250 C   0  0  0  0  0  3  0  0  0  0  0  0
  -27.5730  -36.8660   24.9940 C   0  0  0  0  0  1  0  0  0  0  0  0
  -26.5390  -37.1330   23.9980 N   0  0  0  0  0  0  0  0  0  0  0  0
  -26.1870  -38.0740   24.1520 H   0  0  0  0  0  0  0  0  0  0  0  0
  1  4  1  0
  2  1  2  0
  3  4  2  0
  4  8  1  0
  5  3  1  0
  6  5  2  0
  6  2  1  0
  8 10  1  0
  8  7  1  0
  9 10  2  0
 11  9  1  0
 11 13  2  0
 12 11  1  0
 14 12  1  0
 15 12  1  0
 15 16  1  0
 17 25  1  0
 18 23  1  0
 19 20  1  0
 19 18  1  0
 21 20  1  0
 21 30  1  0
 21 22  1  0
 23 17  1  0
 23 22  1  0
 24 17  2  0
 25 16  1  0
 25 26  1  0
 27 28  2  0
 28 47  1  0
 29 32  1  0
 29 28  1  0
 30 31  1  0
 30 27  1  0
 31 29  2  0
 32 33  1  0
 33 34  2  0
 35 38  1  0
 35 34  1  0
 36 35  2  0
 37 36  1  0
 37 32  2  0
 38 39  1  0
 39 44  2  0
 39 40  1  0
 40 41  2  0
 41 42  1  0
 42 46  1  0
 43 42  2  0
 44 43  1  0
 45 44  1  0
 47 48  1  0
 48 50  1  0
 48 51  1  0
 49 47  2  0
 52 27  1  0
 52 53  1  0
 54 52  1  0
 55 56  1  0
 56  6  1  0
 57 58  1  0
 57  5  1  0
 58 59  1  0
 59 60  1  0
 60 62  1  0
 61 72  2  0
 62 67  1  0
 63 71  1  0
 63 73  1  0
 64 70  1  0
 64 66  1  0
 65 71  1  0
 66 65  1  0
 67 66  2  0
 68 69  1  0
 68 62  2  0
 69 64  2  0
 70 63  1  0
 71 61  1  0
 73 75  2  0
 74 73  1  0
 76 74  1  0
 77 86  2  0
 77 82  1  0
 78 74  1  0
 78 82  1  0
 79 78  1  0
 80 81  1  0
 80 79  1  0
 81 77  1  0
 82 83  2  0
 83 84  1  0
 85 84  2  0
 86 85  1  0
 87 61  1  0
 87 92  1  0
 87 88  1  0
 88 91  1  1
 88 89  1  0
 90 88  1  0
 92 95  1  0
 93 97  1  0
 93 92  1  0
 94 93  2  0
 97 96  1  0
 99 97  1  0
 99100  1  0
 99 98  1  0
M  ISO  4  17 100  25 100  59 101  60 101
M  END
>  <TORSDO>  (39) 
F 25

>  <SCORE>  (39) 
-7.729

>  <name>  (39) 
39

>  <ligand_id>  (39) 
39

>  <original_smiles>  (39) 
[H]C(C(=O)N([H])C([H])([H])C([H])([H])N([H])C(=O)N1C([H])([H])C([H])([H])C([H])([H])C([H])(n2nc(-c3c([H])c([H])c(Oc4c([H])c([H])c(F)c([H])c4F)c([H])c3[H])c(C(=O)N([H])[H])c2N([H])[H])C1([H])[H])=C([H])C([H])(c1c([H])c([H])c(OC([H])([H])[H])c(C([H])([H])C([H])([H])C([H])([H])Oc2c([H])c([H])c3c(c2[H])C([H])([H])N(C(=O)C([H])(N([H])C(=O)C([H])(N([H])C([H])([H])[H])C([H])([H])[H])C(C([H])([H])[H])(C([H])([H])[H])C([H])([H])[H])C([H])(C(=O)N([H])C2([H])c4c([H])c([H])c([H])c([H])c4C([H])([H])C([H])([H])C2([H])[H])C3([H])[H])c1[H])C([H])([H])[H]

>  <smiles>  (39) 
[H]C(C(=O)N([H])C([H])([H])C([H])([H])N([H])C(=O)N1C([H])([H])C([H])([H])C([H])([H])C([H])(n2nc(-c3c([H])c([H])c(Oc4c([H])c([H])c(F)c([H])c4F)c([H])c3[H])c(C(=O)N([H])[H])c2N([H])[H])C1([H])[H])=C([H])C([H])(c1c([H])c([H])c(OC([H])([H])[H])c(C([H])([H])C([H])([H])C([H])([H])Oc2c([H])c([H])c3c(c2[H])C([H])([H])N(C(=O)C([H])(N([H])C(=O)C([H])(N([H])C([H])([H])[H])C([H])([H])[H])C(C([H])([H])[H])(C([H])([H])[H])C([H])([H])[H])C([H])(C(=O)N([H])C2([H])c4c([H])c([H])c([H])c([H])c4C([H])([H])C([H])([H])C2([H])[H])C3([H])[H])c1[H])C([H])([H])[H]

$$$$
40:0:0
     RDKit          3D

105113  0  0  1  0  0  0  0  0999 V2000
  -27.8310  -20.1170   19.4450 C   0  0  0  0  0  3  0  0  0  0  0  0
  -25.4740  -19.5130   19.2780 C   0  0  0  0  0  3  0  0  0  0  0  0
  -27.1510  -17.7850   19.6850 C   0  0  0  0  0  3  0  0  0  0  0  0
  -26.4840  -20.5000   19.2390 C   0  0  0  0  0  0  0  0  0  0  0  0
  -28.1740  -18.7600   19.6680 C   0  0  0  0  0  0  0  0  0  0  0  0
  -25.8060  -18.1650   19.5020 C   0  0  0  0  0  0  0  0  0  0  0  0
  -24.8260  -17.2340   19.5570 F   0  0  0  0  0  0  0  0  0  0  0  0
  -26.1010  -21.9550   18.9880 C   0  0  0  0  0  2  0  0  0  0  0  0
  -26.4340  -22.4590   17.5660 C   0  0  0  0  0  2  0  0  0  0  0  0
  -27.8860  -22.9260   17.2920 C   0  0  0  0  0  2  0  0  0  0  0  0
  -28.0710  -24.3900   17.4070 N   0  0  0  0  0  4  0  0  0  0  0  0
  -27.2230  -24.8500   17.1180 H   0  0  0  0  0  0  0  0  0  0  0  0
  -28.7800  -24.6370   16.7320 H   0  0  0  0  0  0  0  0  0  0  0  0
  -28.5170  -24.8840   18.7350 C   0  0  0  0  0  2  0  0  0  0  0  0
  -28.8530  -26.3850   18.7040 C   0  0  0  0  0  2  0  0  0  0  0  0
  -28.5350  -27.0040   19.9510 O   0  0  0  0  0  0  0  0  0  0  0  0
  -24.5710  -31.8290   23.3400 C   0  0  0  0  0  0  0  0  0  0  0  0
  -27.3080  -27.6250   20.0340 C   0  0  0  0  0  0  0  0  0  0  0  0
  -23.3810  -30.4540   21.6610 C   0  0  0  0  0  3  0  0  0  0  0  0
  -24.8520  -29.0180   20.1610 C   0  0  0  0  0  0  0  0  0  0  0  0
  -25.8870  -30.9040   21.4410 C   0  0  0  0  0  2  0  0  0  0  0  0
  -25.9990  -29.5590   20.7560 C   0  0  0  0  0  0  0  0  0  0  0  0
  -27.2230  -28.8620   20.7080 C   0  0  0  0  0  3  0  0  0  0  0  0
  -26.1350  -27.0800   19.4600 C   0  0  0  0  0  3  0  0  0  0  0  0
  -24.9110  -27.7700   19.5170 C   0  0  0  0  0  3  0  0  0  0  0  0
  -23.5830  -29.8290   20.2560 C   0  0  0  0  0  2  0  0  0  0  0  0
  -24.6310  -31.0780   22.2040 N   0  0  0  0  0  0  0  0  0  0  0  0
  -23.4920  -32.0420   23.9100 O   0  0  0  0  0  0  0  0  0  0  0  0
  -22.7850  -29.3770   22.5920 C   0  0  0  0  0  0  0  0  0  0  0  0
  -21.5020  -29.0450   22.3750 N   0  0  0  0  0  0  0  0  0  0  0  0
  -23.4760  -28.8400   23.4610 O   0  0  0  0  0  0  0  0  0  0  0  0
  -21.0080  -29.5350   21.6400 H   0  0  0  0  0  0  0  0  0  0  0  0
  -18.2930  -27.3960   22.5580 C   0  0  0  0  0  0  0  0  0  0  0  0
  -20.7390  -28.0320   23.0980 C   0  0  0  0  0  3  0  0  0  0  0  0
  -21.1100  -26.6110   22.6130 C   0  0  0  0  0  2  0  0  0  0  0  0
  -20.1890  -26.0960   21.5060 C   0  0  0  0  0  2  0  0  0  0  0  0
  -18.7380  -26.0620   21.9870 C   0  0  0  0  0  2  0  0  0  0  0  0
  -19.2360  -28.3260   23.0710 C   0  0  0  0  0  0  0  0  0  0  0  0
  -18.7790  -29.5650   23.5710 C   0  0  0  0  0  3  0  0  0  0  0  0
  -17.4060  -29.8780   23.5660 C   0  0  0  0  0  3  0  0  0  0  0  0
  -16.4750  -28.9490   23.0670 C   0  0  0  0  0  3  0  0  0  0  0  0
  -16.9200  -27.7150   22.5610 C   0  0  0  0  0  3  0  0  0  0  0  0
  -25.8490  -32.4750   23.9630 C   0  0  0  0  0  3  0  0  0  0  0  0
  -25.5280  -33.8720   24.2770 N   0  0  0  0  0  0  0  0  0  0  0  0
  -25.8530  -34.9200   23.5060 C   0  0  0  0  0  0  0  0  0  0  0  0
  -26.5280  -34.8120   22.4790 O   0  0  0  0  0  0  0  0  0  0  0  0
  -24.9280  -34.0290   25.0730 H   0  0  0  0  0  0  0  0  0  0  0  0
  -24.1080  -36.6880   23.1200 C   0  0  0  0  0  1  0  0  0  0  0  0
  -25.3500  -36.3080   23.9430 C   0  0  0  0  0  3  0  0  0  0  0  0
  -27.4720  -37.2180   24.7730 C   0  0  0  0  0  1  0  0  0  0  0  0
  -26.3740  -37.3690   23.8230 N   0  0  0  0  0  0  0  0  0  0  0  0
  -25.9580  -38.2860   23.9600 H   0  0  0  0  0  0  0  0  0  0  0  0
  -26.3690  -31.7180   25.2450 C   0  0  1  0  0  0  0  0  0  0  0  0
  -25.2690  -31.4430   26.2970 C   0  0  0  0  0  1  0  0  0  0  0  0
  -26.9940  -30.3570   24.8600 C   0  0  0  0  0  1  0  0  0  0  0  0
  -27.4840  -32.5450   25.9260 C   0  0  0  0  0  1  0  0  0  0  0  0
  -29.6350  -18.3710   19.9280 C   0  0  0  0  0  3  0  0  0  0  0  0
  -30.1270  -18.9840   21.1880 N   0  0  0  0  0  4  0  0  0  0  0  0
  -29.4020  -18.9740   21.8850 H   0  0  0  0  0  0  0  0  0  0  0  0
  -30.8780  -18.4210   21.5450 H   0  0  0  0  0  0  0  0  0  0  0  0
  -30.6340  -20.3710   21.0810 C   0  0  0  0  0  2  0  0  0  0  0  0
  -30.1580  -21.2440   22.2600 C   0  0  0  0  0  2  0  0  0  0  0  0
  -30.9220  -22.4810   22.3100 N   0  0  0  0  0  0  0  0  0  0  0  0
  -30.5870  -23.0540   23.0820 H   0  0  0  0  0  0  0  0  0  0  0  0
  -30.7150  -23.0410   21.4870 H   0  0  0  0  0  0  0  0  0  0  0  0
  -29.8430  -16.8330   19.9230 C   0  0  0  0  0  2  0  0  0  0  0  0
  -31.3020  -16.3380   20.1400 C   0  0  0  0  0  2  0  0  0  0  0  0
  -31.9980  -13.8930   20.3780 C   0  0  0  0  0  0  0  0  0  0  0  0
  -31.7220  -11.4590   20.0870 C   0  0  0  0  0  2  0  0  0  0  0  0
  -30.8400  -11.2190   18.8430 C   0  0  0  0  0  2  0  0  0  0  0  0
  -29.3370  -11.2990   19.1960 C   0  0  0  0  0  2  0  0  0  0  0  0
  -28.9870  -12.5660   20.0280 C   0  0  0  0  0  3  0  0  0  0  0  0
  -29.9620  -12.6860   21.2200 C   0  0  0  0  0  2  0  0  0  0  0  0
  -31.3360  -12.7450   20.6760 N   0  0  0  0  0  0  0  0  0  0  0  0
  -33.0920  -13.9360   19.8050 O   0  0  0  0  0  0  0  0  0  0  0  0
  -31.2670  -14.9770   20.6700 N   0  0  0  0  0  0  0  0  0  0  0  0
  -30.4370  -14.7380   21.1890 H   0  0  0  0  0  0  0  0  0  0  0  0
  -26.7310  -13.6220   20.7010 C   0  0  0  0  0  0  0  0  0  0  0  0
  -25.5300  -13.0640   21.0440 C   0  0  0  0  0  0  0  0  0  0  0  0
  -25.7250  -11.6500   20.9930 C   0  0  0  0  0  0  0  0  0  0  0  0
  -27.5950  -12.5600   20.4710 N   0  0  0  0  0  0  0  0  0  0  0  0
  -26.9870  -11.3680   20.6950 N   0  0  0  0  0  0  0  0  0  0  0  0
  -24.7710  -10.5470   21.1500 C   0  0  0  0  0  0  0  0  0  0  0  0
  -25.0250   -9.4760   22.0340 C   0  0  0  0  0  3  0  0  0  0  0  0
  -24.0890   -8.4310   22.1810 C   0  0  0  0  0  3  0  0  0  0  0  0
  -22.8810   -8.4520   21.4410 C   0  0  0  0  0  0  0  0  0  0  0  0
  -22.6430   -9.5100   20.5470 C   0  0  0  0  0  3  0  0  0  0  0  0
  -23.5790  -10.5470   20.3990 C   0  0  0  0  0  3  0  0  0  0  0  0
  -21.9240   -7.4680   21.4990 O   0  0  0  0  0  0  0  0  0  0  0  0
  -21.7750   -6.6730   22.6080 C   0  0  0  0  0  0  0  0  0  0  0  0
  -21.5080   -7.2160   23.8840 C   0  0  0  0  0  3  0  0  0  0  0  0
  -21.2920   -6.3580   24.9820 C   0  0  0  0  0  3  0  0  0  0  0  0
  -21.3330   -4.9630   24.8050 C   0  0  0  0  0  0  0  0  0  0  0  0
  -21.5930   -4.4210   23.5340 C   0  0  0  0  0  3  0  0  0  0  0  0
  -21.8110   -5.2750   22.4370 C   0  0  0  0  0  0  0  0  0  0  0  0
  -22.0390   -4.7480   21.2120 F   0  0  0  0  0  0  0  0  0  0  0  0
  -21.1180   -4.1400   25.8570 F   0  0  0  0  0  0  0  0  0  0  0  0
  -24.2440  -13.7940   21.3090 C   0  0  0  0  0  0  0  0  0  0  0  0
  -23.3900  -13.2440   22.1670 N   0  0  0  0  0  0  0  0  0  0  0  0
  -24.0090  -14.8830   20.7880 O   0  0  0  0  0  0  0  0  0  0  0  0
  -23.5870  -12.3600   22.6130 H   0  0  0  0  0  0  0  0  0  0  0  0
  -22.5240  -13.7200   22.3810 H   0  0  0  0  0  0  0  0  0  0  0  0
  -27.1520  -14.9400   20.5470 N   0  0  0  0  0  0  0  0  0  0  0  0
  -26.4870  -15.7030   20.5970 H   0  0  0  0  0  0  0  0  0  0  0  0
  -28.0410  -15.2150   20.1490 H   0  0  0  0  0  0  0  0  0  0  0  0
  1  5  1  0
  2  6  2  0
  4  2  1  0
  4  1  2  0
  5  3  2  0
  5 57  1  0
  6  7  1  0
  6  3  1  0
  8  4  1  0
  9  8  1  0
 10 11  1  0
 10  9  1  0
 11 14  1  0
 12 11  1  0
 13 11  1  0
 15 14  1  0
 15 16  1  0
 16 18  1  0
 17 28  2  0
 18 23  1  0
 19 27  1  0
 19 29  1  0
 20 26  1  0
 20 22  1  0
 21 27  1  0
 22 21  1  0
 23 22  2  0
 24 25  1  0
 24 18  2  0
 25 20  2  0
 26 19  1  0
 27 17  1  0
 29 31  2  0
 30 29  1  0
 32 30  1  0
 33 42  2  0
 33 38  1  0
 34 30  1  0
 35 34  1  0
 36 37  1  0
 36 35  1  0
 37 33  1  0
 38 34  1  0
 38 39  2  0
 40 39  1  0
 41 40  2  0
 42 41  1  0
 43 17  1  0
 43 44  1  0
 43 53  1  0
 44 47  1  0
 45 49  1  0
 45 44  1  0
 46 45  2  0
 49 48  1  0
 51 49  1  0
 51 52  1  0
 51 50  1  0
 53 56  1  1
 53 54  1  0
 55 53  1  0
 57 66  1  0
 57 58  1  0
 58 60  1  0
 58 59  1  0
 61 58  1  0
 61 62  1  0
 62 63  1  0
 63 64  1  0
 65 63  1  0
 66 67  1  0
 67 76  1  0
 68 76  1  0
 68 74  1  0
 69 74  1  0
 70 71  1  0
 70 69  1  0
 72 71  1  0
 72 81  1  0
 72 73  1  0
 74 73  1  0
 75 68  2  0
 76 77  1  0
 78 79  2  0
 79 98  1  0
 80 79  1  0
 80 83  1  0
 81 82  1  0
 81 78  1  0
 82 80  2  0
 83 84  1  0
 84 85  2  0
 86 89  1  0
 86 85  1  0
 87 86  2  0
 88 87  1  0
 88 83  2  0
 89 90  1  0
 90 91  1  0
 91 92  2  0
 93 92  1  0
 93 97  1  0
 94 93  2  0
 95 90  2  0
 95 94  1  0
 96 95  1  0
 98 99  1  0
 99102  1  0
 99101  1  0
100 98  2  0
103104  1  0
103 78  1  0
105103  1  0
M  ISO  4  15 101  16 101  68 100  76 100
M  END
>  <TORSDO>  (40) 
F 29

>  <SCORE>  (40) 
-9.232

>  <name>  (40) 
40

>  <ligand_id>  (40) 
40

>  <original_smiles>  (40) 
[H]c1c([H])c([H])c2c(c1[H])C([H])([H])C([H])([H])C([H])([H])C2([H])N([H])C(=O)C1([H])N(C(=O)C([H])(N([H])C(=O)C([H])(N([H])C([H])([H])[H])C([H])([H])[H])C(C([H])([H])[H])(C([H])([H])[H])C([H])([H])[H])C([H])([H])c2c([H])c(OC([H])([H])C([H])([H])[N+]([H])([H])C([H])([H])C([H])([H])C([H])([H])c3c([H])c(F)c([H])c(C([H])(C([H])([H])C([H])([H])N([H])C(=O)N4C([H])([H])C([H])([H])C([H])([H])C([H])(n5nc(-c6c([H])c([H])c(Oc7c([H])c([H])c(F)c([H])c7F)c([H])c6[H])c(C(=O)N([H])[H])c5N([H])[H])C4([H])[H])[N+]([H])([H])C([H])([H])C([H])([H])N([H])[H])c3[H])c([H])c([H])c2C1([H])[H]

>  <smiles>  (40) 
[H]c1c([H])c([H])c2c(c1[H])C([H])([H])C([H])([H])C([H])([H])C2([H])N([H])C(=O)C1([H])N(C(=O)C([H])(N([H])C(=O)C([H])(N([H])C([H])([H])[H])C([H])([H])[H])C(C([H])([H])[H])(C([H])([H])[H])C([H])([H])[H])C([H])([H])c2c([H])c(OC([H])([H])C([H])([H])[N+]([H])([H])C([H])([H])C([H])([H])C([H])([H])c3c([H])c(F)c([H])c(C([H])(C([H])([H])C([H])([H])N([H])C(=O)N4C([H])([H])C([H])([H])C([H])([H])C([H])(n5nc(-c6c([H])c([H])c(Oc7c([H])c([H])c(F)c([H])c7F)c([H])c6[H])c(C(=O)N([H])[H])c5N([H])[H])C4([H])[H])[N+]([H])([H])C([H])([H])C([H])([H])N([H])[H])c3[H])c([H])c([H])c2C1([H])[H]

$$$$
41:0:0
     RDKit          3D

 99107  0  0  1  0  0  0  0  0999 V2000
  -26.7320  -22.4380   21.2560 C   0  0  0  0  0  1  0  0  0  0  0  0
  -28.0230  -23.2920   21.2080 C   0  0  2  0  0  0  0  0  0  0  0  0
  -30.8510  -22.7960   18.6130 C   0  0  0  0  0  3  0  0  0  0  0  0
  -30.9270  -21.3990   18.5380 C   0  0  0  0  0  3  0  0  0  0  0  0
  -29.9340  -23.3970   19.4870 C   0  0  0  0  0  3  0  0  0  0  0  0
  -29.2030  -21.1970   20.2360 C   0  0  0  0  0  3  0  0  0  0  0  0
  -30.1030  -20.5750   19.3380 C   0  0  0  0  0  0  0  0  0  0  0  0
  -29.0810  -22.6160   20.3030 C   0  0  0  0  0  0  0  0  0  0  0  0
  -30.5640  -18.3650   20.3890 C   0  0  0  0  0  2  0  0  0  0  0  0
  -30.3120  -19.1030   19.2810 C   0  0  0  0  0  3  0  0  0  0  0  0
  -30.2480  -18.4730   17.9310 C   0  0  0  0  0  3  0  0  0  0  0  0
  -29.9530  -19.0600   16.8860 O   0  0  0  0  0  0  0  0  0  0  0  0
  -31.1870  -16.9720   20.4230 C   0  0  0  0  0  2  0  0  0  0  0  0
  -30.9390  -14.5670   20.3990 C   0  0  0  0  0  0  0  0  0  0  0  0
  -30.5160  -12.4050   19.3380 C   0  0  0  0  0  2  0  0  0  0  0  0
  -29.6040  -12.6050   18.1140 C   0  0  0  0  0  2  0  0  0  0  0  0
  -28.1280  -12.4960   18.5390 C   0  0  0  0  0  2  0  0  0  0  0  0
  -27.7860  -13.3580   19.7880 C   0  0  0  0  0  3  0  0  0  0  0  0
  -28.8470  -13.2200   20.9060 C   0  0  0  0  0  2  0  0  0  0  0  0
  -30.1660  -13.4540   20.3080 N   0  0  0  0  0  0  0  0  0  0  0  0
  -32.1200  -14.5540   20.0520 O   0  0  0  0  0  0  0  0  0  0  0  0
  -30.3560  -15.7640   20.6190 N   0  0  0  0  0  0  0  0  0  0  0  0
  -29.3700  -15.8310   20.8180 H   0  0  0  0  0  0  0  0  0  0  0  0
  -25.3930  -13.9480   20.5090 C   0  0  0  0  0  0  0  0  0  0  0  0
  -24.3230  -13.1720   20.8690 C   0  0  0  0  0  0  0  0  0  0  0  0
  -24.7840  -11.8220   20.8340 C   0  0  0  0  0  0  0  0  0  0  0  0
  -26.4380  -13.0720   20.2760 N   0  0  0  0  0  0  0  0  0  0  0  0
  -26.0790  -11.7860   20.5330 N   0  0  0  0  0  0  0  0  0  0  0  0
  -24.0550  -10.5580   21.0140 C   0  0  0  0  0  0  0  0  0  0  0  0
  -24.4490   -9.6110   21.9850 C   0  0  0  0  0  3  0  0  0  0  0  0
  -23.7200   -8.4140   22.1540 C   0  0  0  0  0  3  0  0  0  0  0  0
  -22.5830   -8.1560   21.3530 C   0  0  0  0  0  0  0  0  0  0  0  0
  -22.2070   -9.0930   20.3740 C   0  0  0  0  0  3  0  0  0  0  0  0
  -22.9380  -10.2810   20.2020 C   0  0  0  0  0  3  0  0  0  0  0  0
  -21.8290   -7.0120   21.4280 O   0  0  0  0  0  0  0  0  0  0  0  0
  -21.6960   -6.3130   22.6010 C   0  0  0  0  0  0  0  0  0  0  0  0
  -21.1170   -6.8920   23.7520 C   0  0  0  0  0  3  0  0  0  0  0  0
  -20.9350   -6.1180   24.9140 C   0  0  0  0  0  3  0  0  0  0  0  0
  -21.3240   -4.7650   24.9290 C   0  0  0  0  0  0  0  0  0  0  0  0
  -21.8950   -4.1850   23.7830 C   0  0  0  0  0  3  0  0  0  0  0  0
  -22.0780   -4.9560   22.6220 C   0  0  0  0  0  0  0  0  0  0  0  0
  -22.6100   -4.3860   21.5130 F   0  0  0  0  0  0  0  0  0  0  0  0
  -21.1430   -4.0190   26.0440 F   0  0  0  0  0  0  0  0  0  0  0  0
  -22.9250  -13.6510   21.1330 C   0  0  0  0  0  0  0  0  0  0  0  0
  -22.1900  -12.9500   21.9900 N   0  0  0  0  0  0  0  0  0  0  0  0
  -22.4930  -14.6800   20.6190 O   0  0  0  0  0  0  0  0  0  0  0  0
  -22.5530  -12.1160   22.4290 H   0  0  0  0  0  0  0  0  0  0  0  0
  -21.2530  -13.2540   22.2100 H   0  0  0  0  0  0  0  0  0  0  0  0
  -25.5520  -15.3210   20.3400 N   0  0  0  0  0  0  0  0  0  0  0  0
  -24.7800  -15.9700   20.4550 H   0  0  0  0  0  0  0  0  0  0  0  0
  -26.4030  -15.7710   20.0280 H   0  0  0  0  0  0  0  0  0  0  0  0
  -28.5590  -23.4210   22.5740 N   0  0  0  0  0  4  0  0  0  0  0  0
  -28.8780  -22.5370   22.9280 H   0  0  0  0  0  0  0  0  0  0  0  0
  -27.8680  -23.7920   23.2020 H   0  0  0  0  0  0  0  0  0  0  0  0
  -29.3400  -24.0530   22.5480 H   0  0  0  0  0  0  0  0  0  0  0  0
  -27.6030  -24.7060   20.6740 C   0  0  0  0  0  2  0  0  0  0  0  0
  -28.4360  -25.8400   21.1130 N   0  0  0  0  0  0  0  0  0  0  0  0
  -27.9690  -26.3130   21.8820 H   0  0  0  0  0  0  0  0  0  0  0  0
  -28.4650  -26.8220   20.0310 O   0  0  0  0  0  0  0  0  0  0  0  0
  -24.6990  -31.8940   23.3390 C   0  0  0  0  0  0  0  0  0  0  0  0
  -27.3450  -27.6160   20.0550 C   0  0  0  0  0  0  0  0  0  0  0  0
  -23.5120  -30.5990   21.6000 C   0  0  0  0  0  3  0  0  0  0  0  0
  -24.9780  -29.1440   20.1110 C   0  0  0  0  0  0  0  0  0  0  0  0
  -26.0440  -30.9500   21.4640 C   0  0  0  0  0  2  0  0  0  0  0  0
  -26.1300  -29.6170   20.7530 C   0  0  0  0  0  0  0  0  0  0  0  0
  -27.3230  -28.8550   20.7280 C   0  0  0  0  0  3  0  0  0  0  0  0
  -26.1860  -27.1730   19.3880 C   0  0  0  0  0  3  0  0  0  0  0  0
  -24.9980  -27.9190   19.4330 C   0  0  0  0  0  3  0  0  0  0  0  0
  -23.7400  -30.0060   20.1860 C   0  0  0  0  0  2  0  0  0  0  0  0
  -24.7690  -31.1570   22.1940 N   0  0  0  0  0  0  0  0  0  0  0  0
  -23.6090  -32.1440   23.8760 O   0  0  0  0  0  0  0  0  0  0  0  0
  -22.8440  -29.5240   22.4860 C   0  0  0  0  0  0  0  0  0  0  0  0
  -21.5210  -29.3530   22.3250 N   0  0  0  0  0  0  0  0  0  0  0  0
  -23.5110  -28.8490   23.2710 O   0  0  0  0  0  0  0  0  0  0  0  0
  -21.0440  -29.9660   21.6800 H   0  0  0  0  0  0  0  0  0  0  0  0
  -18.1320  -28.1440   22.6880 C   0  0  0  0  0  0  0  0  0  0  0  0
  -20.6850  -28.3740   23.0220 C   0  0  0  0  0  3  0  0  0  0  0  0
  -20.7920  -26.9770   22.3670 C   0  0  0  0  0  2  0  0  0  0  0  0
  -19.7070  -26.7160   21.3170 C   0  0  0  0  0  2  0  0  0  0  0  0
  -18.3150  -26.8320   21.9440 C   0  0  0  0  0  2  0  0  0  0  0  0
  -19.2470  -28.8760   23.1800 C   0  0  0  0  0  0  0  0  0  0  0  0
  -19.0220  -30.1060   23.8370 C   0  0  0  0  0  3  0  0  0  0  0  0
  -17.7170  -30.6000   24.0140 C   0  0  0  0  0  3  0  0  0  0  0  0
  -16.6170  -29.8680   23.5340 C   0  0  0  0  0  3  0  0  0  0  0  0
  -16.8260  -28.6440   22.8750 C   0  0  0  0  0  3  0  0  0  0  0  0
  -25.9780  -32.4780   24.0130 C   0  0  0  0  0  3  0  0  0  0  0  0
  -26.4420  -31.6620   25.2810 C   0  0  1  0  0  0  0  0  0  0  0  0
  -25.3110  -31.4220   26.3080 C   0  0  0  0  0  1  0  0  0  0  0  0
  -27.0120  -30.2820   24.8670 C   0  0  0  0  0  1  0  0  0  0  0  0
  -27.5860  -32.4200   25.9950 C   0  0  0  0  0  1  0  0  0  0  0  0
  -25.6920  -33.8740   24.3690 N   0  0  0  0  0  0  0  0  0  0  0  0
  -26.0870  -34.9360   23.6520 C   0  0  0  0  0  0  0  0  0  0  0  0
  -26.8020  -34.8410   22.6500 O   0  0  0  0  0  0  0  0  0  0  0  0
  -25.0710  -34.0260   25.1510 H   0  0  0  0  0  0  0  0  0  0  0  0
  -24.4430  -36.7950   23.2500 C   0  0  0  0  0  1  0  0  0  0  0  0
  -25.6160  -36.3250   24.1260 C   0  0  0  0  0  3  0  0  0  0  0  0
  -27.7120  -37.1140   25.1310 C   0  0  0  0  0  1  0  0  0  0  0  0
  -26.6890  -37.3440   24.1140 N   0  0  0  0  0  0  0  0  0  0  0  0
  -26.3020  -38.2730   24.2610 H   0  0  0  0  0  0  0  0  0  0  0  0
  2  1  1  1
  2 52  1  0
  3  5  1  0
  4  3  2  0
  4  7  1  0
  5  8  2  0
  6  8  1  0
  7  6  2  0
  8  2  1  0
  9 13  1  0
 10 11  1  0
 10  7  1  0
 10  9  1  0
 12 11  2  0
 13 22  1  0
 14 22  1  0
 15 20  1  0
 16 17  1  0
 16 15  1  0
 18 17  1  0
 18 27  1  0
 18 19  1  0
 20 14  1  0
 20 19  1  0
 21 14  2  0
 22 23  1  0
 24 25  2  0
 25 44  1  0
 26 25  1  0
 26 29  1  0
 27 24  1  0
 27 28  1  0
 28 26  2  0
 29 30  1  0
 30 31  2  0
 32 35  1  0
 32 31  1  0
 33 32  2  0
 34 33  1  0
 34 29  2  0
 35 36  1  0
 36 41  2  0
 36 37  1  0
 37 38  2  0
 38 39  1  0
 39 43  1  0
 40 39  2  0
 41 40  1  0
 42 41  1  0
 44 45  1  0
 45 48  1  0
 45 47  1  0
 46 44  2  0
 49 50  1  0
 49 24  1  0
 51 49  1  0
 52 53  1  0
 52 54  1  0
 55 52  1  0
 56 57  1  0
 56  2  1  0
 57 58  1  0
 59 61  1  0
 59 57  1  0
 60 71  2  0
 61 66  1  0
 62 70  1  0
 62 72  1  0
 63 69  1  0
 63 65  1  0
 64 70  1  0
 65 64  1  0
 66 65  2  0
 67 68  1  0
 67 61  2  0
 68 63  2  0
 69 62  1  0
 70 60  1  0
 72 74  2  0
 73 72  1  0
 75 73  1  0
 76 85  2  0
 76 81  1  0
 77 73  1  0
 77 81  1  0
 78 77  1  0
 79 80  1  0
 79 78  1  0
 80 76  1  0
 81 82  2  0
 82 83  1  0
 84 83  2  0
 85 84  1  0
 86 60  1  0
 86 91  1  0
 86 87  1  0
 87 90  1  1
 87 88  1  0
 89 87  1  0
 91 94  1  0
 92 96  1  0
 92 91  1  0
 93 92  2  0
 96 95  1  0
 98 96  1  0
 98 99  1  0
 98 97  1  0
M  ISO  4  14 100  22 100  57 101  59 101
M  END
>  <TORSDO>  (41) 
F 23

>  <SCORE>  (41) 
-12.706

>  <name>  (41) 
41

>  <ligand_id>  (41) 
41

>  <original_smiles>  (41) 
[H]C(=O)C(=C([H])C([H])([H])N([H])C(=O)N1C([H])([H])C([H])([H])C([H])([H])C([H])(n2nc(-c3c([H])c([H])c(Oc4c([H])c([H])c(F)c([H])c4F)c([H])c3[H])c(C(=O)N([H])[H])c2N([H])[H])C1([H])[H])c1c([H])c([H])c([H])c(C(C([H])([H])[H])(C([H])([H])N([H])Oc2c([H])c([H])c3c(c2[H])C([H])([H])N(C(=O)C([H])(N([H])C(=O)C([H])(N([H])C([H])([H])[H])C([H])([H])[H])C(C([H])([H])[H])(C([H])([H])[H])C([H])([H])[H])C([H])(C(=O)N([H])C2([H])c4c([H])c([H])c([H])c([H])c4C([H])([H])C([H])([H])C2([H])[H])C3([H])[H])[N+]([H])([H])[H])c1[H]

>  <smiles>  (41) 
[H]C(=O)C(=C([H])C([H])([H])N([H])C(=O)N1C([H])([H])C([H])([H])C([H])([H])C([H])(n2nc(-c3c([H])c([H])c(Oc4c([H])c([H])c(F)c([H])c4F)c([H])c3[H])c(C(=O)N([H])[H])c2N([H])[H])C1([H])[H])c1c([H])c([H])c([H])c(C(C([H])([H])[H])(C([H])([H])N([H])Oc2c([H])c([H])c3c(c2[H])C([H])([H])N(C(=O)C([H])(N([H])C(=O)C([H])(N([H])C([H])([H])[H])C([H])([H])[H])C(C([H])([H])[H])(C([H])([H])[H])C([H])([H])[H])C([H])(C(=O)N([H])C2([H])c4c([H])c([H])c([H])c([H])c4C([H])([H])C([H])([H])C2([H])[H])C3([H])[H])[N+]([H])([H])[H])c1[H]

$$$$
42:0:0
     RDKit          3D

102110  0  0  1  0  0  0  0  0999 V2000
  -31.0380  -23.0800   21.9310 C   0  0  0  0  0  3  0  0  0  0  0  0
  -29.3410  -21.5970   21.0130 C   0  0  0  0  0  3  0  0  0  0  0  0
  -31.2790  -22.1620   22.9730 C   0  0  0  0  0  3  0  0  0  0  0  0
  -29.5560  -20.6960   22.0700 C   0  0  0  0  0  3  0  0  0  0  0  0
  -30.0550  -22.8120   20.9540 C   0  0  0  0  0  0  0  0  0  0  0  0
  -30.5240  -20.9680   23.0590 C   0  0  0  0  0  0  0  0  0  0  0  0
  -29.6840  -20.2660   25.3300 C   0  0  0  0  0  1  0  0  0  0  0  0
  -30.7240  -20.0010   24.2240 C   0  0  0  0  0  3  0  0  0  0  0  0
  -30.6610  -18.5710   23.8420 N   0  0  0  0  0  4  0  0  0  0  0  0
  -31.1260  -18.0440   24.5650 H   0  0  0  0  0  0  0  0  0  0  0  0
  -29.6890  -18.3110   23.8690 H   0  0  0  0  0  0  0  0  0  0  0  0
  -31.2090  -18.1410   22.5350 C   0  0  0  0  0  2  0  0  0  0  0  0
  -30.7560  -16.6870   22.2660 C   0  0  0  0  0  2  0  0  0  0  0  0
  -31.2660  -16.0420   20.9630 C   0  0  0  0  0  2  0  0  0  0  0  0
  -30.7050  -14.0080   19.6240 C   0  0  0  0  0  0  0  0  0  0  0  0
  -30.1840  -11.8200   18.6150 C   0  0  0  0  0  2  0  0  0  0  0  0
  -29.1250  -11.9180   17.5030 C   0  0  0  0  0  2  0  0  0  0  0  0
  -27.7190  -11.7820   18.1020 C   0  0  0  0  0  2  0  0  0  0  0  0
  -27.4920  -12.7580   19.2850 C   0  0  0  0  0  3  0  0  0  0  0  0
  -28.6550  -12.6940   20.3040 C   0  0  0  0  0  2  0  0  0  0  0  0
  -29.9380  -12.8840   19.5980 N   0  0  0  0  0  0  0  0  0  0  0  0
  -31.5690  -14.2610   18.7810 O   0  0  0  0  0  0  0  0  0  0  0  0
  -30.5470  -14.7890   20.7020 N   0  0  0  0  0  0  0  0  0  0  0  0
  -29.8530  -14.4980   21.3750 H   0  0  0  0  0  0  0  0  0  0  0  0
  -25.2290  -13.4490   20.3030 C   0  0  0  0  0  0  0  0  0  0  0  0
  -24.1800  -12.7150   20.7930 C   0  0  0  0  0  0  0  0  0  0  0  0
  -24.5700  -11.3450   20.6740 C   0  0  0  0  0  0  0  0  0  0  0  0
  -26.1950  -12.5300   19.9230 N   0  0  0  0  0  0  0  0  0  0  0  0
  -25.8060  -11.2580   20.1960 N   0  0  0  0  0  0  0  0  0  0  0  0
  -23.8140  -10.1140   20.9350 C   0  0  0  0  0  0  0  0  0  0  0  0
  -24.2730   -9.1420   21.8500 C   0  0  0  0  0  3  0  0  0  0  0  0
  -23.5210   -7.9730   22.0940 C   0  0  0  0  0  3  0  0  0  0  0  0
  -22.2910   -7.7690   21.4230 C   0  0  0  0  0  0  0  0  0  0  0  0
  -21.8470   -8.7300   20.4970 C   0  0  0  0  0  3  0  0  0  0  0  0
  -22.6020   -9.8900   20.2520 C   0  0  0  0  0  3  0  0  0  0  0  0
  -21.5050   -6.6520   21.5770 O   0  0  0  0  0  0  0  0  0  0  0  0
  -21.4460   -5.9710   22.7660 C   0  0  0  0  0  0  0  0  0  0  0  0
  -21.0540   -6.6000   23.9670 C   0  0  0  0  0  3  0  0  0  0  0  0
  -20.9420   -5.8470   25.1530 C   0  0  0  0  0  3  0  0  0  0  0  0
  -21.2120   -4.4660   25.1370 C   0  0  0  0  0  0  0  0  0  0  0  0
  -21.5960   -3.8350   23.9410 C   0  0  0  0  0  3  0  0  0  0  0  0
  -21.7110   -4.5860   22.7570 C   0  0  0  0  0  0  0  0  0  0  0  0
  -22.0630   -3.9710   21.6010 F   0  0  0  0  0  0  0  0  0  0  0  0
  -21.0960   -3.7380   26.2730 F   0  0  0  0  0  0  0  0  0  0  0  0
  -22.8580  -13.2480   21.2620 C   0  0  0  0  0  0  0  0  0  0  0  0
  -22.2310  -12.5840   22.2280 N   0  0  0  0  0  0  0  0  0  0  0  0
  -22.3930  -14.2920   20.8080 O   0  0  0  0  0  0  0  0  0  0  0  0
  -22.6200  -11.7380   22.6180 H   0  0  0  0  0  0  0  0  0  0  0  0
  -21.3500  -12.9310   22.5800 H   0  0  0  0  0  0  0  0  0  0  0  0
  -25.4240  -14.8150   20.1310 N   0  0  0  0  0  0  0  0  0  0  0  0
  -24.6760  -15.4790   20.3060 H   0  0  0  0  0  0  0  0  0  0  0  0
  -26.2280  -15.2380   19.6850 H   0  0  0  0  0  0  0  0  0  0  0  0
  -29.7210  -23.8520   19.8830 C   0  0  0  0  0  3  0  0  0  0  0  0
  -30.0440  -23.3880   18.4440 C   0  0  0  0  0  2  0  0  0  0  0  0
  -31.5110  -22.9310   18.2610 C   0  0  0  0  0  2  0  0  0  0  0  0
  -32.0020  -23.0870   16.8760 N   0  0  0  0  0  4  0  0  0  0  0  0
  -31.3720  -22.6800   16.2050 H   0  0  0  0  0  0  0  0  0  0  0  0
  -32.8970  -22.6410   16.7800 H   0  0  0  0  0  0  0  0  0  0  0  0
  -32.1260  -24.0570   16.6480 H   0  0  0  0  0  0  0  0  0  0  0  0
  -28.2750  -24.3740   20.0490 C   0  0  0  0  0  2  0  0  0  0  0  0
  -28.1890  -25.5510   21.0370 C   0  0  0  0  0  2  0  0  0  0  0  0
  -28.2890  -26.7870   20.3350 O   0  0  0  0  0  0  0  0  0  0  0  0
  -24.5310  -31.9890   23.3180 C   0  0  0  0  0  0  0  0  0  0  0  0
  -27.1180  -27.5000   20.3060 C   0  0  0  0  0  0  0  0  0  0  0  0
  -23.2950  -30.5540   21.7260 C   0  0  0  0  0  3  0  0  0  0  0  0
  -24.7210  -28.9730   20.3260 C   0  0  0  0  0  0  0  0  0  0  0  0
  -25.8170  -30.9070   21.4830 C   0  0  0  0  0  2  0  0  0  0  0  0
  -25.8850  -29.5250   20.8730 C   0  0  0  0  0  0  0  0  0  0  0  0
  -27.0920  -28.7970   20.8520 C   0  0  0  0  0  3  0  0  0  0  0  0
  -25.9420  -26.9480   19.7540 C   0  0  0  0  0  3  0  0  0  0  0  0
  -24.7400  -27.6810   19.7690 C   0  0  0  0  0  3  0  0  0  0  0  0
  -23.4810  -29.8360   20.3630 C   0  0  0  0  0  2  0  0  0  0  0  0
  -24.5660  -31.1630   22.2340 N   0  0  0  0  0  0  0  0  0  0  0  0
  -23.4580  -32.2800   23.8660 O   0  0  0  0  0  0  0  0  0  0  0  0
  -22.6540  -29.5610   22.7180 C   0  0  0  0  0  0  0  0  0  0  0  0
  -21.3450  -29.3150   22.5550 N   0  0  0  0  0  0  0  0  0  0  0  0
  -23.3330  -29.0100   23.5900 O   0  0  0  0  0  0  0  0  0  0  0  0
  -20.8580  -29.8060   21.8180 H   0  0  0  0  0  0  0  0  0  0  0  0
  -18.0200  -27.9640   22.9580 C   0  0  0  0  0  0  0  0  0  0  0  0
  -20.5390  -28.3910   23.3510 C   0  0  0  0  0  3  0  0  0  0  0  0
  -20.7530  -26.9310   22.8910 C   0  0  0  0  0  2  0  0  0  0  0  0
  -19.7330  -26.4720   21.8450 C   0  0  0  0  0  2  0  0  0  0  0  0
  -18.3100  -26.5820   22.3980 C   0  0  0  0  0  2  0  0  0  0  0  0
  -19.0680  -28.8190   23.3910 C   0  0  0  0  0  0  0  0  0  0  0  0
  -18.7480  -30.1070   23.8710 C   0  0  0  0  0  3  0  0  0  0  0  0
  -17.4090  -30.5430   23.9260 C   0  0  0  0  0  3  0  0  0  0  0  0
  -16.3750  -29.6870   23.5120 C   0  0  0  0  0  3  0  0  0  0  0  0
  -16.6800  -28.4000   23.0340 C   0  0  0  0  0  3  0  0  0  0  0  0
  -25.8290  -32.6270   23.9040 C   0  0  0  0  0  3  0  0  0  0  0  0
  -25.5230  -34.0230   24.2390 N   0  0  0  0  0  0  0  0  0  0  0  0
  -25.8270  -35.0750   23.4650 C   0  0  0  0  0  0  0  0  0  0  0  0
  -26.4710  -34.9730   22.4190 O   0  0  0  0  0  0  0  0  0  0  0  0
  -24.9510  -34.1770   25.0560 H   0  0  0  0  0  0  0  0  0  0  0  0
  -24.0740  -36.8470   23.1500 C   0  0  0  0  0  1  0  0  0  0  0  0
  -25.3410  -36.4610   23.9290 C   0  0  0  0  0  3  0  0  0  0  0  0
  -27.4870  -37.3700   24.6990 C   0  0  0  0  0  1  0  0  0  0  0  0
  -26.3600  -37.5230   23.7830 N   0  0  0  0  0  0  0  0  0  0  0  0
  -25.9490  -38.4400   23.9340 H   0  0  0  0  0  0  0  0  0  0  0  0
  -26.3850  -31.8600   25.1670 C   0  0  1  0  0  0  0  0  0  0  0  0
  -25.3150  -31.5960   26.2520 C   0  0  0  0  0  1  0  0  0  0  0  0
  -26.9860  -30.4960   24.7540 C   0  0  0  0  0  1  0  0  0  0  0  0
  -27.5310  -32.6760   25.8120 C   0  0  0  0  0  1  0  0  0  0  0  0
  1  3  1  0
  2  4  2  0
  3  6  2  0
  4  6  1  0
  5  2  1  0
  5  1  2  0
  6  8  1  0
  8  7  1  0
  9 11  1  0
  9  8  1  0
  9 10  1  0
 12  9  1  0
 13 12  1  0
 14 13  1  0
 15 23  1  0
 16 21  1  0
 17 18  1  0
 17 16  1  0
 19 18  1  0
 19 28  1  0
 19 20  1  0
 21 15  1  0
 21 20  1  0
 22 15  2  0
 23 14  1  0
 23 24  1  0
 25 26  2  0
 26 45  1  0
 27 26  1  0
 27 30  1  0
 28 29  1  0
 28 25  1  0
 29 27  2  0
 30 31  1  0
 31 32  2  0
 33 36  1  0
 33 32  1  0
 34 33  2  0
 35 34  1  0
 35 30  2  0
 36 37  1  0
 37 38  1  0
 38 39  2  0
 40 39  1  0
 40 44  1  0
 41 40  2  0
 42 37  2  0
 42 41  1  0
 43 42  1  0
 45 46  1  0
 46 49  1  0
 46 48  1  0
 47 45  2  0
 50 25  1  0
 50 51  1  0
 52 50  1  0
 53 54  1  0
 53 60  1  0
 53  5  1  0
 55 54  1  0
 56 55  1  0
 57 56  1  0
 58 56  1  0
 59 56  1  0
 60 61  1  0
 62 61  1  0
 63 74  2  0
 64 62  1  0
 64 69  1  0
 65 73  1  0
 65 75  1  0
 66 72  1  0
 66 68  1  0
 67 73  1  0
 68 67  1  0
 69 68  2  0
 70 71  1  0
 70 64  2  0
 71 66  2  0
 72 65  1  0
 73 63  1  0
 75 77  2  0
 76 75  1  0
 78 76  1  0
 79 88  2  0
 79 84  1  0
 80 76  1  0
 80 84  1  0
 81 80  1  0
 82 83  1  0
 82 81  1  0
 83 79  1  0
 84 85  2  0
 85 86  1  0
 87 86  2  0
 88 87  1  0
 89 63  1  0
 89 90  1  0
 89 99  1  0
 90 93  1  0
 91 95  1  0
 91 90  1  0
 92 91  2  0
 95 94  1  0
 97 95  1  0
 97 98  1  0
 97 96  1  0
 99102  1  1
 99100  1  0
101 99  1  0
M  ISO  4  15 100  23 100  61 101  62 101
M  END
>  <TORSDO>  (42) 
F 27

>  <SCORE>  (42) 
-8.913

>  <name>  (42) 
42

>  <ligand_id>  (42) 
42

>  <original_smiles>  (42) 
[H]c1c([H])c([H])c2c(c1[H])C([H])([H])C([H])([H])C([H])([H])C2([H])N([H])C(=O)C1([H])N(C(=O)C([H])(N([H])C(=O)C([H])(N([H])C([H])([H])[H])C([H])([H])[H])C(C([H])([H])[H])(C([H])([H])[H])C([H])([H])[H])C([H])([H])c2c([H])c(OC([H])([H])C([H])([H])C([H])(c3c([H])c([H])c(C([H])(C([H])([H])[H])[N+]([H])([H])C([H])([H])C([H])([H])C([H])([H])N([H])C(=O)N4C([H])([H])C([H])([H])C([H])([H])C([H])(n5nc(-c6c([H])c([H])c(Oc7c([H])c([H])c(F)c([H])c7F)c([H])c6[H])c(C(=O)N([H])[H])c5N([H])[H])C4([H])[H])c([H])c3[H])C([H])([H])C([H])([H])[N+]([H])([H])[H])c([H])c([H])c2C1([H])[H]

>  <smiles>  (42) 
[H]c1c([H])c([H])c2c(c1[H])C([H])([H])C([H])([H])C([H])([H])C2([H])N([H])C(=O)C1([H])N(C(=O)C([H])(N([H])C(=O)C([H])(N([H])C([H])([H])[H])C([H])([H])[H])C(C([H])([H])[H])(C([H])([H])[H])C([H])([H])[H])C([H])([H])c2c([H])c(OC([H])([H])C([H])([H])C([H])(c3c([H])c([H])c(C([H])(C([H])([H])[H])[N+]([H])([H])C([H])([H])C([H])([H])C([H])([H])N([H])C(=O)N4C([H])([H])C([H])([H])C([H])([H])C([H])(n5nc(-c6c([H])c([H])c(Oc7c([H])c([H])c(F)c([H])c7F)c([H])c6[H])c(C(=O)N([H])[H])c5N([H])[H])C4([H])[H])c([H])c3[H])C([H])([H])C([H])([H])[N+]([H])([H])[H])c([H])c([H])c2C1([H])[H]

$$$$
43:0:0
     RDKit          3D

 92 99  0  0  1  0  0  0  0  0999 V2000
  -30.0490  -21.0490   21.8630 C   0  0  0  0  0  0  0  0  0  0  0  0
  -29.8370  -22.1410   21.1140 N   0  0  0  0  0  0  0  0  0  0  0  0
  -29.7220  -20.9980   23.0520 O   0  0  0  0  0  0  0  0  0  0  0  0
  -30.1250  -22.1110   20.1440 H   0  0  0  0  0  0  0  0  0  0  0  0
  -30.7250  -19.8450   21.1900 C   0  0  0  0  0  2  0  0  0  0  0  0
  -30.7090  -17.4770   22.0880 C   0  0  0  0  0  0  0  0  0  0  0  0
  -31.0130  -18.7790   22.1590 N   0  0  0  0  0  0  0  0  0  0  0  0
  -30.9820  -16.7230   23.0240 O   0  0  0  0  0  0  0  0  0  0  0  0
  -31.4160  -19.1020   23.0270 H   0  0  0  0  0  0  0  0  0  0  0  0
  -30.0140  -16.9260   20.8390 C   0  0  0  0  0  2  0  0  0  0  0  0
  -30.4850  -14.5330   20.3040 C   0  0  0  0  0  0  0  0  0  0  0  0
  -30.1580  -12.4480   19.0390 C   0  0  0  0  0  2  0  0  0  0  0  0
  -29.1550  -12.7260   17.9000 C   0  0  0  0  0  2  0  0  0  0  0  0
  -27.7030  -12.5570   18.3910 C   0  0  0  0  0  2  0  0  0  0  0  0
  -27.4260  -13.3100   19.7190 C   0  0  0  0  0  3  0  0  0  0  0  0
  -28.5330  -13.0080   20.7570 C   0  0  0  0  0  2  0  0  0  0  0  0
  -29.8330  -13.3510   20.1510 N   0  0  0  0  0  0  0  0  0  0  0  0
  -31.5710  -14.7860   19.7740 O   0  0  0  0  0  0  0  0  0  0  0  0
  -29.7620  -15.4850   20.9050 N   0  0  0  0  0  0  0  0  0  0  0  0
  -28.9000  -15.1940   21.3390 H   0  0  0  0  0  0  0  0  0  0  0  0
  -25.0420  -13.8630   20.5230 C   0  0  0  0  0  0  0  0  0  0  0  0
  -24.0040  -13.0640   20.9230 C   0  0  0  0  0  0  0  0  0  0  0  0
  -24.4900  -11.7230   20.8530 C   0  0  0  0  0  0  0  0  0  0  0  0
  -26.0950  -13.0060   20.2410 N   0  0  0  0  0  0  0  0  0  0  0  0
  -25.7670  -11.7130   20.4930 N   0  0  0  0  0  0  0  0  0  0  0  0
  -23.7980  -10.4430   21.0510 C   0  0  0  0  0  0  0  0  0  0  0  0
  -24.2810   -9.4770   21.9610 C   0  0  0  0  0  3  0  0  0  0  0  0
  -23.5870   -8.2610   22.1480 C   0  0  0  0  0  3  0  0  0  0  0  0
  -22.3990   -8.0040   21.4250 C   0  0  0  0  0  0  0  0  0  0  0  0
  -21.9350   -8.9600   20.5050 C   0  0  0  0  0  3  0  0  0  0  0  0
  -22.6290  -10.1670   20.3160 C   0  0  0  0  0  3  0  0  0  0  0  0
  -21.6730   -6.8400   21.5230 O   0  0  0  0  0  0  0  0  0  0  0  0
  -21.6750   -6.0860   22.6690 C   0  0  0  0  0  0  0  0  0  0  0  0
  -21.2780   -6.6200   23.9140 C   0  0  0  0  0  3  0  0  0  0  0  0
  -21.2280   -5.7900   25.0520 C   0  0  0  0  0  3  0  0  0  0  0  0
  -21.5650   -4.4270   24.9470 C   0  0  0  0  0  0  0  0  0  0  0  0
  -21.9550   -3.8920   23.7060 C   0  0  0  0  0  3  0  0  0  0  0  0
  -22.0070   -4.7190   22.5700 C   0  0  0  0  0  0  0  0  0  0  0  0
  -22.3630   -4.1940   21.3730 F   0  0  0  0  0  0  0  0  0  0  0  0
  -21.5090   -3.6290   26.0370 F   0  0  0  0  0  0  0  0  0  0  0  0
  -22.6090  -13.5090   21.2580 C   0  0  0  0  0  0  0  0  0  0  0  0
  -21.9330  -12.7870   22.1450 N   0  0  0  0  0  0  0  0  0  0  0  0
  -22.1280  -14.5300   20.7690 O   0  0  0  0  0  0  0  0  0  0  0  0
  -22.3340  -11.9610   22.5620 H   0  0  0  0  0  0  0  0  0  0  0  0
  -20.9990  -13.0650   22.4110 H   0  0  0  0  0  0  0  0  0  0  0  0
  -25.1730  -15.2390   20.3600 N   0  0  0  0  0  0  0  0  0  0  0  0
  -24.3980  -15.8760   20.5070 H   0  0  0  0  0  0  0  0  0  0  0  0
  -25.9980  -15.6990   19.9960 H   0  0  0  0  0  0  0  0  0  0  0  0
  -29.2140  -23.3700   21.6110 C   0  0  0  0  0  2  0  0  0  0  0  0
  -29.1990  -24.5060   20.5660 C   0  0  0  0  0  2  0  0  0  0  0  0
  -28.4830  -25.7620   21.0980 C   0  0  0  0  0  2  0  0  0  0  0  0
  -28.4610  -26.8080   20.1240 O   0  0  0  0  0  0  0  0  0  0  0  0
  -24.6120  -31.9250   23.2300 C   0  0  0  0  0  0  0  0  0  0  0  0
  -27.2980  -27.5360   20.1360 C   0  0  0  0  0  0  0  0  0  0  0  0
  -23.4170  -30.5190   21.5800 C   0  0  0  0  0  3  0  0  0  0  0  0
  -24.8850  -28.9980   20.1520 C   0  0  0  0  0  0  0  0  0  0  0  0
  -25.9370  -30.9070   21.3810 C   0  0  0  0  0  2  0  0  0  0  0  0
  -26.0370  -29.5390   20.7410 C   0  0  0  0  0  0  0  0  0  0  0  0
  -27.2480  -28.8150   20.7300 C   0  0  0  0  0  3  0  0  0  0  0  0
  -26.1350  -27.0000   19.5450 C   0  0  0  0  0  3  0  0  0  0  0  0
  -24.9290  -27.7270   19.5520 C   0  0  0  0  0  3  0  0  0  0  0  0
  -23.6320  -29.8430   20.1990 C   0  0  0  0  0  2  0  0  0  0  0  0
  -24.6730  -31.1310   22.1230 N   0  0  0  0  0  0  0  0  0  0  0  0
  -23.5300  -32.1870   23.7710 O   0  0  0  0  0  0  0  0  0  0  0  0
  -22.7740  -29.4900   22.5380 C   0  0  0  0  0  0  0  0  0  0  0  0
  -21.4520  -29.2970   22.4070 N   0  0  0  0  0  0  0  0  0  0  0  0
  -23.4620  -28.8680   23.3520 O   0  0  0  0  0  0  0  0  0  0  0  0
  -20.9590  -29.8520   21.7200 H   0  0  0  0  0  0  0  0  0  0  0  0
  -18.0870  -28.0750   22.8900 C   0  0  0  0  0  0  0  0  0  0  0  0
  -20.6410  -28.3510   23.1730 C   0  0  0  0  0  3  0  0  0  0  0  0
  -20.7570  -26.9230   22.5920 C   0  0  0  0  0  2  0  0  0  0  0  0
  -19.6620  -26.5950   21.5730 C   0  0  0  0  0  2  0  0  0  0  0  0
  -18.2770  -26.7280   22.2110 C   0  0  0  0  0  2  0  0  0  0  0  0
  -19.1980  -28.8440   23.3260 C   0  0  0  0  0  0  0  0  0  0  0  0
  -18.9680  -30.1060   23.9180 C   0  0  0  0  0  3  0  0  0  0  0  0
  -17.6590  -30.5970   24.0780 C   0  0  0  0  0  3  0  0  0  0  0  0
  -16.5630  -29.8240   23.6580 C   0  0  0  0  0  3  0  0  0  0  0  0
  -16.7770  -28.5660   23.0690 C   0  0  0  0  0  3  0  0  0  0  0  0
  -25.8940  -32.5620   23.8520 C   0  0  0  0  0  3  0  0  0  0  0  0
  -25.5780  -33.9570   24.1870 N   0  0  0  0  0  0  0  0  0  0  0  0
  -25.9110  -35.0130   23.4340 C   0  0  0  0  0  0  0  0  0  0  0  0
  -26.5890  -34.9190   22.4070 O   0  0  0  0  0  0  0  0  0  0  0  0
  -24.9770  -34.1030   24.9840 H   0  0  0  0  0  0  0  0  0  0  0  0
  -24.1800  -36.8000   23.0680 C   0  0  0  0  0  1  0  0  0  0  0  0
  -25.4120  -36.3970   23.8940 C   0  0  0  0  0  3  0  0  0  0  0  0
  -27.5330  -37.2820   24.7550 C   0  0  0  0  0  1  0  0  0  0  0  0
  -26.4420  -37.4540   23.8000 N   0  0  0  0  0  0  0  0  0  0  0  0
  -26.0310  -38.3720   23.9480 H   0  0  0  0  0  0  0  0  0  0  0  0
  -26.4210  -31.7870   25.1220 C   0  0  1  0  0  0  0  0  0  0  0  0
  -25.3330  -31.5340   26.1910 C   0  0  0  0  0  1  0  0  0  0  0  0
  -27.0130  -30.4170   24.7160 C   0  0  0  0  0  1  0  0  0  0  0  0
  -27.5680  -32.5850   25.7850 C   0  0  0  0  0  1  0  0  0  0  0  0
  1  3  2  0
  2 49  1  0
  2  1  1  0
  4  2  1  0
  5  1  1  0
  5  7  1  0
  6  7  1  0
  6  8  2  0
  7  9  1  0
 10 19  1  0
 10  6  1  0
 11 19  1  0
 12 17  1  0
 13 14  1  0
 13 12  1  0
 15 14  1  0
 15 24  1  0
 15 16  1  0
 17 11  1  0
 17 16  1  0
 18 11  2  0
 19 20  1  0
 21 22  2  0
 22 41  1  0
 23 22  1  0
 23 26  1  0
 24 25  1  0
 24 21  1  0
 25 23  2  0
 26 27  1  0
 27 28  2  0
 29 32  1  0
 29 28  1  0
 30 29  2  0
 31 30  1  0
 31 26  2  0
 32 33  1  0
 33 34  1  0
 34 35  2  0
 36 35  1  0
 36 40  1  0
 37 36  2  0
 38 33  2  0
 38 37  1  0
 39 38  1  0
 41 42  1  0
 42 45  1  0
 42 44  1  0
 43 41  2  0
 46 47  1  0
 46 21  1  0
 48 46  1  0
 50 51  1  0
 50 49  1  0
 52 54  1  0
 52 51  1  0
 53 64  2  0
 54 59  1  0
 55 63  1  0
 55 65  1  0
 56 62  1  0
 56 58  1  0
 57 63  1  0
 58 57  1  0
 59 58  2  0
 60 61  1  0
 60 54  2  0
 61 56  2  0
 62 55  1  0
 63 53  1  0
 65 67  2  0
 66 65  1  0
 68 66  1  0
 69 78  2  0
 69 74  1  0
 70 66  1  0
 70 74  1  0
 71 70  1  0
 72 73  1  0
 72 71  1  0
 73 69  1  0
 74 75  2  0
 75 76  1  0
 77 76  2  0
 78 77  1  0
 79 53  1  0
 79 80  1  0
 79 89  1  0
 80 83  1  0
 81 85  1  0
 81 80  1  0
 82 81  2  0
 85 84  1  0
 87 85  1  0
 87 88  1  0
 87 86  1  0
 89 92  1  1
 89 90  1  0
 91 89  1  0
M  ISO  4  11 100  19 100  51 101  52 101
M  END
>  <TORSDO>  (43) 
F 22

>  <SCORE>  (43) 
-13.123

>  <name>  (43) 
43

>  <ligand_id>  (43) 
43

>  <original_smiles>  (43) 
[H]c1c([H])c([H])c2c(c1[H])C([H])([H])C([H])([H])C([H])([H])C2([H])N([H])C(=O)C1([H])N(C(=O)C([H])(N([H])C(=O)C([H])(N([H])C([H])([H])[H])C([H])([H])[H])C(C([H])([H])[H])(C([H])([H])[H])C([H])([H])[H])C([H])([H])c2c([H])c(OC([H])([H])C([H])([H])C([H])([H])N([H])C(=O)C([H])([H])N([H])C(=O)C([H])([H])N([H])C(=O)N3C([H])([H])C([H])([H])C([H])([H])C([H])(n4nc(-c5c([H])c([H])c(Oc6c([H])c([H])c(F)c([H])c6F)c([H])c5[H])c(C(=O)N([H])[H])c4N([H])[H])C3([H])[H])c([H])c([H])c2C1([H])[H]

>  <smiles>  (43) 
[H]c1c([H])c([H])c2c(c1[H])C([H])([H])C([H])([H])C([H])([H])C2([H])N([H])C(=O)C1([H])N(C(=O)C([H])(N([H])C(=O)C([H])(N([H])C([H])([H])[H])C([H])([H])[H])C(C([H])([H])[H])(C([H])([H])[H])C([H])([H])[H])C([H])([H])c2c([H])c(OC([H])([H])C([H])([H])C([H])([H])N([H])C(=O)C([H])([H])N([H])C(=O)C([H])([H])N([H])C(=O)N3C([H])([H])C([H])([H])C([H])([H])C([H])(n4nc(-c5c([H])c([H])c(Oc6c([H])c([H])c(F)c([H])c6F)c([H])c5[H])c(C(=O)N([H])[H])c4N([H])[H])C3([H])[H])c([H])c([H])c2C1([H])[H]

$$$$
44:0:0
     RDKit          3D

105113  0  0  1  0  0  0  0  0999 V2000
  -35.1950  -24.3840   18.6270 C   0  0  0  0  0  1  0  0  0  0  0  0
  -34.4520  -24.3660   19.9710 C   0  0  0  0  0  3  0  0  0  0  0  0
  -33.5960  -22.1310   20.8270 C   0  0  0  0  0  3  0  0  0  0  0  0
  -32.2070  -23.3450   19.2390 C   0  0  0  0  0  3  0  0  0  0  0  0
  -32.6570  -21.0820   20.8440 C   0  0  0  0  0  3  0  0  0  0  0  0
  -31.2550  -22.3070   19.2720 C   0  0  0  0  0  3  0  0  0  0  0  0
  -33.3880  -23.2630   20.0110 C   0  0  0  0  0  0  0  0  0  0  0  0
  -31.4790  -21.1620   20.0670 C   0  0  0  0  0  0  0  0  0  0  0  0
  -30.8950  -19.0730   18.8260 C   0  0  0  0  0  1  0  0  0  0  0  0
  -30.5070  -19.9850   20.0110 C   0  0  0  0  0  3  0  0  0  0  0  0
  -30.4290  -19.3180   21.3400 N   0  0  0  0  0  4  0  0  0  0  0  0
  -31.3470  -19.3040   21.7550 H   0  0  0  0  0  0  0  0  0  0  0  0
  -29.8540  -19.9070   21.9230 H   0  0  0  0  0  0  0  0  0  0  0  0
  -29.8680  -17.9510   21.3880 C   0  0  0  0  0  2  0  0  0  0  0  0
  -30.9840  -16.8840   21.3800 C   0  0  0  0  0  2  0  0  0  0  0  0
  -30.8590  -14.7790   20.0640 C   0  0  0  0  0  0  0  0  0  0  0  0
  -30.4460  -12.6960   18.8090 C   0  0  0  0  0  2  0  0  0  0  0  0
  -29.4340  -12.9440   17.6790 C   0  0  0  0  0  2  0  0  0  0  0  0
  -27.9900  -12.7900   18.1980 C   0  0  0  0  0  2  0  0  0  0  0  0
  -27.7340  -13.5880   19.5060 C   0  0  0  0  0  3  0  0  0  0  0  0
  -28.8550  -13.3250   20.5350 C   0  0  0  0  0  2  0  0  0  0  0  0
  -30.1520  -13.6340   19.9020 N   0  0  0  0  0  0  0  0  0  0  0  0
  -31.8170  -15.0960   19.3480 O   0  0  0  0  0  0  0  0  0  0  0  0
  -30.4510  -15.5580   21.0720 N   0  0  0  0  0  0  0  0  0  0  0  0
  -29.6850  -15.2110   21.6340 H   0  0  0  0  0  0  0  0  0  0  0  0
  -25.4160  -14.1600   20.4680 C   0  0  0  0  0  0  0  0  0  0  0  0
  -24.3630  -13.3740   20.8540 C   0  0  0  0  0  0  0  0  0  0  0  0
  -24.7840  -12.0260   20.6420 C   0  0  0  0  0  0  0  0  0  0  0  0
  -26.4150  -13.2910   20.0600 N   0  0  0  0  0  0  0  0  0  0  0  0
  -26.0420  -11.9960   20.2190 N   0  0  0  0  0  0  0  0  0  0  0  0
  -24.0430  -10.7620   20.7710 C   0  0  0  0  0  0  0  0  0  0  0  0
  -24.5090   -9.7170   21.5990 C   0  0  0  0  0  3  0  0  0  0  0  0
  -23.7740   -8.5180   21.7200 C   0  0  0  0  0  3  0  0  0  0  0  0
  -22.5590   -8.3570   21.0140 C   0  0  0  0  0  0  0  0  0  0  0  0
  -22.1110   -9.3930   20.1750 C   0  0  0  0  0  3  0  0  0  0  0  0
  -22.8450  -10.5850   20.0510 C   0  0  0  0  0  3  0  0  0  0  0  0
  -21.7920   -7.2180   21.0510 O   0  0  0  0  0  0  0  0  0  0  0  0
  -21.7490   -6.4160   22.1620 C   0  0  0  0  0  0  0  0  0  0  0  0
  -21.3590   -6.9090   23.4270 C   0  0  0  0  0  3  0  0  0  0  0  0
  -21.2590   -6.0290   24.5230 C   0  0  0  0  0  3  0  0  0  0  0  0
  -21.5440   -4.6630   24.3590 C   0  0  0  0  0  0  0  0  0  0  0  0
  -21.9260   -4.1690   23.1000 C   0  0  0  0  0  3  0  0  0  0  0  0
  -22.0250   -5.0420   22.0030 C   0  0  0  0  0  0  0  0  0  0  0  0
  -22.3750   -4.5580   20.7880 F   0  0  0  0  0  0  0  0  0  0  0  0
  -21.4380   -3.8180   25.4100 F   0  0  0  0  0  0  0  0  0  0  0  0
  -23.0070  -13.8460   21.2930 C   0  0  0  0  0  0  0  0  0  0  0  0
  -22.3450  -13.0910   22.1610 N   0  0  0  0  0  0  0  0  0  0  0  0
  -22.5460  -14.9200   20.9040 O   0  0  0  0  0  0  0  0  0  0  0  0
  -22.7310  -12.2250   22.5020 H   0  0  0  0  0  0  0  0  0  0  0  0
  -21.4380  -13.3890   22.4940 H   0  0  0  0  0  0  0  0  0  0  0  0
  -25.5960  -15.5410   20.4180 N   0  0  0  0  0  0  0  0  0  0  0  0
  -24.8480  -16.1860   20.6480 H   0  0  0  0  0  0  0  0  0  0  0  0
  -26.4220  -16.0030   20.0580 H   0  0  0  0  0  0  0  0  0  0  0  0
  -33.8730  -25.6880   20.2980 N   0  0  0  0  0  4  0  0  0  0  0  0
  -34.5390  -26.3980   20.0320 H   0  0  0  0  0  0  0  0  0  0  0  0
  -33.0620  -25.8170   19.7220 H   0  0  0  0  0  0  0  0  0  0  0  0
  -33.5390  -25.8910   21.7340 C   0  0  0  0  0  2  0  0  0  0  0  0
  -32.3360  -26.8310   21.9440 C   0  0  0  0  0  2  0  0  0  0  0  0
  -30.9800  -26.2240   21.5270 C   0  0  0  0  0  2  0  0  0  0  0  0
  -30.2580  -27.1010   20.5830 N   0  0  0  0  0  4  0  0  0  0  0  0
  -30.9200  -27.7010   20.1170 H   0  0  0  0  0  0  0  0  0  0  0  0
  -29.6640  -27.7040   21.1370 H   0  0  0  0  0  0  0  0  0  0  0  0
  -29.4280  -26.4030   19.5730 C   0  0  0  0  0  2  0  0  0  0  0  0
  -28.6490  -27.4240   18.7380 C   0  0  0  0  0  2  0  0  0  0  0  0
  -27.3730  -26.9190   18.3360 O   0  0  0  0  0  0  0  0  0  0  0  0
  -24.5270  -31.6700   22.7870 C   0  0  0  0  0  0  0  0  0  0  0  0
  -26.2850  -27.6940   18.6790 C   0  0  0  0  0  0  0  0  0  0  0  0
  -22.9320  -30.5120   21.2880 C   0  0  0  0  0  3  0  0  0  0  0  0
  -23.9780  -29.1600   19.3960 C   0  0  0  0  0  0  0  0  0  0  0  0
  -25.3430  -30.9060   20.5610 C   0  0  0  0  0  2  0  0  0  0  0  0
  -25.2440  -29.6240   19.7650 C   0  0  0  0  0  0  0  0  0  0  0  0
  -26.3950  -28.9080   19.3960 C   0  0  0  0  0  3  0  0  0  0  0  0
  -25.0020  -27.2420   18.3030 C   0  0  0  0  0  3  0  0  0  0  0  0
  -23.8480  -27.9710   18.6570 C   0  0  0  0  0  3  0  0  0  0  0  0
  -22.8000  -30.0070   19.8240 C   0  0  0  0  0  2  0  0  0  0  0  0
  -24.3010  -31.0320   21.6030 N   0  0  0  0  0  0  0  0  0  0  0  0
  -23.6030  -31.8780   23.5870 O   0  0  0  0  0  0  0  0  0  0  0  0
  -22.4680  -29.3820   22.2350 C   0  0  0  0  0  0  0  0  0  0  0  0
  -21.1470  -29.1580   22.2880 N   0  0  0  0  0  0  0  0  0  0  0  0
  -23.2880  -28.7130   22.8710 O   0  0  0  0  0  0  0  0  0  0  0  0
  -20.5410  -29.7530   21.7400 H   0  0  0  0  0  0  0  0  0  0  0  0
  -17.9390  -27.6700   23.0150 C   0  0  0  0  0  0  0  0  0  0  0  0
  -20.4830  -28.1230   23.0760 C   0  0  0  0  0  3  0  0  0  0  0  0
  -20.6420  -26.7340   22.4170 C   0  0  0  0  0  2  0  0  0  0  0  0
  -19.4810  -26.3700   21.4870 C   0  0  0  0  0  2  0  0  0  0  0  0
  -18.1560  -26.3710   22.2560 C   0  0  0  0  0  2  0  0  0  0  0  0
  -19.0300  -28.4990   23.3870 C   0  0  0  0  0  0  0  0  0  0  0  0
  -18.7700  -29.7120   24.0600 C   0  0  0  0  0  3  0  0  0  0  0  0
  -17.4510  -30.0980   24.3640 C   0  0  0  0  0  3  0  0  0  0  0  0
  -16.3760  -29.2670   24.0080 C   0  0  0  0  0  3  0  0  0  0  0  0
  -16.6210  -28.0540   23.3390 C   0  0  0  0  0  3  0  0  0  0  0  0
  -25.9450  -32.1940   23.1830 C   0  0  0  0  0  3  0  0  0  0  0  0
  -25.7930  -33.5820   23.6330 N   0  0  0  0  0  0  0  0  0  0  0  0
  -26.1860  -34.6560   22.9330 C   0  0  0  0  0  0  0  0  0  0  0  0
  -26.7920  -34.5700   21.8600 O   0  0  0  0  0  0  0  0  0  0  0  0
  -25.2590  -33.7280   24.4770 H   0  0  0  0  0  0  0  0  0  0  0  0
  -24.6380  -36.6320   22.7920 C   0  0  0  0  0  1  0  0  0  0  0  0
  -25.8600  -36.0420   23.5160 C   0  0  0  0  0  3  0  0  0  0  0  0
  -28.1130  -36.6320   24.2960 C   0  0  0  0  0  1  0  0  0  0  0  0
  -26.9880  -36.9960   23.4370 N   0  0  0  0  0  0  0  0  0  0  0  0
  -26.6880  -37.9330   23.6910 H   0  0  0  0  0  0  0  0  0  0  0  0
  -26.6470  -31.3140   24.2890 C   0  0  1  0  0  0  0  0  0  0  0  0
  -25.7640  -31.0650   25.5350 C   0  0  0  0  0  1  0  0  0  0  0  0
  -27.0480  -29.9370   23.7070 C   0  0  0  0  0  1  0  0  0  0  0  0
  -27.9510  -31.9980   24.7540 C   0  0  0  0  0  1  0  0  0  0  0  0
  2  1  1  0
  2  7  1  0
  2 54  1  0
  3  5  1  0
  4  6  2  0
  4  7  1  0
  6  8  1  0
  7  3  2  0
  8  5  2  0
 10  9  1  0
 10  8  1  0
 10 11  1  0
 11 14  1  0
 11 12  1  0
 11 13  1  0
 15 14  1  0
 16 24  1  0
 17 22  1  0
 18 19  1  0
 18 17  1  0
 20 19  1  0
 20 29  1  0
 20 21  1  0
 22 16  1  0
 22 21  1  0
 23 16  2  0
 24 15  1  0
 24 25  1  0
 26 27  2  0
 27 46  1  0
 28 31  1  0
 28 27  1  0
 29 30  1  0
 29 26  1  0
 30 28  2  0
 31 32  1  0
 32 33  2  0
 34 37  1  0
 34 33  1  0
 35 34  2  0
 36 35  1  0
 36 31  2  0
 37 38  1  0
 38 39  1  0
 39 40  2  0
 41 40  1  0
 41 45  1  0
 42 41  2  0
 43 38  2  0
 43 42  1  0
 44 43  1  0
 46 47  1  0
 47 50  1  0
 47 49  1  0
 48 46  2  0
 51 26  1  0
 51 52  1  0
 53 51  1  0
 54 57  1  0
 55 54  1  0
 56 54  1  0
 57 58  1  0
 59 58  1  0
 60 62  1  0
 60 59  1  0
 61 60  1  0
 63 60  1  0
 64 63  1  0
 65 67  1  0
 65 64  1  0
 66 77  2  0
 67 72  1  0
 68 76  1  0
 68 78  1  0
 69 71  1  0
 69 75  1  0
 70 76  1  0
 71 70  1  0
 72 71  2  0
 73 74  1  0
 73 67  2  0
 74 69  2  0
 75 68  1  0
 76 66  1  0
 78 79  1  0
 78 80  2  0
 81 79  1  0
 82 91  2  0
 82 87  1  0
 83 79  1  0
 83 87  1  0
 84 83  1  0
 85 86  1  0
 85 84  1  0
 86 82  1  0
 87 88  2  0
 88 89  1  0
 90 89  2  0
 91 90  1  0
 92 66  1  0
 92 93  1  0
 92102  1  0
 93 96  1  0
 94 98  1  0
 94 93  1  0
 95 94  2  0
 98 97  1  0
100 98  1  0
100101  1  0
100 99  1  0
102105  1  1
102103  1  0
104102  1  0
M  ISO  4  16 100  24 100  64 101  65 101
M  END
>  <TORSDO>  (44) 
F 28

>  <SCORE>  (44) 
-7.457

>  <name>  (44) 
44

>  <ligand_id>  (44) 
44

>  <original_smiles>  (44) 
[H]c1c([H])c([H])c2c(c1[H])C([H])([H])C([H])([H])C([H])([H])C2([H])N([H])C(=O)C1([H])N(C(=O)C([H])(N([H])C(=O)C([H])(N([H])C([H])([H])[H])C([H])([H])[H])C(C([H])([H])[H])(C([H])([H])[H])C([H])([H])[H])C([H])([H])c2c([H])c(OC([H])([H])C([H])([H])[N+]([H])([H])C([H])([H])C([H])([H])C([H])([H])[N+]([H])([H])C([H])(c3c([H])c([H])c(C([H])(C([H])([H])[H])[N+]([H])([H])C([H])([H])C([H])([H])N([H])C(=O)N4C([H])([H])C([H])([H])C([H])([H])C([H])(n5nc(-c6c([H])c([H])c(Oc7c([H])c([H])c(F)c([H])c7F)c([H])c6[H])c(C(=O)N([H])[H])c5N([H])[H])C4([H])[H])c([H])c3[H])C([H])([H])[H])c([H])c([H])c2C1([H])[H]

>  <smiles>  (44) 
[H]c1c([H])c([H])c2c(c1[H])C([H])([H])C([H])([H])C([H])([H])C2([H])N([H])C(=O)C1([H])N(C(=O)C([H])(N([H])C(=O)C([H])(N([H])C([H])([H])[H])C([H])([H])[H])C(C([H])([H])[H])(C([H])([H])[H])C([H])([H])[H])C([H])([H])c2c([H])c(OC([H])([H])C([H])([H])[N+]([H])([H])C([H])([H])C([H])([H])C([H])([H])[N+]([H])([H])C([H])(c3c([H])c([H])c(C([H])(C([H])([H])[H])[N+]([H])([H])C([H])([H])C([H])([H])N([H])C(=O)N4C([H])([H])C([H])([H])C([H])([H])C([H])(n5nc(-c6c([H])c([H])c(Oc7c([H])c([H])c(F)c([H])c7F)c([H])c6[H])c(C(=O)N([H])[H])c5N([H])[H])C4([H])[H])c([H])c3[H])C([H])([H])[H])c([H])c([H])c2C1([H])[H]

$$$$
45:0:0
     RDKit          3D

108116  0  0  1  0  0  0  0  0999 V2000
  -26.8030  -22.2430   18.8260 C   0  0  0  0  0  3  0  0  0  0  0  0
  -25.9150  -21.1750   18.5890 C   0  0  0  0  0  3  0  0  0  0  0  0
  -28.6160  -20.9440   17.8540 C   0  0  0  0  0  3  0  0  0  0  0  0
  -28.1640  -22.1250   18.4800 C   0  0  0  0  0  0  0  0  0  0  0  0
  -27.7420  -19.8510   17.6460 C   0  0  0  0  0  0  0  0  0  0  0  0
  -26.3810  -19.9740   18.0180 C   0  0  0  0  0  0  0  0  0  0  0  0
  -25.5070  -18.9410   17.8470 O   0  0  0  0  0  0  0  0  0  0  0  0
  -24.6320  -19.1310   18.1710 H   0  0  0  0  0  0  0  0  0  0  0  0
  -28.6150  -18.6620   15.5850 C   0  0  0  0  0  1  0  0  0  0  0  0
  -28.3070  -18.5410   17.0870 C   0  0  0  0  0  3  0  0  0  0  0  0
  -29.5090  -18.1150   17.8440 N   0  0  0  0  0  4  0  0  0  0  0  0
  -29.8480  -17.2570   17.4370 H   0  0  0  0  0  0  0  0  0  0  0  0
  -30.2230  -18.8110   17.7120 H   0  0  0  0  0  0  0  0  0  0  0  0
  -29.3180  -17.8990   19.2990 C   0  0  0  0  0  2  0  0  0  0  0  0
  -30.6620  -17.9070   20.0520 C   0  0  0  0  0  2  0  0  0  0  0  0
  -30.5980  -17.2840   21.4660 C   0  0  0  0  0  2  0  0  0  0  0  0
  -30.9520  -14.8990   20.8560 C   0  0  0  0  0  0  0  0  0  0  0  0
  -30.6910  -12.8370   19.5470 C   0  0  0  0  0  2  0  0  0  0  0  0
  -29.8030  -13.1280   18.3200 C   0  0  0  0  0  2  0  0  0  0  0  0
  -28.3130  -12.9680   18.6770 C   0  0  0  0  0  2  0  0  0  0  0  0
  -27.9200  -13.7250   19.9740 C   0  0  0  0  0  3  0  0  0  0  0  0
  -28.9230  -13.4260   21.1110 C   0  0  0  0  0  2  0  0  0  0  0  0
  -30.2760  -13.7460   20.6240 N   0  0  0  0  0  0  0  0  0  0  0  0
  -32.0850  -15.1250   20.4250 O   0  0  0  0  0  0  0  0  0  0  0  0
  -30.2280  -15.8690   21.4310 N   0  0  0  0  0  0  0  0  0  0  0  0
  -29.3130  -15.6130   21.7710 H   0  0  0  0  0  0  0  0  0  0  0  0
  -25.4780  -14.2930   20.5610 C   0  0  0  0  0  0  0  0  0  0  0  0
  -24.4020  -13.5000   20.8550 C   0  0  0  0  0  0  0  0  0  0  0  0
  -24.8820  -12.1540   20.8200 C   0  0  0  0  0  0  0  0  0  0  0  0
  -26.5460  -13.4300   20.3700 N   0  0  0  0  0  0  0  0  0  0  0  0
  -26.1870  -12.1380   20.5810 N   0  0  0  0  0  0  0  0  0  0  0  0
  -24.1650  -10.8800   20.9440 C   0  0  0  0  0  0  0  0  0  0  0  0
  -24.5680   -9.8940   21.8720 C   0  0  0  0  0  3  0  0  0  0  0  0
  -23.8520   -8.6830   21.9850 C   0  0  0  0  0  3  0  0  0  0  0  0
  -22.7190   -8.4510   21.1700 C   0  0  0  0  0  0  0  0  0  0  0  0
  -22.3360   -9.4260   20.2330 C   0  0  0  0  0  3  0  0  0  0  0  0
  -23.0530  -10.6290   20.1180 C   0  0  0  0  0  3  0  0  0  0  0  0
  -21.9780   -7.2940   21.1920 O   0  0  0  0  0  0  0  0  0  0  0  0
  -21.8770   -6.5250   22.3230 C   0  0  0  0  0  0  0  0  0  0  0  0
  -21.3810   -7.0470   23.5380 C   0  0  0  0  0  3  0  0  0  0  0  0
  -21.2290   -6.2050   24.6570 C   0  0  0  0  0  3  0  0  0  0  0  0
  -21.5640   -4.8410   24.5620 C   0  0  0  0  0  0  0  0  0  0  0  0
  -22.0550   -4.3180   23.3530 C   0  0  0  0  0  3  0  0  0  0  0  0
  -22.2080   -5.1580   22.2360 C   0  0  0  0  0  0  0  0  0  0  0  0
  -22.6620   -4.6440   21.0670 F   0  0  0  0  0  0  0  0  0  0  0  0
  -21.4110   -4.0300   25.6360 F   0  0  0  0  0  0  0  0  0  0  0  0
  -22.9860  -13.9540   21.0670 C   0  0  0  0  0  0  0  0  0  0  0  0
  -22.2290  -13.2350   21.8890 N   0  0  0  0  0  0  0  0  0  0  0  0
  -22.5570  -14.9810   20.5410 O   0  0  0  0  0  0  0  0  0  0  0  0
  -22.5890  -12.4050   22.3360 H   0  0  0  0  0  0  0  0  0  0  0  0
  -21.2780  -13.5190   22.0750 H   0  0  0  0  0  0  0  0  0  0  0  0
  -25.6310  -15.6700   20.4250 N   0  0  0  0  0  0  0  0  0  0  0  0
  -24.8460  -16.3060   20.5140 H   0  0  0  0  0  0  0  0  0  0  0  0
  -26.4910  -16.1380   20.1820 H   0  0  0  0  0  0  0  0  0  0  0  0
  -30.3130  -22.7590   19.6930 C   0  0  0  0  0  1  0  0  0  0  0  0
  -29.1410  -23.2480   18.8220 C   0  0  0  0  0  3  0  0  0  0  0  0
  -29.6330  -23.9210   17.6000 N   0  0  0  0  0  4  0  0  0  0  0  0
  -30.4860  -24.3900   17.8530 H   0  0  0  0  0  0  0  0  0  0  0  0
  -29.8750  -23.2250   16.9120 H   0  0  0  0  0  0  0  0  0  0  0  0
  -28.6930  -24.8950   16.9920 C   0  0  0  0  0  2  0  0  0  0  0  0
  -29.4130  -26.0190   16.2120 C   0  0  0  0  0  2  0  0  0  0  0  0
  -30.2730  -26.9650   17.0850 C   0  0  0  0  0  2  0  0  0  0  0  0
  -29.4690  -27.9200   17.8850 N   0  0  0  0  0  4  0  0  0  0  0  0
  -28.5960  -27.5050   18.1720 H   0  0  0  0  0  0  0  0  0  0  0  0
  -29.2430  -28.7040   17.2890 H   0  0  0  0  0  0  0  0  0  0  0  0
  -30.1280  -28.4440   19.1080 C   0  0  0  0  0  2  0  0  0  0  0  0
  -30.1110  -27.4330   20.2800 C   0  0  0  0  0  2  0  0  0  0  0  0
  -28.8930  -26.6820   20.3200 O   0  0  0  0  0  0  0  0  0  0  0  0
  -24.7640  -31.7230   23.2710 C   0  0  0  0  0  0  0  0  0  0  0  0
  -27.7110  -27.3820   20.3740 C   0  0  0  0  0  0  0  0  0  0  0  0
  -23.6870  -30.2750   21.5750 C   0  0  0  0  0  3  0  0  0  0  0  0
  -25.2590  -28.7700   20.2520 C   0  0  0  0  0  0  0  0  0  0  0  0
  -26.1990  -30.7220   21.5050 C   0  0  0  0  0  2  0  0  0  0  0  0
  -26.3600  -29.3480   20.8950 C   0  0  0  0  0  0  0  0  0  0  0  0
  -27.5870  -28.6610   20.9640 C   0  0  0  0  0  3  0  0  0  0  0  0
  -26.5840  -26.7920   19.7660 C   0  0  0  0  0  3  0  0  0  0  0  0
  -25.3610  -27.4840   19.6930 C   0  0  0  0  0  3  0  0  0  0  0  0
  -23.9880  -29.5870   20.2160 C   0  0  0  0  0  2  0  0  0  0  0  0
  -24.8970  -30.9220   22.1770 N   0  0  0  0  0  0  0  0  0  0  0  0
  -23.6490  -31.9680   23.7520 O   0  0  0  0  0  0  0  0  0  0  0  0
  -23.0170  -29.2420   22.5090 C   0  0  0  0  0  0  0  0  0  0  0  0
  -21.7020  -29.0420   22.3280 N   0  0  0  0  0  0  0  0  0  0  0  0
  -23.6770  -28.6250   23.3470 O   0  0  0  0  0  0  0  0  0  0  0  0
  -21.2320  -29.5890   21.6200 H   0  0  0  0  0  0  0  0  0  0  0  0
  -18.3220  -27.8360   22.7100 C   0  0  0  0  0  0  0  0  0  0  0  0
  -20.8680  -28.0920   23.0620 C   0  0  0  0  0  3  0  0  0  0  0  0
  -20.9910  -26.6690   22.4680 C   0  0  0  0  0  2  0  0  0  0  0  0
  -19.9200  -26.3590   21.4190 C   0  0  0  0  0  2  0  0  0  0  0  0
  -18.5190  -26.4960   22.0220 C   0  0  0  0  0  2  0  0  0  0  0  0
  -19.4260  -28.5930   23.1830 C   0  0  0  0  0  0  0  0  0  0  0  0
  -19.1870  -29.8500   23.7810 C   0  0  0  0  0  3  0  0  0  0  0  0
  -17.8770  -30.3480   23.9130 C   0  0  0  0  0  3  0  0  0  0  0  0
  -16.7870  -29.5860   23.4590 C   0  0  0  0  0  3  0  0  0  0  0  0
  -17.0100  -28.3310   22.8630 C   0  0  0  0  0  3  0  0  0  0  0  0
  -25.9990  -32.3920   23.9540 C   0  0  0  0  0  3  0  0  0  0  0  0
  -25.6440  -33.7890   24.2340 N   0  0  0  0  0  0  0  0  0  0  0  0
  -25.9920  -34.8300   23.4650 C   0  0  0  0  0  0  0  0  0  0  0  0
  -26.7130  -34.7160   22.4700 O   0  0  0  0  0  0  0  0  0  0  0  0
  -25.0090  -33.9470   25.0020 H   0  0  0  0  0  0  0  0  0  0  0  0
  -24.2360  -36.5630   22.9850 C   0  0  0  0  0  1  0  0  0  0  0  0
  -25.4500  -36.2170   23.8610 C   0  0  0  0  0  3  0  0  0  0  0  0
  -27.5220  -37.1790   24.7580 C   0  0  0  0  0  1  0  0  0  0  0  0
  -26.4600  -37.2920   23.7620 N   0  0  0  0  0  0  0  0  0  0  0  0
  -26.0240  -38.2040   23.8700 H   0  0  0  0  0  0  0  0  0  0  0  0
  -26.4550  -31.6530   25.2700 C   0  0  1  0  0  0  0  0  0  0  0  0
  -25.3070  -31.4010   26.2720 C   0  0  0  0  0  1  0  0  0  0  0  0
  -27.0920  -30.2850   24.9310 C   0  0  0  0  0  1  0  0  0  0  0  0
  -27.5450  -32.4840   25.9880 C   0  0  0  0  0  1  0  0  0  0  0  0
  2  1  1  0
  3  4  1  0
  4 56  1  0
  4  1  2  0
  5  3  2  0
  5  6  1  0
  6  2  2  0
  7  6  1  0
  7  8  1  0
 10  9  1  0
 10  5  1  0
 10 11  1  0
 11 14  1  0
 12 11  1  0
 13 11  1  0
 14 15  1  0
 15 16  1  0
 17 25  1  0
 18 23  1  0
 19 20  1  0
 19 18  1  0
 21 20  1  0
 21 30  1  0
 21 22  1  0
 23 17  1  0
 23 22  1  0
 24 17  2  0
 25 16  1  0
 25 26  1  0
 27 28  2  0
 28 47  1  0
 29 28  1  0
 29 32  1  0
 30 27  1  0
 30 31  1  0
 31 29  2  0
 32 33  1  0
 33 34  2  0
 35 38  1  0
 35 34  1  0
 36 35  2  0
 37 36  1  0
 37 32  2  0
 38 39  1  0
 39 40  1  0
 40 41  2  0
 42 41  1  0
 42 46  1  0
 43 42  2  0
 44 39  2  0
 44 43  1  0
 45 44  1  0
 47 48  1  0
 48 51  1  0
 48 50  1  0
 49 47  2  0
 52 53  1  0
 52 27  1  0
 54 52  1  0
 56 55  1  0
 57 58  1  0
 57 56  1  0
 59 57  1  0
 60 57  1  0
 61 60  1  0
 61 62  1  0
 62 63  1  0
 63 64  1  0
 63 66  1  0
 65 63  1  0
 66 67  1  0
 67 68  1  0
 68 70  1  0
 69 80  2  0
 70 75  1  0
 71 79  1  0
 71 81  1  0
 72 74  1  0
 73 79  1  0
 74 75  2  0
 74 73  1  0
 76 70  2  0
 77 76  1  0
 77 72  2  0
 78 72  1  0
 78 71  1  0
 79 69  1  0
 81 83  2  0
 82 81  1  0
 84 82  1  0
 85 94  2  0
 85 90  1  0
 86 82  1  0
 86 90  1  0
 87 86  1  0
 88 89  1  0
 88 87  1  0
 89 85  1  0
 90 91  2  0
 91 92  1  0
 93 92  2  0
 94 93  1  0
 95 69  1  0
 95 96  1  0
 95105  1  0
 96 99  1  0
 97101  1  0
 97 96  1  0
 98 97  2  0
101100  1  0
103101  1  0
103104  1  0
103102  1  0
105108  1  1
105106  1  0
107105  1  0
M  ISO  4  17 100  25 100  67 101  68 101
M  END
>  <TORSDO>  (45) 
F 30

>  <SCORE>  (45) 
-9.838

>  <name>  (45) 
45

>  <ligand_id>  (45) 
45

>  <original_smiles>  (45) 
[H]Oc1c([H])c([H])c(C([H])(C([H])([H])[H])[N+]([H])([H])C([H])([H])C([H])([H])C([H])([H])[N+]([H])([H])C([H])([H])C([H])([H])Oc2c([H])c([H])c3c(c2[H])C([H])([H])N(C(=O)C([H])(N([H])C(=O)C([H])(N([H])C([H])([H])[H])C([H])([H])[H])C(C([H])([H])[H])(C([H])([H])[H])C([H])([H])[H])C([H])(C(=O)N([H])C2([H])c4c([H])c([H])c([H])c([H])c4C([H])([H])C([H])([H])C2([H])[H])C3([H])[H])c([H])c1C([H])(C([H])([H])[H])[N+]([H])([H])C([H])([H])C([H])([H])C([H])([H])N([H])C(=O)N1C([H])([H])C([H])([H])C([H])([H])C([H])(n2nc(-c3c([H])c([H])c(Oc4c([H])c([H])c(F)c([H])c4F)c([H])c3[H])c(C(=O)N([H])[H])c2N([H])[H])C1([H])[H]

>  <smiles>  (45) 
[H]Oc1c([H])c([H])c(C([H])(C([H])([H])[H])[N+]([H])([H])C([H])([H])C([H])([H])C([H])([H])[N+]([H])([H])C([H])([H])C([H])([H])Oc2c([H])c([H])c3c(c2[H])C([H])([H])N(C(=O)C([H])(N([H])C(=O)C([H])(N([H])C([H])([H])[H])C([H])([H])[H])C(C([H])([H])[H])(C([H])([H])[H])C([H])([H])[H])C([H])(C(=O)N([H])C2([H])c4c([H])c([H])c([H])c([H])c4C([H])([H])C([H])([H])C2([H])[H])C3([H])[H])c([H])c1C([H])(C([H])([H])[H])[N+]([H])([H])C([H])([H])C([H])([H])C([H])([H])N([H])C(=O)N1C([H])([H])C([H])([H])C([H])([H])C([H])(n2nc(-c3c([H])c([H])c(Oc4c([H])c([H])c(F)c([H])c4F)c([H])c3[H])c(C(=O)N([H])[H])c2N([H])[H])C1([H])[H]

$$$$
46:0:0
     RDKit          3D

 99106  0  0  1  0  0  0  0  0999 V2000
  -28.6820  -20.9350   20.5530 C   0  0  0  0  0  3  0  0  0  0  0  0
  -27.5490  -20.3510   21.2960 N   0  0  0  0  0  4  0  0  0  0  0  0
  -27.2170  -19.5030   20.8760 H   0  0  0  0  0  0  0  0  0  0  0  0
  -26.7890  -21.0010   21.3880 H   0  0  0  0  0  0  0  0  0  0  0  0
  -27.8940  -20.1390   22.2190 H   0  0  0  0  0  0  0  0  0  0  0  0
  -28.3140  -21.2080   19.0710 C   0  0  0  0  0  2  0  0  0  0  0  0
  -27.4530  -22.4750   18.8600 C   0  0  0  0  0  2  0  0  0  0  0  0
  -28.1640  -23.5630   18.0500 C   0  0  0  0  0  0  0  0  0  0  0  0
  -28.5380  -24.6680   18.7040 N   0  0  0  0  0  0  0  0  0  0  0  0
  -28.3330  -23.4190   16.8390 O   0  0  0  0  0  0  0  0  0  0  0  0
  -28.3950  -24.7130   19.7050 H   0  0  0  0  0  0  0  0  0  0  0  0
  -28.9980  -25.9000   18.0720 C   0  0  0  0  0  2  0  0  0  0  0  0
  -29.4840  -26.9100   19.1280 C   0  0  0  0  0  2  0  0  0  0  0  0
  -28.6850  -26.9080   20.3100 O   0  0  0  0  0  0  0  0  0  0  0  0
  -24.6760  -31.9370   23.3150 C   0  0  0  0  0  0  0  0  0  0  0  0
  -27.5080  -27.6130   20.2580 C   0  0  0  0  0  0  0  0  0  0  0  0
  -23.5430  -30.5170   21.6310 C   0  0  0  0  0  3  0  0  0  0  0  0
  -25.0700  -29.0290   20.2320 C   0  0  0  0  0  0  0  0  0  0  0  0
  -26.0590  -30.9490   21.4960 C   0  0  0  0  0  2  0  0  0  0  0  0
  -26.1950  -29.5850   20.8550 C   0  0  0  0  0  0  0  0  0  0  0  0
  -27.4160  -28.8760   20.8770 C   0  0  0  0  0  3  0  0  0  0  0  0
  -26.3630  -27.0550   19.6490 C   0  0  0  0  0  3  0  0  0  0  0  0
  -25.1460  -27.7600   19.6320 C   0  0  0  0  0  3  0  0  0  0  0  0
  -23.8040  -29.8530   20.2510 C   0  0  0  0  0  2  0  0  0  0  0  0
  -24.7750  -31.1490   22.2070 N   0  0  0  0  0  0  0  0  0  0  0  0
  -23.5750  -32.1770   23.8330 O   0  0  0  0  0  0  0  0  0  0  0  0
  -22.8960  -29.4730   22.5680 C   0  0  0  0  0  0  0  0  0  0  0  0
  -21.5870  -29.2360   22.3830 N   0  0  0  0  0  0  0  0  0  0  0  0
  -23.5680  -28.8790   23.4140 O   0  0  0  0  0  0  0  0  0  0  0  0
  -21.1050  -29.7740   21.6770 H   0  0  0  0  0  0  0  0  0  0  0  0
  -18.2480  -27.8990   22.7260 C   0  0  0  0  0  0  0  0  0  0  0  0
  -20.7750  -28.2700   23.1220 C   0  0  0  0  0  3  0  0  0  0  0  0
  -20.9670  -26.8400   22.5660 C   0  0  0  0  0  2  0  0  0  0  0  0
  -19.9320  -26.4620   21.5010 C   0  0  0  0  0  2  0  0  0  0  0  0
  -18.5150  -26.5520   22.0750 C   0  0  0  0  0  2  0  0  0  0  0  0
  -19.3100  -28.7120   23.2030 C   0  0  0  0  0  0  0  0  0  0  0  0
  -19.0080  -29.9700   23.7680 C   0  0  0  0  0  3  0  0  0  0  0  0
  -17.6770  -30.4170   23.8630 C   0  0  0  0  0  3  0  0  0  0  0  0
  -16.6280  -29.6020   23.4010 C   0  0  0  0  0  3  0  0  0  0  0  0
  -16.9140  -28.3460   22.8390 C   0  0  0  0  0  3  0  0  0  0  0  0
  -25.9320  -32.5920   23.9690 C   0  0  0  0  0  3  0  0  0  0  0  0
  -26.4080  -31.8520   25.2790 C   0  0  1  0  0  0  0  0  0  0  0  0
  -25.2740  -31.6030   26.2990 C   0  0  0  0  0  1  0  0  0  0  0  0
  -27.0400  -30.4850   24.9300 C   0  0  0  0  0  1  0  0  0  0  0  0
  -27.5090  -32.6830   25.9810 C   0  0  0  0  0  1  0  0  0  0  0  0
  -25.6010  -33.9950   24.2560 N   0  0  0  0  0  0  0  0  0  0  0  0
  -25.9490  -35.0310   23.4800 C   0  0  0  0  0  0  0  0  0  0  0  0
  -26.6540  -34.9070   22.4740 O   0  0  0  0  0  0  0  0  0  0  0  0
  -24.9830  -34.1650   25.0360 H   0  0  0  0  0  0  0  0  0  0  0  0
  -24.2110  -36.7860   23.0220 C   0  0  0  0  0  1  0  0  0  0  0  0
  -25.4310  -36.4230   23.8820 C   0  0  0  0  0  3  0  0  0  0  0  0
  -27.5260  -37.3580   24.7540 C   0  0  0  0  0  1  0  0  0  0  0  0
  -26.4540  -37.4870   23.7710 N   0  0  0  0  0  0  0  0  0  0  0  0
  -26.0330  -38.4050   23.8790 H   0  0  0  0  0  0  0  0  0  0  0  0
  -29.9570  -20.0540   20.7330 C   0  0  0  0  0  3  0  0  0  0  0  0
  -30.4090  -20.0560   22.1310 N   0  0  0  0  0  0  0  0  0  0  0  0
  -31.0400  -21.3280   22.4040 O   0  0  0  0  0  1  0  0  0  0  0  0
  -31.1330  -19.3480   22.2300 H   0  0  0  0  0  0  0  0  0  0  0  0
  -29.7830  -18.5750   20.2840 C   0  0  0  0  0  2  0  0  0  0  0  0
  -31.1110  -17.7860   20.2420 C   0  0  0  0  0  2  0  0  0  0  0  0
  -31.3140  -16.7790   21.3980 C   0  0  0  0  0  2  0  0  0  0  0  0
  -31.2320  -14.5290   20.3520 C   0  0  0  0  0  0  0  0  0  0  0  0
  -30.8290  -12.3900   19.2000 C   0  0  0  0  0  2  0  0  0  0  0  0
  -29.8940  -12.6140   17.9960 C   0  0  0  0  0  2  0  0  0  0  0  0
  -28.4180  -12.5200   18.4350 C   0  0  0  0  0  2  0  0  0  0  0  0
  -28.1110  -13.3910   19.6830 C   0  0  0  0  0  3  0  0  0  0  0  0
  -29.1600  -13.1540   20.7920 C   0  0  0  0  0  2  0  0  0  0  0  0
  -30.4970  -13.3940   20.2200 N   0  0  0  0  0  0  0  0  0  0  0  0
  -32.3010  -14.7140   19.7650 O   0  0  0  0  0  0  0  0  0  0  0  0
  -30.6990  -15.4780   21.1310 N   0  0  0  0  0  0  0  0  0  0  0  0
  -29.8250  -15.2620   21.5870 H   0  0  0  0  0  0  0  0  0  0  0  0
  -25.7390  -14.0790   20.4170 C   0  0  0  0  0  0  0  0  0  0  0  0
  -24.6470  -13.3410   20.7900 C   0  0  0  0  0  0  0  0  0  0  0  0
  -25.0600  -11.9750   20.7430 C   0  0  0  0  0  0  0  0  0  0  0  0
  -26.7510  -13.1640   20.1690 N   0  0  0  0  0  0  0  0  0  0  0  0
  -26.3450  -11.8920   20.4200 N   0  0  0  0  0  0  0  0  0  0  0  0
  -24.2910  -10.7380   20.9290 C   0  0  0  0  0  0  0  0  0  0  0  0
  -24.6650   -9.7730   21.8900 C   0  0  0  0  0  3  0  0  0  0  0  0
  -23.9000   -8.6000   22.0640 C   0  0  0  0  0  3  0  0  0  0  0  0
  -22.7450   -8.3830   21.2740 C   0  0  0  0  0  0  0  0  0  0  0  0
  -22.3910   -9.3350   20.3020 C   0  0  0  0  0  3  0  0  0  0  0  0
  -23.1570  -10.5000   20.1270 C   0  0  0  0  0  3  0  0  0  0  0  0
  -21.9560   -7.2610   21.3540 O   0  0  0  0  0  0  0  0  0  0  0  0
  -21.8040   -6.5710   22.5290 C   0  0  0  0  0  0  0  0  0  0  0  0
  -21.2820   -7.1820   23.6910 C   0  0  0  0  0  3  0  0  0  0  0  0
  -21.0770   -6.4170   24.8570 C   0  0  0  0  0  3  0  0  0  0  0  0
  -21.3850   -5.0430   24.8610 C   0  0  0  0  0  0  0  0  0  0  0  0
  -21.9000   -4.4320   23.7050 C   0  0  0  0  0  3  0  0  0  0  0  0
  -22.1060   -5.1940   22.5410 C   0  0  0  0  0  0  0  0  0  0  0  0
  -22.5820   -4.5960   21.4220 F   0  0  0  0  0  0  0  0  0  0  0  0
  -21.1820   -4.3060   25.9780 F   0  0  0  0  0  0  0  0  0  0  0  0
  -23.2720  -13.8660   21.0840 C   0  0  0  0  0  0  0  0  0  0  0  0
  -22.5330  -13.1960   21.9620 N   0  0  0  0  0  0  0  0  0  0  0  0
  -22.8600  -14.9070   20.5700 O   0  0  0  0  0  0  0  0  0  0  0  0
  -22.8770  -12.3540   22.3980 H   0  0  0  0  0  0  0  0  0  0  0  0
  -21.6110  -13.5320   22.2010 H   0  0  0  0  0  0  0  0  0  0  0  0
  -25.9490  -15.4450   20.2520 N   0  0  0  0  0  0  0  0  0  0  0  0
  -25.2020  -16.1190   20.3720 H   0  0  0  0  0  0  0  0  0  0  0  0
  -26.8110  -15.8590   19.9190 H   0  0  0  0  0  0  0  0  0  0  0  0
  1  6  1  0
  1 55  1  0
  1  2  1  0
  2  4  1  0
  2  5  1  0
  3  2  1  0
  7  6  1  0
  8  9  1  0
  8  7  1  0
  9 11  1  0
 10  8  2  0
 12  9  1  0
 12 13  1  0
 13 14  1  0
 15 26  2  0
 16 14  1  0
 16 21  1  0
 17 25  1  0
 17 27  1  0
 18 24  1  0
 18 20  1  0
 19 25  1  0
 20 21  2  0
 20 19  1  0
 22 16  2  0
 23 22  1  0
 23 18  2  0
 24 17  1  0
 25 15  1  0
 27 29  2  0
 28 27  1  0
 30 28  1  0
 31 40  2  0
 31 36  1  0
 32 28  1  0
 32 36  1  0
 33 32  1  0
 34 35  1  0
 34 33  1  0
 35 31  1  0
 36 37  2  0
 37 38  1  0
 39 38  2  0
 40 39  1  0
 41 15  1  0
 41 46  1  0
 41 42  1  0
 42 45  1  1
 42 43  1  0
 44 42  1  0
 46 49  1  0
 47 51  1  0
 47 46  1  0
 48 47  2  0
 51 50  1  0
 53 54  1  0
 53 51  1  0
 53 52  1  0
 55 59  1  0
 55 56  1  0
 56 58  1  0
 56 57  1  0
 60 59  1  0
 60 61  1  0
 62 70  1  0
 63 68  1  0
 64 65  1  0
 64 63  1  0
 66 65  1  0
 66 75  1  0
 66 67  1  0
 68 62  1  0
 68 67  1  0
 69 62  2  0
 70 61  1  0
 70 71  1  0
 72 73  2  0
 73 92  1  0
 74 73  1  0
 74 77  1  0
 75 72  1  0
 75 76  1  0
 76 74  2  0
 77 78  1  0
 78 79  2  0
 80 83  1  0
 80 79  1  0
 81 80  2  0
 82 81  1  0
 82 77  2  0
 83 84  1  0
 84 89  2  0
 84 85  1  0
 85 86  2  0
 86 87  1  0
 87 91  1  0
 88 87  2  0
 89 88  1  0
 90 89  1  0
 92 93  1  0
 93 96  1  0
 93 95  1  0
 94 92  2  0
 97 98  1  0
 97 72  1  0
 99 97  1  0
M  ISO  4  13 101  14 101  62 100  70 100
M  END
>  <TORSDO>  (46) 
F 27

>  <SCORE>  (46) 
-11.497

>  <name>  (46) 
46

>  <ligand_id>  (46) 
46

>  <original_smiles>  (46) 
[H]c1c([H])c([H])c2c(c1[H])C([H])([H])C([H])([H])C([H])([H])C2([H])N([H])C(=O)C1([H])N(C(=O)C([H])(N([H])C(=O)C([H])(N([H])C([H])([H])[H])C([H])([H])[H])C(C([H])([H])[H])(C([H])([H])[H])C([H])([H])[H])C([H])([H])c2c([H])c(OC([H])([H])C([H])([H])N([H])C(=O)C([H])([H])C([H])([H])C([H])(C([H])(N([H])[O-])C([H])([H])C([H])([H])C([H])([H])N([H])C(=O)N3C([H])([H])C([H])([H])C([H])([H])C([H])(n4nc(-c5c([H])c([H])c(Oc6c([H])c([H])c(F)c([H])c6F)c([H])c5[H])c(C(=O)N([H])[H])c4N([H])[H])C3([H])[H])[N+]([H])([H])[H])c([H])c([H])c2C1([H])[H]

>  <smiles>  (46) 
[H]c1c([H])c([H])c2c(c1[H])C([H])([H])C([H])([H])C([H])([H])C2([H])N([H])C(=O)C1([H])N(C(=O)C([H])(N([H])C(=O)C([H])(N([H])C([H])([H])[H])C([H])([H])[H])C(C([H])([H])[H])(C([H])([H])[H])C([H])([H])[H])C([H])([H])c2c([H])c(OC([H])([H])C([H])([H])N([H])C(=O)C([H])([H])C([H])([H])C([H])(C([H])(N([H])[O-])C([H])([H])C([H])([H])C([H])([H])N([H])C(=O)N3C([H])([H])C([H])([H])C([H])([H])C([H])(n4nc(-c5c([H])c([H])c(Oc6c([H])c([H])c(F)c([H])c6F)c([H])c5[H])c(C(=O)N([H])[H])c4N([H])[H])C3([H])[H])[N+]([H])([H])[H])c([H])c([H])c2C1([H])[H]

$$$$
47:0:0
     RDKit          3D

 95103  0  0  1  0  0  0  0  0999 V2000
  -31.4060  -23.0230   22.3310 C   0  0  0  0  0  2  0  0  0  0  0  0
  -30.5470  -19.5230   21.0820 C   0  0  0  0  0  3  0  0  0  0  0  0
  -31.3860  -19.3160   23.3580 C   0  0  0  0  0  3  0  0  0  0  0  0
  -30.7490  -20.9120   21.1340 C   0  0  0  0  0  3  0  0  0  0  0  0
  -31.5860  -20.7120   23.4140 C   0  0  0  0  0  3  0  0  0  0  0  0
  -30.8520  -18.7070   22.1980 C   0  0  0  0  0  0  0  0  0  0  0  0
  -31.2600  -21.5140   22.3000 C   0  0  0  0  0  0  0  0  0  0  0  0
  -30.6210  -17.2310   22.1670 C   0  0  0  0  0  0  0  0  0  0  0  0
  -31.0590  -16.4560   23.0270 O   0  0  0  0  0  0  0  0  0  0  0  0
  -29.7460  -16.6940   21.0240 C   0  0  0  0  0  2  0  0  0  0  0  0
  -30.2630  -14.3650   20.3500 C   0  0  0  0  0  0  0  0  0  0  0  0
  -30.0050  -12.2860   19.0610 C   0  0  0  0  0  2  0  0  0  0  0  0
  -29.0010  -12.5380   17.9150 C   0  0  0  0  0  2  0  0  0  0  0  0
  -27.5510  -12.3250   18.3930 C   0  0  0  0  0  2  0  0  0  0  0  0
  -27.2420  -13.0690   19.7190 C   0  0  0  0  0  3  0  0  0  0  0  0
  -28.3460  -12.7880   20.7650 C   0  0  0  0  0  2  0  0  0  0  0  0
  -29.6440  -13.1710   20.1760 N   0  0  0  0  0  0  0  0  0  0  0  0
  -31.3100  -14.6860   19.7790 O   0  0  0  0  0  0  0  0  0  0  0  0
  -29.5590  -15.2450   21.0670 N   0  0  0  0  0  0  0  0  0  0  0  0
  -28.7340  -14.9020   21.5340 H   0  0  0  0  0  0  0  0  0  0  0  0
  -24.8180  -13.5450   20.4580 C   0  0  0  0  0  0  0  0  0  0  0  0
  -23.8100  -12.7160   20.8720 C   0  0  0  0  0  0  0  0  0  0  0  0
  -24.3580  -11.3970   20.8660 C   0  0  0  0  0  0  0  0  0  0  0  0
  -25.9150  -12.7260   20.2290 N   0  0  0  0  0  0  0  0  0  0  0  0
  -25.6400  -11.4310   20.5280 N   0  0  0  0  0  0  0  0  0  0  0  0
  -23.7220  -10.0940   21.1070 C   0  0  0  0  0  0  0  0  0  0  0  0
  -24.1990   -9.2110   22.0990 C   0  0  0  0  0  3  0  0  0  0  0  0
  -23.5590   -7.9740   22.3240 C   0  0  0  0  0  3  0  0  0  0  0  0
  -22.4280   -7.6100   21.5540 C   0  0  0  0  0  0  0  0  0  0  0  0
  -21.9710   -8.4830   20.5520 C   0  0  0  0  0  3  0  0  0  0  0  0
  -22.6120   -9.7120   20.3260 C   0  0  0  0  0  3  0  0  0  0  0  0
  -21.7590   -6.4160   21.6840 O   0  0  0  0  0  0  0  0  0  0  0  0
  -21.7030   -5.7500   22.8810 C   0  0  0  0  0  0  0  0  0  0  0  0
  -21.1660   -6.3470   24.0430 C   0  0  0  0  0  3  0  0  0  0  0  0
  -21.0620   -5.6030   25.2340 C   0  0  0  0  0  3  0  0  0  0  0  0
  -21.4870   -4.2610   25.2670 C   0  0  0  0  0  0  0  0  0  0  0  0
  -22.0180   -3.6630   24.1090 C   0  0  0  0  0  3  0  0  0  0  0  0
  -22.1230   -4.4050   22.9200 C   0  0  0  0  0  0  0  0  0  0  0  0
  -22.6160   -3.8170   21.8040 F   0  0  0  0  0  0  0  0  0  0  0  0
  -21.3810   -3.5430   26.4090 F   0  0  0  0  0  0  0  0  0  0  0  0
  -22.3910  -13.1090   21.1670 C   0  0  0  0  0  0  0  0  0  0  0  0
  -21.7360  -12.4020   22.0820 N   0  0  0  0  0  0  0  0  0  0  0  0
  -21.8690  -14.0800   20.6210 O   0  0  0  0  0  0  0  0  0  0  0  0
  -22.1700  -11.6190   22.5460 H   0  0  0  0  0  0  0  0  0  0  0  0
  -20.7870  -12.6510   22.3230 H   0  0  0  0  0  0  0  0  0  0  0  0
  -24.8890  -14.9180   20.2410 N   0  0  0  0  0  0  0  0  0  0  0  0
  -24.0830  -15.5250   20.3460 H   0  0  0  0  0  0  0  0  0  0  0  0
  -25.7020  -15.3990   19.8750 H   0  0  0  0  0  0  0  0  0  0  0  0
  -30.1630  -23.6950   22.9450 C   0  0  0  0  0  2  0  0  0  0  0  0
  -30.0120  -25.1160   22.5550 N   0  0  0  0  0  4  0  0  0  0  0  0
  -30.8940  -25.5960   22.6550 H   0  0  0  0  0  0  0  0  0  0  0  0
  -29.3740  -25.5270   23.2190 H   0  0  0  0  0  0  0  0  0  0  0  0
  -29.4530  -25.2990   21.1890 C   0  0  0  0  0  2  0  0  0  0  0  0
  -28.9060  -26.7120   20.9510 C   0  0  0  0  0  2  0  0  0  0  0  0
  -28.0620  -26.6660   19.7970 O   0  0  0  0  0  0  0  0  0  0  0  0
  -24.4530  -31.8300   23.0960 C   0  0  0  0  0  0  0  0  0  0  0  0
  -26.9330  -27.4470   19.8560 C   0  0  0  0  0  0  0  0  0  0  0  0
  -23.1680  -30.4910   21.4560 C   0  0  0  0  0  3  0  0  0  0  0  0
  -24.5520  -28.9590   19.9570 C   0  0  0  0  0  0  0  0  0  0  0  0
  -25.6850  -30.8220   21.1850 C   0  0  0  0  0  2  0  0  0  0  0  0
  -25.7280  -29.4640   20.5230 C   0  0  0  0  0  0  0  0  0  0  0  0
  -26.9200  -28.7170   20.4740 C   0  0  0  0  0  3  0  0  0  0  0  0
  -25.7490  -26.9540   19.2710 C   0  0  0  0  0  3  0  0  0  0  0  0
  -24.5540  -27.7010   19.3270 C   0  0  0  0  0  3  0  0  0  0  0  0
  -23.3220  -29.8320   20.0570 C   0  0  0  0  0  2  0  0  0  0  0  0
  -24.4560  -31.0600   21.9730 N   0  0  0  0  0  0  0  0  0  0  0  0
  -23.3950  -32.1110   23.6760 O   0  0  0  0  0  0  0  0  0  0  0  0
  -22.5250  -29.4620   22.4130 C   0  0  0  0  0  0  0  0  0  0  0  0
  -21.1940  -29.3110   22.3160 N   0  0  0  0  0  0  0  0  0  0  0  0
  -23.2180  -28.8050   23.1930 O   0  0  0  0  0  0  0  0  0  0  0  0
  -20.6990  -29.8930   21.6550 H   0  0  0  0  0  0  0  0  0  0  0  0
  -17.8090  -28.1830   22.8730 C   0  0  0  0  0  0  0  0  0  0  0  0
  -20.3780  -28.3750   23.0860 C   0  0  0  0  0  3  0  0  0  0  0  0
  -20.4320  -26.9560   22.4750 C   0  0  0  0  0  2  0  0  0  0  0  0
  -19.2970  -26.6820   21.4810 C   0  0  0  0  0  2  0  0  0  0  0  0
  -17.9360  -26.8450   22.1640 C   0  0  0  0  0  2  0  0  0  0  0  0
  -18.9560  -28.9080   23.2920 C   0  0  0  0  0  0  0  0  0  0  0  0
  -18.7820  -30.1630   23.9130 C   0  0  0  0  0  3  0  0  0  0  0  0
  -17.4950  -30.6920   24.1220 C   0  0  0  0  0  3  0  0  0  0  0  0
  -16.3630  -29.9630   23.7200 C   0  0  0  0  0  3  0  0  0  0  0  0
  -16.5210  -28.7090   23.1010 C   0  0  0  0  0  3  0  0  0  0  0  0
  -25.7720  -32.4150   23.6930 C   0  0  0  0  0  3  0  0  0  0  0  0
  -25.5030  -33.8060   24.0780 N   0  0  0  0  0  0  0  0  0  0  0  0
  -25.8580  -34.8760   23.3530 C   0  0  0  0  0  0  0  0  0  0  0  0
  -26.5180  -34.7920   22.3140 O   0  0  0  0  0  0  0  0  0  0  0  0
  -24.9130  -33.9460   24.8860 H   0  0  0  0  0  0  0  0  0  0  0  0
  -24.1840  -36.7300   23.0630 C   0  0  0  0  0  1  0  0  0  0  0  0
  -25.4090  -36.2590   23.8640 C   0  0  0  0  0  3  0  0  0  0  0  0
  -27.5630  -37.0470   24.7390 C   0  0  0  0  0  1  0  0  0  0  0  0
  -26.4730  -37.2840   23.7960 N   0  0  0  0  0  0  0  0  0  0  0  0
  -26.0940  -38.2110   23.9740 H   0  0  0  0  0  0  0  0  0  0  0  0
  -26.3220  -31.5890   24.9200 C   0  0  1  0  0  0  0  0  0  0  0  0
  -25.2640  -31.3300   26.0170 C   0  0  0  0  0  1  0  0  0  0  0  0
  -26.8670  -30.2180   24.4530 C   0  0  0  0  0  1  0  0  0  0  0  0
  -27.5110  -32.3390   25.5650 C   0  0  0  0  0  1  0  0  0  0  0  0
  1 49  1  0
  2  4  2  0
  2  6  1  0
  3  5  1  0
  4  7  1  0
  6  3  2  0
  7  1  1  0
  7  5  2  0
  8  6  1  0
  8  9  2  0
 10 19  1  0
 10  8  1  0
 11 19  1  0
 12 17  1  0
 13 14  1  0
 13 12  1  0
 15 14  1  0
 15 24  1  0
 15 16  1  0
 17 11  1  0
 17 16  1  0
 18 11  2  0
 19 20  1  0
 21 22  2  0
 22 41  1  0
 23 22  1  0
 23 26  1  0
 24 21  1  0
 24 25  1  0
 25 23  2  0
 26 27  1  0
 27 28  2  0
 29 32  1  0
 29 28  1  0
 30 29  2  0
 31 30  1  0
 31 26  2  0
 32 33  1  0
 33 38  2  0
 33 34  1  0
 34 35  2  0
 35 36  1  0
 36 40  1  0
 37 36  2  0
 38 37  1  0
 39 38  1  0
 41 42  1  0
 42 45  1  0
 42 44  1  0
 43 41  2  0
 46 47  1  0
 46 21  1  0
 48 46  1  0
 50 51  1  0
 50 49  1  0
 50 52  1  0
 53 50  1  0
 54 53  1  0
 55 57  1  0
 55 54  1  0
 56 67  2  0
 57 62  1  0
 58 66  1  0
 58 68  1  0
 59 65  1  0
 59 61  1  0
 60 66  1  0
 61 60  1  0
 62 61  2  0
 63 64  1  0
 63 57  2  0
 64 59  2  0
 65 58  1  0
 66 56  1  0
 68 70  2  0
 69 68  1  0
 71 69  1  0
 72 81  2  0
 72 77  1  0
 73 69  1  0
 73 77  1  0
 74 73  1  0
 75 76  1  0
 75 74  1  0
 76 72  1  0
 77 78  2  0
 78 79  1  0
 80 79  2  0
 81 80  1  0
 82 56  1  0
 82 83  1  0
 82 92  1  0
 83 86  1  0
 84 88  1  0
 84 83  1  0
 85 84  2  0
 88 87  1  0
 90 88  1  0
 90 91  1  0
 90 89  1  0
 92 95  1  1
 92 93  1  0
 94 92  1  0
M  ISO  4  11 100  19 100  54 101  55 101
M  END
>  <TORSDO>  (47) 
F 23

>  <SCORE>  (47) 
-11.275

>  <name>  (47) 
47

>  <ligand_id>  (47) 
47

>  <original_smiles>  (47) 
[H]c1c([H])c([H])c2c(c1[H])C([H])([H])C([H])([H])C([H])([H])C2([H])N([H])C(=O)C1([H])N(C(=O)C([H])(N([H])C(=O)C([H])(N([H])C([H])([H])[H])C([H])([H])[H])C(C([H])([H])[H])(C([H])([H])[H])C([H])([H])[H])C([H])([H])c2c([H])c(OC([H])([H])C([H])([H])[N+]([H])([H])C([H])([H])C([H])([H])c3c([H])c([H])c(C(=O)C([H])([H])N([H])C(=O)N4C([H])([H])C([H])([H])C([H])([H])C([H])(n5nc(-c6c([H])c([H])c(Oc7c([H])c([H])c(F)c([H])c7F)c([H])c6[H])c(C(=O)N([H])[H])c5N([H])[H])C4([H])[H])c([H])c3[H])c([H])c([H])c2C1([H])[H]

>  <smiles>  (47) 
[H]c1c([H])c([H])c2c(c1[H])C([H])([H])C([H])([H])C([H])([H])C2([H])N([H])C(=O)C1([H])N(C(=O)C([H])(N([H])C(=O)C([H])(N([H])C([H])([H])[H])C([H])([H])[H])C(C([H])([H])[H])(C([H])([H])[H])C([H])([H])[H])C([H])([H])c2c([H])c(OC([H])([H])C([H])([H])[N+]([H])([H])C([H])([H])C([H])([H])c3c([H])c([H])c(C(=O)C([H])([H])N([H])C(=O)N4C([H])([H])C([H])([H])C([H])([H])C([H])(n5nc(-c6c([H])c([H])c(Oc7c([H])c([H])c(F)c([H])c7F)c([H])c6[H])c(C(=O)N([H])[H])c5N([H])[H])C4([H])[H])c([H])c3[H])c([H])c([H])c2C1([H])[H]

$$$$
48:0:0
     RDKit          3D

100108  0  0  1  0  0  0  0  0999 V2000
  -31.5530  -22.0050   26.2760 C   0  0  0  0  0  0  0  0  0  0  0  0
  -31.1890  -23.1410   25.6630 N   0  0  0  0  0  0  0  0  0  0  0  0
  -31.5690  -21.9160   27.5030 O   0  0  0  0  0  0  0  0  0  0  0  0
  -31.0070  -23.9210   26.2790 H   0  0  0  0  0  0  0  0  0  0  0  0
  -31.6340  -18.4890   24.7830 C   0  0  0  0  0  3  0  0  0  0  0  0
  -33.3770  -19.8200   23.7240 C   0  0  0  0  0  3  0  0  0  0  0  0
  -31.2770  -19.5960   25.5790 C   0  0  0  0  0  3  0  0  0  0  0  0
  -33.0110  -20.9300   24.5100 C   0  0  0  0  0  3  0  0  0  0  0  0
  -32.6850  -18.5910   23.8390 C   0  0  0  0  0  0  0  0  0  0  0  0
  -31.9460  -20.8280   25.4300 C   0  0  0  0  0  0  0  0  0  0  0  0
  -33.1040  -17.4390   22.9840 C   0  0  0  0  0  0  0  0  0  0  0  0
  -34.1220  -17.4610   22.2850 O   0  0  0  0  0  0  0  0  0  0  0  0
  -32.2220  -16.1850   22.9500 C   0  0  0  0  0  2  0  0  0  0  0  0
  -30.9380  -16.3790   22.1130 C   0  0  0  0  0  2  0  0  0  0  0  0
  -30.7710  -14.3480   20.6860 C   0  0  0  0  0  0  0  0  0  0  0  0
  -30.4130  -12.2820   19.3900 C   0  0  0  0  0  2  0  0  0  0  0  0
  -29.4800  -12.5260   18.1910 C   0  0  0  0  0  2  0  0  0  0  0  0
  -28.0050  -12.3800   18.6090 C   0  0  0  0  0  2  0  0  0  0  0  0
  -27.6660  -13.2010   19.8800 C   0  0  0  0  0  3  0  0  0  0  0  0
  -28.7030  -12.9380   20.9950 C   0  0  0  0  0  2  0  0  0  0  0  0
  -30.0490  -13.2220   20.4610 N   0  0  0  0  0  0  0  0  0  0  0  0
  -31.7760  -14.6570   20.0390 O   0  0  0  0  0  0  0  0  0  0  0  0
  -30.3470  -15.1040   21.7070 N   0  0  0  0  0  0  0  0  0  0  0  0
  -29.5290  -14.7800   22.2040 H   0  0  0  0  0  0  0  0  0  0  0  0
  -25.2600  -13.8150   20.5680 C   0  0  0  0  0  0  0  0  0  0  0  0
  -24.1840  -13.0440   20.9160 C   0  0  0  0  0  0  0  0  0  0  0  0
  -24.6390  -11.6900   20.8730 C   0  0  0  0  0  0  0  0  0  0  0  0
  -26.3040  -12.9320   20.3390 N   0  0  0  0  0  0  0  0  0  0  0  0
  -25.9310  -11.6480   20.5760 N   0  0  0  0  0  0  0  0  0  0  0  0
  -23.9050  -10.4290   21.0400 C   0  0  0  0  0  0  0  0  0  0  0  0
  -24.3610   -9.4210   21.9180 C   0  0  0  0  0  3  0  0  0  0  0  0
  -23.6290   -8.2250   22.0750 C   0  0  0  0  0  3  0  0  0  0  0  0
  -22.4270   -8.0280   21.3550 C   0  0  0  0  0  0  0  0  0  0  0  0
  -21.9900   -9.0260   20.4650 C   0  0  0  0  0  3  0  0  0  0  0  0
  -22.7230  -10.2140   20.3050 C   0  0  0  0  0  3  0  0  0  0  0  0
  -21.6640   -6.8880   21.4240 O   0  0  0  0  0  0  0  0  0  0  0  0
  -21.6860   -6.0740   22.5280 C   0  0  0  0  0  0  0  0  0  0  0  0
  -21.4020   -6.5640   23.8210 C   0  0  0  0  0  3  0  0  0  0  0  0
  -21.3660   -5.6790   24.9180 C   0  0  0  0  0  3  0  0  0  0  0  0
  -21.6040   -4.3060   24.7220 C   0  0  0  0  0  0  0  0  0  0  0  0
  -21.8820   -3.8150   23.4350 C   0  0  0  0  0  3  0  0  0  0  0  0
  -21.9190   -4.6970   22.3400 C   0  0  0  0  0  0  0  0  0  0  0  0
  -22.1660   -4.2150   21.0980 F   0  0  0  0  0  0  0  0  0  0  0  0
  -21.5630   -3.4540   25.7740 F   0  0  0  0  0  0  0  0  0  0  0  0
  -22.7860  -13.5240   21.1830 C   0  0  0  0  0  0  0  0  0  0  0  0
  -22.0510  -12.8240   22.0390 N   0  0  0  0  0  0  0  0  0  0  0  0
  -22.3550  -14.5560   20.6690 O   0  0  0  0  0  0  0  0  0  0  0  0
  -22.4120  -11.9890   22.4770 H   0  0  0  0  0  0  0  0  0  0  0  0
  -21.1130  -13.1270   22.2610 H   0  0  0  0  0  0  0  0  0  0  0  0
  -25.4340  -15.1870   20.4090 N   0  0  0  0  0  0  0  0  0  0  0  0
  -24.6730  -15.8480   20.5190 H   0  0  0  0  0  0  0  0  0  0  0  0
  -26.2980  -15.6250   20.1120 H   0  0  0  0  0  0  0  0  0  0  0  0
  -30.8800  -23.3520   24.2470 C   0  0  0  0  0  2  0  0  0  0  0  0
  -29.5160  -24.0520   24.0820 C   0  0  0  0  0  2  0  0  0  0  0  0
  -29.1800  -24.2620   22.6600 N   0  0  0  0  0  4  0  0  0  0  0  0
  -30.0480  -24.7660   22.7550 H   0  0  0  0  0  0  0  0  0  0  0  0
  -28.2770  -24.3140   23.1080 H   0  0  0  0  0  0  0  0  0  0  0  0
  -28.7380  -25.5590   22.0980 C   0  0  0  0  0  2  0  0  0  0  0  0
  -28.4910  -25.4800   20.5780 C   0  0  0  0  0  2  0  0  0  0  0  0
  -28.4440  -26.7990   20.0380 O   0  0  0  0  0  0  0  0  0  0  0  0
  -24.6100  -31.8690   23.2110 C   0  0  0  0  0  0  0  0  0  0  0  0
  -27.2450  -27.4670   20.0990 C   0  0  0  0  0  0  0  0  0  0  0  0
  -23.3970  -30.4910   21.5500 C   0  0  0  0  0  3  0  0  0  0  0  0
  -24.8460  -28.9530   20.1230 C   0  0  0  0  0  0  0  0  0  0  0  0
  -25.9210  -30.8470   21.3560 C   0  0  0  0  0  2  0  0  0  0  0  0
  -26.0010  -29.4790   20.7130 C   0  0  0  0  0  0  0  0  0  0  0  0
  -27.2040  -28.7430   20.6960 C   0  0  0  0  0  3  0  0  0  0  0  0
  -26.0730  -26.9420   19.5110 C   0  0  0  0  0  3  0  0  0  0  0  0
  -24.8740  -27.6820   19.5220 C   0  0  0  0  0  3  0  0  0  0  0  0
  -23.6060  -29.8170   20.1670 C   0  0  0  0  0  2  0  0  0  0  0  0
  -24.6610  -31.0830   22.0990 N   0  0  0  0  0  0  0  0  0  0  0  0
  -23.5310  -32.1430   23.7530 O   0  0  0  0  0  0  0  0  0  0  0  0
  -22.7390  -29.4660   22.5010 C   0  0  0  0  0  0  0  0  0  0  0  0
  -21.4130  -29.3020   22.3760 N   0  0  0  0  0  0  0  0  0  0  0  0
  -23.4190  -28.8190   23.3020 O   0  0  0  0  0  0  0  0  0  0  0  0
  -20.9280  -29.8750   21.7000 H   0  0  0  0  0  0  0  0  0  0  0  0
  -18.0270  -28.1370   22.8490 C   0  0  0  0  0  0  0  0  0  0  0  0
  -20.5860  -28.3640   23.1340 C   0  0  0  0  0  3  0  0  0  0  0  0
  -20.6760  -26.9390   22.5420 C   0  0  0  0  0  2  0  0  0  0  0  0
  -19.5740  -26.6380   21.5210 C   0  0  0  0  0  2  0  0  0  0  0  0
  -18.1920  -26.7910   22.1620 C   0  0  0  0  0  2  0  0  0  0  0  0
  -19.1520  -28.8830   23.2910 C   0  0  0  0  0  0  0  0  0  0  0  0
  -18.9450  -30.1440   23.8910 C   0  0  0  0  0  3  0  0  0  0  0  0
  -17.6450  -30.6580   24.0560 C   0  0  0  0  0  3  0  0  0  0  0  0
  -16.5350  -29.9080   23.6320 C   0  0  0  0  0  3  0  0  0  0  0  0
  -16.7260  -28.6510   23.0330 C   0  0  0  0  0  3  0  0  0  0  0  0
  -25.9010  -32.4820   23.8400 C   0  0  0  0  0  3  0  0  0  0  0  0
  -26.4450  -31.6600   25.0710 C   0  0  1  0  0  0  0  0  0  0  0  0
  -25.3740  -31.3700   26.1470 C   0  0  0  0  0  1  0  0  0  0  0  0
  -27.0280  -30.3050   24.6040 C   0  0  0  0  0  1  0  0  0  0  0  0
  -27.6030  -32.4320   25.7470 C   0  0  0  0  0  1  0  0  0  0  0  0
  -25.5880  -33.8620   24.2330 N   0  0  0  0  0  0  0  0  0  0  0  0
  -25.9030  -34.9480   23.5130 C   0  0  0  0  0  0  0  0  0  0  0  0
  -26.5590  -34.8920   22.4690 O   0  0  0  0  0  0  0  0  0  0  0  0
  -25.0010  -33.9790   25.0450 H   0  0  0  0  0  0  0  0  0  0  0  0
  -24.1490  -36.7330   23.2640 C   0  0  0  0  0  1  0  0  0  0  0  0
  -25.4100  -36.3110   24.0340 C   0  0  0  0  0  3  0  0  0  0  0  0
  -27.5580  -37.1820   24.8460 C   0  0  0  0  0  1  0  0  0  0  0  0
  -26.4290  -37.3790   23.9400 N   0  0  0  0  0  0  0  0  0  0  0  0
  -26.0180  -38.2870   24.1410 H   0  0  0  0  0  0  0  0  0  0  0  0
  1  3  2  0
  2  1  1  0
  2  4  1  0
  5  7  1  0
  6  9  1  0
  6  8  2  0
  8 10  1  0
  9  5  2  0
 10  7  2  0
 10  1  1  0
 11  9  1  0
 12 11  2  0
 13 11  1  0
 14 13  1  0
 15 23  1  0
 16 21  1  0
 17 18  1  0
 17 16  1  0
 19 18  1  0
 19 28  1  0
 19 20  1  0
 21 15  1  0
 21 20  1  0
 22 15  2  0
 23 14  1  0
 23 24  1  0
 25 26  2  0
 26 45  1  0
 27 26  1  0
 27 30  1  0
 28 25  1  0
 28 29  1  0
 29 27  2  0
 30 31  1  0
 31 32  2  0
 33 36  1  0
 33 32  1  0
 34 33  2  0
 35 34  1  0
 35 30  2  0
 36 37  1  0
 37 38  1  0
 38 39  2  0
 40 39  1  0
 40 44  1  0
 41 40  2  0
 42 37  2  0
 42 41  1  0
 43 42  1  0
 45 46  1  0
 46 49  1  0
 46 48  1  0
 47 45  2  0
 50 51  1  0
 50 25  1  0
 52 50  1  0
 53  2  1  0
 54 53  1  0
 55 56  1  0
 55 57  1  0
 55 54  1  0
 58 55  1  0
 59 58  1  0
 60 62  1  0
 60 59  1  0
 61 72  2  0
 62 67  1  0
 63 71  1  0
 63 73  1  0
 64 70  1  0
 64 66  1  0
 65 71  1  0
 66 65  1  0
 67 66  2  0
 68 69  1  0
 68 62  2  0
 69 64  2  0
 70 63  1  0
 71 61  1  0
 73 75  2  0
 74 73  1  0
 76 74  1  0
 77 86  2  0
 77 82  1  0
 78 74  1  0
 78 82  1  0
 79 78  1  0
 80 81  1  0
 80 79  1  0
 81 77  1  0
 82 83  2  0
 83 84  1  0
 85 84  2  0
 86 85  1  0
 87 61  1  0
 87 92  1  0
 87 88  1  0
 88 91  1  1
 88 89  1  0
 90 88  1  0
 92 95  1  0
 93 97  1  0
 93 92  1  0
 94 93  2  0
 97 96  1  0
 99 97  1  0
 99100  1  0
 99 98  1  0
M  ISO  4  15 100  23 100  59 101  60 101
M  END
>  <TORSDO>  (48) 
F 25

>  <SCORE>  (48) 
19.138

>  <name>  (48) 
48

>  <ligand_id>  (48) 
48

>  <original_smiles>  (48) 
[H]c1c([H])c([H])c2c(c1[H])C([H])([H])C([H])([H])C([H])([H])C2([H])N([H])C(=O)C1([H])N(C(=O)C([H])(N([H])C(=O)C([H])(N([H])C([H])([H])[H])C([H])([H])[H])C(C([H])([H])[H])(C([H])([H])[H])C([H])([H])[H])C([H])([H])c2c([H])c(OC([H])([H])C([H])([H])[N+]([H])([H])C([H])([H])C([H])([H])N([H])C(=O)c3c([H])c([H])c(C(=O)C([H])([H])C([H])([H])N([H])C(=O)N4C([H])([H])C([H])([H])C([H])([H])C([H])(n5nc(-c6c([H])c([H])c(Oc7c([H])c([H])c(F)c([H])c7F)c([H])c6[H])c(C(=O)N([H])[H])c5N([H])[H])C4([H])[H])c([H])c3[H])c([H])c([H])c2C1([H])[H]

>  <smiles>  (48) 
[H]c1c([H])c([H])c2c(c1[H])C([H])([H])C([H])([H])C([H])([H])C2([H])N([H])C(=O)C1([H])N(C(=O)C([H])(N([H])C(=O)C([H])(N([H])C([H])([H])[H])C([H])([H])[H])C(C([H])([H])[H])(C([H])([H])[H])C([H])([H])[H])C([H])([H])c2c([H])c(OC([H])([H])C([H])([H])[N+]([H])([H])C([H])([H])C([H])([H])N([H])C(=O)c3c([H])c([H])c(C(=O)C([H])([H])C([H])([H])N([H])C(=O)N4C([H])([H])C([H])([H])C([H])([H])C([H])(n5nc(-c6c([H])c([H])c(Oc7c([H])c([H])c(F)c([H])c7F)c([H])c6[H])c(C(=O)N([H])[H])c5N([H])[H])C4([H])[H])c([H])c3[H])c([H])c([H])c2C1([H])[H]

$$$$
49:0:0
     RDKit          3D

 92 99  0  0  1  0  0  0  0  0999 V2000
  -26.3980  -21.6990   22.7550 C   0  0  0  0  0  0  0  0  0  0  0  0
  -26.7140  -20.3970   22.7790 N   0  0  0  0  0  0  0  0  0  0  0  0
  -25.8590  -22.2290   23.7250 O   0  0  0  0  0  0  0  0  0  0  0  0
  -26.4780  -19.8910   23.6220 H   0  0  0  0  0  0  0  0  0  0  0  0
  -26.6970  -22.5410   21.5100 C   0  0  0  0  0  2  0  0  0  0  0  0
  -28.0900  -23.2050   21.5830 C   0  0  0  0  0  2  0  0  0  0  0  0
  -28.0380  -24.7270   21.4590 C   0  0  0  0  0  0  0  0  0  0  0  0
  -27.7130  -25.4220   22.4260 O   0  0  0  0  0  0  0  0  0  0  0  0
  -28.4260  -25.3340   20.0980 C   0  0  0  0  0  2  0  0  0  0  0  0
  -28.4350  -26.7690   20.1240 O   0  0  0  0  0  0  0  0  0  0  0  0
  -24.6110  -31.8690   23.2100 C   0  0  0  0  0  0  0  0  0  0  0  0
  -27.2380  -27.4530   20.1000 C   0  0  0  0  0  0  0  0  0  0  0  0
  -23.3980  -30.4930   21.5490 C   0  0  0  0  0  3  0  0  0  0  0  0
  -24.8440  -28.9590   20.1130 C   0  0  0  0  0  0  0  0  0  0  0  0
  -25.9220  -30.8430   21.3550 C   0  0  0  0  0  2  0  0  0  0  0  0
  -26.0010  -29.4790   20.7050 C   0  0  0  0  0  0  0  0  0  0  0  0
  -27.1990  -28.7350   20.6920 C   0  0  0  0  0  3  0  0  0  0  0  0
  -26.0620  -26.9400   19.5060 C   0  0  0  0  0  3  0  0  0  0  0  0
  -24.8690  -27.6900   19.5100 C   0  0  0  0  0  3  0  0  0  0  0  0
  -23.6030  -29.8210   20.1650 C   0  0  0  0  0  2  0  0  0  0  0  0
  -24.6630  -31.0830   22.0970 N   0  0  0  0  0  0  0  0  0  0  0  0
  -23.5310  -32.1420   23.7530 O   0  0  0  0  0  0  0  0  0  0  0  0
  -22.7390  -29.4670   22.4980 C   0  0  0  0  0  0  0  0  0  0  0  0
  -21.4120  -29.3060   22.3760 N   0  0  0  0  0  0  0  0  0  0  0  0
  -23.4190  -28.8200   23.2990 O   0  0  0  0  0  0  0  0  0  0  0  0
  -20.9250  -29.8760   21.6990 H   0  0  0  0  0  0  0  0  0  0  0  0
  -18.0290  -28.1370   22.8490 C   0  0  0  0  0  0  0  0  0  0  0  0
  -20.5870  -28.3660   23.1340 C   0  0  0  0  0  3  0  0  0  0  0  0
  -20.6780  -26.9420   22.5370 C   0  0  0  0  0  2  0  0  0  0  0  0
  -19.5760  -26.6490   21.5140 C   0  0  0  0  0  2  0  0  0  0  0  0
  -18.1960  -26.7930   22.1610 C   0  0  0  0  0  2  0  0  0  0  0  0
  -19.1530  -28.8830   23.2930 C   0  0  0  0  0  0  0  0  0  0  0  0
  -18.9450  -30.1430   23.8940 C   0  0  0  0  0  3  0  0  0  0  0  0
  -17.6440  -30.6550   24.0600 C   0  0  0  0  0  3  0  0  0  0  0  0
  -16.5350  -29.9060   23.6300 C   0  0  0  0  0  3  0  0  0  0  0  0
  -16.7280  -28.6490   23.0300 C   0  0  0  0  0  3  0  0  0  0  0  0
  -25.9010  -32.4830   23.8400 C   0  0  0  0  0  3  0  0  0  0  0  0
  -25.5860  -33.8630   24.2330 N   0  0  0  0  0  0  0  0  0  0  0  0
  -25.9020  -34.9480   23.5130 C   0  0  0  0  0  0  0  0  0  0  0  0
  -26.5590  -34.8940   22.4700 O   0  0  0  0  0  0  0  0  0  0  0  0
  -25.0010  -33.9800   25.0470 H   0  0  0  0  0  0  0  0  0  0  0  0
  -24.1480  -36.7330   23.2640 C   0  0  0  0  0  1  0  0  0  0  0  0
  -25.4100  -36.3120   24.0340 C   0  0  0  0  0  3  0  0  0  0  0  0
  -27.5580  -37.1820   24.8470 C   0  0  0  0  0  1  0  0  0  0  0  0
  -26.4290  -37.3800   23.9400 N   0  0  0  0  0  0  0  0  0  0  0  0
  -26.0180  -38.2890   24.1370 H   0  0  0  0  0  0  0  0  0  0  0  0
  -26.4450  -31.6610   25.0720 C   0  0  1  0  0  0  0  0  0  0  0  0
  -25.3750  -31.3690   26.1490 C   0  0  0  0  0  1  0  0  0  0  0  0
  -27.0270  -30.3060   24.6060 C   0  0  0  0  0  1  0  0  0  0  0  0
  -27.6030  -32.4310   25.7490 C   0  0  0  0  0  1  0  0  0  0  0  0
  -27.3710  -19.6370   21.7210 C   0  0  0  0  0  2  0  0  0  0  0  0
  -27.9050  -18.2960   22.2530 C   0  0  0  0  0  2  0  0  0  0  0  0
  -28.6420  -17.5020   21.1640 C   0  0  0  0  0  2  0  0  0  0  0  0
  -29.1850  -16.1420   21.6380 C   0  0  0  0  0  2  0  0  0  0  0  0
  -30.6950  -14.4360   20.5490 C   0  0  0  0  0  0  0  0  0  0  0  0
  -30.4240  -12.2860   19.4020 C   0  0  0  0  0  2  0  0  0  0  0  0
  -29.4860  -12.4960   18.1940 C   0  0  0  0  0  2  0  0  0  0  0  0
  -28.0040  -12.3730   18.6080 C   0  0  0  0  0  2  0  0  0  0  0  0
  -27.6630  -13.1950   19.8810 C   0  0  0  0  0  3  0  0  0  0  0  0
  -28.7120  -12.9320   20.9870 C   0  0  0  0  0  2  0  0  0  0  0  0
  -30.0290  -13.2590   20.4290 N   0  0  0  0  0  0  0  0  0  0  0  0
  -31.8600  -14.5880   20.1810 O   0  0  0  0  0  0  0  0  0  0  0  0
  -29.9220  -15.5290   20.5360 N   0  0  0  0  0  0  0  0  0  0  0  0
  -30.3830  -16.2410   19.9890 H   0  0  0  0  0  0  0  0  0  0  0  0
  -25.2620  -13.8150   20.5690 C   0  0  0  0  0  0  0  0  0  0  0  0
  -24.1850  -13.0450   20.9180 C   0  0  0  0  0  0  0  0  0  0  0  0
  -24.6380  -11.6910   20.8740 C   0  0  0  0  0  0  0  0  0  0  0  0
  -26.3040  -12.9290   20.3430 N   0  0  0  0  0  0  0  0  0  0  0  0
  -25.9310  -11.6460   20.5810 N   0  0  0  0  0  0  0  0  0  0  0  0
  -23.9030  -10.4300   21.0410 C   0  0  0  0  0  0  0  0  0  0  0  0
  -24.3590   -9.4230   21.9190 C   0  0  0  0  0  3  0  0  0  0  0  0
  -23.6280   -8.2250   22.0760 C   0  0  0  0  0  3  0  0  0  0  0  0
  -22.4260   -8.0280   21.3550 C   0  0  0  0  0  0  0  0  0  0  0  0
  -21.9890   -9.0250   20.4650 C   0  0  0  0  0  3  0  0  0  0  0  0
  -22.7210  -10.2140   20.3060 C   0  0  0  0  0  3  0  0  0  0  0  0
  -21.6640   -6.8870   21.4230 O   0  0  0  0  0  0  0  0  0  0  0  0
  -21.6850   -6.0740   22.5280 C   0  0  0  0  0  0  0  0  0  0  0  0
  -21.4010   -6.5640   23.8210 C   0  0  0  0  0  3  0  0  0  0  0  0
  -21.3660   -5.6790   24.9180 C   0  0  0  0  0  3  0  0  0  0  0  0
  -21.6030   -4.3050   24.7230 C   0  0  0  0  0  0  0  0  0  0  0  0
  -21.8820   -3.8150   23.4350 C   0  0  0  0  0  3  0  0  0  0  0  0
  -21.9190   -4.6970   22.3410 C   0  0  0  0  0  0  0  0  0  0  0  0
  -22.1660   -4.2150   21.0980 F   0  0  0  0  0  0  0  0  0  0  0  0
  -21.5630   -3.4530   25.7740 F   0  0  0  0  0  0  0  0  0  0  0  0
  -22.7870  -13.5270   21.1820 C   0  0  0  0  0  0  0  0  0  0  0  0
  -22.0490  -12.8270   22.0370 N   0  0  0  0  0  0  0  0  0  0  0  0
  -22.3570  -14.5570   20.6660 O   0  0  0  0  0  0  0  0  0  0  0  0
  -22.4090  -11.9940   22.4790 H   0  0  0  0  0  0  0  0  0  0  0  0
  -21.1100  -13.1300   22.2550 H   0  0  0  0  0  0  0  0  0  0  0  0
  -25.4370  -15.1870   20.4080 N   0  0  0  0  0  0  0  0  0  0  0  0
  -24.6740  -15.8470   20.5060 H   0  0  0  0  0  0  0  0  0  0  0  0
  -26.3000  -15.6170   20.1030 H   0  0  0  0  0  0  0  0  0  0  0  0
  1  2  1  0
  1  3  2  0
  2  4  1  0
  5  6  1  0
  5  1  1  0
  7  6  1  0
  7  8  2  0
  9 10  1  0
  9  7  1  0
 11 22  2  0
 12 10  1  0
 12 17  1  0
 13 21  1  0
 13 23  1  0
 14 20  1  0
 14 16  1  0
 15 21  1  0
 16 15  1  0
 17 16  2  0
 18 19  1  0
 18 12  2  0
 19 14  2  0
 20 13  1  0
 21 11  1  0
 23 25  2  0
 24 23  1  0
 26 24  1  0
 27 36  2  0
 27 32  1  0
 28 24  1  0
 28 32  1  0
 29 28  1  0
 30 31  1  0
 30 29  1  0
 31 27  1  0
 32 33  2  0
 33 34  1  0
 35 34  2  0
 36 35  1  0
 37 11  1  0
 37 38  1  0
 37 47  1  0
 38 41  1  0
 39 43  1  0
 39 38  1  0
 40 39  2  0
 43 42  1  0
 45 43  1  0
 45 46  1  0
 45 44  1  0
 47 50  1  1
 47 48  1  0
 49 47  1  0
 51 52  1  0
 51  2  1  0
 53 54  1  0
 53 52  1  0
 56 61  1  0
 57 58  1  0
 57 56  1  0
 59 58  1  0
 59 68  1  0
 59 60  1  0
 61 55  1  0
 61 60  1  0
 62 55  2  0
 63 55  1  0
 63 54  1  0
 64 63  1  0
 65 66  2  0
 66 85  1  0
 67 66  1  0
 67 70  1  0
 68 65  1  0
 68 69  1  0
 69 67  2  0
 70 71  1  0
 71 72  2  0
 73 76  1  0
 73 72  1  0
 74 73  2  0
 75 74  1  0
 75 70  2  0
 76 77  1  0
 77 78  1  0
 78 79  2  0
 80 79  1  0
 80 84  1  0
 81 80  2  0
 82 77  2  0
 82 81  1  0
 83 82  1  0
 85 86  1  0
 86 89  1  0
 86 88  1  0
 87 85  2  0
 90 91  1  0
 90 65  1  0
 92 90  1  0
M  ISO  4   9 101  10 101  55 100  63 100
M  END
>  <TORSDO>  (49) 
F 24

>  <SCORE>  (49) 
10.388

>  <name>  (49) 
49

>  <ligand_id>  (49) 
49

>  <original_smiles>  (49) 
[H]c1c([H])c([H])c2c(c1[H])C([H])([H])C([H])([H])C([H])([H])C2([H])N([H])C(=O)C1([H])N(C(=O)C([H])(N([H])C(=O)C([H])(N([H])C([H])([H])[H])C([H])([H])[H])C(C([H])([H])[H])(C([H])([H])[H])C([H])([H])[H])C([H])([H])c2c([H])c(OC([H])([H])C(=O)C([H])([H])C([H])([H])C(=O)N([H])C([H])([H])C([H])([H])C([H])([H])C([H])([H])N([H])C(=O)N3C([H])([H])C([H])([H])C([H])([H])C([H])(n4nc(-c5c([H])c([H])c(Oc6c([H])c([H])c(F)c([H])c6F)c([H])c5[H])c(C(=O)N([H])[H])c4N([H])[H])C3([H])[H])c([H])c([H])c2C1([H])[H]

>  <smiles>  (49) 
[H]c1c([H])c([H])c2c(c1[H])C([H])([H])C([H])([H])C([H])([H])C2([H])N([H])C(=O)C1([H])N(C(=O)C([H])(N([H])C(=O)C([H])(N([H])C([H])([H])[H])C([H])([H])[H])C(C([H])([H])[H])(C([H])([H])[H])C([H])([H])[H])C([H])([H])c2c([H])c(OC([H])([H])C(=O)C([H])([H])C([H])([H])C(=O)N([H])C([H])([H])C([H])([H])C([H])([H])C([H])([H])N([H])C(=O)N3C([H])([H])C([H])([H])C([H])([H])C([H])(n4nc(-c5c([H])c([H])c(Oc6c([H])c([H])c(F)c([H])c6F)c([H])c5[H])c(C(=O)N([H])[H])c4N([H])[H])C3([H])[H])c([H])c([H])c2C1([H])[H]

$$$$
50:0:0
     RDKit          3D

104112  0  0  1  0  0  0  0  0999 V2000
  -30.5380  -20.6020   25.2470 C   0  0  0  0  0  3  0  0  0  0  0  0
  -29.8390  -19.0630   23.4970 C   0  0  0  0  0  3  0  0  0  0  0  0
  -30.3790  -21.6920   24.3600 C   0  0  0  0  0  3  0  0  0  0  0  0
  -29.6940  -20.1480   22.6100 C   0  0  0  0  0  3  0  0  0  0  0  0
  -30.2500  -19.2860   24.8270 C   0  0  0  0  0  0  0  0  0  0  0  0
  -29.9400  -21.4770   23.0320 C   0  0  0  0  0  0  0  0  0  0  0  0
  -30.3080  -18.1580   25.7650 C   0  0  0  0  0  0  0  0  0  0  0  0
  -29.2890  -17.9670   26.5970 N   0  0  0  0  0  4  0  0  0  0  0  0
  -31.3290  -17.2860   25.8090 N   0  0  0  0  0  0  0  0  0  0  0  0
  -28.5270  -18.6270   26.5820 H   0  0  0  0  0  0  0  0  0  0  0  0
  -29.2500  -17.2150   27.2670 H   0  0  0  0  0  0  0  0  0  0  0  0
  -31.3050  -16.5510   26.5010 H   0  0  0  0  0  0  0  0  0  0  0  0
  -32.4770  -17.2200   24.8870 C   0  0  0  0  0  2  0  0  0  0  0  0
  -32.1350  -16.4260   23.6120 C   0  0  0  0  0  2  0  0  0  0  0  0
  -31.6630  -17.3330   22.4720 C   0  0  0  0  0  2  0  0  0  0  0  0
  -30.9520  -16.5510   21.3570 C   0  0  0  0  0  2  0  0  0  0  0  0
  -30.8900  -17.3440   20.0440 C   0  0  0  0  0  2  0  0  0  0  0  0
  -30.1940  -16.5880   18.9010 C   0  0  0  0  0  2  0  0  0  0  0  0
  -30.4180  -14.1220   18.6390 C   0  0  0  0  0  0  0  0  0  0  0  0
  -30.1290  -11.7120   18.2090 C   0  0  0  0  0  2  0  0  0  0  0  0
  -29.0160  -11.4910   17.1680 C   0  0  0  0  0  2  0  0  0  0  0  0
  -27.6360  -11.4260   17.8520 C   0  0  0  0  0  2  0  0  0  0  0  0
  -27.3990  -12.6080   18.8290 C   0  0  0  0  0  3  0  0  0  0  0  0
  -28.6100  -12.7810   19.7750 C   0  0  0  0  0  2  0  0  0  0  0  0
  -29.8220  -12.9430   18.9510 N   0  0  0  0  0  0  0  0  0  0  0  0
  -31.3410  -14.2240   17.8250 O   0  0  0  0  0  0  0  0  0  0  0  0
  -29.8970  -15.1990   19.2390 N   0  0  0  0  0  0  0  0  0  0  0  0
  -29.1500  -15.0300   19.8960 H   0  0  0  0  0  0  0  0  0  0  0  0
  -25.3050  -13.4050   20.1020 C   0  0  0  0  0  0  0  0  0  0  0  0
  -24.2440  -12.7210   20.6370 C   0  0  0  0  0  0  0  0  0  0  0  0
  -24.5050  -11.3380   20.3920 C   0  0  0  0  0  0  0  0  0  0  0  0
  -26.1500  -12.4410   19.5720 N   0  0  0  0  0  0  0  0  0  0  0  0
  -25.6810  -11.1870   19.7990 N   0  0  0  0  0  0  0  0  0  0  0  0
  -23.6750  -10.1520   20.6370 C   0  0  0  0  0  0  0  0  0  0  0  0
  -24.0980   -9.1220   21.5050 C   0  0  0  0  0  3  0  0  0  0  0  0
  -23.2760   -7.9990   21.7400 C   0  0  0  0  0  3  0  0  0  0  0  0
  -22.0130   -7.8990   21.1080 C   0  0  0  0  0  0  0  0  0  0  0  0
  -21.6070   -8.9160   20.2250 C   0  0  0  0  0  3  0  0  0  0  0  0
  -22.4290  -10.0310   19.9900 C   0  0  0  0  0  3  0  0  0  0  0  0
  -21.1590   -6.8340   21.2540 O   0  0  0  0  0  0  0  0  0  0  0  0
  -21.0640   -6.1460   22.4360 C   0  0  0  0  0  0  0  0  0  0  0  0
  -20.7220   -6.7890   23.6470 C   0  0  0  0  0  3  0  0  0  0  0  0
  -20.5670   -6.0330   24.8260 C   0  0  0  0  0  3  0  0  0  0  0  0
  -20.7430   -4.6360   24.7970 C   0  0  0  0  0  0  0  0  0  0  0  0
  -21.0770   -3.9940   23.5910 C   0  0  0  0  0  3  0  0  0  0  0  0
  -21.2340   -4.7470   22.4140 C   0  0  0  0  0  0  0  0  0  0  0  0
  -21.5350   -4.1200   21.2510 F   0  0  0  0  0  0  0  0  0  0  0  0
  -20.5850   -3.9090   25.9270 F   0  0  0  0  0  0  0  0  0  0  0  0
  -23.0150  -13.3190   21.2560 C   0  0  0  0  0  0  0  0  0  0  0  0
  -22.4340  -12.6410   22.2420 N   0  0  0  0  0  0  0  0  0  0  0  0
  -22.5890  -14.4170   20.9030 O   0  0  0  0  0  0  0  0  0  0  0  0
  -22.7950  -11.7500   22.5440 H   0  0  0  0  0  0  0  0  0  0  0  0
  -21.6160  -13.0200   22.6970 H   0  0  0  0  0  0  0  0  0  0  0  0
  -25.6090  -14.7590   20.0010 N   0  0  0  0  0  0  0  0  0  0  0  0
  -24.9780  -15.4830   20.3300 H   0  0  0  0  0  0  0  0  0  0  0  0
  -26.4300  -15.1290   19.5380 H   0  0  0  0  0  0  0  0  0  0  0  0
  -29.5850  -22.6200   22.1110 C   0  0  0  0  0  0  0  0  0  0  0  0
  -29.6980  -23.8850   22.5660 N   0  0  0  0  0  0  0  0  0  0  0  0
  -29.1550  -22.3650   20.9810 O   0  0  0  0  0  0  0  0  0  0  0  0
  -30.1130  -24.0290   23.4760 H   0  0  0  0  0  0  0  0  0  0  0  0
  -28.9160  -24.9750   21.9680 C   0  0  0  0  0  2  0  0  0  0  0  0
  -29.6510  -26.0540   21.1200 C   0  0  0  0  0  2  0  0  0  0  0  0
  -28.5410  -26.7430   20.2950 C   0  0  0  0  0  2  0  0  0  0  0  0
  -28.7660  -27.9240   19.4930 O   0  0  0  0  0  0  0  0  0  0  0  0
  -24.3160  -31.7010   23.4620 C   0  0  0  0  0  0  0  0  0  0  0  0
  -27.5690  -28.6090   19.4740 C   0  0  0  0  0  0  0  0  0  0  0  0
  -23.3140  -30.5260   21.5300 C   0  0  0  0  0  3  0  0  0  0  0  0
  -24.9630  -29.6450   19.7900 C   0  0  0  0  0  0  0  0  0  0  0  0
  -25.7350  -31.3480   21.4490 C   0  0  0  0  0  2  0  0  0  0  0  0
  -26.0320  -30.2060   20.5020 C   0  0  0  0  0  0  0  0  0  0  0  0
  -27.3410  -29.6940   20.3490 C   0  0  0  0  0  3  0  0  0  0  0  0
  -26.4910  -28.0910   18.7220 C   0  0  0  0  0  3  0  0  0  0  0  0
  -25.1880  -28.5860   18.8950 C   0  0  0  0  0  3  0  0  0  0  0  0
  -23.5910  -30.2330   20.0300 C   0  0  0  0  0  2  0  0  0  0  0  0
  -24.4720  -31.1940   22.2070 N   0  0  0  0  0  0  0  0  0  0  0  0
  -23.2230  -31.6540   24.0430 O   0  0  0  0  0  0  0  0  0  0  0  0
  -22.8750  -29.2160   22.2230 C   0  0  0  0  0  0  0  0  0  0  0  0
  -21.6030  -28.8330   22.0280 N   0  0  0  0  0  0  0  0  0  0  0  0
  -23.6740  -28.5590   22.8950 O   0  0  0  0  0  0  0  0  0  0  0  0
  -21.0070  -29.4320   21.4740 H   0  0  0  0  0  0  0  0  0  0  0  0
  -18.4830  -27.0220   22.2480 C   0  0  0  0  0  0  0  0  0  0  0  0
  -20.9800  -27.6180   22.5560 C   0  0  0  0  0  3  0  0  0  0  0  0
  -21.2780  -26.4020   21.6490 C   0  0  0  0  0  2  0  0  0  0  0  0
  -20.1940  -26.1570   20.5930 C   0  0  0  0  0  2  0  0  0  0  0  0
  -18.8390  -25.9180   21.2630 C   0  0  0  0  0  2  0  0  0  0  0  0
  -19.4890  -27.8300   22.8420 C   0  0  0  0  0  0  0  0  0  0  0  0
  -19.1060  -28.8640   23.7230 C   0  0  0  0  0  3  0  0  0  0  0  0
  -17.7480  -29.0950   24.0160 C   0  0  0  0  0  3  0  0  0  0  0  0
  -16.7580  -28.2810   23.4370 C   0  0  0  0  0  3  0  0  0  0  0  0
  -17.1260  -27.2460   22.5580 C   0  0  0  0  0  3  0  0  0  0  0  0
  -25.4960  -32.3840   24.2190 C   0  0  0  0  0  3  0  0  0  0  0  0
  -25.1290  -33.7900   24.4320 N   0  0  0  0  0  0  0  0  0  0  0  0
  -25.5640  -34.8120   23.6820 C   0  0  0  0  0  0  0  0  0  0  0  0
  -26.3850  -34.6730   22.7710 O   0  0  0  0  0  0  0  0  0  0  0  0
  -24.4160  -33.9720   25.1240 H   0  0  0  0  0  0  0  0  0  0  0  0
  -23.8740  -36.5460   23.0020 C   0  0  0  0  0  1  0  0  0  0  0  0
  -25.0000  -36.2120   23.9930 C   0  0  0  0  0  3  0  0  0  0  0  0
  -27.0040  -37.1710   25.0370 C   0  0  0  0  0  1  0  0  0  0  0  0
  -26.0230  -37.2800   23.9610 N   0  0  0  0  0  0  0  0  0  0  0  0
  -25.5890  -38.1970   24.0190 H   0  0  0  0  0  0  0  0  0  0  0  0
  -25.8470  -31.6850   25.5880 C   0  0  1  0  0  0  0  0  0  0  0  0
  -24.6170  -31.4370   26.4920 C   0  0  0  0  0  1  0  0  0  0  0  0
  -26.5380  -30.3220   25.3440 C   0  0  0  0  0  1  0  0  0  0  0  0
  -26.8530  -32.5540   26.3780 C   0  0  0  0  0  1  0  0  0  0  0  0
  2  5  2  0
  3  1  2  0
  4  6  2  0
  4  2  1  0
  5  1  1  0
  5  7  1  0
  6  3  1  0
  7  9  1  0
  7  8  2  0
  8 11  1  0
  9 12  1  0
 10  8  1  0
 13  9  1  0
 14 13  1  0
 15 14  1  0
 16 15  1  0
 17 16  1  0
 18 27  1  0
 18 17  1  0
 19 25  1  0
 19 27  1  0
 20 25  1  0
 21 22  1  0
 21 20  1  0
 23 22  1  0
 23 32  1  0
 23 24  1  0
 25 24  1  0
 26 19  2  0
 27 28  1  0
 29 30  2  0
 30 49  1  0
 31 30  1  0
 31 34  1  0
 32 33  1  0
 32 29  1  0
 33 31  2  0
 34 35  1  0
 35 36  2  0
 37 40  1  0
 37 36  1  0
 38 37  2  0
 39 38  1  0
 39 34  2  0
 40 41  1  0
 41 42  1  0
 42 43  2  0
 44 43  1  0
 44 48  1  0
 45 44  2  0
 46 41  2  0
 46 45  1  0
 47 46  1  0
 49 50  1  0
 50 52  1  0
 50 53  1  0
 51 49  2  0
 54 29  1  0
 54 55  1  0
 56 54  1  0
 57 58  1  0
 57  6  1  0
 58 60  1  0
 59 57  2  0
 61 58  1  0
 62 61  1  0
 63 62  1  0
 64 63  1  0
 65 76  2  0
 66 64  1  0
 66 71  1  0
 67 75  1  0
 67 77  1  0
 68 74  1  0
 68 70  1  0
 69 75  1  0
 70 69  1  0
 71 70  2  0
 72 73  1  0
 72 66  2  0
 73 68  2  0
 74 67  1  0
 75 65  1  0
 77 79  2  0
 78 77  1  0
 80 78  1  0
 81 90  2  0
 81 86  1  0
 82 78  1  0
 82 86  1  0
 83 82  1  0
 84 85  1  0
 84 83  1  0
 85 81  1  0
 86 87  2  0
 87 88  1  0
 89 88  2  0
 90 89  1  0
 91 65  1  0
 91 92  1  0
 91101  1  0
 92 95  1  0
 93 97  1  0
 93 92  1  0
 94 93  2  0
 97 96  1  0
 99 97  1  0
 99100  1  0
 99 98  1  0
101104  1  1
101102  1  0
103101  1  0
M  ISO  4  19 100  27 100  63 101  64 101
M  END
>  <TORSDO>  (50) 
F 27

>  <SCORE>  (50) 
13.524

>  <name>  (50) 
50

>  <ligand_id>  (50) 
50

>  <original_smiles>  (50) 
[H]c1c([H])c([H])c2c(c1[H])C([H])([H])C([H])([H])C([H])([H])C2([H])N([H])C(=O)C1([H])N(C(=O)C([H])(N([H])C(=O)C([H])(N([H])C([H])([H])[H])C([H])([H])[H])C(C([H])([H])[H])(C([H])([H])[H])C([H])([H])[H])C([H])([H])c2c([H])c(OC([H])([H])C([H])([H])C([H])([H])N([H])C(=O)c3c([H])c([H])c(C(N([H])[H])=[N+]([H])C([H])([H])C([H])([H])C([H])([H])C([H])([H])C([H])([H])C([H])([H])N([H])C(=O)N4C([H])([H])C([H])([H])C([H])([H])C([H])(n5nc(-c6c([H])c([H])c(Oc7c([H])c([H])c(F)c([H])c7F)c([H])c6[H])c(C(=O)N([H])[H])c5N([H])[H])C4([H])[H])c([H])c3[H])c([H])c([H])c2C1([H])[H]

>  <smiles>  (50) 
[H]c1c([H])c([H])c2c(c1[H])C([H])([H])C([H])([H])C([H])([H])C2([H])N([H])C(=O)C1([H])N(C(=O)C([H])(N([H])C(=O)C([H])(N([H])C([H])([H])[H])C([H])([H])[H])C(C([H])([H])[H])(C([H])([H])[H])C([H])([H])[H])C([H])([H])c2c([H])c(OC([H])([H])C([H])([H])C([H])([H])N([H])C(=O)c3c([H])c([H])c(C(N([H])[H])=[N+]([H])C([H])([H])C([H])([H])C([H])([H])C([H])([H])C([H])([H])C([H])([H])N([H])C(=O)N4C([H])([H])C([H])([H])C([H])([H])C([H])(n5nc(-c6c([H])c([H])c(Oc7c([H])c([H])c(F)c([H])c7F)c([H])c6[H])c(C(=O)N([H])[H])c5N([H])[H])C4([H])[H])c([H])c3[H])c([H])c([H])c2C1([H])[H]

$$$$
51:0:0
     RDKit          3D

 98106  0  0  1  0  0  0  0  0999 V2000
  -28.9850  -22.2400   18.4820 C   0  0  0  0  0  3  0  0  0  0  0  0
  -28.4290  -23.5200   18.3340 C   0  0  0  0  0  3  0  0  0  0  0  0
  -26.4740  -22.8080   19.5890 C   0  0  0  0  0  3  0  0  0  0  0  0
  -28.2980  -21.2210   19.1750 C   0  0  0  0  0  0  0  0  0  0  0  0
  -27.1760  -23.8230   18.9000 C   0  0  0  0  0  0  0  0  0  0  0  0
  -27.0170  -21.5090   19.7190 C   0  0  0  0  0  0  0  0  0  0  0  0
  -26.2110  -20.4540   20.4650 C   0  0  0  0  0  1  0  0  0  0  0  0
  -28.9380  -19.8880   19.2940 C   0  0  0  0  0  3  0  0  0  0  0  0
  -30.1050  -19.6150   18.8660 N   0  0  0  0  0  0  0  0  0  0  0  0
  -30.5230  -18.2420   19.0060 C   0  0  0  0  0  2  0  0  0  0  0  0
  -32.0450  -18.1140   18.8220 C   0  0  0  0  0  2  0  0  0  0  0  0
  -33.0020  -15.8440   19.0100 C   0  0  0  0  0  0  0  0  0  0  0  0
  -33.0670  -13.3820   19.1650 C   0  0  0  0  0  2  0  0  0  0  0  0
  -32.1070  -12.7410   18.1430 C   0  0  0  0  0  2  0  0  0  0  0  0
  -30.6780  -12.6440   18.7120 C   0  0  0  0  0  2  0  0  0  0  0  0
  -30.1870  -13.9890   19.3040 C   0  0  0  0  0  3  0  0  0  0  0  0
  -31.2470  -14.5630   20.2720 C   0  0  0  0  0  2  0  0  0  0  0  0
  -32.5340  -14.6930   19.5520 N   0  0  0  0  0  0  0  0  0  0  0  0
  -33.8650  -15.9030   18.1280 O   0  0  0  0  0  0  0  0  0  0  0  0
  -32.4580  -16.9310   19.5530 N   0  0  0  0  0  0  0  0  0  0  0  0
  -31.9370  -16.7460   20.3970 H   0  0  0  0  0  0  0  0  0  0  0  0
  -28.0510  -14.8050   20.5000 C   0  0  0  0  0  0  0  0  0  0  0  0
  -26.9280  -14.1430   20.9170 C   0  0  0  0  0  0  0  0  0  0  0  0
  -27.1360  -12.7680   20.5870 C   0  0  0  0  0  0  0  0  0  0  0  0
  -28.8850  -13.8390   19.9560 N   0  0  0  0  0  0  0  0  0  0  0  0
  -28.3400  -12.6000   20.0570 N   0  0  0  0  0  0  0  0  0  0  0  0
  -26.2360  -11.6120   20.6940 C   0  0  0  0  0  0  0  0  0  0  0  0
  -26.4250  -10.6200   21.6820 C   0  0  0  0  0  3  0  0  0  0  0  0
  -25.5400   -9.5240   21.7740 C   0  0  0  0  0  3  0  0  0  0  0  0
  -24.4500   -9.4160   20.8790 C   0  0  0  0  0  0  0  0  0  0  0  0
  -24.2780  -10.3940   19.8840 C   0  0  0  0  0  3  0  0  0  0  0  0
  -25.1640  -11.4800   19.7880 C   0  0  0  0  0  3  0  0  0  0  0  0
  -23.5520   -8.3760   20.8800 O   0  0  0  0  0  0  0  0  0  0  0  0
  -22.9660   -7.9310   22.0380 C   0  0  0  0  0  0  0  0  0  0  0  0
  -22.1600   -8.7730   22.8350 C   0  0  0  0  0  3  0  0  0  0  0  0
  -21.5200   -8.2550   23.9800 C   0  0  0  0  0  3  0  0  0  0  0  0
  -21.6770   -6.8990   24.3230 C   0  0  0  0  0  0  0  0  0  0  0  0
  -22.4750   -6.0590   23.5270 C   0  0  0  0  0  3  0  0  0  0  0  0
  -23.1150   -6.5740   22.3860 C   0  0  0  0  0  0  0  0  0  0  0  0
  -23.8660   -5.7550   21.6100 F   0  0  0  0  0  0  0  0  0  0  0  0
  -21.0540   -6.4000   25.4160 F   0  0  0  0  0  0  0  0  0  0  0  0
  -25.6910  -14.7570   21.5050 C   0  0  0  0  0  0  0  0  0  0  0  0
  -25.0140  -14.0400   22.3950 N   0  0  0  0  0  0  0  0  0  0  0  0
  -25.3410  -15.8990   21.2120 O   0  0  0  0  0  0  0  0  0  0  0  0
  -25.3160  -13.1120   22.6540 H   0  0  0  0  0  0  0  0  0  0  0  0
  -24.1890  -14.4290   22.8290 H   0  0  0  0  0  0  0  0  0  0  0  0
  -28.4230  -16.1470   20.5240 N   0  0  0  0  0  0  0  0  0  0  0  0
  -27.7840  -16.8670   20.8420 H   0  0  0  0  0  0  0  0  0  0  0  0
  -29.2610  -16.5190   20.0940 H   0  0  0  0  0  0  0  0  0  0  0  0
  -25.0840  -25.2890   18.7930 C   0  0  0  0  0  1  0  0  0  0  0  0
  -26.6210  -25.2400   18.7830 C   0  0  0  0  0  3  0  0  0  0  0  0
  -27.2100  -26.0890   19.8440 N   0  0  0  0  0  4  0  0  0  0  0  0
  -26.4660  -26.3620   20.4640 H   0  0  0  0  0  0  0  0  0  0  0  0
  -27.8510  -25.5300   20.3840 H   0  0  0  0  0  0  0  0  0  0  0  0
  -27.8980  -27.3200   19.3840 C   0  0  0  0  0  2  0  0  0  0  0  0
  -28.9870  -27.0610   18.3090 C   0  0  0  0  0  2  0  0  0  0  0  0
  -29.2570  -28.2270   17.3340 C   0  0  0  0  0  2  0  0  0  0  0  0
  -28.1610  -28.4170   16.4340 O   0  0  0  0  0  0  0  0  0  0  0  0
  -24.6080  -30.3380   22.2810 C   0  0  0  0  0  0  0  0  0  0  0  0
  -26.9500  -28.6780   17.0200 C   0  0  0  0  0  0  0  0  0  0  0  0
  -23.2460  -29.3570   20.4590 C   0  0  0  0  0  3  0  0  0  0  0  0
  -24.4300  -29.0930   18.2140 C   0  0  0  0  0  0  0  0  0  0  0  0
  -25.4020  -30.6210   19.9410 C   0  0  0  0  0  2  0  0  0  0  0  0
  -25.5660  -29.7210   18.7370 C   0  0  0  0  0  0  0  0  0  0  0  0
  -26.8280  -29.5190   18.1470 C   0  0  0  0  0  3  0  0  0  0  0  0
  -25.7980  -28.0660   16.4850 C   0  0  0  0  0  3  0  0  0  0  0  0
  -24.5380  -28.2600   17.0850 C   0  0  0  0  0  3  0  0  0  0  0  0
  -23.1180  -29.3730   18.9110 C   0  0  0  0  0  2  0  0  0  0  0  0
  -24.4530  -30.0990   20.9480 N   0  0  0  0  0  0  0  0  0  0  0  0
  -23.7440  -29.9890   23.0970 O   0  0  0  0  0  0  0  0  0  0  0  0
  -23.1960  -27.8900   20.9380 C   0  0  0  0  0  0  0  0  0  0  0  0
  -22.0050  -27.2760   20.8540 N   0  0  0  0  0  0  0  0  0  0  0  0
  -24.2150  -27.3200   21.3390 O   0  0  0  0  0  0  0  0  0  0  0  0
  -21.2180  -27.8140   20.5190 H   0  0  0  0  0  0  0  0  0  0  0  0
  -19.4290  -24.7450   20.8890 C   0  0  0  0  0  0  0  0  0  0  0  0
  -21.7270  -25.8850   21.2090 C   0  0  0  0  0  3  0  0  0  0  0  0
  -22.2460  -24.9190   20.1190 C   0  0  0  0  0  2  0  0  0  0  0  0
  -21.1830  -24.5620   19.0740 C   0  0  0  0  0  2  0  0  0  0  0  0
  -19.9710  -23.9090   19.7410 C   0  0  0  0  0  2  0  0  0  0  0  0
  -20.2510  -25.6850   21.5680 C   0  0  0  0  0  0  0  0  0  0  0  0
  -19.6890  -26.4630   22.6040 C   0  0  0  0  0  3  0  0  0  0  0  0
  -18.3380  -26.3110   22.9670 C   0  0  0  0  0  3  0  0  0  0  0  0
  -17.5340  -25.3680   22.3030 C   0  0  0  0  0  3  0  0  0  0  0  0
  -18.0810  -24.5850   21.2700 C   0  0  0  0  0  3  0  0  0  0  0  0
  -25.8640  -31.0790   22.8410 C   0  0  0  0  0  3  0  0  0  0  0  0
  -25.3920  -32.2550   23.5810 N   0  0  0  0  0  0  0  0  0  0  0  0
  -25.4820  -33.5160   23.1390 C   0  0  0  0  0  0  0  0  0  0  0  0
  -26.0460  -33.8180   22.0830 O   0  0  0  0  0  0  0  0  0  0  0  0
  -24.8750  -32.0780   24.4290 H   0  0  0  0  0  0  0  0  0  0  0  0
  -23.4970  -35.0370   23.3950 C   0  0  0  0  0  1  0  0  0  0  0  0
  -24.8440  -34.6190   24.0050 C   0  0  0  0  0  3  0  0  0  0  0  0
  -26.8950  -35.5520   24.9820 C   0  0  0  0  0  1  0  0  0  0  0  0
  -25.7080  -35.8090   24.1710 N   0  0  0  0  0  0  0  0  0  0  0  0
  -25.1910  -36.5720   24.6000 H   0  0  0  0  0  0  0  0  0  0  0  0
  -26.7680  -30.1640   23.7570 C   0  0  1  0  0  0  0  0  0  0  0  0
  -25.9850  -29.4400   24.8770 C   0  0  0  0  0  1  0  0  0  0  0  0
  -27.4880  -29.0890   22.9100 C   0  0  0  0  0  1  0  0  0  0  0  0
  -27.8720  -31.0180   24.4210 C   0  0  0  0  0  1  0  0  0  0  0  0
  1  4  1  0
  2  1  2  0
  2  5  1  0
  3  6  1  0
  4  8  1  0
  4  6  2  0
  5  3  2  0
  6  7  1  0
  9 10  1  0
  9  8  2  0
 11 10  1  0
 11 20  1  0
 12 18  1  0
 12 20  1  0
 13 18  1  0
 14 15  1  0
 14 13  1  0
 16 15  1  0
 16 25  1  0
 16 17  1  0
 18 17  1  0
 19 12  2  0
 20 21  1  0
 22 47  1  0
 22 23  2  0
 23 42  1  0
 24 27  1  0
 24 23  1  0
 25 26  1  0
 25 22  1  0
 26 24  2  0
 27 28  1  0
 28 29  2  0
 30 33  1  0
 30 29  1  0
 31 30  2  0
 32 31  1  0
 32 27  2  0
 33 34  1  0
 34 39  2  0
 34 35  1  0
 35 36  2  0
 36 37  1  0
 37 41  1  0
 38 37  2  0
 39 38  1  0
 40 39  1  0
 42 43  1  0
 43 45  1  0
 43 46  1  0
 44 42  2  0
 47 48  1  0
 49 47  1  0
 51 50  1  0
 51  5  1  0
 51 52  1  0
 52 54  1  0
 52 53  1  0
 55 52  1  0
 56 55  1  0
 57 56  1  0
 58 60  1  0
 58 57  1  0
 59 70  2  0
 60 65  1  0
 61 71  1  0
 61 69  1  0
 62 64  1  0
 62 68  1  0
 63 69  1  0
 64 63  1  0
 65 64  2  0
 66 60  2  0
 66 67  1  0
 67 62  2  0
 68 61  1  0
 69 59  1  0
 71 73  2  0
 72 71  1  0
 74 72  1  0
 75 84  2  0
 75 80  1  0
 76 72  1  0
 76 80  1  0
 77 76  1  0
 78 79  1  0
 78 77  1  0
 79 75  1  0
 80 81  2  0
 81 82  1  0
 83 82  2  0
 84 83  1  0
 85 59  1  0
 85 86  1  0
 85 95  1  0
 86 89  1  0
 87 86  1  0
 87 91  1  0
 88 87  2  0
 91 90  1  0
 91 93  1  0
 93 94  1  0
 93 92  1  0
 95 98  1  1
 95 96  1  0
 97 95  1  0
M  ISO  4  12 100  20 100  57 101  58 101
M  END
>  <TORSDO>  (51) 
F 24

>  <SCORE>  (51) 
-0.038

>  <name>  (51) 
51

>  <ligand_id>  (51) 
51

>  <original_smiles>  (51) 
[H]C(=NC([H])([H])C([H])([H])N([H])C(=O)N1C([H])([H])C([H])([H])C([H])([H])C([H])(n2nc(-c3c([H])c([H])c(Oc4c([H])c([H])c(F)c([H])c4F)c([H])c3[H])c(C(=O)N([H])[H])c2N([H])[H])C1([H])[H])c1c([H])c([H])c(C([H])(C([H])([H])[H])[N+]([H])([H])C([H])([H])C([H])([H])C([H])([H])Oc2c([H])c([H])c3c(c2[H])C([H])([H])N(C(=O)C([H])(N([H])C(=O)C([H])(N([H])C([H])([H])[H])C([H])([H])[H])C(C([H])([H])[H])(C([H])([H])[H])C([H])([H])[H])C([H])(C(=O)N([H])C2([H])c4c([H])c([H])c([H])c([H])c4C([H])([H])C([H])([H])C2([H])[H])C3([H])[H])c([H])c1C([H])([H])[H]

>  <smiles>  (51) 
[H]C(=NC([H])([H])C([H])([H])N([H])C(=O)N1C([H])([H])C([H])([H])C([H])([H])C([H])(n2nc(-c3c([H])c([H])c(Oc4c([H])c([H])c(F)c([H])c4F)c([H])c3[H])c(C(=O)N([H])[H])c2N([H])[H])C1([H])[H])c1c([H])c([H])c(C([H])(C([H])([H])[H])[N+]([H])([H])C([H])([H])C([H])([H])C([H])([H])Oc2c([H])c([H])c3c(c2[H])C([H])([H])N(C(=O)C([H])(N([H])C(=O)C([H])(N([H])C([H])([H])[H])C([H])([H])[H])C(C([H])([H])[H])(C([H])([H])[H])C([H])([H])[H])C([H])(C(=O)N([H])C2([H])c4c([H])c([H])c([H])c([H])c4C([H])([H])C([H])([H])C2([H])[H])C3([H])[H])c([H])c1C([H])([H])[H]

$$$$
52:0:0
     RDKit          3D

106115  0  0  1  0  0  0  0  0999 V2000
  -23.9570  -12.8510   21.9910 C   0  0  0  0  0  3  0  0  0  0  0  0
  -23.0290  -14.4000   20.4280 C   0  0  0  0  0  3  0  0  0  0  0  0
  -22.0760  -12.1010   20.7910 C   0  0  0  0  0  3  0  0  0  0  0  0
  -24.1620  -14.1610   21.2330 C   0  0  0  0  0  0  0  0  0  0  0  0
  -23.2400  -11.5940   21.4490 C   0  0  0  0  0  0  0  0  0  0  0  0
  -21.9740  -13.4480   20.3200 C   0  0  0  0  0  0  0  0  0  0  0  0
  -25.4090  -15.2930   21.2680 C   0  0  0  0  0  0  0  0  0  0  0  0
  -25.7580  -15.6340   22.4000 O   0  0  0  0  0  0  0  0  0  0  0  0
  -26.7570  -17.6470   20.1250 C   0  0  0  0  0  2  0  0  0  0  0  0
  -27.8480  -15.5920   19.6760 C   0  0  0  0  0  2  0  0  0  0  0  0
  -27.7750  -18.3940   19.0260 C   0  0  0  0  0  2  0  0  0  0  0  0
  -29.1880  -16.5800   19.5780 C   0  0  0  0  0  2  0  0  0  0  0  0
  -26.3400  -16.0830   20.0410 C   0  0  0  0  0  3  0  0  0  0  0  0
  -29.1820  -17.8430   18.7020 N   0  0  2  0  0  4  0  0  0  0  0  0
  -29.1020  -17.4820   17.7620 H   0  0  0  0  0  0  0  0  0  0  0  0
  -30.5190  -18.8250   18.6340 C   0  0  0  0  0  2  0  0  0  0  0  0
  -31.4580  -19.3940   17.2540 C   0  0  0  0  0  2  0  0  0  0  0  0
  -32.9980  -19.9040   17.0000 O   0  0  0  0  0  0  0  0  0  0  0  0
  -35.1970  -26.4670   14.9340 C   0  0  0  0  0  0  0  0  0  0  0  0
  -33.2730  -20.7510   15.8610 C   0  0  0  0  0  0  0  0  0  0  0  0
  -33.1410  -25.4940   14.0000 C   0  0  0  0  0  3  0  0  0  0  0  0
  -32.9570  -22.9380   14.0400 C   0  0  0  0  0  0  0  0  0  0  0  0
  -35.1610  -23.9800   14.5000 C   0  0  0  0  0  2  0  0  0  0  0  0
  -34.1740  -22.8190   14.7230 C   0  0  0  0  0  0  0  0  0  0  0  0
  -34.3540  -21.7050   15.6320 C   0  0  0  0  0  3  0  0  0  0  0  0
  -32.2270  -20.7980   14.9320 C   0  0  0  0  0  3  0  0  0  0  0  0
  -32.0260  -21.8980   14.0920 C   0  0  0  0  0  3  0  0  0  0  0  0
  -32.6680  -24.2110   13.2670 C   0  0  0  0  0  2  0  0  0  0  0  0
  -34.5410  -25.3440   14.5110 N   0  0  0  0  0  0  0  0  0  0  0  0
  -34.6590  -27.5840   14.8990 O   0  0  0  0  0  0  0  0  0  0  0  0
  -32.1300  -25.8760   15.1130 C   0  0  0  0  0  0  0  0  0  0  0  0
  -31.0650  -26.6140   14.7490 N   0  0  0  0  0  0  0  0  0  0  0  0
  -32.3060  -25.5000   16.2750 O   0  0  0  0  0  0  0  0  0  0  0  0
  -30.9950  -26.8970   13.7820 H   0  0  0  0  0  0  0  0  0  0  0  0
  -27.9440  -28.4500   14.8680 C   0  0  0  0  0  0  0  0  0  0  0  0
  -29.9840  -27.0560   15.6350 C   0  0  0  0  0  3  0  0  0  0  0  0
  -28.9740  -25.9140   15.8940 C   0  0  0  0  0  2  0  0  0  0  0  0
  -27.7900  -25.9240   14.9210 C   0  0  0  0  0  2  0  0  0  0  0  0
  -27.0270  -27.2480   15.0180 C   0  0  0  0  0  2  0  0  0  0  0  0
  -29.3350  -28.3560   15.1420 C   0  0  0  0  0  0  0  0  0  0  0  0
  -30.1470  -29.4960   14.9570 C   0  0  0  0  0  3  0  0  0  0  0  0
  -29.5940  -30.7090   14.5070 C   0  0  0  0  0  3  0  0  0  0  0  0
  -28.2150  -30.7990   14.2470 C   0  0  0  0  0  3  0  0  0  0  0  0
  -27.3930  -29.6730   14.4330 C   0  0  0  0  0  3  0  0  0  0  0  0
  -36.6610  -26.4010   15.4610 C   0  0  0  0  0  3  0  0  0  0  0  0
  -36.7610  -26.5170   17.0310 C   0  0  1  0  0  0  0  0  0  0  0  0
  -36.0130  -27.7400   17.6130 C   0  0  0  0  0  1  0  0  0  0  0  0
  -36.1930  -25.2540   17.7190 C   0  0  0  0  0  1  0  0  0  0  0  0
  -38.2450  -26.6160   17.4540 C   0  0  0  0  0  1  0  0  0  0  0  0
  -37.4130  -27.4910   14.8190 N   0  0  0  0  0  0  0  0  0  0  0  0
  -38.2540  -27.3380   13.7870 C   0  0  0  0  0  0  0  0  0  0  0  0
  -38.5300  -26.2350   13.3100 O   0  0  0  0  0  0  0  0  0  0  0  0
  -37.1930  -28.4290   15.1200 H   0  0  0  0  0  0  0  0  0  0  0  0
  -38.1650  -28.9880   11.8870 C   0  0  0  0  0  1  0  0  0  0  0  0
  -38.8890  -28.6100   13.1880 C   0  0  0  0  0  3  0  0  0  0  0  0
  -41.1400  -28.3900   14.1460 C   0  0  0  0  0  1  0  0  0  0  0  0
  -40.3400  -28.4760   12.9270 N   0  0  0  0  0  0  0  0  0  0  0  0
  -40.6810  -29.2620   12.3790 H   0  0  0  0  0  0  0  0  0  0  0  0
  -22.6100   -9.2220   20.2220 C   0  0  0  0  0  1  0  0  0  0  0  0
  -23.8360   -9.9560   20.8250 C   0  0  0  0  0  3  0  0  0  0  0  0
  -25.1170   -9.4300   19.6510 N   0  0  0  0  0  4  0  0  0  0  0  0
  -24.7100   -8.6110   19.2260 H   0  0  0  0  0  0  0  0  0  0  0  0
  -25.0240  -10.1570   18.9540 H   0  0  0  0  0  0  0  0  0  0  0  0
  -26.8650   -9.0950   19.5710 C   0  0  0  0  0  2  0  0  0  0  0  0
  -28.4730   -9.9850   19.1230 C   0  0  0  0  0  2  0  0  0  0  0  0
  -30.2950  -10.2080   19.5130 C   0  0  0  0  0  2  0  0  0  0  0  0
  -32.2620  -11.5670   21.4930 C   0  0  0  0  0  0  0  0  0  0  0  0
  -32.5160   -9.7180   22.9710 C   0  0  0  0  0  2  0  0  0  0  0  0
  -31.8940   -8.7470   21.9570 C   0  0  0  0  0  2  0  0  0  0  0  0
  -30.3350   -8.8840   22.0140 C   0  0  0  0  0  2  0  0  0  0  0  0
  -29.7810  -10.3410   22.3060 C   0  0  0  0  0  3  0  0  0  0  0  0
  -30.5770  -11.1640   23.2550 C   0  0  0  0  0  2  0  0  0  0  0  0
  -31.8980  -11.0040   22.6730 N   0  0  0  0  0  0  0  0  0  0  0  0
  -33.3650  -12.1590   21.6160 O   0  0  0  0  0  0  0  0  0  0  0  0
  -31.4640  -11.2830   20.2320 N   0  0  0  0  0  0  0  0  0  0  0  0
  -31.8890  -11.8290   19.4950 H   0  0  0  0  0  0  0  0  0  0  0  0
  -27.8460  -11.7300   21.4390 C   0  0  0  0  0  0  0  0  0  0  0  0
  -26.6120  -11.3380   21.1530 C   0  0  0  0  0  0  0  0  0  0  0  0
  -26.5080   -9.9980   21.9450 C   0  0  0  0  0  0  0  0  0  0  0  0
  -28.4440  -10.6430   22.0810 N   0  0  0  0  0  0  0  0  0  0  0  0
  -27.6580   -9.6800   22.4360 N   0  0  0  0  0  0  0  0  0  0  0  0
  -25.6920   -8.7150   22.2300 C   0  0  0  0  0  0  0  0  0  0  0  0
  -24.8180   -8.6690   23.3420 C   0  0  0  0  0  3  0  0  0  0  0  0
  -23.8910   -7.6110   23.5230 C   0  0  0  0  0  3  0  0  0  0  0  0
  -23.7460   -6.6060   22.5360 C   0  0  0  0  0  0  0  0  0  0  0  0
  -24.6660   -6.5680   21.4970 C   0  0  0  0  0  3  0  0  0  0  0  0
  -25.7090   -7.4960   21.4760 C   0  0  0  0  0  3  0  0  0  0  0  0
  -22.8320   -5.5850   22.5440 O   0  0  0  0  0  0  0  0  0  0  0  0
  -21.6910   -5.6620   23.2890 C   0  0  0  0  0  0  0  0  0  0  0  0
  -20.7060   -6.6340   23.0210 C   0  0  0  0  0  3  0  0  0  0  0  0
  -19.5180   -6.6510   23.7760 C   0  0  0  0  0  3  0  0  0  0  0  0
  -19.3100   -5.6870   24.7810 C   0  0  0  0  0  0  0  0  0  0  0  0
  -20.2880   -4.7100   25.0370 C   0  0  0  0  0  3  0  0  0  0  0  0
  -21.4760   -4.6950   24.2900 C   0  0  0  0  0  0  0  0  0  0  0  0
  -22.4090   -3.7380   24.5220 F   0  0  0  0  0  0  0  0  0  0  0  0
  -18.1630   -5.6990   25.4980 F   0  0  0  0  0  0  0  0  0  0  0  0
  -25.9650  -12.1910   19.9030 C   0  0  0  0  0  0  0  0  0  0  0  0
  -24.7670  -12.2310   19.3300 N   0  0  0  0  0  0  0  0  0  0  0  0
  -26.5440  -12.8850   19.1480 O   0  0  0  0  0  0  0  0  0  0  0  0
  -23.9560  -12.0420   19.9120 H   0  0  0  0  0  0  0  0  0  0  0  0
  -24.6670  -12.8620   18.5460 H   0  0  0  0  0  0  0  0  0  0  0  0
  -28.5290  -12.8390   20.9330 N   0  0  0  0  0  0  0  0  0  0  0  0
  -28.1120  -13.2750   20.1150 H   0  0  0  0  0  0  0  0  0  0  0  0
  -29.5400  -12.8200   20.8890 H   0  0  0  0  0  0  0  0  0  0  0  0
  -20.8590  -13.8160   19.6250 O   0  0  0  0  0  0  0  0  0  0  0  0
  -20.1630  -13.1680   19.6520 H   0  0  0  0  0  0  0  0  0  0  0  0
  2  4  1  0
  3  5  2  0
  4  7  1  0
  4  1  2  0
  5  1  1  0
  6  2  2  0
  6  3  1  0
  7  8  2  0
 10 13  1  0
 11  9  1  0
 12 10  1  0
 13  9  1  0
 13  7  1  0
 14 11  1  0
 14 12  1  0
 14 15  1  6
 16 14  1  0
 17 16  1  0
 18 17  1  0
 20 18  1  0
 21 29  1  0
 21 31  1  0
 22 27  2  0
 22 24  1  0
 23 29  1  0
 23 24  1  0
 24 25  2  0
 25 20  1  0
 26 20  2  0
 27 26  1  0
 28 21  1  0
 28 22  1  0
 29 19  1  0
 30 19  2  0
 31 33  2  0
 32 31  1  0
 34 32  1  0
 35 39  1  0
 35 40  1  0
 36 32  1  0
 36 37  1  0
 38 39  1  0
 38 37  1  0
 40 36  1  0
 41 40  2  0
 42 41  1  0
 43 44  1  0
 43 42  2  0
 44 35  2  0
 45 19  1  0
 45 46  1  0
 46 49  1  6
 46 47  1  0
 46 48  1  0
 50 53  1  0
 50 45  1  0
 51 50  1  0
 52 51  2  0
 55 54  1  0
 55 51  1  0
 57 55  1  0
 57 56  1  0
 58 57  1  0
 60 59  1  0
 60  5  1  0
 61 60  1  0
 62 61  1  0
 63 61  1  0
 64 61  1  0
 65 66  1  0
 65 64  1  0
 66 75  1  0
 67 74  2  0
 67 73  1  0
 69 70  1  0
 69 68  1  0
 71 70  1  0
 71 72  1  0
 73 68  1  0
 73 72  1  0
 75 67  1  0
 76 75  1  0
 77 80  1  0
 78 77  2  0
 78 79  1  0
 79 82  1  0
 79 81  2  0
 80 71  1  0
 80 81  1  0
 82 83  1  0
 83 84  2  0
 85 88  1  0
 85 84  1  0
 86 85  2  0
 87 86  1  0
 87 82  2  0
 88 89  1  0
 89 94  1  0
 90 89  2  0
 90 91  1  0
 91 92  2  0
 92 93  1  0
 92 96  1  0
 94 95  1  0
 94 93  2  0
 97 78  1  0
 98 97  1  0
 98100  1  0
 99 97  2  0
101 98  1  0
102 77  1  0
103102  1  0
104102  1  0
105106  1  0
105  6  1  0
M  ISO  4  17 101  18 101  67 100  75 100
M  END
>  <TORSDO>  (52) 
F 26

>  <SCORE>  (52) 
2.019

>  <name>  (52) 
52

>  <ligand_id>  (52) 
52

>  <original_smiles>  (52) 
[H]Oc1c([H])c(C(=O)C2([H])C([H])([H])C([H])([H])[N+]([H])(C([H])([H])C([H])([H])Oc3c([H])c([H])c4c(c3[H])C([H])([H])N(C(=O)C([H])(N([H])C(=O)C([H])(N([H])C([H])([H])[H])C([H])([H])[H])C(C([H])([H])[H])(C([H])([H])[H])C([H])([H])[H])C([H])(C(=O)N([H])C3([H])c5c([H])c([H])c([H])c([H])c5C([H])([H])C([H])([H])C3([H])[H])C4([H])[H])C([H])([H])C2([H])[H])c([H])c(C([H])(C([H])([H])[H])[N+]([H])([H])C([H])([H])C([H])([H])C([H])([H])N([H])C(=O)N2C([H])([H])C([H])([H])C([H])([H])C([H])(n3nc(-c4c([H])c([H])c(Oc5c([H])c([H])c(F)c([H])c5F)c([H])c4[H])c(C(=O)N([H])[H])c3N([H])[H])C2([H])[H])c1[H]

>  <smiles>  (52) 
[H]Oc1c([H])c(C(=O)C2([H])C([H])([H])C([H])([H])[N+]([H])(C([H])([H])C([H])([H])Oc3c([H])c([H])c4c(c3[H])C([H])([H])N(C(=O)C([H])(N([H])C(=O)C([H])(N([H])C([H])([H])[H])C([H])([H])[H])C(C([H])([H])[H])(C([H])([H])[H])C([H])([H])[H])C([H])(C(=O)N([H])C3([H])c5c([H])c([H])c([H])c([H])c5C([H])([H])C([H])([H])C3([H])[H])C4([H])[H])C([H])([H])C2([H])[H])c([H])c(C([H])(C([H])([H])[H])[N+]([H])([H])C([H])([H])C([H])([H])C([H])([H])N([H])C(=O)N2C([H])([H])C([H])([H])C([H])([H])C([H])(n3nc(-c4c([H])c([H])c(Oc5c([H])c([H])c(F)c([H])c5F)c([H])c4[H])c(C(=O)N([H])[H])c3N([H])[H])C2([H])[H])c1[H]

$$$$
53:0:0
     RDKit          3D

 92 99  0  0  1  0  0  0  0  0999 V2000
  -29.2290  -22.6190   21.5100 N   0  0  0  0  0  0  0  0  0  0  0  0
  -29.4310  -22.5950   22.5070 H   0  0  0  0  0  0  0  0  0  0  0  0
  -27.5610  -24.1160   22.4880 C   0  0  0  0  0  1  0  0  0  0  0  0
  -28.4130  -23.8110   21.2410 C   0  0  0  0  0  3  0  0  0  0  0  0
  -29.2890  -25.0400   20.8690 C   0  0  0  0  0  2  0  0  0  0  0  0
  -28.9470  -25.6950   19.5100 C   0  0  0  0  0  2  0  0  0  0  0  0
  -28.8000  -27.1190   19.6420 O   0  0  0  0  0  0  0  0  0  0  0  0
  -24.5480  -31.6510   23.1020 C   0  0  0  0  0  0  0  0  0  0  0  0
  -27.5420  -27.6890   19.7010 C   0  0  0  0  0  0  0  0  0  0  0  0
  -23.4540  -30.2810   21.3590 C   0  0  0  0  0  3  0  0  0  0  0  0
  -25.0210  -28.9800   19.8270 C   0  0  0  0  0  0  0  0  0  0  0  0
  -25.9380  -30.8630   21.1890 C   0  0  0  0  0  2  0  0  0  0  0  0
  -26.1330  -29.5540   20.4530 C   0  0  0  0  0  0  0  0  0  0  0  0
  -27.3920  -28.9160   20.3870 C   0  0  0  0  0  3  0  0  0  0  0  0
  -26.4070  -27.1340   19.0610 C   0  0  0  0  0  3  0  0  0  0  0  0
  -25.1520  -27.7680   19.1310 C   0  0  0  0  0  3  0  0  0  0  0  0
  -23.7100  -29.7250   19.9330 C   0  0  0  0  0  2  0  0  0  0  0  0
  -24.6650  -30.9440   21.9430 N   0  0  0  0  0  0  0  0  0  0  0  0
  -23.4510  -31.7910   23.6600 O   0  0  0  0  0  0  0  0  0  0  0  0
  -22.8980  -29.1380   22.2400 C   0  0  0  0  0  0  0  0  0  0  0  0
  -21.5960  -28.8450   22.0880 N   0  0  0  0  0  0  0  0  0  0  0  0
  -23.6340  -28.5210   23.0140 O   0  0  0  0  0  0  0  0  0  0  0  0
  -21.0590  -29.4030   21.4390 H   0  0  0  0  0  0  0  0  0  0  0  0
  -18.3410  -27.3250   22.4720 C   0  0  0  0  0  0  0  0  0  0  0  0
  -20.8660  -27.7850   22.7810 C   0  0  0  0  0  3  0  0  0  0  0  0
  -21.0950  -26.4140   22.1030 C   0  0  0  0  0  2  0  0  0  0  0  0
  -20.0270  -26.0720   21.0600 C   0  0  0  0  0  2  0  0  0  0  0  0
  -18.6370  -26.0480   21.7030 C   0  0  0  0  0  2  0  0  0  0  0  0
  -19.3880  -28.1480   22.9650 C   0  0  0  0  0  0  0  0  0  0  0  0
  -19.0590  -29.3430   23.6430 C   0  0  0  0  0  3  0  0  0  0  0  0
  -17.7150  -29.7150   23.8330 C   0  0  0  0  0  3  0  0  0  0  0  0
  -16.6820  -28.8880   23.3560 C   0  0  0  0  0  3  0  0  0  0  0  0
  -16.9970  -27.6940   22.6820 C   0  0  0  0  0  3  0  0  0  0  0  0
  -25.7810  -32.3390   23.7670 C   0  0  0  0  0  3  0  0  0  0  0  0
  -26.3200  -31.5620   25.0310 C   0  0  1  0  0  0  0  0  0  0  0  0
  -25.2240  -31.2240   26.0680 C   0  0  0  0  0  1  0  0  0  0  0  0
  -26.9960  -30.2370   24.6090 C   0  0  0  0  0  1  0  0  0  0  0  0
  -27.4060  -32.4060   25.7400 C   0  0  0  0  0  1  0  0  0  0  0  0
  -25.3830  -33.7060   24.1280 N   0  0  0  0  0  0  0  0  0  0  0  0
  -25.6820  -34.7990   23.4140 C   0  0  0  0  0  0  0  0  0  0  0  0
  -26.3940  -34.7650   22.4060 O   0  0  0  0  0  0  0  0  0  0  0  0
  -24.7510  -33.8030   24.9100 H   0  0  0  0  0  0  0  0  0  0  0  0
  -23.8700  -36.5030   23.0430 C   0  0  0  0  0  1  0  0  0  0  0  0
  -25.1000  -36.1420   23.8920 C   0  0  0  0  0  3  0  0  0  0  0  0
  -27.1450  -37.1170   24.8380 C   0  0  0  0  0  1  0  0  0  0  0  0
  -26.0760  -37.2530   23.8530 N   0  0  0  0  0  0  0  0  0  0  0  0
  -25.6130  -38.1450   24.0090 H   0  0  0  0  0  0  0  0  0  0  0  0
  -28.4990  -21.4080   21.1200 C   0  0  0  0  0  2  0  0  0  0  0  0
  -29.0350  -20.1120   21.7680 C   0  0  0  0  0  2  0  0  0  0  0  0
  -29.8860  -19.2980   20.8690 N   0  0  0  0  0  4  0  0  0  0  0  0
  -29.6100  -19.4880   19.9190 H   0  0  0  0  0  0  0  0  0  0  0  0
  -30.8390  -19.6060   20.9730 H   0  0  0  0  0  0  0  0  0  0  0  0
  -29.7750  -17.8380   21.1210 C   0  0  0  0  0  2  0  0  0  0  0  0
  -30.7890  -16.9730   20.3370 C   0  0  0  0  0  2  0  0  0  0  0  0
  -31.1660  -14.5430   19.8960 C   0  0  0  0  0  0  0  0  0  0  0  0
  -30.8360  -12.3190   18.8840 C   0  0  0  0  0  2  0  0  0  0  0  0
  -29.8390  -12.4430   17.7130 C   0  0  0  0  0  2  0  0  0  0  0  0
  -28.3850  -12.3320   18.2120 C   0  0  0  0  0  2  0  0  0  0  0  0
  -28.0990  -13.2510   19.4300 C   0  0  0  0  0  3  0  0  0  0  0  0
  -29.1990  -13.0890   20.5050 C   0  0  0  0  0  2  0  0  0  0  0  0
  -30.5020  -13.3580   19.8700 N   0  0  0  0  0  0  0  0  0  0  0  0
  -32.2240  -14.7470   19.2920 O   0  0  0  0  0  0  0  0  0  0  0  0
  -30.5170  -15.5410   20.5160 N   0  0  0  0  0  0  0  0  0  0  0  0
  -29.6700  -15.2810   21.0010 H   0  0  0  0  0  0  0  0  0  0  0  0
  -25.7620  -13.9240   20.2820 C   0  0  0  0  0  0  0  0  0  0  0  0
  -24.6940  -13.1790   20.7050 C   0  0  0  0  0  0  0  0  0  0  0  0
  -25.1100  -11.8150   20.6270 C   0  0  0  0  0  0  0  0  0  0  0  0
  -26.7650  -13.0150   19.9800 N   0  0  0  0  0  0  0  0  0  0  0  0
  -26.3770  -11.7410   20.2410 N   0  0  0  0  0  0  0  0  0  0  0  0
  -24.3570  -10.5720   20.8430 C   0  0  0  0  0  0  0  0  0  0  0  0
  -24.7350   -9.6440   21.8390 C   0  0  0  0  0  3  0  0  0  0  0  0
  -23.9870   -8.4650   22.0400 C   0  0  0  0  0  3  0  0  0  0  0  0
  -22.8460   -8.2030   21.2440 C   0  0  0  0  0  0  0  0  0  0  0  0
  -22.4880   -9.1190   20.2390 C   0  0  0  0  0  3  0  0  0  0  0  0
  -23.2360  -10.2900   20.0360 C   0  0  0  0  0  3  0  0  0  0  0  0
  -22.0730   -7.0720   21.3510 O   0  0  0  0  0  0  0  0  0  0  0  0
  -21.8620   -6.4570   22.5590 C   0  0  0  0  0  0  0  0  0  0  0  0
  -21.2710   -7.1350   23.6480 C   0  0  0  0  0  3  0  0  0  0  0  0
  -21.0080   -6.4450   24.8480 C   0  0  0  0  0  3  0  0  0  0  0  0
  -21.3250   -5.0770   24.9580 C   0  0  0  0  0  0  0  0  0  0  0  0
  -21.9090   -4.3990   23.8730 C   0  0  0  0  0  3  0  0  0  0  0  0
  -22.1730   -5.0870   22.6770 C   0  0  0  0  0  0  0  0  0  0  0  0
  -22.7160   -4.4250   21.6260 F   0  0  0  0  0  0  0  0  0  0  0  0
  -21.0650   -4.4120   26.1070 F   0  0  0  0  0  0  0  0  0  0  0  0
  -23.3300  -13.6930   21.0670 C   0  0  0  0  0  0  0  0  0  0  0  0
  -22.6420  -13.0180   21.9830 N   0  0  0  0  0  0  0  0  0  0  0  0
  -22.8860  -14.7290   20.5740 O   0  0  0  0  0  0  0  0  0  0  0  0
  -23.0130  -12.1810   22.4040 H   0  0  0  0  0  0  0  0  0  0  0  0
  -21.7300  -13.3460   22.2670 H   0  0  0  0  0  0  0  0  0  0  0  0
  -25.9590  -15.2910   20.1120 N   0  0  0  0  0  0  0  0  0  0  0  0
  -25.2140  -15.9630   20.2580 H   0  0  0  0  0  0  0  0  0  0  0  0
  -26.7840  -15.7010   19.6920 H   0  0  0  0  0  0  0  0  0  0  0  0
  1  2  1  0
  4  1  1  0
  4  3  1  0
  5  4  1  0
  6  7  1  0
  6  5  1  0
  7  9  1  0
  8 19  2  0
  9 14  1  0
 10 18  1  0
 10 20  1  0
 11 17  1  0
 11 13  1  0
 12 18  1  0
 13 12  1  0
 14 13  2  0
 15 16  1  0
 15  9  2  0
 16 11  2  0
 17 10  1  0
 18  8  1  0
 20 22  2  0
 21 20  1  0
 23 21  1  0
 24 33  2  0
 24 29  1  0
 25 21  1  0
 25 29  1  0
 26 25  1  0
 27 28  1  0
 27 26  1  0
 28 24  1  0
 29 30  2  0
 30 31  1  0
 32 31  2  0
 33 32  1  0
 34  8  1  0
 34 39  1  0
 34 35  1  0
 35 38  1  1
 35 36  1  0
 37 35  1  0
 39 42  1  0
 40 44  1  0
 40 39  1  0
 41 40  2  0
 44 43  1  0
 46 44  1  0
 46 47  1  0
 46 45  1  0
 48  1  1  0
 48 49  1  0
 50 52  1  0
 50 53  1  0
 50 49  1  0
 51 50  1  0
 54 63  1  0
 54 53  1  0
 55 63  1  0
 56 61  1  0
 57 58  1  0
 57 56  1  0
 59 58  1  0
 59 68  1  0
 59 60  1  0
 61 55  1  0
 61 60  1  0
 62 55  2  0
 63 64  1  0
 65 66  2  0
 66 85  1  0
 67 66  1  0
 67 70  1  0
 68 69  1  0
 68 65  1  0
 69 67  2  0
 70 71  1  0
 71 72  2  0
 73 76  1  0
 73 72  1  0
 74 73  2  0
 75 74  1  0
 75 70  2  0
 76 77  1  0
 77 82  2  0
 77 78  1  0
 78 79  2  0
 79 80  1  0
 80 84  1  0
 81 80  2  0
 82 81  1  0
 83 82  1  0
 85 86  1  0
 86 89  1  0
 86 88  1  0
 87 85  2  0
 90 91  1  0
 90 65  1  0
 92 90  1  0
M  ISO  4   6 101   7 101  55 100  63 100
M  END
>  <TORSDO>  (53) 
F 24

>  <SCORE>  (53) 
-10.259

>  <name>  (53) 
53

>  <ligand_id>  (53) 
53

>  <original_smiles>  (53) 
[H]c1c([H])c([H])c2c(c1[H])C([H])([H])C([H])([H])C([H])([H])C2([H])N([H])C(=O)C1([H])N(C(=O)C([H])(N([H])C(=O)C([H])(N([H])C([H])([H])[H])C([H])([H])[H])C(C([H])([H])[H])(C([H])([H])[H])C([H])([H])[H])C([H])([H])c2c([H])c(OC([H])([H])C([H])([H])C([H])(N([H])C([H])([H])C([H])([H])[N+]([H])([H])C([H])([H])C([H])([H])N([H])C(=O)N3C([H])([H])C([H])([H])C([H])([H])C([H])(n4nc(-c5c([H])c([H])c(Oc6c([H])c([H])c(F)c([H])c6F)c([H])c5[H])c(C(=O)N([H])[H])c4N([H])[H])C3([H])[H])C([H])([H])[H])c([H])c([H])c2C1([H])[H]

>  <smiles>  (53) 
[H]c1c([H])c([H])c2c(c1[H])C([H])([H])C([H])([H])C([H])([H])C2([H])N([H])C(=O)C1([H])N(C(=O)C([H])(N([H])C(=O)C([H])(N([H])C([H])([H])[H])C([H])([H])[H])C(C([H])([H])[H])(C([H])([H])[H])C([H])([H])[H])C([H])([H])c2c([H])c(OC([H])([H])C([H])([H])C([H])(N([H])C([H])([H])C([H])([H])[N+]([H])([H])C([H])([H])C([H])([H])N([H])C(=O)N3C([H])([H])C([H])([H])C([H])([H])C([H])(n4nc(-c5c([H])c([H])c(Oc6c([H])c([H])c(F)c([H])c6F)c([H])c5[H])c(C(=O)N([H])[H])c4N([H])[H])C3([H])[H])C([H])([H])[H])c([H])c([H])c2C1([H])[H]

$$$$
54:0:0
     RDKit          3D

 95102  0  0  1  0  0  0  0  0999 V2000
  -25.4540  -22.0320   20.1860 C   0  0  0  0  0  2  0  0  0  0  0  0
  -27.2100  -23.7670   19.7450 C   0  0  0  0  0  0  0  0  0  0  0  0
  -26.6080  -22.8650   20.5290 N   0  0  0  0  0  0  0  0  0  0  0  0
  -26.9100  -23.9090   18.5580 O   0  0  0  0  0  0  0  0  0  0  0  0
  -26.9920  -22.7350   21.4560 H   0  0  0  0  0  0  0  0  0  0  0  0
  -28.3000  -24.6150   20.4140 C   0  0  0  0  0  2  0  0  0  0  0  0
  -28.8370  -25.8130   19.5960 C   0  0  0  0  0  2  0  0  0  0  0  0
  -28.6710  -27.0450   20.3030 O   0  0  0  0  0  0  0  0  0  0  0  0
  -24.6540  -32.0070   23.3970 C   0  0  0  0  0  0  0  0  0  0  0  0
  -27.4480  -27.6800   20.3070 C   0  0  0  0  0  0  0  0  0  0  0  0
  -23.5010  -30.6020   21.7210 C   0  0  0  0  0  3  0  0  0  0  0  0
  -25.0080  -29.1040   20.3190 C   0  0  0  0  0  0  0  0  0  0  0  0
  -26.0200  -31.0210   21.5610 C   0  0  0  0  0  2  0  0  0  0  0  0
  -26.1450  -29.6560   20.9230 C   0  0  0  0  0  0  0  0  0  0  0  0
  -27.3650  -28.9480   20.9230 C   0  0  0  0  0  3  0  0  0  0  0  0
  -26.2850  -27.1390   19.7070 C   0  0  0  0  0  3  0  0  0  0  0  0
  -25.0690  -27.8410   19.7140 C   0  0  0  0  0  3  0  0  0  0  0  0
  -23.7440  -29.9250   20.3480 C   0  0  0  0  0  2  0  0  0  0  0  0
  -24.7430  -31.2250   22.2860 N   0  0  0  0  0  0  0  0  0  0  0  0
  -23.5560  -32.2560   23.9130 O   0  0  0  0  0  0  0  0  0  0  0  0
  -22.8530  -29.5620   22.6620 C   0  0  0  0  0  0  0  0  0  0  0  0
  -21.5400  -29.3410   22.4900 N   0  0  0  0  0  0  0  0  0  0  0  0
  -23.5320  -28.9480   23.4890 O   0  0  0  0  0  0  0  0  0  0  0  0
  -21.0560  -29.9010   21.8020 H   0  0  0  0  0  0  0  0  0  0  0  0
  -18.1890  -28.0370   22.8600 C   0  0  0  0  0  0  0  0  0  0  0  0
  -20.7260  -28.3690   23.2160 C   0  0  0  0  0  3  0  0  0  0  0  0
  -20.8920  -26.9450   22.6340 C   0  0  0  0  0  2  0  0  0  0  0  0
  -19.8310  -26.5850   21.5870 C   0  0  0  0  0  2  0  0  0  0  0  0
  -18.4250  -26.6960   22.1840 C   0  0  0  0  0  2  0  0  0  0  0  0
  -19.2690  -28.8290   23.3280 C   0  0  0  0  0  0  0  0  0  0  0  0
  -18.9980  -30.0840   23.9160 C   0  0  0  0  0  3  0  0  0  0  0  0
  -17.6740  -30.5480   24.0370 C   0  0  0  0  0  3  0  0  0  0  0  0
  -16.6060  -29.7530   23.5850 C   0  0  0  0  0  3  0  0  0  0  0  0
  -16.8620  -28.4970   23.0080 C   0  0  0  0  0  3  0  0  0  0  0  0
  -25.9170  -32.6510   24.0520 C   0  0  0  0  0  3  0  0  0  0  0  0
  -26.3800  -31.9230   25.3730 C   0  0  1  0  0  0  0  0  0  0  0  0
  -25.2390  -31.7110   26.3940 C   0  0  0  0  0  1  0  0  0  0  0  0
  -26.9920  -30.5400   25.0460 C   0  0  0  0  0  1  0  0  0  0  0  0
  -27.4940  -32.7450   26.0670 C   0  0  0  0  0  1  0  0  0  0  0  0
  -25.6060  -34.0630   24.3110 N   0  0  0  0  0  0  0  0  0  0  0  0
  -25.9790  -35.0830   23.5260 C   0  0  0  0  0  0  0  0  0  0  0  0
  -26.6930  -34.9360   22.5290 O   0  0  0  0  0  0  0  0  0  0  0  0
  -24.9940  -34.2550   25.0900 H   0  0  0  0  0  0  0  0  0  0  0  0
  -24.2860  -36.8710   23.0210 C   0  0  0  0  0  1  0  0  0  0  0  0
  -25.4830  -36.4920   23.9060 C   0  0  0  0  0  3  0  0  0  0  0  0
  -27.5770  -37.3940   24.8110 C   0  0  0  0  0  1  0  0  0  0  0  0
  -26.5290  -37.5320   23.8040 N   0  0  0  0  0  0  0  0  0  0  0  0
  -26.1240  -38.4610   23.8970 H   0  0  0  0  0  0  0  0  0  0  0  0
  -25.7870  -20.9240   19.1680 C   0  0  0  0  0  2  0  0  0  0  0  0
  -27.1600  -20.2750   19.4250 C   0  0  0  0  0  2  0  0  0  0  0  0
  -27.3840  -18.9710   18.6350 C   0  0  0  0  0  2  0  0  0  0  0  0
  -28.7410  -18.4210   18.8420 N   0  0  0  0  0  4  0  0  0  0  0  0
  -29.4150  -19.0970   18.5190 H   0  0  0  0  0  0  0  0  0  0  0  0
  -28.8300  -17.6180   18.2400 H   0  0  0  0  0  0  0  0  0  0  0  0
  -29.0710  -18.0090   20.2260 C   0  0  0  0  0  2  0  0  0  0  0  0
  -30.5910  -17.8630   20.4210 C   0  0  0  0  0  2  0  0  0  0  0  0
  -30.9400  -17.0770   21.6970 C   0  0  0  0  0  2  0  0  0  0  0  0
  -31.1610  -14.7700   20.8220 C   0  0  0  0  0  0  0  0  0  0  0  0
  -30.9230  -12.5950   19.6920 C   0  0  0  0  0  2  0  0  0  0  0  0
  -30.0510  -12.7060   18.4250 C   0  0  0  0  0  2  0  0  0  0  0  0
  -28.5500  -12.6080   18.7640 C   0  0  0  0  0  2  0  0  0  0  0  0
  -28.1280  -13.5190   19.9500 C   0  0  0  0  0  3  0  0  0  0  0  0
  -29.1090  -13.3330   21.1300 C   0  0  0  0  0  2  0  0  0  0  0  0
  -30.4770  -13.6100   20.6530 N   0  0  0  0  0  0  0  0  0  0  0  0
  -32.2400  -15.0160   20.2830 O   0  0  0  0  0  0  0  0  0  0  0  0
  -30.5300  -15.6830   21.5670 N   0  0  0  0  0  0  0  0  0  0  0  0
  -29.6520  -15.4000   21.9760 H   0  0  0  0  0  0  0  0  0  0  0  0
  -25.6850  -14.1530   20.4970 C   0  0  0  0  0  0  0  0  0  0  0  0
  -24.5940  -13.3920   20.8110 C   0  0  0  0  0  0  0  0  0  0  0  0
  -25.0510  -12.0380   20.8280 C   0  0  0  0  0  0  0  0  0  0  0  0
  -26.7430  -13.2650   20.3480 N   0  0  0  0  0  0  0  0  0  0  0  0
  -26.3570  -11.9900   20.6000 N   0  0  0  0  0  0  0  0  0  0  0  0
  -24.3090  -10.7820   20.9860 C   0  0  0  0  0  0  0  0  0  0  0  0
  -24.6380   -9.8500   21.9950 C   0  0  0  0  0  3  0  0  0  0  0  0
  -23.8960   -8.6570   22.1370 C   0  0  0  0  0  3  0  0  0  0  0  0
  -22.8100   -8.3890   21.2700 C   0  0  0  0  0  0  0  0  0  0  0  0
  -22.5010   -9.3080   20.2520 C   0  0  0  0  0  3  0  0  0  0  0  0
  -23.2460  -10.4920   20.1070 C   0  0  0  0  0  3  0  0  0  0  0  0
  -22.0500   -7.2440   21.3180 O   0  0  0  0  0  0  0  0  0  0  0  0
  -21.8230   -6.5810   22.4970 C   0  0  0  0  0  0  0  0  0  0  0  0
  -21.1870   -7.2030   23.5930 C   0  0  0  0  0  3  0  0  0  0  0  0
  -20.9100   -6.4650   24.7600 C   0  0  0  0  0  3  0  0  0  0  0  0
  -21.2620   -5.1030   24.8320 C   0  0  0  0  0  0  0  0  0  0  0  0
  -21.8920   -4.4810   23.7410 C   0  0  0  0  0  3  0  0  0  0  0  0
  -22.1700   -5.2170   22.5770 C   0  0  0  0  0  0  0  0  0  0  0  0
  -22.7550   -4.6050   21.5190 F   0  0  0  0  0  0  0  0  0  0  0  0
  -20.9920   -4.3900   25.9510 F   0  0  0  0  0  0  0  0  0  0  0  0
  -23.1830  -13.8790   20.9870 C   0  0  0  0  0  0  0  0  0  0  0  0
  -22.3980  -13.2130   21.8240 N   0  0  0  0  0  0  0  0  0  0  0  0
  -22.7820  -14.8920   20.4150 O   0  0  0  0  0  0  0  0  0  0  0  0
  -22.7250  -12.3920   22.3160 H   0  0  0  0  0  0  0  0  0  0  0  0
  -21.4510  -13.5290   21.9760 H   0  0  0  0  0  0  0  0  0  0  0  0
  -25.8610  -15.5200   20.3000 N   0  0  0  0  0  0  0  0  0  0  0  0
  -25.0900  -16.1750   20.3670 H   0  0  0  0  0  0  0  0  0  0  0  0
  -26.7150  -15.9400   19.9650 H   0  0  0  0  0  0  0  0  0  0  0  0
  1  3  1  0
  2  6  1  0
  2  3  1  0
  3  5  1  0
  4  2  2  0
  7  8  1  0
  7  6  1  0
  8 10  1  0
  9 20  2  0
 10 15  1  0
 11 19  1  0
 11 21  1  0
 12 18  1  0
 12 14  1  0
 13 19  1  0
 14 13  1  0
 15 14  2  0
 16 17  1  0
 16 10  2  0
 17 12  2  0
 18 11  1  0
 19  9  1  0
 21 23  2  0
 22 21  1  0
 24 22  1  0
 25 34  2  0
 25 30  1  0
 26 22  1  0
 26 30  1  0
 27 26  1  0
 28 29  1  0
 28 27  1  0
 29 25  1  0
 30 31  2  0
 31 32  1  0
 33 32  2  0
 34 33  1  0
 35  9  1  0
 35 40  1  0
 35 36  1  0
 36 39  1  1
 36 37  1  0
 38 36  1  0
 40 43  1  0
 41 45  1  0
 41 40  1  0
 42 41  2  0
 45 44  1  0
 47 48  1  0
 47 45  1  0
 47 46  1  0
 49 50  1  0
 49  1  1  0
 51 52  1  0
 51 50  1  0
 52 55  1  0
 53 52  1  0
 54 52  1  0
 55 56  1  0
 56 57  1  0
 58 66  1  0
 59 64  1  0
 60 61  1  0
 60 59  1  0
 62 61  1  0
 62 71  1  0
 62 63  1  0
 64 58  1  0
 64 63  1  0
 65 58  2  0
 66 57  1  0
 66 67  1  0
 68 69  2  0
 69 70  1  0
 69 88  1  0
 70 73  1  0
 71 68  1  0
 71 72  1  0
 72 70  2  0
 73 74  1  0
 74 75  2  0
 76 79  1  0
 76 75  1  0
 77 76  2  0
 78 77  1  0
 78 73  2  0
 79 80  1  0
 80 85  2  0
 80 81  1  0
 81 82  2  0
 82 83  1  0
 83 87  1  0
 84 83  2  0
 85 84  1  0
 86 85  1  0
 88 89  1  0
 89 92  1  0
 89 91  1  0
 90 88  2  0
 93 94  1  0
 93 68  1  0
 95 93  1  0
M  ISO  4   7 101   8 101  58 100  66 100
M  END
>  <TORSDO>  (54) 
F 26

>  <SCORE>  (54) 
-10.201

>  <name>  (54) 
54

>  <ligand_id>  (54) 
54

>  <original_smiles>  (54) 
[H]c1c([H])c([H])c2c(c1[H])C([H])([H])C([H])([H])C([H])([H])C2([H])N([H])C(=O)C1([H])N(C(=O)C([H])(N([H])C(=O)C([H])(N([H])C([H])([H])[H])C([H])([H])[H])C(C([H])([H])[H])(C([H])([H])[H])C([H])([H])[H])C([H])([H])c2c([H])c(OC([H])([H])C([H])([H])C(=O)N([H])C([H])([H])C([H])([H])C([H])([H])C([H])([H])[N+]([H])([H])C([H])([H])C([H])([H])C([H])([H])N([H])C(=O)N3C([H])([H])C([H])([H])C([H])([H])C([H])(n4nc(-c5c([H])c([H])c(Oc6c([H])c([H])c(F)c([H])c6F)c([H])c5[H])c(C(=O)N([H])[H])c4N([H])[H])C3([H])[H])c([H])c([H])c2C1([H])[H]

>  <smiles>  (54) 
[H]c1c([H])c([H])c2c(c1[H])C([H])([H])C([H])([H])C([H])([H])C2([H])N([H])C(=O)C1([H])N(C(=O)C([H])(N([H])C(=O)C([H])(N([H])C([H])([H])[H])C([H])([H])[H])C(C([H])([H])[H])(C([H])([H])[H])C([H])([H])[H])C([H])([H])c2c([H])c(OC([H])([H])C([H])([H])C(=O)N([H])C([H])([H])C([H])([H])C([H])([H])C([H])([H])[N+]([H])([H])C([H])([H])C([H])([H])C([H])([H])N([H])C(=O)N3C([H])([H])C([H])([H])C([H])([H])C([H])(n4nc(-c5c([H])c([H])c(Oc6c([H])c([H])c(F)c([H])c6F)c([H])c5[H])c(C(=O)N([H])[H])c4N([H])[H])C3([H])[H])c([H])c([H])c2C1([H])[H]

$$$$
55:0:0
     RDKit          3D

103111  0  0  1  0  0  0  0  0999 V2000
  -24.4100  -23.1430   21.8350 N   0  0  0  0  0  4  0  0  0  0  0  0
  -24.0900  -22.5570   22.5910 H   0  0  0  0  0  0  0  0  0  0  0  0
  -24.2170  -24.0970   22.0940 H   0  0  0  0  0  0  0  0  0  0  0  0
  -23.5900  -22.7860   20.6520 C   0  0  0  0  0  2  0  0  0  0  0  0
  -24.3200  -22.8390   19.2860 C   0  0  0  0  0  2  0  0  0  0  0  0
  -27.3780  -20.7580   18.1810 C   0  0  0  0  0  3  0  0  0  0  0  0
  -25.5300  -19.2520   18.6010 C   0  0  0  0  0  3  0  0  0  0  0  0
  -26.5670  -21.8510   18.5600 C   0  0  0  0  0  3  0  0  0  0  0  0
  -24.6940  -20.3380   18.9220 C   0  0  0  0  0  3  0  0  0  0  0  0
  -26.8610  -19.4440   18.1930 C   0  0  0  0  0  0  0  0  0  0  0  0
  -25.2170  -21.6530   18.9330 C   0  0  0  0  0  0  0  0  0  0  0  0
  -27.7110  -18.2650   17.7140 C   0  0  0  0  0  2  0  0  0  0  0  0
  -28.9020  -17.9100   18.6300 C   0  0  0  0  0  2  0  0  0  0  0  0
  -29.6500  -16.5830   18.2960 C   0  0  0  0  0  2  0  0  0  0  0  0
  -30.4370  -14.7320   19.8020 C   0  0  0  0  0  0  0  0  0  0  0  0
  -30.7560  -12.5360   20.8930 C   0  0  0  0  0  2  0  0  0  0  0  0
  -30.1810  -11.4470   19.9620 C   0  0  0  0  0  2  0  0  0  0  0  0
  -28.6700  -11.2580   20.2030 C   0  0  0  0  0  2  0  0  0  0  0  0
  -27.8900  -12.5990   20.2290 C   0  0  0  0  0  3  0  0  0  0  0  0
  -28.6040  -13.6320   21.1290 C   0  0  0  0  0  2  0  0  0  0  0  0
  -29.9890  -13.7660   20.6540 N   0  0  0  0  0  0  0  0  0  0  0  0
  -31.6050  -14.8020   19.4130 O   0  0  0  0  0  0  0  0  0  0  0  0
  -29.4750  -15.5330   19.3060 N   0  0  0  0  0  0  0  0  0  0  0  0
  -28.5480  -15.3870   19.6710 H   0  0  0  0  0  0  0  0  0  0  0  0
  -25.4920  -13.3320   20.7900 C   0  0  0  0  0  0  0  0  0  0  0  0
  -24.3610  -12.6270   21.1000 C   0  0  0  0  0  0  0  0  0  0  0  0
  -24.7440  -11.2520   21.0800 C   0  0  0  0  0  0  0  0  0  0  0  0
  -26.4980  -12.3960   20.6230 N   0  0  0  0  0  0  0  0  0  0  0  0
  -26.0470  -11.1360   20.8490 N   0  0  0  0  0  0  0  0  0  0  0  0
  -23.9360  -10.0360   21.2160 C   0  0  0  0  0  0  0  0  0  0  0  0
  -24.0320   -9.2090   22.3560 C   0  0  0  0  0  3  0  0  0  0  0  0
  -23.2270   -8.0530   22.4680 C   0  0  0  0  0  3  0  0  0  0  0  0
  -22.3160   -7.7190   21.4390 C   0  0  0  0  0  0  0  0  0  0  0  0
  -22.2450   -8.5330   20.2950 C   0  0  0  0  0  3  0  0  0  0  0  0
  -23.0500   -9.6800   20.1830 C   0  0  0  0  0  3  0  0  0  0  0  0
  -21.5180   -6.6010   21.4520 O   0  0  0  0  0  0  0  0  0  0  0  0
  -20.8550   -6.2030   22.5840 C   0  0  0  0  0  0  0  0  0  0  0  0
  -19.9180   -7.0380   23.2300 C   0  0  0  0  0  3  0  0  0  0  0  0
  -19.2100   -6.5630   24.3510 C   0  0  0  0  0  3  0  0  0  0  0  0
  -19.4320   -5.2560   24.8240 C   0  0  0  0  0  0  0  0  0  0  0  0
  -20.3620   -4.4220   24.1790 C   0  0  0  0  0  3  0  0  0  0  0  0
  -21.0710   -4.8940   23.0610 C   0  0  0  0  0  0  0  0  0  0  0  0
  -21.9520   -4.0810   22.4280 F   0  0  0  0  0  0  0  0  0  0  0  0
  -18.7460   -4.7950   25.8960 F   0  0  0  0  0  0  0  0  0  0  0  0
  -22.9860  -13.1940   21.3050 C   0  0  0  0  0  0  0  0  0  0  0  0
  -22.1910  -12.5690   22.1670 N   0  0  0  0  0  0  0  0  0  0  0  0
  -22.6240  -14.2150   20.7290 O   0  0  0  0  0  0  0  0  0  0  0  0
  -22.5080  -11.7410   22.6490 H   0  0  0  0  0  0  0  0  0  0  0  0
  -21.2610  -12.9210   22.3470 H   0  0  0  0  0  0  0  0  0  0  0  0
  -25.7350  -14.6830   20.6080 N   0  0  0  0  0  0  0  0  0  0  0  0
  -24.9760  -15.3530   20.6240 H   0  0  0  0  0  0  0  0  0  0  0  0
  -26.6120  -15.0720   20.2930 H   0  0  0  0  0  0  0  0  0  0  0  0
  -25.8690  -22.9450   21.7260 C   0  0  0  0  0  2  0  0  0  0  0  0
  -26.4610  -23.8650   20.6470 C   0  0  0  0  0  2  0  0  0  0  0  0
  -27.5700  -23.1690   19.8480 C   0  0  0  0  0  2  0  0  0  0  0  0
  -28.4500  -24.1440   19.0400 C   0  0  0  0  0  2  0  0  0  0  0  0
  -27.7690  -24.7120   17.7870 C   0  0  0  0  0  0  0  0  0  0  0  0
  -27.7220  -26.0420   17.6600 N   0  0  0  0  0  0  0  0  0  0  0  0
  -27.3130  -23.9510   16.9360 O   0  0  0  0  0  0  0  0  0  0  0  0
  -28.1580  -26.6020   18.3800 H   0  0  0  0  0  0  0  0  0  0  0  0
  -27.0580  -26.7440   16.5580 C   0  0  0  0  0  2  0  0  0  0  0  0
  -26.8980  -28.2460   16.8680 C   0  0  0  0  0  2  0  0  0  0  0  0
  -25.6650  -28.7740   16.3470 O   0  0  0  0  0  0  0  0  0  0  0  0
  -24.1230  -27.7620   23.1780 C   0  0  0  0  0  0  0  0  0  0  0  0
  -24.6880  -28.8280   17.3080 C   0  0  0  0  0  0  0  0  0  0  0  0
  -22.1820  -27.8240   21.6340 C   0  0  0  0  0  3  0  0  0  0  0  0
  -22.6730  -28.6850   19.2790 C   0  0  0  0  0  0  0  0  0  0  0  0
  -24.3070  -29.1400   21.1140 C   0  0  0  0  0  2  0  0  0  0  0  0
  -23.9950  -28.9550   19.6460 C   0  0  0  0  0  0  0  0  0  0  0  0
  -25.0040  -29.0350   18.6660 C   0  0  0  0  0  3  0  0  0  0  0  0
  -23.3500  -28.5850   16.9430 C   0  0  0  0  0  3  0  0  0  0  0  0
  -22.3390  -28.5080   17.9220 C   0  0  0  0  0  3  0  0  0  0  0  0
  -21.6610  -28.6180   20.4010 C   0  0  0  0  0  2  0  0  0  0  0  0
  -23.5810  -28.2120   22.0090 N   0  0  0  0  0  0  0  0  0  0  0  0
  -23.4620  -27.0790   23.9700 O   0  0  0  0  0  0  0  0  0  0  0  0
  -22.0130  -26.3120   21.3660 C   0  0  0  0  0  0  0  0  0  0  0  0
  -20.7830  -25.8820   21.0450 N   0  0  0  0  0  0  0  0  0  0  0  0
  -22.9840  -25.5530   21.4190 O   0  0  0  0  0  0  0  0  0  0  0  0
  -20.0410  -26.5650   21.0210 H   0  0  0  0  0  0  0  0  0  0  0  0
  -18.1660  -23.8770   19.5630 C   0  0  0  0  0  0  0  0  0  0  0  0
  -20.3930  -24.5110   20.7140 C   0  0  0  0  0  3  0  0  0  0  0  0
  -21.0910  -24.0300   19.4190 C   0  0  0  0  0  2  0  0  0  0  0  0
  -20.2480  -24.2150   18.1480 C   0  0  0  0  0  2  0  0  0  0  0  0
  -18.8910  -23.5160   18.2760 C   0  0  0  0  0  2  0  0  0  0  0  0
  -18.8680  -24.3570   20.6950 C   0  0  0  0  0  0  0  0  0  0  0  0
  -18.1470  -24.7040   21.8550 C   0  0  0  0  0  3  0  0  0  0  0  0
  -16.7480  -24.5800   21.9020 C   0  0  0  0  0  3  0  0  0  0  0  0
  -16.0540  -24.0910   20.7800 C   0  0  0  0  0  3  0  0  0  0  0  0
  -16.7630  -23.7330   19.6190 C   0  0  0  0  0  3  0  0  0  0  0  0
  -25.5900  -28.1080   23.5900 C   0  0  0  0  0  3  0  0  0  0  0  0
  -25.5560  -28.6200   24.9650 N   0  0  0  0  0  0  0  0  0  0  0  0
  -25.7140  -29.9100   25.2990 C   0  0  0  0  0  0  0  0  0  0  0  0
  -25.9850  -30.7890   24.4780 O   0  0  0  0  0  0  0  0  0  0  0  0
  -25.2860  -27.9660   25.6840 H   0  0  0  0  0  0  0  0  0  0  0  0
  -24.1790  -30.9420   27.0010 C   0  0  0  0  0  1  0  0  0  0  0  0
  -25.5490  -30.2790   26.7850 C   0  0  0  0  0  3  0  0  0  0  0  0
  -27.9220  -30.5130   27.3780 C   0  0  0  0  0  1  0  0  0  0  0  0
  -26.6190  -31.1680   27.2920 N   0  0  0  0  0  0  0  0  0  0  0  0
  -26.3820  -31.5210   28.2150 H   0  0  0  0  0  0  0  0  0  0  0  0
  -26.5750  -26.8840   23.4730 C   0  0  1  0  0  0  0  0  0  0  0  0
  -26.0720  -25.6180   24.2050 C   0  0  0  0  0  1  0  0  0  0  0  0
  -26.8200  -26.5190   21.9910 C   0  0  0  0  0  1  0  0  0  0  0  0
  -27.9560  -27.2660   24.0630 C   0  0  0  0  0  1  0  0  0  0  0  0
  1  3  1  0
  1  2  1  0
  4  1  1  0
  5  4  1  0
  6 10  2  0
  6  8  1  0
  7  9  2  0
  8 11  2  0
  9 11  1  0
 10  7  1  0
 11  5  1  0
 12 10  1  0
 12 13  1  0
 14 13  1  0
 14 23  1  0
 15 21  1  0
 17 18  1  0
 17 16  1  0
 19 18  1  0
 19 28  1  0
 19 20  1  0
 21 16  1  0
 21 20  1  0
 22 15  2  0
 23 24  1  0
 23 15  1  0
 25 26  2  0
 26 45  1  0
 27 26  1  0
 27 30  1  0
 28 25  1  0
 28 29  1  0
 29 27  2  0
 30 31  1  0
 31 32  2  0
 33 36  1  0
 33 32  1  0
 34 33  2  0
 35 34  1  0
 35 30  2  0
 36 37  1  0
 37 42  2  0
 37 38  1  0
 38 39  2  0
 39 40  1  0
 40 44  1  0
 41 40  2  0
 42 41  1  0
 43 42  1  0
 45 46  1  0
 46 49  1  0
 46 48  1  0
 47 45  2  0
 50 51  1  0
 50 25  1  0
 52 50  1  0
 53  1  1  0
 54 53  1  0
 55 54  1  0
 56 55  1  0
 57 56  1  0
 58 57  1  0
 58 60  1  0
 59 57  2  0
 61 62  1  0
 61 58  1  0
 63 62  1  0
 63 65  1  0
 64 75  2  0
 65 70  1  0
 66 76  1  0
 66 74  1  0
 67 69  1  0
 67 73  1  0
 68 74  1  0
 69 68  1  0
 70 69  2  0
 71 65  2  0
 71 72  1  0
 72 67  2  0
 73 66  1  0
 74 64  1  0
 76 78  2  0
 77 76  1  0
 79 77  1  0
 80 89  2  0
 80 85  1  0
 81 77  1  0
 82 81  1  0
 83 84  1  0
 83 82  1  0
 84 80  1  0
 85 81  1  0
 85 86  2  0
 86 87  1  0
 88 87  2  0
 89 88  1  0
 90 64  1  0
 90 91  1  0
 91 92  1  0
 91 94  1  0
 92 96  1  0
 93 92  2  0
 96 95  1  0
 96 98  1  0
 98 97  1  0
 98 99  1  0
100 90  1  0
100103  1  1
100101  1  0
102100  1  0
M  ISO  4  15 100  23 100  62 101  63 101
M  END
>  <TORSDO>  (55) 
F 29

>  <SCORE>  (55) 
-3.358

>  <name>  (55) 
55

>  <ligand_id>  (55) 
55

>  <original_smiles>  (55) 
[H]c1c([H])c([H])c2c(c1[H])C([H])([H])C([H])([H])C([H])([H])C2([H])N([H])C(=O)C1([H])N(C(=O)C([H])(N([H])C(=O)C([H])(N([H])C([H])([H])[H])C([H])([H])[H])C(C([H])([H])[H])(C([H])([H])[H])C([H])([H])[H])C([H])([H])c2c([H])c(OC([H])([H])C([H])([H])N([H])C(=O)C([H])([H])C([H])([H])C([H])([H])C([H])([H])[N+]([H])([H])C([H])([H])C([H])([H])c3c([H])c([H])c(C([H])([H])C([H])([H])C([H])([H])N([H])C(=O)N4C([H])([H])C([H])([H])C([H])([H])C([H])(n5nc(-c6c([H])c([H])c(Oc7c([H])c([H])c(F)c([H])c7F)c([H])c6[H])c(C(=O)N([H])[H])c5N([H])[H])C4([H])[H])c([H])c3[H])c([H])c([H])c2C1([H])[H]

>  <smiles>  (55) 
[H]c1c([H])c([H])c2c(c1[H])C([H])([H])C([H])([H])C([H])([H])C2([H])N([H])C(=O)C1([H])N(C(=O)C([H])(N([H])C(=O)C([H])(N([H])C([H])([H])[H])C([H])([H])[H])C(C([H])([H])[H])(C([H])([H])[H])C([H])([H])[H])C([H])([H])c2c([H])c(OC([H])([H])C([H])([H])N([H])C(=O)C([H])([H])C([H])([H])C([H])([H])C([H])([H])[N+]([H])([H])C([H])([H])C([H])([H])c3c([H])c([H])c(C([H])([H])C([H])([H])C([H])([H])N([H])C(=O)N4C([H])([H])C([H])([H])C([H])([H])C([H])(n5nc(-c6c([H])c([H])c(Oc7c([H])c([H])c(F)c([H])c7F)c([H])c6[H])c(C(=O)N([H])[H])c5N([H])[H])C4([H])[H])c([H])c3[H])c([H])c([H])c2C1([H])[H]

$$$$
56:0:0
     RDKit          3D

106114  0  0  1  0  0  0  0  0999 V2000
  -29.9630  -23.8650   24.7670 C   0  0  0  0  0  0  0  0  0  0  0  0
  -28.7420  -24.0840   25.2700 N   0  0  0  0  0  0  0  0  0  0  0  0
  -30.8540  -24.7180   24.7370 O   0  0  0  0  0  0  0  0  0  0  0  0
  -28.0910  -23.3120   25.2370 H   0  0  0  0  0  0  0  0  0  0  0  0
  -30.4700  -21.2370   22.0560 C   0  0  0  0  0  3  0  0  0  0  0  0
  -30.2580  -20.0940   24.1970 C   0  0  0  0  0  3  0  0  0  0  0  0
  -30.3360  -22.4780   22.7060 C   0  0  0  0  0  3  0  0  0  0  0  0
  -30.1140  -21.3340   24.8450 C   0  0  0  0  0  3  0  0  0  0  0  0
  -30.4300  -20.0280   22.7950 C   0  0  0  0  0  0  0  0  0  0  0  0
  -30.1410  -22.5350   24.1010 C   0  0  0  0  0  0  0  0  0  0  0  0
  -30.5570  -18.6840   22.1420 C   0  0  0  0  0  0  0  0  0  0  0  0
  -30.4820  -17.6310   22.7870 O   0  0  0  0  0  0  0  0  0  0  0  0
  -30.8520  -18.6170   20.6190 C   0  0  0  0  0  0  0  0  0  0  0  0
  -32.1200  -18.9450   20.3360 N   0  0  0  0  0  0  0  0  0  0  0  0
  -30.0160  -18.2690   19.7780 O   0  0  0  0  0  0  0  0  0  0  0  0
  -32.7030  -19.2020   21.1220 H   0  0  0  0  0  0  0  0  0  0  0  0
  -32.7210  -18.9870   19.0150 C   0  0  0  0  0  2  0  0  0  0  0  0
  -33.6450  -17.7780   18.8090 C   0  0  0  0  0  2  0  0  0  0  0  0
  -33.1730  -15.3650   18.5050 C   0  0  0  0  0  0  0  0  0  0  0  0
  -33.1490  -12.9500   18.9450 C   0  0  0  0  0  2  0  0  0  0  0  0
  -32.1990  -12.1630   18.0300 C   0  0  0  0  0  2  0  0  0  0  0  0
  -30.7850  -12.1320   18.6300 C   0  0  0  0  0  2  0  0  0  0  0  0
  -30.2760  -13.5470   19.0080 C   0  0  0  0  0  3  0  0  0  0  0  0
  -31.3250  -14.3140   19.8460 C   0  0  0  0  0  2  0  0  0  0  0  0
  -32.6170  -14.3040   19.1310 N   0  0  0  0  0  0  0  0  0  0  0  0
  -33.9810  -15.2720   17.5770 O   0  0  0  0  0  0  0  0  0  0  0  0
  -32.9610  -16.5300   19.1250 N   0  0  0  0  0  0  0  0  0  0  0  0
  -32.3470  -16.5190   19.9260 H   0  0  0  0  0  0  0  0  0  0  0  0
  -28.1730  -14.5050   20.1510 C   0  0  0  0  0  0  0  0  0  0  0  0
  -27.0460  -13.9020   20.6410 C   0  0  0  0  0  0  0  0  0  0  0  0
  -27.2300  -12.4990   20.4430 C   0  0  0  0  0  0  0  0  0  0  0  0
  -28.9830  -13.4770   19.6900 N   0  0  0  0  0  0  0  0  0  0  0  0
  -28.4240  -12.2610   19.9180 N   0  0  0  0  0  0  0  0  0  0  0  0
  -26.3140  -11.3730   20.6700 C   0  0  0  0  0  0  0  0  0  0  0  0
  -26.5610  -10.4120   21.6760 C   0  0  0  0  0  3  0  0  0  0  0  0
  -25.6570   -9.3490   21.8880 C   0  0  0  0  0  3  0  0  0  0  0  0
  -24.4910   -9.2380   21.0930 C   0  0  0  0  0  0  0  0  0  0  0  0
  -24.2620  -10.1850   20.0780 C   0  0  0  0  0  3  0  0  0  0  0  0
  -25.1650  -11.2410   19.8650 C   0  0  0  0  0  3  0  0  0  0  0  0
  -23.5700   -8.2260   21.2090 O   0  0  0  0  0  0  0  0  0  0  0  0
  -22.9810   -7.9240   22.4120 C   0  0  0  0  0  0  0  0  0  0  0  0
  -22.3420   -8.9080   23.1970 C   0  0  0  0  0  3  0  0  0  0  0  0
  -21.6880   -8.5420   24.3900 C   0  0  0  0  0  3  0  0  0  0  0  0
  -21.6640   -7.1940   24.7960 C   0  0  0  0  0  0  0  0  0  0  0  0
  -22.2940   -6.2120   24.0120 C   0  0  0  0  0  3  0  0  0  0  0  0
  -22.9480   -6.5760   22.8210 C   0  0  0  0  0  0  0  0  0  0  0  0
  -23.5350   -5.6210   22.0590 F   0  0  0  0  0  0  0  0  0  0  0  0
  -21.0290   -6.8410   25.9370 F   0  0  0  0  0  0  0  0  0  0  0  0
  -25.8250  -14.5890   21.1820 C   0  0  0  0  0  0  0  0  0  0  0  0
  -25.1240  -13.9530   22.1140 N   0  0  0  0  0  0  0  0  0  0  0  0
  -25.5120  -15.7220   20.8140 O   0  0  0  0  0  0  0  0  0  0  0  0
  -25.3910  -13.0320   22.4310 H   0  0  0  0  0  0  0  0  0  0  0  0
  -24.3100  -14.3940   22.5190 H   0  0  0  0  0  0  0  0  0  0  0  0
  -28.5710  -15.8340   20.0440 N   0  0  0  0  0  0  0  0  0  0  0  0
  -27.9910  -16.6040   20.3590 H   0  0  0  0  0  0  0  0  0  0  0  0
  -29.4770  -16.1320   19.7020 H   0  0  0  0  0  0  0  0  0  0  0  0
  -28.2170  -25.3990   25.6270 C   0  0  0  0  0  2  0  0  0  0  0  0
  -26.8920  -25.7290   24.9060 C   0  0  0  0  0  2  0  0  0  0  0  0
  -26.7820  -25.3990   23.3960 C   0  0  0  0  0  2  0  0  0  0  0  0
  -28.7270  -26.6310   22.3780 C   0  0  0  0  0  0  0  0  0  0  0  0
  -28.0140  -25.5210   22.6110 N   0  0  0  0  0  0  0  0  0  0  0  0
  -28.4420  -27.7210   22.8710 O   0  0  0  0  0  0  0  0  0  0  0  0
  -28.3340  -24.6760   22.1540 H   0  0  0  0  0  0  0  0  0  0  0  0
  -29.9660  -26.4690   21.4900 C   0  0  0  0  0  2  0  0  0  0  0  0
  -30.2000  -27.5880   20.4480 C   0  0  0  0  0  2  0  0  0  0  0  0
  -29.2650  -27.5140   19.3680 O   0  0  0  0  0  0  0  0  0  0  0  0
  -24.6550  -31.5560   23.0430 C   0  0  0  0  0  0  0  0  0  0  0  0
  -28.0100  -28.0600   19.5130 C   0  0  0  0  0  0  0  0  0  0  0  0
  -23.6930  -30.1630   21.2340 C   0  0  0  0  0  3  0  0  0  0  0  0
  -25.3790  -29.0780   19.6600 C   0  0  0  0  0  0  0  0  0  0  0  0
  -26.1040  -30.9940   21.0990 C   0  0  0  0  0  2  0  0  0  0  0  0
  -26.4240  -29.7400   20.3160 C   0  0  0  0  0  0  0  0  0  0  0  0
  -27.7380  -29.2390   20.2440 C   0  0  0  0  0  3  0  0  0  0  0  0
  -26.9500  -27.4110   18.8480 C   0  0  0  0  0  3  0  0  0  0  0  0
  -25.6340  -27.9080   18.9220 C   0  0  0  0  0  3  0  0  0  0  0  0
  -24.0030  -29.6870   19.7890 C   0  0  0  0  0  2  0  0  0  0  0  0
  -24.8310  -30.9170   21.8510 N   0  0  0  0  0  0  0  0  0  0  0  0
  -23.5500  -31.5720   23.6030 O   0  0  0  0  0  0  0  0  0  0  0  0
  -23.2390  -28.9450   22.0670 C   0  0  0  0  0  0  0  0  0  0  0  0
  -21.9580  -28.5750   21.9220 N   0  0  0  0  0  0  0  0  0  0  0  0
  -24.0310  -28.3430   22.7980 O   0  0  0  0  0  0  0  0  0  0  0  0
  -21.3750  -29.1310   21.3130 H   0  0  0  0  0  0  0  0  0  0  0  0
  -18.8140  -26.8340   22.3110 C   0  0  0  0  0  0  0  0  0  0  0  0
  -21.3150  -27.4310   22.5700 C   0  0  0  0  0  3  0  0  0  0  0  0
  -21.6040  -26.1210   21.8050 C   0  0  0  0  0  2  0  0  0  0  0  0
  -20.5260  -25.7730   20.7750 C   0  0  0  0  0  2  0  0  0  0  0  0
  -19.1600  -25.6260   21.4550 C   0  0  0  0  0  2  0  0  0  0  0  0
  -19.8260  -27.6900   22.8200 C   0  0  0  0  0  0  0  0  0  0  0  0
  -19.4510  -28.8130   23.5880 C   0  0  0  0  0  3  0  0  0  0  0  0
  -18.0960  -29.0900   23.8440 C   0  0  0  0  0  3  0  0  0  0  0  0
  -17.0970  -28.2310   23.3510 C   0  0  0  0  0  3  0  0  0  0  0  0
  -17.4590  -27.1030   22.5930 C   0  0  0  0  0  3  0  0  0  0  0  0
  -25.8230  -32.3220   23.7430 C   0  0  0  0  0  3  0  0  0  0  0  0
  -25.3260  -33.6590   24.0940 N   0  0  0  0  0  0  0  0  0  0  0  0
  -25.5800  -34.7720   23.3930 C   0  0  0  0  0  0  0  0  0  0  0  0
  -26.3270  -34.7890   22.4100 O   0  0  0  0  0  0  0  0  0  0  0  0
  -24.6580  -33.7080   24.8500 H   0  0  0  0  0  0  0  0  0  0  0  0
  -23.6690  -36.3550   22.9740 C   0  0  0  0  0  1  0  0  0  0  0  0
  -24.8960  -36.0720   23.8550 C   0  0  0  0  0  3  0  0  0  0  0  0
  -26.8560  -37.1730   24.8460 C   0  0  0  0  0  1  0  0  0  0  0  0
  -25.7970  -37.2470   23.8440 N   0  0  0  0  0  0  0  0  0  0  0  0
  -25.2730  -38.1020   24.0040 H   0  0  0  0  0  0  0  0  0  0  0  0
  -26.3820  -31.5760   25.0180 C   0  0  1  0  0  0  0  0  0  0  0  0
  -25.2810  -31.1300   26.0080 C   0  0  0  0  0  1  0  0  0  0  0  0
  -27.1780  -30.3160   24.6110 C   0  0  0  0  0  1  0  0  0  0  0  0
  -27.3720  -32.4930   25.7750 C   0  0  0  0  0  1  0  0  0  0  0  0
  1  2  1  0
  2 57  1  0
  3  1  2  0
  4  2  1  0
  5  7  2  0
  5  9  1  0
  6  8  1  0
  7 10  1  0
  9  6  2  0
 10  1  1  0
 10  8  2  0
 11 12  2  0
 11  9  1  0
 13 11  1  0
 14 13  1  0
 14 16  1  0
 15 13  2  0
 17 14  1  0
 18 17  1  0
 18 27  1  0
 19 27  1  0
 19 25  1  0
 20 25  1  0
 21 22  1  0
 21 20  1  0
 23 22  1  0
 23 32  1  0
 23 24  1  0
 25 24  1  0
 26 19  2  0
 27 28  1  0
 29 30  2  0
 30 49  1  0
 31 30  1  0
 31 34  1  0
 32 33  1  0
 32 29  1  0
 33 31  2  0
 34 35  1  0
 35 36  2  0
 37 40  1  0
 37 36  1  0
 38 37  2  0
 39 38  1  0
 39 34  2  0
 40 41  1  0
 41 46  2  0
 41 42  1  0
 42 43  2  0
 43 44  1  0
 44 48  1  0
 45 44  2  0
 46 45  1  0
 47 46  1  0
 49 50  1  0
 50 52  1  0
 50 53  1  0
 51 49  2  0
 54 29  1  0
 54 55  1  0
 56 54  1  0
 58 57  1  0
 59 58  1  0
 60 61  1  0
 60 62  2  0
 61 59  1  0
 63 61  1  0
 64 60  1  0
 65 64  1  0
 66 68  1  0
 66 65  1  0
 67 78  2  0
 68 73  1  0
 69 77  1  0
 69 79  1  0
 70 76  1  0
 70 72  1  0
 71 77  1  0
 72 71  1  0
 73 72  2  0
 74 75  1  0
 74 68  2  0
 75 70  2  0
 76 69  1  0
 77 67  1  0
 79 81  2  0
 80 79  1  0
 82 80  1  0
 83 92  2  0
 83 88  1  0
 84 80  1  0
 84 88  1  0
 85 84  1  0
 86 87  1  0
 86 85  1  0
 87 83  1  0
 88 89  2  0
 89 90  1  0
 91 90  2  0
 92 91  1  0
 93 67  1  0
 93 94  1  0
 93103  1  0
 94 97  1  0
 95 99  1  0
 95 94  1  0
 96 95  2  0
 99 98  1  0
101 99  1  0
101102  1  0
101100  1  0
103106  1  1
103104  1  0
105103  1  0
M  ISO  4  19 100  27 100  65 101  66 101
M  END
>  <TORSDO>  (56) 
F 27

>  <SCORE>  (56) 
-0.510

>  <name>  (56) 
56

>  <ligand_id>  (56) 
56

>  <original_smiles>  (56) 
[H]c1c([H])c([H])c2c(c1[H])C([H])([H])C([H])([H])C([H])([H])C2([H])N([H])C(=O)C1([H])N(C(=O)C([H])(N([H])C(=O)C([H])(N([H])C([H])([H])[H])C([H])([H])[H])C(C([H])([H])[H])(C([H])([H])[H])C([H])([H])[H])C([H])([H])c2c([H])c(OC([H])([H])C([H])([H])C(=O)N([H])C([H])([H])C([H])([H])C([H])([H])N([H])C(=O)c3c([H])c([H])c(C(=O)C(=O)N([H])C([H])([H])C([H])([H])N([H])C(=O)N4C([H])([H])C([H])([H])C([H])([H])C([H])(n5nc(-c6c([H])c([H])c(Oc7c([H])c([H])c(F)c([H])c7F)c([H])c6[H])c(C(=O)N([H])[H])c5N([H])[H])C4([H])[H])c([H])c3[H])c([H])c([H])c2C1([H])[H]

>  <smiles>  (56) 
[H]c1c([H])c([H])c2c(c1[H])C([H])([H])C([H])([H])C([H])([H])C2([H])N([H])C(=O)C1([H])N(C(=O)C([H])(N([H])C(=O)C([H])(N([H])C([H])([H])[H])C([H])([H])[H])C(C([H])([H])[H])(C([H])([H])[H])C([H])([H])[H])C([H])([H])c2c([H])c(OC([H])([H])C([H])([H])C(=O)N([H])C([H])([H])C([H])([H])C([H])([H])N([H])C(=O)c3c([H])c([H])c(C(=O)C(=O)N([H])C([H])([H])C([H])([H])N([H])C(=O)N4C([H])([H])C([H])([H])C([H])([H])C([H])(n5nc(-c6c([H])c([H])c(Oc7c([H])c([H])c(F)c([H])c7F)c([H])c6[H])c(C(=O)N([H])[H])c5N([H])[H])C4([H])[H])c([H])c3[H])c([H])c([H])c2C1([H])[H]

$$$$
57:0:0
     RDKit          3D

100108  0  0  1  0  0  0  0  0999 V2000
  -24.8800  -19.4140   24.0450 C   0  0  0  0  0  3  0  0  0  0  0  0
  -25.1480  -18.7490   22.8320 C   0  0  0  0  0  3  0  0  0  0  0  0
  -24.5710  -20.7890   24.0450 C   0  0  0  0  0  3  0  0  0  0  0  0
  -24.7140  -20.8150   21.6160 C   0  0  0  0  0  3  0  0  0  0  0  0
  -25.0990  -19.4560   21.6090 C   0  0  0  0  0  0  0  0  0  0  0  0
  -24.4820  -21.4990   22.8280 C   0  0  0  0  0  0  0  0  0  0  0  0
  -25.4630  -18.7980   20.3090 C   0  0  0  0  0  0  0  0  0  0  0  0
  -26.7080  -18.3110   20.2500 N   0  0  0  0  0  0  0  0  0  0  0  0
  -24.7040  -18.8230   19.3390 O   0  0  0  0  0  0  0  0  0  0  0  0
  -27.2570  -18.3530   21.0980 H   0  0  0  0  0  0  0  0  0  0  0  0
  -27.3850  -17.8890   19.0330 C   0  0  0  0  0  2  0  0  0  0  0  0
  -28.7980  -17.3980   19.3680 C   0  0  0  0  0  2  0  0  0  0  0  0
  -29.5020  -15.0130   19.3340 C   0  0  0  0  0  0  0  0  0  0  0  0
  -29.7880  -12.5680   19.1910 C   0  0  0  0  0  2  0  0  0  0  0  0
  -28.8780  -12.0030   18.0860 C   0  0  0  0  0  2  0  0  0  0  0  0
  -27.4730  -11.6910   18.6390 C   0  0  0  0  0  2  0  0  0  0  0  0
  -26.8750  -12.8760   19.4440 C   0  0  0  0  0  3  0  0  0  0  0  0
  -27.9010  -13.4220   20.4630 C   0  0  0  0  0  2  0  0  0  0  0  0
  -29.1390  -13.7690   19.7370 N   0  0  0  0  0  0  0  0  0  0  0  0
  -30.4470  -15.2330   18.5720 O   0  0  0  0  0  0  0  0  0  0  0  0
  -28.7390  -16.0060   19.8030 N   0  0  0  0  0  0  0  0  0  0  0  0
  -27.9940  -15.7470   20.4330 H   0  0  0  0  0  0  0  0  0  0  0  0
  -24.5710  -13.2980   20.5160 C   0  0  0  0  0  0  0  0  0  0  0  0
  -23.6130  -12.4440   20.9900 C   0  0  0  0  0  0  0  0  0  0  0  0
  -24.1340  -11.1250   20.8080 C   0  0  0  0  0  0  0  0  0  0  0  0
  -25.6190  -12.4960   20.0890 N   0  0  0  0  0  0  0  0  0  0  0  0
  -25.3650  -11.1820   20.3170 N   0  0  0  0  0  0  0  0  0  0  0  0
  -23.5100   -9.8130   21.0260 C   0  0  0  0  0  0  0  0  0  0  0  0
  -23.8350   -9.0190   22.1470 C   0  0  0  0  0  3  0  0  0  0  0  0
  -23.2100   -7.7680   22.3440 C   0  0  0  0  0  3  0  0  0  0  0  0
  -22.2470   -7.3030   21.4190 C   0  0  0  0  0  0  0  0  0  0  0  0
  -21.9460   -8.0860   20.2910 C   0  0  0  0  0  3  0  0  0  0  0  0
  -22.5720   -9.3280   20.0930 C   0  0  0  0  0  3  0  0  0  0  0  0
  -21.6030   -6.0920   21.5140 O   0  0  0  0  0  0  0  0  0  0  0  0
  -21.0550   -5.6620   22.6950 C   0  0  0  0  0  0  0  0  0  0  0  0
  -19.9710   -6.3320   23.3040 C   0  0  0  0  0  3  0  0  0  0  0  0
  -19.3970   -5.8160   24.4830 C   0  0  0  0  0  3  0  0  0  0  0  0
  -19.8930   -4.6230   25.0460 C   0  0  0  0  0  0  0  0  0  0  0  0
  -20.9670   -3.9520   24.4360 C   0  0  0  0  0  3  0  0  0  0  0  0
  -21.5450   -4.4690   23.2640 C   0  0  0  0  0  0  0  0  0  0  0  0
  -22.5650   -3.8060   22.6690 F   0  0  0  0  0  0  0  0  0  0  0  0
  -19.3360   -4.1220   26.1730 F   0  0  0  0  0  0  0  0  0  0  0  0
  -22.2490  -12.8190   21.4960 C   0  0  0  0  0  0  0  0  0  0  0  0
  -21.7020  -12.0430   22.4240 N   0  0  0  0  0  0  0  0  0  0  0  0
  -21.6780  -13.8350   21.1010 O   0  0  0  0  0  0  0  0  0  0  0  0
  -22.1800  -11.2220   22.7670 H   0  0  0  0  0  0  0  0  0  0  0  0
  -20.7930  -12.2730   22.8020 H   0  0  0  0  0  0  0  0  0  0  0  0
  -24.6340  -14.6840   20.3980 N   0  0  0  0  0  0  0  0  0  0  0  0
  -23.8490  -15.2780   20.6370 H   0  0  0  0  0  0  0  0  0  0  0  0
  -25.4000  -15.1950   19.9800 H   0  0  0  0  0  0  0  0  0  0  0  0
  -24.1550  -22.9880   22.8280 C   0  0  0  0  0  2  0  0  0  0  0  0
  -25.2860  -23.8630   22.2400 C   0  0  0  0  0  2  0  0  0  0  0  0
  -25.2600  -23.9800   20.6990 C   0  0  0  0  0  2  0  0  0  0  0  0
  -26.6590  -24.0770   20.0560 C   0  0  0  0  0  2  0  0  0  0  0  0
  -26.6240  -23.7180   18.6200 N   0  0  0  0  0  4  0  0  0  0  0  0
  -26.0720  -24.3880   18.1060 H   0  0  0  0  0  0  0  0  0  0  0  0
  -26.1460  -22.8330   18.5400 H   0  0  0  0  0  0  0  0  0  0  0  0
  -27.9490  -23.5680   17.9660 C   0  0  0  0  0  2  0  0  0  0  0  0
  -28.7900  -24.8530   18.0110 C   0  0  0  0  0  2  0  0  0  0  0  0
  -28.1290  -25.8360   17.2150 O   0  0  0  0  0  0  0  0  0  0  0  0
  -26.1710  -28.5120   23.4940 C   0  0  0  0  0  0  0  0  0  0  0  0
  -27.2610  -26.6310   17.9140 C   0  0  0  0  0  0  0  0  0  0  0  0
  -24.5240  -28.7370   21.6600 C   0  0  0  0  0  3  0  0  0  0  0  0
  -25.3980  -28.2090   19.3210 C   0  0  0  0  0  0  0  0  0  0  0  0
  -27.0260  -28.6590   21.1620 C   0  0  0  0  0  2  0  0  0  0  0  0
  -26.6800  -28.0050   19.8430 C   0  0  0  0  0  0  0  0  0  0  0  0
  -27.6160  -27.2130   19.1490 C   0  0  0  0  0  3  0  0  0  0  0  0
  -25.9790  -26.8660   17.3790 C   0  0  0  0  0  3  0  0  0  0  0  0
  -25.0410  -27.6440   18.0840 C   0  0  0  0  0  3  0  0  0  0  0  0
  -24.4510  -29.0590   20.1410 C   0  0  0  0  0  2  0  0  0  0  0  0
  -25.9330  -28.6060   22.1560 N   0  0  0  0  0  0  0  0  0  0  0  0
  -25.2470  -28.5810   24.3160 O   0  0  0  0  0  0  0  0  0  0  0  0
  -23.6590  -27.4870   21.9390 C   0  0  0  0  0  0  0  0  0  0  0  0
  -22.3410  -27.6130   21.7100 N   0  0  0  0  0  0  0  0  0  0  0  0
  -24.1710  -26.4300   22.3170 O   0  0  0  0  0  0  0  0  0  0  0  0
  -21.9930  -28.5150   21.4150 H   0  0  0  0  0  0  0  0  0  0  0  0
  -18.8830  -26.8020   21.0930 C   0  0  0  0  0  0  0  0  0  0  0  0
  -21.3400  -26.5600   21.8570 C   0  0  0  0  0  3  0  0  0  0  0  0
  -21.4760  -25.5000   20.7380 C   0  0  0  0  0  2  0  0  0  0  0  0
  -20.5860  -25.7900   19.5230 C   0  0  0  0  0  2  0  0  0  0  0  0
  -19.1140  -25.8390   19.9410 C   0  0  0  0  0  2  0  0  0  0  0  0
  -19.9300  -27.1500   21.9860 C   0  0  0  0  0  0  0  0  0  0  0  0
  -19.6680  -28.0770   23.0190 C   0  0  0  0  0  3  0  0  0  0  0  0
  -18.3880  -28.6440   23.1710 C   0  0  0  0  0  3  0  0  0  0  0  0
  -17.3520  -28.2830   22.2930 C   0  0  0  0  0  3  0  0  0  0  0  0
  -17.5990  -27.3630   21.2580 C   0  0  0  0  0  3  0  0  0  0  0  0
  -27.6150  -28.3330   24.0590 C   0  0  0  0  0  3  0  0  0  0  0  0
  -27.9000  -26.8740   24.5870 C   0  0  1  0  0  0  0  0  0  0  0  0
  -26.8340  -26.3520   25.5740 C   0  0  0  0  0  1  0  0  0  0  0  0
  -27.9730  -25.8820   23.4030 C   0  0  0  0  0  1  0  0  0  0  0  0
  -29.2740  -26.8300   25.2940 C   0  0  0  0  0  1  0  0  0  0  0  0
  -27.7980  -29.3210   25.1300 N   0  0  0  0  0  0  0  0  0  0  0  0
  -28.4710  -30.4720   24.9940 C   0  0  0  0  0  0  0  0  0  0  0  0
  -29.0730  -30.7800   23.9610 O   0  0  0  0  0  0  0  0  0  0  0  0
  -27.2860  -29.1660   25.9850 H   0  0  0  0  0  0  0  0  0  0  0  0
  -27.4830  -32.5840   25.9340 C   0  0  0  0  0  1  0  0  0  0  0  0
  -28.4730  -31.4370   26.1940 C   0  0  0  0  0  3  0  0  0  0  0  0
  -30.7370  -30.9970   27.0380 C   0  0  0  0  0  1  0  0  0  0  0  0
  -29.8090  -31.9900   26.5020 N   0  0  0  0  0  0  0  0  0  0  0  0
  -29.7370  -32.7510   27.1720 H   0  0  0  0  0  0  0  0  0  0  0  0
  2  1  2  0
  3  1  1  0
  4  6  1  0
  5  4  2  0
  5  2  1  0
  6  3  2  0
  7  5  1  0
  8  7  1  0
  8 10  1  0
  9  7  2  0
 11 12  1  0
 11  8  1  0
 12 21  1  0
 13 19  1  0
 13 21  1  0
 14 19  1  0
 15 16  1  0
 15 14  1  0
 17 16  1  0
 17 26  1  0
 17 18  1  0
 19 18  1  0
 20 13  2  0
 21 22  1  0
 23 24  2  0
 24 43  1  0
 25 24  1  0
 25 28  1  0
 26 27  1  0
 26 23  1  0
 27 25  2  0
 28 29  1  0
 29 30  2  0
 31 34  1  0
 31 30  1  0
 32 31  2  0
 33 32  1  0
 33 28  2  0
 34 35  1  0
 35 40  2  0
 35 36  1  0
 36 37  2  0
 37 38  1  0
 38 42  1  0
 39 38  2  0
 40 39  1  0
 41 40  1  0
 43 44  1  0
 44 46  1  0
 44 47  1  0
 45 43  2  0
 48 23  1  0
 48 49  1  0
 50 48  1  0
 51  6  1  0
 52 51  1  0
 53 52  1  0
 54 53  1  0
 55 54  1  0
 56 55  1  0
 57 55  1  0
 58 59  1  0
 58 55  1  0
 60 62  1  0
 60 59  1  0
 61 72  2  0
 62 67  1  0
 63 73  1  0
 63 71  1  0
 64 66  1  0
 64 70  1  0
 65 71  1  0
 66 65  1  0
 67 66  2  0
 68 62  2  0
 68 69  1  0
 69 64  2  0
 70 63  1  0
 71 61  1  0
 73 75  2  0
 74 73  1  0
 76 74  1  0
 77 86  2  0
 77 82  1  0
 78 74  1  0
 78 82  1  0
 79 78  1  0
 80 81  1  0
 80 79  1  0
 81 77  1  0
 82 83  2  0
 83 84  1  0
 85 84  2  0
 86 85  1  0
 87 61  1  0
 87 88  1  0
 87 92  1  0
 88 91  1  1
 88 89  1  0
 90 88  1  0
 92 95  1  0
 93 92  1  0
 93 97  1  0
 94 93  2  0
 97 96  1  0
 97 99  1  0
 99 98  1  0
 99100  1  0
M  ISO  4  13 100  21 100  59 101  60 101
M  END
>  <TORSDO>  (57) 
F 26

>  <SCORE>  (57) 
41.440

>  <name>  (57) 
57

>  <ligand_id>  (57) 
57

>  <original_smiles>  (57) 
[H]c1c([H])c([H])c2c(c1[H])C([H])([H])C([H])([H])C([H])([H])C2([H])N([H])C(=O)C1([H])N(C(=O)C([H])(N([H])C(=O)C([H])(N([H])C([H])([H])[H])C([H])([H])[H])C(C([H])([H])[H])(C([H])([H])[H])C([H])([H])[H])C([H])([H])c2c([H])c(OC([H])([H])C([H])([H])[N+]([H])([H])C([H])([H])C([H])([H])C([H])([H])C([H])([H])c3c([H])c([H])c([H])c(C(=O)N([H])C([H])([H])C([H])([H])N([H])C(=O)N4C([H])([H])C([H])([H])C([H])([H])C([H])(n5nc(-c6c([H])c([H])c(Oc7c([H])c([H])c(F)c([H])c7F)c([H])c6[H])c(C(=O)N([H])[H])c5N([H])[H])C4([H])[H])c3[H])c([H])c([H])c2C1([H])[H]

>  <smiles>  (57) 
[H]c1c([H])c([H])c2c(c1[H])C([H])([H])C([H])([H])C([H])([H])C2([H])N([H])C(=O)C1([H])N(C(=O)C([H])(N([H])C(=O)C([H])(N([H])C([H])([H])[H])C([H])([H])[H])C(C([H])([H])[H])(C([H])([H])[H])C([H])([H])[H])C([H])([H])c2c([H])c(OC([H])([H])C([H])([H])[N+]([H])([H])C([H])([H])C([H])([H])C([H])([H])C([H])([H])c3c([H])c([H])c([H])c(C(=O)N([H])C([H])([H])C([H])([H])N([H])C(=O)N4C([H])([H])C([H])([H])C([H])([H])C([H])(n5nc(-c6c([H])c([H])c(Oc7c([H])c([H])c(F)c([H])c7F)c([H])c6[H])c(C(=O)N([H])[H])c5N([H])[H])C4([H])[H])c3[H])c([H])c([H])c2C1([H])[H]

$$$$
58:0:0
     RDKit          3D

104113  0  0  1  0  0  0  0  0999 V2000
  -26.1710  -20.2410   19.6900 C   0  0  0  0  0  3  0  0  0  0  0  0
  -27.6810  -21.5260   18.2770 C   0  0  0  0  0  3  0  0  0  0  0  0
  -25.4380  -21.4120   19.9670 C   0  0  0  0  0  3  0  0  0  0  0  0
  -26.9430  -22.6950   18.5490 C   0  0  0  0  0  3  0  0  0  0  0  0
  -27.2980  -20.2890   18.8390 C   0  0  0  0  0  0  0  0  0  0  0  0
  -25.8130  -22.6460   19.3940 C   0  0  0  0  0  0  0  0  0  0  0  0
  -29.6820  -18.4730   16.7300 C   0  0  0  0  0  2  0  0  0  0  0  0
  -28.1980  -18.7430   16.9920 C   0  0  0  0  0  2  0  0  0  0  0  0
  -30.2630  -18.0750   18.0860 C   0  0  0  0  0  2  0  0  0  0  0  0
  -28.0640  -19.0110   18.5060 C   0  0  0  0  0  3  0  0  0  0  0  0
  -29.5000  -18.9580   19.0850 C   0  0  0  0  0  3  0  0  0  0  0  0
  -29.5320  -18.4540   20.4790 N   0  0  0  0  0  4  0  0  0  0  0  0
  -29.1870  -17.5120   20.4940 H   0  0  0  0  0  0  0  0  0  0  0  0
  -28.9050  -19.0190   21.0320 H   0  0  0  0  0  0  0  0  0  0  0  0
  -30.8530  -18.4680   21.1460 C   0  0  0  0  0  2  0  0  0  0  0  0
  -30.9110  -17.4530   22.3110 C   0  0  0  0  0  2  0  0  0  0  0  0
  -31.0880  -15.2660   21.1290 C   0  0  0  0  0  0  0  0  0  0  0  0
  -30.9000  -13.1990   19.8030 C   0  0  0  0  0  2  0  0  0  0  0  0
  -30.0680  -13.4590   18.5310 C   0  0  0  0  0  2  0  0  0  0  0  0
  -28.5640  -13.2830   18.8170 C   0  0  0  0  0  2  0  0  0  0  0  0
  -28.1030  -14.0610   20.0780 C   0  0  0  0  0  3  0  0  0  0  0  0
  -29.0510  -13.7840   21.2670 C   0  0  0  0  0  2  0  0  0  0  0  0
  -30.4260  -14.1150   20.8500 N   0  0  0  0  0  0  0  0  0  0  0  0
  -32.1820  -15.5620   20.6440 O   0  0  0  0  0  0  0  0  0  0  0  0
  -30.4330  -16.1210   21.9280 N   0  0  0  0  0  0  0  0  0  0  0  0
  -29.5770  -15.7850   22.3470 H   0  0  0  0  0  0  0  0  0  0  0  0
  -25.6310  -14.6200   20.5380 C   0  0  0  0  0  0  0  0  0  0  0  0
  -24.5480  -13.8250   20.8010 C   0  0  0  0  0  0  0  0  0  0  0  0
  -25.0370  -12.4820   20.8060 C   0  0  0  0  0  0  0  0  0  0  0  0
  -26.7120  -13.7610   20.4110 N   0  0  0  0  0  0  0  0  0  0  0  0
  -26.3510  -12.4710   20.6260 N   0  0  0  0  0  0  0  0  0  0  0  0
  -24.3220  -11.2060   20.9150 C   0  0  0  0  0  0  0  0  0  0  0  0
  -24.6750  -10.2430   21.8870 C   0  0  0  0  0  3  0  0  0  0  0  0
  -23.9620   -9.0300   21.9830 C   0  0  0  0  0  3  0  0  0  0  0  0
  -22.8810   -8.7710   21.1080 C   0  0  0  0  0  0  0  0  0  0  0  0
  -22.5490   -9.7220   20.1290 C   0  0  0  0  0  3  0  0  0  0  0  0
  -23.2640  -10.9270   20.0290 C   0  0  0  0  0  3  0  0  0  0  0  0
  -22.1470   -7.6100   21.1130 O   0  0  0  0  0  0  0  0  0  0  0  0
  -21.9630   -6.8790   22.2600 C   0  0  0  0  0  0  0  0  0  0  0  0
  -21.3660   -7.4380   23.4100 C   0  0  0  0  0  3  0  0  0  0  0  0
  -21.1320   -6.6330   24.5440 C   0  0  0  0  0  3  0  0  0  0  0  0
  -21.4840   -5.2700   24.5240 C   0  0  0  0  0  0  0  0  0  0  0  0
  -22.0730   -4.7100   23.3770 C   0  0  0  0  0  3  0  0  0  0  0  0
  -22.3090   -5.5130   22.2470 C   0  0  0  0  0  0  0  0  0  0  0  0
  -22.8570   -4.9640   21.1360 F   0  0  0  0  0  0  0  0  0  0  0  0
  -21.2520   -4.4950   25.6080 F   0  0  0  0  0  0  0  0  0  0  0  0
  -23.1220  -14.2730   20.9360 C   0  0  0  0  0  0  0  0  0  0  0  0
  -22.3280  -13.5610   21.7280 N   0  0  0  0  0  0  0  0  0  0  0  0
  -22.7160  -15.2890   20.3740 O   0  0  0  0  0  0  0  0  0  0  0  0
  -22.6670  -12.7370   22.2030 H   0  0  0  0  0  0  0  0  0  0  0  0
  -21.3680  -13.8440   21.8620 H   0  0  0  0  0  0  0  0  0  0  0  0
  -25.7840  -15.9930   20.3710 N   0  0  0  0  0  0  0  0  0  0  0  0
  -24.9640  -16.5880   20.3140 H   0  0  0  0  0  0  0  0  0  0  0  0
  -26.5860  -16.3800   19.8980 H   0  0  0  0  0  0  0  0  0  0  0  0
  -23.5360  -23.7540   19.2860 C   0  0  0  0  0  1  0  0  0  0  0  0
  -25.0140  -23.9150   19.6790 C   0  0  0  0  0  3  0  0  0  0  0  0
  -25.1690  -24.3870   21.1440 C   0  0  0  0  0  2  0  0  0  0  0  0
  -26.6290  -24.5730   21.6100 C   0  0  0  0  0  2  0  0  0  0  0  0
  -27.2220  -25.8110   21.0640 N   0  0  0  0  0  4  0  0  0  0  0  0
  -26.9830  -26.5800   21.6710 H   0  0  0  0  0  0  0  0  0  0  0  0
  -26.8110  -25.9970   20.1610 H   0  0  0  0  0  0  0  0  0  0  0  0
  -28.6870  -25.7730   20.8610 C   0  0  0  0  0  2  0  0  0  0  0  0
  -29.2080  -27.0950   20.2760 C   0  0  0  0  0  2  0  0  0  0  0  0
  -28.4100  -27.4400   19.1410 O   0  0  0  0  0  0  0  0  0  0  0  0
  -24.4680  -31.8280   23.1820 C   0  0  0  0  0  0  0  0  0  0  0  0
  -27.2210  -28.0970   19.3670 C   0  0  0  0  0  0  0  0  0  0  0  0
  -23.2630  -30.6160   21.3900 C   0  0  0  0  0  3  0  0  0  0  0  0
  -24.7340  -29.3920   19.7030 C   0  0  0  0  0  0  0  0  0  0  0  0
  -25.7460  -31.1600   21.1520 C   0  0  0  0  0  2  0  0  0  0  0  0
  -25.8800  -29.9010   20.3270 C   0  0  0  0  0  0  0  0  0  0  0  0
  -27.1240  -29.2570   20.1680 C   0  0  0  0  0  3  0  0  0  0  0  0
  -26.0640  -27.6010   18.7320 C   0  0  0  0  0  3  0  0  0  0  0  0
  -24.8180  -28.2330   18.9090 C   0  0  0  0  0  3  0  0  0  0  0  0
  -23.4450  -30.1530   19.9180 C   0  0  0  0  0  2  0  0  0  0  0  0
  -24.5130  -31.2060   21.9690 N   0  0  0  0  0  0  0  0  0  0  0  0
  -23.4010  -31.9510   23.7980 O   0  0  0  0  0  0  0  0  0  0  0  0
  -22.7120  -29.4290   22.2090 C   0  0  0  0  0  0  0  0  0  0  0  0
  -21.3980  -29.1790   22.0900 N   0  0  0  0  0  0  0  0  0  0  0  0
  -23.4610  -28.7390   22.9060 O   0  0  0  0  0  0  0  0  0  0  0  0
  -20.8530  -29.7920   21.5000 H   0  0  0  0  0  0  0  0  0  0  0  0
  -18.1210  -27.7190   22.5020 C   0  0  0  0  0  0  0  0  0  0  0  0
  -20.6680  -28.0910   22.7370 C   0  0  0  0  0  3  0  0  0  0  0  0
  -20.8340  -26.7700   21.9500 C   0  0  0  0  0  2  0  0  0  0  0  0
  -19.7140  -26.5300   20.9330 C   0  0  0  0  0  2  0  0  0  0  0  0
  -18.3500  -26.4940   21.6300 C   0  0  0  0  0  2  0  0  0  0  0  0
  -19.2090  -28.4760   23.0080 C   0  0  0  0  0  0  0  0  0  0  0  0
  -18.9420  -29.6230   23.7850 C   0  0  0  0  0  3  0  0  0  0  0  0
  -17.6190  -30.0160   24.0590 C   0  0  0  0  0  3  0  0  0  0  0  0
  -16.5450  -29.2530   23.5710 C   0  0  0  0  0  3  0  0  0  0  0  0
  -16.7960  -28.1050   22.7970 C   0  0  0  0  0  3  0  0  0  0  0  0
  -25.7500  -32.4340   23.8380 C   0  0  0  0  0  3  0  0  0  0  0  0
  -26.2530  -31.6160   25.0900 C   0  0  1  0  0  0  0  0  0  0  0  0
  -25.1490  -31.3470   26.1380 C   0  0  0  0  0  1  0  0  0  0  0  0
  -26.8310  -30.2490   24.6520 C   0  0  0  0  0  1  0  0  0  0  0  0
  -27.4010  -32.3790   25.7910 C   0  0  0  0  0  1  0  0  0  0  0  0
  -25.4450  -33.8210   24.2100 N   0  0  0  0  0  0  0  0  0  0  0  0
  -25.8160  -34.8960   23.5000 C   0  0  0  0  0  0  0  0  0  0  0  0
  -26.5210  -34.8210   22.4900 O   0  0  0  0  0  0  0  0  0  0  0  0
  -24.8290  -33.9540   24.9970 H   0  0  0  0  0  0  0  0  0  0  0  0
  -24.1290  -36.7210   23.1260 C   0  0  0  0  0  1  0  0  0  0  0  0
  -25.3220  -36.2710   23.9860 C   0  0  0  0  0  3  0  0  0  0  0  0
  -27.4210  -37.0870   24.9590 C   0  0  0  0  0  1  0  0  0  0  0  0
  -26.3730  -37.3120   23.9670 N   0  0  0  0  0  0  0  0  0  0  0  0
  -25.9730  -38.2320   24.1330 H   0  0  0  0  0  0  0  0  0  0  0  0
  1  3  1  0
  2  4  2  0
  2  5  1  0
  4  6  1  0
  5  1  2  0
  6 56  1  0
  6  3  2  0
  7  8  1  0
  7  9  1  0
  8 10  1  0
  9 11  1  0
 10  5  1  0
 10 11  1  0
 11 12  1  0
 12 13  1  0
 12 14  1  0
 12 15  1  0
 15 16  1  0
 17 25  1  0
 18 23  1  0
 19 20  1  0
 19 18  1  0
 21 20  1  0
 21 30  1  0
 21 22  1  0
 23 17  1  0
 23 22  1  0
 24 17  2  0
 25 16  1  0
 25 26  1  0
 27 28  2  0
 28 29  1  0
 28 47  1  0
 29 32  1  0
 30 27  1  0
 30 31  1  0
 31 29  2  0
 32 33  1  0
 33 34  2  0
 35 38  1  0
 35 34  1  0
 36 35  2  0
 37 36  1  0
 37 32  2  0
 38 39  1  0
 39 40  1  0
 40 41  2  0
 42 41  1  0
 42 46  1  0
 43 42  2  0
 44 39  2  0
 44 43  1  0
 45 44  1  0
 47 48  1  0
 48 51  1  0
 48 50  1  0
 49 47  2  0
 52 27  1  0
 53 52  1  0
 54 52  1  0
 56 55  1  0
 56 57  1  0
 57 58  1  0
 59 58  1  0
 59 60  1  0
 61 59  1  0
 62 59  1  0
 63 62  1  0
 64 66  1  0
 64 63  1  0
 65 76  2  0
 66 71  1  0
 67 75  1  0
 67 77  1  0
 68 74  1  0
 68 70  1  0
 69 75  1  0
 70 69  1  0
 71 70  2  0
 72 73  1  0
 72 66  2  0
 73 68  2  0
 74 67  1  0
 75 65  1  0
 77 79  2  0
 78 77  1  0
 80 78  1  0
 81 90  2  0
 81 86  1  0
 82 78  1  0
 82 86  1  0
 83 82  1  0
 84 85  1  0
 84 83  1  0
 85 81  1  0
 86 87  2  0
 87 88  1  0
 89 88  2  0
 90 89  1  0
 91 65  1  0
 91 96  1  0
 91 92  1  0
 92 95  1  1
 92 93  1  0
 94 92  1  0
 96 99  1  0
 97101  1  0
 97 96  1  0
 98 97  2  0
101100  1  0
103101  1  0
103104  1  0
103102  1  0
M  ISO  4  17 100  25 100  63 101  64 101
M  END
>  <TORSDO>  (58) 
F 26

>  <SCORE>  (58) 
-8.719

>  <name>  (58) 
58

>  <ligand_id>  (58) 
58

>  <original_smiles>  (58) 
[H]c1c([H])c([H])c2c(c1[H])C([H])([H])C([H])([H])C([H])([H])C2([H])N([H])C(=O)C1([H])N(C(=O)C([H])(N([H])C(=O)C([H])(N([H])C([H])([H])[H])C([H])([H])[H])C(C([H])([H])[H])(C([H])([H])[H])C([H])([H])[H])C([H])([H])c2c([H])c(OC([H])([H])C([H])([H])[N+]([H])([H])C([H])([H])C([H])([H])C([H])(c3c([H])c([H])c(C4([H])C([H])([H])C([H])([H])C([H])([H])C4([H])[N+]([H])([H])C([H])([H])C([H])([H])N([H])C(=O)N4C([H])([H])C([H])([H])C([H])([H])C([H])(n5nc(-c6c([H])c([H])c(Oc7c([H])c([H])c(F)c([H])c7F)c([H])c6[H])c(C(=O)N([H])[H])c5N([H])[H])C4([H])[H])c([H])c3[H])C([H])([H])[H])c([H])c([H])c2C1([H])[H]

>  <smiles>  (58) 
[H]c1c([H])c([H])c2c(c1[H])C([H])([H])C([H])([H])C([H])([H])C2([H])N([H])C(=O)C1([H])N(C(=O)C([H])(N([H])C(=O)C([H])(N([H])C([H])([H])[H])C([H])([H])[H])C(C([H])([H])[H])(C([H])([H])[H])C([H])([H])[H])C([H])([H])c2c([H])c(OC([H])([H])C([H])([H])[N+]([H])([H])C([H])([H])C([H])([H])C([H])(c3c([H])c([H])c(C4([H])C([H])([H])C([H])([H])C([H])([H])C4([H])[N+]([H])([H])C([H])([H])C([H])([H])N([H])C(=O)N4C([H])([H])C([H])([H])C([H])([H])C([H])(n5nc(-c6c([H])c([H])c(Oc7c([H])c([H])c(F)c([H])c7F)c([H])c6[H])c(C(=O)N([H])[H])c5N([H])[H])C4([H])[H])c([H])c3[H])C([H])([H])[H])c([H])c([H])c2C1([H])[H]

$$$$
59:0:0
     RDKit          3D

 97105  0  0  1  0  0  0  0  0999 V2000
  -27.5100  -19.2180   20.0130 C   0  0  0  0  0  3  0  0  0  0  0  0
  -27.3130  -20.4900   19.4450 C   0  0  0  0  0  3  0  0  0  0  0  0
  -29.9180  -19.5180   19.8690 C   0  0  0  0  0  3  0  0  0  0  0  0
  -28.8130  -18.7010   20.2100 C   0  0  0  0  0  0  0  0  0  0  0  0
  -28.4130  -21.2820   19.0440 C   0  0  0  0  0  0  0  0  0  0  0  0
  -29.7240  -20.7930   19.2900 C   0  0  0  0  0  0  0  0  0  0  0  0
  -27.1580  -22.4550   17.1590 C   0  0  0  0  0  1  0  0  0  0  0  0
  -28.1690  -22.6110   18.3100 C   0  0  0  0  0  3  0  0  0  0  0  0
  -27.7270  -23.6770   19.2360 N   0  0  0  0  0  4  0  0  0  0  0  0
  -27.1910  -24.3330   18.6910 H   0  0  0  0  0  0  0  0  0  0  0  0
  -27.1030  -23.2670   19.9150 H   0  0  0  0  0  0  0  0  0  0  0  0
  -28.8030  -24.4140   19.9430 C   0  0  0  0  0  2  0  0  0  0  0  0
  -29.0070  -25.8450   19.3950 C   0  0  0  0  0  2  0  0  0  0  0  0
  -28.7120  -26.8300   20.3880 O   0  0  0  0  0  0  0  0  0  0  0  0
  -24.7480  -31.9490   23.3090 C   0  0  0  0  0  0  0  0  0  0  0  0
  -27.4950  -27.4770   20.3660 C   0  0  0  0  0  0  0  0  0  0  0  0
  -23.5810  -30.4940   21.6850 C   0  0  0  0  0  3  0  0  0  0  0  0
  -25.0720  -28.9350   20.3260 C   0  0  0  0  0  0  0  0  0  0  0  0
  -26.1030  -30.8760   21.5150 C   0  0  0  0  0  2  0  0  0  0  0  0
  -26.2120  -29.4900   20.9160 C   0  0  0  0  0  0  0  0  0  0  0  0
  -27.4210  -28.7640   20.9450 C   0  0  0  0  0  3  0  0  0  0  0  0
  -26.3260  -26.9200   19.7980 C   0  0  0  0  0  3  0  0  0  0  0  0
  -25.1190  -27.6440   19.7750 C   0  0  0  0  0  3  0  0  0  0  0  0
  -23.8190  -29.7820   20.3260 C   0  0  0  0  0  2  0  0  0  0  0  0
  -24.8280  -31.1230   22.2270 N   0  0  0  0  0  0  0  0  0  0  0  0
  -23.6560  -32.2220   23.8260 O   0  0  0  0  0  0  0  0  0  0  0  0
  -22.9270  -29.4880   22.6590 C   0  0  0  0  0  0  0  0  0  0  0  0
  -21.6130  -29.2680   22.4960 N   0  0  0  0  0  0  0  0  0  0  0  0
  -23.6010  -28.9080   23.5160 O   0  0  0  0  0  0  0  0  0  0  0  0
  -21.1320  -29.7890   21.7760 H   0  0  0  0  0  0  0  0  0  0  0  0
  -18.2580  -27.9920   22.9070 C   0  0  0  0  0  0  0  0  0  0  0  0
  -20.7940  -28.3370   23.2720 C   0  0  0  0  0  3  0  0  0  0  0  0
  -20.9620  -26.8870   22.7600 C   0  0  0  0  0  2  0  0  0  0  0  0
  -19.9120  -26.4920   21.7160 C   0  0  0  0  0  2  0  0  0  0  0  0
  -18.5010  -26.6220   22.2970 C   0  0  0  0  0  2  0  0  0  0  0  0
  -19.3360  -28.8040   23.3510 C   0  0  0  0  0  0  0  0  0  0  0  0
  -19.0580  -30.0840   23.8790 C   0  0  0  0  0  3  0  0  0  0  0  0
  -17.7340  -30.5540   23.9670 C   0  0  0  0  0  3  0  0  0  0  0  0
  -16.6700  -29.7400   23.5420 C   0  0  0  0  0  3  0  0  0  0  0  0
  -16.9320  -28.4620   23.0190 C   0  0  0  0  0  3  0  0  0  0  0  0
  -26.0190  -32.6060   23.9330 C   0  0  0  0  0  3  0  0  0  0  0  0
  -25.6850  -34.0010   24.2470 N   0  0  0  0  0  0  0  0  0  0  0  0
  -26.0060  -35.0510   23.4800 C   0  0  0  0  0  0  0  0  0  0  0  0
  -26.6870  -34.9490   22.4560 O   0  0  0  0  0  0  0  0  0  0  0  0
  -25.0820  -34.1540   25.0420 H   0  0  0  0  0  0  0  0  0  0  0  0
  -24.2500  -36.8070   23.0890 C   0  0  0  0  0  1  0  0  0  0  0  0
  -25.4900  -36.4350   23.9190 C   0  0  0  0  0  3  0  0  0  0  0  0
  -27.5990  -37.3650   24.7610 C   0  0  0  0  0  1  0  0  0  0  0  0
  -26.5050  -37.5040   23.8040 N   0  0  0  0  0  0  0  0  0  0  0  0
  -26.0810  -38.4190   23.9390 H   0  0  0  0  0  0  0  0  0  0  0  0
  -26.5430  -31.8530   25.2170 C   0  0  1  0  0  0  0  0  0  0  0  0
  -25.4450  -31.5880   26.2740 C   0  0  0  0  0  1  0  0  0  0  0  0
  -27.1660  -30.4910   24.8320 C   0  0  0  0  0  1  0  0  0  0  0  0
  -27.6660  -32.6800   25.8870 C   0  0  0  0  0  1  0  0  0  0  0  0
  -28.9550  -17.3120   20.7500 C   0  0  0  0  0  0  0  0  0  0  0  0
  -27.9740  -16.6360   21.0850 O   0  0  0  0  0  0  0  0  0  0  0  0
  -30.3460  -16.6620   20.8530 C   0  0  0  0  0  2  0  0  0  0  0  0
  -30.7400  -14.2800   20.2560 C   0  0  0  0  0  0  0  0  0  0  0  0
  -30.3190  -12.1930   19.0180 C   0  0  0  0  0  2  0  0  0  0  0  0
  -29.3360  -12.4890   17.8650 C   0  0  0  0  0  2  0  0  0  0  0  0
  -27.8760  -12.3820   18.3510 C   0  0  0  0  0  2  0  0  0  0  0  0
  -27.6180  -13.1680   19.6630 C   0  0  0  0  0  3  0  0  0  0  0  0
  -28.7090  -12.8580   20.7140 C   0  0  0  0  0  2  0  0  0  0  0  0
  -30.0270  -13.1330   20.1110 N   0  0  0  0  0  0  0  0  0  0  0  0
  -31.7890  -14.5100   19.6480 O   0  0  0  0  0  0  0  0  0  0  0  0
  -30.1620  -15.2140   21.0110 N   0  0  0  0  0  0  0  0  0  0  0  0
  -29.2970  -14.9540   21.4670 H   0  0  0  0  0  0  0  0  0  0  0  0
  -25.2500  -13.8090   20.4540 C   0  0  0  0  0  0  0  0  0  0  0  0
  -24.1810  -13.0490   20.8490 C   0  0  0  0  0  0  0  0  0  0  0  0
  -24.6170  -11.6910   20.7860 C   0  0  0  0  0  0  0  0  0  0  0  0
  -26.2740  -12.9150   20.1820 N   0  0  0  0  0  0  0  0  0  0  0  0
  -25.8970  -11.6360   20.4350 N   0  0  0  0  0  0  0  0  0  0  0  0
  -23.8760  -10.4390   20.9870 C   0  0  0  0  0  0  0  0  0  0  0  0
  -24.3070   -9.4660   21.9160 C   0  0  0  0  0  3  0  0  0  0  0  0
  -23.5670   -8.2780   22.1030 C   0  0  0  0  0  3  0  0  0  0  0  0
  -22.3800   -8.0540   21.3650 C   0  0  0  0  0  0  0  0  0  0  0  0
  -21.9670   -9.0180   20.4250 C   0  0  0  0  0  3  0  0  0  0  0  0
  -22.7080  -10.1980   20.2360 C   0  0  0  0  0  3  0  0  0  0  0  0
  -21.6110   -6.9210   21.4640 O   0  0  0  0  0  0  0  0  0  0  0  0
  -21.5500   -6.1920   22.6250 C   0  0  0  0  0  0  0  0  0  0  0  0
  -21.1170   -6.7620   23.8410 C   0  0  0  0  0  3  0  0  0  0  0  0
  -21.0040   -5.9580   24.9940 C   0  0  0  0  0  3  0  0  0  0  0  0
  -21.3160   -4.5860   24.9300 C   0  0  0  0  0  0  0  0  0  0  0  0
  -21.7440   -4.0180   23.7180 C   0  0  0  0  0  3  0  0  0  0  0  0
  -21.8580   -4.8180   22.5670 C   0  0  0  0  0  0  0  0  0  0  0  0
  -22.2480   -4.2600   21.3970 F   0  0  0  0  0  0  0  0  0  0  0  0
  -21.2030   -3.8120   26.0360 F   0  0  0  0  0  0  0  0  0  0  0  0
  -22.8040  -13.5470   21.1830 C   0  0  0  0  0  0  0  0  0  0  0  0
  -22.0970  -12.8510   22.0680 N   0  0  0  0  0  0  0  0  0  0  0  0
  -22.3670  -14.5870   20.6950 O   0  0  0  0  0  0  0  0  0  0  0  0
  -22.4580  -12.0040   22.4830 H   0  0  0  0  0  0  0  0  0  0  0  0
  -21.1730  -13.1680   22.3300 H   0  0  0  0  0  0  0  0  0  0  0  0
  -25.4320  -15.1780   20.2920 N   0  0  0  0  0  0  0  0  0  0  0  0
  -24.7010  -15.8430   20.5090 H   0  0  0  0  0  0  0  0  0  0  0  0
  -26.3450  -15.6160   20.2180 H   0  0  0  0  0  0  0  0  0  0  0  0
  -30.8210  -21.5340   18.9540 O   0  0  0  0  0  0  0  0  0  0  0  0
  -31.6460  -21.0920   19.1310 H   0  0  0  0  0  0  0  0  0  0  0  0
  1  4  1  0
  2  1  2  0
  3  4  2  0
  4 55  1  0
  5  6  2  0
  5  2  1  0
  6  3  1  0
  8  7  1  0
  8  5  1  0
  8  9  1  0
  9 11  1  0
  9 12  1  0
 10  9  1  0
 13 12  1  0
 13 14  1  0
 15 26  2  0
 16 14  1  0
 16 21  1  0
 17 25  1  0
 17 27  1  0
 18 20  1  0
 19 25  1  0
 20 21  2  0
 20 19  1  0
 22 16  2  0
 23 22  1  0
 23 18  2  0
 24 18  1  0
 24 17  1  0
 25 15  1  0
 27 29  2  0
 28 27  1  0
 30 28  1  0
 31 40  2  0
 31 36  1  0
 32 28  1  0
 32 36  1  0
 33 32  1  0
 34 35  1  0
 34 33  1  0
 35 31  1  0
 36 37  2  0
 37 38  1  0
 39 38  2  0
 40 39  1  0
 41 15  1  0
 41 42  1  0
 41 51  1  0
 42 45  1  0
 43 47  1  0
 43 42  1  0
 44 43  2  0
 47 46  1  0
 49 47  1  0
 49 50  1  0
 49 48  1  0
 51 54  1  1
 51 52  1  0
 53 51  1  0
 55 57  1  0
 55 56  2  0
 57 66  1  0
 58 66  1  0
 59 64  1  0
 60 61  1  0
 60 59  1  0
 62 61  1  0
 62 71  1  0
 62 63  1  0
 64 58  1  0
 64 63  1  0
 65 58  2  0
 66 67  1  0
 68 69  2  0
 69 88  1  0
 70 69  1  0
 70 73  1  0
 71 72  1  0
 71 68  1  0
 72 70  2  0
 73 74  1  0
 74 75  2  0
 76 79  1  0
 76 75  1  0
 77 76  2  0
 78 77  1  0
 78 73  2  0
 79 80  1  0
 80 81  1  0
 81 82  2  0
 83 82  1  0
 83 87  1  0
 84 83  2  0
 85 80  2  0
 85 84  1  0
 86 85  1  0
 88 89  1  0
 89 92  1  0
 89 91  1  0
 90 88  2  0
 93 68  1  0
 93 94  1  0
 95 93  1  0
 96 97  1  0
 96  6  1  0
M  ISO  4  13 101  14 101  58 100  66 100
M  END
>  <TORSDO>  (59) 
F 23

>  <SCORE>  (59) 
-12.169

>  <name>  (59) 
59

>  <ligand_id>  (59) 
59

>  <original_smiles>  (59) 
[H]Oc1c([H])c(C(=O)C([H])([H])N([H])C(=O)N2C([H])([H])C([H])([H])C([H])([H])C([H])(n3nc(-c4c([H])c([H])c(Oc5c([H])c([H])c(F)c([H])c5F)c([H])c4[H])c(C(=O)N([H])[H])c3N([H])[H])C2([H])[H])c([H])c([H])c1C([H])(C([H])([H])[H])[N+]([H])([H])C([H])([H])C([H])([H])Oc1c([H])c([H])c2c(c1[H])C([H])([H])N(C(=O)C([H])(N([H])C(=O)C([H])(N([H])C([H])([H])[H])C([H])([H])[H])C(C([H])([H])[H])(C([H])([H])[H])C([H])([H])[H])C([H])(C(=O)N([H])C1([H])c3c([H])c([H])c([H])c([H])c3C([H])([H])C([H])([H])C1([H])[H])C2([H])[H]

>  <smiles>  (59) 
[H]Oc1c([H])c(C(=O)C([H])([H])N([H])C(=O)N2C([H])([H])C([H])([H])C([H])([H])C([H])(n3nc(-c4c([H])c([H])c(Oc5c([H])c([H])c(F)c([H])c5F)c([H])c4[H])c(C(=O)N([H])[H])c3N([H])[H])C2([H])[H])c([H])c([H])c1C([H])(C([H])([H])[H])[N+]([H])([H])C([H])([H])C([H])([H])Oc1c([H])c([H])c2c(c1[H])C([H])([H])N(C(=O)C([H])(N([H])C(=O)C([H])(N([H])C([H])([H])[H])C([H])([H])[H])C(C([H])([H])[H])(C([H])([H])[H])C([H])([H])[H])C([H])(C(=O)N([H])C1([H])c3c([H])c([H])c([H])c([H])c3C([H])([H])C([H])([H])C1([H])[H])C2([H])[H]

$$$$
60:0:0
     RDKit          3D

103111  0  0  1  0  0  0  0  0999 V2000
  -32.6620  -19.9930   16.7100 C   0  0  0  0  0  0  0  0  0  0  0  0
  -31.7030  -20.6620   17.3610 N   0  0  0  0  0  0  0  0  0  0  0  0
  -33.8430  -20.0040   17.0600 O   0  0  0  0  0  0  0  0  0  0  0  0
  -30.7550  -20.5480   17.0280 H   0  0  0  0  0  0  0  0  0  0  0  0
  -32.2220  -19.1990   15.4750 C   0  0  0  0  0  2  0  0  0  0  0  0
  -32.6480  -17.7080   15.4530 C   0  0  0  0  0  2  0  0  0  0  0  0
  -32.3660  -15.3690   16.4480 C   0  0  0  0  0  1  0  0  0  0  0  0
  -32.4290  -16.8770   16.7470 C   0  0  0  0  0  3  0  0  0  0  0  0
  -28.8380  -17.8050   17.7570 C   0  0  0  0  0  3  0  0  0  0  0  0
  -28.9760  -17.9690   19.1500 C   0  0  0  0  0  3  0  0  0  0  0  0
  -29.9550  -17.4660   16.9700 C   0  0  0  0  0  3  0  0  0  0  0  0
  -31.3580  -17.4920   18.9580 C   0  0  0  0  0  3  0  0  0  0  0  0
  -30.2410  -17.8190   19.7550 C   0  0  0  0  0  0  0  0  0  0  0  0
  -31.2170  -17.2940   17.5710 C   0  0  0  0  0  0  0  0  0  0  0  0
  -30.4130  -18.0170   21.2540 C   0  0  0  0  0  2  0  0  0  0  0  0
  -31.0770  -16.8400   22.0030 C   0  0  0  0  0  2  0  0  0  0  0  0
  -31.0320  -14.6810   20.7640 C   0  0  0  0  0  0  0  0  0  0  0  0
  -30.6760  -12.6680   19.3950 C   0  0  0  0  0  2  0  0  0  0  0  0
  -29.7820  -12.9840   18.1830 C   0  0  0  0  0  2  0  0  0  0  0  0
  -28.2920  -12.8470   18.5510 C   0  0  0  0  0  2  0  0  0  0  0  0
  -27.9230  -13.6050   19.8560 C   0  0  0  0  0  3  0  0  0  0  0  0
  -28.9310  -13.2930   20.9840 C   0  0  0  0  0  2  0  0  0  0  0  0
  -30.2920  -13.5770   20.4870 N   0  0  0  0  0  0  0  0  0  0  0  0
  -32.1250  -14.9070   20.2400 O   0  0  0  0  0  0  0  0  0  0  0  0
  -30.4970  -15.5420   21.6430 N   0  0  0  0  0  0  0  0  0  0  0  0
  -29.6020  -15.3050   22.0430 H   0  0  0  0  0  0  0  0  0  0  0  0
  -25.4810  -14.1930   20.4310 C   0  0  0  0  0  0  0  0  0  0  0  0
  -24.4030  -13.4120   20.7610 C   0  0  0  0  0  0  0  0  0  0  0  0
  -24.8770  -12.0660   20.7700 C   0  0  0  0  0  0  0  0  0  0  0  0
  -26.5470  -13.3200   20.2690 N   0  0  0  0  0  0  0  0  0  0  0  0
  -26.1840  -12.0360   20.5270 N   0  0  0  0  0  0  0  0  0  0  0  0
  -24.1520  -10.8010   20.9430 C   0  0  0  0  0  0  0  0  0  0  0  0
  -24.5570   -9.8480   21.9020 C   0  0  0  0  0  3  0  0  0  0  0  0
  -23.8380   -8.6460   22.0690 C   0  0  0  0  0  3  0  0  0  0  0  0
  -22.6980   -8.3870   21.2710 C   0  0  0  0  0  0  0  0  0  0  0  0
  -22.3070   -9.3290   20.3020 C   0  0  0  0  0  3  0  0  0  0  0  0
  -23.0280  -10.5240   20.1370 C   0  0  0  0  0  3  0  0  0  0  0  0
  -21.9570   -7.2320   21.3390 O   0  0  0  0  0  0  0  0  0  0  0  0
  -21.8590   -6.5060   22.4970 C   0  0  0  0  0  0  0  0  0  0  0  0
  -21.4030   -7.0830   23.7030 C   0  0  0  0  0  3  0  0  0  0  0  0
  -21.2530   -6.2820   24.8530 C   0  0  0  0  0  3  0  0  0  0  0  0
  -21.5500   -4.9070   24.7980 C   0  0  0  0  0  0  0  0  0  0  0  0
  -22.0000   -4.3310   23.5970 C   0  0  0  0  0  3  0  0  0  0  0  0
  -22.1490   -5.1280   22.4480 C   0  0  0  0  0  0  0  0  0  0  0  0
  -22.5610   -4.5640   21.2870 F   0  0  0  0  0  0  0  0  0  0  0  0
  -21.4020   -4.1340   25.8990 F   0  0  0  0  0  0  0  0  0  0  0  0
  -22.9880  -13.8790   20.9670 C   0  0  0  0  0  0  0  0  0  0  0  0
  -22.2410  -13.1950   21.8280 N   0  0  0  0  0  0  0  0  0  0  0  0
  -22.5540  -14.8770   20.4010 O   0  0  0  0  0  0  0  0  0  0  0  0
  -22.6130  -12.3940   22.3150 H   0  0  0  0  0  0  0  0  0  0  0  0
  -21.2840  -13.4740   21.9970 H   0  0  0  0  0  0  0  0  0  0  0  0
  -25.6340  -15.5620   20.2400 N   0  0  0  0  0  0  0  0  0  0  0  0
  -24.8490  -16.2020   20.2970 H   0  0  0  0  0  0  0  0  0  0  0  0
  -26.4990  -16.0160   19.9710 H   0  0  0  0  0  0  0  0  0  0  0  0
  -31.8850  -21.4630   18.5670 C   0  0  0  0  0  2  0  0  0  0  0  0
  -30.8360  -22.5870   18.6340 C   0  0  0  0  0  2  0  0  0  0  0  0
  -30.9710  -23.4430   19.9090 C   0  0  0  0  0  2  0  0  0  0  0  0
  -29.8690  -24.4210   20.0580 N   0  0  0  0  0  4  0  0  0  0  0  0
  -28.9980  -23.9220   20.1560 H   0  0  0  0  0  0  0  0  0  0  0  0
  -29.7980  -24.9820   19.2220 H   0  0  0  0  0  0  0  0  0  0  0  0
  -30.0270  -25.3490   21.2030 C   0  0  0  0  0  2  0  0  0  0  0  0
  -28.7900  -26.2380   21.3840 C   0  0  0  0  0  2  0  0  0  0  0  0
  -28.4710  -26.8360   20.1320 O   0  0  0  0  0  0  0  0  0  0  0  0
  -24.6220  -31.9360   23.2550 C   0  0  0  0  0  0  0  0  0  0  0  0
  -27.3040  -27.5520   20.1670 C   0  0  0  0  0  0  0  0  0  0  0  0
  -23.4210  -30.5190   21.6160 C   0  0  0  0  0  3  0  0  0  0  0  0
  -24.8870  -28.9920   20.1930 C   0  0  0  0  0  0  0  0  0  0  0  0
  -25.9370  -30.9140   21.4040 C   0  0  0  0  0  2  0  0  0  0  0  0
  -26.0350  -29.5410   20.7800 C   0  0  0  0  0  0  0  0  0  0  0  0
  -27.2470  -28.8220   20.7730 C   0  0  0  0  0  3  0  0  0  0  0  0
  -26.1480  -27.0060   19.5730 C   0  0  0  0  0  3  0  0  0  0  0  0
  -24.9340  -27.7190   19.5960 C   0  0  0  0  0  3  0  0  0  0  0  0
  -23.6310  -29.8330   20.2390 C   0  0  0  0  0  2  0  0  0  0  0  0
  -24.6780  -31.1380   22.1500 N   0  0  0  0  0  0  0  0  0  0  0  0
  -23.5430  -32.1990   23.8000 O   0  0  0  0  0  0  0  0  0  0  0  0
  -22.7860  -29.4960   22.5830 C   0  0  0  0  0  0  0  0  0  0  0  0
  -21.4640  -29.2990   22.4580 N   0  0  0  0  0  0  0  0  0  0  0  0
  -23.4800  -28.8800   23.3970 O   0  0  0  0  0  0  0  0  0  0  0  0
  -20.9670  -29.8460   21.7700 H   0  0  0  0  0  0  0  0  0  0  0  0
  -18.1070  -28.0660   22.9580 C   0  0  0  0  0  0  0  0  0  0  0  0
  -20.6600  -28.3550   23.2320 C   0  0  0  0  0  3  0  0  0  0  0  0
  -20.7820  -26.9230   22.6640 C   0  0  0  0  0  2  0  0  0  0  0  0
  -19.6860  -26.5820   21.6500 C   0  0  0  0  0  2  0  0  0  0  0  0
  -18.3020  -26.7150   22.2910 C   0  0  0  0  0  2  0  0  0  0  0  0
  -19.2160  -28.8430   23.3860 C   0  0  0  0  0  0  0  0  0  0  0  0
  -18.9820  -30.1070   23.9700 C   0  0  0  0  0  3  0  0  0  0  0  0
  -17.6720  -30.5940   24.1300 C   0  0  0  0  0  3  0  0  0  0  0  0
  -16.5770  -29.8150   23.7190 C   0  0  0  0  0  3  0  0  0  0  0  0
  -16.7950  -28.5520   23.1380 C   0  0  0  0  0  3  0  0  0  0  0  0
  -25.9080  -32.5780   23.8670 C   0  0  0  0  0  3  0  0  0  0  0  0
  -25.5940  -33.9770   24.1890 N   0  0  0  0  0  0  0  0  0  0  0  0
  -25.9180  -35.0240   23.4210 C   0  0  0  0  0  0  0  0  0  0  0  0
  -26.5850  -34.9170   22.3880 O   0  0  0  0  0  0  0  0  0  0  0  0
  -25.0020  -34.1340   24.9930 H   0  0  0  0  0  0  0  0  0  0  0  0
  -24.1760  -36.8010   23.0580 C   0  0  0  0  0  1  0  0  0  0  0  0
  -25.4230  -36.4130   23.8670 C   0  0  0  0  0  3  0  0  0  0  0  0
  -27.5580  -37.3170   24.6780 C   0  0  0  0  0  1  0  0  0  0  0  0
  -26.4480  -37.4720   23.7410 N   0  0  0  0  0  0  0  0  0  0  0  0
  -26.0360  -38.3900   23.8870 H   0  0  0  0  0  0  0  0  0  0  0  0
  -26.4380  -31.8150   25.1410 C   0  0  1  0  0  0  0  0  0  0  0  0
  -25.3540  -31.5740   26.2180 C   0  0  0  0  0  1  0  0  0  0  0  0
  -27.0280  -30.4410   24.7480 C   0  0  0  0  0  1  0  0  0  0  0  0
  -27.5880  -32.6190   25.7950 C   0  0  0  0  0  1  0  0  0  0  0  0
  1  3  2  0
  1  2  1  0
  2 55  1  0
  4  2  1  0
  5  1  1  0
  6  5  1  0
  6  8  1  0
  8  7  1  0
  8 14  1  0
  9 10  1  0
 10 13  2  0
 11 14  1  0
 11  9  2  0
 12 13  1  0
 13 15  1  0
 14 12  2  0
 15 16  1  0
 17 25  1  0
 18 23  1  0
 19 20  1  0
 19 18  1  0
 21 20  1  0
 21 30  1  0
 21 22  1  0
 23 17  1  0
 23 22  1  0
 24 17  2  0
 25 16  1  0
 25 26  1  0
 27 28  2  0
 28 29  1  0
 28 47  1  0
 29 32  1  0
 30 27  1  0
 30 31  1  0
 31 29  2  0
 32 33  1  0
 33 34  2  0
 35 38  1  0
 35 34  1  0
 36 35  2  0
 37 36  1  0
 37 32  2  0
 38 39  1  0
 39 40  1  0
 40 41  2  0
 42 41  1  0
 42 46  1  0
 43 42  2  0
 44 39  2  0
 44 43  1  0
 45 44  1  0
 47 48  1  0
 48 51  1  0
 48 50  1  0
 49 47  2  0
 52 53  1  0
 52 27  1  0
 54 52  1  0
 55 56  1  0
 56 57  1  0
 57 58  1  0
 58 59  1  0
 58 61  1  0
 60 58  1  0
 61 62  1  0
 63 65  1  0
 63 62  1  0
 64 75  2  0
 65 70  1  0
 66 74  1  0
 66 76  1  0
 67 73  1  0
 67 69  1  0
 68 74  1  0
 69 68  1  0
 70 69  2  0
 71 72  1  0
 71 65  2  0
 72 67  2  0
 73 66  1  0
 74 64  1  0
 76 78  2  0
 77 76  1  0
 79 77  1  0
 80 89  2  0
 80 85  1  0
 81 77  1  0
 81 85  1  0
 82 81  1  0
 83 84  1  0
 83 82  1  0
 84 80  1  0
 85 86  2  0
 86 87  1  0
 88 87  2  0
 89 88  1  0
 90 64  1  0
 90 91  1  0
 90100  1  0
 91 94  1  0
 92 96  1  0
 92 91  1  0
 93 92  2  0
 96 95  1  0
 98 96  1  0
 98 99  1  0
 98 97  1  0
100103  1  1
100101  1  0
102100  1  0
M  ISO  4  17 100  25 100  62 101  63 101
M  END
>  <TORSDO>  (60) 
F 28

>  <SCORE>  (60) 
-10.726

>  <name>  (60) 
60

>  <ligand_id>  (60) 
60

>  <original_smiles>  (60) 
[H]c1c([H])c([H])c2c(c1[H])C([H])([H])C([H])([H])C([H])([H])C2([H])N([H])C(=O)C1([H])N(C(=O)C([H])(N([H])C(=O)C([H])(N([H])C([H])([H])[H])C([H])([H])[H])C(C([H])([H])[H])(C([H])([H])[H])C([H])([H])[H])C([H])([H])c2c([H])c(OC([H])([H])C([H])([H])[N+]([H])([H])C([H])([H])C([H])([H])C([H])([H])N([H])C(=O)C([H])([H])C([H])([H])C([H])(c3c([H])c([H])c([H])c(C([H])([H])C([H])([H])N([H])C(=O)N4C([H])([H])C([H])([H])C([H])([H])C([H])(n5nc(-c6c([H])c([H])c(Oc7c([H])c([H])c(F)c([H])c7F)c([H])c6[H])c(C(=O)N([H])[H])c5N([H])[H])C4([H])[H])c3[H])C([H])([H])[H])c([H])c([H])c2C1([H])[H]

>  <smiles>  (60) 
[H]c1c([H])c([H])c2c(c1[H])C([H])([H])C([H])([H])C([H])([H])C2([H])N([H])C(=O)C1([H])N(C(=O)C([H])(N([H])C(=O)C([H])(N([H])C([H])([H])[H])C([H])([H])[H])C(C([H])([H])[H])(C([H])([H])[H])C([H])([H])[H])C([H])([H])c2c([H])c(OC([H])([H])C([H])([H])[N+]([H])([H])C([H])([H])C([H])([H])C([H])([H])N([H])C(=O)C([H])([H])C([H])([H])C([H])(c3c([H])c([H])c([H])c(C([H])([H])C([H])([H])N([H])C(=O)N4C([H])([H])C([H])([H])C([H])([H])C([H])(n5nc(-c6c([H])c([H])c(Oc7c([H])c([H])c(F)c([H])c7F)c([H])c6[H])c(C(=O)N([H])[H])c5N([H])[H])C4([H])[H])c3[H])C([H])([H])[H])c([H])c([H])c2C1([H])[H]

$$$$
61:0:0
     RDKit          3D

100105  0  0  1  0  0  0  0  0999 V2000
  -29.1530  -17.0980   17.3890 C   0  0  0  0  0  3  0  0  0  0  0  0
  -29.4830  -16.8710   19.7550 C   0  0  0  0  0  3  0  0  0  0  0  0
  -29.0580  -15.6770   17.2520 C   0  0  0  0  0  3  0  0  0  0  0  0
  -29.4110  -15.4510   19.6170 C   0  0  0  0  0  3  0  0  0  0  0  0
  -29.3460  -17.7430   18.6430 C   0  0  0  0  0  0  0  0  0  0  0  0
  -29.1820  -14.8050   18.3670 C   0  0  0  0  0  0  0  0  0  0  0  0
  -28.0120  -12.8560   17.2250 C   0  0  0  0  0  1  0  0  0  0  0  0
  -29.0790  -13.2190   18.2690 C   0  0  0  0  0  3  0  0  0  0  0  0
  -30.3460  -12.3940   18.0220 N   0  0  0  0  0  4  0  0  0  0  0  0
  -30.4900  -12.3390   17.0270 H   0  0  0  0  0  0  0  0  0  0  0  0
  -31.1070  -12.9410   18.3940 H   0  0  0  0  0  0  0  0  0  0  0  0
  -30.5220  -10.9750   18.5870 C   0  0  0  0  0  2  0  0  0  0  0  0
  -31.9730  -10.5040   19.1890 C   0  0  0  0  0  2  0  0  0  0  0  0
  -33.6480  -11.3140   21.6360 C   0  0  2  0  0  0  0  0  0  0  0  0
  -34.7330  -10.7370   20.6070 C   0  0  0  0  0  1  0  0  0  0  0  0
  -34.0800  -12.1920   19.5140 C   0  0  0  0  0  1  0  0  0  0  0  0
  -32.6080  -13.1060   20.1890 C   0  0  0  0  0  2  0  0  0  0  0  0
  -31.7430  -12.7310   21.6760 C   0  0  0  0  0  2  0  0  0  0  0  0
  -32.4680  -11.4080   22.7560 C   0  0  0  0  0  1  0  0  0  0  0  0
  -33.8380  -10.4840   22.1450 N   0  0  0  0  0  1  0  0  0  0  0  0
  -34.4340  -12.3910   22.0310 O   0  0  0  0  0  1  0  0  0  0  0  0
  -32.5140  -10.5710   20.6540 N   0  0  0  0  0  2  0  0  0  0  0  0
  -32.2620   -9.7110   21.1200 H   0  0  0  0  0  0  0  0  0  0  0  0
  -29.4660  -13.8410   21.5480 C   0  0  0  0  0  0  0  0  0  0  0  0
  -28.1670  -13.4270   21.5500 C   0  0  0  0  0  0  0  0  0  0  0  0
  -28.1960  -12.0010   21.4380 C   0  0  0  0  0  0  0  0  0  0  0  0
  -30.2560  -12.7120   21.5530 N   0  0  0  0  0  0  0  0  0  0  0  0
  -29.4750  -11.5790   21.4690 N   0  0  0  0  0  0  0  0  0  0  0  0
  -27.0590  -11.0590   21.2830 C   0  0  0  0  0  0  0  0  0  0  0  0
  -26.8130  -10.0170   22.2060 C   0  0  0  0  0  3  0  0  0  0  0  0
  -25.6920   -9.1640   22.0590 C   0  0  0  0  0  3  0  0  0  0  0  0
  -24.7890   -9.3500   20.9840 C   0  0  0  0  0  0  0  0  0  0  0  0
  -25.0410  -10.3780   20.0600 C   0  0  0  0  0  3  0  0  0  0  0  0
  -26.1600  -11.2200   20.2040 C   0  0  0  0  0  3  0  0  0  0  0  0
  -23.6930   -8.5530   20.7440 O   0  0  0  0  0  0  0  0  0  0  0  0
  -22.9550   -8.0060   21.7640 C   0  0  0  0  0  0  0  0  0  0  0  0
  -22.3740   -8.8060   22.7740 C   0  0  0  0  0  3  0  0  0  0  0  0
  -21.5670   -8.2140   23.7660 C   0  0  0  0  0  3  0  0  0  0  0  0
  -21.3290   -6.8260   23.7480 C   0  0  0  0  0  0  0  0  0  0  0  0
  -21.8990   -6.0290   22.7400 C   0  0  0  0  0  3  0  0  0  0  0  0
  -22.7060   -6.6180   21.7500 C   0  0  0  0  0  0  0  0  0  0  0  0
  -23.2330   -5.8460   20.7690 F   0  0  0  0  0  0  0  0  0  0  0  0
  -20.5490   -6.2600   24.6970 F   0  0  0  0  0  0  0  0  0  0  0  0
  -26.9700  -14.3320   21.5910 C   0  0  0  0  0  0  0  0  0  0  0  0
  -25.8860  -13.8920   22.2220 N   0  0  0  0  0  0  0  0  0  0  0  0
  -27.0150  -15.4690   21.1250 O   0  0  0  0  0  0  0  0  0  0  0  0
  -25.8580  -12.9730   22.6340 H   0  0  0  0  0  0  0  0  0  0  0  0
  -25.0740  -14.4880   22.2920 H   0  0  0  0  0  0  0  0  0  0  0  0
  -30.0510  -15.1020   21.5690 N   0  0  0  0  0  0  0  0  0  0  0  0
  -29.4980  -15.9500   21.5260 H   0  0  0  0  0  0  0  0  0  0  0  0
  -31.0470  -15.2740   21.5240 H   0  0  0  0  0  0  0  0  0  0  0  0
  -29.1780  -19.3080   18.7960 C   0  0  0  0  0  2  0  0  0  0  0  0
  -30.2670  -20.1980   19.3630 N   0  0  0  0  0  4  0  0  0  0  0  0
  -31.1310  -19.9600   18.9040 H   0  0  0  0  0  0  0  0  0  0  0  0
  -30.3680  -19.9740   20.3380 H   0  0  0  0  0  0  0  0  0  0  0  0
  -30.0260  -21.6990   19.2270 C   0  0  0  0  0  3  0  0  0  0  0  0
  -30.9420  -22.7100   20.0580 C   0  0  0  0  0  3  0  0  0  0  0  0
  -30.8370  -24.2770   19.7400 C   0  0  0  0  0  3  0  0  0  0  0  0
  -31.5170  -25.2970   20.7620 C   0  0  0  0  0  3  0  0  0  0  0  0
  -31.6140  -26.7500   20.4770 O   0  0  0  0  0  0  0  0  0  0  0  0
  -28.0940  -30.8820   25.3130 C   0  0  0  0  0  0  0  0  0  0  0  0
  -30.5410  -27.5810   20.8140 C   0  0  0  0  0  0  0  0  0  0  0  0
  -26.8740  -30.2350   23.2700 C   0  0  0  0  0  3  0  0  0  0  0  0
  -28.2760  -29.2050   21.4050 C   0  0  0  0  0  0  0  0  0  0  0  0
  -29.4350  -30.4300   23.2450 C   0  0  0  0  0  2  0  0  0  0  0  0
  -29.4550  -29.3780   22.1410 C   0  0  0  0  0  0  0  0  0  0  0  0
  -30.5990  -28.5780   21.8390 C   0  0  0  0  0  3  0  0  0  0  0  0
  -29.3360  -27.4470   20.1000 C   0  0  0  0  0  3  0  0  0  0  0  0
  -28.2150  -28.2410   20.3880 C   0  0  0  0  0  3  0  0  0  0  0  0
  -27.0930  -30.0830   21.7440 C   0  0  0  0  0  2  0  0  0  0  0  0
  -28.1530  -30.5120   24.0000 N   0  0  0  0  0  0  0  0  0  0  0  0
  -27.0100  -31.0220   25.8950 O   0  0  0  0  0  0  0  0  0  0  0  0
  -26.1270  -28.9850   23.7930 C   0  0  0  0  0  0  0  0  0  0  0  0
  -24.8790  -28.7900   23.3320 N   0  0  0  0  0  0  0  0  0  0  0  0
  -26.6770  -28.2050   24.5750 O   0  0  0  0  0  0  0  0  0  0  0  0
  -24.4960  -29.4800   22.7020 H   0  0  0  0  0  0  0  0  0  0  0  0
  -21.7510  -27.1810   22.4920 C   0  0  0  0  0  0  0  0  0  0  0  0
  -24.0080  -27.6590   23.6570 C   0  0  0  0  0  3  0  0  0  0  0  0
  -24.5100  -26.3570   22.9930 C   0  0  0  0  0  2  0  0  0  0  0  0
  -23.8640  -26.0860   21.6310 C   0  0  0  0  0  2  0  0  0  0  0  0
  -22.3420  -25.9810   21.7710 C   0  0  0  0  0  2  0  0  0  0  0  0
  -22.5370  -27.9790   23.3650 C   0  0  0  0  0  0  0  0  0  0  0  0
  -21.9470  -29.1020   23.9830 C   0  0  0  0  0  3  0  0  0  0  0  0
  -20.5990  -29.4310   23.7440 C   0  0  0  0  0  3  0  0  0  0  0  0
  -19.8220  -28.6300   22.8890 C   0  0  0  0  0  3  0  0  0  0  0  0
  -20.3970  -27.5050   22.2700 C   0  0  0  0  0  3  0  0  0  0  0  0
  -29.3860  -31.1710   26.1380 C   0  0  0  0  0  3  0  0  0  0  0  0
  -29.8160  -29.9650   27.0610 C   0  0  1  0  0  0  0  0  0  0  0  0
  -28.6750  -29.4280   27.9560 C   0  0  0  0  0  1  0  0  0  0  0  0
  -30.3410  -28.7850   26.2120 C   0  0  0  0  0  1  0  0  0  0  0  0
  -30.9810  -30.4010   27.9810 C   0  0  0  0  0  1  0  0  0  0  0  0
  -29.1380  -32.3760   26.9420 N   0  0  0  0  0  0  0  0  0  0  0  0
  -29.6530  -33.5850   26.6850 C   0  0  0  0  0  0  0  0  0  0  0  0
  -30.4540  -33.7880   25.7680 O   0  0  0  0  0  0  0  0  0  0  0  0
  -28.4440  -32.2960   27.6710 H   0  0  0  0  0  0  0  0  0  0  0  0
  -28.1750  -35.6140   26.8440 C   0  0  0  0  0  1  0  0  0  0  0  0
  -29.2100  -34.7540   27.5850 C   0  0  0  0  0  3  0  0  0  0  0  0
  -31.2280  -34.9320   28.9730 C   0  0  0  0  0  1  0  0  0  0  0  0
  -30.3320  -35.6060   28.0390 N   0  0  0  0  0  0  0  0  0  0  0  0
  -29.9840  -36.4500   28.4850 H   0  0  0  0  0  0  0  0  0  0  0  0
  1  5  1  0
  3  1  2  0
  3  6  1  0
  4  2  1  0
  5 52  1  0
  5  2  2  0
  6  4  2  0
  8  7  1  0
  8  6  1  0
  9  8  1  0
  9 11  1  0
  9 12  1  0
 10  9  1  0
 12 13  1  0
 13 22  1  0
 14 21  1  0
 14 20  1  0
 14 19  1  6
 15 14  1  0
 16 17  1  0
 17 18  1  0
 22 23  1  0
 24 25  2  0
 24 27  1  0
 24 49  1  0
 25 44  1  0
 26 28  2  0
 26 25  1  0
 27 18  1  0
 28 27  1  0
 29 26  1  0
 29 30  1  0
 31 30  2  0
 32 31  1  0
 33 34  1  0
 33 32  2  0
 34 29  2  0
 35 32  1  0
 35 36  1  0
 36 37  1  0
 37 38  2  0
 39 38  1  0
 39 43  1  0
 40 39  2  0
 41 36  2  0
 41 40  1  0
 42 41  1  0
 44 45  1  0
 45 48  1  0
 45 47  1  0
 46 44  2  0
 50 49  1  0
 51 49  1  0
 52 53  1  0
 53 55  1  0
 54 53  1  0
 56 53  1  0
 56 57  2  0
 58 57  1  0
 58 59  2  0
 60 59  1  0
 60 62  1  0
 61 72  2  0
 62 67  1  0
 63 73  1  0
 63 71  1  0
 64 70  1  0
 64 66  1  0
 65 71  1  0
 66 65  1  0
 67 66  2  0
 68 69  1  0
 68 62  2  0
 69 64  2  0
 70 63  1  0
 71 61  1  0
 73 75  2  0
 74 73  1  0
 76 74  1  0
 77 82  1  0
 78 74  1  0
 79 78  1  0
 80 81  1  0
 80 79  1  0
 81 77  1  0
 82 78  1  0
 82 83  2  0
 84 83  1  0
 85 84  2  0
 86 77  2  0
 86 85  1  0
 87 61  1  0
 87 92  1  0
 87 88  1  0
 88 89  1  1
 88 91  1  0
 90 88  1  0
 92 95  1  0
 93 92  1  0
 93 97  1  0
 94 93  2  0
 97 96  1  0
 97 99  1  0
 99100  1  0
 99 98  1  0
M  ISO  4  14 100  22 100  59 101  60 101
M  END
>  <TORSDO>  (61) 
F 26

>  <SCORE>  (61) 
1.121

>  <name>  (61) 
61

>  <ligand_id>  (61) 
61

>  <original_smiles>  (61) 
[H]c1c([H])c([H])c2c(c1[H])C([H])([H])C([H])([H])C([H])([H])C2([H])N([H])C(=O)C1([H])N(C(=O)C([H])(N([H])C(=O)C([H])(N([H])C([H])([H])[H])C([H])([H])[H])C(C([H])([H])[H])(C([H])([H])[H])C([H])([H])[H])C([H])([H])c2c([H])c(OC([H])([H])C([H])([H])C([H])([H])C([H])([H])[N+]([H])([H])C([H])([H])c3c([H])c([H])c(C([H])(C([H])([H])[H])[N+]([H])([H])C([H])([H])C([H])([H])N([H])C(=O)N4C([H])([H])C([H])([H])C([H])([H])C([H])(n5nc(-c6c([H])c([H])c(Oc7c([H])c([H])c(F)c([H])c7F)c([H])c6[H])c(C(=O)N([H])[H])c5N([H])[H])C4([H])[H])c([H])c3[H])c([H])c([H])c2C1([H])[H]

>  <smiles>  (61) 
[H]c1c([H])c([H])c2c(c1[H])C([H])([H])C([H])([H])C([H])([H])C2([H])N([H])C(=O)C1([H])N(C(=O)C([H])(N([H])C(=O)C([H])(N([H])C([H])([H])[H])C([H])([H])[H])C(C([H])([H])[H])(C([H])([H])[H])C([H])([H])[H])C([H])([H])c2c([H])c(OC([H])([H])C([H])([H])C([H])([H])C([H])([H])[N+]([H])([H])C([H])([H])c3c([H])c([H])c(C([H])(C([H])([H])[H])[N+]([H])([H])C([H])([H])C([H])([H])N([H])C(=O)N4C([H])([H])C([H])([H])C([H])([H])C([H])(n5nc(-c6c([H])c([H])c(Oc7c([H])c([H])c(F)c([H])c7F)c([H])c6[H])c(C(=O)N([H])[H])c5N([H])[H])C4([H])[H])c([H])c3[H])c([H])c([H])c2C1([H])[H]

$$$$
62:0:0
     RDKit          3D

101107  0  0  1  0  0  0  0  0999 V2000
  -20.4250  -19.6900   21.7470 C   0  0  0  0  0  0  0  0  0  0  0  0
  -20.2850  -21.0220   21.5500 N   0  0  0  0  0  0  0  0  0  0  0  0
  -19.5450  -18.8720   21.4680 O   0  0  0  0  0  0  0  0  0  0  0  0
  -21.1210  -21.5670   21.7050 H   0  0  0  0  0  0  0  0  0  0  0  0
  -16.7830  -21.9340   20.4790 C   0  0  0  0  0  3  0  0  0  0  0  0
  -16.9880  -23.2360   19.9780 C   0  0  0  0  0  3  0  0  0  0  0  0
  -17.8580  -21.1750   20.9810 C   0  0  0  0  0  3  0  0  0  0  0  0
  -19.3120  -23.0870   20.6240 C   0  0  0  0  0  3  0  0  0  0  0  0
  -18.2690  -23.8490   19.9840 C   0  0  0  0  0  0  0  0  0  0  0  0
  -19.1470  -21.7430   21.0480 C   0  0  0  0  0  0  0  0  0  0  0  0
  -18.4740  -25.2110   19.0980 C   0  0  0  0  0  0  0  0  0  0  0  0
  -20.6640  -25.7190   16.9530 C   0  0  0  0  0 15  0  0  0  0  0  0
  -22.6450  -25.1400   17.1080 O   0  0  0  0  0  1  0  0  0  0  0  0
  -24.4930  -28.2920   20.9880 C   0  0  0  0  0  0  0  0  0  0  0  0
  -24.1410  -25.0870   16.6700 C   0  0  0  0  0  3  0  0  0  0  0  0
  -23.1670  -28.2150   18.9650 C   0  0  0  0  0  3  0  0  0  0  0  0
  -24.2680  -27.5200   16.7260 C   0  0  0  0  0  3  0  0  0  0  0  0
  -25.6340  -27.7270   18.8210 C   0  0  0  0  0  2  0  0  0  0  0  0
  -25.2160  -26.9530   17.5840 C   0  0  0  0  0  3  0  0  0  0  0  0
  -25.2650  -25.5560   17.4730 C   0  0  0  0  0  2  0  0  0  0  0  0
  -24.3330  -25.5090   15.3730 C   0  0  0  0  0  2  0  0  0  0  0  0
  -23.9630  -26.8490   15.5030 C   0  0  0  0  0  2  0  0  0  0  0  0
  -23.2970  -28.4370   17.4050 C   0  0  0  0  0  2  0  0  0  0  0  0
  -24.4720  -28.1340   19.6370 N   0  0  0  0  0  0  0  0  0  0  0  0
  -23.4700  -28.5980   21.6250 O   0  0  0  0  0  0  0  0  0  0  0  0
  -22.4060  -26.9700   19.4630 C   0  0  0  0  0  0  0  0  0  0  0  0
  -21.3350  -27.1890   20.1450 N   0  0  0  0  0  0  0  0  0  0  0  0
  -22.7680  -25.8080   19.3030 O   0  0  0  0  0  0  0  0  0  0  0  0
  -21.0730  -28.1360   20.3900 H   0  0  0  0  0  0  0  0  0  0  0  0
  -18.2550  -27.7350   21.6150 C   0  0  0  0  0  0  0  0  0  0  0  0
  -20.3280  -26.1750   20.2860 C   0  0  0  0  0  2  0  0  0  0  0  0
  -19.2430  -25.3000   18.6740 C   0  0  0  0  0  2  0  0  0  0  0  0
  -17.3270  -26.4760   18.6530 C   0  0  0  0  0  2  0  0  0  0  0  0
  -17.1910  -27.6790   20.1950 C   0  0  0  0  0  2  0  0  0  0  0  0
  -19.6340  -27.1120   21.5920 C   0  0  0  0  0  0  0  0  0  0  0  0
  -20.3690  -27.1020   22.8320 C   0  0  0  0  0  3  0  0  0  0  0  0
  -19.8520  -27.4840   24.0920 C   0  0  0  0  0  3  0  0  0  0  0  0
  -18.4970  -27.8290   24.1780 C   0  0  0  0  0  3  0  0  0  0  0  0
  -17.7290  -27.9240   22.9750 C   0  0  0  0  0  3  0  0  0  0  0  0
  -25.8060  -28.1260   21.7790 C   0  0  0  0  0  3  0  0  0  0  0  0
  -25.8130  -26.8630   22.7210 C   0  0  1  0  0  0  0  0  0  0  0  0
  -24.5700  -26.7480   23.6370 C   0  0  0  0  0  1  0  0  0  0  0  0
  -25.9090  -25.5570   21.8990 C   0  0  0  0  0  1  0  0  0  0  0  0
  -27.0700  -26.9130   23.6170 C   0  0  0  0  0  1  0  0  0  0  0  0
  -25.9530  -29.3580   22.5560 N   0  0  0  0  0  0  0  0  0  0  0  0
  -26.7940  -30.3460   22.2360 C   0  0  0  0  0  0  0  0  0  0  0  0
  -27.6030  -30.2600   21.3100 O   0  0  0  0  0  0  0  0  0  0  0  0
  -25.2840  -29.5130   23.2950 H   0  0  0  0  0  0  0  0  0  0  0  0
  -26.0930  -32.7620   22.2770 C   0  0  0  0  0  1  0  0  0  0  0  0
  -26.7350  -31.6250   23.0900 C   0  0  0  0  0  3  0  0  0  0  0  0
  -28.6160  -31.1380   24.5870 C   0  0  0  0  0  1  0  0  0  0  0  0
  -28.0590  -32.0500   23.5910 N   0  0  0  0  0  0  0  0  0  0  0  0
  -28.0060  -32.9770   24.0040 H   0  0  0  0  0  0  0  0  0  0  0  0
  -21.7660  -19.1960   22.3540 C   0  0  0  0  0  3  0  0  0  0  0  0
  -22.5480  -18.1180   21.5290 C   0  0  0  0  0  3  0  0  0  0  0  0
  -24.0510  -16.8280   23.1500 C   0  0  0  0  0  1  0  0  0  0  0  0
  -24.0220  -17.8460   21.9900 C   0  0  0  0  0  3  0  0  0  0  0  0
  -24.9090  -17.4060   20.8650 N   0  0  0  0  0  4  0  0  0  0  0  0
  -24.7050  -16.4490   20.6110 H   0  0  0  0  0  0  0  0  0  0  0  0
  -24.6770  -17.9690   20.0630 H   0  0  0  0  0  0  0  0  0  0  0  0
  -26.3850  -17.5470   21.0730 C   0  0  0  0  0  2  0  0  0  0  0  0
  -27.2170  -16.9000   19.9300 C   0  0  0  0  0  2  0  0  0  0  0  0
  -28.7540  -16.7850   20.1150 C   0  0  0  0  0  2  0  0  0  0  0  0
  -30.2650  -15.1560   18.7920 C   0  0  0  0  0  0  0  0  0  0  0  0
  -30.3560  -12.7120   18.4270 C   0  0  0  0  0  2  0  0  0  0  0  0
  -29.3120  -12.2930   17.3720 C   0  0  0  0  0  2  0  0  0  0  0  0
  -27.9260  -12.0730   18.0180 C   0  0  0  0  0  2  0  0  0  0  0  0
  -27.5120  -13.2370   18.9600 C   0  0  0  0  0  3  0  0  0  0  0  0
  -28.6690  -13.5510   19.9330 C   0  0  0  0  0  2  0  0  0  0  0  0
  -29.8430  -13.9060   19.1270 N   0  0  0  0  0  0  0  0  0  0  0  0
  -31.2590  -15.3410   18.0830 O   0  0  0  0  0  0  0  0  0  0  0  0
  -29.3950  -16.1800   18.9290 N   0  0  0  0  0  0  0  0  0  0  0  0
  -29.6210  -16.8880   18.2460 H   0  0  0  0  0  0  0  0  0  0  0  0
  -25.2670  -13.7980   20.1060 C   0  0  0  0  0  0  0  0  0  0  0  0
  -24.3090  -13.0030   20.6670 C   0  0  0  0  0  0  0  0  0  0  0  0
  -24.7660  -11.6600   20.5040 C   0  0  0  0  0  0  0  0  0  0  0  0
  -26.2700  -12.9400   19.6700 N   0  0  0  0  0  0  0  0  0  0  0  0
  -25.9730  -11.6460   19.9550 N   0  0  0  0  0  0  0  0  0  0  0  0
  -24.0960  -10.3850   20.7850 C   0  0  0  0  0  0  0  0  0  0  0  0
  -24.4670   -9.5840   21.8880 C   0  0  0  0  0  3  0  0  0  0  0  0
  -23.7960   -8.3720   22.1480 C   0  0  0  0  0  3  0  0  0  0  0  0
  -22.7400   -7.9500   21.3040 C   0  0  0  0  0  0  0  0  0  0  0  0
  -22.3920   -8.7390   20.1950 C   0  0  0  0  0  3  0  0  0  0  0  0
  -23.0640   -9.9440   19.9340 C   0  0  0  0  0  3  0  0  0  0  0  0
  -22.0480   -6.7750   21.4650 O   0  0  0  0  0  0  0  0  0  0  0  0
  -21.6300   -6.3510   22.7000 C   0  0  0  0  0  0  0  0  0  0  0  0
  -20.6990   -7.0870   23.4650 C   0  0  0  0  0  3  0  0  0  0  0  0
  -20.2440   -6.5800   24.6970 C   0  0  0  0  0  3  0  0  0  0  0  0
  -20.7100   -5.3360   25.1640 C   0  0  0  0  0  0  0  0  0  0  0  0
  -21.6330   -4.5990   24.4010 C   0  0  0  0  0  3  0  0  0  0  0  0
  -22.0900   -5.1050   23.1710 C   0  0  0  0  0  0  0  0  0  0  0  0
  -22.9640   -4.3820   22.4300 F   0  0  0  0  0  0  0  0  0  0  0  0
  -20.2670   -4.8440   26.3440 F   0  0  0  0  0  0  0  0  0  0  0  0
  -22.9920  -13.4560   21.2240 C   0  0  0  0  0  0  0  0  0  0  0  0
  -22.4560  -12.7330   22.1990 N   0  0  0  0  0  0  0  0  0  0  0  0
  -22.4580  -14.4920   20.8300 O   0  0  0  0  0  0  0  0  0  0  0  0
  -22.9040  -11.8950   22.5380 H   0  0  0  0  0  0  0  0  0  0  0  0
  -21.5780  -13.0180   22.6110 H   0  0  0  0  0  0  0  0  0  0  0  0
  -25.3390  -15.1750   19.9120 N   0  0  0  0  0  0  0  0  0  0  0  0
  -24.4310  -15.6250   19.8470 H   0  0  0  0  0  0  0  0  0  0  0  0
  -25.9620  -15.4990   19.1820 H   0  0  0  0  0  0  0  0  0  0  0  0
  1 54  1  0
  2  4  1  0
  2  1  1  0
  3  1  2  0
  5  7  1  0
  6  9  1  0
  6  5  2  0
  7 10  2  0
  8 10  1  0
  9  8  2  0
 10  2  1  0
 11  9  1  0
 14 25  2  0
 15 13  1  0
 15 20  1  0
 16 26  1  0
 16 24  1  0
 17 22  1  0
 17 23  1  0
 17 19  1  0
 18 24  1  0
 19 20  1  0
 19 18  1  0
 21 22  1  0
 21 15  1  0
 23 16  1  0
 24 14  1  0
 26 27  1  0
 27 31  1  0
 27 29  1  0
 28 26  2  0
 30 39  1  0
 31 35  1  0
 32 11  2  0
 33 11  1  0
 33 34  1  0
 34 30  1  0
 35 30  2  0
 35 36  1  0
 36 37  2  0
 37 38  1  0
 39 38  2  0
 40 14  1  0
 40 45  1  0
 40 41  1  0
 41 44  1  1
 41 42  1  0
 43 41  1  0
 45 48  1  0
 46 45  1  0
 46 50  1  0
 47 46  2  0
 50 49  1  0
 50 52  1  0
 52 53  1  0
 52 51  1  0
 55 57  1  0
 55 54  2  0
 57 56  1  0
 58 61  1  0
 58 57  1  0
 59 58  1  0
 60 58  1  0
 62 63  1  0
 62 61  1  0
 64 72  1  0
 64 70  1  0
 65 70  1  0
 66 67  1  0
 66 65  1  0
 68 67  1  0
 68 77  1  0
 68 69  1  0
 70 69  1  0
 71 64  2  0
 72 63  1  0
 73 72  1  0
 74 75  2  0
 75 94  1  0
 76 75  1  0
 76 79  1  0
 77 78  1  0
 77 74  1  0
 78 76  2  0
 79 80  1  0
 80 81  2  0
 82 85  1  0
 82 81  1  0
 83 82  2  0
 84 83  1  0
 84 79  2  0
 85 86  1  0
 86 91  2  0
 86 87  1  0
 87 88  2  0
 88 89  1  0
 89 93  1  0
 90 89  2  0
 91 90  1  0
 92 91  1  0
 94 95  1  0
 95 97  1  0
 95 98  1  0
 96 94  2  0
 99 74  1  0
100 99  1  0
101 99  1  0
M  ISO  4  12 101  13 101  64 100  72 100
M  END
>  <TORSDO>  (62) 
F 26

>  <SCORE>  (62) 
37.028

>  <name>  (62) 
62

>  <ligand_id>  (62) 
62

>  <original_smiles>  (62) 
[H]c1c([H])c(N([H])C(=O)C([H])([H])C([H])([H])C([H])(C([H])([H])[H])[N+]([H])([H])C([H])([H])C([H])([H])C([H])([H])N([H])C(=O)N2C([H])([H])C([H])([H])C([H])([H])C([H])(n3nc(-c4c([H])c([H])c(Oc5c([H])c([H])c(F)c([H])c5F)c([H])c4[H])c(C(=O)N([H])[H])c3N([H])[H])C2([H])[H])c([H])c(C([H])([H])C([H])([H])Oc2c([H])c([H])c3c(c2[H])C([H])([H])N(C(=O)C([H])(N([H])C(=O)C([H])(N([H])C([H])([H])[H])C([H])([H])[H])C(C([H])([H])[H])(C([H])([H])[H])C([H])([H])[H])C([H])(C(=O)N([H])C2([H])c4c([H])c([H])c([H])c([H])c4C([H])([H])C([H])([H])C2([H])[H])C3([H])[H])c1[H]

>  <smiles>  (62) 
[H]c1c([H])c(N([H])C(=O)C([H])([H])C([H])([H])C([H])(C([H])([H])[H])[N+]([H])([H])C([H])([H])C([H])([H])C([H])([H])N([H])C(=O)N2C([H])([H])C([H])([H])C([H])([H])C([H])(n3nc(-c4c([H])c([H])c(Oc5c([H])c([H])c(F)c([H])c5F)c([H])c4[H])c(C(=O)N([H])[H])c3N([H])[H])C2([H])[H])c([H])c(C([H])([H])C([H])([H])Oc2c([H])c([H])c3c(c2[H])C([H])([H])N(C(=O)C([H])(N([H])C(=O)C([H])(N([H])C([H])([H])[H])C([H])([H])[H])C(C([H])([H])[H])(C([H])([H])[H])C([H])([H])[H])C([H])(C(=O)N([H])C2([H])c4c([H])c([H])c([H])c([H])c4C([H])([H])C([H])([H])C2([H])[H])C3([H])[H])c1[H]

$$$$
63:0:0
     RDKit          3D

 99107  0  0  1  0  0  0  0  0999 V2000
  -29.6360  -21.8330   15.5610 N   0  0  0  0  0  4  0  0  0  0  0  0
  -28.9410  -22.0220   14.8610 H   0  0  0  0  0  0  0  0  0  0  0  0
  -29.1520  -21.6740   16.4320 H   0  0  0  0  0  0  0  0  0  0  0  0
  -29.9440  -20.0320   13.8390 C   0  0  0  0  0  1  0  0  0  0  0  0
  -30.3800  -20.6020   15.2030 C   0  0  0  0  0  3  0  0  0  0  0  0
  -31.2990  -19.5560   17.3250 C   0  0  0  0  0  3  0  0  0  0  0  0
  -29.1380  -18.7790   16.5070 C   0  0  0  0  0  3  0  0  0  0  0  0
  -31.1650  -18.7360   18.4620 C   0  0  0  0  0  3  0  0  0  0  0  0
  -29.0150  -17.9490   17.6350 C   0  0  0  0  0  3  0  0  0  0  0  0
  -30.2700  -19.6110   16.3560 C   0  0  0  0  0  0  0  0  0  0  0  0
  -30.0010  -17.9580   18.6380 C   0  0  0  0  0  0  0  0  0  0  0  0
  -29.7900  -17.1780   19.7430 O   0  0  0  0  0  0  0  0  0  0  0  0
  -29.9830  -17.7880   21.0200 C   0  0  0  0  0  2  0  0  0  0  0  0
  -30.8500  -16.8940   21.9220 C   0  0  0  0  0  2  0  0  0  0  0  0
  -31.0310  -14.6850   20.8200 C   0  0  0  0  0  0  0  0  0  0  0  0
  -30.7130  -12.6400   19.4820 C   0  0  0  0  0  2  0  0  0  0  0  0
  -29.8250  -12.9340   18.2570 C   0  0  0  0  0  2  0  0  0  0  0  0
  -28.3340  -12.8060   18.6240 C   0  0  0  0  0  2  0  0  0  0  0  0
  -27.9660  -13.5810   19.9210 C   0  0  0  0  0  3  0  0  0  0  0  0
  -28.9690  -13.2590   21.0540 C   0  0  0  0  0  2  0  0  0  0  0  0
  -30.3270  -13.5560   20.5630 N   0  0  0  0  0  0  0  0  0  0  0  0
  -32.0820  -14.9810   20.2400 O   0  0  0  0  0  0  0  0  0  0  0  0
  -30.4910  -15.4910   21.7400 N   0  0  0  0  0  0  0  0  0  0  0  0
  -29.6650  -15.1570   22.2180 H   0  0  0  0  0  0  0  0  0  0  0  0
  -25.5320  -14.2010   20.5040 C   0  0  0  0  0  0  0  0  0  0  0  0
  -24.4460  -13.4330   20.8280 C   0  0  0  0  0  0  0  0  0  0  0  0
  -24.9010  -12.0800   20.8220 C   0  0  0  0  0  0  0  0  0  0  0  0
  -26.5860  -13.3150   20.3310 N   0  0  0  0  0  0  0  0  0  0  0  0
  -26.2050  -12.0350   20.5720 N   0  0  0  0  0  0  0  0  0  0  0  0
  -24.1620  -10.8210   20.9920 C   0  0  0  0  0  0  0  0  0  0  0  0
  -24.5450   -9.8660   21.9570 C   0  0  0  0  0  3  0  0  0  0  0  0
  -23.8120   -8.6690   22.1110 C   0  0  0  0  0  3  0  0  0  0  0  0
  -22.6800   -8.4210   21.2980 C   0  0  0  0  0  0  0  0  0  0  0  0
  -22.3190   -9.3660   20.3210 C   0  0  0  0  0  3  0  0  0  0  0  0
  -23.0510  -10.5540   20.1670 C   0  0  0  0  0  3  0  0  0  0  0  0
  -21.9250   -7.2760   21.3550 O   0  0  0  0  0  0  0  0  0  0  0  0
  -21.7910   -6.5570   22.5180 C   0  0  0  0  0  0  0  0  0  0  0  0
  -21.2580   -7.1320   23.6910 C   0  0  0  0  0  3  0  0  0  0  0  0
  -21.0760   -6.3400   24.8430 C   0  0  0  0  0  3  0  0  0  0  0  0
  -21.4150   -4.9740   24.8190 C   0  0  0  0  0  0  0  0  0  0  0  0
  -21.9400   -4.3980   23.6480 C   0  0  0  0  0  3  0  0  0  0  0  0
  -22.1250   -5.1880   22.4990 C   0  0  0  0  0  0  0  0  0  0  0  0
  -22.6120   -4.6240   21.3670 F   0  0  0  0  0  0  0  0  0  0  0  0
  -21.2370   -4.2100   25.9230 F   0  0  0  0  0  0  0  0  0  0  0  0
  -23.0390  -13.9140   21.0480 C   0  0  0  0  0  0  0  0  0  0  0  0
  -22.2770  -13.2260   21.8910 N   0  0  0  0  0  0  0  0  0  0  0  0
  -22.6200  -14.9370   20.5080 O   0  0  0  0  0  0  0  0  0  0  0  0
  -22.6240  -12.3970   22.3510 H   0  0  0  0  0  0  0  0  0  0  0  0
  -21.3340  -13.5350   22.0780 H   0  0  0  0  0  0  0  0  0  0  0  0
  -25.7180  -15.5710   20.3250 N   0  0  0  0  0  0  0  0  0  0  0  0
  -24.9630  -16.2470   20.3950 H   0  0  0  0  0  0  0  0  0  0  0  0
  -26.6020  -15.9880   20.0720 H   0  0  0  0  0  0  0  0  0  0  0  0
  -30.5050  -23.0140   15.7460 C   0  0  0  0  0  2  0  0  0  0  0  0
  -29.7580  -24.2630   16.2580 C   0  0  0  0  0  2  0  0  0  0  0  0
  -29.2360  -24.1000   17.6180 N   0  0  0  0  0  0  0  0  0  0  0  0
  -29.9850  -23.7740   18.2230 H   0  0  0  0  0  0  0  0  0  0  0  0
  -28.7940  -25.4090   18.1150 C   0  0  0  0  0  2  0  0  0  0  0  0
  -28.5340  -25.4190   19.6400 C   0  0  0  0  0  2  0  0  0  0  0  0
  -28.4530  -26.7590   20.1600 O   0  0  0  0  0  0  0  0  0  0  0  0
  -24.5570  -31.8740   23.2510 C   0  0  0  0  0  0  0  0  0  0  0  0
  -27.2550  -27.4500   20.1530 C   0  0  0  0  0  0  0  0  0  0  0  0
  -23.3780  -30.4800   21.5870 C   0  0  0  0  0  3  0  0  0  0  0  0
  -24.8510  -28.9530   20.1720 C   0  0  0  0  0  0  0  0  0  0  0  0
  -25.9080  -30.8380   21.4300 C   0  0  0  0  0  2  0  0  0  0  0  0
  -26.0020  -29.4730   20.7740 C   0  0  0  0  0  0  0  0  0  0  0  0
  -27.2040  -28.7260   20.7640 C   0  0  0  0  0  3  0  0  0  0  0  0
  -26.0770  -26.9390   19.5620 C   0  0  0  0  0  3  0  0  0  0  0  0
  -24.8840  -27.6840   19.5680 C   0  0  0  0  0  3  0  0  0  0  0  0
  -23.6030  -29.8050   20.2080 C   0  0  0  0  0  2  0  0  0  0  0  0
  -24.6320  -31.0790   22.1470 N   0  0  0  0  0  0  0  0  0  0  0  0
  -23.4670  -32.1440   23.7760 O   0  0  0  0  0  0  0  0  0  0  0  0
  -22.7150  -29.4530   22.5320 C   0  0  0  0  0  0  0  0  0  0  0  0
  -21.3940  -29.2680   22.3800 N   0  0  0  0  0  0  0  0  0  0  0  0
  -23.3860  -28.8270   23.3560 O   0  0  0  0  0  0  0  0  0  0  0  0
  -20.9150  -29.8220   21.6840 H   0  0  0  0  0  0  0  0  0  0  0  0
  -18.0140  -28.0610   22.8060 C   0  0  0  0  0  0  0  0  0  0  0  0
  -20.5650  -28.3230   23.1280 C   0  0  0  0  0  3  0  0  0  0  0  0
  -20.6850  -26.8970   22.5420 C   0  0  0  0  0  2  0  0  0  0  0  0
  -19.6020  -26.5780   21.5070 C   0  0  0  0  0  2  0  0  0  0  0  0
  -18.2070  -26.7160   22.1250 C   0  0  0  0  0  2  0  0  0  0  0  0
  -19.1220  -28.8240   23.2600 C   0  0  0  0  0  0  0  0  0  0  0  0
  -18.8900  -30.0850   23.8500 C   0  0  0  0  0  3  0  0  0  0  0  0
  -17.5820  -30.5820   23.9940 C   0  0  0  0  0  3  0  0  0  0  0  0
  -16.4870  -29.8150   23.5590 C   0  0  0  0  0  3  0  0  0  0  0  0
  -16.7050  -28.5580   22.9700 C   0  0  0  0  0  3  0  0  0  0  0  0
  -25.8330  -32.5030   23.8940 C   0  0  0  0  0  3  0  0  0  0  0  0
  -26.3150  -31.7410   25.1910 C   0  0  1  0  0  0  0  0  0  0  0  0
  -25.1940  -31.5190   26.2330 C   0  0  0  0  0  1  0  0  0  0  0  0
  -26.8980  -30.3560   24.8250 C   0  0  0  0  0  1  0  0  0  0  0  0
  -27.4540  -32.5350   25.8720 C   0  0  0  0  0  1  0  0  0  0  0  0
  -25.5300  -33.9070   24.2020 N   0  0  0  0  0  0  0  0  0  0  0  0
  -25.8880  -34.9470   23.4380 C   0  0  0  0  0  0  0  0  0  0  0  0
  -26.5780  -34.8250   22.4220 O   0  0  0  0  0  0  0  0  0  0  0  0
  -24.9170  -34.0750   24.9860 H   0  0  0  0  0  0  0  0  0  0  0  0
  -24.1820  -36.7450   23.0190 C   0  0  0  0  0  1  0  0  0  0  0  0
  -25.4010  -36.3440   23.8660 C   0  0  0  0  0  3  0  0  0  0  0  0
  -27.5170  -37.2250   24.7420 C   0  0  0  0  0  1  0  0  0  0  0  0
  -26.4440  -37.3880   23.7640 N   0  0  0  0  0  0  0  0  0  0  0  0
  -26.0410  -38.3130   23.8870 H   0  0  0  0  0  0  0  0  0  0  0  0
  1 53  1  0
  1  3  1  0
  2  1  1  0
  5  4  1  0
  5  1  1  0
  5 10  1  0
  6  8  1  0
  7  9  2  0
  8 11  2  0
  9 11  1  0
 10  7  1  0
 10  6  2  0
 11 12  1  0
 12 13  1  0
 13 14  1  0
 15 23  1  0
 16 21  1  0
 17 18  1  0
 17 16  1  0
 19 18  1  0
 19 28  1  0
 19 20  1  0
 21 15  1  0
 21 20  1  0
 22 15  2  0
 23 14  1  0
 23 24  1  0
 25 26  2  0
 26 45  1  0
 27 26  1  0
 27 30  1  0
 28 25  1  0
 28 29  1  0
 29 27  2  0
 30 31  1  0
 31 32  2  0
 33 36  1  0
 33 32  1  0
 34 33  2  0
 35 34  1  0
 35 30  2  0
 36 37  1  0
 37 38  1  0
 38 39  2  0
 40 39  1  0
 40 44  1  0
 41 40  2  0
 42 37  2  0
 42 41  1  0
 43 42  1  0
 45 46  1  0
 46 49  1  0
 46 48  1  0
 47 45  2  0
 50 51  1  0
 50 25  1  0
 52 50  1  0
 53 54  1  0
 54 55  1  0
 55 57  1  0
 55 56  1  0
 57 58  1  0
 58 59  1  0
 60 71  2  0
 61 59  1  0
 61 66  1  0
 62 70  1  0
 62 72  1  0
 63 69  1  0
 63 65  1  0
 64 70  1  0
 65 64  1  0
 66 65  2  0
 67 68  1  0
 67 61  2  0
 68 63  2  0
 69 62  1  0
 70 60  1  0
 72 74  2  0
 73 72  1  0
 75 73  1  0
 76 85  2  0
 76 81  1  0
 77 73  1  0
 77 81  1  0
 78 77  1  0
 79 80  1  0
 79 78  1  0
 80 76  1  0
 81 82  2  0
 82 83  1  0
 84 83  2  0
 85 84  1  0
 86 60  1  0
 86 91  1  0
 86 87  1  0
 87 90  1  1
 87 88  1  0
 89 87  1  0
 91 94  1  0
 92 96  1  0
 92 91  1  0
 93 92  2  0
 96 95  1  0
 98 96  1  0
 98 99  1  0
 98 97  1  0
M  ISO  4  15 100  23 100  58 101  59 101
M  END
>  <TORSDO>  (63) 
F 26

>  <SCORE>  (63) 
-11.705

>  <name>  (63) 
63

>  <ligand_id>  (63) 
63

>  <original_smiles>  (63) 
[H]c1c([H])c([H])c2c(c1[H])C([H])([H])C([H])([H])C([H])([H])C2([H])N([H])C(=O)C1([H])N(C(=O)C([H])(N([H])C(=O)C([H])(N([H])C([H])([H])[H])C([H])([H])[H])C(C([H])([H])[H])(C([H])([H])[H])C([H])([H])[H])C([H])([H])c2c([H])c(OC([H])([H])C([H])([H])N([H])C([H])([H])C([H])([H])[N+]([H])([H])C([H])(c3c([H])c([H])c(OC([H])([H])C([H])([H])N([H])C(=O)N4C([H])([H])C([H])([H])C([H])([H])C([H])(n5nc(-c6c([H])c([H])c(Oc7c([H])c([H])c(F)c([H])c7F)c([H])c6[H])c(C(=O)N([H])[H])c5N([H])[H])C4([H])[H])c([H])c3[H])C([H])([H])[H])c([H])c([H])c2C1([H])[H]

>  <smiles>  (63) 
[H]c1c([H])c([H])c2c(c1[H])C([H])([H])C([H])([H])C([H])([H])C2([H])N([H])C(=O)C1([H])N(C(=O)C([H])(N([H])C(=O)C([H])(N([H])C([H])([H])[H])C([H])([H])[H])C(C([H])([H])[H])(C([H])([H])[H])C([H])([H])[H])C([H])([H])c2c([H])c(OC([H])([H])C([H])([H])N([H])C([H])([H])C([H])([H])[N+]([H])([H])C([H])(c3c([H])c([H])c(OC([H])([H])C([H])([H])N([H])C(=O)N4C([H])([H])C([H])([H])C([H])([H])C([H])(n5nc(-c6c([H])c([H])c(Oc7c([H])c([H])c(F)c([H])c7F)c([H])c6[H])c(C(=O)N([H])[H])c5N([H])[H])C4([H])[H])c([H])c3[H])C([H])([H])[H])c([H])c([H])c2C1([H])[H]

$$$$
64:0:0
     RDKit          3D

 96104  0  0  1  0  0  0  0  0999 V2000
  -27.8960  -20.4230   19.8370 C   0  0  0  0  0  2  0  0  0  0  0  0
  -27.9200  -18.9380   19.4420 C   0  0  0  0  0  2  0  0  0  0  0  0
  -30.2590  -17.6990   22.1990 C   0  0  0  0  0  3  0  0  0  0  0  0
  -29.2820  -18.4460   21.5190 C   0  0  0  0  0  3  0  0  0  0  0  0
  -30.9510  -16.6660   21.5350 C   0  0  0  0  0  3  0  0  0  0  0  0
  -29.6880  -17.1190   19.5070 C   0  0  0  0  0  3  0  0  0  0  0  0
  -28.9920  -18.1540   20.1710 C   0  0  0  0  0  0  0  0  0  0  0  0
  -30.6790  -16.3700   20.1800 C   0  0  0  0  0  0  0  0  0  0  0  0
  -31.0460  -15.0650   18.0070 C   0  0  0  0  0  1  0  0  0  0  0  0
  -31.4250  -15.2220   19.4920 C   0  0  0  0  0  3  0  0  0  0  0  0
  -31.9080  -12.8280   20.3700 C   0  0  0  0  0  0  0  0  0  0  0  0
  -31.7170  -10.5550   21.3370 C   0  0  0  0  0  2  0  0  0  0  0  0
  -30.9680   -9.5980   20.3900 C   0  0  0  0  0  2  0  0  0  0  0  0
  -29.4380   -9.7140   20.5600 C   0  0  0  0  0  2  0  0  0  0  0  0
  -28.9550  -11.1850   20.5240 C   0  0  0  0  0  3  0  0  0  0  0  0
  -29.7970  -12.0420   21.4910 C   0  0  0  0  0  2  0  0  0  0  0  0
  -31.2210  -11.9190   21.1070 N   0  0  0  0  0  0  0  0  0  0  0  0
  -33.0000  -12.5840   19.8410 O   0  0  0  0  0  0  0  0  0  0  0  0
  -31.2870  -14.0160   20.3130 N   0  0  0  0  0  0  0  0  0  0  0  0
  -30.4650  -14.0380   20.8970 H   0  0  0  0  0  0  0  0  0  0  0  0
  -26.7310  -12.4240   20.9240 C   0  0  0  0  0  0  0  0  0  0  0  0
  -25.4590  -11.9660   21.1490 C   0  0  0  0  0  0  0  0  0  0  0  0
  -25.5490  -10.5400   21.1550 C   0  0  0  0  0  0  0  0  0  0  0  0
  -27.5270  -11.2910   20.8160 N   0  0  0  0  0  0  0  0  0  0  0  0
  -26.8090  -10.1550   21.0020 N   0  0  0  0  0  0  0  0  0  0  0  0
  -24.4990   -9.5160   21.2380 C   0  0  0  0  0  0  0  0  0  0  0  0
  -24.4280   -8.6190   22.3270 C   0  0  0  0  0  3  0  0  0  0  0  0
  -23.3990   -7.6540   22.3920 C   0  0  0  0  0  3  0  0  0  0  0  0
  -22.4290   -7.5820   21.3650 C   0  0  0  0  0  0  0  0  0  0  0  0
  -22.5190   -8.4630   20.2720 C   0  0  0  0  0  3  0  0  0  0  0  0
  -23.5450   -9.4190   20.2070 C   0  0  0  0  0  3  0  0  0  0  0  0
  -21.4100   -6.6610   21.3300 O   0  0  0  0  0  0  0  0  0  0  0  0
  -20.8090   -6.2080   22.4760 C   0  0  0  0  0  0  0  0  0  0  0  0
  -20.1720   -7.0860   23.3790 C   0  0  0  0  0  3  0  0  0  0  0  0
  -19.5060   -6.5730   24.5110 C   0  0  0  0  0  3  0  0  0  0  0  0
  -19.4700   -5.1840   24.7350 C   0  0  0  0  0  0  0  0  0  0  0  0
  -20.1010   -4.3070   23.8360 C   0  0  0  0  0  3  0  0  0  0  0  0
  -20.7670   -4.8190   22.7090 C   0  0  0  0  0  0  0  0  0  0  0  0
  -21.3550   -3.9680   21.8320 F   0  0  0  0  0  0  0  0  0  0  0  0
  -18.8250   -4.6890   25.8180 F   0  0  0  0  0  0  0  0  0  0  0  0
  -24.2140  -12.7990   21.2620 C   0  0  0  0  0  0  0  0  0  0  0  0
  -23.2490  -12.3490   22.0580 N   0  0  0  0  0  0  0  0  0  0  0  0
  -24.1100  -13.8780   20.6820 O   0  0  0  0  0  0  0  0  0  0  0  0
  -23.3450  -11.4720   22.5480 H   0  0  0  0  0  0  0  0  0  0  0  0
  -22.4050  -12.8910   22.1820 H   0  0  0  0  0  0  0  0  0  0  0  0
  -27.2700  -13.6980   20.7890 N   0  0  0  0  0  0  0  0  0  0  0  0
  -26.7050  -14.5370   20.8580 H   0  0  0  0  0  0  0  0  0  0  0  0
  -28.2560  -13.8970   20.6760 H   0  0  0  0  0  0  0  0  0  0  0  0
  -27.1550  -21.2690   18.7890 C   0  0  0  0  0  2  0  0  0  0  0  0
  -27.3310  -22.7870   18.9500 C   0  0  0  0  0  2  0  0  0  0  0  0
  -28.7280  -23.2290   18.7280 N   0  0  0  0  0  4  0  0  0  0  0  0
  -29.0640  -22.7800   17.8900 H   0  0  0  0  0  0  0  0  0  0  0  0
  -29.3140  -22.9220   19.4890 H   0  0  0  0  0  0  0  0  0  0  0  0
  -28.8860  -24.6900   18.5360 C   0  0  0  0  0  2  0  0  0  0  0  0
  -28.7420  -25.4830   19.8490 C   0  0  0  0  0  2  0  0  0  0  0  0
  -28.6760  -26.8800   19.5890 O   0  0  0  0  0  0  0  0  0  0  0  0
  -24.5710  -31.4430   23.1360 C   0  0  0  0  0  0  0  0  0  0  0  0
  -27.4320  -27.4610   19.6760 C   0  0  0  0  0  0  0  0  0  0  0  0
  -23.4370  -30.0820   21.4320 C   0  0  0  0  0  3  0  0  0  0  0  0
  -24.9320  -28.7520   19.8610 C   0  0  0  0  0  0  0  0  0  0  0  0
  -25.9060  -30.6420   21.1880 C   0  0  0  0  0  2  0  0  0  0  0  0
  -26.0640  -29.3300   20.4480 C   0  0  0  0  0  0  0  0  0  0  0  0
  -27.3170  -28.6950   20.3470 C   0  0  0  0  0  3  0  0  0  0  0  0
  -26.2790  -26.8790   19.0990 C   0  0  0  0  0  3  0  0  0  0  0  0
  -25.0310  -27.5230   19.1870 C   0  0  0  0  0  3  0  0  0  0  0  0
  -23.6350  -29.5090   20.0020 C   0  0  0  0  0  2  0  0  0  0  0  0
  -24.6590  -30.7340   21.9780 N   0  0  0  0  0  0  0  0  0  0  0  0
  -23.4870  -31.5990   23.7140 O   0  0  0  0  0  0  0  0  0  0  0  0
  -22.8850  -28.9630   22.3380 C   0  0  0  0  0  0  0  0  0  0  0  0
  -21.5930  -28.7360   22.1430 N   0  0  0  0  0  0  0  0  0  0  0  0
  -23.5970  -28.3270   23.1180 O   0  0  0  0  0  0  0  0  0  0  0  0
  -21.1410  -29.4030   21.5310 H   0  0  0  0  0  0  0  0  0  0  0  0
  -18.3500  -26.8960   22.3520 C   0  0  0  0  0  0  0  0  0  0  0  0
  -20.7530  -27.6110   22.4560 C   0  0  0  0  0  3  0  0  0  0  0  0
  -21.2100  -26.1640   22.2390 C   0  0  0  0  0  2  0  0  0  0  0  0
  -20.2390  -25.4930   21.2450 C   0  0  0  0  0  2  0  0  0  0  0  0
  -18.7710  -25.5680   21.7160 C   0  0  0  0  0  2  0  0  0  0  0  0
  -19.3050  -27.8330   22.8140 C   0  0  0  0  0  0  0  0  0  0  0  0
  -18.8880  -29.0420   23.4080 C   0  0  0  0  0  3  0  0  0  0  0  0
  -17.5170  -29.3390   23.4990 C   0  0  0  0  0  3  0  0  0  0  0  0
  -16.5630  -28.4240   23.0170 C   0  0  0  0  0  3  0  0  0  0  0  0
  -16.9800  -27.2000   22.4620 C   0  0  0  0  0  3  0  0  0  0  0  0
  -25.8270  -32.1120   23.7730 C   0  0  0  0  0  3  0  0  0  0  0  0
  -25.4620  -33.4920   24.1120 N   0  0  0  0  0  0  0  0  0  0  0  0
  -25.7610  -34.5620   23.3630 C   0  0  0  0  0  0  0  0  0  0  0  0
  -26.4450  -34.4910   22.3370 O   0  0  0  0  0  0  0  0  0  0  0  0
  -24.8550  -33.6190   24.9080 H   0  0  0  0  0  0  0  0  0  0  0  0
  -23.9660  -36.2830   23.0040 C   0  0  0  0  0  1  0  0  0  0  0  0
  -25.2160  -35.9260   23.8220 C   0  0  0  0  0  3  0  0  0  0  0  0
  -27.3100  -36.8840   24.6720 C   0  0  0  0  0  1  0  0  0  0  0  0
  -26.2070  -37.0180   23.7230 N   0  0  0  0  0  0  0  0  0  0  0  0
  -25.7660  -37.9200   23.8750 H   0  0  0  0  0  0  0  0  0  0  0  0
  -26.3600  -31.3400   25.0400 C   0  0  1  0  0  0  0  0  0  0  0  0
  -25.2650  -31.0340   26.0890 C   0  0  0  0  0  1  0  0  0  0  0  0
  -27.0070  -29.9970   24.6280 C   0  0  0  0  0  1  0  0  0  0  0  0
  -27.4670  -32.1720   25.7280 C   0  0  0  0  0  1  0  0  0  0  0  0
  2  1  1  0
  2  7  1  0
  4  3  2  0
  5  3  1  0
  6  7  2  0
  6  8  1  0
  7  4  1  0
  8  5  2  0
 10  9  1  0
 10  8  1  0
 10 19  1  0
 11 17  1  0
 13 14  1  0
 13 12  1  0
 15 14  1  0
 15 24  1  0
 15 16  1  0
 17 12  1  0
 17 16  1  0
 18 11  2  0
 19 11  1  0
 19 20  1  0
 21 22  2  0
 22 23  1  0
 22 41  1  0
 23 26  1  0
 24 21  1  0
 24 25  1  0
 25 23  2  0
 26 27  1  0
 27 28  2  0
 29 28  1  0
 30 29  2  0
 31 30  1  0
 31 26  2  0
 32 29  1  0
 32 33  1  0
 33 38  2  0
 33 34  1  0
 34 35  2  0
 35 36  1  0
 36 40  1  0
 37 36  2  0
 38 37  1  0
 39 38  1  0
 41 42  1  0
 42 45  1  0
 42 44  1  0
 43 41  2  0
 46 47  1  0
 46 21  1  0
 48 46  1  0
 49 50  1  0
 49  1  1  0
 51 50  1  0
 51 53  1  0
 52 51  1  0
 54 51  1  0
 54 55  1  0
 56 58  1  0
 56 55  1  0
 57 68  2  0
 58 63  1  0
 59 67  1  0
 59 69  1  0
 60 66  1  0
 60 62  1  0
 61 67  1  0
 62 61  1  0
 63 62  2  0
 64 65  1  0
 64 58  2  0
 65 60  2  0
 66 59  1  0
 67 57  1  0
 69 71  2  0
 70 69  1  0
 72 70  1  0
 73 82  2  0
 73 78  1  0
 74 70  1  0
 74 78  1  0
 75 74  1  0
 76 77  1  0
 76 75  1  0
 77 73  1  0
 78 79  2  0
 79 80  1  0
 81 80  2  0
 82 81  1  0
 83 57  1  0
 83 84  1  0
 83 93  1  0
 84 87  1  0
 85 89  1  0
 85 84  1  0
 86 85  2  0
 89 88  1  0
 91 89  1  0
 91 92  1  0
 91 90  1  0
 93 96  1  1
 93 94  1  0
 95 93  1  0
M  ISO  4  11 100  19 100  55 101  56 101
M  END
>  <TORSDO>  (64) 
F 24

>  <SCORE>  (64) 
-8.825

>  <name>  (64) 
64

>  <ligand_id>  (64) 
64

>  <original_smiles>  (64) 
[H]c1c([H])c([H])c2c(c1[H])C([H])([H])C([H])([H])C([H])([H])C2([H])N([H])C(=O)C1([H])N(C(=O)C([H])(N([H])C(=O)C([H])(N([H])C([H])([H])[H])C([H])([H])[H])C(C([H])([H])[H])(C([H])([H])[H])C([H])([H])[H])C([H])([H])c2c([H])c(OC([H])([H])C([H])([H])[N+]([H])([H])C([H])([H])C([H])([H])C([H])([H])C([H])([H])c3c([H])c([H])c([H])c(C([H])(N([H])C(=O)N4C([H])([H])C([H])([H])C([H])([H])C([H])(n5nc(-c6c([H])c([H])c(Oc7c([H])c([H])c(F)c([H])c7F)c([H])c6[H])c(C(=O)N([H])[H])c5N([H])[H])C4([H])[H])C([H])([H])[H])c3[H])c([H])c([H])c2C1([H])[H]

>  <smiles>  (64) 
[H]c1c([H])c([H])c2c(c1[H])C([H])([H])C([H])([H])C([H])([H])C2([H])N([H])C(=O)C1([H])N(C(=O)C([H])(N([H])C(=O)C([H])(N([H])C([H])([H])[H])C([H])([H])[H])C(C([H])([H])[H])(C([H])([H])[H])C([H])([H])[H])C([H])([H])c2c([H])c(OC([H])([H])C([H])([H])[N+]([H])([H])C([H])([H])C([H])([H])C([H])([H])C([H])([H])c3c([H])c([H])c([H])c(C([H])(N([H])C(=O)N4C([H])([H])C([H])([H])C([H])([H])C([H])(n5nc(-c6c([H])c([H])c(Oc7c([H])c([H])c(F)c([H])c7F)c([H])c6[H])c(C(=O)N([H])[H])c5N([H])[H])C4([H])[H])C([H])([H])[H])c3[H])c([H])c([H])c2C1([H])[H]

$$$$
65:0:0
     RDKit          3D

108116  0  0  1  0  0  0  0  0999 V2000
  -31.3550  -19.8750   19.2980 C   0  0  0  0  0  3  0  0  0  0  0  0
  -29.3460  -19.7680   20.6700 C   0  0  0  0  0  3  0  0  0  0  0  0
  -32.1530  -19.7750   20.4560 C   0  0  0  0  0  3  0  0  0  0  0  0
  -30.1440  -19.6960   21.8300 C   0  0  0  0  0  3  0  0  0  0  0  0
  -29.9450  -19.8590   19.3920 C   0  0  0  0  0  0  0  0  0  0  0  0
  -31.5550  -19.6730   21.7340 C   0  0  0  0  0  0  0  0  0  0  0  0
  -28.3090  -18.5810   17.9300 C   0  0  0  0  0  1  0  0  0  0  0  0
  -29.0900  -19.8960   18.1220 C   0  0  0  0  0  3  0  0  0  0  0  0
  -28.1720  -21.0550   18.1250 N   0  0  0  0  0  4  0  0  0  0  0  0
  -27.4730  -20.9010   17.4160 H   0  0  0  0  0  0  0  0  0  0  0  0
  -27.6990  -21.0810   19.0110 H   0  0  0  0  0  0  0  0  0  0  0  0
  -28.7670  -22.3850   17.8570 C   0  0  0  0  0  2  0  0  0  0  0  0
  -28.3690  -23.3800   18.9600 C   0  0  0  0  0  2  0  0  0  0  0  0
  -28.7960  -24.8440   18.7370 C   0  0  0  0  0  2  0  0  0  0  0  0
  -28.7590  -25.5970   20.0800 C   0  0  0  0  0  2  0  0  0  0  0  0
  -28.9220  -27.0110   19.9690 O   0  0  0  0  0  0  0  0  0  0  0  0
  -25.4510  -31.4160   24.3500 C   0  0  0  0  0  0  0  0  0  0  0  0
  -27.7960  -27.7740   20.1790 C   0  0  0  0  0  0  0  0  0  0  0  0
  -24.1730  -30.6220   22.3860 C   0  0  0  0  0  3  0  0  0  0  0  0
  -25.5260  -29.3970   20.6080 C   0  0  0  0  0  0  0  0  0  0  0  0
  -26.7210  -30.7980   22.2990 C   0  0  0  0  0  2  0  0  0  0  0  0
  -26.7100  -29.6530   21.3100 C   0  0  0  0  0  0  0  0  0  0  0  0
  -27.8520  -28.8490   21.0920 C   0  0  0  0  0  3  0  0  0  0  0  0
  -26.5910  -27.5210   19.4840 C   0  0  0  0  0  3  0  0  0  0  0  0
  -25.4600  -28.3280   19.6970 C   0  0  0  0  0  3  0  0  0  0  0  0
  -24.3580  -30.3180   20.8760 C   0  0  0  0  0  2  0  0  0  0  0  0
  -25.4660  -30.9390   23.0730 N   0  0  0  0  0  0  0  0  0  0  0  0
  -24.3830  -31.6310   24.9390 O   0  0  0  0  0  0  0  0  0  0  0  0
  -23.4090  -29.4450   23.0320 C   0  0  0  0  0  0  0  0  0  0  0  0
  -22.0830  -29.4060   22.8250 N   0  0  0  0  0  0  0  0  0  0  0  0
  -24.0090  -28.5830   23.6790 O   0  0  0  0  0  0  0  0  0  0  0  0
  -21.6660  -30.1570   22.2940 H   0  0  0  0  0  0  0  0  0  0  0  0
  -18.6210  -28.3820   22.8750 C   0  0  0  0  0  0  0  0  0  0  0  0
  -21.1690  -28.3690   23.3000 C   0  0  0  0  0  3  0  0  0  0  0  0
  -21.2130  -27.1220   22.3860 C   0  0  0  0  0  2  0  0  0  0  0  0
  -20.1500  -27.1460   21.2830 C   0  0  0  0  0  2  0  0  0  0  0  0
  -18.7470  -27.2350   21.8870 C   0  0  0  0  0  2  0  0  0  0  0  0
  -19.7600  -28.9270   23.5250 C   0  0  0  0  0  0  0  0  0  0  0  0
  -19.5900  -30.0190   24.4040 C   0  0  0  0  0  3  0  0  0  0  0  0
  -18.3120  -30.5590   24.6410 C   0  0  0  0  0  3  0  0  0  0  0  0
  -17.1870  -30.0050   24.0070 C   0  0  0  0  0  3  0  0  0  0  0  0
  -17.3420  -28.9150   23.1320 C   0  0  0  0  0  3  0  0  0  0  0  0
  -26.7700  -31.7380   25.1200 C   0  0  0  0  0  3  0  0  0  0  0  0
  -26.6250  -33.0790   25.7030 N   0  0  0  0  0  0  0  0  0  0  0  0
  -27.1520  -34.1940   25.1820 C   0  0  0  0  0  0  0  0  0  0  0  0
  -27.8830  -34.1900   24.1880 O   0  0  0  0  0  0  0  0  0  0  0  0
  -26.0040  -33.1640   26.4930 H   0  0  0  0  0  0  0  0  0  0  0  0
  -25.7220  -36.2600   25.0790 C   0  0  0  0  0  1  0  0  0  0  0  0
  -26.8160  -35.5280   25.8750 C   0  0  0  0  0  3  0  0  0  0  0  0
  -28.9670  -35.9020   27.0000 C   0  0  0  0  0  1  0  0  0  0  0  0
  -27.9850  -36.4190   26.0490 N   0  0  0  0  0  0  0  0  0  0  0  0
  -27.6900  -37.3360   26.3720 H   0  0  0  0  0  0  0  0  0  0  0  0
  -27.1100  -30.6780   26.2390 C   0  0  1  0  0  0  0  0  0  0  0  0
  -25.9290  -30.3710   27.1920 C   0  0  0  0  0  1  0  0  0  0  0  0
  -27.5600  -29.3430   25.6030 C   0  0  0  0  0  1  0  0  0  0  0  0
  -28.2960  -31.1820   27.0960 C   0  0  0  0  0  1  0  0  0  0  0  0
  -32.4020  -19.4780   22.9960 C   0  0  0  0  0  3  0  0  0  0  0  0
  -32.4490  -18.0560   23.4150 N   0  0  0  0  0  4  0  0  0  0  0  0
  -33.2050  -17.5790   22.9560 H   0  0  0  0  0  0  0  0  0  0  0  0
  -32.6690  -18.0730   24.4000 H   0  0  0  0  0  0  0  0  0  0  0  0
  -31.2050  -17.2530   23.3040 C   0  0  0  0  0  2  0  0  0  0  0  0
  -31.0110  -16.5290   21.9460 C   0  0  0  0  0  2  0  0  0  0  0  0
  -30.9200  -15.0080   22.1200 C   0  0  0  0  0  2  0  0  0  0  0  0
  -29.9280  -14.0720   19.9790 C   0  0  0  0  0  0  0  0  0  0  0  0
  -29.5930  -12.0190   18.6500 C   0  0  0  0  0  2  0  0  0  0  0  0
  -28.5200  -12.0740   17.5540 C   0  0  0  0  0  2  0  0  0  0  0  0
  -27.1370  -11.7390   18.1390 C   0  0  0  0  0  2  0  0  0  0  0  0
  -26.8160  -12.5890   19.3910 C   0  0  0  0  0  3  0  0  0  0  0  0
  -27.9740  -12.5560   20.4070 C   0  0  0  0  0  2  0  0  0  0  0  0
  -29.2260  -12.9440   19.7270 N   0  0  0  0  0  0  0  0  0  0  0  0
  -30.7070  -14.5990   19.1770 O   0  0  0  0  0  0  0  0  0  0  0  0
  -29.9070  -14.3650   21.2870 N   0  0  0  0  0  0  0  0  0  0  0  0
  -29.2210  -13.8300   21.8010 H   0  0  0  0  0  0  0  0  0  0  0  0
  -24.4420  -12.9320   20.3210 C   0  0  0  0  0  0  0  0  0  0  0  0
  -23.5140  -12.0500   20.8060 C   0  0  0  0  0  0  0  0  0  0  0  0
  -24.1290  -10.7610   20.7530 C   0  0  0  0  0  0  0  0  0  0  0  0
  -25.5590  -12.1710   20.0050 N   0  0  0  0  0  0  0  0  0  0  0  0
  -25.3800  -10.8630   20.3230 N   0  0  0  0  0  0  0  0  0  0  0  0
  -23.5830   -9.4270   21.0380 C   0  0  0  0  0  0  0  0  0  0  0  0
  -24.1380   -8.5990   22.0390 C   0  0  0  0  0  3  0  0  0  0  0  0
  -23.5850   -7.3270   22.3050 C   0  0  0  0  0  3  0  0  0  0  0  0
  -22.4640   -6.8740   21.5680 C   0  0  0  0  0  0  0  0  0  0  0  0
  -21.9280   -7.6930   20.5600 C   0  0  0  0  0  3  0  0  0  0  0  0
  -22.4820   -8.9570   20.2940 C   0  0  0  0  0  3  0  0  0  0  0  0
  -21.8750   -5.6460   21.7390 O   0  0  0  0  0  0  0  0  0  0  0  0
  -21.9210   -4.9870   22.9410 C   0  0  0  0  0  0  0  0  0  0  0  0
  -21.4060   -5.5570   24.1240 C   0  0  0  0  0  3  0  0  0  0  0  0
  -21.4100   -4.8180   25.3240 C   0  0  0  0  0  3  0  0  0  0  0  0
  -21.9190   -3.5060   25.3380 C   0  0  0  0  0  0  0  0  0  0  0  0
  -22.4290   -2.9330   24.1610 C   0  0  0  0  0  3  0  0  0  0  0  0
  -22.4260   -3.6710   22.9650 C   0  0  0  0  0  0  0  0  0  0  0  0
  -22.8990   -3.1070   21.8270 F   0  0  0  0  0  0  0  0  0  0  0  0
  -21.9170   -2.7930   26.4880 F   0  0  0  0  0  0  0  0  0  0  0  0
  -22.1010  -12.3670   21.2050 C   0  0  0  0  0  0  0  0  0  0  0  0
  -21.5590  -11.6270   22.1670 N   0  0  0  0  0  0  0  0  0  0  0  0
  -21.4860  -13.3030   20.6990 O   0  0  0  0  0  0  0  0  0  0  0  0
  -22.0680  -10.8660   22.5880 H   0  0  0  0  0  0  0  0  0  0  0  0
  -20.6210  -11.8240   22.4860 H   0  0  0  0  0  0  0  0  0  0  0  0
  -24.4290  -14.3080   20.1020 N   0  0  0  0  0  0  0  0  0  0  0  0
  -23.6090  -14.8820   20.2690 H   0  0  0  0  0  0  0  0  0  0  0  0
  -25.2020  -14.8200   19.6940 H   0  0  0  0  0  0  0  0  0  0  0  0
  -33.8470  -20.0320   22.8720 C   0  0  0  0  0  2  0  0  0  0  0  0
  -34.0350  -21.1860   21.8640 C   0  0  0  0  0  2  0  0  0  0  0  0
  -35.5140  -21.4980   21.5480 C   0  0  0  0  0  2  0  0  0  0  0  0
  -36.1740  -20.4470   20.7520 N   0  0  0  0  0  4  0  0  0  0  0  0
  -36.2380  -19.5810   21.2550 H   0  0  0  0  0  0  0  0  0  0  0  0
  -37.1100  -20.7380   20.5250 H   0  0  0  0  0  0  0  0  0  0  0  0
  -35.6870  -20.2930   19.8860 H   0  0  0  0  0  0  0  0  0  0  0  0
  1  5  2  0
  1  3  1  0
  2  4  2  0
  3  6  2  0
  5  2  1  0
  6  4  1  0
  6 57  1  0
  8  7  1  0
  8  9  1  0
  8  5  1  0
  9 11  1  0
 10  9  1  0
 12  9  1  0
 12 13  1  0
 14 13  1  0
 14 15  1  0
 16 15  1  0
 16 18  1  0
 17 28  2  0
 18 23  1  0
 19 29  1  0
 19 27  1  0
 20 26  1  0
 20 22  1  0
 21 27  1  0
 22 21  1  0
 23 22  2  0
 24 25  1  0
 24 18  2  0
 25 20  2  0
 26 19  1  0
 27 17  1  0
 29 31  2  0
 30 29  1  0
 32 30  1  0
 33 42  2  0
 33 38  1  0
 34 30  1  0
 34 38  1  0
 35 34  1  0
 36 37  1  0
 36 35  1  0
 37 33  1  0
 38 39  2  0
 39 40  1  0
 41 40  2  0
 42 41  1  0
 43 17  1  0
 43 44  1  0
 43 53  1  0
 44 47  1  0
 45 44  1  0
 45 49  1  0
 46 45  2  0
 49 48  1  0
 49 51  1  0
 51 52  1  0
 51 50  1  0
 53 56  1  1
 53 54  1  0
 55 53  1  0
 57102  1  0
 57 58  1  0
 58 60  1  0
 59 58  1  0
 61 58  1  0
 62 63  1  0
 62 61  1  0
 64 72  1  0
 65 70  1  0
 66 67  1  0
 66 65  1  0
 68 67  1  0
 68 77  1  0
 68 69  1  0
 70 64  1  0
 70 69  1  0
 71 64  2  0
 72 73  1  0
 72 63  1  0
 74 75  2  0
 75 94  1  0
 76 75  1  0
 76 79  1  0
 77 74  1  0
 77 78  1  0
 78 76  2  0
 79 80  1  0
 80 81  2  0
 82 85  1  0
 82 81  1  0
 83 82  2  0
 84 83  1  0
 84 79  2  0
 85 86  1  0
 86 91  2  0
 86 87  1  0
 87 88  2  0
 88 89  1  0
 89 93  1  0
 90 89  2  0
 91 90  1  0
 92 91  1  0
 94 95  1  0
 95 98  1  0
 95 97  1  0
 96 94  2  0
 99100  1  0
 99 74  1  0
101 99  1  0
103102  1  0
104103  1  0
105106  1  0
105104  1  0
107105  1  0
108105  1  0
M  ISO  4  15 101  16 101  64 100  72 100
M  END
>  <TORSDO>  (65) 
F 31

>  <SCORE>  (65) 
-2.612

>  <name>  (65) 
65

>  <ligand_id>  (65) 
65

>  <original_smiles>  (65) 
[H]c1c([H])c([H])c2c(c1[H])C([H])([H])C([H])([H])C([H])([H])C2([H])N([H])C(=O)C1([H])N(C(=O)C([H])(N([H])C(=O)C([H])(N([H])C([H])([H])[H])C([H])([H])[H])C(C([H])([H])[H])(C([H])([H])[H])C([H])([H])[H])C([H])([H])c2c([H])c(OC([H])([H])C([H])([H])C([H])([H])C([H])([H])[N+]([H])([H])C([H])(c3c([H])c([H])c(C([H])(C([H])([H])C([H])([H])C([H])([H])[N+]([H])([H])[H])[N+]([H])([H])C([H])([H])C([H])([H])C([H])([H])N([H])C(=O)N4C([H])([H])C([H])([H])C([H])([H])C([H])(n5nc(-c6c([H])c([H])c(Oc7c([H])c([H])c(F)c([H])c7F)c([H])c6[H])c(C(=O)N([H])[H])c5N([H])[H])C4([H])[H])c([H])c3[H])C([H])([H])[H])c([H])c([H])c2C1([H])[H]

>  <smiles>  (65) 
[H]c1c([H])c([H])c2c(c1[H])C([H])([H])C([H])([H])C([H])([H])C2([H])N([H])C(=O)C1([H])N(C(=O)C([H])(N([H])C(=O)C([H])(N([H])C([H])([H])[H])C([H])([H])[H])C(C([H])([H])[H])(C([H])([H])[H])C([H])([H])[H])C([H])([H])c2c([H])c(OC([H])([H])C([H])([H])C([H])([H])C([H])([H])[N+]([H])([H])C([H])(c3c([H])c([H])c(C([H])(C([H])([H])C([H])([H])C([H])([H])[N+]([H])([H])[H])[N+]([H])([H])C([H])([H])C([H])([H])C([H])([H])N([H])C(=O)N4C([H])([H])C([H])([H])C([H])([H])C([H])(n5nc(-c6c([H])c([H])c(Oc7c([H])c([H])c(F)c([H])c7F)c([H])c6[H])c(C(=O)N([H])[H])c5N([H])[H])C4([H])[H])c([H])c3[H])C([H])([H])[H])c([H])c([H])c2C1([H])[H]

$$$$
66:0:0
     RDKit          3D

 99107  0  0  1  0  0  0  0  0999 V2000
  -31.5290  -23.3980   21.9390 C   0  0  0  0  0  2  0  0  0  0  0  0
  -30.6190  -24.4280   21.3830 N   0  0  0  0  0  4  0  0  0  0  0  0
  -30.0650  -24.8050   22.1360 H   0  0  0  0  0  0  0  0  0  0  0  0
  -29.9920  -23.9840   20.7330 H   0  0  0  0  0  0  0  0  0  0  0  0
  -31.3010  -25.5670   20.7270 C   0  0  0  0  0  2  0  0  0  0  0  0
  -31.0810  -24.6540   18.3660 C   0  0  0  0  0  1  0  0  0  0  0  0
  -31.6180  -27.0600   18.7340 C   0  0  0  0  0  1  0  0  0  0  0  0
  -30.8090  -25.8650   19.2820 C   0  0  2  0  0  0  0  0  0  0  0  0
  -29.3050  -26.2340   19.2250 C   0  0  0  0  0  2  0  0  0  0  0  0
  -29.0470  -27.3450   20.0770 O   0  0  0  0  0  0  0  0  0  0  0  0
  -24.7450  -31.9120   23.3800 C   0  0  0  0  0  0  0  0  0  0  0  0
  -27.7950  -27.9200   20.0790 C   0  0  0  0  0  0  0  0  0  0  0  0
  -23.6940  -30.5760   21.5820 C   0  0  0  0  0  3  0  0  0  0  0  0
  -25.2960  -29.2470   20.1120 C   0  0  0  0  0  0  0  0  0  0  0  0
  -26.1950  -31.1040   21.5250 C   0  0  0  0  0  2  0  0  0  0  0  0
  -26.3910  -29.7960   20.7880 C   0  0  0  0  0  0  0  0  0  0  0  0
  -27.6380  -29.1380   20.7740 C   0  0  0  0  0  3  0  0  0  0  0  0
  -26.6740  -27.3650   19.4160 C   0  0  0  0  0  3  0  0  0  0  0  0
  -25.4310  -28.0260   19.4280 C   0  0  0  0  0  3  0  0  0  0  0  0
  -24.0000  -30.0220   20.1650 C   0  0  0  0  0  2  0  0  0  0  0  0
  -24.8930  -31.2090   22.2230 N   0  0  0  0  0  0  0  0  0  0  0  0
  -23.6290  -32.0750   23.8920 O   0  0  0  0  0  0  0  0  0  0  0  0
  -23.0730  -29.4440   22.4300 C   0  0  0  0  0  0  0  0  0  0  0  0
  -21.7620  -29.2150   22.2520 N   0  0  0  0  0  0  0  0  0  0  0  0
  -23.7660  -28.7800   23.2040 O   0  0  0  0  0  0  0  0  0  0  0  0
  -21.2620  -29.8080   21.6040 H   0  0  0  0  0  0  0  0  0  0  0  0
  -18.4330  -27.8500   22.5640 C   0  0  0  0  0  0  0  0  0  0  0  0
  -20.9730  -28.1780   22.9140 C   0  0  0  0  0  3  0  0  0  0  0  0
  -21.1430  -26.8130   22.2060 C   0  0  0  0  0  2  0  0  0  0  0  0
  -20.0720  -26.5470   21.1430 C   0  0  0  0  0  2  0  0  0  0  0  0
  -18.6750  -26.5780   21.7690 C   0  0  0  0  0  2  0  0  0  0  0  0
  -19.5130  -28.6090   23.0880 C   0  0  0  0  0  0  0  0  0  0  0  0
  -19.2340  -29.8030   23.7890 C   0  0  0  0  0  3  0  0  0  0  0  0
  -17.9080  -30.2370   23.9730 C   0  0  0  0  0  3  0  0  0  0  0  0
  -16.8420  -29.4740   23.4660 C   0  0  0  0  0  3  0  0  0  0  0  0
  -17.1050  -28.2810   22.7670 C   0  0  0  0  0  3  0  0  0  0  0  0
  -25.9660  -32.5640   24.1020 C   0  0  0  0  0  3  0  0  0  0  0  0
  -26.4230  -31.7740   25.3900 C   0  0  1  0  0  0  0  0  0  0  0  0
  -25.2710  -31.4690   26.3750 C   0  0  0  0  0  1  0  0  0  0  0  0
  -27.0770  -30.4270   24.9990 C   0  0  0  0  0  1  0  0  0  0  0  0
  -27.5000  -32.5840   26.1470 C   0  0  0  0  0  1  0  0  0  0  0  0
  -25.5910  -33.9420   24.4450 N   0  0  0  0  0  0  0  0  0  0  0  0
  -25.9440  -35.0240   23.7380 C   0  0  0  0  0  0  0  0  0  0  0  0
  -26.6920  -34.9680   22.7580 O   0  0  0  0  0  0  0  0  0  0  0  0
  -24.9340  -34.0580   25.2030 H   0  0  0  0  0  0  0  0  0  0  0  0
  -24.1850  -36.7660   23.3020 C   0  0  0  0  0  1  0  0  0  0  0  0
  -25.3790  -36.3840   24.1900 C   0  0  0  0  0  3  0  0  0  0  0  0
  -27.4280  -37.3090   25.1770 C   0  0  0  0  0  1  0  0  0  0  0  0
  -26.3810  -37.4720   24.1730 N   0  0  0  0  0  0  0  0  0  0  0  0
  -25.9350  -38.3730   24.3240 H   0  0  0  0  0  0  0  0  0  0  0  0
  -30.7880  -22.2900   22.7130 C   0  0  0  0  0  2  0  0  0  0  0  0
  -27.8940  -20.9720   20.5680 C   0  0  0  0  0  3  0  0  0  0  0  0
  -28.3460  -19.6780   20.2490 C   0  0  0  0  0  3  0  0  0  0  0  0
  -28.6800  -21.8130   21.3760 C   0  0  0  0  0  3  0  0  0  0  0  0
  -30.3900  -20.0770   21.5160 C   0  0  0  0  0  3  0  0  0  0  0  0
  -29.5810  -19.2050   20.7480 C   0  0  0  0  0  0  0  0  0  0  0  0
  -29.9380  -21.3760   21.8390 C   0  0  0  0  0  0  0  0  0  0  0  0
  -30.0050  -17.8150   20.4150 C   0  0  0  0  0  0  0  0  0  0  0  0
  -29.5230  -17.1750   19.4760 O   0  0  0  0  0  0  0  0  0  0  0  0
  -31.0120  -17.1280   21.3520 C   0  0  0  0  0  2  0  0  0  0  0  0
  -31.8410  -16.0090   20.6880 C   0  0  0  0  0  2  0  0  0  0  0  0
  -31.4850  -13.7220   19.8030 C   0  0  0  0  0  0  0  0  0  0  0  0
  -30.9230  -11.4670   18.9870 C   0  0  0  0  0  2  0  0  0  0  0  0
  -29.9500  -11.5440   17.7960 C   0  0  0  0  0  2  0  0  0  0  0  0
  -28.4920  -11.6030   18.2890 C   0  0  0  0  0  2  0  0  0  0  0  0
  -28.2770  -12.6820   19.3850 C   0  0  0  0  0  3  0  0  0  0  0  0
  -29.3520  -12.5630   20.4900 C   0  0  0  0  0  2  0  0  0  0  0  0
  -30.6810  -12.6310   19.8510 N   0  0  0  0  0  0  0  0  0  0  0  0
  -32.5030  -13.7920   19.1060 O   0  0  0  0  0  0  0  0  0  0  0  0
  -31.1110  -14.7450   20.5770 N   0  0  0  0  0  0  0  0  0  0  0  0
  -30.2630  -14.6300   21.1130 H   0  0  0  0  0  0  0  0  0  0  0  0
  -26.0370  -13.6410   20.2230 C   0  0  0  0  0  0  0  0  0  0  0  0
  -24.8870  -13.0350   20.6550 C   0  0  0  0  0  0  0  0  0  0  0  0
  -25.1410  -11.6300   20.6050 C   0  0  0  0  0  0  0  0  0  0  0  0
  -26.9260  -12.6150   19.9410 N   0  0  0  0  0  0  0  0  0  0  0  0
  -26.3910  -11.4000   20.2230 N   0  0  0  0  0  0  0  0  0  0  0  0
  -24.2480  -10.4890   20.8440 C   0  0  0  0  0  0  0  0  0  0  0  0
  -24.6020   -9.4440   21.7270 C   0  0  0  0  0  3  0  0  0  0  0  0
  -23.7200   -8.3660   21.9520 C   0  0  0  0  0  3  0  0  0  0  0  0
  -22.4670   -8.3260   21.2960 C   0  0  0  0  0  0  0  0  0  0  0  0
  -22.1290   -9.3570   20.4020 C   0  0  0  0  0  3  0  0  0  0  0  0
  -23.0100  -10.4270   20.1740 C   0  0  0  0  0  3  0  0  0  0  0  0
  -21.5550   -7.3090   21.4360 O   0  0  0  0  0  0  0  0  0  0  0  0
  -21.5000   -6.5430   22.5740 C   0  0  0  0  0  0  0  0  0  0  0  0
  -21.3010   -7.1140   23.8490 C   0  0  0  0  0  3  0  0  0  0  0  0
  -21.1800   -6.2840   24.9820 C   0  0  0  0  0  3  0  0  0  0  0  0
  -21.2500   -4.8850   24.8400 C   0  0  0  0  0  0  0  0  0  0  0  0
  -21.4420   -4.3140   23.5690 C   0  0  0  0  0  3  0  0  0  0  0  0
  -21.5650   -5.1420   22.4400 C   0  0  0  0  0  0  0  0  0  0  0  0
  -21.7290   -4.5860   21.2150 F   0  0  0  0  0  0  0  0  0  0  0  0
  -21.1270   -4.0860   25.9250 F   0  0  0  0  0  0  0  0  0  0  0  0
  -23.5950  -13.7140   21.0090 C   0  0  0  0  0  0  0  0  0  0  0  0
  -22.8310  -13.1390   21.9320 N   0  0  0  0  0  0  0  0  0  0  0  0
  -23.2760  -14.7890   20.4990 O   0  0  0  0  0  0  0  0  0  0  0  0
  -23.1010  -12.2680   22.3660 H   0  0  0  0  0  0  0  0  0  0  0  0
  -21.9620  -13.5750   22.2070 H   0  0  0  0  0  0  0  0  0  0  0  0
  -26.3920  -14.9730   20.0340 N   0  0  0  0  0  0  0  0  0  0  0  0
  -25.7480  -15.7330   20.2200 H   0  0  0  0  0  0  0  0  0  0  0  0
  -27.3180  -15.2940   19.7720 H   0  0  0  0  0  0  0  0  0  0  0  0
  1 51  1  0
  2  1  1  0
  2  3  1  0
  4  2  1  0
  5  2  1  0
  8  6  1  6
  7  8  1  0
  8  5  1  0
  9  8  1  0
  9 10  1  0
 10 12  1  0
 11 22  2  0
 12 17  1  0
 13 21  1  0
 13 23  1  0
 14 20  1  0
 14 16  1  0
 15 21  1  0
 16 15  1  0
 17 16  2  0
 18 19  1  0
 18 12  2  0
 19 14  2  0
 20 13  1  0
 21 11  1  0
 23 25  2  0
 24 23  1  0
 26 24  1  0
 27 36  2  0
 27 32  1  0
 28 24  1  0
 28 32  1  0
 29 28  1  0
 30 31  1  0
 30 29  1  0
 31 27  1  0
 32 33  2  0
 33 34  1  0
 35 34  2  0
 36 35  1  0
 37 11  1  0
 37 42  1  0
 37 38  1  0
 38 41  1  1
 38 39  1  0
 40 38  1  0
 42 45  1  0
 43 47  1  0
 43 42  1  0
 44 43  2  0
 47 46  1  0
 49 47  1  0
 49 50  1  0
 49 48  1  0
 52 54  1  0
 53 52  2  0
 53 56  1  0
 54 57  2  0
 55 57  1  0
 56 55  2  0
 57 51  1  0
 58 56  1  0
 58 60  1  0
 59 58  2  0
 61 60  1  0
 62 68  1  0
 62 70  1  0
 63 68  1  0
 64 65  1  0
 64 63  1  0
 66 65  1  0
 66 75  1  0
 66 67  1  0
 68 67  1  0
 69 62  2  0
 70 61  1  0
 70 71  1  0
 72 73  2  0
 73 92  1  0
 74 73  1  0
 74 77  1  0
 75 72  1  0
 75 76  1  0
 76 74  2  0
 77 78  1  0
 78 79  2  0
 80 83  1  0
 80 79  1  0
 81 80  2  0
 82 81  1  0
 82 77  2  0
 83 84  1  0
 84 85  1  0
 85 86  2  0
 87 86  1  0
 87 91  1  0
 88 87  2  0
 89 84  2  0
 89 88  1  0
 90 89  1  0
 92 93  1  0
 93 96  1  0
 93 95  1  0
 94 92  2  0
 97 98  1  0
 97 72  1  0
 99 97  1  0
M  ISO  4   9 101  10 101  62 100  70 100
M  END
>  <TORSDO>  (66) 
F 25

>  <SCORE>  (66) 
-10.797

>  <name>  (66) 
66

>  <ligand_id>  (66) 
66

>  <original_smiles>  (66) 
[H]c1c([H])c([H])c2c(c1[H])C([H])([H])C([H])([H])C([H])([H])C2([H])N([H])C(=O)C1([H])N(C(=O)C([H])(N([H])C(=O)C([H])(N([H])C([H])([H])[H])C([H])([H])[H])C(C([H])([H])[H])(C([H])([H])[H])C([H])([H])[H])C([H])([H])c2c([H])c(OC([H])([H])C(C([H])([H])[H])(C([H])([H])[H])C([H])([H])[N+]([H])([H])C([H])([H])C([H])([H])c3c([H])c([H])c([H])c(C(=O)C([H])([H])C([H])([H])N([H])C(=O)N4C([H])([H])C([H])([H])C([H])([H])C([H])(n5nc(-c6c([H])c([H])c(Oc7c([H])c([H])c(F)c([H])c7F)c([H])c6[H])c(C(=O)N([H])[H])c5N([H])[H])C4([H])[H])c3[H])c([H])c([H])c2C1([H])[H]

>  <smiles>  (66) 
[H]c1c([H])c([H])c2c(c1[H])C([H])([H])C([H])([H])C([H])([H])C2([H])N([H])C(=O)C1([H])N(C(=O)C([H])(N([H])C(=O)C([H])(N([H])C([H])([H])[H])C([H])([H])[H])C(C([H])([H])[H])(C([H])([H])[H])C([H])([H])[H])C([H])([H])c2c([H])c(OC([H])([H])C(C([H])([H])[H])(C([H])([H])[H])C([H])([H])[N+]([H])([H])C([H])([H])C([H])([H])c3c([H])c([H])c([H])c(C(=O)C([H])([H])C([H])([H])N([H])C(=O)N4C([H])([H])C([H])([H])C([H])([H])C([H])(n5nc(-c6c([H])c([H])c(Oc7c([H])c([H])c(F)c([H])c7F)c([H])c6[H])c(C(=O)N([H])[H])c5N([H])[H])C4([H])[H])c3[H])c([H])c([H])c2C1([H])[H]

$$$$
67:0:0
     RDKit          3D

 96103  0  0  1  0  0  0  0  0999 V2000
  -30.5500  -20.5150   17.9010 N   0  0  0  0  0  4  0  0  0  0  0  0
  -31.2270  -21.2290   17.6830 H   0  0  0  0  0  0  0  0  0  0  0  0
  -30.0730  -20.2830   17.0450 H   0  0  0  0  0  0  0  0  0  0  0  0
  -31.6680  -18.4240   17.2010 C   0  0  0  0  0  1  0  0  0  0  0  0
  -31.2660  -19.3140   18.3930 C   0  0  0  0  0  3  0  0  0  0  0  0
  -32.4900  -19.7470   19.2460 C   0  0  0  0  0  2  0  0  0  0  0  0
  -33.3300  -18.6140   19.8730 C   0  0  0  0  0  2  0  0  0  0  0  0
  -32.6520  -17.8960   21.0200 C   0  0  0  0  0  3  0  0  0  0  0  0
  -31.4180  -17.5910   21.0470 N   0  0  0  0  0  0  0  0  0  0  0  0
  -30.9580  -16.8840   22.2300 C   0  0  0  0  0  2  0  0  0  0  0  0
  -31.3350  -15.3920   22.1750 C   0  0  0  0  0  2  0  0  0  0  0  0
  -30.4420  -14.2270   20.1350 C   0  0  0  0  0  0  0  0  0  0  0  0
  -29.9350  -12.2540   18.7450 C   0  0  0  0  0  2  0  0  0  0  0  0
  -28.8610  -12.4660   17.6670 C   0  0  0  0  0  2  0  0  0  0  0  0
  -27.4530  -12.2550   18.2520 C   0  0  0  0  0  2  0  0  0  0  0  0
  -27.2290  -13.0630   19.5530 C   0  0  0  0  0  3  0  0  0  0  0  0
  -28.3860  -12.8390   20.5470 C   0  0  0  0  0  2  0  0  0  0  0  0
  -29.6620  -13.1520   19.8740 N   0  0  0  0  0  0  0  0  0  0  0  0
  -31.2900  -14.6660   19.3510 O   0  0  0  0  0  0  0  0  0  0  0  0
  -30.3700  -14.6040   21.4170 N   0  0  0  0  0  0  0  0  0  0  0  0
  -29.6500  -14.1470   21.9550 H   0  0  0  0  0  0  0  0  0  0  0  0
  -24.9010  -13.5960   20.5170 C   0  0  0  0  0  0  0  0  0  0  0  0
  -23.8930  -12.7870   20.9720 C   0  0  0  0  0  0  0  0  0  0  0  0
  -24.3790  -11.4490   20.8600 C   0  0  0  0  0  0  0  0  0  0  0  0
  -25.9360  -12.7470   20.1580 N   0  0  0  0  0  0  0  0  0  0  0  0
  -25.6310  -11.4490   20.4200 N   0  0  0  0  0  0  0  0  0  0  0  0
  -23.7060  -10.1640   21.0900 C   0  0  0  0  0  0  0  0  0  0  0  0
  -24.1910   -9.2360   22.0370 C   0  0  0  0  0  3  0  0  0  0  0  0
  -23.5150   -8.0160   22.2530 C   0  0  0  0  0  3  0  0  0  0  0  0
  -22.3430   -7.7140   21.5200 C   0  0  0  0  0  0  0  0  0  0  0  0
  -21.8780   -8.6320   20.5620 C   0  0  0  0  0  3  0  0  0  0  0  0
  -22.5540   -9.8440   20.3450 C   0  0  0  0  0  3  0  0  0  0  0  0
  -21.6360   -6.5420   21.6440 O   0  0  0  0  0  0  0  0  0  0  0  0
  -21.5690   -5.8640   22.8340 C   0  0  0  0  0  0  0  0  0  0  0  0
  -21.0500   -6.4590   24.0040 C   0  0  0  0  0  3  0  0  0  0  0  0
  -20.9360   -5.7030   25.1890 C   0  0  0  0  0  3  0  0  0  0  0  0
  -21.3330   -4.3530   25.2040 C   0  0  0  0  0  0  0  0  0  0  0  0
  -21.8460   -3.7570   24.0380 C   0  0  0  0  0  3  0  0  0  0  0  0
  -21.9610   -4.5100   22.8570 C   0  0  0  0  0  0  0  0  0  0  0  0
  -22.4360   -3.9240   21.7310 F   0  0  0  0  0  0  0  0  0  0  0  0
  -21.2170   -3.6240   26.3380 F   0  0  0  0  0  0  0  0  0  0  0  0
  -22.5190  -13.2210   21.3970 C   0  0  0  0  0  0  0  0  0  0  0  0
  -21.9010  -12.4870   22.3170 N   0  0  0  0  0  0  0  0  0  0  0  0
  -22.0060  -14.2450   20.9490 O   0  0  0  0  0  0  0  0  0  0  0  0
  -22.3300  -11.6570   22.6970 H   0  0  0  0  0  0  0  0  0  0  0  0
  -20.9860  -12.7600   22.6440 H   0  0  0  0  0  0  0  0  0  0  0  0
  -25.0160  -14.9740   20.3600 N   0  0  0  0  0  0  0  0  0  0  0  0
  -24.2570  -15.6100   20.5810 H   0  0  0  0  0  0  0  0  0  0  0  0
  -25.8240  -15.4400   19.9650 H   0  0  0  0  0  0  0  0  0  0  0  0
  -29.5530  -21.0760   18.8340 C   0  0  0  0  0  2  0  0  0  0  0  0
  -29.1200  -22.4910   18.4090 C   0  0  0  0  0  2  0  0  0  0  0  0
  -28.7540  -23.2700   19.5850 N   0  0  0  0  0  0  0  0  0  0  0  0
  -29.5100  -23.2250   20.2640 H   0  0  0  0  0  0  0  0  0  0  0  0
  -28.5440  -24.6650   19.2240 C   0  0  0  0  0  2  0  0  0  0  0  0
  -28.3500  -25.4960   20.5020 C   0  0  0  0  0  2  0  0  0  0  0  0
  -28.4000  -26.8830   20.1930 O   0  0  0  0  0  0  0  0  0  0  0  0
  -24.5940  -31.9570   23.3370 C   0  0  0  0  0  0  0  0  0  0  0  0
  -27.2080  -27.5630   20.2060 C   0  0  0  0  0  0  0  0  0  0  0  0
  -23.3710  -30.5780   21.6840 C   0  0  0  0  0  3  0  0  0  0  0  0
  -24.8100  -29.0480   20.2390 C   0  0  0  0  0  0  0  0  0  0  0  0
  -25.8920  -30.9400   21.4730 C   0  0  0  0  0  2  0  0  0  0  0  0
  -25.9700  -29.5780   20.8170 C   0  0  0  0  0  0  0  0  0  0  0  0
  -27.1760  -28.8470   20.7870 C   0  0  0  0  0  3  0  0  0  0  0  0
  -26.0300  -27.0310   19.6370 C   0  0  0  0  0  3  0  0  0  0  0  0
  -24.8310  -27.7710   19.6490 C   0  0  0  0  0  3  0  0  0  0  0  0
  -23.5670  -29.9080   20.3000 C   0  0  0  0  0  2  0  0  0  0  0  0
  -24.6370  -31.1710   22.2240 N   0  0  0  0  0  0  0  0  0  0  0  0
  -23.5170  -32.2290   23.8840 O   0  0  0  0  0  0  0  0  0  0  0  0
  -22.7200  -29.5500   22.6360 C   0  0  0  0  0  0  0  0  0  0  0  0
  -21.4000  -29.3530   22.4900 N   0  0  0  0  0  0  0  0  0  0  0  0
  -23.4000  -28.9310   23.4590 O   0  0  0  0  0  0  0  0  0  0  0  0
  -20.9120  -29.9050   21.7980 H   0  0  0  0  0  0  0  0  0  0  0  0
  -18.0390  -28.1080   22.9160 C   0  0  0  0  0  0  0  0  0  0  0  0
  -20.5840  -28.4060   23.2450 C   0  0  0  0  0  3  0  0  0  0  0  0
  -20.7210  -26.9740   22.6790 C   0  0  0  0  0  2  0  0  0  0  0  0
  -19.6480  -26.6290   21.6420 C   0  0  0  0  0  2  0  0  0  0  0  0
  -18.2500  -26.7580   22.2540 C   0  0  0  0  0  2  0  0  0  0  0  0
  -19.1360  -28.8910   23.3660 C   0  0  0  0  0  0  0  0  0  0  0  0
  -18.8860  -30.1560   23.9410 C   0  0  0  0  0  3  0  0  0  0  0  0
  -17.5710  -30.6410   24.0720 C   0  0  0  0  0  3  0  0  0  0  0  0
  -16.4870  -29.8560   23.6410 C   0  0  0  0  0  3  0  0  0  0  0  0
  -16.7220  -28.5920   23.0710 C   0  0  0  0  0  3  0  0  0  0  0  0
  -25.8870  -32.5700   23.9590 C   0  0  0  0  0  3  0  0  0  0  0  0
  -26.3960  -31.7960   25.2360 C   0  0  1  0  0  0  0  0  0  0  0  0
  -25.2980  -31.5650   26.3010 C   0  0  0  0  0  1  0  0  0  0  0  0
  -26.9710  -30.4150   24.8450 C   0  0  0  0  0  1  0  0  0  0  0  0
  -27.5480  -32.5840   25.9030 C   0  0  0  0  0  1  0  0  0  0  0  0
  -25.6010  -33.9740   24.2780 N   0  0  0  0  0  0  0  0  0  0  0  0
  -25.9560  -35.0150   23.5130 C   0  0  0  0  0  0  0  0  0  0  0  0
  -26.6330  -34.8940   22.4870 O   0  0  0  0  0  0  0  0  0  0  0  0
  -25.0030  -34.1440   25.0730 H   0  0  0  0  0  0  0  0  0  0  0  0
  -24.2590  -36.8310   23.1290 C   0  0  0  0  0  1  0  0  0  0  0  0
  -25.4860  -36.4130   23.9550 C   0  0  0  0  0  3  0  0  0  0  0  0
  -27.6260  -37.2710   24.8050 C   0  0  0  0  0  1  0  0  0  0  0  0
  -26.5370  -37.4500   23.8470 N   0  0  0  0  0  0  0  0  0  0  0  0
  -26.1420  -38.3750   23.9910 H   0  0  0  0  0  0  0  0  0  0  0  0
  1  5  1  0
  1 50  1  0
  2  1  1  0
  3  1  1  0
  5  4  1  0
  5  6  1  0
  6  7  1  0
  7  8  1  0
  8  9  2  0
  9 10  1  0
 11 10  1  0
 12 20  1  0
 13 18  1  0
 14 15  1  0
 14 13  1  0
 16 15  1  0
 16 25  1  0
 16 17  1  0
 18 12  1  0
 18 17  1  0
 19 12  2  0
 20 21  1  0
 20 11  1  0
 22 23  2  0
 23 42  1  0
 24 23  1  0
 24 27  1  0
 25 26  1  0
 25 22  1  0
 26 24  2  0
 27 28  1  0
 28 29  2  0
 30 33  1  0
 30 29  1  0
 31 30  2  0
 32 31  1  0
 32 27  2  0
 33 34  1  0
 34 39  2  0
 34 35  1  0
 35 36  2  0
 36 37  1  0
 37 41  1  0
 38 37  2  0
 39 38  1  0
 40 39  1  0
 42 43  1  0
 43 46  1  0
 43 45  1  0
 44 42  2  0
 47 22  1  0
 47 48  1  0
 49 47  1  0
 51 50  1  0
 51 52  1  0
 52 53  1  0
 54 52  1  0
 54 55  1  0
 56 58  1  0
 56 55  1  0
 57 68  2  0
 58 63  1  0
 59 67  1  0
 59 69  1  0
 60 66  1  0
 60 62  1  0
 61 67  1  0
 62 61  1  0
 63 62  2  0
 64 65  1  0
 64 58  2  0
 65 60  2  0
 66 59  1  0
 67 57  1  0
 69 71  2  0
 70 69  1  0
 72 70  1  0
 73 82  2  0
 73 78  1  0
 74 70  1  0
 74 78  1  0
 75 74  1  0
 76 77  1  0
 76 75  1  0
 77 73  1  0
 78 79  2  0
 79 80  1  0
 81 80  2  0
 82 81  1  0
 83 57  1  0
 83 88  1  0
 83 84  1  0
 84 87  1  1
 84 85  1  0
 86 84  1  0
 88 91  1  0
 89 93  1  0
 89 88  1  0
 90 89  2  0
 93 92  1  0
 95 93  1  0
 95 96  1  0
 95 94  1  0
M  ISO  4  12 100  20 100  55 101  56 101
M  END
>  <TORSDO>  (67) 
F 27

>  <SCORE>  (67) 
-10.341

>  <name>  (67) 
67

>  <ligand_id>  (67) 
67

>  <original_smiles>  (67) 
[H]C(=NC([H])([H])C([H])([H])N([H])C(=O)N1C([H])([H])C([H])([H])C([H])([H])C([H])(n2nc(-c3c([H])c([H])c(Oc4c([H])c([H])c(F)c([H])c4F)c([H])c3[H])c(C(=O)N([H])[H])c2N([H])[H])C1([H])[H])C([H])([H])C([H])([H])C([H])(C([H])([H])[H])[N+]([H])([H])C([H])([H])C([H])([H])N([H])C([H])([H])C([H])([H])Oc1c([H])c([H])c2c(c1[H])C([H])([H])N(C(=O)C([H])(N([H])C(=O)C([H])(N([H])C([H])([H])[H])C([H])([H])[H])C(C([H])([H])[H])(C([H])([H])[H])C([H])([H])[H])C([H])(C(=O)N([H])C1([H])c3c([H])c([H])c([H])c([H])c3C([H])([H])C([H])([H])C1([H])[H])C2([H])[H]

>  <smiles>  (67) 
[H]C(=NC([H])([H])C([H])([H])N([H])C(=O)N1C([H])([H])C([H])([H])C([H])([H])C([H])(n2nc(-c3c([H])c([H])c(Oc4c([H])c([H])c(F)c([H])c4F)c([H])c3[H])c(C(=O)N([H])[H])c2N([H])[H])C1([H])[H])C([H])([H])C([H])([H])C([H])(C([H])([H])[H])[N+]([H])([H])C([H])([H])C([H])([H])N([H])C([H])([H])C([H])([H])Oc1c([H])c([H])c2c(c1[H])C([H])([H])N(C(=O)C([H])(N([H])C(=O)C([H])(N([H])C([H])([H])[H])C([H])([H])[H])C(C([H])([H])[H])(C([H])([H])[H])C([H])([H])[H])C([H])(C(=O)N([H])C1([H])c3c([H])c([H])c([H])c([H])c3C([H])([H])C([H])([H])C1([H])[H])C2([H])[H]

$$$$
68:0:0
     RDKit          3D

105106  0  0  1  0  0  0  0  0999 V2000
  -29.5050  -16.4700   19.1410 C   0  0  0  0  0  3  0  0  0  0  0  0
  -31.3000  -15.6210   17.9740 C   0  0  0  0  0  3  0  0  0  0  0  0
  -29.1060  -15.1440   19.3790 C   0  0  0  0  0  3  0  0  0  0  0  0
  -30.8110  -14.3120   18.2750 C   0  0  0  0  0  3  0  0  0  0  0  0
  -30.6620  -16.7690   18.4440 C   0  0  0  0  0  0  0  0  0  0  0  0
  -29.6080  -13.7620   19.0260 C   0  0  0  0  0  3  0  0  0  0  0  0
  -31.1430  -18.1870   18.2720 C   0  0  0  0  0  0  0  0  0  0  0  0
  -31.9710  -18.5490   17.4280 O   0  0  0  0  0  0  0  0  0  0  0  0
  -30.5300  -19.2020   19.2610 C   0  0  0  0  0  2  0  0  0  0  0  0
  -31.1890  -20.5340   19.3150 N   0  0  0  0  0  4  0  0  0  0  0  0
  -31.1290  -20.9560   18.4010 H   0  0  0  0  0  0  0  0  0  0  0  0
  -32.1650  -20.4180   19.5380 H   0  0  0  0  0  0  0  0  0  0  0  0
  -30.4980  -21.3760   20.3330 C   0  0  0  0  0  2  0  0  0  0  0  0
  -31.0360  -22.8090   20.5910 C   0  0  0  0  0  2  0  0  0  0  0  0
  -29.9400  -23.6760   21.2800 C   0  0  0  0  0  2  0  0  0  0  0  0
  -30.4050  -24.9530   22.0250 C   0  0  0  0  0  2  0  0  0  0  0  0
  -29.2690  -25.9720   22.2990 C   0  0  0  0  0  2  0  0  0  0  0  0
  -28.7670  -26.3970   21.0400 O   0  0  0  0  0  0  0  0  0  0  0  0
  -24.5670  -31.7230   23.3900 C   0  0  0  0  0  0  0  0  0  0  0  0
  -27.5880  -27.1000   21.0150 C   0  0  0  0  0  0  0  0  0  0  0  0
  -23.5510  -30.1430   21.7760 C   0  0  0  0  0  3  0  0  0  0  0  0
  -25.1680  -28.5090   20.6700 C   0  0  0  0  0  0  0  0  0  0  0  0
  -26.0760  -30.5470   21.7960 C   0  0  0  0  0  2  0  0  0  0  0  0
  -26.2490  -29.1210   21.3190 C   0  0  0  0  0  0  0  0  0  0  0  0
  -27.4620  -28.4170   21.5070 C   0  0  0  0  0  3  0  0  0  0  0  0
  -26.4960  -26.4970   20.3620 C   0  0  0  0  0  3  0  0  0  0  0  0
  -25.2830  -27.1900   20.1940 C   0  0  0  0  0  3  0  0  0  0  0  0
  -23.9130  -29.3360   20.4990 C   0  0  0  0  0  2  0  0  0  0  0  0
  -24.7430  -30.8260   22.3780 N   0  0  0  0  0  0  0  0  0  0  0  0
  -23.4330  -32.0180   23.7930 O   0  0  0  0  0  0  0  0  0  0  0  0
  -22.8210  -29.2040   22.7630 C   0  0  0  0  0  0  0  0  0  0  0  0
  -21.5180  -28.9840   22.5250 N   0  0  0  0  0  0  0  0  0  0  0  0
  -23.4300  -28.6710   23.6940 O   0  0  0  0  0  0  0  0  0  0  0  0
  -21.0910  -29.4650   21.7460 H   0  0  0  0  0  0  0  0  0  0  0  0
  -18.1100  -27.8300   22.8510 C   0  0  0  0  0  0  0  0  0  0  0  0
  -20.6410  -28.1050   23.2970 C   0  0  0  0  0  3  0  0  0  0  0  0
  -20.7800  -26.6370   22.8350 C   0  0  0  0  0  2  0  0  0  0  0  0
  -19.7560  -26.2420   21.7660 C   0  0  0  0  0  2  0  0  0  0  0  0
  -18.3290  -26.4330   22.2890 C   0  0  0  0  0  2  0  0  0  0  0  0
  -19.1970  -28.6200   23.3090 C   0  0  0  0  0  0  0  0  0  0  0  0
  -18.9430  -29.9230   23.7890 C   0  0  0  0  0  3  0  0  0  0  0  0
  -17.6330  -30.4370   23.8160 C   0  0  0  0  0  3  0  0  0  0  0  0
  -16.5590  -29.6440   23.3750 C   0  0  0  0  0  3  0  0  0  0  0  0
  -16.7980  -28.3430   22.8980 C   0  0  0  0  0  3  0  0  0  0  0  0
  -25.7790  -32.4360   24.0700 C   0  0  0  0  0  3  0  0  0  0  0  0
  -25.4010  -33.8400   24.2840 N   0  0  0  0  0  0  0  0  0  0  0  0
  -25.7640  -34.8540   23.4870 C   0  0  0  0  0  0  0  0  0  0  0  0
  -26.5210  -34.7110   22.5230 O   0  0  0  0  0  0  0  0  0  0  0  0
  -24.7370  -34.0210   25.0220 H   0  0  0  0  0  0  0  0  0  0  0  0
  -24.0200  -36.5580   22.8740 C   0  0  0  0  0  1  0  0  0  0  0  0
  -25.1970  -36.2490   23.8130 C   0  0  0  0  0  3  0  0  0  0  0  0
  -27.2180  -37.2620   24.7700 C   0  0  0  0  0  1  0  0  0  0  0  0
  -26.2030  -37.3290   23.7200 N   0  0  0  0  0  0  0  0  0  0  0  0
  -25.7580  -38.2410   23.7670 H   0  0  0  0  0  0  0  0  0  0  0  0
  -26.2190  -31.7600   25.4260 C   0  0  1  0  0  0  0  0  0  0  0  0
  -25.0480  -31.5240   26.4070 C   0  0  0  0  0  1  0  0  0  0  0  0
  -26.8970  -30.3960   25.1600 C   0  0  0  0  0  1  0  0  0  0  0  0
  -27.2690  -32.6450   26.1380 C   0  0  0  0  0  1  0  0  0  0  0  0
  -28.9420  -11.8400   19.5800 N   0  0  0  0  0  2  0  0  0  0  0  0
  -28.0560  -11.9970   20.0540 H   0  0  0  0  0  0  0  0  0  0  0  0
  -29.0090  -10.3200   19.4840 C   0  0  0  0  0  2  0  0  0  0  0  0
  -29.8450   -9.5200   20.5370 C   0  0  0  0  0  2  0  0  0  0  0  0
  -30.1280  -10.2790   21.7680 N   0  0  0  0  0  4  0  0  0  0  0  0
  -29.4570  -10.0750   22.4920 H   0  0  0  0  0  0  0  0  0  0  0  0
  -29.9580  -11.2200   21.4320 H   0  0  0  0  0  0  0  0  0  0  0  0
  -31.5300  -10.2740   22.2750 C   0  0  0  0  0  2  0  0  0  0  0  0
  -31.8660  -11.5430   23.1320 C   0  0  0  0  0  2  0  0  0  0  0  0
  -32.0010  -13.2200   21.2250 C   0  0  0  0  0  0  0  0  0  0  0  0
  -31.4110  -11.9240   18.8940 C   0  0  0  0  0 15  0  0  0  0  0  0
  -29.8130  -12.0570   17.3650 C   0  0  0  0  0 15  0  0  0  0  0  0
  -27.9100  -12.7770   18.0070 C   0  0  0  0  0 15  0  0  0  0  0  0
  -27.6670  -13.2670   20.0480 C   0  0  0  0  0  1  0  0  0  0  0  0
  -29.3110  -12.9610   21.4230 C   0  0  0  0  0 15  0  0  0  0  0  0
  -31.0430  -12.4890   20.7210 N   0  0  0  0  0  1  0  0  0  0  0  0
  -32.6190  -14.0510   20.5670 O   0  0  0  0  0  0  0  0  0  0  0  0
  -32.4450  -12.6840   22.3750 N   0  0  0  0  0  0  0  0  0  0  0  0
  -33.2860  -13.0940   22.7580 H   0  0  0  0  0  0  0  0  0  0  0  0
  -25.5170  -13.7290   20.9570 C   0  0  0  0  0  0  0  0  0  0  0  0
  -24.4880  -12.9110   21.2410 C   0  0  0  0  0  0  0  0  0  0  0  0
  -24.9810  -11.5690   21.1340 C   0  0  0  0  0  0  0  0  0  0  0  0
  -26.5040  -12.8560   20.6220 N   0  0  0  0  0  0  0  0  0  0  0  0
  -26.2640  -11.5520   20.8180 N   0  0  0  0  0  0  0  0  0  0  0  0
  -24.2800  -10.3010   21.2420 C   0  0  0  0  0  0  0  0  0  0  0  0
  -24.6230   -9.3490   22.2230 C   0  0  0  0  0  3  0  0  0  0  0  0
  -23.8870   -8.1530   22.3290 C   0  0  0  0  0  3  0  0  0  0  0  0
  -22.8010   -7.9110   21.4570 C   0  0  0  0  0  0  0  0  0  0  0  0
  -22.4950   -8.8470   20.4550 C   0  0  0  0  0  3  0  0  0  0  0  0
  -23.2320  -10.0330   20.3450 C   0  0  0  0  0  3  0  0  0  0  0  0
  -22.0340   -6.7740   21.4780 O   0  0  0  0  0  0  0  0  0  0  0  0
  -21.7520   -6.1220   22.6490 C   0  0  0  0  0  0  0  0  0  0  0  0
  -21.0620   -6.7550   23.7060 C   0  0  0  0  0  3  0  0  0  0  0  0
  -20.7330   -6.0260   24.8650 C   0  0  0  0  0  3  0  0  0  0  0  0
  -21.0790   -4.6630   24.9650 C   0  0  0  0  0  0  0  0  0  0  0  0
  -21.7580   -4.0300   23.9080 C   0  0  0  0  0  3  0  0  0  0  0  0
  -22.0920   -4.7580   22.7540 C   0  0  0  0  0  0  0  0  0  0  0  0
  -22.7330   -4.1420   21.7310 F   0  0  0  0  0  0  0  0  0  0  0  0
  -20.7490   -3.9600   26.0720 F   0  0  0  0  0  0  0  0  0  0  0  0
  -23.1000  -13.3840   21.4720 C   0  0  0  0  0  0  0  0  0  0  0  0
  -22.3590  -12.6740   22.3080 N   0  0  0  0  0  0  0  0  0  0  0  0
  -22.6920  -14.4200   20.9480 O   0  0  0  0  0  0  0  0  0  0  0  0
  -22.7160  -11.8370   22.7420 H   0  0  0  0  0  0  0  0  0  0  0  0
  -21.4100  -12.9610   22.5120 H   0  0  0  0  0  0  0  0  0  0  0  0
  -25.6780  -15.1180   20.8910 N   0  0  0  0  0  0  0  0  0  0  0  0
  -24.9040  -15.7500   21.0610 H   0  0  0  0  0  0  0  0  0  0  0  0
  -26.5170  -15.5970   20.5900 H   0  0  0  0  0  0  0  0  0  0  0  0
  1  3  1  0
  2  4  2  0
  2  5  1  0
  4  6  1  0
  5  1  2  0
  6  3  2  0
  7  5  1  0
  7  9  1  0
  8  7  2  0
  9 10  1  0
 10 12  1  0
 10 13  1  0
 11 10  1  0
 13 14  1  0
 14 15  1  0
 15 16  1  0
 16 17  1  0
 18 17  1  0
 19 30  2  0
 20 18  1  0
 20 25  1  0
 21 29  1  0
 21 31  1  0
 22 24  1  0
 23 29  1  0
 24 25  2  0
 24 23  1  0
 26 20  2  0
 27 26  1  0
 27 22  2  0
 28 22  1  0
 28 21  1  0
 29 19  1  0
 31 33  2  0
 32 31  1  0
 34 32  1  0
 35 44  2  0
 35 40  1  0
 36 32  1  0
 36 40  1  0
 37 36  1  0
 38 39  1  0
 38 37  1  0
 39 35  1  0
 40 41  2  0
 41 42  1  0
 43 42  2  0
 44 43  1  0
 45 19  1  0
 45 46  1  0
 45 55  1  0
 46 49  1  0
 47 51  1  0
 47 46  1  0
 48 47  2  0
 51 50  1  0
 53 54  1  0
 53 51  1  0
 53 52  1  0
 55 58  1  1
 55 56  1  0
 57 55  1  0
 59 60  1  0
 61 59  1  0
 61 62  1  0
 62 63  1  0
 63 66  1  0
 63 64  1  0
 65 63  1  0
 66 67  1  0
 68 76  1  0
 72 81  1  0
 74 68  1  0
 75 68  2  0
 76 77  1  0
 76 67  1  0
 78 79  2  0
 79 98  1  0
 80 79  1  0
 80 83  1  0
 81 82  1  0
 81 78  1  0
 82 80  2  0
 83 84  1  0
 84 85  2  0
 86 89  1  0
 86 85  1  0
 87 86  2  0
 88 87  1  0
 88 83  2  0
 89 90  1  0
 90 95  2  0
 90 91  1  0
 91 92  2  0
 92 93  1  0
 93 97  1  0
 94 93  2  0
 95 94  1  0
 96 95  1  0
 98 99  1  0
 99102  1  0
 99101  1  0
100 98  2  0
103 78  1  0
103104  1  0
105103  1  0
M  ISO  4  17 101  18 101  68 100  76 100
M  END
>  <TORSDO>  (68) 
F 30

>  <SCORE>  (68) 
-9.344

>  <name>  (68) 
68

>  <ligand_id>  (68) 
68

>  <original_smiles>  (68) 
[H]c1c([H])c([H])c2c(c1[H])C([H])([H])C([H])([H])C([H])([H])C2([H])N([H])C(=O)C1([H])N(C(=O)C([H])(N([H])C(=O)C([H])(N([H])C([H])([H])[H])C([H])([H])[H])C(C([H])([H])[H])(C([H])([H])[H])C([H])([H])[H])C([H])([H])c2c([H])c(OC([H])([H])C([H])([H])C([H])([H])C([H])([H])C([H])([H])[N+]([H])([H])C([H])([H])C(=O)c3c([H])c([H])c(N([H])C([H])([H])C([H])([H])[N+]([H])([H])C([H])([H])C([H])([H])N([H])C(=O)N4C([H])([H])C([H])([H])C([H])([H])C([H])(n5nc(-c6c([H])c([H])c(Oc7c([H])c([H])c(F)c([H])c7F)c([H])c6[H])c(C(=O)N([H])[H])c5N([H])[H])C4([H])[H])c([H])c3[H])c([H])c([H])c2C1([H])[H]

>  <smiles>  (68) 
[H]c1c([H])c([H])c2c(c1[H])C([H])([H])C([H])([H])C([H])([H])C2([H])N([H])C(=O)C1([H])N(C(=O)C([H])(N([H])C(=O)C([H])(N([H])C([H])([H])[H])C([H])([H])[H])C(C([H])([H])[H])(C([H])([H])[H])C([H])([H])[H])C([H])([H])c2c([H])c(OC([H])([H])C([H])([H])C([H])([H])C([H])([H])C([H])([H])[N+]([H])([H])C([H])([H])C(=O)c3c([H])c([H])c(N([H])C([H])([H])C([H])([H])[N+]([H])([H])C([H])([H])C([H])([H])N([H])C(=O)N4C([H])([H])C([H])([H])C([H])([H])C([H])(n5nc(-c6c([H])c([H])c(Oc7c([H])c([H])c(F)c([H])c7F)c([H])c6[H])c(C(=O)N([H])[H])c5N([H])[H])C4([H])[H])c([H])c3[H])c([H])c([H])c2C1([H])[H]

$$$$
69:0:0
     RDKit          3D

104112  0  0  1  0  0  0  0  0999 V2000
  -29.4310  -21.9790   17.3630 C   0  0  0  0  0  3  0  0  0  0  0  0
  -28.2330  -23.6400   18.6770 C   0  0  0  0  0  3  0  0  0  0  0  0
  -28.4450  -21.0210   17.6830 C   0  0  0  0  0  3  0  0  0  0  0  0
  -27.2490  -22.6930   18.9900 C   0  0  0  0  0  3  0  0  0  0  0  0
  -29.3490  -23.2910   17.8810 C   0  0  0  0  0  0  0  0  0  0  0  0
  -27.3690  -21.3670   18.5320 C   0  0  0  0  0  0  0  0  0  0  0  0
  -26.3710  -20.3420   18.9670 C   0  0  0  0  0  0  0  0  0  0  0  0
  -26.0080  -20.4510   20.2510 N   0  0  0  0  0  0  0  0  0  0  0  0
  -25.9870  -19.4460   18.2140 O   0  0  0  0  0  0  0  0  0  0  0  0
  -26.4030  -21.2340   20.7560 H   0  0  0  0  0  0  0  0  0  0  0  0
  -25.0500  -19.6090   20.9590 C   0  0  0  0  0  2  0  0  0  0  0  0
  -25.6230  -18.2140   21.2520 C   0  0  0  0  0  2  0  0  0  0  0  0
  -26.9090  -18.2560   21.9850 N   0  0  0  0  0  4  0  0  0  0  0  0
  -27.5050  -18.9220   21.5190 H   0  0  0  0  0  0  0  0  0  0  0  0
  -26.7450  -18.5840   22.9230 H   0  0  0  0  0  0  0  0  0  0  0  0
  -27.6080  -16.9520   22.0240 C   0  0  0  0  0  2  0  0  0  0  0  0
  -28.9910  -17.0240   22.7080 C   0  0  0  0  0  2  0  0  0  0  0  0
  -29.8410  -15.7470   22.5330 C   0  0  0  0  0  2  0  0  0  0  0  0
  -30.7300  -14.4100   20.6310 C   0  0  0  0  0  0  0  0  0  0  0  0
  -30.4300  -12.2900   19.4180 C   0  0  0  0  0  2  0  0  0  0  0  0
  -29.5030  -12.5020   18.2030 C   0  0  0  0  0  2  0  0  0  0  0  0
  -28.0180  -12.3750   18.6050 C   0  0  0  0  0  2  0  0  0  0  0  0
  -27.6650  -13.1910   19.8770 C   0  0  0  0  0  3  0  0  0  0  0  0
  -28.7010  -12.9310   20.9900 C   0  0  0  0  0  2  0  0  0  0  0  0
  -30.0360  -13.2540   20.4580 N   0  0  0  0  0  0  0  0  0  0  0  0
  -31.8270  -14.6230   20.1150 O   0  0  0  0  0  0  0  0  0  0  0  0
  -30.0450  -15.4530   21.1130 N   0  0  0  0  0  0  0  0  0  0  0  0
  -30.3620  -16.2830   20.6350 H   0  0  0  0  0  0  0  0  0  0  0  0
  -25.2570  -13.7980   20.5530 C   0  0  0  0  0  0  0  0  0  0  0  0
  -24.1850  -13.0340   20.9150 C   0  0  0  0  0  0  0  0  0  0  0  0
  -24.6390  -11.6820   20.8770 C   0  0  0  0  0  0  0  0  0  0  0  0
  -26.3050  -12.9180   20.3360 N   0  0  0  0  0  0  0  0  0  0  0  0
  -25.9330  -11.6360   20.5810 N   0  0  0  0  0  0  0  0  0  0  0  0
  -23.9050  -10.4240   21.0440 C   0  0  0  0  0  0  0  0  0  0  0  0
  -24.3580   -9.4150   21.9210 C   0  0  0  0  0  3  0  0  0  0  0  0
  -23.6250   -8.2190   22.0740 C   0  0  0  0  0  3  0  0  0  0  0  0
  -22.4240   -8.0250   21.3520 C   0  0  0  0  0  0  0  0  0  0  0  0
  -21.9890   -9.0250   20.4630 C   0  0  0  0  0  3  0  0  0  0  0  0
  -22.7230  -10.2130   20.3070 C   0  0  0  0  0  3  0  0  0  0  0  0
  -21.6600   -6.8860   21.4260 O   0  0  0  0  0  0  0  0  0  0  0  0
  -21.6850   -6.0720   22.5300 C   0  0  0  0  0  0  0  0  0  0  0  0
  -21.4000   -6.5600   23.8240 C   0  0  0  0  0  3  0  0  0  0  0  0
  -21.3640   -5.6760   24.9220 C   0  0  0  0  0  3  0  0  0  0  0  0
  -21.6030   -4.3030   24.7260 C   0  0  0  0  0  0  0  0  0  0  0  0
  -21.8800   -3.8130   23.4390 C   0  0  0  0  0  3  0  0  0  0  0  0
  -21.9180   -4.6930   22.3430 C   0  0  0  0  0  0  0  0  0  0  0  0
  -22.1670   -4.2120   21.1010 F   0  0  0  0  0  0  0  0  0  0  0  0
  -21.5630   -3.4510   25.7760 F   0  0  0  0  0  0  0  0  0  0  0  0
  -22.7890  -13.5200   21.1790 C   0  0  0  0  0  0  0  0  0  0  0  0
  -22.0540  -12.8280   22.0380 N   0  0  0  0  0  0  0  0  0  0  0  0
  -22.3610  -14.5530   20.6630 O   0  0  0  0  0  0  0  0  0  0  0  0
  -22.4150  -12.0000   22.4880 H   0  0  0  0  0  0  0  0  0  0  0  0
  -21.1160  -13.1350   22.2540 H   0  0  0  0  0  0  0  0  0  0  0  0
  -25.4180  -15.1610   20.3550 N   0  0  0  0  0  0  0  0  0  0  0  0
  -24.5520  -15.6560   20.1700 H   0  0  0  0  0  0  0  0  0  0  0  0
  -26.1550  -15.4290   19.7160 H   0  0  0  0  0  0  0  0  0  0  0  0
  -30.4840  -24.2620   17.6950 C   0  0  0  0  0  0  0  0  0  0  0  0
  -30.1920  -25.5330   17.9850 N   0  0  0  0  0  0  0  0  0  0  0  0
  -31.6100  -23.8850   17.3660 O   0  0  0  0  0  0  0  0  0  0  0  0
  -29.2140  -25.7270   18.1560 H   0  0  0  0  0  0  0  0  0  0  0  0
  -31.1270  -26.4930   18.5520 C   0  0  0  0  0  2  0  0  0  0  0  0
  -30.9000  -26.5930   20.0740 C   0  0  0  0  0  2  0  0  0  0  0  0
  -29.6500  -27.3960   20.4700 C   0  0  0  0  0  2  0  0  0  0  0  0
  -28.4420  -26.7720   20.0230 O   0  0  0  0  0  0  0  0  0  0  0  0
  -24.6050  -31.8730   23.2140 C   0  0  0  0  0  0  0  0  0  0  0  0
  -27.2760  -27.5040   20.1010 C   0  0  0  0  0  0  0  0  0  0  0  0
  -23.3910  -30.4900   21.5520 C   0  0  0  0  0  3  0  0  0  0  0  0
  -24.8460  -28.9580   20.1220 C   0  0  0  0  0  0  0  0  0  0  0  0
  -25.9070  -30.8590   21.3570 C   0  0  0  0  0  2  0  0  0  0  0  0
  -25.9910  -29.4930   20.7190 C   0  0  0  0  0  0  0  0  0  0  0  0
  -27.1970  -28.7710   20.7230 C   0  0  0  0  0  3  0  0  0  0  0  0
  -26.1080  -26.9670   19.5170 C   0  0  0  0  0  3  0  0  0  0  0  0
  -24.8930  -27.6850   19.5240 C   0  0  0  0  0  3  0  0  0  0  0  0
  -23.6000  -29.8130   20.1680 C   0  0  0  0  0  2  0  0  0  0  0  0
  -24.6510  -31.0880   22.1010 N   0  0  0  0  0  0  0  0  0  0  0  0
  -23.5260  -32.1450   23.7580 O   0  0  0  0  0  0  0  0  0  0  0  0
  -22.7350  -29.4650   22.5030 C   0  0  0  0  0  0  0  0  0  0  0  0
  -21.4100  -29.3010   22.3770 N   0  0  0  0  0  0  0  0  0  0  0  0
  -23.4150  -28.8210   23.3060 O   0  0  0  0  0  0  0  0  0  0  0  0
  -20.9250  -29.8730   21.7000 H   0  0  0  0  0  0  0  0  0  0  0  0
  -18.0250  -28.1370   22.8500 C   0  0  0  0  0  0  0  0  0  0  0  0
  -20.5830  -28.3640   23.1350 C   0  0  0  0  0  3  0  0  0  0  0  0
  -20.6740  -26.9380   22.5430 C   0  0  0  0  0  2  0  0  0  0  0  0
  -19.5730  -26.6380   21.5210 C   0  0  0  0  0  2  0  0  0  0  0  0
  -18.1900  -26.7920   22.1620 C   0  0  0  0  0  2  0  0  0  0  0  0
  -19.1510  -28.8820   23.2920 C   0  0  0  0  0  0  0  0  0  0  0  0
  -18.9440  -30.1430   23.8920 C   0  0  0  0  0  3  0  0  0  0  0  0
  -17.6450  -30.6590   24.0560 C   0  0  0  0  0  3  0  0  0  0  0  0
  -16.5330  -29.9090   23.6320 C   0  0  0  0  0  3  0  0  0  0  0  0
  -16.7250  -28.6510   23.0350 C   0  0  0  0  0  3  0  0  0  0  0  0
  -25.8970  -32.4850   23.8430 C   0  0  0  0  0  3  0  0  0  0  0  0
  -25.5850  -33.8650   24.2350 N   0  0  0  0  0  0  0  0  0  0  0  0
  -25.9020  -34.9490   23.5150 C   0  0  0  0  0  0  0  0  0  0  0  0
  -26.5590  -34.8930   22.4710 O   0  0  0  0  0  0  0  0  0  0  0  0
  -25.0020  -33.9840   25.0500 H   0  0  0  0  0  0  0  0  0  0  0  0
  -24.1490  -36.7330   23.2640 C   0  0  0  0  0  1  0  0  0  0  0  0
  -25.4110  -36.3130   24.0340 C   0  0  0  0  0  3  0  0  0  0  0  0
  -27.5590  -37.1820   24.8460 C   0  0  0  0  0  1  0  0  0  0  0  0
  -26.4300  -37.3800   23.9410 N   0  0  0  0  0  0  0  0  0  0  0  0
  -26.0200  -38.2890   24.1410 H   0  0  0  0  0  0  0  0  0  0  0  0
  -26.4440  -31.6620   25.0720 C   0  0  1  0  0  0  0  0  0  0  0  0
  -25.3730  -31.3690   26.1480 C   0  0  0  0  0  1  0  0  0  0  0  0
  -27.0270  -30.3070   24.6030 C   0  0  0  0  0  1  0  0  0  0  0  0
  -27.6030  -32.4320   25.7470 C   0  0  0  0  0  1  0  0  0  0  0  0
  1  3  2  0
  1  5  1  0
  2  4  1  0
  3  6  1  0
  5  2  2  0
  6  7  1  0
  6  4  2  0
  7  8  1  0
  8 10  1  0
  8 11  1  0
  9  7  2  0
 11 12  1  0
 12 13  1  0
 13 16  1  0
 13 15  1  0
 14 13  1  0
 16 17  1  0
 18 17  1  0
 19 27  1  0
 20 25  1  0
 21 22  1  0
 21 20  1  0
 23 22  1  0
 23 32  1  0
 23 24  1  0
 25 19  1  0
 25 24  1  0
 26 19  2  0
 27 18  1  0
 28 27  1  0
 29 30  2  0
 30 49  1  0
 31 30  1  0
 31 34  1  0
 32 29  1  0
 32 33  1  0
 33 31  2  0
 34 35  1  0
 35 36  2  0
 37 40  1  0
 37 36  1  0
 38 37  2  0
 39 38  1  0
 39 34  2  0
 40 41  1  0
 41 42  1  0
 42 43  2  0
 44 43  1  0
 44 48  1  0
 45 44  2  0
 46 41  2  0
 46 45  1  0
 47 46  1  0
 49 50  1  0
 50 53  1  0
 50 52  1  0
 51 49  2  0
 54 29  1  0
 55 54  1  0
 56 54  1  0
 57  5  1  0
 57 58  1  0
 58 60  1  0
 58 61  1  0
 59 57  2  0
 61 62  1  0
 62 63  1  0
 64 66  1  0
 64 63  1  0
 65 76  2  0
 66 71  1  0
 67 75  1  0
 67 77  1  0
 68 74  1  0
 68 70  1  0
 69 75  1  0
 70 71  2  0
 70 69  1  0
 72 73  1  0
 72 66  2  0
 73 68  2  0
 74 67  1  0
 75 65  1  0
 77 79  2  0
 78 77  1  0
 80 78  1  0
 81 90  2  0
 81 86  1  0
 82 78  1  0
 82 86  1  0
 83 82  1  0
 84 85  1  0
 84 83  1  0
 85 81  1  0
 86 87  2  0
 87 88  1  0
 89 88  2  0
 90 89  1  0
 91 65  1  0
 91 92  1  0
 91101  1  0
 92 95  1  0
 93 97  1  0
 93 92  1  0
 94 93  2  0
 97 96  1  0
 99 97  1  0
 99100  1  0
 99 98  1  0
101104  1  1
101102  1  0
103101  1  0
M  ISO  4  19 100  27 100  63 101  64 101
M  END
>  <TORSDO>  (69) 
F 27

>  <SCORE>  (69) 
8.109

>  <name>  (69) 
69

>  <ligand_id>  (69) 
69

>  <original_smiles>  (69) 
[H]c1c([H])c([H])c2c(c1[H])C([H])([H])C([H])([H])C([H])([H])C2([H])N([H])C(=O)C1([H])N(C(=O)C([H])(N([H])C(=O)C([H])(N([H])C([H])([H])[H])C([H])([H])[H])C(C([H])([H])[H])(C([H])([H])[H])C([H])([H])[H])C([H])([H])c2c([H])c(OC([H])([H])C([H])([H])C([H])([H])N([H])C(=O)c3c([H])c([H])c(C(=O)N([H])C([H])([H])C([H])([H])[N+]([H])([H])C([H])([H])C([H])([H])C([H])([H])N([H])C(=O)N4C([H])([H])C([H])([H])C([H])([H])C([H])(n5nc(-c6c([H])c([H])c(Oc7c([H])c([H])c(F)c([H])c7F)c([H])c6[H])c(C(=O)N([H])[H])c5N([H])[H])C4([H])[H])c([H])c3[H])c([H])c([H])c2C1([H])[H]

>  <smiles>  (69) 
[H]c1c([H])c([H])c2c(c1[H])C([H])([H])C([H])([H])C([H])([H])C2([H])N([H])C(=O)C1([H])N(C(=O)C([H])(N([H])C(=O)C([H])(N([H])C([H])([H])[H])C([H])([H])[H])C(C([H])([H])[H])(C([H])([H])[H])C([H])([H])[H])C([H])([H])c2c([H])c(OC([H])([H])C([H])([H])C([H])([H])N([H])C(=O)c3c([H])c([H])c(C(=O)N([H])C([H])([H])C([H])([H])[N+]([H])([H])C([H])([H])C([H])([H])C([H])([H])N([H])C(=O)N4C([H])([H])C([H])([H])C([H])([H])C([H])(n5nc(-c6c([H])c([H])c(Oc7c([H])c([H])c(F)c([H])c7F)c([H])c6[H])c(C(=O)N([H])[H])c5N([H])[H])C4([H])[H])c([H])c3[H])c([H])c([H])c2C1([H])[H]

$$$$
71:0:0
     RDKit          3D

 99107  0  0  1  0  0  0  0  0999 V2000
  -25.7330  -20.2060   19.5330 C   0  0  0  0  0  2  0  0  0  0  0  0
  -28.0890  -17.4050   18.4710 C   0  0  0  0  0  3  0  0  0  0  0  0
  -26.9810  -18.2570   18.6180 C   0  0  0  0  0  3  0  0  0  0  0  0
  -29.4140  -18.9170   19.8340 C   0  0  0  0  0  3  0  0  0  0  0  0
  -29.3110  -17.7160   19.0960 C   0  0  0  0  0  0  0  0  0  0  0  0
  -27.0520  -19.4340   19.3960 C   0  0  0  0  0  0  0  0  0  0  0  0
  -28.2990  -19.7650   20.0000 C   0  0  0  0  0  0  0  0  0  0  0  0
  -28.4730  -20.8770   20.7670 O   0  0  0  0  0  0  0  0  0  0  0  0
  -27.6670  -21.3660   20.8750 H   0  0  0  0  0  0  0  0  0  0  0  0
  -30.4770  -16.7360   18.9880 C   0  0  0  0  0  3  0  0  0  0  0  0
  -31.4270  -14.9770   20.4070 C   0  0  0  0  0  0  0  0  0  0  0  0
  -31.1050  -12.6930   19.5900 C   0  0  0  0  0  2  0  0  0  0  0  0
  -30.2510  -12.7460   18.3080 C   0  0  0  0  0  2  0  0  0  0  0  0
  -28.7470  -12.7100   18.6530 C   0  0  0  0  0  2  0  0  0  0  0  0
  -28.3470  -13.7010   19.7790 C   0  0  0  0  0  3  0  0  0  0  0  0
  -29.3440  -13.6690   20.9570 C   0  0  0  0  0  2  0  0  0  0  0  0
  -30.6980  -13.8330   20.4150 N   0  0  0  0  0  0  0  0  0  0  0  0
  -32.6390  -15.0070   20.2040 O   0  0  0  0  0  0  0  0  0  0  0  0
  -30.7290  -16.1130   20.2980 N   0  0  0  0  0  0  0  0  0  0  0  0
  -31.0970  -16.8200   20.9190 H   0  0  0  0  0  0  0  0  0  0  0  0
  -25.9770  -14.4110   20.4660 C   0  0  0  0  0  0  0  0  0  0  0  0
  -24.8500  -13.6920   20.7650 C   0  0  0  0  0  0  0  0  0  0  0  0
  -25.2300  -12.3160   20.6930 C   0  0  0  0  0  0  0  0  0  0  0  0
  -26.9710  -13.4790   20.2240 N   0  0  0  0  0  0  0  0  0  0  0  0
  -26.5260  -12.2110   20.4230 N   0  0  0  0  0  0  0  0  0  0  0  0
  -24.4220  -11.0960   20.8140 C   0  0  0  0  0  0  0  0  0  0  0  0
  -24.7280  -10.1000   21.7670 C   0  0  0  0  0  3  0  0  0  0  0  0
  -23.9280   -8.9410   21.8760 C   0  0  0  0  0  3  0  0  0  0  0  0
  -22.8040   -8.7740   21.0330 C   0  0  0  0  0  0  0  0  0  0  0  0
  -22.5140   -9.7590   20.0740 C   0  0  0  0  0  3  0  0  0  0  0  0
  -23.3150  -10.9100   19.9620 C   0  0  0  0  0  3  0  0  0  0  0  0
  -21.9880   -7.6670   21.0530 O   0  0  0  0  0  0  0  0  0  0  0  0
  -21.7310   -6.9800   22.2140 C   0  0  0  0  0  0  0  0  0  0  0  0
  -21.1310   -7.6010   23.3320 C   0  0  0  0  0  3  0  0  0  0  0  0
  -20.8230   -6.8410   24.4780 C   0  0  0  0  0  3  0  0  0  0  0  0
  -21.1030   -5.4630   24.5060 C   0  0  0  0  0  0  0  0  0  0  0  0
  -21.6910   -4.8410   23.3920 C   0  0  0  0  0  3  0  0  0  0  0  0
  -22.0010   -5.5970   22.2490 C   0  0  0  0  0  0  0  0  0  0  0  0
  -22.5510   -4.9880   21.1700 F   0  0  0  0  0  0  0  0  0  0  0  0
  -20.7980   -4.7320   25.6030 F   0  0  0  0  0  0  0  0  0  0  0  0
  -23.4770  -14.2480   21.0150 C   0  0  0  0  0  0  0  0  0  0  0  0
  -22.6850  -13.5880   21.8560 N   0  0  0  0  0  0  0  0  0  0  0  0
  -23.1140  -15.3030   20.4960 O   0  0  0  0  0  0  0  0  0  0  0  0
  -22.9850  -12.7290   22.2950 H   0  0  0  0  0  0  0  0  0  0  0  0
  -21.7570  -13.9380   22.0510 H   0  0  0  0  0  0  0  0  0  0  0  0
  -26.2410  -15.7730   20.3660 N   0  0  0  0  0  0  0  0  0  0  0  0
  -25.5570  -16.4790   20.6060 H   0  0  0  0  0  0  0  0  0  0  0  0
  -27.1720  -16.1570   20.2580 H   0  0  0  0  0  0  0  0  0  0  0  0
  -31.8060  -18.4090   17.5460 C   0  0  0  0  0  2  0  0  0  0  0  0
  -31.7390  -17.3300   18.3470 C   0  0  0  0  0  3  0  0  0  0  0  0
  -25.6740  -21.5390   20.3080 C   0  0  0  0  0  2  0  0  0  0  0  0
  -26.1610  -22.7670   19.5130 C   0  0  0  0  0  2  0  0  0  0  0  0
  -26.1500  -24.0670   20.3470 C   0  0  0  0  0  2  0  0  0  0  0  0
  -26.3030  -25.2760   19.4990 N   0  0  0  0  0  4  0  0  0  0  0  0
  -26.0320  -26.0710   20.0580 H   0  0  0  0  0  0  0  0  0  0  0  0
  -25.6380  -25.2180   18.7430 H   0  0  0  0  0  0  0  0  0  0  0  0
  -27.6690  -25.5340   18.9670 C   0  0  0  0  0  2  0  0  0  0  0  0
  -27.6790  -26.1850   17.5600 C   0  0  0  0  0  2  0  0  0  0  0  0
  -27.5980  -27.6150   17.5840 O   0  0  0  0  0  0  0  0  0  0  0  0
  -24.2540  -31.1430   22.7390 C   0  0  0  0  0  0  0  0  0  0  0  0
  -26.4130  -28.1970   17.9720 C   0  0  0  0  0  0  0  0  0  0  0  0
  -22.8100  -30.2580   20.9400 C   0  0  0  0  0  3  0  0  0  0  0  0
  -24.0200  -29.3930   18.8690 C   0  0  0  0  0  0  0  0  0  0  0  0
  -25.2400  -30.8800   20.4650 C   0  0  0  0  0  2  0  0  0  0  0  0
  -25.2480  -29.8000   19.4050 C   0  0  0  0  0  0  0  0  0  0  0  0
  -26.4460  -29.2110   18.9560 C   0  0  0  0  0  3  0  0  0  0  0  0
  -25.1700  -27.8150   17.4190 C   0  0  0  0  0  3  0  0  0  0  0  0
  -23.9740  -28.4010   17.8740 C   0  0  0  0  0  3  0  0  0  0  0  0
  -22.7810  -30.0800   19.3980 C   0  0  0  0  0  2  0  0  0  0  0  0
  -24.1310  -30.7580   21.4380 N   0  0  0  0  0  0  0  0  0  0  0  0
  -23.2770  -31.1320   23.5040 O   0  0  0  0  0  0  0  0  0  0  0  0
  -22.3690  -28.9300   21.5960 C   0  0  0  0  0  0  0  0  0  0  0  0
  -21.0540  -28.6660   21.5750 N   0  0  0  0  0  0  0  0  0  0  0  0
  -23.2030  -28.1550   22.0770 O   0  0  0  0  0  0  0  0  0  0  0  0
  -20.4400  -29.3630   21.1740 H   0  0  0  0  0  0  0  0  0  0  0  0
  -17.8910  -26.9360   21.9010 C   0  0  0  0  0  0  0  0  0  0  0  0
  -20.4170  -27.4470   22.0690 C   0  0  0  0  0  3  0  0  0  0  0  0
  -20.6290  -26.2730   21.0860 C   0  0  0  0  0  2  0  0  0  0  0  0
  -19.4630  -26.0330   20.1260 C   0  0  0  0  0  2  0  0  0  0  0  0
  -18.1470  -25.8400   20.8820 C   0  0  0  0  0  2  0  0  0  0  0  0
  -18.9550  -27.6910   22.4530 C   0  0  0  0  0  0  0  0  0  0  0  0
  -18.6580  -28.7070   23.3880 C   0  0  0  0  0  3  0  0  0  0  0  0
  -17.3320  -28.9700   23.7730 C   0  0  0  0  0  3  0  0  0  0  0  0
  -16.2820  -28.2120   23.2260 C   0  0  0  0  0  3  0  0  0  0  0  0
  -16.5630  -27.1940   22.3000 C   0  0  0  0  0  3  0  0  0  0  0  0
  -25.6140  -31.6480   23.3200 C   0  0  0  0  0  3  0  0  0  0  0  0
  -26.2470  -30.6530   24.3670 C   0  0  1  0  0  0  0  0  0  0  0  0
  -25.2770  -30.2420   25.4980 C   0  0  0  0  0  1  0  0  0  0  0  0
  -26.7390  -29.3640   23.6670 C   0  0  0  0  0  1  0  0  0  0  0  0
  -27.4890  -31.3030   25.0220 C   0  0  0  0  0  1  0  0  0  0  0  0
  -25.3750  -32.9620   23.9300 N   0  0  0  0  0  0  0  0  0  0  0  0
  -25.7320  -34.1310   23.3780 C   0  0  0  0  0  0  0  0  0  0  0  0
  -26.3690  -34.2070   22.3260 O   0  0  0  0  0  0  0  0  0  0  0  0
  -24.8090  -32.9790   24.7630 H   0  0  0  0  0  0  0  0  0  0  0  0
  -24.1240  -36.0640   23.3880 C   0  0  0  0  0  1  0  0  0  0  0  0
  -25.3150  -35.4180   24.1130 C   0  0  0  0  0  3  0  0  0  0  0  0
  -27.4700  -35.9710   25.1510 C   0  0  0  0  0  1  0  0  0  0  0  0
  -26.4120  -36.4020   24.2410 N   0  0  0  0  0  0  0  0  0  0  0  0
  -26.0560  -37.2950   24.5700 H   0  0  0  0  0  0  0  0  0  0  0  0
  1 51  1  0
  2  3  2  0
  2  5  1  0
  3  6  1  0
  4  7  1  0
  5  4  2  0
  6  1  1  0
  6  7  2  0
  7  8  1  0
  8  9  1  0
 10 50  1  0
 10  5  1  0
 10 19  1  0
 11 17  1  0
 12 17  1  0
 13 14  1  0
 13 12  1  0
 15 14  1  0
 15 24  1  0
 15 16  1  0
 17 16  1  0
 18 11  2  0
 19 11  1  0
 19 20  1  0
 21 22  2  0
 22 41  1  0
 23 22  1  0
 23 26  1  0
 24 25  1  0
 24 21  1  0
 25 23  2  0
 26 27  1  0
 27 28  2  0
 29 32  1  0
 29 28  1  0
 30 29  2  0
 31 30  1  0
 31 26  2  0
 32 33  1  0
 33 38  2  0
 33 34  1  0
 34 35  2  0
 35 36  1  0
 36 40  1  0
 37 36  2  0
 38 37  1  0
 39 38  1  0
 41 42  1  0
 42 45  1  0
 42 44  1  0
 43 41  2  0
 46 21  1  0
 46 47  1  0
 48 46  1  0
 49 50  2  0
 52 51  1  0
 52 53  1  0
 54 55  1  0
 54 53  1  0
 56 54  1  0
 57 54  1  0
 58 59  1  0
 58 57  1  0
 59 61  1  0
 60 71  2  0
 61 66  1  0
 62 70  1  0
 62 72  1  0
 63 69  1  0
 63 65  1  0
 64 70  1  0
 65 64  1  0
 66 65  2  0
 67 68  1  0
 67 61  2  0
 68 63  2  0
 69 62  1  0
 70 60  1  0
 72 74  2  0
 73 72  1  0
 75 73  1  0
 76 85  2  0
 76 81  1  0
 77 73  1  0
 77 81  1  0
 78 77  1  0
 79 80  1  0
 79 78  1  0
 80 76  1  0
 81 82  2  0
 82 83  1  0
 84 83  2  0
 85 84  1  0
 86 60  1  0
 86 91  1  0
 86 87  1  0
 87 90  1  1
 87 88  1  0
 89 87  1  0
 91 94  1  0
 92 91  1  0
 92 96  1  0
 93 92  2  0
 96 95  1  0
 96 98  1  0
 98 99  1  0
 98 97  1  0
M  ISO  4  11 100  19 100  58 101  59 101
M  END
>  <TORSDO>  (70) 
F 26

>  <SCORE>  (70) 
-5.753

>  <name>  (70) 
71

>  <ligand_id>  (70) 
71

>  <original_smiles>  (70) 
[H]Oc1c([H])c(C([H])(C([H])=C([H])[H])N([H])C(=O)N2C([H])([H])C([H])([H])C([H])([H])C([H])(n3nc(-c4c([H])c([H])c(Oc5c([H])c([H])c(F)c([H])c5F)c([H])c4[H])c(C(=O)N([H])[H])c3N([H])[H])C2([H])[H])c([H])c([H])c1C([H])([H])C([H])([H])C([H])([H])C([H])([H])[N+]([H])([H])C([H])([H])C([H])([H])Oc1c([H])c([H])c2c(c1[H])C([H])([H])N(C(=O)C([H])(N([H])C(=O)C([H])(N([H])C([H])([H])[H])C([H])([H])[H])C(C([H])([H])[H])(C([H])([H])[H])C([H])([H])[H])C([H])(C(=O)N([H])C1([H])c3c([H])c([H])c([H])c([H])c3C([H])([H])C([H])([H])C1([H])[H])C2([H])[H]

>  <smiles>  (70) 
[H]Oc1c([H])c(C([H])(C([H])=C([H])[H])N([H])C(=O)N2C([H])([H])C([H])([H])C([H])([H])C([H])(n3nc(-c4c([H])c([H])c(Oc5c([H])c([H])c(F)c([H])c5F)c([H])c4[H])c(C(=O)N([H])[H])c3N([H])[H])C2([H])[H])c([H])c([H])c1C([H])([H])C([H])([H])C([H])([H])C([H])([H])[N+]([H])([H])C([H])([H])C([H])([H])Oc1c([H])c([H])c2c(c1[H])C([H])([H])N(C(=O)C([H])(N([H])C(=O)C([H])(N([H])C([H])([H])[H])C([H])([H])[H])C(C([H])([H])[H])(C([H])([H])[H])C([H])([H])[H])C([H])(C(=O)N([H])C1([H])c3c([H])c([H])c([H])c([H])c3C([H])([H])C([H])([H])C1([H])[H])C2([H])[H]

$$$$
72:0:0
     RDKit          3D

 98106  0  0  1  0  0  0  0  0999 V2000
  -29.9960  -19.5050   20.4130 C   0  0  0  0  0  3  0  0  0  0  0  0
  -30.0230  -20.8050   19.8840 C   0  0  0  0  0  3  0  0  0  0  0  0
  -32.4220  -19.5340   20.6220 C   0  0  0  0  0  3  0  0  0  0  0  0
  -31.1970  -18.8470   20.7680 C   0  0  0  0  0  0  0  0  0  0  0  0
  -31.2490  -21.4770   19.7120 C   0  0  0  0  0  0  0  0  0  0  0  0
  -32.4540  -20.8390   20.0900 C   0  0  0  0  0  0  0  0  0  0  0  0
  -33.6770  -21.4920   19.9600 N   0  0  0  0  0  0  0  0  0  0  0  0
  -34.5230  -20.9340   20.0000 H   0  0  0  0  0  0  0  0  0  0  0  0
  -33.7470  -22.2460   19.2840 H   0  0  0  0  0  0  0  0  0  0  0  0
  -31.1750  -17.4570   21.3050 C   0  0  0  0  0  0  0  0  0  0  0  0
  -32.1110  -16.9510   21.9360 O   0  0  0  0  0  0  0  0  0  0  0  0
  -29.8970  -16.6530   21.0220 C   0  0  0  0  0  2  0  0  0  0  0  0
  -30.5850  -14.4030   20.2760 C   0  0  0  0  0  0  0  0  0  0  0  0
  -30.1960  -12.3840   18.9190 C   0  0  0  0  0  2  0  0  0  0  0  0
  -29.1950  -12.7270   17.7970 C   0  0  0  0  0  2  0  0  0  0  0  0
  -27.7400  -12.5860   18.2870 C   0  0  0  0  0  2  0  0  0  0  0  0
  -27.4920  -13.2960   19.6460 C   0  0  0  0  0  3  0  0  0  0  0  0
  -28.5920  -12.9130   20.6620 C   0  0  0  0  0  2  0  0  0  0  0  0
  -29.9070  -13.2440   20.0740 N   0  0  0  0  0  0  0  0  0  0  0  0
  -31.5690  -14.7450   19.6130 O   0  0  0  0  0  0  0  0  0  0  0  0
  -30.0190  -15.2060   21.1800 N   0  0  0  0  0  0  0  0  0  0  0  0
  -29.3100  -14.7780   21.7530 H   0  0  0  0  0  0  0  0  0  0  0  0
  -25.1040  -13.8800   20.4250 C   0  0  0  0  0  0  0  0  0  0  0  0
  -24.0560  -13.0950   20.8250 C   0  0  0  0  0  0  0  0  0  0  0  0
  -24.5310  -11.7480   20.7730 C   0  0  0  0  0  0  0  0  0  0  0  0
  -26.1540  -13.0120   20.1610 N   0  0  0  0  0  0  0  0  0  0  0  0
  -25.8090  -11.7240   20.4190 N   0  0  0  0  0  0  0  0  0  0  0  0
  -23.8260  -10.4770   20.9850 C   0  0  0  0  0  0  0  0  0  0  0  0
  -24.3010   -9.5140   21.9030 C   0  0  0  0  0  3  0  0  0  0  0  0
  -23.5970   -8.3080   22.1030 C   0  0  0  0  0  3  0  0  0  0  0  0
  -22.4050   -8.0530   21.3850 C   0  0  0  0  0  0  0  0  0  0  0  0
  -21.9480   -9.0050   20.4570 C   0  0  0  0  0  3  0  0  0  0  0  0
  -22.6530  -10.2040   20.2560 C   0  0  0  0  0  3  0  0  0  0  0  0
  -21.6690   -6.9000   21.4960 O   0  0  0  0  0  0  0  0  0  0  0  0
  -21.6680   -6.1530   22.6460 C   0  0  0  0  0  0  0  0  0  0  0  0
  -21.2820   -6.7000   23.8900 C   0  0  0  0  0  3  0  0  0  0  0  0
  -21.2310   -5.8800   25.0340 C   0  0  0  0  0  3  0  0  0  0  0  0
  -21.5510   -4.5120   24.9360 C   0  0  0  0  0  0  0  0  0  0  0  0
  -21.9310   -3.9650   23.6980 C   0  0  0  0  0  3  0  0  0  0  0  0
  -21.9850   -4.7830   22.5550 C   0  0  0  0  0  0  0  0  0  0  0  0
  -22.3300   -4.2450   21.3600 F   0  0  0  0  0  0  0  0  0  0  0  0
  -21.4940   -3.7210   26.0330 F   0  0  0  0  0  0  0  0  0  0  0  0
  -22.6640  -13.5560   21.1520 C   0  0  0  0  0  0  0  0  0  0  0  0
  -21.9780  -12.8430   22.0410 N   0  0  0  0  0  0  0  0  0  0  0  0
  -22.1950  -14.5790   20.6590 O   0  0  0  0  0  0  0  0  0  0  0  0
  -22.3730  -12.0150   22.4620 H   0  0  0  0  0  0  0  0  0  0  0  0
  -21.0460  -13.1310   22.3030 H   0  0  0  0  0  0  0  0  0  0  0  0
  -25.2480  -15.2540   20.2470 N   0  0  0  0  0  0  0  0  0  0  0  0
  -24.4830  -15.9040   20.3870 H   0  0  0  0  0  0  0  0  0  0  0  0
  -26.0910  -15.6980   19.9090 H   0  0  0  0  0  0  0  0  0  0  0  0
  -31.2110  -22.9060   19.2000 C   0  0  0  0  0  2  0  0  0  0  0  0
  -30.9440  -23.8580   20.3680 C   0  0  0  0  0  2  0  0  0  0  0  0
  -30.8350  -25.2650   19.9480 N   0  0  0  0  0  4  0  0  0  0  0  0
  -30.0780  -25.3390   19.2830 H   0  0  0  0  0  0  0  0  0  0  0  0
  -31.6850  -25.5570   19.4880 H   0  0  0  0  0  0  0  0  0  0  0  0
  -30.5470  -26.1740   21.0760 C   0  0  0  0  0  2  0  0  0  0  0  0
  -29.6200  -27.3140   20.6640 C   0  0  0  0  0  2  0  0  0  0  0  0
  -28.3720  -26.7360   20.2630 O   0  0  0  0  0  0  0  0  0  0  0  0
  -24.5530  -31.9700   23.2670 C   0  0  0  0  0  0  0  0  0  0  0  0
  -27.2300  -27.5090   20.2910 C   0  0  0  0  0  0  0  0  0  0  0  0
  -23.3450  -30.5410   21.6430 C   0  0  0  0  0  3  0  0  0  0  0  0
  -24.8030  -28.9670   20.2640 C   0  0  0  0  0  0  0  0  0  0  0  0
  -25.8620  -30.9080   21.4400 C   0  0  0  0  0  2  0  0  0  0  0  0
  -25.9510  -29.5250   20.8360 C   0  0  0  0  0  0  0  0  0  0  0  0
  -27.1600  -28.8120   20.8420 C   0  0  0  0  0  3  0  0  0  0  0  0
  -26.0590  -26.9500   19.7370 C   0  0  0  0  0  3  0  0  0  0  0  0
  -24.8480  -27.6740   19.7130 C   0  0  0  0  0  3  0  0  0  0  0  0
  -23.5580  -29.8250   20.2810 C   0  0  0  0  0  2  0  0  0  0  0  0
  -24.6050  -31.1540   22.1770 N   0  0  0  0  0  0  0  0  0  0  0  0
  -23.4720  -32.2560   23.8000 O   0  0  0  0  0  0  0  0  0  0  0  0
  -22.6880  -29.5420   22.6200 C   0  0  0  0  0  0  0  0  0  0  0  0
  -21.3660  -29.3600   22.4840 N   0  0  0  0  0  0  0  0  0  0  0  0
  -23.3650  -28.9310   23.4520 O   0  0  0  0  0  0  0  0  0  0  0  0
  -20.8840  -29.9010   21.7810 H   0  0  0  0  0  0  0  0  0  0  0  0
  -17.9840  -28.1940   22.9650 C   0  0  0  0  0  0  0  0  0  0  0  0
  -20.5380  -28.4430   23.2650 C   0  0  0  0  0  3  0  0  0  0  0  0
  -20.6420  -26.9980   22.7210 C   0  0  0  0  0  2  0  0  0  0  0  0
  -19.5520  -26.6590   21.7000 C   0  0  0  0  0  2  0  0  0  0  0  0
  -18.1620  -26.8280   22.3220 C   0  0  0  0  0  2  0  0  0  0  0  0
  -19.1000  -28.9580   23.3930 C   0  0  0  0  0  0  0  0  0  0  0  0
  -18.8830  -30.2380   23.9490 C   0  0  0  0  0  3  0  0  0  0  0  0
  -17.5800  -30.7510   24.0830 C   0  0  0  0  0  3  0  0  0  0  0  0
  -16.4760  -29.9820   23.6750 C   0  0  0  0  0  3  0  0  0  0  0  0
  -16.6790  -28.7060   23.1200 C   0  0  0  0  0  3  0  0  0  0  0  0
  -25.8410  -32.6040   23.8790 C   0  0  0  0  0  3  0  0  0  0  0  0
  -25.5380  -34.0030   24.2020 N   0  0  0  0  0  0  0  0  0  0  0  0
  -25.8740  -35.0490   23.4360 C   0  0  0  0  0  0  0  0  0  0  0  0
  -26.5450  -34.9370   22.4050 O   0  0  0  0  0  0  0  0  0  0  0  0
  -24.9470  -34.1640   25.0050 H   0  0  0  0  0  0  0  0  0  0  0  0
  -24.1480  -36.8360   23.0620 C   0  0  0  0  0  1  0  0  0  0  0  0
  -25.3860  -36.4400   23.8810 C   0  0  0  0  0  3  0  0  0  0  0  0
  -27.5190  -37.3280   24.7130 C   0  0  0  0  0  1  0  0  0  0  0  0
  -26.4200  -37.4920   23.7640 N   0  0  0  0  0  0  0  0  0  0  0  0
  -26.0150  -38.4130   23.9050 H   0  0  0  0  0  0  0  0  0  0  0  0
  -26.3660  -31.8350   25.1540 C   0  0  1  0  0  0  0  0  0  0  0  0
  -25.2800  -31.5940   26.2260 C   0  0  0  0  0  1  0  0  0  0  0  0
  -26.9520  -30.4610   24.7540 C   0  0  0  0  0  1  0  0  0  0  0  0
  -27.5150  -32.6350   25.8140 C   0  0  0  0  0  1  0  0  0  0  0  0
  1  4  1  0
  2  1  2  0
  3  4  2  0
  4 10  1  0
  5  2  1  0
  5  6  2  0
  6  3  1  0
  7  8  1  0
  7  6  1  0
  9  7  1  0
 10 11  2  0
 12 21  1  0
 12 10  1  0
 13 21  1  0
 14 19  1  0
 15 16  1  0
 15 14  1  0
 17 16  1  0
 17 26  1  0
 17 18  1  0
 19 13  1  0
 19 18  1  0
 20 13  2  0
 21 22  1  0
 23 24  2  0
 24 43  1  0
 25 24  1  0
 25 28  1  0
 26 27  1  0
 26 23  1  0
 27 25  2  0
 28 29  1  0
 29 30  2  0
 31 34  1  0
 31 30  1  0
 32 31  2  0
 33 32  1  0
 33 28  2  0
 34 35  1  0
 35 36  1  0
 36 37  2  0
 38 37  1  0
 38 42  1  0
 39 38  2  0
 40 35  2  0
 40 39  1  0
 41 40  1  0
 43 44  1  0
 44 47  1  0
 44 46  1  0
 45 43  2  0
 48 49  1  0
 48 23  1  0
 50 48  1  0
 51  5  1  0
 51 52  1  0
 53 52  1  0
 53 56  1  0
 54 53  1  0
 55 53  1  0
 57 56  1  0
 58 60  1  0
 58 57  1  0
 59 70  2  0
 60 65  1  0
 61 69  1  0
 61 71  1  0
 62 68  1  0
 62 64  1  0
 63 69  1  0
 64 65  2  0
 64 63  1  0
 66 60  2  0
 67 66  1  0
 67 62  2  0
 68 61  1  0
 69 59  1  0
 71 73  2  0
 72 71  1  0
 74 72  1  0
 75 84  2  0
 75 80  1  0
 76 72  1  0
 76 80  1  0
 77 76  1  0
 78 79  1  0
 78 77  1  0
 79 75  1  0
 80 81  2  0
 81 82  1  0
 83 82  2  0
 84 83  1  0
 85 59  1  0
 85 86  1  0
 85 95  1  0
 86 89  1  0
 87 91  1  0
 87 86  1  0
 88 87  2  0
 91 90  1  0
 93 91  1  0
 93 94  1  0
 93 92  1  0
 95 98  1  1
 95 96  1  0
 97 95  1  0
M  ISO  4  13 100  21 100  57 101  58 101
M  END
>  <TORSDO>  (71) 
F 24

>  <SCORE>  (71) 
-12.287

>  <name>  (71) 
72

>  <ligand_id>  (71) 
72

>  <original_smiles>  (71) 
[H]c1c([H])c([H])c2c(c1[H])C([H])([H])C([H])([H])C([H])([H])C2([H])N([H])C(=O)C1([H])N(C(=O)C([H])(N([H])C(=O)C([H])(N([H])C([H])([H])[H])C([H])([H])[H])C(C([H])([H])[H])(C([H])([H])[H])C([H])([H])[H])C([H])([H])c2c([H])c(OC([H])([H])C([H])([H])[N+]([H])([H])C([H])([H])C([H])([H])c3c([H])c([H])c(C(=O)C([H])([H])N([H])C(=O)N4C([H])([H])C([H])([H])C([H])([H])C([H])(n5nc(-c6c([H])c([H])c(Oc7c([H])c([H])c(F)c([H])c7F)c([H])c6[H])c(C(=O)N([H])[H])c5N([H])[H])C4([H])[H])c([H])c3N([H])[H])c([H])c([H])c2C1([H])[H]

>  <smiles>  (71) 
[H]c1c([H])c([H])c2c(c1[H])C([H])([H])C([H])([H])C([H])([H])C2([H])N([H])C(=O)C1([H])N(C(=O)C([H])(N([H])C(=O)C([H])(N([H])C([H])([H])[H])C([H])([H])[H])C(C([H])([H])[H])(C([H])([H])[H])C([H])([H])[H])C([H])([H])c2c([H])c(OC([H])([H])C([H])([H])[N+]([H])([H])C([H])([H])C([H])([H])c3c([H])c([H])c(C(=O)C([H])([H])N([H])C(=O)N4C([H])([H])C([H])([H])C([H])([H])C([H])(n5nc(-c6c([H])c([H])c(Oc7c([H])c([H])c(F)c([H])c7F)c([H])c6[H])c(C(=O)N([H])[H])c5N([H])[H])C4([H])[H])c([H])c3N([H])[H])c([H])c([H])c2C1([H])[H]

$$$$
73:0:0
     RDKit          3D

103111  0  0  1  0  0  0  0  0999 V2000
  -30.8290  -20.2660   19.2760 C   0  0  0  0  0  3  0  0  0  0  0  0
  -30.0940  -18.4180   17.6810 C   0  0  0  0  0  3  0  0  0  0  0  0
  -30.2530  -17.6680   16.5040 C   0  0  0  0  0  3  0  0  0  0  0  0
  -31.9650  -19.8290   17.0300 C   0  0  0  0  0  3  0  0  0  0  0  0
  -32.1330  -19.0880   15.8370 C   0  0  0  0  0  0  0  0  0  0  0  0
  -30.9570  -19.4980   17.9610 C   0  0  0  0  0  0  0  0  0  0  0  0
  -31.2790  -17.9730   15.5860 C   0  0  0  0  0  0  0  0  0  0  0  0
  -31.4370  -17.0600   14.3770 C   0  0  0  0  0  1  0  0  0  0  0  0
  -33.2370  -19.4970   14.9030 C   0  0  0  0  0  0  0  0  0  0  0  0
  -32.8720  -19.8100   13.6670 N   0  0  0  0  0  0  0  0  0  0  0  0
  -34.4010  -19.6040   15.2860 O   0  0  0  0  0  0  0  0  0  0  0  0
  -31.8970  -19.7610   13.4140 H   0  0  0  0  0  0  0  0  0  0  0  0
  -33.5540  -20.1190   12.9920 H   0  0  0  0  0  0  0  0  0  0  0  0
  -30.1100  -21.5320   19.0050 N   0  0  0  0  0  4  0  0  0  0  0  0
  -30.4400  -21.8570   18.1110 H   0  0  0  0  0  0  0  0  0  0  0  0
  -29.1350  -21.3130   18.8950 H   0  0  0  0  0  0  0  0  0  0  0  0
  -30.2370  -22.6400   19.9810 C   0  0  0  0  0  2  0  0  0  0  0  0
  -30.0360  -23.9980   19.2730 C   0  0  0  0  0  2  0  0  0  0  0  0
  -30.0780  -25.2530   20.1780 C   0  0  0  0  0  2  0  0  0  0  0  0
  -28.8360  -26.1180   19.9180 C   0  0  0  0  0  2  0  0  0  0  0  0
  -28.8310  -27.3790   20.5870 O   0  0  0  0  0  0  0  0  0  0  0  0
  -24.9340  -32.3560   23.8840 C   0  0  0  0  0  0  0  0  0  0  0  0
  -27.6180  -28.0430   20.6440 C   0  0  0  0  0  0  0  0  0  0  0  0
  -23.7210  -30.9380   22.2630 C   0  0  0  0  0  3  0  0  0  0  0  0
  -25.1720  -29.4710   20.7760 C   0  0  0  0  0  0  0  0  0  0  0  0
  -26.2290  -31.3730   21.9960 C   0  0  0  0  0  2  0  0  0  0  0  0
  -26.3330  -30.0160   21.3360 C   0  0  0  0  0  0  0  0  0  0  0  0
  -27.5560  -29.3050   21.2760 C   0  0  0  0  0  3  0  0  0  0  0  0
  -26.4250  -27.5130   20.0870 C   0  0  0  0  0  3  0  0  0  0  0  0
  -25.2110  -28.2140   20.1560 C   0  0  0  0  0  3  0  0  0  0  0  0
  -23.9070  -30.2880   20.8680 C   0  0  0  0  0  2  0  0  0  0  0  0
  -24.9810  -31.5700   22.7710 N   0  0  0  0  0  0  0  0  0  0  0  0
  -23.8620  -32.5890   24.4580 O   0  0  0  0  0  0  0  0  0  0  0  0
  -23.1330  -29.8820   23.2260 C   0  0  0  0  0  0  0  0  0  0  0  0
  -21.9000  -29.4330   22.9390 N   0  0  0  0  0  0  0  0  0  0  0  0
  -23.7880  -29.4670   24.1860 O   0  0  0  0  0  0  0  0  0  0  0  0
  -21.4280  -29.8260   22.1370 H   0  0  0  0  0  0  0  0  0  0  0  0
  -18.8640  -27.4740   22.9600 C   0  0  0  0  0  0  0  0  0  0  0  0
  -21.1600  -28.4150   23.6840 C   0  0  0  0  0  3  0  0  0  0  0  0
  -21.7160  -27.0010   23.3960 C   0  0  0  0  0  2  0  0  0  0  0  0
  -20.9840  -26.2850   22.2570 C   0  0  0  0  0  2  0  0  0  0  0  0
  -19.4940  -26.1450   22.5780 C   0  0  0  0  0  2  0  0  0  0  0  0
  -19.6490  -28.5450   23.4640 C   0  0  0  0  0  0  0  0  0  0  0  0
  -19.0200  -29.7720   23.7700 C   0  0  0  0  0  3  0  0  0  0  0  0
  -17.6350  -29.9360   23.5840 C   0  0  0  0  0  3  0  0  0  0  0  0
  -16.8600  -28.8670   23.1020 C   0  0  0  0  0  3  0  0  0  0  0  0
  -17.4730  -27.6390   22.7960 C   0  0  0  0  0  3  0  0  0  0  0  0
  -26.2200  -33.0160   24.4700 C   0  0  0  0  0  3  0  0  0  0  0  0
  -25.8820  -34.4020   24.8210 N   0  0  0  0  0  0  0  0  0  0  0  0
  -26.1870  -35.4710   24.0720 C   0  0  0  0  0  0  0  0  0  0  0  0
  -26.8550  -35.3950   23.0380 O   0  0  0  0  0  0  0  0  0  0  0  0
  -25.2870  -34.5340   25.6240 H   0  0  0  0  0  0  0  0  0  0  0  0
  -24.4150  -37.2240   23.7460 C   0  0  0  0  0  1  0  0  0  0  0  0
  -25.6680  -36.8400   24.5480 C   0  0  0  0  0  3  0  0  0  0  0  0
  -27.7990  -37.7530   25.3610 C   0  0  0  0  0  1  0  0  0  0  0  0
  -26.6760  -37.9190   24.4430 N   0  0  0  0  0  0  0  0  0  0  0  0
  -26.2520  -38.8250   24.6180 H   0  0  0  0  0  0  0  0  0  0  0  0
  -26.7990  -32.2470   25.7200 C   0  0  1  0  0  0  0  0  0  0  0  0
  -25.7290  -31.8900   26.7790 C   0  0  0  0  0  1  0  0  0  0  0  0
  -27.4870  -30.9330   25.2850 C   0  0  0  0  0  1  0  0  0  0  0  0
  -27.8850  -33.1070   26.4070 C   0  0  0  0  0  1  0  0  0  0  0  0
  -30.1940  -19.3770   20.3790 C   0  0  0  0  0  2  0  0  0  0  0  0
  -30.8810  -17.9980   20.5050 C   0  0  0  0  0  2  0  0  0  0  0  0
  -30.6260  -17.3000   21.8510 C   0  0  0  0  0  2  0  0  0  0  0  0
  -31.3050  -15.9230   21.9750 C   0  0  0  0  0  2  0  0  0  0  0  0
  -30.7680  -14.1740   20.2680 C   0  0  0  0  0  0  0  0  0  0  0  0
  -30.2630  -12.1460   18.9560 C   0  0  0  0  0  2  0  0  0  0  0  0
  -29.2510  -12.4160   17.8290 C   0  0  0  0  0  2  0  0  0  0  0  0
  -27.8110  -12.2720   18.3530 C   0  0  0  0  0  2  0  0  0  0  0  0
  -27.5720  -13.0920   19.6470 C   0  0  0  0  0  3  0  0  0  0  0  0
  -28.6830  -12.8170   20.6840 C   0  0  0  0  0  2  0  0  0  0  0  0
  -29.9940  -13.0800   20.0590 N   0  0  0  0  0  0  0  0  0  0  0  0
  -31.7100  -14.4910   19.5340 O   0  0  0  0  0  0  0  0  0  0  0  0
  -30.5080  -14.8360   21.4040 N   0  0  0  0  0  0  0  0  0  0  0  0
  -29.7390  -14.4880   21.9560 H   0  0  0  0  0  0  0  0  0  0  0  0
  -25.2330  -13.7270   20.5180 C   0  0  0  0  0  0  0  0  0  0  0  0
  -24.1760  -12.9660   20.9380 C   0  0  0  0  0  0  0  0  0  0  0  0
  -24.6100  -11.6070   20.8550 C   0  0  0  0  0  0  0  0  0  0  0  0
  -26.2450  -12.8330   20.2020 N   0  0  0  0  0  0  0  0  0  0  0  0
  -25.8750  -11.5520   20.4600 N   0  0  0  0  0  0  0  0  0  0  0  0
  -23.8740  -10.3550   21.0710 C   0  0  0  0  0  0  0  0  0  0  0  0
  -24.3090   -9.3960   22.0110 C   0  0  0  0  0  3  0  0  0  0  0  0
  -23.5740   -8.2080   22.2140 C   0  0  0  0  0  3  0  0  0  0  0  0
  -22.3910   -7.9700   21.4760 C   0  0  0  0  0  0  0  0  0  0  0  0
  -21.9740   -8.9180   20.5240 C   0  0  0  0  0  3  0  0  0  0  0  0
  -22.7090  -10.0970   20.3200 C   0  0  0  0  0  3  0  0  0  0  0  0
  -21.6280   -6.8330   21.5860 O   0  0  0  0  0  0  0  0  0  0  0  0
  -21.5270   -6.1470   22.7700 C   0  0  0  0  0  0  0  0  0  0  0  0
  -21.0590   -6.7630   23.9500 C   0  0  0  0  0  3  0  0  0  0  0  0
  -20.9040   -6.0030   25.1270 C   0  0  0  0  0  3  0  0  0  0  0  0
  -21.2060   -4.6280   25.1240 C   0  0  0  0  0  0  0  0  0  0  0  0
  -21.6670   -4.0110   23.9470 C   0  0  0  0  0  3  0  0  0  0  0  0
  -21.8230   -4.7680   22.7720 C   0  0  0  0  0  0  0  0  0  0  0  0
  -22.2470   -4.1650   21.6360 F   0  0  0  0  0  0  0  0  0  0  0  0
  -21.0500   -3.8960   26.2520 F   0  0  0  0  0  0  0  0  0  0  0  0
  -22.8080  -13.4630   21.3080 C   0  0  0  0  0  0  0  0  0  0  0  0
  -22.1390  -12.7860   22.2350 N   0  0  0  0  0  0  0  0  0  0  0  0
  -22.3430  -14.4870   20.8110 O   0  0  0  0  0  0  0  0  0  0  0  0
  -22.5280  -11.9570   22.6590 H   0  0  0  0  0  0  0  0  0  0  0  0
  -21.2250  -13.1020   22.5270 H   0  0  0  0  0  0  0  0  0  0  0  0
  -25.4120  -15.0960   20.3630 N   0  0  0  0  0  0  0  0  0  0  0  0
  -24.6700  -15.7600   20.5540 H   0  0  0  0  0  0  0  0  0  0  0  0
  -26.2500  -15.5270   19.9920 H   0  0  0  0  0  0  0  0  0  0  0  0
  1 62  1  0
  2  6  1  0
  3  2  2  0
  4  6  2  0
  5  4  1  0
  6  1  1  0
  7  5  2  0
  7  3  1  0
  8  7  1  0
  9 11  2  0
  9  5  1  0
 10  9  1  0
 12 10  1  0
 13 10  1  0
 14  1  1  0
 14 17  1  0
 15 14  1  0
 16 14  1  0
 18 17  1  0
 18 19  1  0
 20 19  1  0
 20 21  1  0
 21 23  1  0
 22 33  2  0
 23 28  1  0
 24 32  1  0
 24 34  1  0
 25 31  1  0
 25 27  1  0
 26 32  1  0
 27 26  1  0
 28 27  2  0
 29 30  1  0
 29 23  2  0
 30 25  2  0
 31 24  1  0
 32 22  1  0
 34 36  2  0
 35 34  1  0
 37 35  1  0
 38 43  1  0
 39 35  1  0
 40 39  1  0
 41 42  1  0
 41 40  1  0
 42 38  1  0
 43 39  1  0
 43 44  2  0
 45 44  1  0
 46 45  2  0
 47 38  2  0
 47 46  1  0
 48 22  1  0
 48 49  1  0
 48 58  1  0
 49 52  1  0
 50 54  1  0
 50 49  1  0
 51 50  2  0
 54 53  1  0
 56 54  1  0
 56 57  1  0
 56 55  1  0
 58 61  1  1
 58 59  1  0
 60 58  1  0
 62 63  1  0
 63 64  1  0
 64 65  1  0
 66 74  1  0
 67 72  1  0
 68 69  1  0
 68 67  1  0
 70 69  1  0
 70 79  1  0
 70 71  1  0
 72 66  1  0
 72 71  1  0
 73 66  2  0
 74 75  1  0
 74 65  1  0
 76 77  2  0
 77 96  1  0
 78 77  1  0
 78 81  1  0
 79 80  1  0
 79 76  1  0
 80 78  2  0
 81 82  1  0
 82 83  2  0
 84 87  1  0
 84 83  1  0
 85 84  2  0
 86 85  1  0
 86 81  2  0
 87 88  1  0
 88 93  2  0
 88 89  1  0
 89 90  2  0
 91 90  1  0
 91 95  1  0
 92 91  2  0
 93 92  1  0
 94 93  1  0
 96 97  1  0
 97100  1  0
 97 99  1  0
 98 96  2  0
101 76  1  0
101102  1  0
103101  1  0
M  ISO  4  20 101  21 101  66 100  74 100
M  END
>  <TORSDO>  (72) 
F 27

>  <SCORE>  (72) 
-9.297

>  <name>  (72) 
73

>  <ligand_id>  (72) 
73

>  <original_smiles>  (72) 
[H]c1c([H])c([H])c2c(c1[H])C([H])([H])C([H])([H])C([H])([H])C2([H])N([H])C(=O)C1([H])N(C(=O)C([H])(N([H])C(=O)C([H])(N([H])C([H])([H])[H])C([H])([H])[H])C(C([H])([H])[H])(C([H])([H])[H])C([H])([H])[H])C([H])([H])c2c([H])c(OC([H])([H])C([H])([H])C([H])([H])C([H])([H])[N+]([H])([H])C([H])(c3c([H])c([H])c(C([H])([H])[H])c(C(=O)N([H])[H])c3[H])C([H])([H])C([H])([H])C([H])([H])C([H])([H])N([H])C(=O)N3C([H])([H])C([H])([H])C([H])([H])C([H])(n4nc(-c5c([H])c([H])c(Oc6c([H])c([H])c(F)c([H])c6F)c([H])c5[H])c(C(=O)N([H])[H])c4N([H])[H])C3([H])[H])c([H])c([H])c2C1([H])[H]

>  <smiles>  (72) 
[H]c1c([H])c([H])c2c(c1[H])C([H])([H])C([H])([H])C([H])([H])C2([H])N([H])C(=O)C1([H])N(C(=O)C([H])(N([H])C(=O)C([H])(N([H])C([H])([H])[H])C([H])([H])[H])C(C([H])([H])[H])(C([H])([H])[H])C([H])([H])[H])C([H])([H])c2c([H])c(OC([H])([H])C([H])([H])C([H])([H])C([H])([H])[N+]([H])([H])C([H])(c3c([H])c([H])c(C([H])([H])[H])c(C(=O)N([H])[H])c3[H])C([H])([H])C([H])([H])C([H])([H])C([H])([H])N([H])C(=O)N3C([H])([H])C([H])([H])C([H])([H])C([H])(n4nc(-c5c([H])c([H])c(Oc6c([H])c([H])c(F)c([H])c6F)c([H])c5[H])c(C(=O)N([H])[H])c4N([H])[H])C3([H])[H])c([H])c([H])c2C1([H])[H]

$$$$
74:0:0
     RDKit          3D

100108  0  0  1  0  0  0  0  0999 V2000
  -32.2210  -23.7450   17.5310 C   0  0  0  0  0  2  0  0  0  0  0  0
  -31.6380  -25.1230   17.1580 C   0  0  0  0  0  2  0  0  0  0  0  0
  -32.5470  -26.3090   17.5250 C   0  0  0  0  0  2  0  0  0  0  0  0
  -32.7130  -26.5840   19.0320 C   0  0  0  0  0  2  0  0  0  0  0  0
  -31.4750  -27.1020   19.6560 N   0  0  0  0  0  4  0  0  0  0  0  0
  -30.8090  -27.3310   18.9340 H   0  0  0  0  0  0  0  0  0  0  0  0
  -31.7160  -27.9640   20.1230 H   0  0  0  0  0  0  0  0  0  0  0  0
  -30.8370  -26.2010   20.6460 C   0  0  0  0  0  2  0  0  0  0  0  0
  -29.5250  -26.8040   21.1710 C   0  0  0  0  0  2  0  0  0  0  0  0
  -28.5620  -26.7250   20.1210 O   0  0  0  0  0  0  0  0  0  0  0  0
  -24.6840  -31.8680   23.2570 C   0  0  0  0  0  0  0  0  0  0  0  0
  -27.4090  -27.4720   20.2120 C   0  0  0  0  0  0  0  0  0  0  0  0
  -23.5000  -30.4570   21.6030 C   0  0  0  0  0  3  0  0  0  0  0  0
  -24.9820  -28.9250   20.2000 C   0  0  0  0  0  0  0  0  0  0  0  0
  -26.0190  -30.8440   21.4240 C   0  0  0  0  0  2  0  0  0  0  0  0
  -26.1210  -29.4690   20.8020 C   0  0  0  0  0  0  0  0  0  0  0  0
  -27.3360  -28.7510   20.8130 C   0  0  0  0  0  3  0  0  0  0  0  0
  -26.2530  -26.9410   19.6030 C   0  0  0  0  0  3  0  0  0  0  0  0
  -25.0390  -27.6560   19.6000 C   0  0  0  0  0  3  0  0  0  0  0  0
  -23.7270  -29.7720   20.2280 C   0  0  0  0  0  2  0  0  0  0  0  0
  -24.7530  -31.0700   22.1560 N   0  0  0  0  0  0  0  0  0  0  0  0
  -23.5980  -32.1350   23.7880 O   0  0  0  0  0  0  0  0  0  0  0  0
  -22.8470  -29.4360   22.5580 C   0  0  0  0  0  0  0  0  0  0  0  0
  -21.5220  -29.2570   22.4250 N   0  0  0  0  0  0  0  0  0  0  0  0
  -23.5260  -28.8050   23.3730 O   0  0  0  0  0  0  0  0  0  0  0  0
  -21.0360  -29.8180   21.7400 H   0  0  0  0  0  0  0  0  0  0  0  0
  -18.1360  -28.1060   22.9300 C   0  0  0  0  0  0  0  0  0  0  0  0
  -20.6990  -28.3180   23.1870 C   0  0  0  0  0  3  0  0  0  0  0  0
  -20.7740  -26.8960   22.5860 C   0  0  0  0  0  2  0  0  0  0  0  0
  -19.6600  -26.6090   21.5740 C   0  0  0  0  0  2  0  0  0  0  0  0
  -18.2860  -26.7650   22.2310 C   0  0  0  0  0  2  0  0  0  0  0  0
  -19.2700  -28.8420   23.3640 C   0  0  0  0  0  0  0  0  0  0  0  0
  -19.0770  -30.1000   23.9760 C   0  0  0  0  0  3  0  0  0  0  0  0
  -17.7830  -30.6230   24.1580 C   0  0  0  0  0  3  0  0  0  0  0  0
  -16.6630  -29.8810   23.7410 C   0  0  0  0  0  3  0  0  0  0  0  0
  -16.8400  -28.6250   23.1350 C   0  0  0  0  0  3  0  0  0  0  0  0
  -25.9650  -32.5020   23.8890 C   0  0  0  0  0  3  0  0  0  0  0  0
  -25.6560  -33.9040   24.2020 N   0  0  0  0  0  0  0  0  0  0  0  0
  -26.0020  -34.9460   23.4350 C   0  0  0  0  0  0  0  0  0  0  0  0
  -26.6850  -34.8310   22.4130 O   0  0  0  0  0  0  0  0  0  0  0  0
  -25.0530  -34.0680   24.9930 H   0  0  0  0  0  0  0  0  0  0  0  0
  -24.2880  -36.7400   23.0280 C   0  0  0  0  0  1  0  0  0  0  0  0
  -25.5100  -36.3390   23.8690 C   0  0  0  0  0  3  0  0  0  0  0  0
  -27.6260  -37.2260   24.7420 C   0  0  0  0  0  1  0  0  0  0  0  0
  -26.5480  -37.3880   23.7700 N   0  0  0  0  0  0  0  0  0  0  0  0
  -26.1420  -38.3110   23.8970 H   0  0  0  0  0  0  0  0  0  0  0  0
  -26.4700  -31.7390   25.1750 C   0  0  1  0  0  0  0  0  0  0  0  0
  -25.3650  -31.5050   26.2310 C   0  0  0  0  0  1  0  0  0  0  0  0
  -27.0570  -30.3600   24.7930 C   0  0  0  0  0  1  0  0  0  0  0  0
  -27.6130  -32.5370   25.8440 C   0  0  0  0  0  1  0  0  0  0  0  0
  -31.4890  -22.5490   16.8920 C   0  0  0  0  0  2  0  0  0  0  0  0
  -29.0170  -22.9860   16.8100 C   0  0  0  0  0  1  0  0  0  0  0  0
  -30.1520  -22.3250   17.4500 N   0  0  0  0  0  0  0  0  0  0  0  0
  -30.6980  -19.5060   19.8740 C   0  0  0  0  0  3  0  0  0  0  0  0
  -28.4640  -19.3230   18.9450 C   0  0  0  0  0  3  0  0  0  0  0  0
  -30.9140  -20.6650   19.1010 C   0  0  0  0  0  3  0  0  0  0  0  0
  -28.6780  -20.4880   18.1850 C   0  0  0  0  0  3  0  0  0  0  0  0
  -29.4740  -18.8030   19.7880 C   0  0  0  0  0  0  0  0  0  0  0  0
  -29.9170  -21.1690   18.2330 C   0  0  0  0  0  0  0  0  0  0  0  0
  -29.2000  -17.5320   20.5310 C   0  0  0  0  0  0  0  0  0  0  0  0
  -28.1090  -16.9540   20.4570 O   0  0  0  0  0  0  0  0  0  0  0  0
  -30.3050  -16.9030   21.4020 C   0  0  0  0  0  2  0  0  0  0  0  0
  -30.6910  -14.5770   20.6510 C   0  0  0  0  0  0  0  0  0  0  0  0
  -30.3860  -12.5140   19.3460 C   0  0  0  0  0  2  0  0  0  0  0  0
  -29.4570  -12.7950   18.1490 C   0  0  0  0  0  2  0  0  0  0  0  0
  -27.9780  -12.6260   18.5510 C   0  0  0  0  0  2  0  0  0  0  0  0
  -27.6250  -13.3870   19.8570 C   0  0  0  0  0  3  0  0  0  0  0  0
  -28.6660  -13.1000   20.9620 C   0  0  0  0  0  2  0  0  0  0  0  0
  -30.0090  -13.4230   20.4380 N   0  0  0  0  0  0  0  0  0  0  0  0
  -31.7400  -14.8620   20.0680 O   0  0  0  0  0  0  0  0  0  0  0  0
  -30.0990  -15.4510   21.4720 N   0  0  0  0  0  0  0  0  0  0  0  0
  -29.2360  -15.1470   21.8990 H   0  0  0  0  0  0  0  0  0  0  0  0
  -25.1960  -13.9420   20.5140 C   0  0  0  0  0  0  0  0  0  0  0  0
  -24.1400  -13.1450   20.8700 C   0  0  0  0  0  0  0  0  0  0  0  0
  -24.6350  -11.8040   20.8560 C   0  0  0  0  0  0  0  0  0  0  0  0
  -26.2680  -13.0830   20.3080 N   0  0  0  0  0  0  0  0  0  0  0  0
  -25.9310  -11.7930   20.5670 N   0  0  0  0  0  0  0  0  0  0  0  0
  -23.9400  -10.5240   21.0470 C   0  0  0  0  0  0  0  0  0  0  0  0
  -24.3760   -9.5810   22.0030 C   0  0  0  0  0  3  0  0  0  0  0  0
  -23.6830   -8.3650   22.1790 C   0  0  0  0  0  3  0  0  0  0  0  0
  -22.5370   -8.0830   21.3970 C   0  0  0  0  0  0  0  0  0  0  0  0
  -22.1210   -9.0150   20.4290 C   0  0  0  0  0  3  0  0  0  0  0  0
  -22.8180  -10.2220   20.2520 C   0  0  0  0  0  3  0  0  0  0  0  0
  -21.8170   -6.9170   21.4790 O   0  0  0  0  0  0  0  0  0  0  0  0
  -21.7510   -6.1900   22.6400 C   0  0  0  0  0  0  0  0  0  0  0  0
  -21.2450   -6.7400   23.8380 C   0  0  0  0  0  3  0  0  0  0  0  0
  -21.1320   -5.9350   24.9890 C   0  0  0  0  0  3  0  0  0  0  0  0
  -21.5150   -4.5810   24.9450 C   0  0  0  0  0  0  0  0  0  0  0  0
  -22.0150   -4.0310   23.7520 C   0  0  0  0  0  3  0  0  0  0  0  0
  -22.1300   -4.8320   22.6010 C   0  0  0  0  0  0  0  0  0  0  0  0
  -22.5920   -4.2900   21.4500 F   0  0  0  0  0  0  0  0  0  0  0  0
  -21.4000   -3.8070   26.0490 F   0  0  0  0  0  0  0  0  0  0  0  0
  -22.7270  -13.5870   21.1170 C   0  0  0  0  0  0  0  0  0  0  0  0
  -22.0000  -12.8740   21.9700 N   0  0  0  0  0  0  0  0  0  0  0  0
  -22.2700  -14.6000   20.5880 O   0  0  0  0  0  0  0  0  0  0  0  0
  -22.3770  -12.0590   22.4300 H   0  0  0  0  0  0  0  0  0  0  0  0
  -21.0510  -13.1540   22.1730 H   0  0  0  0  0  0  0  0  0  0  0  0
  -25.3370  -15.3140   20.3320 N   0  0  0  0  0  0  0  0  0  0  0  0
  -24.5610  -15.9620   20.4190 H   0  0  0  0  0  0  0  0  0  0  0  0
  -26.2170  -15.7760   20.1140 H   0  0  0  0  0  0  0  0  0  0  0  0
  2  3  1  0
  2  1  1  0
  3  4  1  0
  4  5  1  0
  5  7  1  0
  5  8  1  0
  6  5  1  0
  8  9  1  0
 10 12  1  0
 10  9  1  0
 11 22  2  0
 12 17  1  0
 13 21  1  0
 13 23  1  0
 14 20  1  0
 14 16  1  0
 15 21  1  0
 16 17  2  0
 16 15  1  0
 18 12  2  0
 19 18  1  0
 19 14  2  0
 20 13  1  0
 21 11  1  0
 23 25  2  0
 24 23  1  0
 26 24  1  0
 27 36  2  0
 27 32  1  0
 28 24  1  0
 28 32  1  0
 29 28  1  0
 30 31  1  0
 30 29  1  0
 31 27  1  0
 32 33  2  0
 33 34  1  0
 35 34  2  0
 36 35  1  0
 37 11  1  0
 37 38  1  0
 37 47  1  0
 38 41  1  0
 39 43  1  0
 39 38  1  0
 40 39  2  0
 43 42  1  0
 45 43  1  0
 45 46  1  0
 45 44  1  0
 47 50  1  1
 47 48  1  0
 49 47  1  0
 51 53  1  0
 51  1  1  0
 52 53  1  0
 53 59  1  0
 55 58  2  0
 56 54  2  0
 57 59  2  0
 57 55  1  0
 58 54  1  0
 58 60  1  0
 59 56  1  0
 60 62  1  0
 61 60  2  0
 62 71  1  0
 63 71  1  0
 64 69  1  0
 65 66  1  0
 65 64  1  0
 67 66  1  0
 67 76  1  0
 67 68  1  0
 69 63  1  0
 69 68  1  0
 70 63  2  0
 71 72  1  0
 73 74  2  0
 74 93  1  0
 75 74  1  0
 75 78  1  0
 76 73  1  0
 76 77  1  0
 77 75  2  0
 78 79  1  0
 79 80  2  0
 81 84  1  0
 81 80  1  0
 82 81  2  0
 83 82  1  0
 83 78  2  0
 84 85  1  0
 85 86  1  0
 86 87  2  0
 88 87  1  0
 88 92  1  0
 89 88  2  0
 90 85  2  0
 90 89  1  0
 91 90  1  0
 93 94  1  0
 94 97  1  0
 94 96  1  0
 95 93  2  0
 98 99  1  0
 98 73  1  0
100 98  1  0
M  ISO  4   9 101  10 101  63 100  71 100
M  END
>  <TORSDO>  (73) 
F 27

>  <SCORE>  (73) 
-11.795

>  <name>  (73) 
74

>  <ligand_id>  (73) 
74

>  <original_smiles>  (73) 
[H]c1c([H])c([H])c2c(c1[H])C([H])([H])C([H])([H])C([H])([H])C2([H])N([H])C(=O)C1([H])N(C(=O)C([H])(N([H])C(=O)C([H])(N([H])C([H])([H])[H])C([H])([H])[H])C(C([H])([H])[H])(C([H])([H])[H])C([H])([H])[H])C([H])([H])c2c([H])c(OC([H])([H])C([H])([H])[N+]([H])([H])C([H])([H])C([H])([H])C([H])([H])C([H])([H])C([H])([H])N(c3c([H])c([H])c(C(=O)C([H])([H])N([H])C(=O)N4C([H])([H])C([H])([H])C([H])([H])C([H])(n5nc(-c6c([H])c([H])c(Oc7c([H])c([H])c(F)c([H])c7F)c([H])c6[H])c(C(=O)N([H])[H])c5N([H])[H])C4([H])[H])c([H])c3[H])C([H])([H])[H])c([H])c([H])c2C1([H])[H]

>  <smiles>  (73) 
[H]c1c([H])c([H])c2c(c1[H])C([H])([H])C([H])([H])C([H])([H])C2([H])N([H])C(=O)C1([H])N(C(=O)C([H])(N([H])C(=O)C([H])(N([H])C([H])([H])[H])C([H])([H])[H])C(C([H])([H])[H])(C([H])([H])[H])C([H])([H])[H])C([H])([H])c2c([H])c(OC([H])([H])C([H])([H])[N+]([H])([H])C([H])([H])C([H])([H])C([H])([H])C([H])([H])C([H])([H])N(c3c([H])c([H])c(C(=O)C([H])([H])N([H])C(=O)N4C([H])([H])C([H])([H])C([H])([H])C([H])(n5nc(-c6c([H])c([H])c(Oc7c([H])c([H])c(F)c([H])c7F)c([H])c6[H])c(C(=O)N([H])[H])c5N([H])[H])C4([H])[H])c([H])c3[H])C([H])([H])[H])c([H])c([H])c2C1([H])[H]

$$$$
75:0:0
     RDKit          3D

107116  0  0  1  0  0  0  0  0999 V2000
  -27.4910  -21.2540   23.5550 C   0  0  0  0  0  2  0  0  0  0  0  0
  -26.0980  -21.1370   21.4940 C   0  0  0  0  0  2  0  0  0  0  0  0
  -26.7260  -22.4620   24.1060 C   0  0  0  0  0  2  0  0  0  0  0  0
  -25.3020  -22.3900   21.8970 C   0  0  0  0  0  2  0  0  0  0  0  0
  -27.5260  -21.2930   22.0190 C   0  0  0  0  0  3  0  0  0  0  0  0
  -25.3580  -22.7140   23.4220 C   0  0  0  0  0  3  0  0  0  0  0  0
  -30.5230  -20.1000   19.9870 C   0  0  0  0  0  3  0  0  0  0  0  0
  -29.9560  -18.3700   21.6110 C   0  0  0  0  0  3  0  0  0  0  0  0
  -29.3770  -20.8220   20.3690 C   0  0  0  0  0  3  0  0  0  0  0  0
  -28.8020  -19.0840   21.9800 C   0  0  0  0  0  3  0  0  0  0  0  0
  -30.8560  -18.9130   20.6660 C   0  0  0  0  0  0  0  0  0  0  0  0
  -28.5570  -20.3530   21.4180 C   0  0  0  0  0  0  0  0  0  0  0  0
  -32.2030  -18.2980   20.4780 C   0  0  0  0  0  0  0  0  0  0  0  0
  -32.8830  -18.2240   21.6250 N   0  0  0  0  0  0  0  0  0  0  0  0
  -32.6340  -17.9600   19.3740 O   0  0  0  0  0  0  0  0  0  0  0  0
  -32.4080  -18.5940   22.4370 H   0  0  0  0  0  0  0  0  0  0  0  0
  -34.1340  -17.5270   21.8710 C   0  0  0  0  0  2  0  0  0  0  0  0
  -33.8700  -16.0380   22.1420 C   0  0  0  0  0  2  0  0  0  0  0  0
  -32.7420  -15.7510   23.1640 C   0  0  0  0  0  2  0  0  0  0  0  0
  -32.1110  -14.3610   22.9980 C   0  0  0  0  0  2  0  0  0  0  0  0
  -30.8800  -14.1880   20.8190 C   0  0  0  0  0  0  0  0  0  0  0  0
  -30.3930  -12.2840   19.3490 C   0  0  0  0  0  2  0  0  0  0  0  0
  -29.4560  -12.5490   18.1660 C   0  0  0  0  0  2  0  0  0  0  0  0
  -27.9920  -12.3800   18.6020 C   0  0  0  0  0  2  0  0  0  0  0  0
  -27.6600  -13.2060   19.8700 C   0  0  0  0  0  3  0  0  0  0  0  0
  -28.6970  -12.9670   20.9880 C   0  0  0  0  0  2  0  0  0  0  0  0
  -30.0470  -13.1940   20.4470 N   0  0  0  0  0  0  0  0  0  0  0  0
  -31.7460  -14.6590   20.0800 O   0  0  0  0  0  0  0  0  0  0  0  0
  -30.9120  -14.3160   22.1540 N   0  0  0  0  0  0  0  0  0  0  0  0
  -30.1090  -13.9020   22.6040 H   0  0  0  0  0  0  0  0  0  0  0  0
  -25.2580  -13.8160   20.5680 C   0  0  0  0  0  0  0  0  0  0  0  0
  -24.1830  -13.0450   20.9170 C   0  0  0  0  0  0  0  0  0  0  0  0
  -24.6380  -11.6900   20.8720 C   0  0  0  0  0  0  0  0  0  0  0  0
  -26.3010  -12.9340   20.3350 N   0  0  0  0  0  0  0  0  0  0  0  0
  -25.9300  -11.6490   20.5730 N   0  0  0  0  0  0  0  0  0  0  0  0
  -23.9040  -10.4300   21.0390 C   0  0  0  0  0  0  0  0  0  0  0  0
  -24.3600   -9.4210   21.9170 C   0  0  0  0  0  3  0  0  0  0  0  0
  -23.6280   -8.2240   22.0750 C   0  0  0  0  0  3  0  0  0  0  0  0
  -22.4270   -8.0270   21.3540 C   0  0  0  0  0  0  0  0  0  0  0  0
  -21.9890   -9.0240   20.4640 C   0  0  0  0  0  3  0  0  0  0  0  0
  -22.7210  -10.2130   20.3040 C   0  0  0  0  0  3  0  0  0  0  0  0
  -21.6640   -6.8880   21.4230 O   0  0  0  0  0  0  0  0  0  0  0  0
  -21.6840   -6.0730   22.5270 C   0  0  0  0  0  0  0  0  0  0  0  0
  -21.4020   -6.5640   23.8210 C   0  0  0  0  0  3  0  0  0  0  0  0
  -21.3670   -5.6780   24.9170 C   0  0  0  0  0  3  0  0  0  0  0  0
  -21.6040   -4.3050   24.7220 C   0  0  0  0  0  0  0  0  0  0  0  0
  -21.8820   -3.8140   23.4340 C   0  0  0  0  0  3  0  0  0  0  0  0
  -21.9200   -4.6960   22.3400 C   0  0  0  0  0  0  0  0  0  0  0  0
  -22.1660   -4.2150   21.0980 F   0  0  0  0  0  0  0  0  0  0  0  0
  -21.5630   -3.4530   25.7740 F   0  0  0  0  0  0  0  0  0  0  0  0
  -22.7850  -13.5230   21.1840 C   0  0  0  0  0  0  0  0  0  0  0  0
  -22.0510  -12.8220   22.0400 N   0  0  0  0  0  0  0  0  0  0  0  0
  -22.3550  -14.5550   20.6710 O   0  0  0  0  0  0  0  0  0  0  0  0
  -22.4120  -11.9870   22.4760 H   0  0  0  0  0  0  0  0  0  0  0  0
  -21.1120  -13.1240   22.2620 H   0  0  0  0  0  0  0  0  0  0  0  0
  -25.4340  -15.1890   20.4100 N   0  0  0  0  0  0  0  0  0  0  0  0
  -24.6770  -15.8530   20.5260 H   0  0  0  0  0  0  0  0  0  0  0  0
  -26.3020  -15.6210   20.1190 H   0  0  0  0  0  0  0  0  0  0  0  0
  -23.2750  -24.1030   23.8870 C   0  0  0  0  0  1  0  0  0  0  0  0
  -24.8120  -24.1300   23.7820 C   0  0  0  0  0  3  0  0  0  0  0  0
  -25.2290  -25.2050   22.8350 N   0  0  0  0  0  4  0  0  0  0  0  0
  -25.0450  -24.9150   21.8880 H   0  0  0  0  0  0  0  0  0  0  0  0
  -24.6100  -25.9790   23.0260 H   0  0  0  0  0  0  0  0  0  0  0  0
  -26.5920  -25.7930   22.9460 C   0  0  0  0  0  2  0  0  0  0  0  0
  -27.6360  -25.2090   21.9490 C   0  0  0  0  0  2  0  0  0  0  0  0
  -28.6890  -26.2110   21.4200 C   0  0  0  0  0  2  0  0  0  0  0  0
  -28.3570  -26.7060   20.1190 O   0  0  0  0  0  0  0  0  0  0  0  0
  -24.6100  -31.8710   23.2160 C   0  0  0  0  0  0  0  0  0  0  0  0
  -27.2270  -27.4780   20.0970 C   0  0  0  0  0  0  0  0  0  0  0  0
  -23.3980  -30.4950   21.5570 C   0  0  0  0  0  3  0  0  0  0  0  0
  -24.8410  -28.9660   20.1170 C   0  0  0  0  0  0  0  0  0  0  0  0
  -25.9210  -30.8480   21.3630 C   0  0  0  0  0  2  0  0  0  0  0  0
  -25.9970  -29.4860   20.7130 C   0  0  0  0  0  0  0  0  0  0  0  0
  -27.1960  -28.7470   20.7060 C   0  0  0  0  0  3  0  0  0  0  0  0
  -26.0680  -26.9670   19.4820 C   0  0  0  0  0  3  0  0  0  0  0  0
  -24.8680  -27.7010   19.5010 C   0  0  0  0  0  3  0  0  0  0  0  0
  -23.6040  -29.8310   20.1700 C   0  0  0  0  0  2  0  0  0  0  0  0
  -24.6630  -31.0840   22.1050 N   0  0  0  0  0  0  0  0  0  0  0  0
  -23.5300  -32.1420   23.7570 O   0  0  0  0  0  0  0  0  0  0  0  0
  -22.7430  -29.4610   22.4990 C   0  0  0  0  0  0  0  0  0  0  0  0
  -21.4160  -29.3010   22.3780 N   0  0  0  0  0  0  0  0  0  0  0  0
  -23.4290  -28.7980   23.2850 O   0  0  0  0  0  0  0  0  0  0  0  0
  -20.9270  -29.8840   21.7130 H   0  0  0  0  0  0  0  0  0  0  0  0
  -18.0260  -28.1380   22.8520 C   0  0  0  0  0  0  0  0  0  0  0  0
  -20.5860  -28.3650   23.1340 C   0  0  0  0  0  3  0  0  0  0  0  0
  -20.6750  -26.9390   22.5430 C   0  0  0  0  0  2  0  0  0  0  0  0
  -19.5710  -26.6370   21.5250 C   0  0  0  0  0  2  0  0  0  0  0  0
  -18.1890  -26.7920   22.1690 C   0  0  0  0  0  2  0  0  0  0  0  0
  -19.1520  -28.8820   23.2930 C   0  0  0  0  0  0  0  0  0  0  0  0
  -18.9470  -30.1440   23.8910 C   0  0  0  0  0  3  0  0  0  0  0  0
  -17.6480  -30.6610   24.0550 C   0  0  0  0  0  3  0  0  0  0  0  0
  -16.5360  -29.9120   23.6350 C   0  0  0  0  0  3  0  0  0  0  0  0
  -16.7260  -28.6530   23.0370 C   0  0  0  0  0  3  0  0  0  0  0  0
  -25.8990  -32.4860   23.8460 C   0  0  0  0  0  3  0  0  0  0  0  0
  -25.5850  -33.8650   24.2400 N   0  0  0  0  0  0  0  0  0  0  0  0
  -25.9020  -34.9490   23.5190 C   0  0  0  0  0  0  0  0  0  0  0  0
  -26.5600  -34.8920   22.4760 O   0  0  0  0  0  0  0  0  0  0  0  0
  -24.9940  -33.9810   25.0500 H   0  0  0  0  0  0  0  0  0  0  0  0
  -24.1490  -36.7350   23.2640 C   0  0  0  0  0  1  0  0  0  0  0  0
  -25.4100  -36.3130   24.0370 C   0  0  0  0  0  3  0  0  0  0  0  0
  -27.5590  -37.1810   24.8460 C   0  0  0  0  0  1  0  0  0  0  0  0
  -26.4290  -37.3790   23.9430 N   0  0  0  0  0  0  0  0  0  0  0  0
  -26.0210  -38.2890   24.1390 H   0  0  0  0  0  0  0  0  0  0  0  0
  -26.4440  -31.6590   25.0750 C   0  0  1  0  0  0  0  0  0  0  0  0
  -25.3740  -31.3630   26.1530 C   0  0  0  0  0  1  0  0  0  0  0  0
  -27.0240  -30.3040   24.6070 C   0  0  0  0  0  1  0  0  0  0  0  0
  -27.6040  -32.4290   25.7490 C   0  0  0  0  0  1  0  0  0  0  0  0
  1  3  1  0
  2  4  1  0
  2  5  1  0
  4  6  1  0
  5 12  1  0
  5  1  1  0
  6 60  1  0
  6  3  1  0
  7  9  2  0
  7 11  1  0
  8 10  1  0
  9 12  1  0
 11  8  2  0
 12 10  2  0
 13 11  1  0
 13 14  1  0
 14 17  1  0
 14 16  1  0
 15 13  2  0
 17 18  1  0
 18 19  1  0
 20 19  1  0
 21 29  1  0
 22 27  1  0
 23 24  1  0
 23 22  1  0
 25 24  1  0
 25 34  1  0
 25 26  1  0
 27 21  1  0
 27 26  1  0
 28 21  2  0
 29 30  1  0
 29 20  1  0
 31 32  2  0
 32 51  1  0
 33 32  1  0
 33 36  1  0
 34 31  1  0
 34 35  1  0
 35 33  2  0
 36 37  1  0
 37 38  2  0
 39 42  1  0
 39 38  1  0
 40 39  2  0
 41 40  1  0
 41 36  2  0
 42 43  1  0
 43 44  1  0
 44 45  2  0
 46 45  1  0
 46 50  1  0
 47 46  2  0
 48 43  2  0
 48 47  1  0
 49 48  1  0
 51 52  1  0
 52 55  1  0
 52 54  1  0
 53 51  2  0
 56 57  1  0
 56 31  1  0
 58 56  1  0
 60 59  1  0
 61 64  1  0
 61 63  1  0
 61 60  1  0
 62 61  1  0
 65 64  1  0
 66 65  1  0
 67 66  1  0
 68 79  2  0
 69 67  1  0
 69 74  1  0
 70 78  1  0
 70 80  1  0
 71 77  1  0
 71 73  1  0
 72 78  1  0
 73 72  1  0
 74 73  2  0
 75 76  1  0
 75 69  2  0
 76 71  2  0
 77 70  1  0
 78 68  1  0
 80 82  2  0
 81 80  1  0
 83 81  1  0
 84 93  2  0
 84 89  1  0
 85 81  1  0
 85 89  1  0
 86 85  1  0
 87 88  1  0
 87 86  1  0
 88 84  1  0
 89 90  2  0
 90 91  1  0
 92 91  2  0
 93 92  1  0
 94 68  1  0
 94 95  1  0
 94104  1  0
 95 98  1  0
 96100  1  0
 96 95  1  0
 97 96  2  0
100 99  1  0
102100  1  0
102103  1  0
102101  1  0
104107  1  1
104105  1  0
106104  1  0
M  ISO  4  21 100  29 100  66 101  67 101
M  END
>  <TORSDO>  (74) 
F 27

>  <SCORE>  (74) 
28.348

>  <name>  (74) 
75

>  <ligand_id>  (74) 
75

>  <original_smiles>  (74) 
[H]c1c([H])c([H])c2c(c1[H])C([H])([H])C([H])([H])C([H])([H])C2([H])N([H])C(=O)C1([H])N(C(=O)C([H])(N([H])C(=O)C([H])(N([H])C([H])([H])[H])C([H])([H])[H])C(C([H])([H])[H])(C([H])([H])[H])C([H])([H])[H])C([H])([H])c2c([H])c(OC([H])([H])C([H])([H])C([H])([H])[N+]([H])([H])C([H])(C([H])([H])[H])C3([H])C([H])([H])C([H])([H])C([H])(c4c([H])c([H])c(C(=O)N([H])C([H])([H])C([H])([H])C([H])([H])C([H])([H])N([H])C(=O)N5C([H])([H])C([H])([H])C([H])([H])C([H])(n6nc(-c7c([H])c([H])c(Oc8c([H])c([H])c(F)c([H])c8F)c([H])c7[H])c(C(=O)N([H])[H])c6N([H])[H])C5([H])[H])c([H])c4[H])C([H])([H])C3([H])[H])c([H])c([H])c2C1([H])[H]

>  <smiles>  (74) 
[H]c1c([H])c([H])c2c(c1[H])C([H])([H])C([H])([H])C([H])([H])C2([H])N([H])C(=O)C1([H])N(C(=O)C([H])(N([H])C(=O)C([H])(N([H])C([H])([H])[H])C([H])([H])[H])C(C([H])([H])[H])(C([H])([H])[H])C([H])([H])[H])C([H])([H])c2c([H])c(OC([H])([H])C([H])([H])C([H])([H])[N+]([H])([H])C([H])(C([H])([H])[H])C3([H])C([H])([H])C([H])([H])C([H])(c4c([H])c([H])c(C(=O)N([H])C([H])([H])C([H])([H])C([H])([H])C([H])([H])N([H])C(=O)N5C([H])([H])C([H])([H])C([H])([H])C([H])(n6nc(-c7c([H])c([H])c(Oc8c([H])c([H])c(F)c([H])c8F)c([H])c7[H])c(C(=O)N([H])[H])c6N([H])[H])C5([H])[H])c([H])c4[H])C([H])([H])C3([H])[H])c([H])c([H])c2C1([H])[H]

$$$$
76:0:0
     RDKit          3D

101108  0  0  1  0  0  0  0  0999 V2000
  -25.8350  -16.9790   20.1130 C   0  0  0  0  0  0  0  0  0  0  0  0
  -26.2720  -17.1890   18.8370 N   0  0  0  0  0  0  0  0  0  0  0  0
  -26.2330  -17.7060   21.0270 O   0  0  0  0  0  0  0  0  0  0  0  0
  -25.8540  -16.5570   18.1580 H   0  0  0  0  0  0  0  0  0  0  0  0
  -23.4690  -16.1570   20.8760 C   0  0  0  0  0  1  0  0  0  0  0  0
  -24.8940  -15.7470   20.4700 C   0  0  0  0  0  3  0  0  0  0  0  0
  -27.3100  -13.1930   18.0740 C   0  0  0  0  0  3  0  0  0  0  0  0
  -26.2730  -14.4300   18.5330 C   0  0  0  0  0  3  0  0  0  0  0  0
  -26.1190  -10.8530   18.9950 C   0  0  0  0  0  2  0  0  0  0  0  0
  -27.4770  -11.6000   18.5110 C   0  0  0  0  0  3  0  0  0  0  0  0
  -24.9260  -14.4950   19.5470 C   0  0  0  0  0  3  0  0  0  0  0  0
  -24.1610  -13.0710   20.1240 C   0  0  0  0  0  2  0  0  0  0  0  0
  -23.0530  -13.0020   20.9110 F   0  0  0  0  0  0  0  0  0  0  0  0
  -28.7370  -11.2000   19.6830 C   0  0  0  0  0  2  0  0  0  0  0  0
  -30.0950  -11.9110   22.3710 C   0  0  0  0  0  0  0  0  0  0  0  0
  -30.3140   -9.7980   23.5620 C   0  0  0  0  0  2  0  0  0  0  0  0
  -29.9320   -8.8880   22.3910 C   0  0  0  0  0  2  0  0  0  0  0  0
  -28.3930   -8.7980   22.3560 C   0  0  0  0  0  2  0  0  0  0  0  0
  -27.7500  -10.2000   22.6430 C   0  0  0  0  0  3  0  0  0  0  0  0
  -28.2630  -11.0570   23.7070 C   0  0  0  0  0  2  0  0  0  0  0  0
  -29.6180  -11.0580   23.3040 N   0  0  0  0  0  0  0  0  0  0  0  0
  -31.0910  -12.5110   22.8290 O   0  0  0  0  0  0  0  0  0  0  0  0
  -29.5420  -11.9800   20.9800 N   0  0  0  0  0  0  0  0  0  0  0  0
  -30.0320  -12.7620   20.5640 H   0  0  0  0  0  0  0  0  0  0  0  0
  -26.2820  -11.7870   21.1880 C   0  0  0  0  0  2  0  0  0  0  0  0
  -24.4740  -10.7500   20.0570 C   0  0  0  0  0  3  0  0  0  0  0  0
  -24.3400   -9.3840   21.1810 C   0  0  0  0  0  0  0  0  0  0  0  0
  -26.4720  -10.6080   22.3750 N   0  0  0  0  0  0  0  0  0  0  0  0
  -25.4280   -9.4040   22.3280 N   0  0  0  0  0  0  0  0  0  0  0  0
  -23.3390   -8.4030   21.5370 C   0  0  0  0  0  0  0  0  0  0  0  0
  -23.2310   -7.8870   22.8620 C   0  0  0  0  0  3  0  0  0  0  0  0
  -22.2750   -6.9040   23.1630 C   0  0  0  0  0  3  0  0  0  0  0  0
  -21.4150   -6.4490   22.1390 C   0  0  0  0  0  0  0  0  0  0  0  0
  -21.5460   -6.9580   20.8360 C   0  0  0  0  0  3  0  0  0  0  0  0
  -22.5040   -7.9280   20.5300 C   0  0  0  0  0  3  0  0  0  0  0  0
  -20.4580   -5.4880   22.3030 O   0  0  0  0  0  0  0  0  0  0  0  0
  -19.9640   -5.1670   23.5380 C   0  0  0  0  0  0  0  0  0  0  0  0
  -19.1040   -6.0320   24.2500 C   0  0  0  0  0  3  0  0  0  0  0  0
  -18.5520   -5.6130   25.4760 C   0  0  0  0  0  3  0  0  0  0  0  0
  -18.8520   -4.3330   25.9840 C   0  0  0  0  0  0  0  0  0  0  0  0
  -19.7080   -3.4750   25.2720 C   0  0  0  0  0  3  0  0  0  0  0  0
  -20.2590   -3.8910   24.0510 C   0  0  0  0  0  0  0  0  0  0  0  0
  -21.0650   -3.0540   23.3540 F   0  0  0  0  0  0  0  0  0  0  0  0
  -18.3120   -3.9260   27.1550 F   0  0  0  0  0  0  0  0  0  0  0  0
  -23.2220  -11.0460   19.2650 C   0  0  0  0  0  0  0  0  0  0  0  0
  -22.0700  -10.9500   19.9340 N   0  0  0  0  0  0  0  0  0  0  0  0
  -23.2800  -11.4440   18.1190 O   0  0  0  0  0  0  0  0  0  0  0  0
  -22.0370  -10.6600   20.8990 H   0  0  0  0  0  0  0  0  0  0  0  0
  -21.2050  -11.1760   19.4620 H   0  0  0  0  0  0  0  0  0  0  0  0
  -27.0400  -12.9510   21.1980 N   0  0  0  0  0  0  0  0  0  0  0  0
  -26.9170  -13.3380   20.2700 H   0  0  0  0  0  0  0  0  0  0  0  0
  -28.0170  -12.7220   21.3420 H   0  0  0  0  0  0  0  0  0  0  0  0
  -27.5000  -17.9310   18.3810 C   0  0  0  0  0  3  0  0  0  0  0  0
  -27.5150  -18.6520   16.9670 C   0  0  0  0  0  3  0  0  0  0  0  0
  -28.7960  -19.5480   16.6270 C   0  0  0  0  0  2  0  0  0  0  0  0
  -28.5210  -20.9420   16.1030 N   0  0  0  0  0  4  0  0  0  0  0  0
  -27.6910  -21.2650   16.5770 H   0  0  0  0  0  0  0  0  0  0  0  0
  -28.2850  -20.8610   15.1260 H   0  0  0  0  0  0  0  0  0  0  0  0
  -29.5800  -22.0340   16.2350 C   0  0  0  0  0  2  0  0  0  0  0  0
  -28.9650  -23.4900   16.1490 C   0  0  0  0  0  2  0  0  0  0  0  0
  -29.5780  -24.7370   16.6980 O   0  0  0  0  0  0  0  0  0  0  0  0
  -24.9380  -27.6500   21.2440 C   0  0  0  0  0  0  0  0  0  0  0  0
  -28.6470  -25.7630   16.8780 C   0  0  0  0  0  0  0  0  0  0  0  0
  -24.4170  -27.8400   18.8390 C   0  0  0  0  0  3  0  0  0  0  0  0
  -26.3570  -27.4040   17.2390 C   0  0  0  0  0  0  0  0  0  0  0  0
  -26.8510  -27.8100   19.6460 C   0  0  0  0  0  2  0  0  0  0  0  0
  -27.2290  -27.1850   18.3140 C   0  0  0  0  0  0  0  0  0  0  0  0
  -28.3830  -26.3690   18.1410 C   0  0  0  0  0  3  0  0  0  0  0  0
  -27.8190  -26.1320   15.7900 C   0  0  0  0  0  3  0  0  0  0  0  0
  -26.6610  -26.8980   15.9710 C   0  0  0  0  0  3  0  0  0  0  0  0
  -25.1010  -28.2060   17.4980 C   0  0  0  0  0  2  0  0  0  0  0  0
  -25.4010  -27.7380   19.9650 N   0  0  0  0  0  0  0  0  0  0  0  0
  -23.7240  -27.6820   21.4920 O   0  0  0  0  0  0  0  0  0  0  0  0
  -23.5740  -26.5560   18.6470 C   0  0  0  0  0  0  0  0  0  0  0  0
  -22.4290  -26.6830   17.9530 N   0  0  0  0  0  0  0  0  0  0  0  0
  -23.9600  -25.4750   19.0980 O   0  0  0  0  0  0  0  0  0  0  0  0
  -22.1760  -27.6040   17.6230 H   0  0  0  0  0  0  0  0  0  0  0  0
  -19.4150  -25.8870   16.1180 C   0  0  0  0  0  0  0  0  0  0  0  0
  -21.4960  -25.6040   17.6270 C   0  0  0  0  0  3  0  0  0  0  0  0
  -22.0580  -24.7000   16.5050 C   0  0  0  0  0  2  0  0  0  0  0  0
  -21.6050  -25.1240   15.1050 C   0  0  0  0  0  2  0  0  0  0  0  0
  -20.0770  -25.0940   15.0030 C   0  0  0  0  0  2  0  0  0  0  0  0
  -20.0880  -26.1390   17.3440 C   0  0  0  0  0  0  0  0  0  0  0  0
  -19.4410  -26.9090   18.3340 C   0  0  0  0  0  3  0  0  0  0  0  0
  -18.1480  -27.4220   18.1180 C   0  0  0  0  0  3  0  0  0  0  0  0
  -17.4810  -27.1590   16.9100 C   0  0  0  0  0  3  0  0  0  0  0  0
  -18.1120  -26.3890   15.9150 C   0  0  0  0  0  3  0  0  0  0  0  0
  -25.9120  -27.5300   22.4560 C   0  0  0  0  0  3  0  0  0  0  0  0
  -25.9680  -26.0760   23.0660 C   0  0  1  0  0  0  0  0  0  0  0  0
  -24.5790  -25.4940   23.4150 C   0  0  0  0  0  1  0  0  0  0  0  0
  -26.6580  -25.0960   22.0890 C   0  0  0  0  0  1  0  0  0  0  0  0
  -26.8190  -26.0840   24.3570 C   0  0  0  0  0  1  0  0  0  0  0  0
  -25.4780  -28.5030   23.4680 N   0  0  0  0  0  0  0  0  0  0  0  0
  -26.1690  -29.5960   23.8190 C   0  0  0  0  0  0  0  0  0  0  0  0
  -27.2890  -29.8540   23.3670 O   0  0  0  0  0  0  0  0  0  0  0  0
  -24.5470  -28.3840   23.8400 H   0  0  0  0  0  0  0  0  0  0  0  0
  -25.0560  -31.8330   24.1130 C   0  0  0  0  0  1  0  0  0  0  0  0
  -25.5170  -30.5540   24.8330 C   0  0  0  0  0  3  0  0  0  0  0  0
  -26.6550  -29.7970   26.8730 C   0  0  0  0  0  1  0  0  0  0  0  0
  -26.4040  -30.9110   25.9610 N   0  0  0  0  0  0  0  0  0  0  0  0
  -26.0090  -31.6770   26.5000 H   0  0  0  0  0  0  0  0  0  0  0  0
  1  6  1  0
  1  3  2  0
  2  1  1  0
  4  2  1  0
  6  5  1  0
  7  8  2  0
  9 26  1  0
 10  7  1  0
 10  9  1  0
 10 14  1  0
 11  8  1  0
 11 12  1  0
 11  6  1  0
 12 13  1  0
 14 23  1  0
 15 22  2  0
 15 21  1  0
 17 16  1  0
 18 17  1  0
 19 18  1  0
 19 20  1  0
 21 16  1  0
 21 20  1  0
 23 15  1  0
 24 23  1  0
 25 50  1  0
 25 28  1  0
 26 45  1  0
 26 27  1  0
 27 30  1  0
 27 29  2  0
 28 19  1  0
 29 28  1  0
 30 31  1  0
 31 32  2  0
 33 36  1  0
 33 32  1  0
 34 33  2  0
 35 34  1  0
 35 30  2  0
 36 37  1  0
 37 42  2  0
 37 38  1  0
 38 39  2  0
 39 40  1  0
 40 44  1  0
 41 40  2  0
 42 41  1  0
 43 42  1  0
 45 46  1  0
 46 48  1  0
 47 45  2  0
 49 46  1  0
 50 52  1  0
 51 50  1  0
 53  2  1  0
 54 53  2  0
 55 54  1  0
 56 59  1  0
 56 57  1  0
 56 55  1  0
 58 56  1  0
 60 59  1  0
 60 61  1  0
 61 63  1  0
 62 73  2  0
 63 68  1  0
 64 74  1  0
 64 72  1  0
 65 71  1  0
 65 67  1  0
 66 72  1  0
 67 66  1  0
 68 67  2  0
 69 70  1  0
 69 63  2  0
 70 65  2  0
 71 64  1  0
 72 62  1  0
 74 76  2  0
 75 74  1  0
 77 75  1  0
 78 83  1  0
 79 75  1  0
 80 79  1  0
 81 80  1  0
 82 81  1  0
 82 78  1  0
 83 79  1  0
 83 84  2  0
 85 84  1  0
 86 85  2  0
 87 78  2  0
 87 86  1  0
 88 62  1  0
 88 89  1  0
 88 93  1  0
 89 90  1  1
 89 92  1  0
 91 89  1  0
 93 94  1  0
 93 96  1  0
 94 98  1  0
 95 94  2  0
 98 97  1  0
 98100  1  0
100101  1  0
100 99  1  0
M  ISO  4  15 100  23 100  60 101  61 101
M  END
>  <TORSDO>  (75) 
F 25

>  <SCORE>  (75) 
11.231

>  <name>  (75) 
76

>  <ligand_id>  (75) 
76

>  <original_smiles>  (75) 
[H]c1c([H])c([H])c2c(c1[H])C([H])([H])C([H])([H])C([H])([H])C2([H])N([H])C(=O)C1([H])N(C(=O)C([H])(N([H])C(=O)C([H])(N([H])C([H])([H])[H])C([H])([H])[H])C(C([H])([H])[H])(C([H])([H])[H])C([H])([H])[H])C([H])([H])c2c([H])c(OC([H])([H])C([H])([H])[N+]([H])([H])C([H])([H])C([H])([H])C([H])([H])N([H])C(=O)C([H])(c3c([H])c([H])c(C([H])([H])N([H])C(=O)N4C([H])([H])C([H])([H])C([H])([H])C([H])(n5nc(-c6c([H])c([H])c(Oc7c([H])c([H])c(F)c([H])c7F)c([H])c6[H])c(C(=O)N([H])[H])c5N([H])[H])C4([H])[H])c([H])c3F)C([H])([H])[H])c([H])c([H])c2C1([H])[H]

>  <smiles>  (75) 
[H]c1c([H])c([H])c2c(c1[H])C([H])([H])C([H])([H])C([H])([H])C2([H])N([H])C(=O)C1([H])N(C(=O)C([H])(N([H])C(=O)C([H])(N([H])C([H])([H])[H])C([H])([H])[H])C(C([H])([H])[H])(C([H])([H])[H])C([H])([H])[H])C([H])([H])c2c([H])c(OC([H])([H])C([H])([H])[N+]([H])([H])C([H])([H])C([H])([H])C([H])([H])N([H])C(=O)C([H])(c3c([H])c([H])c(C([H])([H])N([H])C(=O)N4C([H])([H])C([H])([H])C([H])([H])C([H])(n5nc(-c6c([H])c([H])c(Oc7c([H])c([H])c(F)c([H])c7F)c([H])c6[H])c(C(=O)N([H])[H])c5N([H])[H])C4([H])[H])c([H])c3F)C([H])([H])[H])c([H])c([H])c2C1([H])[H]

$$$$
77:0:0
     RDKit          3D

103111  0  0  1  0  0  0  0  0999 V2000
  -29.3800  -21.2520   25.2560 C   0  0  0  0  0  3  0  0  0  0  0  0
  -30.3100  -20.6770   24.3660 C   0  0  0  0  0  3  0  0  0  0  0  0
  -29.1750  -22.6450   25.2720 C   0  0  0  0  0  3  0  0  0  0  0  0
  -30.8530  -22.8970   23.5240 C   0  0  0  0  0  3  0  0  0  0  0  0
  -31.0650  -21.4990   23.4940 C   0  0  0  0  0  0  0  0  0  0  0  0
  -29.9060  -23.4760   24.3970 C   0  0  0  0  0  0  0  0  0  0  0  0
  -32.1080  -20.9540   22.5740 C   0  0  0  0  0  0  0  0  0  0  0  0
  -32.8200  -21.6830   21.8760 O   0  0  0  0  0  0  0  0  0  0  0  0
  -32.3280  -19.4350   22.5210 C   0  0  0  0  0  2  0  0  0  0  0  0
  -32.1530  -18.8030   21.1160 C   0  0  0  0  0  2  0  0  0  0  0  0
  -34.3280  -17.8050   20.3160 C   0  0  0  0  0  1  0  0  0  0  0  0
  -33.3440  -18.9720   20.1410 C   0  0  0  0  0  3  0  0  0  0  0  0
  -32.9190  -19.0400   18.7200 N   0  0  0  0  0  4  0  0  0  0  0  0
  -33.3770  -18.2850   18.2370 H   0  0  0  0  0  0  0  0  0  0  0  0
  -31.9230  -18.8610   18.6730 H   0  0  0  0  0  0  0  0  0  0  0  0
  -33.2270  -20.3060   18.0020 C   0  0  0  0  0  2  0  0  0  0  0  0
  -34.7380  -20.5370   17.8060 C   0  0  0  0  0  2  0  0  0  0  0  0
  -35.4040  -19.6690   16.7150 C   0  0  0  0  0  2  0  0  0  0  0  0
  -37.1260  -17.8760   16.8480 C   0  0  0  0  0  0  0  0  0  0  0  0
  -37.2430  -15.4780   17.4040 C   0  0  0  0  0  2  0  0  0  0  0  0
  -36.5620  -14.5890   16.3470 C   0  0  0  0  0  2  0  0  0  0  0  0
  -35.0520  -14.4610   16.6160 C   0  0  0  0  0  2  0  0  0  0  0  0
  -34.3740  -15.8320   16.8620 C   0  0  0  0  0  3  0  0  0  0  0  0
  -35.1750  -16.6420   17.9080 C   0  0  0  0  0  2  0  0  0  0  0  0
  -36.5620  -16.7840   17.4320 N   0  0  0  0  0  0  0  0  0  0  0  0
  -38.1940  -17.8340   16.2360 O   0  0  0  0  0  0  0  0  0  0  0  0
  -36.6450  -19.0730   17.2110 N   0  0  0  0  0  0  0  0  0  0  0  0
  -37.3920  -19.7520   17.1930 H   0  0  0  0  0  0  0  0  0  0  0  0
  -31.9200  -16.5630   17.1680 C   0  0  0  0  0  0  0  0  0  0  0  0
  -30.8090  -15.8800   17.5880 C   0  0  0  0  0  0  0  0  0  0  0  0
  -31.2540  -14.5640   17.9120 C   0  0  0  0  0  0  0  0  0  0  0  0
  -32.9750  -15.6650   17.2500 N   0  0  0  0  0  0  0  0  0  0  0  0
  -32.5670  -14.4710   17.7530 N   0  0  0  0  0  0  0  0  0  0  0  0
  -30.4980  -13.3730   18.3200 C   0  0  0  0  0  0  0  0  0  0  0  0
  -30.5650  -12.8720   19.6380 C   0  0  0  0  0  3  0  0  0  0  0  0
  -29.8180  -11.7340   20.0070 C   0  0  0  0  0  3  0  0  0  0  0  0
  -28.9870  -11.0910   19.0590 C   0  0  0  0  0  0  0  0  0  0  0  0
  -28.9380  -11.5820   17.7440 C   0  0  0  0  0  3  0  0  0  0  0  0
  -29.6880  -12.7120   17.3750 C   0  0  0  0  0  3  0  0  0  0  0  0
  -28.2430   -9.9670   19.3230 O   0  0  0  0  0  0  0  0  0  0  0  0
  -27.4370   -9.8800   20.4290 C   0  0  0  0  0  0  0  0  0  0  0  0
  -26.3130  -10.7170   20.6000 C   0  0  0  0  0  3  0  0  0  0  0  0
  -25.4720  -10.5440   21.7170 C   0  0  0  0  0  3  0  0  0  0  0  0
  -25.7470   -9.5350   22.6580 C   0  0  0  0  0  0  0  0  0  0  0  0
  -26.8640   -8.6980   22.4870 C   0  0  0  0  0  3  0  0  0  0  0  0
  -27.7060   -8.8680   21.3740 C   0  0  0  0  0  0  0  0  0  0  0  0
  -28.7660   -8.0430   21.2000 F   0  0  0  0  0  0  0  0  0  0  0  0
  -24.9360   -9.3650   23.7290 F   0  0  0  0  0  0  0  0  0  0  0  0
  -29.3960  -16.3910   17.6000 C   0  0  0  0  0  0  0  0  0  0  0  0
  -28.5780  -15.9030   18.5270 N   0  0  0  0  0  0  0  0  0  0  0  0
  -29.0290  -17.2680   16.8210 O   0  0  0  0  0  0  0  0  0  0  0  0
  -28.8830  -15.1940   19.1760 H   0  0  0  0  0  0  0  0  0  0  0  0
  -27.6260  -16.2330   18.5750 H   0  0  0  0  0  0  0  0  0  0  0  0
  -32.1180  -17.8650   16.7180 N   0  0  0  0  0  0  0  0  0  0  0  0
  -31.2890  -18.3690   16.4200 H   0  0  0  0  0  0  0  0  0  0  0  0
  -32.9250  -18.0950   16.1510 H   0  0  0  0  0  0  0  0  0  0  0  0
  -29.6740  -24.9790   24.3700 C   0  0  0  0  0  2  0  0  0  0  0  0
  -28.8730  -25.3340   23.1860 N   0  0  0  0  0  4  0  0  0  0  0  0
  -27.9280  -25.5200   23.4870 H   0  0  0  0  0  0  0  0  0  0  0  0
  -28.8420  -24.5100   22.6090 H   0  0  0  0  0  0  0  0  0  0  0  0
  -29.3720  -26.4660   22.3650 C   0  0  0  0  0  2  0  0  0  0  0  0
  -28.9000  -26.3420   20.9020 C   0  0  0  0  0  2  0  0  0  0  0  0
  -28.8390  -27.6280   20.2760 O   0  0  0  0  0  0  0  0  0  0  0  0
  -24.4030  -32.2830   23.2430 C   0  0  0  0  0  0  0  0  0  0  0  0
  -27.5840  -28.1880   20.2350 C   0  0  0  0  0  0  0  0  0  0  0  0
  -23.3760  -30.7060   21.6360 C   0  0  0  0  0  3  0  0  0  0  0  0
  -25.0090  -29.3440   20.2280 C   0  0  0  0  0  0  0  0  0  0  0  0
  -25.8290  -31.3940   21.4060 C   0  0  0  0  0  2  0  0  0  0  0  0
  -26.0890  -30.0360   20.7920 C   0  0  0  0  0  0  0  0  0  0  0  0
  -27.3790  -29.4680   20.7900 C   0  0  0  0  0  3  0  0  0  0  0  0
  -26.4900  -27.5020   19.6590 C   0  0  0  0  0  3  0  0  0  0  0  0
  -25.2030  -28.0740   19.6590 C   0  0  0  0  0  3  0  0  0  0  0  0
  -23.6630  -30.0300   20.2680 C   0  0  0  0  0  2  0  0  0  0  0  0
  -24.5520  -31.4790   22.1530 N   0  0  0  0  0  0  0  0  0  0  0  0
  -23.2990  -32.4250   23.7890 O   0  0  0  0  0  0  0  0  0  0  0  0
  -22.8670  -29.6290   22.6190 C   0  0  0  0  0  0  0  0  0  0  0  0
  -21.6150  -29.1850   22.4260 N   0  0  0  0  0  0  0  0  0  0  0  0
  -23.6010  -29.1880   23.5090 O   0  0  0  0  0  0  0  0  0  0  0  0
  -21.0770  -29.6030   21.6790 H   0  0  0  0  0  0  0  0  0  0  0  0
  -18.5200  -27.3520   22.7550 C   0  0  0  0  0  0  0  0  0  0  0  0
  -20.9370  -28.1480   23.2030 C   0  0  0  0  0  3  0  0  0  0  0  0
  -21.3790  -26.7370   22.7480 C   0  0  0  0  0  2  0  0  0  0  0  0
  -20.4600  -26.1330   21.6810 C   0  0  0  0  0  2  0  0  0  0  0  0
  -19.0250  -26.0290   22.2030 C   0  0  0  0  0  2  0  0  0  0  0  0
  -19.4190  -28.3540   23.2090 C   0  0  0  0  0  0  0  0  0  0  0  0
  -18.8970  -29.5800   23.6750 C   0  0  0  0  0  3  0  0  0  0  0  0
  -17.5090  -29.8090   23.6990 C   0  0  0  0  0  3  0  0  0  0  0  0
  -16.6240  -28.8070   23.2640 C   0  0  0  0  0  3  0  0  0  0  0  0
  -17.1300  -27.5810   22.7960 C   0  0  0  0  0  3  0  0  0  0  0  0
  -25.6040  -33.0800   23.8430 C   0  0  0  0  0  3  0  0  0  0  0  0
  -25.2100  -34.4920   23.9030 N   0  0  0  0  0  0  0  0  0  0  0  0
  -25.6640  -35.4440   23.0750 C   0  0  0  0  0  0  0  0  0  0  0  0
  -26.5220  -35.2270   22.2150 O   0  0  0  0  0  0  0  0  0  0  0  0
  -24.4670  -34.7290   24.5450 H   0  0  0  0  0  0  0  0  0  0  0  0
  -24.0660  -37.1120   22.0830 C   0  0  0  0  0  1  0  0  0  0  0  0
  -25.0670  -36.8560   23.2220 C   0  0  0  0  0  3  0  0  0  0  0  0
  -26.9560  -37.8740   24.4130 C   0  0  0  0  0  1  0  0  0  0  0  0
  -26.0880  -37.9260   23.2390 N   0  0  0  0  0  0  0  0  0  0  0  0
  -25.6500  -38.8420   23.2050 H   0  0  0  0  0  0  0  0  0  0  0  0
  -26.0460  -32.5630   25.2650 C   0  0  1  0  0  0  0  0  0  0  0  0
  -24.8670  -32.3630   26.2440 C   0  0  0  0  0  1  0  0  0  0  0  0
  -26.8020  -31.2180   25.1480 C   0  0  0  0  0  1  0  0  0  0  0  0
  -27.0380  -33.5640   25.9030 C   0  0  0  0  0  1  0  0  0  0  0  0
  1  3  1  0
  2  1  2  0
  4  6  1  0
  5  4  2  0
  5  2  1  0
  6  3  2  0
  7  5  1  0
  8  7  2  0
  9  7  1  0
 10  9  1  0
 12 11  1  0
 12 10  1  0
 13 12  1  0
 14 13  1  0
 15 13  1  0
 16 13  1  0
 17 16  1  0
 18 27  1  0
 18 17  1  0
 19 27  1  0
 19 25  1  0
 20 25  1  0
 21 22  1  0
 21 20  1  0
 23 22  1  0
 23 32  1  0
 23 24  1  0
 25 24  1  0
 26 19  2  0
 28 27  1  0
 29 32  1  0
 29 30  2  0
 30 49  1  0
 30 31  1  0
 31 34  1  0
 32 33  1  0
 33 31  2  0
 34 35  1  0
 35 36  2  0
 37 40  1  0
 37 36  1  0
 38 37  2  0
 39 38  1  0
 39 34  2  0
 40 41  1  0
 41 42  2  0
 41 46  1  0
 42 43  1  0
 43 44  2  0
 44 48  1  0
 45 44  1  0
 46 45  2  0
 47 46  1  0
 49 50  1  0
 50 53  1  0
 50 52  1  0
 51 49  2  0
 54 29  1  0
 55 54  1  0
 56 54  1  0
 57  6  1  0
 58 59  1  0
 58 57  1  0
 60 58  1  0
 61 58  1  0
 62 61  1  0
 63 62  1  0
 64 75  2  0
 65 63  1  0
 65 70  1  0
 66 74  1  0
 66 76  1  0
 67 73  1  0
 67 69  1  0
 68 74  1  0
 69 68  1  0
 70 69  2  0
 71 65  2  0
 72 71  1  0
 72 67  2  0
 73 66  1  0
 74 64  1  0
 76 78  2  0
 77 76  1  0
 79 77  1  0
 80 89  2  0
 80 85  1  0
 81 77  1  0
 81 85  1  0
 82 81  1  0
 83 84  1  0
 83 82  1  0
 84 80  1  0
 85 86  2  0
 86 87  1  0
 88 87  2  0
 89 88  1  0
 90 64  1  0
 90 91  1  0
 90100  1  0
 91 94  1  0
 92 96  1  0
 92 91  1  0
 93 92  2  0
 96 95  1  0
 96 98  1  0
 98 97  1  0
 99 98  1  0
100103  1  1
100101  1  0
102100  1  0
M  ISO  4  19 100  27 100  62 101  63 101
M  END
>  <TORSDO>  (76) 
F 28

>  <SCORE>  (76) 
2.620

>  <name>  (76) 
77

>  <ligand_id>  (76) 
77

>  <original_smiles>  (76) 
[H]c1c([H])c([H])c2c(c1[H])C([H])([H])C([H])([H])C([H])([H])C2([H])N([H])C(=O)C1([H])N(C(=O)C([H])(N([H])C(=O)C([H])(N([H])C([H])([H])[H])C([H])([H])[H])C(C([H])([H])[H])(C([H])([H])[H])C([H])([H])[H])C([H])([H])c2c([H])c(OC([H])([H])C([H])([H])[N+]([H])([H])C([H])([H])c3c([H])c([H])c([H])c(C(=O)C([H])([H])C([H])([H])C([H])(C([H])([H])[H])[N+]([H])([H])C([H])([H])C([H])([H])C([H])([H])N([H])C(=O)N4C([H])([H])C([H])([H])C([H])([H])C([H])(n5nc(-c6c([H])c([H])c(Oc7c([H])c([H])c(F)c([H])c7F)c([H])c6[H])c(C(=O)N([H])[H])c5N([H])[H])C4([H])[H])c3[H])c([H])c([H])c2C1([H])[H]

>  <smiles>  (76) 
[H]c1c([H])c([H])c2c(c1[H])C([H])([H])C([H])([H])C([H])([H])C2([H])N([H])C(=O)C1([H])N(C(=O)C([H])(N([H])C(=O)C([H])(N([H])C([H])([H])[H])C([H])([H])[H])C(C([H])([H])[H])(C([H])([H])[H])C([H])([H])[H])C([H])([H])c2c([H])c(OC([H])([H])C([H])([H])[N+]([H])([H])C([H])([H])c3c([H])c([H])c([H])c(C(=O)C([H])([H])C([H])([H])C([H])(C([H])([H])[H])[N+]([H])([H])C([H])([H])C([H])([H])C([H])([H])N([H])C(=O)N4C([H])([H])C([H])([H])C([H])([H])C([H])(n5nc(-c6c([H])c([H])c(Oc7c([H])c([H])c(F)c([H])c7F)c([H])c6[H])c(C(=O)N([H])[H])c5N([H])[H])C4([H])[H])c3[H])c([H])c([H])c2C1([H])[H]

$$$$
78:0:0
     RDKit          3D

112120  0  0  1  0  0  0  0  0999 V2000
  -20.9790  -19.7300   21.9570 C   0  0  0  0  0  0  0  0  0  0  0  0
  -19.9470  -18.9570   22.3150 N   0  0  0  0  0  0  0  0  0  0  0  0
  -21.5850  -20.4370   22.7660 O   0  0  0  0  0  0  0  0  0  0  0  0
  -19.5030  -18.3840   21.6100 H   0  0  0  0  0  0  0  0  0  0  0  0
  -21.4040  -19.6870   20.4850 C   0  0  0  0  0  2  0  0  0  0  0  0
  -22.6630  -20.5330   20.1740 C   0  0  0  0  0  2  0  0  0  0  0  0
  -22.3870  -22.0300   19.9810 C   0  0  0  0  0  0  0  0  0  0  0  0
  -21.3240  -22.5490   20.3340 O   0  0  0  0  0  0  0  0  0  0  0  0
  -23.4740  -22.8830   19.3230 C   0  0  0  0  0  2  0  0  0  0  0  0
  -24.4440  -23.5420   20.3280 C   0  0  0  0  0  2  0  0  0  0  0  0
  -25.6930  -22.6990   20.6980 C   0  0  0  0  0  2  0  0  0  0  0  0
  -26.9560  -23.2330   20.1210 N   0  0  0  0  0  4  0  0  0  0  0  0
  -26.8080  -23.3820   19.1350 H   0  0  0  0  0  0  0  0  0  0  0  0
  -27.6690  -22.5200   20.1950 H   0  0  0  0  0  0  0  0  0  0  0  0
  -27.4800  -24.4760   20.7540 C   0  0  0  0  0  2  0  0  0  0  0  0
  -28.3400  -25.3230   19.7750 C   0  0  0  0  0  2  0  0  0  0  0  0
  -28.3950  -26.7160   20.1250 O   0  0  0  0  0  0  0  0  0  0  0  0
  -24.6130  -31.8690   23.2140 C   0  0  0  0  0  0  0  0  0  0  0  0
  -27.2250  -27.4500   20.0810 C   0  0  0  0  0  0  0  0  0  0  0  0
  -23.3980  -30.5000   21.5510 C   0  0  0  0  0  3  0  0  0  0  0  0
  -24.8400  -28.9730   20.1130 C   0  0  0  0  0  0  0  0  0  0  0  0
  -25.9260  -30.8390   21.3680 C   0  0  0  0  0  2  0  0  0  0  0  0
  -26.0000  -29.4770   20.7120 C   0  0  0  0  0  0  0  0  0  0  0  0
  -27.1930  -28.7180   20.7020 C   0  0  0  0  0  3  0  0  0  0  0  0
  -26.0470  -26.9750   19.4540 C   0  0  0  0  0  3  0  0  0  0  0  0
  -24.8590  -27.7190   19.4840 C   0  0  0  0  0  3  0  0  0  0  0  0
  -23.6020  -29.8370   20.1630 C   0  0  0  0  0  2  0  0  0  0  0  0
  -24.6630  -31.0860   22.1000 N   0  0  0  0  0  0  0  0  0  0  0  0
  -23.5340  -32.1410   23.7570 O   0  0  0  0  0  0  0  0  0  0  0  0
  -22.7380  -29.4680   22.4950 C   0  0  0  0  0  0  0  0  0  0  0  0
  -21.4100  -29.3040   22.3730 N   0  0  0  0  0  0  0  0  0  0  0  0
  -23.4190  -28.8190   23.2940 O   0  0  0  0  0  0  0  0  0  0  0  0
  -20.9200  -29.8860   21.7060 H   0  0  0  0  0  0  0  0  0  0  0  0
  -18.0260  -28.1340   22.8540 C   0  0  0  0  0  0  0  0  0  0  0  0
  -20.5860  -28.3630   23.1330 C   0  0  0  0  0  3  0  0  0  0  0  0
  -20.6750  -26.9390   22.5360 C   0  0  0  0  0  2  0  0  0  0  0  0
  -19.5710  -26.6420   21.5170 C   0  0  0  0  0  2  0  0  0  0  0  0
  -18.1910  -26.7900   22.1640 C   0  0  0  0  0  2  0  0  0  0  0  0
  -19.1510  -28.8810   23.2940 C   0  0  0  0  0  0  0  0  0  0  0  0
  -18.9440  -30.1430   23.8920 C   0  0  0  0  0  3  0  0  0  0  0  0
  -17.6440  -30.6570   24.0570 C   0  0  0  0  0  3  0  0  0  0  0  0
  -16.5330  -29.9080   23.6340 C   0  0  0  0  0  3  0  0  0  0  0  0
  -16.7250  -28.6490   23.0380 C   0  0  0  0  0  3  0  0  0  0  0  0
  -25.9050  -32.4820   23.8390 C   0  0  0  0  0  3  0  0  0  0  0  0
  -25.5930  -33.8610   24.2350 N   0  0  0  0  0  0  0  0  0  0  0  0
  -25.9040  -34.9470   23.5140 C   0  0  0  0  0  0  0  0  0  0  0  0
  -26.5570  -34.8920   22.4690 O   0  0  0  0  0  0  0  0  0  0  0  0
  -25.0070  -33.9720   25.0490 H   0  0  0  0  0  0  0  0  0  0  0  0
  -24.1480  -36.7310   23.2630 C   0  0  0  0  0  1  0  0  0  0  0  0
  -25.4100  -36.3100   24.0340 C   0  0  0  0  0  3  0  0  0  0  0  0
  -27.5580  -37.1810   24.8470 C   0  0  0  0  0  1  0  0  0  0  0  0
  -26.4280  -37.3800   23.9420 N   0  0  0  0  0  0  0  0  0  0  0  0
  -26.0170  -38.2880   24.1410 H   0  0  0  0  0  0  0  0  0  0  0  0
  -26.4500  -31.6620   25.0730 C   0  0  1  0  0  0  0  0  0  0  0  0
  -25.3780  -31.3710   26.1490 C   0  0  0  0  0  1  0  0  0  0  0  0
  -27.0310  -30.3050   24.6100 C   0  0  0  0  0  1  0  0  0  0  0  0
  -27.6080  -32.4310   25.7490 C   0  0  0  0  0  1  0  0  0  0  0  0
  -19.5110  -18.7600   23.6920 C   0  0  0  0  0  2  0  0  0  0  0  0
  -21.3280  -18.0350   25.3190 C   0  0  0  0  0  3  0  0  0  0  0  0
  -20.2180  -16.3500   23.9570 C   0  0  0  0  0  3  0  0  0  0  0  0
  -22.1640  -17.0420   25.8630 C   0  0  0  0  0  3  0  0  0  0  0  0
  -21.0580  -15.3580   24.4950 C   0  0  0  0  0  3  0  0  0  0  0  0
  -20.3560  -17.6920   24.3580 C   0  0  0  0  0  0  0  0  0  0  0  0
  -22.0490  -15.7000   25.4460 C   0  0  0  0  0  0  0  0  0  0  0  0
  -22.3030  -13.3240   26.3390 C   0  0  0  0  0  1  0  0  0  0  0  0
  -23.0030  -14.6570   26.0260 C   0  0  0  0  0  3  0  0  0  0  0  0
  -24.1510  -14.4360   25.1250 N   0  0  0  0  0  4  0  0  0  0  0  0
  -24.5580  -13.5590   25.4060 H   0  0  0  0  0  0  0  0  0  0  0  0
  -23.8030  -14.3220   24.1850 H   0  0  0  0  0  0  0  0  0  0  0  0
  -25.2400  -15.4530   25.1310 C   0  0  0  0  0  2  0  0  0  0  0  0
  -26.4470  -14.8730   24.3830 C   0  0  0  0  0  2  0  0  0  0  0  0
  -27.5000  -15.7910   24.0470 O   0  0  0  0  0  0  0  0  0  0  0  0
  -28.3380  -15.1240   23.1070 C   0  0  0  0  0  2  0  0  0  0  0  0
  -29.6270  -15.7700   22.5660 C   0  0  0  0  0  2  0  0  0  0  0  0
  -30.6560  -14.4000   20.6840 C   0  0  0  0  0  0  0  0  0  0  0  0
  -30.4530  -12.3220   19.3550 C   0  0  0  0  0  2  0  0  0  0  0  0
  -29.4880  -12.5480   18.1690 C   0  0  0  0  0  2  0  0  0  0  0  0
  -28.0010  -12.4070   18.5740 C   0  0  0  0  0  2  0  0  0  0  0  0
  -27.6710  -13.1750   19.8790 C   0  0  0  0  0  3  0  0  0  0  0  0
  -28.7220  -12.7640   20.9270 C   0  0  0  0  0  2  0  0  0  0  0  0
  -30.0350  -13.2090   20.4500 N   0  0  0  0  0  0  0  0  0  0  0  0
  -31.7530  -14.6800   20.1900 O   0  0  0  0  0  0  0  0  0  0  0  0
  -29.8810  -15.3960   21.1580 N   0  0  0  0  0  0  0  0  0  0  0  0
  -30.0900  -16.2350   20.6360 H   0  0  0  0  0  0  0  0  0  0  0  0
  -25.2600  -13.8070   20.5620 C   0  0  0  0  0  0  0  0  0  0  0  0
  -24.1830  -13.0400   20.9100 C   0  0  0  0  0  0  0  0  0  0  0  0
  -24.6360  -11.6850   20.8680 C   0  0  0  0  0  0  0  0  0  0  0  0
  -26.3050  -12.9210   20.3350 N   0  0  0  0  0  0  0  0  0  0  0  0
  -25.9270  -11.6400   20.5730 N   0  0  0  0  0  0  0  0  0  0  0  0
  -23.9030  -10.4260   21.0380 C   0  0  0  0  0  0  0  0  0  0  0  0
  -24.3600   -9.4170   21.9130 C   0  0  0  0  0  3  0  0  0  0  0  0
  -23.6320   -8.2180   22.0680 C   0  0  0  0  0  3  0  0  0  0  0  0
  -22.4280   -8.0230   21.3490 C   0  0  0  0  0  0  0  0  0  0  0  0
  -21.9870   -9.0230   20.4630 C   0  0  0  0  0  3  0  0  0  0  0  0
  -22.7170  -10.2130   20.3060 C   0  0  0  0  0  3  0  0  0  0  0  0
  -21.6680   -6.8820   21.4180 O   0  0  0  0  0  0  0  0  0  0  0  0
  -21.6900   -6.0690   22.5240 C   0  0  0  0  0  0  0  0  0  0  0  0
  -21.4050   -6.5630   23.8160 C   0  0  0  0  0  3  0  0  0  0  0  0
  -21.3690   -5.6810   24.9140 C   0  0  0  0  0  3  0  0  0  0  0  0
  -21.6070   -4.3070   24.7220 C   0  0  0  0  0  0  0  0  0  0  0  0
  -21.8850   -3.8120   23.4360 C   0  0  0  0  0  3  0  0  0  0  0  0
  -21.9230   -4.6920   22.3380 C   0  0  0  0  0  0  0  0  0  0  0  0
  -22.1680   -4.2080   21.0960 F   0  0  0  0  0  0  0  0  0  0  0  0
  -21.5590   -3.4550   25.7730 F   0  0  0  0  0  0  0  0  0  0  0  0
  -22.7840  -13.5250   21.1760 C   0  0  0  0  0  0  0  0  0  0  0  0
  -22.0400  -12.8240   22.0230 N   0  0  0  0  0  0  0  0  0  0  0  0
  -22.3660  -14.5690   20.6780 O   0  0  0  0  0  0  0  0  0  0  0  0
  -22.3590  -11.9440   22.3990 H   0  0  0  0  0  0  0  0  0  0  0  0
  -21.0910  -13.1210   22.2040 H   0  0  0  0  0  0  0  0  0  0  0  0
  -25.4350  -15.1800   20.4200 N   0  0  0  0  0  0  0  0  0  0  0  0
  -24.6570  -15.8280   20.4860 H   0  0  0  0  0  0  0  0  0  0  0  0
  -26.2790  -15.6200   20.0780 H   0  0  0  0  0  0  0  0  0  0  0  0
  1  2  1  0
  1  3  2  0
  2 58  1  0
  4  2  1  0
  5  1  1  0
  6  5  1  0
  7  6  1  0
  7  8  2  0
  9  7  1  0
  9 10  1  0
 10 11  1  0
 12 14  1  0
 12 11  1  0
 12 15  1  0
 13 12  1  0
 16 17  1  0
 16 15  1  0
 18 29  2  0
 19 17  1  0
 19 24  1  0
 20 28  1  0
 20 30  1  0
 21 27  1  0
 21 23  1  0
 22 28  1  0
 23 22  1  0
 24 23  2  0
 25 26  1  0
 25 19  2  0
 26 21  2  0
 27 20  1  0
 28 18  1  0
 30 32  2  0
 31 30  1  0
 33 31  1  0
 34 43  2  0
 34 39  1  0
 35 31  1  0
 35 39  1  0
 36 35  1  0
 37 38  1  0
 37 36  1  0
 38 34  1  0
 39 40  2  0
 40 41  1  0
 42 41  2  0
 43 42  1  0
 44 18  1  0
 44 45  1  0
 44 54  1  0
 45 48  1  0
 46 50  1  0
 46 45  1  0
 47 46  2  0
 50 49  1  0
 52 50  1  0
 52 53  1  0
 52 51  1  0
 54 57  1  1
 54 55  1  0
 56 54  1  0
 58 63  1  0
 59 61  1  0
 60 63  1  0
 60 62  2  0
 62 64  1  0
 63 59  2  0
 64 61  2  0
 64 66  1  0
 66 65  1  0
 67 70  1  0
 67 68  1  0
 67 66  1  0
 69 67  1  0
 71 70  1  0
 72 71  1  0
 73 72  1  0
 74 73  1  0
 75 83  1  0
 76 81  1  0
 77 78  1  0
 77 76  1  0
 79 78  1  0
 79 88  1  0
 79 80  1  0
 81 75  1  0
 81 80  1  0
 82 75  2  0
 83 74  1  0
 84 83  1  0
 85 86  2  0
 86105  1  0
 87 86  1  0
 87 90  1  0
 88 85  1  0
 88 89  1  0
 89 87  2  0
 90 91  1  0
 91 92  2  0
 93 96  1  0
 93 92  1  0
 94 93  2  0
 95 94  1  0
 95 90  2  0
 96 97  1  0
 97 98  1  0
 98 99  2  0
100 99  1  0
100104  1  0
101100  2  0
102 97  2  0
102101  1  0
103102  1  0
105106  1  0
106109  1  0
106108  1  0
107105  2  0
110111  1  0
110 85  1  0
112110  1  0
M  ISO  4  16 101  17 101  75 100  83 100
M  END
>  <TORSDO>  (77) 
F 34

>  <SCORE>  (77) 
72.712

>  <name>  (77) 
78

>  <ligand_id>  (77) 
78

>  <original_smiles>  (77) 
[H]c1c([H])c([H])c2c(c1[H])C([H])([H])C([H])([H])C([H])([H])C2([H])N([H])C(=O)C1([H])N(C(=O)C([H])(N([H])C(=O)C([H])(N([H])C([H])([H])[H])C([H])([H])[H])C(C([H])([H])[H])(C([H])([H])[H])C([H])([H])[H])C([H])([H])c2c([H])c(OC([H])([H])C([H])([H])[N+]([H])([H])C([H])([H])C([H])([H])C([H])([H])C(=O)C([H])([H])C([H])([H])C(=O)N([H])C([H])([H])c3c([H])c([H])c(C([H])(C([H])([H])[H])[N+]([H])([H])C([H])([H])C([H])([H])OC([H])([H])C([H])([H])N([H])C(=O)N4C([H])([H])C([H])([H])C([H])([H])C([H])(n5nc(-c6c([H])c([H])c(Oc7c([H])c([H])c(F)c([H])c7F)c([H])c6[H])c(C(=O)N([H])[H])c5N([H])[H])C4([H])[H])c([H])c3[H])c([H])c([H])c2C1([H])[H]

>  <smiles>  (77) 
[H]c1c([H])c([H])c2c(c1[H])C([H])([H])C([H])([H])C([H])([H])C2([H])N([H])C(=O)C1([H])N(C(=O)C([H])(N([H])C(=O)C([H])(N([H])C([H])([H])[H])C([H])([H])[H])C(C([H])([H])[H])(C([H])([H])[H])C([H])([H])[H])C([H])([H])c2c([H])c(OC([H])([H])C([H])([H])[N+]([H])([H])C([H])([H])C([H])([H])C([H])([H])C(=O)C([H])([H])C([H])([H])C(=O)N([H])C([H])([H])c3c([H])c([H])c(C([H])(C([H])([H])[H])[N+]([H])([H])C([H])([H])C([H])([H])OC([H])([H])C([H])([H])N([H])C(=O)N4C([H])([H])C([H])([H])C([H])([H])C([H])(n5nc(-c6c([H])c([H])c(Oc7c([H])c([H])c(F)c([H])c7F)c([H])c6[H])c(C(=O)N([H])[H])c5N([H])[H])C4([H])[H])c([H])c3[H])c([H])c([H])c2C1([H])[H]

$$$$
79:0:0
     RDKit          3D

 97104  0  0  1  0  0  0  0  0999 V2000
  -26.0560  -24.1260   21.0680 C   0  0  0  0  0  3  0  0  0  0  0  0
  -27.0310  -24.7950   21.9600 N   0  0  0  0  0  4  0  0  0  0  0  0
  -26.6860  -25.7270   22.1360 H   0  0  0  0  0  0  0  0  0  0  0  0
  -27.0360  -24.3160   22.8490 H   0  0  0  0  0  0  0  0  0  0  0  0
  -28.4140  -24.9030   21.4270 C   0  0  0  0  0  2  0  0  0  0  0  0
  -28.9620  -26.3440   21.4260 C   0  0  0  0  0  2  0  0  0  0  0  0
  -28.6420  -26.9800   20.1870 O   0  0  0  0  0  0  0  0  0  0  0  0
  -24.7600  -31.9670   23.4160 C   0  0  0  0  0  0  0  0  0  0  0  0
  -27.4870  -27.7120   20.2050 C   0  0  0  0  0  0  0  0  0  0  0  0
  -23.5790  -30.6170   21.7030 C   0  0  0  0  0  3  0  0  0  0  0  0
  -25.0700  -29.1520   20.2390 C   0  0  0  0  0  0  0  0  0  0  0  0
  -26.0960  -31.0210   21.5460 C   0  0  0  0  0  2  0  0  0  0  0  0
  -26.2060  -29.6740   20.8710 C   0  0  0  0  0  0  0  0  0  0  0  0
  -27.4160  -28.9540   20.8660 C   0  0  0  0  0  3  0  0  0  0  0  0
  -26.3530  -27.2130   19.5330 C   0  0  0  0  0  3  0  0  0  0  0  0
  -25.1360  -27.9140   19.5710 C   0  0  0  0  0  3  0  0  0  0  0  0
  -23.8110  -29.9850   20.3030 C   0  0  0  0  0  2  0  0  0  0  0  0
  -24.8270  -31.2140   22.2820 N   0  0  0  0  0  0  0  0  0  0  0  0
  -23.6730  -32.2100   23.9570 O   0  0  0  0  0  0  0  0  0  0  0  0
  -22.9300  -29.5560   22.6180 C   0  0  0  0  0  0  0  0  0  0  0  0
  -21.6090  -29.3720   22.4710 N   0  0  0  0  0  0  0  0  0  0  0  0
  -23.6140  -28.8980   23.4060 O   0  0  0  0  0  0  0  0  0  0  0  0
  -21.1210  -29.9620   21.8120 H   0  0  0  0  0  0  0  0  0  0  0  0
  -18.2440  -28.1230   22.8600 C   0  0  0  0  0  0  0  0  0  0  0  0
  -20.7920  -28.4010   23.1930 C   0  0  0  0  0  3  0  0  0  0  0  0
  -20.9220  -26.9920   22.5720 C   0  0  0  0  0  2  0  0  0  0  0  0
  -19.8440  -26.6880   21.5250 C   0  0  0  0  0  2  0  0  0  0  0  0
  -18.4500  -26.7970   22.1500 C   0  0  0  0  0  2  0  0  0  0  0  0
  -19.3450  -28.8830   23.3370 C   0  0  0  0  0  0  0  0  0  0  0  0
  -19.1020  -30.1260   23.9610 C   0  0  0  0  0  3  0  0  0  0  0  0
  -17.7910  -30.6100   24.1130 C   0  0  0  0  0  3  0  0  0  0  0  0
  -16.7030  -29.8470   23.6560 C   0  0  0  0  0  3  0  0  0  0  0  0
  -16.9310  -28.6060   23.0340 C   0  0  0  0  0  3  0  0  0  0  0  0
  -26.0390  -32.5750   24.0730 C   0  0  0  0  0  3  0  0  0  0  0  0
  -26.5220  -31.7850   25.3510 C   0  0  1  0  0  0  0  0  0  0  0  0
  -25.4020  -31.5350   26.3850 C   0  0  0  0  0  1  0  0  0  0  0  0
  -27.1150  -30.4120   24.9530 C   0  0  0  0  0  1  0  0  0  0  0  0
  -27.6580  -32.5660   26.0540 C   0  0  0  0  0  1  0  0  0  0  0  0
  -25.7410  -33.9740   24.4080 N   0  0  0  0  0  0  0  0  0  0  0  0
  -26.1020  -35.0240   23.6580 C   0  0  0  0  0  0  0  0  0  0  0  0
  -26.7900  -34.9190   22.6390 O   0  0  0  0  0  0  0  0  0  0  0  0
  -25.1370  -34.1320   25.1980 H   0  0  0  0  0  0  0  0  0  0  0  0
  -24.3930  -36.8270   23.2770 C   0  0  0  0  0  1  0  0  0  0  0  0
  -25.6170  -36.4130   24.1100 C   0  0  0  0  0  3  0  0  0  0  0  0
  -27.7460  -37.2750   24.9770 C   0  0  0  0  0  1  0  0  0  0  0  0
  -26.6590  -37.4590   24.0180 N   0  0  0  0  0  0  0  0  0  0  0  0
  -26.2560  -38.3810   24.1710 H   0  0  0  0  0  0  0  0  0  0  0  0
  -27.5370  -22.1270   20.3420 C   0  0  0  0  0  3  0  0  0  0  0  0
  -26.3910  -22.6470   20.8570 C   0  0  0  0  0  3  0  0  0  0  0  0
  -27.6630  -20.6890   20.1600 C   0  0  0  0  0  0  0  0  0  0  0  0
  -28.8950  -20.2910   19.7880 N   0  0  0  0  0  0  0  0  0  0  0  0
  -26.7370  -19.8890   20.2990 O   0  0  0  0  0  0  0  0  0  0  0  0
  -29.6010  -21.0020   19.6300 H   0  0  0  0  0  0  0  0  0  0  0  0
  -29.2120  -18.9100   19.3920 C   0  0  0  0  0  2  0  0  0  0  0  0
  -30.5970  -18.3830   19.8360 C   0  0  0  0  0  2  0  0  0  0  0  0
  -30.6030  -16.8490   19.7140 C   0  0  0  0  0  2  0  0  0  0  0  0
  -32.2470  -15.0460   19.6990 C   0  0  0  0  0  0  0  0  0  0  0  0
  -31.7860  -12.6950   19.1050 C   0  0  0  0  0  2  0  0  0  0  0  0
  -30.8130  -12.6270   17.9130 C   0  0  0  0  0  2  0  0  0  0  0  0
  -29.3500  -12.6510   18.3990 C   0  0  0  0  0  2  0  0  0  0  0  0
  -29.0820  -13.7930   19.4060 C   0  0  0  0  0  3  0  0  0  0  0  0
  -30.1710  -13.8300   20.5100 C   0  0  0  0  0  2  0  0  0  0  0  0
  -31.4840  -13.9260   19.8540 N   0  0  0  0  0  0  0  0  0  0  0  0
  -33.3250  -15.0460   19.1100 O   0  0  0  0  0  0  0  0  0  0  0  0
  -31.8020  -16.1910   20.2370 N   0  0  0  0  0  0  0  0  0  0  0  0
  -32.5600  -16.8380   20.3960 H   0  0  0  0  0  0  0  0  0  0  0  0
  -26.8660  -14.7440   20.3050 C   0  0  0  0  0  0  0  0  0  0  0  0
  -25.7010  -14.1420   20.6870 C   0  0  0  0  0  0  0  0  0  0  0  0
  -25.9160  -12.7370   20.5310 C   0  0  0  0  0  0  0  0  0  0  0  0
  -27.7330  -13.7210   19.9560 N   0  0  0  0  0  0  0  0  0  0  0  0
  -27.1630  -12.5040   20.1410 N   0  0  0  0  0  0  0  0  0  0  0  0
  -24.9950  -11.6070   20.6850 C   0  0  0  0  0  0  0  0  0  0  0  0
  -25.3020  -10.5190   21.5300 C   0  0  0  0  0  3  0  0  0  0  0  0
  -24.3960   -9.4490   21.6760 C   0  0  0  0  0  3  0  0  0  0  0  0
  -23.1640   -9.4600   20.9780 C   0  0  0  0  0  0  0  0  0  0  0  0
  -22.8710  -10.5370   20.1220 C   0  0  0  0  0  3  0  0  0  0  0  0
  -23.7780  -11.6010   19.9740 C   0  0  0  0  0  3  0  0  0  0  0  0
  -22.2320   -8.4540   21.0400 O   0  0  0  0  0  0  0  0  0  0  0  0
  -22.0690   -7.6900   22.1680 C   0  0  0  0  0  0  0  0  0  0  0  0
  -21.7750   -8.2630   23.4230 C   0  0  0  0  0  3  0  0  0  0  0  0
  -21.5500   -7.4340   24.5420 C   0  0  0  0  0  3  0  0  0  0  0  0
  -21.6130   -6.0350   24.4030 C   0  0  0  0  0  0  0  0  0  0  0  0
  -21.8990   -5.4620   23.1520 C   0  0  0  0  0  3  0  0  0  0  0  0
  -22.1270   -6.2880   22.0370 C   0  0  0  0  0  0  0  0  0  0  0  0
  -22.3830   -5.7290   20.8290 F   0  0  0  0  0  0  0  0  0  0  0  0
  -21.3900   -5.2380   25.4740 F   0  0  0  0  0  0  0  0  0  0  0  0
  -24.4220  -14.8250   21.0800 C   0  0  0  0  0  0  0  0  0  0  0  0
  -23.6400  -14.2130   21.9600 N   0  0  0  0  0  0  0  0  0  0  0  0
  -24.1290  -15.9360   20.6380 O   0  0  0  0  0  0  0  0  0  0  0  0
  -23.8880  -13.3190   22.3580 H   0  0  0  0  0  0  0  0  0  0  0  0
  -22.7830  -14.6570   22.2580 H   0  0  0  0  0  0  0  0  0  0  0  0
  -27.2510  -16.0820   20.1970 N   0  0  0  0  0  0  0  0  0  0  0  0
  -26.6010  -16.8310   20.4030 H   0  0  0  0  0  0  0  0  0  0  0  0
  -28.1260  -16.4010   19.8010 H   0  0  0  0  0  0  0  0  0  0  0  0
  -24.6240  -24.3300   21.6330 C   0  0  0  0  0  2  0  0  0  0  0  0
  -23.6310  -23.8770   20.7250 O   0  0  0  0  0  0  0  0  0  0  0  0
  -22.7800  -24.1360   21.0650 H   0  0  0  0  0  0  0  0  0  0  0  0
  1 49  1  0
  1 95  1  0
  1  2  1  0
  2  3  1  0
  2  4  1  0
  5  2  1  0
  6  5  1  0
  7  9  1  0
  7  6  1  0
  8 19  2  0
  9 14  1  0
 10 18  1  0
 10 20  1  0
 11 17  1  0
 11 13  1  0
 12 18  1  0
 13 12  1  0
 14 13  2  0
 15 16  1  0
 15  9  2  0
 16 11  2  0
 17 10  1  0
 18  8  1  0
 20 22  2  0
 21 20  1  0
 23 21  1  0
 24 33  2  0
 24 29  1  0
 25 21  1  0
 25 29  1  0
 26 25  1  0
 27 28  1  0
 27 26  1  0
 28 24  1  0
 29 30  2  0
 30 31  1  0
 32 31  2  0
 33 32  1  0
 34  8  1  0
 34 39  1  0
 34 35  1  0
 35 38  1  1
 35 36  1  0
 37 35  1  0
 39 42  1  0
 40 44  1  0
 40 39  1  0
 41 40  2  0
 44 43  1  0
 46 44  1  0
 46 47  1  0
 46 45  1  0
 48 49  2  0
 50 52  2  0
 50 48  1  0
 51 50  1  0
 53 51  1  0
 54 51  1  0
 54 55  1  0
 56 55  1  0
 56 65  1  0
 57 63  1  0
 57 65  1  0
 58 63  1  0
 59 60  1  0
 59 58  1  0
 61 60  1  0
 61 70  1  0
 61 62  1  0
 63 62  1  0
 64 57  2  0
 65 66  1  0
 67 68  2  0
 68 87  1  0
 69 72  1  0
 69 68  1  0
 70 71  1  0
 70 67  1  0
 71 69  2  0
 72 73  1  0
 73 74  2  0
 75 78  1  0
 75 74  1  0
 76 75  2  0
 77 76  1  0
 77 72  2  0
 78 79  1  0
 79 80  1  0
 80 81  2  0
 82 81  1  0
 82 86  1  0
 83 82  2  0
 84 79  2  0
 84 83  1  0
 85 84  1  0
 87 88  1  0
 88 91  1  0
 88 90  1  0
 89 87  2  0
 92 67  1  0
 92 93  1  0
 94 92  1  0
 96 97  1  0
 96 95  1  0
M  ISO  4   6 101   7 101  57 100  65 100
M  END
>  <TORSDO>  (78) 
F 26

>  <SCORE>  (78) 
-9.224

>  <name>  (78) 
79

>  <ligand_id>  (78) 
79

>  <original_smiles>  (78) 
[H]OC([H])([H])C([H])(C([H])=C([H])C(=O)N([H])C([H])([H])C([H])([H])C([H])([H])N([H])C(=O)N1C([H])([H])C([H])([H])C([H])([H])C([H])(n2nc(-c3c([H])c([H])c(Oc4c([H])c([H])c(F)c([H])c4F)c([H])c3[H])c(C(=O)N([H])[H])c2N([H])[H])C1([H])[H])[N+]([H])([H])C([H])([H])C([H])([H])Oc1c([H])c([H])c2c(c1[H])C([H])([H])N(C(=O)C([H])(N([H])C(=O)C([H])(N([H])C([H])([H])[H])C([H])([H])[H])C(C([H])([H])[H])(C([H])([H])[H])C([H])([H])[H])C([H])(C(=O)N([H])C1([H])c3c([H])c([H])c([H])c([H])c3C([H])([H])C([H])([H])C1([H])[H])C2([H])[H]

>  <smiles>  (78) 
[H]OC([H])([H])C([H])(C([H])=C([H])C(=O)N([H])C([H])([H])C([H])([H])C([H])([H])N([H])C(=O)N1C([H])([H])C([H])([H])C([H])([H])C([H])(n2nc(-c3c([H])c([H])c(Oc4c([H])c([H])c(F)c([H])c4F)c([H])c3[H])c(C(=O)N([H])[H])c2N([H])[H])C1([H])[H])[N+]([H])([H])C([H])([H])C([H])([H])Oc1c([H])c([H])c2c(c1[H])C([H])([H])N(C(=O)C([H])(N([H])C(=O)C([H])(N([H])C([H])([H])[H])C([H])([H])[H])C(C([H])([H])[H])(C([H])([H])[H])C([H])([H])[H])C([H])(C(=O)N([H])C1([H])c3c([H])c([H])c([H])c([H])c3C([H])([H])C([H])([H])C1([H])[H])C2([H])[H]

$$$$
80:0:0
     RDKit          3D

102110  0  0  1  0  0  0  0  0999 V2000
  -25.9270  -23.7500   21.7640 C   0  0  0  0  0  3  0  0  0  0  0  0
  -27.2060  -23.7020   22.3440 C   0  0  0  0  0  3  0  0  0  0  0  0
  -25.7910  -23.9060   20.3700 C   0  0  0  0  0  3  0  0  0  0  0  0
  -28.2120  -24.0360   20.1480 C   0  0  0  0  0  3  0  0  0  0  0  0
  -28.3540  -23.8080   21.5300 C   0  0  0  0  0  0  0  0  0  0  0  0
  -26.9330  -24.0740   19.5520 C   0  0  0  0  0  0  0  0  0  0  0  0
  -29.7440  -23.5900   22.1140 C   0  0  0  0  0  2  0  0  0  0  0  0
  -30.3690  -22.3460   21.6070 N   0  0  0  0  0  4  0  0  0  0  0  0
  -31.3090  -22.2790   21.9560 H   0  0  0  0  0  0  0  0  0  0  0  0
  -30.4410  -22.3980   20.6020 H   0  0  0  0  0  0  0  0  0  0  0  0
  -29.6590  -21.0620   21.8190 C   0  0  0  0  0  2  0  0  0  0  0  0
  -30.3430  -20.0350   20.9200 C   0  0  0  0  0  0  0  0  0  0  0  0
  -30.2020  -18.7270   21.1860 N   0  0  0  0  0  0  0  0  0  0  0  0
  -30.9980  -20.4360   19.9490 O   0  0  0  0  0  0  0  0  0  0  0  0
  -29.6690  -18.4480   21.9950 H   0  0  0  0  0  0  0  0  0  0  0  0
  -30.7620  -17.7020   20.3080 C   0  0  0  0  0  2  0  0  0  0  0  0
  -30.4180  -16.2480   20.6890 C   0  0  0  0  0  2  0  0  0  0  0  0
  -31.7880  -14.2510   19.9910 C   0  0  0  0  0  0  0  0  0  0  0  0
  -31.3540  -11.8990   19.4230 C   0  0  0  0  0  2  0  0  0  0  0  0
  -30.4530  -11.8650   18.1760 C   0  0  0  0  0  2  0  0  0  0  0  0
  -28.9680  -11.9150   18.5840 C   0  0  0  0  0  2  0  0  0  0  0  0
  -28.6680  -13.0630   19.5890 C   0  0  0  0  0  3  0  0  0  0  0  0
  -29.6880  -13.0750   20.7500 C   0  0  0  0  0  2  0  0  0  0  0  0
  -31.0320  -13.1340   20.1540 N   0  0  0  0  0  0  0  0  0  0  0  0
  -32.9550  -14.2250   19.6050 O   0  0  0  0  0  0  0  0  0  0  0  0
  -31.1070  -15.3770   19.7430 N   0  0  0  0  0  0  0  0  0  0  0  0
  -31.6270  -15.9250   19.0730 H   0  0  0  0  0  0  0  0  0  0  0  0
  -26.4110  -14.0220   20.3610 C   0  0  0  0  0  0  0  0  0  0  0  0
  -25.2410  -13.4190   20.7290 C   0  0  0  0  0  0  0  0  0  0  0  0
  -25.4780  -12.0120   20.6460 C   0  0  0  0  0  0  0  0  0  0  0  0
  -27.3000  -12.9940   20.0870 N   0  0  0  0  0  0  0  0  0  0  0  0
  -26.7400  -11.7790   20.3080 N   0  0  0  0  0  0  0  0  0  0  0  0
  -24.5650  -10.8760   20.8110 C   0  0  0  0  0  0  0  0  0  0  0  0
  -24.8710   -9.8000   21.6730 C   0  0  0  0  0  3  0  0  0  0  0  0
  -23.9670   -8.7280   21.8280 C   0  0  0  0  0  3  0  0  0  0  0  0
  -22.7400   -8.7260   21.1230 C   0  0  0  0  0  0  0  0  0  0  0  0
  -22.4520   -9.7890   20.2490 C   0  0  0  0  0  3  0  0  0  0  0  0
  -23.3540  -10.8530   20.0900 C   0  0  0  0  0  3  0  0  0  0  0  0
  -21.8100   -7.7130   21.1910 O   0  0  0  0  0  0  0  0  0  0  0  0
  -21.6700   -6.9440   22.3170 C   0  0  0  0  0  0  0  0  0  0  0  0
  -21.3940   -7.5130   23.5800 C   0  0  0  0  0  3  0  0  0  0  0  0
  -21.1860   -6.6810   24.6970 C   0  0  0  0  0  3  0  0  0  0  0  0
  -21.2460   -5.2830   24.5540 C   0  0  0  0  0  0  0  0  0  0  0  0
  -21.5120   -4.7130   23.2970 C   0  0  0  0  0  3  0  0  0  0  0  0
  -21.7220   -5.5420   22.1810 C   0  0  0  0  0  0  0  0  0  0  0  0
  -21.9600   -4.9900   20.9680 F   0  0  0  0  0  0  0  0  0  0  0  0
  -21.0380   -4.4810   25.6240 F   0  0  0  0  0  0  0  0  0  0  0  0
  -23.9430  -14.1010   21.0510 C   0  0  0  0  0  0  0  0  0  0  0  0
  -23.1510  -13.5130   21.9400 N   0  0  0  0  0  0  0  0  0  0  0  0
  -23.6520  -15.1880   20.5490 O   0  0  0  0  0  0  0  0  0  0  0  0
  -23.4050  -12.6300   22.3550 H   0  0  0  0  0  0  0  0  0  0  0  0
  -22.2810  -13.9480   22.2080 H   0  0  0  0  0  0  0  0  0  0  0  0
  -26.7930  -15.3530   20.2250 N   0  0  0  0  0  0  0  0  0  0  0  0
  -26.1420  -16.1170   20.3560 H   0  0  0  0  0  0  0  0  0  0  0  0
  -27.6970  -15.6510   19.8770 H   0  0  0  0  0  0  0  0  0  0  0  0
  -26.8360  -24.1730   18.0270 C   0  0  0  0  0  3  0  0  0  0  0  0
  -25.8990  -23.1430   17.5240 N   0  0  0  0  0  4  0  0  0  0  0  0
  -24.9430  -23.3570   17.7430 H   0  0  0  0  0  0  0  0  0  0  0  0
  -26.1090  -22.2590   17.9550 H   0  0  0  0  0  0  0  0  0  0  0  0
  -25.9770  -23.0120   16.5290 H   0  0  0  0  0  0  0  0  0  0  0  0
  -26.5740  -25.5920   17.4340 C   0  0  0  0  0  2  0  0  0  0  0  0
  -26.9900  -26.6830   18.2830 O   0  0  0  0  0  0  0  0  0  0  0  0
  -25.2710  -31.3400   23.4270 C   0  0  0  0  0  0  0  0  0  0  0  0
  -26.0380  -27.5500   18.7930 C   0  0  0  0  0  0  0  0  0  0  0  0
  -23.4450  -30.7010   21.8930 C   0  0  0  0  0  3  0  0  0  0  0  0
  -24.1460  -29.3960   19.8210 C   0  0  0  0  0  0  0  0  0  0  0  0
  -25.8810  -30.6360   21.1130 C   0  0  0  0  0  2  0  0  0  0  0  0
  -25.4930  -29.5040   20.1820 C   0  0  0  0  0  0  0  0  0  0  0  0
  -26.4400  -28.5740   19.6870 C   0  0  0  0  0  3  0  0  0  0  0  0
  -24.6690  -27.4630   18.4590 C   0  0  0  0  0  3  0  0  0  0  0  0
  -23.7260  -28.3700   18.9650 C   0  0  0  0  0  3  0  0  0  0  0  0
  -23.1900  -30.4150   20.3880 C   0  0  0  0  0  2  0  0  0  0  0  0
  -24.9000  -30.8830   22.1980 N   0  0  0  0  0  0  0  0  0  0  0  0
  -24.4240  -31.6400   24.2820 O   0  0  0  0  0  0  0  0  0  0  0  0
  -22.7840  -29.5780   22.7230 C   0  0  0  0  0  0  0  0  0  0  0  0
  -21.4450  -29.5040   22.6640 N   0  0  0  0  0  0  0  0  0  0  0  0
  -23.4690  -28.7860   23.3790 O   0  0  0  0  0  0  0  0  0  0  0  0
  -20.9540  -30.2030   22.1220 H   0  0  0  0  0  0  0  0  0  0  0  0
  -18.0800  -28.2030   22.9160 C   0  0  0  0  0  0  0  0  0  0  0  0
  -20.6100  -28.5040   23.3310 C   0  0  0  0  0  3  0  0  0  0  0  0
  -20.7860  -27.1120   22.6780 C   0  0  0  0  0  2  0  0  0  0  0  0
  -19.7330  -26.8140   21.6040 C   0  0  0  0  0  2  0  0  0  0  0  0
  -18.3270  -26.8850   22.2030 C   0  0  0  0  0  2  0  0  0  0  0  0
  -19.1550  -28.9690   23.4380 C   0  0  0  0  0  0  0  0  0  0  0  0
  -18.8730  -30.2000   24.0700 C   0  0  0  0  0  3  0  0  0  0  0  0
  -17.5510  -30.6670   24.1830 C   0  0  0  0  0  3  0  0  0  0  0  0
  -16.4900  -29.9000   23.6720 C   0  0  0  0  0  3  0  0  0  0  0  0
  -16.7550  -28.6670   23.0520 C   0  0  0  0  0  3  0  0  0  0  0  0
  -26.7720  -31.5360   23.8100 C   0  0  0  0  0  3  0  0  0  0  0  0
  -27.3590  -30.3440   24.6630 C   0  0  1  0  0  0  0  0  0  0  0  0
  -26.5080  -29.9870   25.9040 C   0  0  0  0  0  1  0  0  0  0  0  0
  -27.4910  -29.0670   23.7980 C   0  0  0  0  0  1  0  0  0  0  0  0
  -28.7830  -30.7000   25.1470 C   0  0  0  0  0  1  0  0  0  0  0  0
  -26.8810  -32.8100   24.5370 N   0  0  0  0  0  0  0  0  0  0  0  0
  -27.3190  -33.9570   24.0000 C   0  0  0  0  0  0  0  0  0  0  0  0
  -27.7490  -34.0330   22.8460 O   0  0  0  0  0  0  0  0  0  0  0  0
  -26.5030  -32.8270   25.4750 H   0  0  0  0  0  0  0  0  0  0  0  0
  -26.0750  -36.0840   24.4900 C   0  0  0  0  0  1  0  0  0  0  0  0
  -27.2800  -35.2160   24.8880 C   0  0  0  0  0  3  0  0  0  0  0  0
  -29.6690  -35.3640   25.4290 C   0  0  0  0  0  1  0  0  0  0  0  0
  -28.5150  -36.0220   24.8220 N   0  0  0  0  0  0  0  0  0  0  0  0
  -28.3860  -36.9160   25.2850 H   0  0  0  0  0  0  0  0  0  0  0  0
  1  2  1  0
  3  1  2  0
  4  5  1  0
  5  7  1  0
  5  2  2  0
  6  4  2  0
  6  3  1  0
  8 11  1  0
  8  9  1  0
  8  7  1  0
 10  8  1  0
 12 13  1  0
 12 11  1  0
 13 15  1  0
 14 12  2  0
 16 17  1  0
 16 13  1  0
 18 24  1  0
 19 24  1  0
 20 21  1  0
 20 19  1  0
 22 21  1  0
 22 31  1  0
 22 23  1  0
 24 23  1  0
 25 18  2  0
 26 18  1  0
 26 17  1  0
 27 26  1  0
 28 29  2  0
 29 48  1  0
 30 29  1  0
 30 33  1  0
 31 32  1  0
 31 28  1  0
 32 30  2  0
 33 34  1  0
 34 35  2  0
 36 39  1  0
 36 35  1  0
 37 36  2  0
 38 37  1  0
 38 33  2  0
 39 40  1  0
 40 41  1  0
 41 42  2  0
 43 42  1  0
 43 47  1  0
 44 43  2  0
 45 40  2  0
 45 44  1  0
 46 45  1  0
 48 49  1  0
 49 52  1  0
 49 51  1  0
 50 48  2  0
 53 54  1  0
 53 28  1  0
 55 53  1  0
 56 61  1  0
 56  6  1  0
 57 58  1  0
 57 59  1  0
 57 56  1  0
 60 57  1  0
 61 62  1  0
 62 64  1  0
 63 74  2  0
 64 69  1  0
 65 73  1  0
 65 75  1  0
 66 68  1  0
 66 72  1  0
 67 73  1  0
 68 67  1  0
 69 68  2  0
 70 64  2  0
 70 71  1  0
 71 66  2  0
 72 65  1  0
 73 63  1  0
 75 77  2  0
 76 75  1  0
 78 76  1  0
 79 88  2  0
 79 84  1  0
 80 76  1  0
 80 84  1  0
 81 80  1  0
 82 83  1  0
 82 81  1  0
 83 79  1  0
 84 85  2  0
 85 86  1  0
 87 86  2  0
 88 87  1  0
 89 63  1  0
 89 94  1  0
 89 90  1  0
 90 93  1  1
 90 91  1  0
 92 90  1  0
 94 97  1  0
 95 94  1  0
 95 99  1  0
 96 95  2  0
 99 98  1  0
101 99  1  0
101102  1  0
101100  1  0
M  ISO  4  18 100  26 100  61 101  62 101
M  END
>  <TORSDO>  (79) 
F 25

>  <SCORE>  (79) 
-10.353

>  <name>  (79) 
80

>  <ligand_id>  (79) 
80

>  <original_smiles>  (79) 
[H]c1c([H])c([H])c2c(c1[H])C([H])([H])C([H])([H])C([H])([H])C2([H])N([H])C(=O)C1([H])N(C(=O)C([H])(N([H])C(=O)C([H])(N([H])C([H])([H])[H])C([H])([H])[H])C(C([H])([H])[H])(C([H])([H])[H])C([H])([H])[H])C([H])([H])c2c([H])c(OC([H])([H])C([H])(c3c([H])c([H])c([H])c(C([H])([H])[N+]([H])([H])C([H])([H])C(=O)N([H])C([H])([H])C([H])([H])N([H])C(=O)N4C([H])([H])C([H])([H])C([H])([H])C([H])(n5nc(-c6c([H])c([H])c(Oc7c([H])c([H])c(F)c([H])c7F)c([H])c6[H])c(C(=O)N([H])[H])c5N([H])[H])C4([H])[H])c3[H])[N+]([H])([H])[H])c([H])c([H])c2C1([H])[H]

>  <smiles>  (79) 
[H]c1c([H])c([H])c2c(c1[H])C([H])([H])C([H])([H])C([H])([H])C2([H])N([H])C(=O)C1([H])N(C(=O)C([H])(N([H])C(=O)C([H])(N([H])C([H])([H])[H])C([H])([H])[H])C(C([H])([H])[H])(C([H])([H])[H])C([H])([H])[H])C([H])([H])c2c([H])c(OC([H])([H])C([H])(c3c([H])c([H])c([H])c(C([H])([H])[N+]([H])([H])C([H])([H])C(=O)N([H])C([H])([H])C([H])([H])N([H])C(=O)N4C([H])([H])C([H])([H])C([H])([H])C([H])(n5nc(-c6c([H])c([H])c(Oc7c([H])c([H])c(F)c([H])c7F)c([H])c6[H])c(C(=O)N([H])[H])c5N([H])[H])C4([H])[H])c3[H])[N+]([H])([H])[H])c([H])c([H])c2C1([H])[H]

$$$$
81:0:0
     RDKit          3D

102110  0  0  1  0  0  0  0  0999 V2000
  -30.4220  -20.8000   23.7110 C   0  0  0  0  0  3  0  0  0  0  0  0
  -30.1280  -21.8530   24.5940 C   0  0  0  0  0  3  0  0  0  0  0  0
  -30.1670  -22.3300   21.8300 C   0  0  0  0  0  3  0  0  0  0  0  0
  -30.4390  -21.0340   22.3200 C   0  0  0  0  0  0  0  0  0  0  0  0
  -29.8540  -23.1480   24.1070 C   0  0  0  0  0  0  0  0  0  0  0  0
  -29.8920  -23.4040   22.7090 C   0  0  0  0  0  0  0  0  0  0  0  0
  -29.5250  -24.2330   25.1220 C   0  0  0  0  0  1  0  0  0  0  0  0
  -30.7030  -19.9410   21.3500 C   0  0  0  0  0  0  0  0  0  0  0  0
  -29.9240  -19.7050   20.4180 O   0  0  0  0  0  0  0  0  0  0  0  0
  -32.0380  -19.1430   21.4640 C   0  0  0  0  0  0  0  0  0  0  0  0
  -31.9620  -17.9880   20.7900 N   0  0  0  0  0  0  0  0  0  0  0  0
  -33.0580  -19.5570   22.0240 O   0  0  0  0  0  0  0  0  0  0  0  0
  -31.0500  -17.7970   20.3970 H   0  0  0  0  0  0  0  0  0  0  0  0
  -33.0830  -17.1710   20.3470 C   0  0  0  0  0  2  0  0  0  0  0  0
  -33.3350  -17.3420   18.8320 C   0  0  0  0  0  2  0  0  0  0  0  0
  -32.1640  -16.9210   17.9130 C   0  0  0  0  0  2  0  0  0  0  0  0
  -31.7530  -14.4590   17.8840 C   0  0  0  0  0  0  0  0  0  0  0  0
  -31.9100  -12.1540   18.7360 C   0  0  0  0  0  2  0  0  0  0  0  0
  -30.9710  -11.1450   18.0590 C   0  0  0  0  0  2  0  0  0  0  0  0
  -29.5910  -11.1520   18.7340 C   0  0  0  0  0  2  0  0  0  0  0  0
  -29.0060  -12.5820   18.8600 C   0  0  0  0  0  3  0  0  0  0  0  0
  -30.0370  -13.5520   19.4760 C   0  0  0  0  0  2  0  0  0  0  0  0
  -31.2900  -13.4840   18.7000 N   0  0  0  0  0  0  0  0  0  0  0  0
  -32.5050  -14.2610   16.9250 O   0  0  0  0  0  0  0  0  0  0  0  0
  -31.5280  -15.6850   18.3660 N   0  0  0  0  0  0  0  0  0  0  0  0
  -30.9490  -15.7300   19.1910 H   0  0  0  0  0  0  0  0  0  0  0  0
  -27.0910  -13.6260   20.2330 C   0  0  0  0  0  0  0  0  0  0  0  0
  -25.9330  -13.0970   20.7370 C   0  0  0  0  0  0  0  0  0  0  0  0
  -25.9450  -11.7140   20.3830 C   0  0  0  0  0  0  0  0  0  0  0  0
  -27.7530  -12.5770   19.6150 N   0  0  0  0  0  0  0  0  0  0  0  0
  -27.0740  -11.4090   19.7540 N   0  0  0  0  0  0  0  0  0  0  0  0
  -24.9220  -10.6740   20.5540 C   0  0  0  0  0  0  0  0  0  0  0  0
  -25.1170   -9.5810   21.4270 C   0  0  0  0  0  3  0  0  0  0  0  0
  -24.1110   -8.6030   21.5880 C   0  0  0  0  0  3  0  0  0  0  0  0
  -22.8940   -8.7150   20.8750 C   0  0  0  0  0  0  0  0  0  0  0  0
  -22.7130   -9.7940   19.9900 C   0  0  0  0  0  3  0  0  0  0  0  0
  -23.7180  -10.7620   19.8270 C   0  0  0  0  0  3  0  0  0  0  0  0
  -21.8710   -7.8020   20.9490 O   0  0  0  0  0  0  0  0  0  0  0  0
  -21.4900   -7.2420   22.1420 C   0  0  0  0  0  0  0  0  0  0  0  0
  -21.0410   -8.0300   23.2250 C   0  0  0  0  0  3  0  0  0  0  0  0
  -20.5920   -7.4100   24.4090 C   0  0  0  0  0  3  0  0  0  0  0  0
  -20.5830   -6.0060   24.5080 C   0  0  0  0  0  0  0  0  0  0  0  0
  -21.0220   -5.2200   23.4290 C   0  0  0  0  0  3  0  0  0  0  0  0
  -21.4720   -5.8370   22.2480 C   0  0  0  0  0  0  0  0  0  0  0  0
  -21.8750   -5.0740   21.2040 F   0  0  0  0  0  0  0  0  0  0  0  0
  -20.1440   -5.4100   25.6420 F   0  0  0  0  0  0  0  0  0  0  0  0
  -24.8300  -13.8490   21.4260 C   0  0  0  0  0  0  0  0  0  0  0  0
  -24.1500  -13.2100   22.3710 N   0  0  0  0  0  0  0  0  0  0  0  0
  -24.5980  -15.0280   21.1640 O   0  0  0  0  0  0  0  0  0  0  0  0
  -24.3550  -12.2480   22.6020 H   0  0  0  0  0  0  0  0  0  0  0  0
  -23.4150  -13.6890   22.8720 H   0  0  0  0  0  0  0  0  0  0  0  0
  -27.6280  -14.9100   20.2360 N   0  0  0  0  0  0  0  0  0  0  0  0
  -27.1380  -15.7020   20.6350 H   0  0  0  0  0  0  0  0  0  0  0  0
  -28.5050  -15.1660   19.8000 H   0  0  0  0  0  0  0  0  0  0  0  0
  -30.9000  -25.4390   21.5230 C   0  0  0  0  0  1  0  0  0  0  0  0
  -29.6330  -24.7970   22.1240 C   0  0  0  0  0  3  0  0  0  0  0  0
  -28.5470  -24.7170   21.1280 N   0  0  0  0  0  4  0  0  0  0  0  0
  -28.7840  -24.0090   20.4500 H   0  0  0  0  0  0  0  0  0  0  0  0
  -27.7140  -24.4060   21.6060 H   0  0  0  0  0  0  0  0  0  0  0  0
  -28.2400  -25.9940   20.4500 C   0  0  0  0  0  2  0  0  0  0  0  0
  -27.5930  -25.7830   19.0780 C   0  0  0  0  0  2  0  0  0  0  0  0
  -27.3270  -27.0780   18.5470 O   0  0  0  0  0  0  0  0  0  0  0  0
  -24.2670  -31.4530   23.2460 C   0  0  0  0  0  0  0  0  0  0  0  0
  -26.1770  -27.7060   18.9540 C   0  0  0  0  0  0  0  0  0  0  0  0
  -22.7390  -30.3750   21.6240 C   0  0  0  0  0  3  0  0  0  0  0  0
  -23.8610  -29.1310   19.7040 C   0  0  0  0  0  0  0  0  0  0  0  0
  -25.1940  -30.7830   21.0320 C   0  0  0  0  0  2  0  0  0  0  0  0
  -25.1190  -29.5530   20.1540 C   0  0  0  0  0  0  0  0  0  0  0  0
  -26.2790  -28.8470   19.7780 C   0  0  0  0  0  3  0  0  0  0  0  0
  -24.9020  -27.2910   18.5070 C   0  0  0  0  0  3  0  0  0  0  0  0
  -23.7450  -27.9940   18.8850 C   0  0  0  0  0  3  0  0  0  0  0  0
  -22.6730  -29.9620   20.1310 C   0  0  0  0  0  2  0  0  0  0  0  0
  -24.0960  -30.8750   22.0220 N   0  0  0  0  0  0  0  0  0  0  0  0
  -23.3110  -31.6100   24.0180 O   0  0  0  0  0  0  0  0  0  0  0  0
  -22.2470  -29.1870   22.4820 C   0  0  0  0  0  0  0  0  0  0  0  0
  -21.0170  -28.7230   22.2100 N   0  0  0  0  0  0  0  0  0  0  0  0
  -22.9720  -28.6880   23.3470 O   0  0  0  0  0  0  0  0  0  0  0  0
  -20.4810  -29.1900   21.4910 H   0  0  0  0  0  0  0  0  0  0  0  0
  -18.1490  -26.5380   22.0510 C   0  0  0  0  0  0  0  0  0  0  0  0
  -20.3630  -27.5940   22.8660 C   0  0  0  0  0  3  0  0  0  0  0  0
  -21.0290  -26.2580   22.4650 C   0  0  0  0  0  2  0  0  0  0  0  0
  -20.3550  -25.5840   21.2650 C   0  0  0  0  0  2  0  0  0  0  0  0
  -18.8810  -25.2990   21.5640 C   0  0  0  0  0  2  0  0  0  0  0  0
  -18.8460  -27.6210   22.6490 C   0  0  0  0  0  0  0  0  0  0  0  0
  -18.1200  -28.7640   23.0500 C   0  0  0  0  0  3  0  0  0  0  0  0
  -16.7260  -28.8330   22.8690 C   0  0  0  0  0  3  0  0  0  0  0  0
  -16.0390  -27.7530   22.2890 C   0  0  0  0  0  3  0  0  0  0  0  0
  -16.7490  -26.6080   21.8870 C   0  0  0  0  0  3  0  0  0  0  0  0
  -25.6620  -31.9640   23.7210 C   0  0  0  0  0  3  0  0  0  0  0  0
  -26.2540  -31.1300   24.9220 C   0  0  1  0  0  0  0  0  0  0  0  0
  -25.2430  -30.8820   26.0660 C   0  0  0  0  0  1  0  0  0  0  0  0
  -26.7600  -29.7530   24.4310 C   0  0  0  0  0  1  0  0  0  0  0  0
  -27.4780  -31.8640   25.5190 C   0  0  0  0  0  1  0  0  0  0  0  0
  -25.5110  -33.3770   24.0940 N   0  0  0  0  0  0  0  0  0  0  0  0
  -25.9620  -34.4070   23.3670 C   0  0  0  0  0  0  0  0  0  0  0  0
  -26.6250  -34.2590   22.3350 O   0  0  0  0  0  0  0  0  0  0  0  0
  -24.9310  -33.5690   24.8980 H   0  0  0  0  0  0  0  0  0  0  0  0
  -24.4760  -36.4060   23.0310 C   0  0  0  0  0  1  0  0  0  0  0  0
  -25.6300  -35.8270   23.8640 C   0  0  0  0  0  3  0  0  0  0  0  0
  -27.8330  -36.4020   24.7820 C   0  0  0  0  0  1  0  0  0  0  0  0
  -26.7850  -36.7490   23.8270 N   0  0  0  0  0  0  0  0  0  0  0  0
  -26.4900  -37.7050   24.0120 H   0  0  0  0  0  0  0  0  0  0  0  0
  1  2  1  0
  3  4  1  0
  3  6  2  0
  4  1  2  0
  5  2  2  0
  5  7  1  0
  6  5  1  0
  8 10  1  0
  8  4  1  0
  9  8  2  0
 10 12  2  0
 11 10  1  0
 13 11  1  0
 14 11  1  0
 15 14  1  0
 16 25  1  0
 16 15  1  0
 17 25  1  0
 17 23  1  0
 19 20  1  0
 19 18  1  0
 21 20  1  0
 21 22  1  0
 21 30  1  0
 23 18  1  0
 23 22  1  0
 24 17  2  0
 25 26  1  0
 27 52  1  0
 27 28  2  0
 28 47  1  0
 29 32  1  0
 29 28  1  0
 30 31  1  0
 30 27  1  0
 31 29  2  0
 32 33  1  0
 33 34  2  0
 35 38  1  0
 35 34  1  0
 36 35  2  0
 37 36  1  0
 37 32  2  0
 38 39  1  0
 39 44  2  0
 39 40  1  0
 40 41  2  0
 41 42  1  0
 42 46  1  0
 43 42  2  0
 44 43  1  0
 45 44  1  0
 47 48  1  0
 48 50  1  0
 48 51  1  0
 49 47  2  0
 52 53  1  0
 54 52  1  0
 56 55  1  0
 56  6  1  0
 57 59  1  0
 57 56  1  0
 58 57  1  0
 60 57  1  0
 61 60  1  0
 62 64  1  0
 62 61  1  0
 63 74  2  0
 64 69  1  0
 65 73  1  0
 65 75  1  0
 66 72  1  0
 66 68  1  0
 67 73  1  0
 68 67  1  0
 69 68  2  0
 70 71  1  0
 70 64  2  0
 71 66  2  0
 72 65  1  0
 73 63  1  0
 75 77  2  0
 76 75  1  0
 78 76  1  0
 79 84  1  0
 80 76  1  0
 81 80  1  0
 82 83  1  0
 82 81  1  0
 83 79  1  0
 84 80  1  0
 84 85  2  0
 86 85  1  0
 87 86  2  0
 88 79  2  0
 88 87  1  0
 89 63  1  0
 89 94  1  0
 89 90  1  0
 90 93  1  1
 90 91  1  0
 92 90  1  0
 94 97  1  0
 95 99  1  0
 95 94  1  0
 96 95  2  0
 99 98  1  0
101 99  1  0
101102  1  0
101100  1  0
M  ISO  4  17 100  25 100  61 101  62 101
M  END
>  <TORSDO>  (80) 
F 25

>  <SCORE>  (80) 
-6.674

>  <name>  (80) 
81

>  <ligand_id>  (80) 
81

>  <original_smiles>  (80) 
[H]c1c([H])c([H])c2c(c1[H])C([H])([H])C([H])([H])C([H])([H])C2([H])N([H])C(=O)C1([H])N(C(=O)C([H])(N([H])C(=O)C([H])(N([H])C([H])([H])[H])C([H])([H])[H])C(C([H])([H])[H])(C([H])([H])[H])C([H])([H])[H])C([H])([H])c2c([H])c(OC([H])([H])C([H])([H])[N+]([H])([H])C([H])(c3c([H])c(C(=O)C(=O)N([H])C([H])([H])C([H])([H])C([H])([H])N([H])C(=O)N4C([H])([H])C([H])([H])C([H])([H])C([H])(n5nc(-c6c([H])c([H])c(Oc7c([H])c([H])c(F)c([H])c7F)c([H])c6[H])c(C(=O)N([H])[H])c5N([H])[H])C4([H])[H])c([H])c([H])c3C([H])([H])[H])C([H])([H])[H])c([H])c([H])c2C1([H])[H]

>  <smiles>  (80) 
[H]c1c([H])c([H])c2c(c1[H])C([H])([H])C([H])([H])C([H])([H])C2([H])N([H])C(=O)C1([H])N(C(=O)C([H])(N([H])C(=O)C([H])(N([H])C([H])([H])[H])C([H])([H])[H])C(C([H])([H])[H])(C([H])([H])[H])C([H])([H])[H])C([H])([H])c2c([H])c(OC([H])([H])C([H])([H])[N+]([H])([H])C([H])(c3c([H])c(C(=O)C(=O)N([H])C([H])([H])C([H])([H])C([H])([H])N([H])C(=O)N4C([H])([H])C([H])([H])C([H])([H])C([H])(n5nc(-c6c([H])c([H])c(Oc7c([H])c([H])c(F)c([H])c7F)c([H])c6[H])c(C(=O)N([H])[H])c5N([H])[H])C4([H])[H])c([H])c([H])c3C([H])([H])[H])C([H])([H])[H])c([H])c([H])c2C1([H])[H]

$$$$
82:0:0
     RDKit          3D

102108  0  0  1  0  0  0  0  0999 V2000
  -26.0170  -26.7350   16.5460 C   0  0  0  0  0  3  0  0  0  0  0  0
  -24.7000  -25.7280   16.5680 C   0  0  0  0  0  3  0  0  0  0  0  0
  -24.3240  -27.7130   19.7060 C   0  0  0  0  0  3  0  0  0  0  0  0
  -26.4330  -27.7870   17.8270 C   0  0  0  0  0  2  0  0  0  0  0  0
  -23.4890  -25.6270   17.7030 C   0  0  0  0  0  3  0  0  0  0  0  0
  -23.2060  -26.5180   19.1570 C   0  0  0  0  0  3  0  0  0  0  0  0
  -22.4130  -25.2840   19.6260 C   0  0  0  0  0  2  0  0  0  0  0  0
  -22.7460  -24.4600   18.2740 C   0  0  0  0  0  3  0  0  0  0  0  0
  -27.9160  -26.6390   17.7910 C   0  0  0  0  0  0  0  0  0  0  0  0
  -28.0110  -25.0740   18.0780 N   0  0  0  0  0  0  0  0  0  0  0  0
  -28.9620  -27.2000   17.4740 O   0  0  0  0  0  0  0  0  0  0  0  0
  -27.0550  -24.8310   18.2310 H   0  0  0  0  0  0  0  0  0  0  0  0
  -29.0540  -23.5950   18.3210 C   0  0  0  0  0  1  0  0  0  0  0  0
  -28.9340  -21.6630   18.8370 C   0  0  0  0  0 15  0  0  0  0  0  0
  -30.0000  -19.9950   19.2640 C   0  0  0  0  0  1  0  0  0  0  0  0
  -30.7240  -16.8580   19.9760 C   0  0  0  0  0  0  0  0  0  0  0  0
  -31.0600  -14.2040   19.5670 C   0  0  0  0  0  2  0  0  0  0  0  0
  -30.2480  -13.5520   18.4180 C   0  0  0  0  0  2  0  0  0  0  0  0
  -28.8690  -13.0960   18.9130 C   0  0  0  0  0  2  0  0  0  0  0  0
  -28.2240  -14.2120   19.7700 C   0  0  0  0  0  3  0  0  0  0  0  0
  -29.1780  -14.8170   20.8330 C   0  0  0  0  0  2  0  0  0  0  0  0
  -30.3030  -15.4430   20.0840 N   0  0  0  0  0  0  0  0  0  0  0  0
  -31.9700  -16.8400   20.0390 O   0  0  0  0  0  0  0  0  0  0  0  0
  -29.9000  -18.1850   19.6220 N   0  0  0  0  0  0  0  0  0  0  0  0
  -28.9490  -17.8820   19.4610 H   0  0  0  0  0  0  0  0  0  0  0  0
  -25.8380  -14.6660   20.5110 C   0  0  0  0  0  0  0  0  0  0  0  0
  -24.7900  -13.8450   20.8150 C   0  0  0  0  0  0  0  0  0  0  0  0
  -25.3010  -12.5140   20.7660 C   0  0  0  0  0  0  0  0  0  0  0  0
  -26.9140  -13.8350   20.2800 N   0  0  0  0  0  0  0  0  0  0  0  0
  -26.6040  -12.5300   20.5100 N   0  0  0  0  0  0  0  0  0  0  0  0
  -24.6150  -11.2220   20.8870 C   0  0  0  0  0  0  0  0  0  0  0  0
  -24.9770  -10.2860   21.8780 C   0  0  0  0  0  3  0  0  0  0  0  0
  -24.2820   -9.0630   21.9910 C   0  0  0  0  0  3  0  0  0  0  0  0
  -23.2120   -8.7670   21.1120 C   0  0  0  0  0  0  0  0  0  0  0  0
  -22.8790   -9.6930   20.1100 C   0  0  0  0  0  3  0  0  0  0  0  0
  -23.5730  -10.9070   19.9950 C   0  0  0  0  0  3  0  0  0  0  0  0
  -22.4940   -7.5970   21.1330 O   0  0  0  0  0  0  0  0  0  0  0  0
  -22.2090   -6.9520   22.3090 C   0  0  0  0  0  0  0  0  0  0  0  0
  -21.4720   -7.5700   23.3430 C   0  0  0  0  0  3  0  0  0  0  0  0
  -21.1360   -6.8420   24.5010 C   0  0  0  0  0  3  0  0  0  0  0  0
  -21.5340   -5.4960   24.6270 C   0  0  0  0  0  0  0  0  0  0  0  0
  -22.2610   -4.8760   23.5940 C   0  0  0  0  0  3  0  0  0  0  0  0
  -22.5940   -5.6030   22.4380 C   0  0  0  0  0  0  0  0  0  0  0  0
  -23.2770   -4.9940   21.4390 F   0  0  0  0  0  0  0  0  0  0  0  0
  -21.2040   -4.7920   25.7350 F   0  0  0  0  0  0  0  0  0  0  0  0
  -23.3680  -14.2630   21.0430 C   0  0  0  0  0  0  0  0  0  0  0  0
  -22.6460  -13.5270   21.8820 N   0  0  0  0  0  0  0  0  0  0  0  0
  -22.9110  -15.2820   20.5230 O   0  0  0  0  0  0  0  0  0  0  0  0
  -23.0350  -12.6970   22.3010 H   0  0  0  0  0  0  0  0  0  0  0  0
  -21.6930  -13.7860   22.0940 H   0  0  0  0  0  0  0  0  0  0  0  0
  -25.9700  -16.0430   20.3560 N   0  0  0  0  0  0  0  0  0  0  0  0
  -25.1920  -16.6780   20.4720 H   0  0  0  0  0  0  0  0  0  0  0  0
  -26.8170  -16.5060   20.0440 H   0  0  0  0  0  0  0  0  0  0  0  0
  -23.6100  -23.1980   18.2850 C   0  0  0  0  0  2  0  0  0  0  0  0
  -25.2520  -21.6570   19.3270 C   0  0  0  0  0  1  0  0  0  0  0  0
  -24.7070  -23.1000   19.4170 C   0  0  0  0  0  3  0  0  0  0  0  0
  -25.8010  -24.1500   19.3200 N   0  0  0  0  0  4  0  0  0  0  0  0
  -26.6360  -23.7260   18.9580 H   0  0  0  0  0  0  0  0  0  0  0  0
  -25.4610  -24.7930   18.6240 H   0  0  0  0  0  0  0  0  0  0  0  0
  -26.2160  -24.9740   20.5420 C   0  0  0  0  0  2  0  0  0  0  0  0
  -27.7960  -25.2900   20.7420 C   0  0  0  0  0  2  0  0  0  0  0  0
  -28.4300  -26.6100   21.0660 O   0  0  0  0  0  0  0  0  0  0  0  0
  -26.0240  -30.1830   26.9700 C   0  0  0  0  0  0  0  0  0  0  0  0
  -27.5660  -27.5450   21.4600 C   0  0  0  0  0  0  0  0  0  0  0  0
  -24.7520  -30.6940   24.9140 C   0  0  0  0  0  3  0  0  0  0  0  0
  -25.9720  -30.7040   22.4400 C   0  0  0  0  0  3  0  0  0  0  0  0
  -27.3090  -30.4260   24.7110 C   0  0  0  0  0  2  0  0  0  0  0  0
  -27.2280  -30.0290   23.1590 C   0  0  0  0  0  3  0  0  0  0  0  0
  -28.0210  -28.6840   22.6350 C   0  0  0  0  0  2  0  0  0  0  0  0
  -26.1530  -27.8240   20.3850 C   0  0  0  0  0  0  0  0  0  0  0  0
  -25.2670  -30.0830   21.1080 C   0  0  0  0  0  1  0  0  0  0  0  0
  -24.9820  -31.3490   23.4730 C   0  0  0  0  0  2  0  0  0  0  0  0
  -26.0540  -30.3880   25.5900 N   0  0  0  0  0  0  0  0  0  0  0  0
  -24.9700  -30.2290   27.6200 O   0  0  0  0  0  0  0  0  0  0  0  0
  -23.7220  -29.5030   25.0010 C   0  0  0  0  0  0  0  0  0  0  0  0
  -22.5310  -29.5990   24.3520 N   0  0  0  0  0  0  0  0  0  0  0  0
  -23.9840  -28.5160   25.6980 O   0  0  0  0  0  0  0  0  0  0  0  0
  -22.3290  -30.4560   23.8560 H   0  0  0  0  0  0  0  0  0  0  0  0
  -19.5430  -28.4420   22.6240 C   0  0  0  0  0  0  0  0  0  0  0  0
  -21.4460  -28.5870   24.3720 C   0  0  0  0  0  3  0  0  0  0  0  0
  -21.8660  -27.2650   23.7650 C   0  0  0  0  0  2  0  0  0  0  0  0
  -21.7240  -27.2090   22.2230 C   0  0  0  0  0  2  0  0  0  0  0  0
  -20.2300  -27.3080   21.8730 C   0  0  0  0  0  2  0  0  0  0  0  0
  -20.1250  -29.0500   23.7750 C   0  0  0  0  0  0  0  0  0  0  0  0
  -19.4490  -30.0920   24.4310 C   0  0  0  0  0  3  0  0  0  0  0  0
  -18.2120  -30.5510   23.9520 C   0  0  0  0  0  3  0  0  0  0  0  0
  -17.6330  -29.9520   22.8210 C   0  0  0  0  0  3  0  0  0  0  0  0
  -18.2890  -28.8950   22.1660 C   0  0  0  0  0  3  0  0  0  0  0  0
  -27.3180  -29.9090   27.8090 C   0  0  0  0  0  3  0  0  0  0  0  0
  -27.2820  -28.5250   28.5750 C   0  0  1  0  0  0  0  0  0  0  0  0
  -26.0090  -28.2860   29.4290 C   0  0  0  0  0  1  0  0  0  0  0  0
  -27.3810  -27.3510   27.5720 C   0  0  0  0  0  1  0  0  0  0  0  0
  -28.4970  -28.3990   29.5230 C   0  0  0  0  0  1  0  0  0  0  0  0
  -27.5000  -31.0010   28.7920 N   0  0  0  0  0  0  0  0  0  0  0  0
  -28.3310  -32.0440   28.6430 C   0  0  0  0  0  0  0  0  0  0  0  0
  -29.0680  -32.1620   27.6580 O   0  0  0  0  0  0  0  0  0  0  0  0
  -26.9140  -30.9730   29.6120 H   0  0  0  0  0  0  0  0  0  0  0  0
  -27.5720  -34.3630   29.2930 C   0  0  0  0  0  1  0  0  0  0  0  0
  -28.3650  -33.1290   29.7500 C   0  0  0  0  0  3  0  0  0  0  0  0
  -30.4920  -32.5210   30.8270 C   0  0  0  0  0  1  0  0  0  0  0  0
  -29.7330  -33.5530   30.1330 N   0  0  0  0  0  0  0  0  0  0  0  0
  -29.7040  -34.3740   30.7310 H   0  0  0  0  0  0  0  0  0  0  0  0
  1  2  2  0
  1  4  1  0
  3 70  2  0
  5  2  1  0
  5  8  1  0
  5  6  1  0
  6  7  1  0
  6  3  1  0
  8 54  1  0
  8  7  1  0
  9  4  1  0
  9 10  1  0
 10 12  1  0
 10 13  1  0
 11  9  2  0
 15 24  1  0
 16 23  2  0
 16 22  1  0
 17 22  1  0
 18 19  1  0
 18 17  1  0
 20 19  1  0
 20 29  1  0
 20 21  1  0
 22 21  1  0
 24 16  1  0
 25 24  1  0
 26 27  2  0
 27 46  1  0
 28 27  1  0
 28 31  1  0
 29 30  1  0
 29 26  1  0
 30 28  2  0
 31 32  1  0
 32 33  2  0
 34 37  1  0
 34 33  1  0
 35 34  2  0
 36 35  1  0
 36 31  2  0
 37 38  1  0
 38 43  2  0
 38 39  1  0
 39 40  2  0
 40 41  1  0
 41 45  1  0
 42 41  2  0
 43 42  1  0
 44 43  1  0
 46 47  1  0
 47 50  1  0
 47 49  1  0
 48 46  2  0
 51 52  1  0
 51 26  1  0
 53 51  1  0
 54 56  1  0
 56 55  1  0
 57 56  1  0
 57 60  1  0
 58 57  1  0
 59 57  1  0
 60 61  1  0
 61 62  1  0
 62 64  1  0
 63 74  2  0
 64 69  1  0
 65 75  1  0
 65 73  1  0
 66 71  1  0
 66 68  1  0
 66 72  1  0
 67 73  1  0
 68 69  1  0
 68 67  1  0
 70 64  2  0
 72 65  1  0
 73 63  1  0
 75 77  2  0
 76 75  1  0
 78 76  1  0
 79 84  1  0
 80 76  1  0
 81 80  1  0
 82 81  1  0
 83 82  1  0
 83 79  1  0
 84 80  1  0
 84 85  2  0
 86 85  1  0
 87 86  2  0
 88 79  2  0
 88 87  1  0
 89 63  1  0
 89 90  1  0
 89 94  1  0
 90 91  1  1
 90 93  1  0
 92 90  1  0
 94 97  1  0
 95 94  1  0
 95 99  1  0
 96 95  2  0
 99 98  1  0
 99101  1  0
101102  1  0
101100  1  0
M  ISO  4  16 100  24 100  61 101  62 101
M  END
>  <TORSDO>  (81) 
F 25

>  <SCORE>  (81) 
-7.441

>  <name>  (81) 
82

>  <ligand_id>  (81) 
82

>  <original_smiles>  (81) 
[H]c1c([H])c([H])c2c(c1[H])C([H])([H])C([H])([H])C([H])([H])C2([H])N([H])C(=O)C1([H])N(C(=O)C([H])(N([H])C(=O)C([H])(N([H])C([H])([H])[H])C([H])([H])[H])C(C([H])([H])[H])(C([H])([H])[H])C([H])([H])[H])C([H])([H])c2c([H])c(OC([H])([H])C([H])([H])[N+]([H])([H])C([H])(C([H])([H])[H])C([H])([H])C3([H])c4c([H])c([H])c(C(=O)N([H])C([H])([H])C([H])([H])C([H])([H])N([H])C(=O)N5C([H])([H])C([H])([H])C([H])([H])C([H])(n6nc(-c7c([H])c([H])c(Oc8c([H])c([H])c(F)c([H])c8F)c([H])c7[H])c(C(=O)N([H])[H])c6N([H])[H])C5([H])[H])c([H])c4C3([H])[H])c([H])c([H])c2C1([H])[H]

>  <smiles>  (81) 
[H]c1c([H])c([H])c2c(c1[H])C([H])([H])C([H])([H])C([H])([H])C2([H])N([H])C(=O)C1([H])N(C(=O)C([H])(N([H])C(=O)C([H])(N([H])C([H])([H])[H])C([H])([H])[H])C(C([H])([H])[H])(C([H])([H])[H])C([H])([H])[H])C([H])([H])c2c([H])c(OC([H])([H])C([H])([H])[N+]([H])([H])C([H])(C([H])([H])[H])C([H])([H])C3([H])c4c([H])c([H])c(C(=O)N([H])C([H])([H])C([H])([H])C([H])([H])N([H])C(=O)N5C([H])([H])C([H])([H])C([H])([H])C([H])(n6nc(-c7c([H])c([H])c(Oc8c([H])c([H])c(F)c([H])c8F)c([H])c7[H])c(C(=O)N([H])[H])c6N([H])[H])C5([H])[H])c([H])c4C3([H])[H])c([H])c([H])c2C1([H])[H]

$$$$
83:0:0
     RDKit          3D

102110  0  0  1  0  0  0  0  0999 V2000
  -30.3930  -18.9250   17.1140 C   0  0  0  0  0  0  0  0  0  0  0  0
  -30.1410  -19.5000   18.3000 N   0  0  0  0  0  0  0  0  0  0  0  0
  -30.4040  -19.5600   16.0570 O   0  0  0  0  0  0  0  0  0  0  0  0
  -30.2130  -18.9050   19.1160 H   0  0  0  0  0  0  0  0  0  0  0  0
  -30.5170  -17.3880   17.1140 C   0  0  0  0  0  2  0  0  0  0  0  0
  -34.3180  -15.3330   16.6370 C   0  0  0  0  0  3  0  0  0  0  0  0
  -33.6500  -15.7970   15.4940 C   0  0  0  0  0  3  0  0  0  0  0  0
  -32.6300  -16.3740   18.0360 C   0  0  0  0  0  3  0  0  0  0  0  0
  -33.7930  -15.5770   17.9180 C   0  0  0  0  0  0  0  0  0  0  0  0
  -32.4340  -16.5160   15.5970 C   0  0  0  0  0  0  0  0  0  0  0  0
  -31.9180  -16.8040   16.8930 C   0  0  0  0  0  0  0  0  0  0  0  0
  -34.4980  -15.0010   19.1000 C   0  0  0  0  0  0  0  0  0  0  0  0
  -35.6340  -14.5310   19.0130 O   0  0  0  0  0  0  0  0  0  0  0  0
  -33.7880  -14.9470   20.4620 C   0  0  0  0  0  2  0  0  0  0  0  0
  -31.3660  -14.4360   20.6640 C   0  0  0  0  0  0  0  0  0  0  0  0
  -30.5370  -12.7210   19.1980 C   0  0  0  0  0  2  0  0  0  0  0  0
  -29.6420  -13.3430   18.1220 C   0  0  0  0  0  2  0  0  0  0  0  0
  -28.1820  -13.2150   18.5560 C   0  0  0  0  0  2  0  0  0  0  0  0
  -27.9120  -13.7880   19.9740 C   0  0  0  0  0  3  0  0  0  0  0  0
  -29.0250  -13.3970   21.0000 C   0  0  0  0  0  2  0  0  0  0  0  0
  -30.3990  -13.5070   20.4280 N   0  0  0  0  0  0  0  0  0  0  0  0
  -31.2160  -15.5930   20.9660 O   0  0  0  0  0  0  0  0  0  0  0  0
  -32.6280  -14.0290   20.4880 N   0  0  0  0  0  0  0  0  0  0  0  0
  -32.7810  -13.0660   20.2230 H   0  0  0  0  0  0  0  0  0  0  0  0
  -25.4230  -14.2420   20.5540 C   0  0  0  0  0  0  0  0  0  0  0  0
  -24.3750  -13.4130   20.8680 C   0  0  0  0  0  0  0  0  0  0  0  0
  -24.9110  -12.0890   20.8630 C   0  0  0  0  0  0  0  0  0  0  0  0
  -26.5420  -13.4310   20.4070 N   0  0  0  0  0  0  0  0  0  0  0  0
  -26.2240  -12.1240   20.6410 N   0  0  0  0  0  0  0  0  0  0  0  0
  -24.2310  -10.7910   21.0180 C   0  0  0  0  0  0  0  0  0  0  0  0
  -24.6360   -9.8580   22.0040 C   0  0  0  0  0  3  0  0  0  0  0  0
  -23.9670   -8.6240   22.1420 C   0  0  0  0  0  3  0  0  0  0  0  0
  -22.8760   -8.3060   21.2960 C   0  0  0  0  0  0  0  0  0  0  0  0
  -22.4960   -9.2200   20.2990 C   0  0  0  0  0  3  0  0  0  0  0  0
  -23.1670  -10.4470   20.1570 C   0  0  0  0  0  3  0  0  0  0  0  0
  -22.1840   -7.1210   21.3400 O   0  0  0  0  0  0  0  0  0  0  0  0
  -21.9920   -6.4440   22.5190 C   0  0  0  0  0  0  0  0  0  0  0  0
  -21.4150   -7.0620   23.6490 C   0  0  0  0  0  3  0  0  0  0  0  0
  -21.1650   -6.3110   24.8140 C   0  0  0  0  0  3  0  0  0  0  0  0
  -21.4880   -4.9390   24.8520 C   0  0  0  0  0  0  0  0  0  0  0  0
  -22.0590   -4.3190   23.7290 C   0  0  0  0  0  3  0  0  0  0  0  0
  -22.3070   -5.0680   22.5620 C   0  0  0  0  0  0  0  0  0  0  0  0
  -22.8370   -4.4580   21.4770 F   0  0  0  0  0  0  0  0  0  0  0  0
  -21.2470   -4.2180   25.9730 F   0  0  0  0  0  0  0  0  0  0  0  0
  -22.9390  -13.8050   21.0610 C   0  0  0  0  0  0  0  0  0  0  0  0
  -22.2160  -13.0970   21.9250 N   0  0  0  0  0  0  0  0  0  0  0  0
  -22.4570  -14.7740   20.4790 O   0  0  0  0  0  0  0  0  0  0  0  0
  -22.6220  -12.3040   22.3990 H   0  0  0  0  0  0  0  0  0  0  0  0
  -21.2480  -13.3320   22.0990 H   0  0  0  0  0  0  0  0  0  0  0  0
  -25.5150  -15.6200   20.3730 N   0  0  0  0  0  0  0  0  0  0  0  0
  -24.7110  -16.2370   20.4020 H   0  0  0  0  0  0  0  0  0  0  0  0
  -26.3740  -16.0940   20.1290 H   0  0  0  0  0  0  0  0  0  0  0  0
  -32.4460  -16.8150   13.0000 C   0  0  0  0  0  1  0  0  0  0  0  0
  -31.6820  -16.9400   14.3300 C   0  0  0  0  0  2  0  0  0  0  0  0
  -29.3420  -20.7110   18.4760 C   0  0  0  0  0  2  0  0  0  0  0  0
  -30.0930  -21.9320   19.0590 C   0  0  0  0  0  2  0  0  0  0  0  0
  -29.1380  -23.0550   19.1650 N   0  0  0  0  0  4  0  0  0  0  0  0
  -28.4210  -22.7360   19.8050 H   0  0  0  0  0  0  0  0  0  0  0  0
  -28.6980  -23.1800   18.2640 H   0  0  0  0  0  0  0  0  0  0  0  0
  -29.6160  -24.3840   19.6450 C   0  0  0  0  0  2  0  0  0  0  0  0
  -28.3930  -25.3180   19.6640 C   0  0  0  0  0  2  0  0  0  0  0  0
  -28.5060  -26.6520   20.1950 O   0  0  0  0  0  0  0  0  0  0  0  0
  -24.6390  -31.9020   23.1750 C   0  0  0  0  0  0  0  0  0  0  0  0
  -27.3270  -27.3870   20.1950 C   0  0  0  0  0  0  0  0  0  0  0  0
  -23.4570  -30.4610   21.5580 C   0  0  0  0  0  3  0  0  0  0  0  0
  -24.9270  -28.9100   20.1790 C   0  0  0  0  0  0  0  0  0  0  0  0
  -25.9900  -30.8140   21.3820 C   0  0  0  0  0  2  0  0  0  0  0  0
  -26.0840  -29.4290   20.7760 C   0  0  0  0  0  0  0  0  0  0  0  0
  -27.2820  -28.6730   20.7870 C   0  0  0  0  0  3  0  0  0  0  0  0
  -26.1300  -26.8960   19.6020 C   0  0  0  0  0  3  0  0  0  0  0  0
  -24.9470  -27.6380   19.6000 C   0  0  0  0  0  3  0  0  0  0  0  0
  -23.6810  -29.7670   20.1910 C   0  0  0  0  0  2  0  0  0  0  0  0
  -24.7150  -31.0730   22.0960 N   0  0  0  0  0  0  0  0  0  0  0  0
  -23.5480  -32.1840   23.6910 O   0  0  0  0  0  0  0  0  0  0  0  0
  -22.8010  -29.4500   22.5280 C   0  0  0  0  0  0  0  0  0  0  0  0
  -21.4840  -29.2390   22.3670 N   0  0  0  0  0  0  0  0  0  0  0  0
  -23.4750  -28.8610   23.3760 O   0  0  0  0  0  0  0  0  0  0  0  0
  -21.0040  -29.7670   21.6510 H   0  0  0  0  0  0  0  0  0  0  0  0
  -18.1200  -27.9950   22.7980 C   0  0  0  0  0  0  0  0  0  0  0  0
  -20.6610  -28.3130   23.1430 C   0  0  0  0  0  3  0  0  0  0  0  0
  -20.8110  -26.8640   22.6210 C   0  0  0  0  0  2  0  0  0  0  0  0
  -19.7510  -26.4850   21.5840 C   0  0  0  0  0  2  0  0  0  0  0  0
  -18.3460  -26.6240   22.1790 C   0  0  0  0  0  2  0  0  0  0  0  0
  -19.2100  -28.7940   23.2350 C   0  0  0  0  0  0  0  0  0  0  0  0
  -18.9490  -30.0740   23.7700 C   0  0  0  0  0  3  0  0  0  0  0  0
  -17.6310  -30.5570   23.8740 C   0  0  0  0  0  3  0  0  0  0  0  0
  -16.5550  -29.7570   23.4550 C   0  0  0  0  0  3  0  0  0  0  0  0
  -16.7990  -28.4780   22.9220 C   0  0  0  0  0  3  0  0  0  0  0  0
  -25.9140  -32.5530   23.7900 C   0  0  0  0  0  3  0  0  0  0  0  0
  -26.4700  -31.7620   25.0350 C   0  0  1  0  0  0  0  0  0  0  0  0
  -25.3950  -31.4510   26.1040 C   0  0  0  0  0  1  0  0  0  0  0  0
  -27.1010  -30.4210   24.5960 C   0  0  0  0  0  1  0  0  0  0  0  0
  -27.5980  -32.5780   25.7120 C   0  0  0  0  0  1  0  0  0  0  0  0
  -25.5680  -33.9330   24.1580 N   0  0  0  0  0  0  0  0  0  0  0  0
  -25.8960  -35.0160   23.4400 C   0  0  0  0  0  0  0  0  0  0  0  0
  -26.5920  -34.9570   22.4230 O   0  0  0  0  0  0  0  0  0  0  0  0
  -24.9480  -34.0500   24.9470 H   0  0  0  0  0  0  0  0  0  0  0  0
  -24.1360  -36.7790   23.1020 C   0  0  0  0  0  1  0  0  0  0  0  0
  -25.3690  -36.3790   23.9290 C   0  0  0  0  0  3  0  0  0  0  0  0
  -27.4670  -37.2780   24.8300 C   0  0  0  0  0  1  0  0  0  0  0  0
  -26.3800  -37.4550   23.8690 N   0  0  0  0  0  0  0  0  0  0  0  0
  -25.9530  -38.3620   24.0360 H   0  0  0  0  0  0  0  0  0  0  0  0
  1  5  1  0
  1  2  1  0
  2 55  1  0
  2  4  1  0
  3  1  2  0
  6  9  1  0
  7 10  1  0
  7  6  2  0
  9  8  2  0
  9 12  1  0
 10 11  2  0
 11  5  1  0
 11  8  1  0
 12 14  1  0
 13 12  2  0
 14 23  1  0
 15 22  2  0
 16 21  1  0
 17 18  1  0
 17 16  1  0
 19 18  1  0
 19 28  1  0
 19 20  1  0
 21 15  1  0
 21 20  1  0
 23 15  1  0
 24 23  1  0
 25 26  2  0
 26 45  1  0
 27 26  1  0
 27 30  1  0
 28 25  1  0
 28 29  1  0
 29 27  2  0
 30 31  1  0
 31 32  2  0
 33 36  1  0
 33 32  1  0
 34 33  2  0
 35 34  1  0
 35 30  2  0
 36 37  1  0
 37 42  2  0
 37 38  1  0
 38 39  2  0
 39 40  1  0
 40 44  1  0
 41 40  2  0
 42 41  1  0
 43 42  1  0
 45 46  1  0
 46 49  1  0
 46 48  1  0
 47 45  2  0
 50 51  1  0
 50 25  1  0
 52 50  1  0
 53 54  1  0
 54 10  1  0
 55 56  1  0
 56 57  1  0
 57 60  1  0
 57 58  1  0
 59 57  1  0
 60 61  1  0
 61 62  1  0
 63 74  2  0
 64 62  1  0
 64 69  1  0
 65 73  1  0
 65 75  1  0
 66 72  1  0
 66 68  1  0
 67 73  1  0
 68 69  2  0
 68 67  1  0
 70 64  2  0
 71 70  1  0
 71 66  2  0
 72 65  1  0
 73 63  1  0
 75 77  2  0
 76 75  1  0
 78 76  1  0
 79 88  2  0
 79 84  1  0
 80 76  1  0
 80 84  1  0
 81 80  1  0
 82 83  1  0
 82 81  1  0
 83 79  1  0
 84 85  2  0
 85 86  1  0
 87 86  2  0
 88 87  1  0
 89 63  1  0
 89 94  1  0
 89 90  1  0
 90 93  1  1
 90 91  1  0
 92 90  1  0
 94 97  1  0
 95 99  1  0
 95 94  1  0
 96 95  2  0
 99 98  1  0
101 99  1  0
101102  1  0
101100  1  0
M  ISO  4  15 100  23 100  61 101  62 101
M  END
>  <TORSDO>  (82) 
F 26

>  <SCORE>  (82) 
-10.765

>  <name>  (82) 
83

>  <ligand_id>  (82) 
83

>  <original_smiles>  (82) 
[H]c1c([H])c([H])c2c(c1[H])C([H])([H])C([H])([H])C([H])([H])C2([H])N([H])C(=O)C1([H])N(C(=O)C([H])(N([H])C(=O)C([H])(N([H])C([H])([H])[H])C([H])([H])[H])C(C([H])([H])[H])(C([H])([H])[H])C([H])([H])[H])C([H])([H])c2c([H])c(OC([H])([H])C([H])([H])[N+]([H])([H])C([H])([H])C([H])([H])N([H])C(=O)C([H])([H])c3c([H])c(C(=O)C([H])([H])N([H])C(=O)N4C([H])([H])C([H])([H])C([H])([H])C([H])(n5nc(-c6c([H])c([H])c(Oc7c([H])c([H])c(F)c([H])c7F)c([H])c6[H])c(C(=O)N([H])[H])c5N([H])[H])C4([H])[H])c([H])c([H])c3C([H])([H])C([H])([H])[H])c([H])c([H])c2C1([H])[H]

>  <smiles>  (82) 
[H]c1c([H])c([H])c2c(c1[H])C([H])([H])C([H])([H])C([H])([H])C2([H])N([H])C(=O)C1([H])N(C(=O)C([H])(N([H])C(=O)C([H])(N([H])C([H])([H])[H])C([H])([H])[H])C(C([H])([H])[H])(C([H])([H])[H])C([H])([H])[H])C([H])([H])c2c([H])c(OC([H])([H])C([H])([H])[N+]([H])([H])C([H])([H])C([H])([H])N([H])C(=O)C([H])([H])c3c([H])c(C(=O)C([H])([H])N([H])C(=O)N4C([H])([H])C([H])([H])C([H])([H])C([H])(n5nc(-c6c([H])c([H])c(Oc7c([H])c([H])c(F)c([H])c7F)c([H])c6[H])c(C(=O)N([H])[H])c5N([H])[H])C4([H])[H])c([H])c([H])c3C([H])([H])C([H])([H])[H])c([H])c([H])c2C1([H])[H]

$$$$
84:0:0
     RDKit          3D

 92 99  0  0  1  0  0  0  0  0999 V2000
  -28.5160  -23.7560   19.9260 C   0  0  0  0  0  3  0  0  0  0  0  0
  -29.3950  -24.0900   18.7920 N   0  0  0  0  0  4  0  0  0  0  0  0
  -30.2890  -24.4060   19.1310 H   0  0  0  0  0  0  0  0  0  0  0  0
  -28.9930  -24.8190   18.2310 H   0  0  0  0  0  0  0  0  0  0  0  0
  -29.5490  -23.2790   18.2170 H   0  0  0  0  0  0  0  0  0  0  0  0
  -29.1580  -22.4950   20.6650 C   0  0  0  0  0  0  0  0  0  0  0  0
  -28.9600  -21.1910   20.2470 N   0  0  0  0  0  0  0  0  0  0  0  0
  -29.9400  -22.7120   21.5920 O   0  0  0  0  0  0  0  0  0  0  0  0
  -28.2970  -21.0420   19.4970 H   0  0  0  0  0  0  0  0  0  0  0  0
  -29.7080  -19.9600   20.7480 C   0  0  0  0  0  2  0  0  0  0  0  0
  -29.2420  -18.4680   20.3560 C   0  0  0  0  0  3  0  0  0  0  0  0
  -30.2290  -17.2590   20.7710 C   0  0  0  0  0  3  0  0  0  0  0  0
  -30.5640  -14.6930   20.4010 C   0  0  0  0  0  0  0  0  0  0  0  0
  -30.3560  -12.4370   19.3620 C   0  0  0  0  0  2  0  0  0  0  0  0
  -29.4090  -12.5230   18.1450 C   0  0  0  0  0  2  0  0  0  0  0  0
  -27.9390  -12.3660   18.5800 C   0  0  0  0  0  2  0  0  0  0  0  0
  -27.5770  -13.2480   19.8050 C   0  0  0  0  0  3  0  0  0  0  0  0
  -28.6380  -13.1320   20.9200 C   0  0  0  0  0  2  0  0  0  0  0  0
  -29.9330  -13.4770   20.3230 N   0  0  0  0  0  0  0  0  0  0  0  0
  -31.7480  -14.8090   20.0710 O   0  0  0  0  0  0  0  0  0  0  0  0
  -29.7910  -15.8080   20.6550 N   0  0  0  0  0  0  0  0  0  0  0  0
  -28.8200  -15.6170   20.8530 H   0  0  0  0  0  0  0  0  0  0  0  0
  -25.1890  -13.8470   20.5320 C   0  0  0  0  0  0  0  0  0  0  0  0
  -24.1230  -13.0740   20.9050 C   0  0  0  0  0  0  0  0  0  0  0  0
  -24.5870  -11.7220   20.8760 C   0  0  0  0  0  0  0  0  0  0  0  0
  -26.2330  -12.9650   20.2980 N   0  0  0  0  0  0  0  0  0  0  0  0
  -25.8770  -11.6830   20.5670 N   0  0  0  0  0  0  0  0  0  0  0  0
  -23.8610  -10.4590   21.0690 C   0  0  0  0  0  0  0  0  0  0  0  0
  -24.3060   -9.4820   21.9870 C   0  0  0  0  0  3  0  0  0  0  0  0
  -23.5800   -8.2860   22.1690 C   0  0  0  0  0  3  0  0  0  0  0  0
  -22.3950   -8.0580   21.4310 C   0  0  0  0  0  0  0  0  0  0  0  0
  -21.9680   -9.0210   20.5010 C   0  0  0  0  0  3  0  0  0  0  0  0
  -22.6950  -10.2100   20.3180 C   0  0  0  0  0  3  0  0  0  0  0  0
  -21.6400   -6.9130   21.5220 O   0  0  0  0  0  0  0  0  0  0  0  0
  -21.6210   -6.1530   22.6620 C   0  0  0  0  0  0  0  0  0  0  0  0
  -21.2410   -6.6920   23.9110 C   0  0  0  0  0  3  0  0  0  0  0  0
  -21.1660   -5.8580   25.0450 C   0  0  0  0  0  3  0  0  0  0  0  0
  -21.4640   -4.4860   24.9320 C   0  0  0  0  0  0  0  0  0  0  0  0
  -21.8370   -3.9480   23.6880 C   0  0  0  0  0  3  0  0  0  0  0  0
  -21.9110   -4.7780   22.5560 C   0  0  0  0  0  0  0  0  0  0  0  0
  -22.2510   -4.2490   21.3560 F   0  0  0  0  0  0  0  0  0  0  0  0
  -21.3840   -3.6830   26.0180 F   0  0  0  0  0  0  0  0  0  0  0  0
  -22.7260  -13.5490   21.1770 C   0  0  0  0  0  0  0  0  0  0  0  0
  -22.0020  -12.8540   22.0480 N   0  0  0  0  0  0  0  0  0  0  0  0
  -22.2870  -14.5730   20.6550 O   0  0  0  0  0  0  0  0  0  0  0  0
  -22.3730  -12.0250   22.4870 H   0  0  0  0  0  0  0  0  0  0  0  0
  -21.0650  -13.1540   22.2770 H   0  0  0  0  0  0  0  0  0  0  0  0
  -25.3520  -15.2170   20.3480 N   0  0  0  0  0  0  0  0  0  0  0  0
  -24.5810  -15.8680   20.4530 H   0  0  0  0  0  0  0  0  0  0  0  0
  -26.1900  -15.6520   19.9820 H   0  0  0  0  0  0  0  0  0  0  0  0
  -28.2430  -25.1010   20.7780 C   0  0  0  0  0  2  0  0  0  0  0  0
  -28.3410  -26.4600   20.1600 O   0  0  0  0  0  0  0  0  0  0  0  0
  -24.6190  -31.8720   23.2260 C   0  0  0  0  0  0  0  0  0  0  0  0
  -27.2190  -27.3030   20.1730 C   0  0  0  0  0  0  0  0  0  0  0  0
  -23.4090  -30.4720   21.5910 C   0  0  0  0  0  3  0  0  0  0  0  0
  -24.8530  -28.9120   20.1640 C   0  0  0  0  0  0  0  0  0  0  0  0
  -25.9480  -30.7890   21.3930 C   0  0  0  0  0  2  0  0  0  0  0  0
  -26.0260  -29.4080   20.7510 C   0  0  0  0  0  0  0  0  0  0  0  0
  -27.2160  -28.6190   20.7350 C   0  0  0  0  0  3  0  0  0  0  0  0
  -26.0250  -26.8540   19.5720 C   0  0  0  0  0  3  0  0  0  0  0  0
  -24.8560  -27.6420   19.5630 C   0  0  0  0  0  3  0  0  0  0  0  0
  -23.6170  -29.7900   20.2120 C   0  0  0  0  0  2  0  0  0  0  0  0
  -24.6780  -31.0620   22.1270 N   0  0  0  0  0  0  0  0  0  0  0  0
  -23.5370  -32.1480   23.7650 O   0  0  0  0  0  0  0  0  0  0  0  0
  -22.7510  -29.4580   22.5550 C   0  0  0  0  0  0  0  0  0  0  0  0
  -21.4250  -29.2810   22.4310 N   0  0  0  0  0  0  0  0  0  0  0  0
  -23.4310  -28.8320   23.3720 O   0  0  0  0  0  0  0  0  0  0  0  0
  -20.9370  -29.8350   21.7410 H   0  0  0  0  0  0  0  0  0  0  0  0
  -18.0510  -28.0760   22.9390 C   0  0  0  0  0  0  0  0  0  0  0  0
  -20.6090  -28.3430   23.2040 C   0  0  0  0  0  3  0  0  0  0  0  0
  -20.7130  -26.9110   22.6320 C   0  0  0  0  0  2  0  0  0  0  0  0
  -19.6100  -26.5820   21.6200 C   0  0  0  0  0  2  0  0  0  0  0  0
  -18.2290  -26.7250   22.2650 C   0  0  0  0  0  2  0  0  0  0  0  0
  -19.1680  -28.8420   23.3640 C   0  0  0  0  0  0  0  0  0  0  0  0
  -18.9470  -30.1060   23.9550 C   0  0  0  0  0  3  0  0  0  0  0  0
  -17.6400  -30.6030   24.1220 C   0  0  0  0  0  3  0  0  0  0  0  0
  -16.5380  -29.8350   23.7110 C   0  0  0  0  0  3  0  0  0  0  0  0
  -16.7430  -28.5740   23.1260 C   0  0  0  0  0  3  0  0  0  0  0  0
  -25.9030  -32.5040   23.8440 C   0  0  0  0  0  3  0  0  0  0  0  0
  -25.5940  -33.9020   24.1790 N   0  0  0  0  0  0  0  0  0  0  0  0
  -25.9170  -34.9570   23.4200 C   0  0  0  0  0  0  0  0  0  0  0  0
  -26.5790  -34.8560   22.3830 O   0  0  0  0  0  0  0  0  0  0  0  0
  -25.0060  -34.0550   24.9850 H   0  0  0  0  0  0  0  0  0  0  0  0
  -24.1810  -36.7470   23.0870 C   0  0  0  0  0  1  0  0  0  0  0  0
  -25.4320  -36.3440   23.8840 C   0  0  0  0  0  3  0  0  0  0  0  0
  -27.5760  -37.2300   24.6910 C   0  0  0  0  0  1  0  0  0  0  0  0
  -26.4620  -37.4000   23.7620 N   0  0  0  0  0  0  0  0  0  0  0  0
  -26.0560  -38.3180   23.9150 H   0  0  0  0  0  0  0  0  0  0  0  0
  -26.4240  -31.7340   25.1210 C   0  0  1  0  0  0  0  0  0  0  0  0
  -25.3340  -31.4980   26.1930 C   0  0  0  0  0  1  0  0  0  0  0  0
  -27.0050  -30.3550   24.7290 C   0  0  0  0  0  1  0  0  0  0  0  0
  -27.5780  -32.5290   25.7760 C   0  0  0  0  0  1  0  0  0  0  0  0
  1  6  1  0
  1 51  1  0
  2  3  1  0
  2  1  1  0
  4  2  1  0
  5  2  1  0
  6  8  2  0
  7  6  1  0
  7 10  1  0
  9  7  1  0
 11 10  1  0
 11 12  2  0
 13 21  1  0
 14 19  1  0
 15 16  1  0
 15 14  1  0
 17 16  1  0
 17 26  1  0
 17 18  1  0
 19 13  1  0
 19 18  1  0
 20 13  2  0
 21 12  1  0
 21 22  1  0
 23 24  2  0
 24 43  1  0
 25 24  1  0
 25 28  1  0
 26 23  1  0
 26 27  1  0
 27 25  2  0
 28 29  1  0
 29 30  2  0
 31 34  1  0
 31 30  1  0
 32 31  2  0
 33 32  1  0
 33 28  2  0
 34 35  1  0
 35 36  1  0
 36 37  2  0
 38 37  1  0
 38 42  1  0
 39 38  2  0
 40 35  2  0
 40 39  1  0
 41 40  1  0
 43 44  1  0
 44 47  1  0
 44 46  1  0
 45 43  2  0
 48 49  1  0
 48 23  1  0
 50 48  1  0
 52 54  1  0
 52 51  1  0
 53 64  2  0
 54 59  1  0
 55 63  1  0
 55 65  1  0
 56 62  1  0
 56 58  1  0
 57 63  1  0
 58 57  1  0
 59 58  2  0
 60 54  2  0
 61 60  1  0
 61 56  2  0
 62 55  1  0
 63 53  1  0
 65 67  2  0
 66 65  1  0
 68 66  1  0
 69 78  2  0
 69 74  1  0
 70 66  1  0
 70 74  1  0
 71 70  1  0
 72 73  1  0
 72 71  1  0
 73 69  1  0
 74 75  2  0
 75 76  1  0
 77 76  2  0
 78 77  1  0
 79 53  1  0
 79 80  1  0
 79 89  1  0
 80 83  1  0
 81 85  1  0
 81 80  1  0
 82 81  2  0
 85 84  1  0
 87 85  1  0
 87 88  1  0
 87 86  1  0
 89 92  1  1
 89 90  1  0
 91 89  1  0
M  ISO  4  13 100  21 100  51 101  52 101
M  END
>  <TORSDO>  (83) 
F 22

>  <SCORE>  (83) 
-13.178

>  <name>  (83) 
84

>  <ligand_id>  (83) 
84

>  <original_smiles>  (83) 
[H]c1c([H])c([H])c2c(c1[H])C([H])([H])C([H])([H])C([H])([H])C2([H])N([H])C(=O)C1([H])N(C(=O)C([H])(N([H])C(=O)C([H])(N([H])C([H])([H])[H])C([H])([H])[H])C(C([H])([H])[H])(C([H])([H])[H])C([H])([H])[H])C([H])([H])c2c([H])c(OC([H])([H])C([H])(C(=O)N([H])C([H])([H])C([H])([H])C([H])([H])N([H])C(=O)N3C([H])([H])C([H])([H])C([H])([H])C([H])(n4nc(-c5c([H])c([H])c(Oc6c([H])c([H])c(F)c([H])c6F)c([H])c5[H])c(C(=O)N([H])[H])c4N([H])[H])C3([H])[H])[N+]([H])([H])[H])c([H])c([H])c2C1([H])[H]

>  <smiles>  (83) 
[H]c1c([H])c([H])c2c(c1[H])C([H])([H])C([H])([H])C([H])([H])C2([H])N([H])C(=O)C1([H])N(C(=O)C([H])(N([H])C(=O)C([H])(N([H])C([H])([H])[H])C([H])([H])[H])C(C([H])([H])[H])(C([H])([H])[H])C([H])([H])[H])C([H])([H])c2c([H])c(OC([H])([H])C([H])(C(=O)N([H])C([H])([H])C([H])([H])C([H])([H])N([H])C(=O)N3C([H])([H])C([H])([H])C([H])([H])C([H])(n4nc(-c5c([H])c([H])c(Oc6c([H])c([H])c(F)c([H])c6F)c([H])c5[H])c(C(=O)N([H])[H])c4N([H])[H])C3([H])[H])[N+]([H])([H])[H])c([H])c([H])c2C1([H])[H]

$$$$
85:0:0
     RDKit          3D

 98106  0  0  1  0  0  0  0  0999 V2000
  -29.6770  -20.9090   21.9610 C   0  0  0  0  0  3  0  0  0  0  0  0
  -30.8070  -21.8390   23.9170 C   0  0  0  0  0  3  0  0  0  0  0  0
  -29.9030  -19.6190   22.4570 C   0  0  0  0  0  3  0  0  0  0  0  0
  -31.0290  -20.5400   24.4110 C   0  0  0  0  0  3  0  0  0  0  0  0
  -30.1600  -22.0200   22.6780 C   0  0  0  0  0  0  0  0  0  0  0  0
  -30.6130  -19.4140   23.6660 C   0  0  0  0  0  0  0  0  0  0  0  0
  -32.0080  -17.9090   25.2170 C   0  0  0  0  0  1  0  0  0  0  0  0
  -30.9880  -17.9860   24.0680 C   0  0  0  0  0  3  0  0  0  0  0  0
  -31.0470  -16.0950   22.3730 C   0  0  0  0  0  3  0  0  0  0  0  0
  -31.5020  -17.2670   22.8350 C   0  0  0  0  0  3  0  0  0  0  0  0
  -31.4320  -15.5510   21.0140 C   0  0  0  0  0  2  0  0  0  0  0  0
  -30.3270  -14.1110   19.3080 C   0  0  0  0  0  0  0  0  0  0  0  0
  -29.8500  -11.9380   18.2640 C   0  0  0  0  0  2  0  0  0  0  0  0
  -28.6860  -11.9260   17.2620 C   0  0  0  0  0  2  0  0  0  0  0  0
  -27.3510  -11.7060   17.9890 C   0  0  0  0  0  2  0  0  0  0  0  0
  -27.1600  -12.7010   19.1640 C   0  0  0  0  0  3  0  0  0  0  0  0
  -28.3970  -12.7030   20.0850 C   0  0  0  0  0  2  0  0  0  0  0  0
  -29.5990  -12.9740   19.2720 N   0  0  0  0  0  0  0  0  0  0  0  0
  -31.0300  -14.5160   18.3730 O   0  0  0  0  0  0  0  0  0  0  0  0
  -30.4290  -14.6060   20.5470 N   0  0  0  0  0  0  0  0  0  0  0  0
  -29.8740  -14.1370   21.2470 H   0  0  0  0  0  0  0  0  0  0  0  0
  -25.0120  -13.2880   20.4610 C   0  0  0  0  0  0  0  0  0  0  0  0
  -24.0230  -12.5060   20.9920 C   0  0  0  0  0  0  0  0  0  0  0  0
  -24.4020  -11.1550   20.7240 C   0  0  0  0  0  0  0  0  0  0  0  0
  -25.9380  -12.4120   19.9120 N   0  0  0  0  0  0  0  0  0  0  0  0
  -25.5830  -11.1190   20.1220 N   0  0  0  0  0  0  0  0  0  0  0  0
  -23.6840   -9.8950   20.9590 C   0  0  0  0  0  0  0  0  0  0  0  0
  -24.1970   -8.9070   21.8290 C   0  0  0  0  0  3  0  0  0  0  0  0
  -23.4880   -7.7080   22.0520 C   0  0  0  0  0  3  0  0  0  0  0  0
  -22.2490   -7.4870   21.4050 C   0  0  0  0  0  0  0  0  0  0  0  0
  -21.7520   -8.4620   20.5210 C   0  0  0  0  0  3  0  0  0  0  0  0
  -22.4620   -9.6530   20.2960 C   0  0  0  0  0  3  0  0  0  0  0  0
  -21.5000   -6.3430   21.5380 O   0  0  0  0  0  0  0  0  0  0  0  0
  -21.4700   -5.6360   22.7110 C   0  0  0  0  0  0  0  0  0  0  0  0
  -21.0520   -6.2220   23.9260 C   0  0  0  0  0  3  0  0  0  0  0  0
  -20.9720   -5.4370   25.0940 C   0  0  0  0  0  3  0  0  0  0  0  0
  -21.3040   -4.0700   25.0500 C   0  0  0  0  0  0  0  0  0  0  0  0
  -21.7200   -3.4860   23.8400 C   0  0  0  0  0  3  0  0  0  0  0  0
  -21.8020   -4.2660   22.6750 C   0  0  0  0  0  0  0  0  0  0  0  0
  -22.1810   -3.6940   21.5070 F   0  0  0  0  0  0  0  0  0  0  0  0
  -21.2230   -3.3150   26.1700 F   0  0  0  0  0  0  0  0  0  0  0  0
  -22.7460  -12.9770   21.6290 C   0  0  0  0  0  0  0  0  0  0  0  0
  -22.2110  -12.2140   22.5750 N   0  0  0  0  0  0  0  0  0  0  0  0
  -22.2380  -14.0540   21.3180 O   0  0  0  0  0  0  0  0  0  0  0  0
  -22.6410  -11.3410   22.8470 H   0  0  0  0  0  0  0  0  0  0  0  0
  -21.3600  -12.5060   23.0360 H   0  0  0  0  0  0  0  0  0  0  0  0
  -25.1910  -14.6680   20.3860 N   0  0  0  0  0  0  0  0  0  0  0  0
  -24.5070  -15.3250   20.7430 H   0  0  0  0  0  0  0  0  0  0  0  0
  -25.9790  -15.1200   19.9400 H   0  0  0  0  0  0  0  0  0  0  0  0
  -30.1020  -23.3930   22.0660 C   0  0  0  0  0  2  0  0  0  0  0  0
  -27.7420  -23.3040   21.0190 C   0  0  0  0  0  1  0  0  0  0  0  0
  -28.7070  -24.0450   21.9710 C   0  0  0  0  0  3  0  0  0  0  0  0
  -28.8220  -25.4800   21.6100 N   0  0  0  0  0  4  0  0  0  0  0  0
  -29.0150  -25.9700   22.4710 H   0  0  0  0  0  0  0  0  0  0  0  0
  -27.9260  -25.8080   21.2820 H   0  0  0  0  0  0  0  0  0  0  0  0
  -29.8860  -25.8400   20.6280 C   0  0  0  0  0  2  0  0  0  0  0  0
  -29.7890  -27.3000   20.1860 C   0  0  0  0  0  2  0  0  0  0  0  0
  -28.8040  -27.3380   19.1680 O   0  0  0  0  0  0  0  0  0  0  0  0
  -24.7530  -31.6480   23.2060 C   0  0  0  0  0  0  0  0  0  0  0  0
  -27.6100  -27.9590   19.4260 C   0  0  0  0  0  0  0  0  0  0  0  0
  -23.5920  -30.3640   21.4400 C   0  0  0  0  0  3  0  0  0  0  0  0
  -25.0960  -29.1760   19.7630 C   0  0  0  0  0  0  0  0  0  0  0  0
  -26.0500  -31.0040   21.1790 C   0  0  0  0  0  2  0  0  0  0  0  0
  -26.2270  -29.7360   20.3720 C   0  0  0  0  0  0  0  0  0  0  0  0
  -27.4900  -29.1300   20.2090 C   0  0  0  0  0  3  0  0  0  0  0  0
  -26.4650  -27.4140   18.8080 C   0  0  0  0  0  3  0  0  0  0  0  0
  -25.2030  -28.0070   18.9880 C   0  0  0  0  0  3  0  0  0  0  0  0
  -23.7850  -29.8940   19.9760 C   0  0  0  0  0  2  0  0  0  0  0  0
  -24.8210  -31.0120   22.0060 N   0  0  0  0  0  0  0  0  0  0  0  0
  -23.6820  -31.7420   23.8220 O   0  0  0  0  0  0  0  0  0  0  0  0
  -23.0910  -29.1660   22.2750 C   0  0  0  0  0  0  0  0  0  0  0  0
  -21.7920  -28.8530   22.1460 N   0  0  0  0  0  0  0  0  0  0  0  0
  -23.8630  -28.5300   22.9960 O   0  0  0  0  0  0  0  0  0  0  0  0
  -21.2270  -29.4330   21.5400 H   0  0  0  0  0  0  0  0  0  0  0  0
  -18.5920  -27.2090   22.4850 C   0  0  0  0  0  0  0  0  0  0  0  0
  -21.1030  -27.7390   22.7960 C   0  0  0  0  0  3  0  0  0  0  0  0
  -21.3710  -26.4070   22.0590 C   0  0  0  0  0  2  0  0  0  0  0  0
  -20.3040  -26.0690   21.0140 C   0  0  0  0  0  2  0  0  0  0  0  0
  -18.9210  -25.9740   21.6660 C   0  0  0  0  0  2  0  0  0  0  0  0
  -19.6150  -28.0470   23.0050 C   0  0  0  0  0  0  0  0  0  0  0  0
  -19.2550  -29.2040   23.7270 C   0  0  0  0  0  3  0  0  0  0  0  0
  -17.9010  -29.5260   23.9410 C   0  0  0  0  0  3  0  0  0  0  0  0
  -16.8910  -28.6830   23.4430 C   0  0  0  0  0  3  0  0  0  0  0  0
  -17.2390  -27.5260   22.7240 C   0  0  0  0  0  3  0  0  0  0  0  0
  -26.0100  -32.3080   23.8580 C   0  0  0  0  0  3  0  0  0  0  0  0
  -25.6300  -33.6630   24.2800 N   0  0  0  0  0  0  0  0  0  0  0  0
  -25.9200  -34.7770   23.5920 C   0  0  0  0  0  0  0  0  0  0  0  0
  -26.6010  -34.7710   22.5620 O   0  0  0  0  0  0  0  0  0  0  0  0
  -25.0330  -33.7340   25.0900 H   0  0  0  0  0  0  0  0  0  0  0  0
  -24.1090  -36.5000   23.3390 C   0  0  0  0  0  1  0  0  0  0  0  0
  -25.3660  -36.1080   24.1340 C   0  0  0  0  0  3  0  0  0  0  0  0
  -27.4550  -37.0330   25.0370 C   0  0  0  0  0  1  0  0  0  0  0  0
  -26.3480  -37.2160   24.0970 N   0  0  0  0  0  0  0  0  0  0  0  0
  -25.8980  -38.1010   24.3080 H   0  0  0  0  0  0  0  0  0  0  0  0
  -26.5840  -31.4850   25.0750 C   0  0  1  0  0  0  0  0  0  0  0  0
  -25.5130  -31.0920   26.1220 C   0  0  0  0  0  1  0  0  0  0  0  0
  -27.2550  -30.1880   24.5680 C   0  0  0  0  0  1  0  0  0  0  0  0
  -27.6880  -32.3060   25.7850 C   0  0  0  0  0  1  0  0  0  0  0  0
  1  3  2  0
  1  5  1  0
  2  4  1  0
  3  6  1  0
  5  2  2  0
  6  8  1  0
  6  4  2  0
  8  7  1  0
  9 10  2  0
 10  8  1  0
 11  9  1  0
 12 20  1  0
 13 18  1  0
 14 15  1  0
 14 13  1  0
 16 15  1  0
 16 25  1  0
 16 17  1  0
 18 12  1  0
 18 17  1  0
 19 12  2  0
 20 11  1  0
 20 21  1  0
 22 23  2  0
 23 42  1  0
 24 27  1  0
 24 23  1  0
 25 26  1  0
 25 22  1  0
 26 24  2  0
 27 28  1  0
 28 29  2  0
 30 33  1  0
 30 29  1  0
 31 30  2  0
 32 31  1  0
 32 27  2  0
 33 34  1  0
 34 35  1  0
 35 36  2  0
 37 36  1  0
 37 41  1  0
 38 37  2  0
 39 34  2  0
 39 38  1  0
 40 39  1  0
 42 43  1  0
 43 45  1  0
 43 46  1  0
 44 42  2  0
 47 22  1  0
 47 48  1  0
 49 47  1  0
 50  5  1  0
 52 51  1  0
 52 50  1  0
 53 52  1  0
 53 54  1  0
 55 53  1  0
 56 53  1  0
 57 56  1  0
 58 60  1  0
 58 57  1  0
 59 70  2  0
 60 65  1  0
 61 69  1  0
 61 71  1  0
 62 68  1  0
 62 64  1  0
 63 69  1  0
 64 63  1  0
 65 64  2  0
 66 67  1  0
 66 60  2  0
 67 62  2  0
 68 61  1  0
 69 59  1  0
 71 73  2  0
 72 71  1  0
 74 72  1  0
 75 84  2  0
 75 80  1  0
 76 72  1  0
 76 80  1  0
 77 76  1  0
 78 79  1  0
 78 77  1  0
 79 75  1  0
 80 81  2  0
 81 82  1  0
 83 82  2  0
 84 83  1  0
 85 59  1  0
 85 86  1  0
 85 95  1  0
 86 89  1  0
 87 91  1  0
 87 86  1  0
 88 87  2  0
 91 90  1  0
 93 91  1  0
 93 94  1  0
 93 92  1  0
 95 98  1  1
 95 96  1  0
 97 95  1  0
M  ISO  4  12 100  20 100  57 101  58 101
M  END
>  <TORSDO>  (84) 
F 24

>  <SCORE>  (84) 
-1.335

>  <name>  (84) 
85

>  <ligand_id>  (84) 
85

>  <original_smiles>  (84) 
[H]C(=C([H])C([H])(c1c([H])c([H])c(C([H])([H])C([H])(C([H])([H])[H])[N+]([H])([H])C([H])([H])C([H])([H])Oc2c([H])c([H])c3c(c2[H])C([H])([H])N(C(=O)C([H])(N([H])C(=O)C([H])(N([H])C([H])([H])[H])C([H])([H])[H])C(C([H])([H])[H])(C([H])([H])[H])C([H])([H])[H])C([H])(C(=O)N([H])C2([H])c4c([H])c([H])c([H])c([H])c4C([H])([H])C([H])([H])C2([H])[H])C3([H])[H])c([H])c1[H])C([H])([H])[H])C([H])([H])N([H])C(=O)N1C([H])([H])C([H])([H])C([H])([H])C([H])(n2nc(-c3c([H])c([H])c(Oc4c([H])c([H])c(F)c([H])c4F)c([H])c3[H])c(C(=O)N([H])[H])c2N([H])[H])C1([H])[H]

>  <smiles>  (84) 
[H]C(=C([H])C([H])(c1c([H])c([H])c(C([H])([H])C([H])(C([H])([H])[H])[N+]([H])([H])C([H])([H])C([H])([H])Oc2c([H])c([H])c3c(c2[H])C([H])([H])N(C(=O)C([H])(N([H])C(=O)C([H])(N([H])C([H])([H])[H])C([H])([H])[H])C(C([H])([H])[H])(C([H])([H])[H])C([H])([H])[H])C([H])(C(=O)N([H])C2([H])c4c([H])c([H])c([H])c([H])c4C([H])([H])C([H])([H])C2([H])[H])C3([H])[H])c([H])c1[H])C([H])([H])[H])C([H])([H])N([H])C(=O)N1C([H])([H])C([H])([H])C([H])([H])C([H])(n2nc(-c3c([H])c([H])c(Oc4c([H])c([H])c(F)c([H])c4F)c([H])c3[H])c(C(=O)N([H])[H])c2N([H])[H])C1([H])[H]

$$$$
86:0:0
     RDKit          3D

100107  0  0  1  0  0  0  0  0999 V2000
  -22.6490  -27.3240   19.6120 C   0  0  0  0  0  2  0  0  0  0  0  0
  -22.1150  -25.1010   18.2530 C   0  0  0  0  0  1  0  0  0  0  0  0
  -23.0760  -25.4390   19.4340 C   0  0  0  0  0  3  0  0  0  0  0  0
  -25.1960  -21.7130   18.0070 C   0  0  0  0  0  3  0  0  0  0  0  0
  -24.3490  -22.9940   18.1000 C   0  0  0  0  0  3  0  0  0  0  0  0
  -26.2380  -22.3110   19.8730 C   0  0  0  0  0  3  0  0  0  0  0  0
  -26.2590  -21.1660   18.9080 C   0  0  0  0  0  0  0  0  0  0  0  0
  -24.3450  -24.1230   19.0770 C   0  0  0  0  0  0  0  0  0  0  0  0
  -25.4260  -23.6050   19.9550 C   0  0  0  0  0  0  0  0  0  0  0  0
  -25.7090  -24.3750   21.0360 F   0  0  0  0  0  0  0  0  0  0  0  0
  -27.2030  -19.6120   19.1630 C   0  0  0  0  0  0  0  0  0  0  0  0
  -26.9850  -19.1900   20.3010 O   0  0  0  0  0  0  0  0  0  0  0  0
  -28.3890  -18.4120   18.4040 C   0  0  0  0  0  2  0  0  0  0  0  0
  -30.1520  -15.7730   18.7720 C   0  0  0  0  0  0  0  0  0  0  0  0
  -30.7270  -13.2130   18.3810 C   0  0  0  0  0  2  0  0  0  0  0  0
  -29.7210  -12.5760   17.3780 C   0  0  0  0  0  2  0  0  0  0  0  0
  -28.4000  -12.2250   18.0900 C   0  0  0  0  0  2  0  0  0  0  0  0
  -27.9720  -13.3490   19.0670 C   0  0  0  0  0  3  0  0  0  0  0  0
  -29.1020  -13.7840   20.0020 C   0  0  0  0  0  2  0  0  0  0  0  0
  -30.0570  -14.3790   19.0890 N   0  0  0  0  0  0  0  0  0  0  0  0
  -31.3050  -15.9710   18.3000 O   0  0  0  0  0  0  0  0  0  0  0  0
  -28.9860  -16.8050   18.8530 N   0  0  0  0  0  0  0  0  0  0  0  0
  -28.2330  -16.3370   19.3560 H   0  0  0  0  0  0  0  0  0  0  0  0
  -25.9850  -13.9550   20.4990 C   0  0  0  0  0  0  0  0  0  0  0  0
  -24.9660  -13.2160   21.0100 C   0  0  0  0  0  0  0  0  0  0  0  0
  -25.2190  -11.8620   20.6200 C   0  0  0  0  0  0  0  0  0  0  0  0
  -26.7860  -13.0560   19.8220 N   0  0  0  0  0  0  0  0  0  0  0  0
  -26.3710  -11.7740   19.9680 N   0  0  0  0  0  0  0  0  0  0  0  0
  -24.4080  -10.6580   20.7770 C   0  0  0  0  0  0  0  0  0  0  0  0
  -24.8070   -9.5970   21.6180 C   0  0  0  0  0  3  0  0  0  0  0  0
  -23.9900   -8.4570   21.7610 C   0  0  0  0  0  3  0  0  0  0  0  0
  -22.7690   -8.3640   21.0500 C   0  0  0  0  0  0  0  0  0  0  0  0
  -22.3900   -9.4160   20.1980 C   0  0  0  0  0  3  0  0  0  0  0  0
  -23.2060  -10.5480   20.0520 C   0  0  0  0  0  3  0  0  0  0  0  0
  -21.9230   -7.2860   21.1110 O   0  0  0  0  0  0  0  0  0  0  0  0
  -21.6630   -6.6440   22.2950 C   0  0  0  0  0  0  0  0  0  0  0  0
  -21.1260   -7.3230   23.4110 C   0  0  0  0  0  3  0  0  0  0  0  0
  -20.8070   -6.6080   24.5810 C   0  0  0  0  0  3  0  0  0  0  0  0
  -21.0120   -5.2180   24.6370 C   0  0  0  0  0  0  0  0  0  0  0  0
  -21.5370   -4.5380   23.5230 C   0  0  0  0  0  3  0  0  0  0  0  0
  -21.8580   -5.2500   22.3540 C   0  0  0  0  0  0  0  0  0  0  0  0
  -22.3470   -4.5850   21.2790 F   0  0  0  0  0  0  0  0  0  0  0  0
  -20.6950   -4.5310   25.7600 F   0  0  0  0  0  0  0  0  0  0  0  0
  -23.7490  -13.7480   21.7050 C   0  0  0  0  0  0  0  0  0  0  0  0
  -23.1960  -12.9870   22.6370 N   0  0  0  0  0  0  0  0  0  0  0  0
  -23.3250  -14.8810   21.4650 O   0  0  0  0  0  0  0  0  0  0  0  0
  -23.5620  -12.0730   22.8450 H   0  0  0  0  0  0  0  0  0  0  0  0
  -22.3920  -13.3170   23.1470 H   0  0  0  0  0  0  0  0  0  0  0  0
  -26.2860  -15.3170   20.5200 N   0  0  0  0  0  0  0  0  0  0  0  0
  -25.6110  -15.9670   20.9090 H   0  0  0  0  0  0  0  0  0  0  0  0
  -26.9010  -15.7530   19.8450 H   0  0  0  0  0  0  0  0  0  0  0  0
  -21.7650  -28.8580   20.4610 C   0  0  0  0  0  2  0  0  0  0  0  0
  -21.9400  -29.9620   22.0490 C   0  0  0  0  0  1  0  0  0  0  0  0
  -22.5700  -29.5820   23.9430 C   0  0  0  0  0  1  0  0  0  0  0  0
  -23.7810  -28.4850   24.6550 N   0  0  0  0  0  4  0  0  0  0  0  0
  -23.4260  -27.5600   24.4430 H   0  0  0  0  0  0  0  0  0  0  0  0
  -23.5540  -28.5560   25.6470 H   0  0  0  0  0  0  0  0  0  0  0  0
  -25.5020  -28.1830   24.6560 C   0  0  0  0  0  2  0  0  0  0  0  0
  -26.8510  -27.0230   24.1210 C   0  0  0  0  0  2  0  0  0  0  0  0
  -28.2270  -26.8690   23.1850 O   0  0  0  0  0  0  0  0  0  0  0  0
  -24.9280  -31.1900   23.2160 C   0  0  0  0  0  0  0  0  0  0  0  0
  -28.3680  -27.2090   21.8630 C   0  0  0  0  0  3  0  0  0  0  0  0
  -24.5280  -29.1330   21.6040 C   0  0  0  0  0  3  0  0  0  0  0  0
  -26.4560  -28.2900   20.3690 C   0  0  0  0  0  0  0  0  0  0  0  0
  -26.7220  -30.3650   21.8020 C   0  0  0  0  0  2  0  0  0  0  0  0
  -27.2440  -29.0800   21.2270 C   0  0  0  0  0  0  0  0  0  0  0  0
  -28.4150  -28.5820   21.7500 C   0  0  0  0  0  2  0  0  0  0  0  0
  -27.8330  -26.3900   20.8540 C   0  0  0  0  0  3  0  0  0  0  0  0
  -26.8920  -26.9920   19.9900 C   0  0  0  0  0  3  0  0  0  0  0  0
  -25.0870  -28.8780   20.1780 C   0  0  0  0  0  2  0  0  0  0  0  0
  -25.3550  -30.2320   22.2900 N   0  0  0  0  0  0  0  0  0  0  0  0
  -23.7450  -31.4060   23.4600 O   0  0  0  0  0  0  0  0  0  0  0  0
  -24.2720  -27.5620   22.2630 C   0  0  0  0  0  0  0  0  0  0  0  0
  -23.1580  -26.8320   22.8400 N   0  0  0  0  0  0  0  0  0  0  0  0
  -25.1830  -26.8820   22.4620 O   0  0  0  0  0  0  0  0  0  0  0  0
  -22.7280  -27.7260   22.6700 H   0  0  0  0  0  0  0  0  0  0  0  0
  -19.1590  -26.2460   22.3000 C   0  0  0  0  0  0  0  0  0  0  0  0
  -21.6650  -26.4220   23.2260 C   0  0  0  0  0  3  0  0  0  0  0  0
  -21.6570  -24.9410   22.8970 C   0  0  0  0  0  2  0  0  0  0  0  0
  -20.9290  -24.4990   21.6290 C   0  0  0  0  0  2  0  0  0  0  0  0
  -19.4700  -24.9210   21.6580 C   0  0  0  0  0  2  0  0  0  0  0  0
  -20.1470  -27.0390   22.9730 C   0  0  0  0  0  0  0  0  0  0  0  0
  -19.5880  -28.2850   23.4520 C   0  0  0  0  0  3  0  0  0  0  0  0
  -18.2580  -28.7220   23.2150 C   0  0  0  0  0  3  0  0  0  0  0  0
  -17.3460  -27.8700   22.6010 C   0  0  0  0  0  3  0  0  0  0  0  0
  -17.8110  -26.6340   22.1450 C   0  0  0  0  0  3  0  0  0  0  0  0
  -25.8850  -32.0690   24.1040 C   0  0  0  0  0  3  0  0  0  0  0  0
  -26.1360  -31.6400   25.6320 C   0  0  1  0  0  0  0  0  0  0  0  0
  -24.8650  -31.2660   26.4550 C   0  0  0  0  0  1  0  0  0  0  0  0
  -27.2520  -30.5700   25.7850 C   0  0  0  0  0  1  0  0  0  0  0  0
  -26.7500  -32.8380   26.4020 C   0  0  0  0  0  1  0  0  0  0  0  0
  -25.3000  -33.4130   24.1130 N   0  0  0  0  0  0  0  0  0  0  0  0
  -25.7100  -34.4240   23.3460 C   0  0  0  0  0  0  0  0  0  0  0  0
  -26.6530  -34.3170   22.5590 O   0  0  0  0  0  0  0  0  0  0  0  0
  -24.4680  -33.5480   24.6690 H   0  0  0  0  0  0  0  0  0  0  0  0
  -23.9570  -35.8900   22.3420 C   0  0  0  0  0  1  0  0  0  0  0  0
  -24.9660  -35.7560   23.4870 C   0  0  0  0  0  3  0  0  0  0  0  0
  -26.6810  -36.9970   24.7260 C   0  0  0  0  0  1  0  0  0  0  0  0
  -25.8720  -36.9270   23.5080 N   0  0  0  0  0  0  0  0  0  0  0  0
  -25.3390  -37.7900   23.4260 H   0  0  0  0  0  0  0  0  0  0  0  0
  1 52  1  0
  3  2  1  0
  3  1  1  0
  4  5  2  0
  4  7  1  0
  5  8  1  0
  6  9  1  0
  7 11  1  0
  7  6  2  0
  8  3  1  0
  8  9  2  0
  9 10  1  0
 11 12  2  0
 13 22  1  0
 13 11  1  0
 14 22  1  0
 14 20  1  0
 15 20  1  0
 16 17  1  0
 16 15  1  0
 18 17  1  0
 18 27  1  0
 18 19  1  0
 20 19  1  0
 21 14  2  0
 22 23  1  0
 24 49  1  0
 24 25  2  0
 25 44  1  0
 26 29  1  0
 26 25  1  0
 27 28  1  0
 27 24  1  0
 28 26  2  0
 29 30  1  0
 30 31  2  0
 32 35  1  0
 32 31  1  0
 33 32  2  0
 34 33  1  0
 34 29  2  0
 35 36  1  0
 36 41  2  0
 36 37  1  0
 37 38  2  0
 38 39  1  0
 39 43  1  0
 40 39  2  0
 41 40  1  0
 42 41  1  0
 44 45  1  0
 45 47  1  0
 45 48  1  0
 46 44  2  0
 49 50  1  0
 51 49  1  0
 52 53  1  0
 54 55  1  0
 55 58  1  0
 55 57  1  0
 56 55  1  0
 59 58  1  0
 60 59  1  0
 61 72  2  0
 62 60  1  0
 63 73  1  0
 63 71  1  0
 64 66  2  0
 65 71  1  0
 66 67  1  0
 66 65  1  0
 67 62  1  0
 68 62  1  0
 69 64  1  0
 69 68  2  0
 70 64  1  0
 70 63  1  0
 71 61  1  0
 73 75  2  0
 73 74  1  0
 76 74  1  0
 77 82  1  0
 78 74  1  0
 79 78  1  0
 80 81  1  0
 80 79  1  0
 81 77  1  0
 82 78  1  0
 82 83  2  0
 84 83  1  0
 85 84  2  0
 86 77  2  0
 86 85  1  0
 87 61  1  0
 87 92  1  0
 87 88  1  0
 88 90  1  6
 88 91  1  0
 88 89  1  0
 92 95  1  0
 93 97  1  0
 93 92  1  0
 94 93  2  0
 97 96  1  0
 97 99  1  0
 99 98  1  0
100 99  1  0
M  ISO  4  14 100  22 100  59 101  60 101
M  END
>  <TORSDO>  (85) 
F 26

>  <SCORE>  (85) 
-10.334

>  <name>  (85) 
86

>  <ligand_id>  (85) 
86

>  <original_smiles>  (85) 
[H]c1c([H])c([H])c2c(c1[H])C([H])([H])C([H])([H])C([H])([H])C2([H])N([H])C(=O)C1([H])N(C(=O)C([H])(N([H])C(=O)C([H])(N([H])C([H])([H])[H])C([H])([H])[H])C(C([H])([H])[H])(C([H])([H])[H])C([H])([H])[H])C([H])([H])c2c([H])c(OC([H])([H])C([H])([H])[N+]([H])([H])C([H])([H])C([H])([H])C([H])([H])C([H])([H])C([H])(c3c([H])c([H])c(C(=O)C([H])([H])N([H])C(=O)N4C([H])([H])C([H])([H])C([H])([H])C([H])(n5nc(-c6c([H])c([H])c(Oc7c([H])c([H])c(F)c([H])c7F)c([H])c6[H])c(C(=O)N([H])[H])c5N([H])[H])C4([H])[H])c([H])c3F)C([H])([H])[H])c([H])c([H])c2C1([H])[H]

>  <smiles>  (85) 
[H]c1c([H])c([H])c2c(c1[H])C([H])([H])C([H])([H])C([H])([H])C2([H])N([H])C(=O)C1([H])N(C(=O)C([H])(N([H])C(=O)C([H])(N([H])C([H])([H])[H])C([H])([H])[H])C(C([H])([H])[H])(C([H])([H])[H])C([H])([H])[H])C([H])([H])c2c([H])c(OC([H])([H])C([H])([H])[N+]([H])([H])C([H])([H])C([H])([H])C([H])([H])C([H])([H])C([H])(c3c([H])c([H])c(C(=O)C([H])([H])N([H])C(=O)N4C([H])([H])C([H])([H])C([H])([H])C([H])(n5nc(-c6c([H])c([H])c(Oc7c([H])c([H])c(F)c([H])c7F)c([H])c6[H])c(C(=O)N([H])[H])c5N([H])[H])C4([H])[H])c([H])c3F)C([H])([H])[H])c([H])c([H])c2C1([H])[H]

$$$$
87:0:0
     RDKit          3D

 96104  0  0  1  0  0  0  0  0999 V2000
  -28.1760  -21.3470   22.0730 C   0  0  0  0  0  3  0  0  0  0  0  0
  -26.9380  -21.7080   21.5050 C   0  0  0  0  0  3  0  0  0  0  0  0
  -28.0400  -22.0900   19.3660 C   0  0  0  0  0  3  0  0  0  0  0  0
  -29.3430  -21.3110   21.2790 C   0  0  0  0  0  0  0  0  0  0  0  0
  -26.8610  -22.0300   20.1360 C   0  0  0  0  0  0  0  0  0  0  0  0
  -29.2790  -21.7370   19.9340 C   0  0  0  0  0  0  0  0  0  0  0  0
  -30.3930  -21.7960   19.1650 F   0  0  0  0  0  0  0  0  0  0  0  0
  -30.6080  -20.8300   21.8830 C   0  0  0  0  0  0  0  0  0  0  0  0
  -30.7550  -20.6750   23.1000 O   0  0  0  0  0  0  0  0  0  0  0  0
  -31.7310  -20.3840   20.9300 C   0  0  0  0  0  2  0  0  0  0  0  0
  -31.8540  -18.8480   20.7720 C   0  0  0  0  0  2  0  0  0  0  0  0
  -31.9210  -18.3080   19.3170 C   0  0  0  0  0  2  0  0  0  0  0  0
  -32.1080  -16.7590   19.2550 C   0  0  0  0  0  2  0  0  0  0  0  0
  -33.3570  -15.8150   19.2990 C   0  0  0  0  0  2  0  0  0  0  0  0
  -33.7030  -13.5660   20.4380 C   0  0  0  0  0  0  0  0  0  0  0  0
  -33.4810  -11.3640   21.5490 C   0  0  0  0  0  2  0  0  0  0  0  0
  -32.7770  -10.3400   20.6360 C   0  0  0  0  0  2  0  0  0  0  0  0
  -31.2430  -10.4550   20.7540 C   0  0  0  0  0  2  0  0  0  0  0  0
  -30.7470  -11.9160   20.5980 C   0  0  0  0  0  3  0  0  0  0  0  0
  -31.5530  -12.8440   21.5310 C   0  0  0  0  0  2  0  0  0  0  0  0
  -32.9900  -12.7050   21.2090 N   0  0  0  0  0  0  0  0  0  0  0  0
  -34.8270  -13.3210   19.9840 O   0  0  0  0  0  0  0  0  0  0  0  0
  -33.0720  -14.7270   20.2340 N   0  0  0  0  0  0  0  0  0  0  0  0
  -32.1950  -14.8010   20.7260 H   0  0  0  0  0  0  0  0  0  0  0  0
  -28.4950  -13.1510   20.8410 C   0  0  0  0  0  0  0  0  0  0  0  0
  -27.2240  -12.6930   21.0650 C   0  0  0  0  0  0  0  0  0  0  0  0
  -27.3320  -11.2750   21.1940 C   0  0  0  0  0  0  0  0  0  0  0  0
  -29.3100  -12.0270   20.8440 N   0  0  0  0  0  0  0  0  0  0  0  0
  -28.6020  -10.8990   21.1090 N   0  0  0  0  0  0  0  0  0  0  0  0
  -26.2950  -10.2450   21.3350 C   0  0  0  0  0  0  0  0  0  0  0  0
  -26.1920   -9.4480   22.4980 C   0  0  0  0  0  3  0  0  0  0  0  0
  -25.1750   -8.4760   22.6130 C   0  0  0  0  0  3  0  0  0  0  0  0
  -24.2460   -8.2950   21.5600 C   0  0  0  0  0  0  0  0  0  0  0  0
  -24.3660   -9.0740   20.3970 C   0  0  0  0  0  3  0  0  0  0  0  0
  -25.3830  -10.0360   20.2820 C   0  0  0  0  0  3  0  0  0  0  0  0
  -23.2420   -7.3550   21.5750 O   0  0  0  0  0  0  0  0  0  0  0  0
  -22.4790   -7.1310   22.6920 C   0  0  0  0  0  0  0  0  0  0  0  0
  -21.7780   -8.1750   23.3360 C   0  0  0  0  0  3  0  0  0  0  0  0
  -20.9500   -7.8900   24.4390 C   0  0  0  0  0  3  0  0  0  0  0  0
  -20.8140   -6.5640   24.8950 C   0  0  0  0  0  0  0  0  0  0  0  0
  -21.5060   -5.5240   24.2520 C   0  0  0  0  0  3  0  0  0  0  0  0
  -22.3340   -5.8070   23.1510 C   0  0  0  0  0  0  0  0  0  0  0  0
  -22.9830   -4.7970   22.5210 F   0  0  0  0  0  0  0  0  0  0  0  0
  -20.0140   -6.2890   25.9520 F   0  0  0  0  0  0  0  0  0  0  0  0
  -25.9630  -13.5110   21.0620 C   0  0  0  0  0  0  0  0  0  0  0  0
  -24.9640  -13.1080   21.8400 N   0  0  0  0  0  0  0  0  0  0  0  0
  -25.8730  -14.5420   20.3990 O   0  0  0  0  0  0  0  0  0  0  0  0
  -25.0400  -12.2740   22.4030 H   0  0  0  0  0  0  0  0  0  0  0  0
  -24.1130  -13.6500   21.8770 H   0  0  0  0  0  0  0  0  0  0  0  0
  -29.0220  -14.4200   20.6160 N   0  0  0  0  0  0  0  0  0  0  0  0
  -28.4420  -15.2490   20.5680 H   0  0  0  0  0  0  0  0  0  0  0  0
  -30.0000  -14.6120   20.4420 H   0  0  0  0  0  0  0  0  0  0  0  0
  -25.5130  -22.2660   19.4850 C   0  0  0  0  0  2  0  0  0  0  0  0
  -25.3830  -23.6450   18.8380 C   0  0  0  0  0  2  0  0  0  0  0  0
  -24.2610  -23.6540   17.7880 C   0  0  0  0  0  2  0  0  0  0  0  0
  -24.1250  -24.9370   17.1950 O   0  0  0  0  0  0  0  0  0  0  0  0
  -25.1130  -28.9800   22.9120 C   0  0  0  0  0  0  0  0  0  0  0  0
  -23.6170  -25.9830   17.9330 C   0  0  0  0  0  0  0  0  0  0  0  0
  -22.9490  -29.3090   21.7550 C   0  0  0  0  0  3  0  0  0  0  0  0
  -22.7350  -28.1770   19.4810 C   0  0  0  0  0  0  0  0  0  0  0  0
  -25.0070  -28.5010   20.4740 C   0  0  0  0  0  2  0  0  0  0  0  0
  -24.0670  -27.7550   19.5540 C   0  0  0  0  0  0  0  0  0  0  0  0
  -24.5090  -26.6610   18.7860 C   0  0  0  0  0  3  0  0  0  0  0  0
  -22.2700  -26.4160   17.8680 C   0  0  0  0  0  3  0  0  0  0  0  0
  -21.8260  -27.5010   18.6460 C   0  0  0  0  0  3  0  0  0  0  0  0
  -22.3490  -29.3670   20.3240 C   0  0  0  0  0  2  0  0  0  0  0  0
  -24.3930  -28.9040   21.7580 N   0  0  0  0  0  0  0  0  0  0  0  0
  -24.6070  -29.4220   23.9520 O   0  0  0  0  0  0  0  0  0  0  0  0
  -22.0560  -28.3930   22.6190 C   0  0  0  0  0  0  0  0  0  0  0  0
  -20.7410  -28.6640   22.6110 N   0  0  0  0  0  0  0  0  0  0  0  0
  -22.5390  -27.4460   23.2470 O   0  0  0  0  0  0  0  0  0  0  0  0
  -20.4240  -29.4620   22.0770 H   0  0  0  0  0  0  0  0  0  0  0  0
  -17.1850  -28.0790   22.7680 C   0  0  0  0  0  0  0  0  0  0  0  0
  -19.7050  -27.9060   23.3100 C   0  0  0  0  0  3  0  0  0  0  0  0
  -19.6180  -26.4560   22.7770 C   0  0  0  0  0  2  0  0  0  0  0  0
  -18.5870  -26.2850   21.6610 C   0  0  0  0  0  2  0  0  0  0  0  0
  -17.1930  -26.6910   22.1490 C   0  0  0  0  0  2  0  0  0  0  0  0
  -18.3680  -28.6560   23.2980 C   0  0  0  0  0  0  0  0  0  0  0  0
  -18.3180  -29.9640   23.8270 C   0  0  0  0  0  3  0  0  0  0  0  0
  -17.1140  -30.6900   23.8350 C   0  0  0  0  0  3  0  0  0  0  0  0
  -15.9390  -30.1080   23.3260 C   0  0  0  0  0  3  0  0  0  0  0  0
  -15.9750  -28.8050   22.7980 C   0  0  0  0  0  3  0  0  0  0  0  0
  -26.6090  -28.5400   22.9760 C   0  0  0  0  0  3  0  0  0  0  0  0
  -26.7930  -26.9810   23.1370 C   0  0  1  0  0  0  0  0  0  0  0  0
  -25.9540  -26.3710   24.2830 C   0  0  0  0  0  1  0  0  0  0  0  0
  -26.4070  -26.2510   21.8290 C   0  0  0  0  0  1  0  0  0  0  0  0
  -28.2780  -26.6530   23.4170 C   0  0  0  0  0  1  0  0  0  0  0  0
  -27.2340  -29.2580   24.0950 N   0  0  0  0  0  0  0  0  0  0  0  0
  -28.1060  -30.2660   23.9590 C   0  0  0  0  0  0  0  0  0  0  0  0
  -28.5280  -30.6450   22.8640 O   0  0  0  0  0  0  0  0  0  0  0  0
  -26.8930  -29.0340   25.0200 H   0  0  0  0  0  0  0  0  0  0  0  0
  -27.8800  -32.3220   25.3870 C   0  0  0  0  0  1  0  0  0  0  0  0
  -28.5860  -30.9650   25.2440 C   0  0  0  0  0  3  0  0  0  0  0  0
  -30.7930  -29.9090   25.4480 C   0  0  0  0  0  1  0  0  0  0  0  0
  -30.0510  -31.1580   25.2980 N   0  0  0  0  0  0  0  0  0  0  0  0
  -30.3050  -31.7700   26.0680 H   0  0  0  0  0  0  0  0  0  0  0  0
  2  1  1  0
  3  6  2  0
  3  5  1  0
  4  8  1  0
  4  1  2  0
  5  2  2  0
  6  4  1  0
  7  6  1  0
  8  9  2  0
 10  8  1  0
 11 10  1  0
 12 11  1  0
 13 14  1  0
 13 12  1  0
 14 23  1  0
 15 21  1  0
 17 18  1  0
 17 16  1  0
 19 18  1  0
 19 28  1  0
 19 20  1  0
 21 20  1  0
 21 16  1  0
 22 15  2  0
 23 15  1  0
 23 24  1  0
 25 28  1  0
 25 26  2  0
 26 27  1  0
 27 30  1  0
 28 29  1  0
 29 27  2  0
 30 31  1  0
 31 32  2  0
 33 36  1  0
 33 32  1  0
 34 33  2  0
 35 34  1  0
 35 30  2  0
 36 37  1  0
 37 42  2  0
 37 38  1  0
 38 39  2  0
 39 40  1  0
 40 44  1  0
 41 40  2  0
 42 41  1  0
 43 42  1  0
 45 26  1  0
 45 46  1  0
 46 49  1  0
 46 48  1  0
 47 45  2  0
 50 25  1  0
 51 50  1  0
 52 50  1  0
 53  5  1  0
 54 53  1  0
 55 54  1  0
 56 55  1  0
 56 58  1  0
 57 68  2  0
 58 63  1  0
 59 67  1  0
 59 69  1  0
 60 62  1  0
 60 66  1  0
 61 67  1  0
 62 61  1  0
 63 62  2  0
 64 58  2  0
 64 65  1  0
 65 60  2  0
 66 59  1  0
 67 57  1  0
 69 71  2  0
 70 69  1  0
 72 70  1  0
 73 82  2  0
 73 78  1  0
 74 70  1  0
 75 74  1  0
 76 77  1  0
 76 75  1  0
 77 73  1  0
 78 74  1  0
 78 79  2  0
 79 80  1  0
 81 80  2  0
 82 81  1  0
 83 57  1  0
 83 84  1  0
 83 88  1  0
 84 87  1  1
 84 85  1  0
 86 84  1  0
 88 91  1  0
 89 88  1  0
 89 93  1  0
 90 89  2  0
 93 95  1  0
 93 92  1  0
 95 94  1  0
 95 96  1  0
M  ISO  4  15 100  23 100  55 101  56 101
M  END
>  <TORSDO>  (86) 
F 25

>  <SCORE>  (86) 
-6.307

>  <name>  (86) 
87

>  <ligand_id>  (86) 
87

>  <original_smiles>  (86) 
[H]c1c([H])c([H])c2c(c1[H])C([H])([H])C([H])([H])C([H])([H])C2([H])N([H])C(=O)C1([H])N(C(=O)C([H])(N([H])C(=O)C([H])(N([H])C([H])([H])[H])C([H])([H])[H])C(C([H])([H])[H])(C([H])([H])[H])C([H])([H])[H])C([H])([H])c2c([H])c(OC([H])([H])C([H])([H])C([H])([H])c3c([H])c([H])c(C(=O)C([H])([H])C([H])([H])C([H])([H])C([H])([H])C([H])([H])N([H])C(=O)N4C([H])([H])C([H])([H])C([H])([H])C([H])(n5nc(-c6c([H])c([H])c(Oc7c([H])c([H])c(F)c([H])c7F)c([H])c6[H])c(C(=O)N([H])[H])c5N([H])[H])C4([H])[H])c(F)c3[H])c([H])c([H])c2C1([H])[H]

>  <smiles>  (86) 
[H]c1c([H])c([H])c2c(c1[H])C([H])([H])C([H])([H])C([H])([H])C2([H])N([H])C(=O)C1([H])N(C(=O)C([H])(N([H])C(=O)C([H])(N([H])C([H])([H])[H])C([H])([H])[H])C(C([H])([H])[H])(C([H])([H])[H])C([H])([H])[H])C([H])([H])c2c([H])c(OC([H])([H])C([H])([H])C([H])([H])c3c([H])c([H])c(C(=O)C([H])([H])C([H])([H])C([H])([H])C([H])([H])C([H])([H])N([H])C(=O)N4C([H])([H])C([H])([H])C([H])([H])C([H])(n5nc(-c6c([H])c([H])c(Oc7c([H])c([H])c(F)c([H])c7F)c([H])c6[H])c(C(=O)N([H])[H])c5N([H])[H])C4([H])[H])c(F)c3[H])c([H])c([H])c2C1([H])[H]

$$$$
88:0:0
     RDKit          3D

 94103  0  0  1  0  0  0  0  0999 V2000
  -30.1960  -22.4120   23.0330 C   0  0  0  0  0  3  0  0  0  0  0  0
  -29.7050  -23.6390   22.5390 C   0  0  0  0  0  3  0  0  0  0  0  0
  -28.9340  -21.2260   21.3290 C   0  0  0  0  0  3  0  0  0  0  0  0
  -29.8190  -21.1990   22.4260 C   0  0  0  0  0  0  0  0  0  0  0  0
  -28.8280  -23.6800   21.4290 C   0  0  0  0  0  0  0  0  0  0  0  0
  -28.4260  -22.4490   20.8420 C   0  0  0  0  0  0  0  0  0  0  0  0
  -27.4430  -22.4050   19.6820 C   0  0  0  0  0  1  0  0  0  0  0  0
  -30.3430  -19.8700   22.9520 C   0  0  0  0  0  2  0  0  0  0  0  0
  -31.1950  -19.0930   21.9240 C   0  0  0  0  0  2  0  0  0  0  0  0
  -30.7300  -14.2780   19.4600 C   0  0  0  0  0  0  0  0  0  0  0  0
  -30.1660  -12.2050   18.2250 C   0  0  0  0  0  2  0  0  0  0  0  0
  -29.0580  -12.4340   17.1810 C   0  0  0  0  0  2  0  0  0  0  0  0
  -27.6570  -12.3150   17.8160 C   0  0  0  0  0  2  0  0  0  0  0  0
  -27.5300  -13.1440   19.1210 C   0  0  0  0  0  3  0  0  0  0  0  0
  -28.7200  -12.8290   20.0550 C   0  0  0  0  0  2  0  0  0  0  0  0
  -29.9670  -13.1520   19.3370 N   0  0  0  0  0  0  0  0  0  0  0  0
  -31.6210  -14.5540   18.6460 O   0  0  0  0  0  0  0  0  0  0  0  0
  -32.1700  -16.7850   21.3800 C   0  0  0  0  0  2  0  0  0  0  0  0
  -29.7070  -17.1580   21.1950 C   0  0  0  0  0  2  0  0  0  0  0  0
  -31.9070  -15.2660   21.3920 C   0  0  0  0  0  2  0  0  0  0  0  0
  -29.4980  -15.6350   21.1660 C   0  0  0  0  0  2  0  0  0  0  0  0
  -30.9770  -17.5630   21.9620 C   0  0  0  0  0  3  0  0  0  0  0  0
  -30.6790  -14.9110   20.6630 N   0  0  0  0  0  0  0  0  0  0  0  0
  -25.2850  -13.8290   20.1890 C   0  0  0  0  0  0  0  0  0  0  0  0
  -24.2500  -13.0870   20.6900 C   0  0  0  0  0  0  0  0  0  0  0  0
  -24.6390  -11.7200   20.5470 C   0  0  0  0  0  0  0  0  0  0  0  0
  -26.2460  -12.9150   19.7800 N   0  0  0  0  0  0  0  0  0  0  0  0
  -25.8650  -11.6400   20.0460 N   0  0  0  0  0  0  0  0  0  0  0  0
  -23.8980  -10.4810   20.8130 C   0  0  0  0  0  0  0  0  0  0  0  0
  -24.3650   -9.5220   21.7390 C   0  0  0  0  0  3  0  0  0  0  0  0
  -23.6250   -8.3470   21.9860 C   0  0  0  0  0  3  0  0  0  0  0  0
  -22.4030   -8.1210   21.3110 C   0  0  0  0  0  0  0  0  0  0  0  0
  -21.9530   -9.0700   20.3750 C   0  0  0  0  0  3  0  0  0  0  0  0
  -22.6930  -10.2380   20.1240 C   0  0  0  0  0  3  0  0  0  0  0  0
  -21.6290   -6.9980   21.4720 O   0  0  0  0  0  0  0  0  0  0  0  0
  -21.5770   -6.3240   22.6650 C   0  0  0  0  0  0  0  0  0  0  0  0
  -21.1770   -6.9570   23.8620 C   0  0  0  0  0  3  0  0  0  0  0  0
  -21.0710   -6.2100   25.0530 C   0  0  0  0  0  3  0  0  0  0  0  0
  -21.3540   -4.8310   25.0460 C   0  0  0  0  0  0  0  0  0  0  0  0
  -21.7450   -4.1970   23.8540 C   0  0  0  0  0  3  0  0  0  0  0  0
  -21.8530   -4.9420   22.6650 C   0  0  0  0  0  0  0  0  0  0  0  0
  -22.2110   -4.3220   21.5150 F   0  0  0  0  0  0  0  0  0  0  0  0
  -21.2440   -4.1120   26.1880 F   0  0  0  0  0  0  0  0  0  0  0  0
  -22.9300  -13.6100   21.1840 C   0  0  0  0  0  0  0  0  0  0  0  0
  -22.3350  -12.9420   22.1660 N   0  0  0  0  0  0  0  0  0  0  0  0
  -22.4420  -14.6470   20.7350 O   0  0  0  0  0  0  0  0  0  0  0  0
  -22.7400  -12.1030   22.5530 H   0  0  0  0  0  0  0  0  0  0  0  0
  -21.4530  -13.2750   22.5300 H   0  0  0  0  0  0  0  0  0  0  0  0
  -25.4830  -15.1970   20.0330 N   0  0  0  0  0  0  0  0  0  0  0  0
  -24.7850  -15.8780   20.3120 H   0  0  0  0  0  0  0  0  0  0  0  0
  -26.3130  -15.6220   19.6370 H   0  0  0  0  0  0  0  0  0  0  0  0
  -28.3240  -25.0130   20.8520 C   0  0  0  0  0  2  0  0  0  0  0  0
  -29.2440  -26.2500   21.0200 C   0  0  0  0  0  2  0  0  0  0  0  0
  -28.9910  -27.2780   20.0550 O   0  0  0  0  0  0  0  0  0  0  0  0
  -24.6380  -31.8520   23.3560 C   0  0  0  0  0  0  0  0  0  0  0  0
  -27.7640  -27.8890   20.1150 C   0  0  0  0  0  0  0  0  0  0  0  0
  -23.6110  -30.4660   21.5810 C   0  0  0  0  0  3  0  0  0  0  0  0
  -25.2460  -29.1590   20.1170 C   0  0  0  0  0  0  0  0  0  0  0  0
  -26.0970  -31.0580   21.5040 C   0  0  0  0  0  2  0  0  0  0  0  0
  -26.3260  -29.7460   20.7880 C   0  0  0  0  0  0  0  0  0  0  0  0
  -27.5910  -29.1160   20.7880 C   0  0  0  0  0  3  0  0  0  0  0  0
  -26.6730  -27.3160   19.4280 C   0  0  0  0  0  3  0  0  0  0  0  0
  -25.4120  -27.9400   19.4360 C   0  0  0  0  0  3  0  0  0  0  0  0
  -23.9270  -29.8960   20.1700 C   0  0  0  0  0  2  0  0  0  0  0  0
  -24.7960  -31.1370   22.2070 N   0  0  0  0  0  0  0  0  0  0  0  0
  -23.5200  -31.9940   23.8720 O   0  0  0  0  0  0  0  0  0  0  0  0
  -23.0250  -29.3310   22.4480 C   0  0  0  0  0  0  0  0  0  0  0  0
  -21.7240  -29.0480   22.2600 N   0  0  0  0  0  0  0  0  0  0  0  0
  -23.7360  -28.7070   23.2400 O   0  0  0  0  0  0  0  0  0  0  0  0
  -21.2110  -29.6060   21.5920 H   0  0  0  0  0  0  0  0  0  0  0  0
  -18.4430  -27.5810   22.6030 C   0  0  0  0  0  0  0  0  0  0  0  0
  -20.9710  -27.9960   22.9390 C   0  0  0  0  0  3  0  0  0  0  0  0
  -21.1860  -26.6280   22.2520 C   0  0  0  0  0  2  0  0  0  0  0  0
  -20.1230  -26.3100   21.1960 C   0  0  0  0  0  2  0  0  0  0  0  0
  -18.7250  -26.3070   21.8220 C   0  0  0  0  0  2  0  0  0  0  0  0
  -19.4970  -28.3810   23.1120 C   0  0  0  0  0  0  0  0  0  0  0  0
  -19.1820  -29.5730   23.7990 C   0  0  0  0  0  3  0  0  0  0  0  0
  -17.8410  -29.9670   23.9810 C   0  0  0  0  0  3  0  0  0  0  0  0
  -16.8020  -29.1610   23.4880 C   0  0  0  0  0  3  0  0  0  0  0  0
  -17.1010  -27.9700   22.8050 C   0  0  0  0  0  3  0  0  0  0  0  0
  -25.8430  -32.5460   24.0640 C   0  0  0  0  0  3  0  0  0  0  0  0
  -26.2700  -31.8350   25.4080 C   0  0  1  0  0  0  0  0  0  0  0  0
  -25.0860  -31.5520   26.3600 C   0  0  0  0  0  1  0  0  0  0  0  0
  -26.9750  -30.4910   25.1160 C   0  0  0  0  0  1  0  0  0  0  0  0
  -27.2940  -32.7160   26.1650 C   0  0  0  0  0  1  0  0  0  0  0  0
  -25.4670  -33.9440   24.3090 N   0  0  0  0  0  0  0  0  0  0  0  0
  -25.8260  -34.9760   23.5340 C   0  0  0  0  0  0  0  0  0  0  0  0
  -26.5810  -34.8550   22.5640 O   0  0  0  0  0  0  0  0  0  0  0  0
  -24.8100  -34.1120   25.0570 H   0  0  0  0  0  0  0  0  0  0  0  0
  -24.0760  -36.6880   22.9680 C   0  0  0  0  0  1  0  0  0  0  0  0
  -25.2610  -36.3630   23.8910 C   0  0  0  0  0  3  0  0  0  0  0  0
  -27.2960  -37.3540   24.8440 C   0  0  0  0  0  1  0  0  0  0  0  0
  -26.2650  -37.4460   23.8130 N   0  0  0  0  0  0  0  0  0  0  0  0
  -25.8220  -38.3570   23.8890 H   0  0  0  0  0  0  0  0  0  0  0  0
  2  1  1  0
  3  4  1  0
  4  8  1  0
  4  1  2  0
  5  2  2  0
  6  3  2  0
  6  5  1  0
  7  6  1  0
  9  8  1  0
 10 23  1  0
 11 16  1  0
 12 13  1  0
 12 11  1  0
 14 13  1  0
 14 27  1  0
 14 15  1  0
 16 10  1  0
 16 15  1  0
 17 10  2  0
 18 20  1  0
 18 22  1  0
 19 22  1  0
 21 19  1  0
 22  9  1  0
 23 21  1  0
 23 20  1  0
 24 25  2  0
 25 44  1  0
 26 25  1  0
 26 29  1  0
 27 28  1  0
 27 24  1  0
 28 26  2  0
 29 30  1  0
 30 31  2  0
 32 35  1  0
 32 31  1  0
 33 32  2  0
 34 33  1  0
 34 29  2  0
 35 36  1  0
 36 37  1  0
 37 38  2  0
 39 38  1  0
 39 43  1  0
 40 39  2  0
 41 36  2  0
 41 40  1  0
 42 41  1  0
 44 45  1  0
 45 48  1  0
 45 47  1  0
 46 44  2  0
 49 24  1  0
 49 50  1  0
 51 49  1  0
 52 53  1  0
 52  5  1  0
 54 56  1  0
 54 53  1  0
 55 66  2  0
 56 61  1  0
 57 65  1  0
 57 67  1  0
 58 64  1  0
 58 60  1  0
 59 65  1  0
 60 61  2  0
 60 59  1  0
 62 63  1  0
 62 56  2  0
 63 58  2  0
 64 57  1  0
 65 55  1  0
 67 69  2  0
 68 67  1  0
 70 68  1  0
 71 80  2  0
 71 76  1  0
 72 68  1  0
 72 76  1  0
 73 72  1  0
 74 75  1  0
 74 73  1  0
 75 71  1  0
 76 77  2  0
 77 78  1  0
 79 78  2  0
 80 79  1  0
 81 55  1  0
 81 86  1  0
 81 82  1  0
 82 85  1  1
 82 83  1  0
 84 82  1  0
 86 89  1  0
 87 91  1  0
 87 86  1  0
 88 87  2  0
 91 90  1  0
 93 94  1  0
 93 91  1  0
 93 92  1  0
M  ISO  4  10 100  23 100  53 101  54 101
M  END
>  <TORSDO>  (87) 
F 20

>  <SCORE>  (87) 
-11.110

>  <name>  (87) 
88

>  <ligand_id>  (87) 
88

>  <original_smiles>  (87) 
[H]c1c([H])c([H])c2c(c1[H])C([H])([H])C([H])([H])C([H])([H])C2([H])N([H])C(=O)C1([H])N(C(=O)C([H])(N([H])C(=O)C([H])(N([H])C([H])([H])[H])C([H])([H])[H])C(C([H])([H])[H])(C([H])([H])[H])C([H])([H])[H])C([H])([H])c2c([H])c(OC([H])([H])C([H])([H])c3c([H])c([H])c(C([H])([H])C([H])([H])C4([H])C([H])([H])C([H])([H])N(C(=O)N5C([H])([H])C([H])([H])C([H])([H])C([H])(n6nc(-c7c([H])c([H])c(Oc8c([H])c([H])c(F)c([H])c8F)c([H])c7[H])c(C(=O)N([H])[H])c6N([H])[H])C5([H])[H])C([H])([H])C4([H])[H])c([H])c3C([H])([H])[H])c([H])c([H])c2C1([H])[H]

>  <smiles>  (87) 
[H]c1c([H])c([H])c2c(c1[H])C([H])([H])C([H])([H])C([H])([H])C2([H])N([H])C(=O)C1([H])N(C(=O)C([H])(N([H])C(=O)C([H])(N([H])C([H])([H])[H])C([H])([H])[H])C(C([H])([H])[H])(C([H])([H])[H])C([H])([H])[H])C([H])([H])c2c([H])c(OC([H])([H])C([H])([H])c3c([H])c([H])c(C([H])([H])C([H])([H])C4([H])C([H])([H])C([H])([H])N(C(=O)N5C([H])([H])C([H])([H])C([H])([H])C([H])(n6nc(-c7c([H])c([H])c(Oc8c([H])c([H])c(F)c([H])c8F)c([H])c7[H])c(C(=O)N([H])[H])c6N([H])[H])C5([H])[H])C([H])([H])C4([H])[H])c([H])c3C([H])([H])[H])c([H])c([H])c2C1([H])[H]

$$$$
89:0:0
     RDKit          3D

 97105  0  0  1  0  0  0  0  0999 V2000
  -29.1920  -22.4410   19.2550 C   0  0  0  0  0  3  0  0  0  0  0  0
  -29.4120  -23.7940   19.5740 C   0  0  0  0  0  3  0  0  0  0  0  0
  -29.8930  -21.7960   21.4840 C   0  0  0  0  0  3  0  0  0  0  0  0
  -29.4710  -21.4090   20.1860 C   0  0  0  0  0  0  0  0  0  0  0  0
  -29.8920  -24.1680   20.8440 C   0  0  0  0  0  0  0  0  0  0  0  0
  -30.1040  -23.1560   21.8130 C   0  0  0  0  0  0  0  0  0  0  0  0
  -30.5510  -23.4700   23.0950 N   0  0  0  0  0  0  0  0  0  0  0  0
  -30.6380  -22.7680   23.8220 H   0  0  0  0  0  0  0  0  0  0  0  0
  -30.5780  -24.4310   23.4250 H   0  0  0  0  0  0  0  0  0  0  0  0
  -29.6050  -19.6840   18.2840 C   0  0  0  0  0  1  0  0  0  0  0  0
  -29.2880  -19.9250   19.7840 C   0  0  0  0  0  3  0  0  0  0  0  0
  -30.0640  -18.9840   20.6450 N   0  0  0  0  0  4  0  0  0  0  0  0
  -31.0490  -19.1820   20.5580 H   0  0  0  0  0  0  0  0  0  0  0  0
  -29.8000  -19.1730   21.5980 H   0  0  0  0  0  0  0  0  0  0  0  0
  -29.8220  -17.5370   20.3910 C   0  0  0  0  0  2  0  0  0  0  0  0
  -30.4460  -16.6030   21.4530 C   0  0  0  0  0  2  0  0  0  0  0  0
  -30.6310  -14.3540   20.3540 C   0  0  0  0  0  0  0  0  0  0  0  0
  -30.2660  -12.2910   19.0500 C   0  0  0  0  0  2  0  0  0  0  0  0
  -29.2700  -12.5630   17.9050 C   0  0  0  0  0  2  0  0  0  0  0  0
  -27.8140  -12.4090   18.3860 C   0  0  0  0  0  2  0  0  0  0  0  0
  -27.5390  -13.1760   19.7070 C   0  0  0  0  0  3  0  0  0  0  0  0
  -28.6330  -12.8690   20.7520 C   0  0  0  0  0  2  0  0  0  0  0  0
  -29.9430  -13.1990   20.1590 N   0  0  0  0  0  0  0  0  0  0  0  0
  -31.6570  -14.6510   19.7340 O   0  0  0  0  0  0  0  0  0  0  0  0
  -30.0680  -15.2050   21.2240 N   0  0  0  0  0  0  0  0  0  0  0  0
  -29.2500  -14.8640   21.7080 H   0  0  0  0  0  0  0  0  0  0  0  0
  -25.1590  -13.7660   20.4980 C   0  0  0  0  0  0  0  0  0  0  0  0
  -24.1090  -12.9830   20.8960 C   0  0  0  0  0  0  0  0  0  0  0  0
  -24.5760  -11.6350   20.8310 C   0  0  0  0  0  0  0  0  0  0  0  0
  -26.2010  -12.8930   20.2220 N   0  0  0  0  0  0  0  0  0  0  0  0
  -25.8540  -11.6050   20.4760 N   0  0  0  0  0  0  0  0  0  0  0  0
  -23.8630  -10.3670   21.0310 C   0  0  0  0  0  0  0  0  0  0  0  0
  -24.3280   -9.3990   21.9500 C   0  0  0  0  0  3  0  0  0  0  0  0
  -23.6170   -8.1930   22.1390 C   0  0  0  0  0  3  0  0  0  0  0  0
  -22.4280   -7.9490   21.4110 C   0  0  0  0  0  0  0  0  0  0  0  0
  -21.9840   -8.9050   20.4810 C   0  0  0  0  0  3  0  0  0  0  0  0
  -22.6950  -10.1030   20.2910 C   0  0  0  0  0  3  0  0  0  0  0  0
  -21.6880   -6.7970   21.5100 O   0  0  0  0  0  0  0  0  0  0  0  0
  -21.6670   -6.0490   22.6600 C   0  0  0  0  0  0  0  0  0  0  0  0
  -21.2450   -6.5920   23.8930 C   0  0  0  0  0  3  0  0  0  0  0  0
  -21.1740   -5.7700   25.0360 C   0  0  0  0  0  3  0  0  0  0  0  0
  -21.5130   -4.4080   24.9470 C   0  0  0  0  0  0  0  0  0  0  0  0
  -21.9260   -3.8630   23.7180 C   0  0  0  0  0  3  0  0  0  0  0  0
  -22.0010   -4.6830   22.5770 C   0  0  0  0  0  0  0  0  0  0  0  0
  -22.3790   -4.1480   21.3910 F   0  0  0  0  0  0  0  0  0  0  0  0
  -21.4360   -3.6160   26.0430 F   0  0  0  0  0  0  0  0  0  0  0  0
  -22.7200  -13.4480   21.2260 C   0  0  0  0  0  0  0  0  0  0  0  0
  -22.0290  -12.7370   22.1090 N   0  0  0  0  0  0  0  0  0  0  0  0
  -22.2570  -14.4770   20.7370 O   0  0  0  0  0  0  0  0  0  0  0  0
  -22.4160  -11.9030   22.5270 H   0  0  0  0  0  0  0  0  0  0  0  0
  -21.0980  -13.0280   22.3720 H   0  0  0  0  0  0  0  0  0  0  0  0
  -25.3080  -15.1400   20.3280 N   0  0  0  0  0  0  0  0  0  0  0  0
  -24.5360  -15.7850   20.4590 H   0  0  0  0  0  0  0  0  0  0  0  0
  -26.1340  -15.5840   19.9500 H   0  0  0  0  0  0  0  0  0  0  0  0
  -30.2450  -25.6390   21.0940 C   0  0  0  0  0  2  0  0  0  0  0  0
  -29.0540  -26.5910   21.3240 C   0  0  0  0  0  2  0  0  0  0  0  0
  -28.2100  -26.6240   20.1760 O   0  0  0  0  0  0  0  0  0  0  0  0
  -24.4980  -31.9320   23.2280 C   0  0  0  0  0  0  0  0  0  0  0  0
  -27.0860  -27.4160   20.2320 C   0  0  0  0  0  0  0  0  0  0  0  0
  -23.2710  -30.5240   21.6040 C   0  0  0  0  0  3  0  0  0  0  0  0
  -24.7040  -28.9390   20.2100 C   0  0  0  0  0  0  0  0  0  0  0  0
  -25.8000  -30.8410   21.4090 C   0  0  0  0  0  2  0  0  0  0  0  0
  -25.8640  -29.4580   20.8010 C   0  0  0  0  0  0  0  0  0  0  0  0
  -27.0550  -28.7020   20.8200 C   0  0  0  0  0  3  0  0  0  0  0  0
  -25.9150  -26.9110   19.6330 C   0  0  0  0  0  3  0  0  0  0  0  0
  -24.7230  -27.6600   19.6270 C   0  0  0  0  0  3  0  0  0  0  0  0
  -23.4740  -29.8170   20.2360 C   0  0  0  0  0  2  0  0  0  0  0  0
  -24.5410  -31.1150   22.1390 N   0  0  0  0  0  0  0  0  0  0  0  0
  -23.4220  -32.2330   23.7620 O   0  0  0  0  0  0  0  0  0  0  0  0
  -22.6010  -29.5300   22.5790 C   0  0  0  0  0  0  0  0  0  0  0  0
  -21.2730  -29.3750   22.4550 N   0  0  0  0  0  0  0  0  0  0  0  0
  -23.2720  -28.9030   23.4030 O   0  0  0  0  0  0  0  0  0  0  0  0
  -20.7950  -29.9350   21.7620 H   0  0  0  0  0  0  0  0  0  0  0  0
  -17.8700  -28.2790   22.9790 C   0  0  0  0  0  0  0  0  0  0  0  0
  -20.4350  -28.4670   23.2380 C   0  0  0  0  0  3  0  0  0  0  0  0
  -20.4950  -27.0290   22.6740 C   0  0  0  0  0  2  0  0  0  0  0  0
  -19.3800  -26.7280   21.6680 C   0  0  0  0  0  2  0  0  0  0  0  0
  -18.0060  -26.9190   22.3170 C   0  0  0  0  0  2  0  0  0  0  0  0
  -19.0120  -29.0140   23.3980 C   0  0  0  0  0  0  0  0  0  0  0  0
  -18.8320  -30.2880   23.9760 C   0  0  0  0  0  3  0  0  0  0  0  0
  -17.5430  -30.8290   24.1410 C   0  0  0  0  0  3  0  0  0  0  0  0
  -16.4150  -30.0910   23.7400 C   0  0  0  0  0  3  0  0  0  0  0  0
  -16.5800  -28.8180   23.1650 C   0  0  0  0  0  3  0  0  0  0  0  0
  -25.7960  -32.5490   23.8400 C   0  0  0  0  0  3  0  0  0  0  0  0
  -25.5040  -33.9480   24.1770 N   0  0  0  0  0  0  0  0  0  0  0  0
  -25.8470  -34.9990   23.4200 C   0  0  0  0  0  0  0  0  0  0  0  0
  -26.5130  -34.8920   22.3860 O   0  0  0  0  0  0  0  0  0  0  0  0
  -24.9130  -34.1060   24.9800 H   0  0  0  0  0  0  0  0  0  0  0  0
  -24.1430  -36.8140   23.0650 C   0  0  0  0  0  1  0  0  0  0  0  0
  -25.3750  -36.3900   23.8810 C   0  0  0  0  0  3  0  0  0  0  0  0
  -27.5160  -37.2420   24.7290 C   0  0  0  0  0  1  0  0  0  0  0  0
  -26.4210  -37.4300   23.7800 N   0  0  0  0  0  0  0  0  0  0  0  0
  -26.0270  -38.3550   23.9300 H   0  0  0  0  0  0  0  0  0  0  0  0
  -26.3210  -31.7650   25.1060 C   0  0  1  0  0  0  0  0  0  0  0  0
  -25.2360  -31.5260   26.1820 C   0  0  0  0  0  1  0  0  0  0  0  0
  -26.8920  -30.3880   24.6960 C   0  0  0  0  0  1  0  0  0  0  0  0
  -27.4820  -32.5490   25.7620 C   0  0  0  0  0  1  0  0  0  0  0  0
  1  2  2  0
  1  4  1  0
  2  5  1  0
  3  6  1  0
  4  3  2  0
  5 55  1  0
  5  6  2  0
  6  7  1  0
  7  9  1  0
  7  8  1  0
 11 10  1  0
 11  4  1  0
 11 12  1  0
 12 14  1  0
 13 12  1  0
 15 12  1  0
 15 16  1  0
 17 25  1  0
 18 23  1  0
 19 20  1  0
 19 18  1  0
 21 20  1  0
 21 30  1  0
 21 22  1  0
 23 17  1  0
 23 22  1  0
 24 17  2  0
 25 16  1  0
 25 26  1  0
 27 28  2  0
 28 47  1  0
 29 28  1  0
 29 32  1  0
 30 31  1  0
 30 27  1  0
 31 29  2  0
 32 33  1  0
 33 34  2  0
 35 38  1  0
 35 34  1  0
 36 35  2  0
 37 36  1  0
 37 32  2  0
 38 39  1  0
 39 40  1  0
 40 41  2  0
 42 41  1  0
 42 46  1  0
 43 42  2  0
 44 39  2  0
 44 43  1  0
 45 44  1  0
 47 48  1  0
 48 51  1  0
 48 50  1  0
 49 47  2  0
 52 53  1  0
 52 27  1  0
 54 52  1  0
 55 56  1  0
 57 59  1  0
 57 56  1  0
 58 69  2  0
 59 64  1  0
 60 68  1  0
 60 70  1  0
 61 67  1  0
 61 63  1  0
 62 68  1  0
 63 64  2  0
 63 62  1  0
 65 59  2  0
 66 65  1  0
 66 61  2  0
 67 60  1  0
 68 58  1  0
 70 72  2  0
 71 70  1  0
 73 71  1  0
 74 83  2  0
 74 79  1  0
 75 71  1  0
 75 79  1  0
 76 75  1  0
 77 78  1  0
 77 76  1  0
 78 74  1  0
 79 80  2  0
 80 81  1  0
 82 81  2  0
 83 82  1  0
 84 58  1  0
 84 85  1  0
 84 94  1  0
 85 88  1  0
 86 90  1  0
 86 85  1  0
 87 86  2  0
 90 89  1  0
 92 90  1  0
 92 93  1  0
 92 91  1  0
 94 97  1  1
 94 95  1  0
 96 94  1  0
M  ISO  4  17 100  25 100  56 101  57 101
M  END
>  <TORSDO>  (88) 
F 23

>  <SCORE>  (88) 
-13.149

>  <name>  (88) 
89

>  <ligand_id>  (88) 
89

>  <original_smiles>  (88) 
[H]c1c([H])c([H])c2c(c1[H])C([H])([H])C([H])([H])C([H])([H])C2([H])N([H])C(=O)C1([H])N(C(=O)C([H])(N([H])C(=O)C([H])(N([H])C([H])([H])[H])C([H])([H])[H])C(C([H])([H])[H])(C([H])([H])[H])C([H])([H])[H])C([H])([H])c2c([H])c(OC([H])([H])C([H])([H])c3c([H])c([H])c(C([H])(C([H])([H])[H])[N+]([H])([H])C([H])([H])C([H])([H])N([H])C(=O)N4C([H])([H])C([H])([H])C([H])([H])C([H])(n5nc(-c6c([H])c([H])c(Oc7c([H])c([H])c(F)c([H])c7F)c([H])c6[H])c(C(=O)N([H])[H])c5N([H])[H])C4([H])[H])c([H])c3N([H])[H])c([H])c([H])c2C1([H])[H]

>  <smiles>  (88) 
[H]c1c([H])c([H])c2c(c1[H])C([H])([H])C([H])([H])C([H])([H])C2([H])N([H])C(=O)C1([H])N(C(=O)C([H])(N([H])C(=O)C([H])(N([H])C([H])([H])[H])C([H])([H])[H])C(C([H])([H])[H])(C([H])([H])[H])C([H])([H])[H])C([H])([H])c2c([H])c(OC([H])([H])C([H])([H])c3c([H])c([H])c(C([H])(C([H])([H])[H])[N+]([H])([H])C([H])([H])C([H])([H])N([H])C(=O)N4C([H])([H])C([H])([H])C([H])([H])C([H])(n5nc(-c6c([H])c([H])c(Oc7c([H])c([H])c(F)c([H])c7F)c([H])c6[H])c(C(=O)N([H])[H])c5N([H])[H])C4([H])[H])c([H])c3N([H])[H])c([H])c([H])c2C1([H])[H]

$$$$
90:0:0
     RDKit          3D

104112  0  0  1  0  0  0  0  0999 V2000
  -33.3690  -20.6340   24.0810 C   0  0  0  0  0  3  0  0  0  0  0  0
  -34.4110  -20.5000   23.1420 C   0  0  0  0  0  3  0  0  0  0  0  0
  -32.1660  -21.2620   23.7120 C   0  0  0  0  0  3  0  0  0  0  0  0
  -33.0430  -21.6390   21.4700 C   0  0  0  0  0  3  0  0  0  0  0  0
  -34.2520  -21.0030   21.8320 C   0  0  0  0  0  0  0  0  0  0  0  0
  -31.9910  -21.7510   22.4010 C   0  0  0  0  0  0  0  0  0  0  0  0
  -35.3530  -20.8460   20.8420 C   0  0  0  0  0  0  0  0  0  0  0  0
  -36.4650  -21.3570   21.0170 O   0  0  0  0  0  0  0  0  0  0  0  0
  -35.0890  -19.9320   19.6050 C   0  0  0  0  0  0  0  0  0  0  0  0
  -33.7980  -19.8890   19.2450 N   0  0  0  0  0  0  0  0  0  0  0  0
  -35.9830  -19.2910   19.0410 O   0  0  0  0  0  0  0  0  0  0  0  0
  -33.1760  -20.4660   19.7930 H   0  0  0  0  0  0  0  0  0  0  0  0
  -33.1830  -18.9270   18.3430 C   0  0  0  0  0  2  0  0  0  0  0  0
  -32.7150  -17.7020   19.1360 C   0  0  0  0  0  2  0  0  0  0  0  0
  -31.7880  -18.0330   20.3260 C   0  0  0  0  0  2  0  0  0  0  0  0
  -31.4260  -16.7920   21.1540 C   0  0  0  0  0  2  0  0  0  0  0  0
  -30.3300  -15.9600   20.4770 C   0  0  0  0  0  2  0  0  0  0  0  0
  -30.9200  -13.5860   20.2320 C   0  0  0  0  0  0  0  0  0  0  0  0
  -30.4370  -11.4650   19.0820 C   0  0  0  0  0  2  0  0  0  0  0  0
  -29.4620  -11.7620   17.9230 C   0  0  0  0  0  2  0  0  0  0  0  0
  -27.9990  -11.7510   18.4120 C   0  0  0  0  0  2  0  0  0  0  0  0
  -27.7870  -12.6020   19.6910 C   0  0  0  0  0  3  0  0  0  0  0  0
  -28.8540  -12.2450   20.7520 C   0  0  0  0  0  2  0  0  0  0  0  0
  -30.1870  -12.4470   20.1460 N   0  0  0  0  0  0  0  0  0  0  0  0
  -31.9790  -13.7720   19.6230 O   0  0  0  0  0  0  0  0  0  0  0  0
  -30.3010  -14.5680   20.8990 N   0  0  0  0  0  0  0  0  0  0  0  0
  -29.4930  -14.2820   21.4320 H   0  0  0  0  0  0  0  0  0  0  0  0
  -25.4680  -13.4180   20.4720 C   0  0  0  0  0  0  0  0  0  0  0  0
  -24.3600  -12.7400   20.9020 C   0  0  0  0  0  0  0  0  0  0  0  0
  -24.7120  -11.3550   20.8790 C   0  0  0  0  0  0  0  0  0  0  0  0
  -26.4320  -12.4520   20.2210 N   0  0  0  0  0  0  0  0  0  0  0  0
  -25.9790  -11.2080   20.5170 N   0  0  0  0  0  0  0  0  0  0  0  0
  -23.9030  -10.1560   21.1290 C   0  0  0  0  0  0  0  0  0  0  0  0
  -24.3220   -9.1580   22.0370 C   0  0  0  0  0  3  0  0  0  0  0  0
  -23.5190   -8.0220   22.2720 C   0  0  0  0  0  3  0  0  0  0  0  0
  -22.2800   -7.8770   21.6010 C   0  0  0  0  0  0  0  0  0  0  0  0
  -21.8790   -8.8650   20.6840 C   0  0  0  0  0  3  0  0  0  0  0  0
  -22.6820   -9.9920   20.4460 C   0  0  0  0  0  3  0  0  0  0  0  0
  -21.4460   -6.7960   21.7460 O   0  0  0  0  0  0  0  0  0  0  0  0
  -21.4480   -6.0340   22.8870 C   0  0  0  0  0  0  0  0  0  0  0  0
  -21.1850   -6.5920   24.1580 C   0  0  0  0  0  3  0  0  0  0  0  0
  -21.1290   -5.7620   25.2950 C   0  0  0  0  0  3  0  0  0  0  0  0
  -21.3250   -4.3750   25.1640 C   0  0  0  0  0  0  0  0  0  0  0  0
  -21.5810   -3.8150   23.8990 C   0  0  0  0  0  3  0  0  0  0  0  0
  -21.6400   -4.6430   22.7650 C   0  0  0  0  0  0  0  0  0  0  0  0
  -21.8660   -4.0970   21.5460 F   0  0  0  0  0  0  0  0  0  0  0  0
  -21.2640   -3.5750   26.2540 F   0  0  0  0  0  0  0  0  0  0  0  0
  -23.0160  -13.3280   21.2280 C   0  0  0  0  0  0  0  0  0  0  0  0
  -22.2770  -12.7120   22.1430 N   0  0  0  0  0  0  0  0  0  0  0  0
  -22.6290  -14.3720   20.7020 O   0  0  0  0  0  0  0  0  0  0  0  0
  -22.5990  -11.8710   22.5990 H   0  0  0  0  0  0  0  0  0  0  0  0
  -21.3770  -13.0940   22.3970 H   0  0  0  0  0  0  0  0  0  0  0  0
  -25.7310  -14.7690   20.2560 N   0  0  0  0  0  0  0  0  0  0  0  0
  -25.0300  -15.4920   20.3840 H   0  0  0  0  0  0  0  0  0  0  0  0
  -26.6000  -15.1260   19.8810 H   0  0  0  0  0  0  0  0  0  0  0  0
  -30.6560  -22.3440   21.9810 C   0  0  0  0  0  2  0  0  0  0  0  0
  -29.5750  -21.2580   21.8090 C   0  0  0  0  0  2  0  0  0  0  0  0
  -28.1610  -21.7840   21.4900 C   0  0  0  0  0  2  0  0  0  0  0  0
  -28.0790  -22.4250   20.1600 N   0  0  0  0  0  4  0  0  0  0  0  0
  -27.1710  -22.2050   19.7780 H   0  0  0  0  0  0  0  0  0  0  0  0
  -28.7560  -22.0000   19.5470 H   0  0  0  0  0  0  0  0  0  0  0  0
  -28.2260  -23.9020   20.1630 C   0  0  0  0  0  2  0  0  0  0  0  0
  -28.5790  -24.4620   18.7720 C   0  0  0  0  0  2  0  0  0  0  0  0
  -28.7380  -25.8820   18.8310 O   0  0  0  0  0  0  0  0  0  0  0  0
  -25.2740  -30.4000   23.0690 C   0  0  0  0  0  0  0  0  0  0  0  0
  -27.6060  -26.6460   19.0000 C   0  0  0  0  0  0  0  0  0  0  0  0
  -23.9890  -29.5540   21.1310 C   0  0  0  0  0  3  0  0  0  0  0  0
  -25.3370  -28.2830   19.3830 C   0  0  0  0  0  0  0  0  0  0  0  0
  -26.5390  -29.7320   21.0290 C   0  0  0  0  0  2  0  0  0  0  0  0
  -26.5230  -28.5580   20.0740 C   0  0  0  0  0  0  0  0  0  0  0  0
  -27.6620  -27.7500   19.8760 C   0  0  0  0  0  3  0  0  0  0  0  0
  -26.4010  -26.3820   18.3090 C   0  0  0  0  0  3  0  0  0  0  0  0
  -25.2690  -27.1950   18.4960 C   0  0  0  0  0  3  0  0  0  0  0  0
  -24.1690  -29.2110   19.6300 C   0  0  0  0  0  2  0  0  0  0  0  0
  -25.2850  -29.8960   21.8030 N   0  0  0  0  0  0  0  0  0  0  0  0
  -24.2060  -30.6270   23.6570 O   0  0  0  0  0  0  0  0  0  0  0  0
  -23.2310  -28.3910   21.8120 C   0  0  0  0  0  0  0  0  0  0  0  0
  -21.8960  -28.3830   21.6650 N   0  0  0  0  0  0  0  0  0  0  0  0
  -23.8420  -27.5110   22.4230 O   0  0  0  0  0  0  0  0  0  0  0  0
  -21.4710  -29.1430   21.1540 H   0  0  0  0  0  0  0  0  0  0  0  0
  -18.4140  -27.4480   21.8950 C   0  0  0  0  0  0  0  0  0  0  0  0
  -20.9810  -27.3670   22.1840 C   0  0  0  0  0  3  0  0  0  0  0  0
  -20.9440  -26.1270   21.2620 C   0  0  0  0  0  2  0  0  0  0  0  0
  -19.8260  -26.1860   20.2150 C   0  0  0  0  0  2  0  0  0  0  0  0
  -18.4590  -26.3040   20.8970 C   0  0  0  0  0  2  0  0  0  0  0  0
  -19.6010  -27.9590   22.4870 C   0  0  0  0  0  0  0  0  0  0  0  0
  -19.5070  -29.0480   23.3800 C   0  0  0  0  0  3  0  0  0  0  0  0
  -18.2590  -29.6190   23.6880 C   0  0  0  0  0  3  0  0  0  0  0  0
  -17.0860  -29.1020   23.1110 C   0  0  0  0  0  3  0  0  0  0  0  0
  -17.1660  -28.0170   22.2200 C   0  0  0  0  0  3  0  0  0  0  0  0
  -26.5950  -30.7400   23.8280 C   0  0  0  0  0  3  0  0  0  0  0  0
  -26.3970  -32.0320   24.4980 N   0  0  0  0  0  0  0  0  0  0  0  0
  -26.8630  -33.2020   24.0430 C   0  0  0  0  0  0  0  0  0  0  0  0
  -27.5740  -33.2950   23.0380 O   0  0  0  0  0  0  0  0  0  0  0  0
  -25.7840  -32.0370   25.2990 H   0  0  0  0  0  0  0  0  0  0  0  0
  -25.3430  -35.2040   24.0920 C   0  0  0  0  0  1  0  0  0  0  0  0
  -26.4780  -34.4720   24.8260 C   0  0  0  0  0  3  0  0  0  0  0  0
  -28.6210  -34.8720   25.9540 C   0  0  0  0  0  1  0  0  0  0  0  0
  -27.6120  -35.3980   25.0400 N   0  0  0  0  0  0  0  0  0  0  0  0
  -27.2870  -36.2890   25.4020 H   0  0  0  0  0  0  0  0  0  0  0  0
  -27.0200  -29.6300   24.8660 C   0  0  1  0  0  0  0  0  0  0  0  0
  -25.8950  -29.2320   25.8480 C   0  0  0  0  0  1  0  0  0  0  0  0
  -27.4860  -28.3490   24.1350 C   0  0  0  0  0  1  0  0  0  0  0  0
  -28.2280  -30.1260   25.6960 C   0  0  0  0  0  1  0  0  0  0  0  0
  2  1  2  0
  3  1  1  0
  4  5  2  0
  4  6  1  0
  5  2  1  0
  6  3  2  0
  7  8  2  0
  7  5  1  0
  9  7  1  0
 10  9  1  0
 10 12  1  0
 11  9  2  0
 13 14  1  0
 13 10  1  0
 14 15  1  0
 15 16  1  0
 17 26  1  0
 17 16  1  0
 18 26  1  0
 19 24  1  0
 20 21  1  0
 20 19  1  0
 22 21  1  0
 22 31  1  0
 22 23  1  0
 24 18  1  0
 24 23  1  0
 25 18  2  0
 26 27  1  0
 28 29  2  0
 29 48  1  0
 30 29  1  0
 30 33  1  0
 31 28  1  0
 31 32  1  0
 32 30  2  0
 33 34  1  0
 34 35  2  0
 36 39  1  0
 36 35  1  0
 37 36  2  0
 38 37  1  0
 38 33  2  0
 39 40  1  0
 40 41  1  0
 41 42  2  0
 43 42  1  0
 43 47  1  0
 44 43  2  0
 45 40  2  0
 45 44  1  0
 46 45  1  0
 48 49  1  0
 49 52  1  0
 49 51  1  0
 50 48  2  0
 53 54  1  0
 53 28  1  0
 55 53  1  0
 56  6  1  0
 57 56  1  0
 58 57  1  0
 59 62  1  0
 59 58  1  0
 60 59  1  0
 61 59  1  0
 63 64  1  0
 63 62  1  0
 64 66  1  0
 65 76  2  0
 66 71  1  0
 67 75  1  0
 67 77  1  0
 68 74  1  0
 68 70  1  0
 69 75  1  0
 70 69  1  0
 71 70  2  0
 72 73  1  0
 72 66  2  0
 73 68  2  0
 74 67  1  0
 75 65  1  0
 77 79  2  0
 78 77  1  0
 80 78  1  0
 81 90  2  0
 81 86  1  0
 82 78  1  0
 82 86  1  0
 83 82  1  0
 84 85  1  0
 84 83  1  0
 85 81  1  0
 86 87  2  0
 87 88  1  0
 89 88  2  0
 90 89  1  0
 91 65  1  0
 91 92  1  0
 91101  1  0
 92 95  1  0
 93 92  1  0
 93 97  1  0
 94 93  2  0
 97 96  1  0
 97 99  1  0
 99100  1  0
 99 98  1  0
101104  1  1
101102  1  0
103101  1  0
M  ISO  4  18 100  26 100  63 101  64 101
M  END
>  <TORSDO>  (89) 
F 29

>  <SCORE>  (89) 
-8.030

>  <name>  (89) 
90

>  <ligand_id>  (89) 
90

>  <original_smiles>  (89) 
[H]c1c([H])c([H])c2c(c1[H])C([H])([H])C([H])([H])C([H])([H])C2([H])N([H])C(=O)C1([H])N(C(=O)C([H])(N([H])C(=O)C([H])(N([H])C([H])([H])[H])C([H])([H])[H])C(C([H])([H])[H])(C([H])([H])[H])C([H])([H])[H])C([H])([H])c2c([H])c(OC([H])([H])C([H])([H])[N+]([H])([H])C([H])([H])C([H])([H])C([H])([H])c3c([H])c([H])c([H])c(C(=O)C(=O)N([H])C([H])([H])C([H])([H])C([H])([H])C([H])([H])C([H])([H])N([H])C(=O)N4C([H])([H])C([H])([H])C([H])([H])C([H])(n5nc(-c6c([H])c([H])c(Oc7c([H])c([H])c(F)c([H])c7F)c([H])c6[H])c(C(=O)N([H])[H])c5N([H])[H])C4([H])[H])c3[H])c([H])c([H])c2C1([H])[H]

>  <smiles>  (89) 
[H]c1c([H])c([H])c2c(c1[H])C([H])([H])C([H])([H])C([H])([H])C2([H])N([H])C(=O)C1([H])N(C(=O)C([H])(N([H])C(=O)C([H])(N([H])C([H])([H])[H])C([H])([H])[H])C(C([H])([H])[H])(C([H])([H])[H])C([H])([H])[H])C([H])([H])c2c([H])c(OC([H])([H])C([H])([H])[N+]([H])([H])C([H])([H])C([H])([H])C([H])([H])c3c([H])c([H])c([H])c(C(=O)C(=O)N([H])C([H])([H])C([H])([H])C([H])([H])C([H])([H])C([H])([H])N([H])C(=O)N4C([H])([H])C([H])([H])C([H])([H])C([H])(n5nc(-c6c([H])c([H])c(Oc7c([H])c([H])c(F)c([H])c7F)c([H])c6[H])c(C(=O)N([H])[H])c5N([H])[H])C4([H])[H])c3[H])c([H])c([H])c2C1([H])[H]

$$$$
91:0:0
     RDKit          3D

107115  0  0  1  0  0  0  0  0999 V2000
  -25.0970  -16.9640   23.5460 C   0  0  0  0  0  3  0  0  0  0  0  0
  -25.4510  -16.1910   24.6690 C   0  0  0  0  0  3  0  0  0  0  0  0
  -25.9200  -18.0290   23.1280 C   0  0  0  0  0  3  0  0  0  0  0  0
  -27.4230  -17.5850   24.9920 C   0  0  0  0  0  3  0  0  0  0  0  0
  -26.6360  -16.4790   25.3870 C   0  0  0  0  0  0  0  0  0  0  0  0
  -27.0930  -18.3440   23.8490 C   0  0  0  0  0  0  0  0  0  0  0  0
  -27.9860  -19.4730   23.4250 C   0  0  0  0  0  0  0  0  0  0  0  0
  -28.2450  -19.5310   22.1140 N   0  0  0  0  0  0  0  0  0  0  0  0
  -28.4990  -20.2280   24.2530 O   0  0  0  0  0  0  0  0  0  0  0  0
  -27.7960  -18.8370   21.5320 H   0  0  0  0  0  0  0  0  0  0  0  0
  -29.1930  -20.4380   21.4730 C   0  0  0  0  0  2  0  0  0  0  0  0
  -28.5080  -21.7370   21.0230 C   0  0  0  0  0  2  0  0  0  0  0  0
  -29.4750  -22.7050   20.3210 C   0  0  0  0  0  2  0  0  0  0  0  0
  -28.7760  -23.9270   19.8750 N   0  0  0  0  0  4  0  0  0  0  0  0
  -28.3650  -24.3760   20.6800 H   0  0  0  0  0  0  0  0  0  0  0  0
  -28.0270  -23.6620   19.2540 H   0  0  0  0  0  0  0  0  0  0  0  0
  -29.6410  -24.9160   19.1950 C   0  0  0  0  0  2  0  0  0  0  0  0
  -28.8490  -26.1800   18.8420 C   0  0  0  0  0  2  0  0  0  0  0  0
  -28.4290  -26.7810   20.0680 O   0  0  0  0  0  0  0  0  0  0  0  0
  -24.6110  -31.8710   23.2130 C   0  0  0  0  0  0  0  0  0  0  0  0
  -27.2430  -27.4770   20.0650 C   0  0  0  0  0  0  0  0  0  0  0  0
  -23.3970  -30.4940   21.5530 C   0  0  0  0  0  3  0  0  0  0  0  0
  -24.8430  -28.9640   20.1150 C   0  0  0  0  0  0  0  0  0  0  0  0
  -25.9220  -30.8430   21.3640 C   0  0  0  0  0  2  0  0  0  0  0  0
  -25.9990  -29.4800   20.7130 C   0  0  0  0  0  0  0  0  0  0  0  0
  -27.1970  -28.7360   20.7000 C   0  0  0  0  0  3  0  0  0  0  0  0
  -26.0630  -26.9540   19.4890 C   0  0  0  0  0  3  0  0  0  0  0  0
  -24.8660  -27.6950   19.5100 C   0  0  0  0  0  3  0  0  0  0  0  0
  -23.6030  -29.8260   20.1670 C   0  0  0  0  0  2  0  0  0  0  0  0
  -24.6610  -31.0830   22.1020 N   0  0  0  0  0  0  0  0  0  0  0  0
  -23.5310  -32.1450   23.7550 O   0  0  0  0  0  0  0  0  0  0  0  0
  -22.7390  -29.4670   22.5010 C   0  0  0  0  0  0  0  0  0  0  0  0
  -21.4120  -29.3020   22.3750 N   0  0  0  0  0  0  0  0  0  0  0  0
  -23.4180  -28.8210   23.3040 O   0  0  0  0  0  0  0  0  0  0  0  0
  -20.9270  -29.8750   21.6990 H   0  0  0  0  0  0  0  0  0  0  0  0
  -18.0260  -28.1370   22.8500 C   0  0  0  0  0  0  0  0  0  0  0  0
  -20.5850  -28.3650   23.1330 C   0  0  0  0  0  3  0  0  0  0  0  0
  -20.6750  -26.9390   22.5420 C   0  0  0  0  0  2  0  0  0  0  0  0
  -19.5730  -26.6390   21.5210 C   0  0  0  0  0  2  0  0  0  0  0  0
  -18.1910  -26.7920   22.1630 C   0  0  0  0  0  2  0  0  0  0  0  0
  -19.1510  -28.8830   23.2910 C   0  0  0  0  0  0  0  0  0  0  0  0
  -18.9450  -30.1440   23.8920 C   0  0  0  0  0  3  0  0  0  0  0  0
  -17.6450  -30.6580   24.0570 C   0  0  0  0  0  3  0  0  0  0  0  0
  -16.5340  -29.9090   23.6330 C   0  0  0  0  0  3  0  0  0  0  0  0
  -16.7260  -28.6500   23.0350 C   0  0  0  0  0  3  0  0  0  0  0  0
  -25.9010  -32.4840   23.8410 C   0  0  0  0  0  3  0  0  0  0  0  0
  -25.5880  -33.8640   24.2350 N   0  0  0  0  0  0  0  0  0  0  0  0
  -25.9030  -34.9490   23.5140 C   0  0  0  0  0  0  0  0  0  0  0  0
  -26.5590  -34.8930   22.4700 O   0  0  0  0  0  0  0  0  0  0  0  0
  -25.0040  -33.9810   25.0490 H   0  0  0  0  0  0  0  0  0  0  0  0
  -24.1490  -36.7320   23.2640 C   0  0  0  0  0  1  0  0  0  0  0  0
  -25.4110  -36.3120   24.0340 C   0  0  0  0  0  3  0  0  0  0  0  0
  -27.5580  -37.1820   24.8470 C   0  0  0  0  0  1  0  0  0  0  0  0
  -26.4300  -37.3800   23.9400 N   0  0  0  0  0  0  0  0  0  0  0  0
  -26.0200  -38.2890   24.1370 H   0  0  0  0  0  0  0  0  0  0  0  0
  -26.4460  -31.6610   25.0730 C   0  0  1  0  0  0  0  0  0  0  0  0
  -25.3740  -31.3700   26.1480 C   0  0  0  0  0  1  0  0  0  0  0  0
  -27.0280  -30.3060   24.6080 C   0  0  0  0  0  1  0  0  0  0  0  0
  -27.6040  -32.4320   25.7480 C   0  0  0  0  0  1  0  0  0  0  0  0
  -27.0890  -15.6600   26.5460 C   0  0  0  0  0  0  0  0  0  0  0  0
  -27.9000  -16.0730   27.3790 O   0  0  0  0  0  0  0  0  0  0  0  0
  -26.6920  -14.1790   26.5880 C   0  0  0  0  0  2  0  0  0  0  0  0
  -27.8910  -13.2230   26.8170 C   0  0  0  0  0  2  0  0  0  0  0  0
  -28.8850  -13.1330   25.6360 C   0  0  0  0  0  2  0  0  0  0  0  0
  -29.8350  -14.2710   25.5870 N   0  0  0  0  0  4  0  0  0  0  0  0
  -30.7580  -13.9500   25.8380 H   0  0  0  0  0  0  0  0  0  0  0  0
  -29.5670  -14.9400   26.2940 H   0  0  0  0  0  0  0  0  0  0  0  0
  -29.9040  -14.9750   24.2860 C   0  0  0  0  0  2  0  0  0  0  0  0
  -30.6980  -14.1940   23.2230 C   0  0  0  0  0  2  0  0  0  0  0  0
  -30.8400  -14.2880   20.7500 C   0  0  0  0  0  0  0  0  0  0  0  0
  -30.4110  -12.2840   19.3860 C   0  0  0  0  0  2  0  0  0  0  0  0
  -29.4770  -12.5340   18.1890 C   0  0  0  0  0  2  0  0  0  0  0  0
  -28.0060  -12.3800   18.6080 C   0  0  0  0  0  2  0  0  0  0  0  0
  -27.6660  -13.2070   19.8730 C   0  0  0  0  0  3  0  0  0  0  0  0
  -28.7010  -12.9690   20.9940 C   0  0  0  0  0  2  0  0  0  0  0  0
  -30.0630  -13.2080   20.4760 N   0  0  0  0  0  0  0  0  0  0  0  0
  -31.7290  -14.6980   20.0020 O   0  0  0  0  0  0  0  0  0  0  0  0
  -30.6550  -14.8880   21.9330 N   0  0  0  0  0  0  0  0  0  0  0  0
  -31.0820  -15.8030   21.9570 H   0  0  0  0  0  0  0  0  0  0  0  0
  -25.2620  -13.8180   20.5650 C   0  0  0  0  0  0  0  0  0  0  0  0
  -24.1860  -13.0460   20.9170 C   0  0  0  0  0  0  0  0  0  0  0  0
  -24.6400  -11.6930   20.8730 C   0  0  0  0  0  0  0  0  0  0  0  0
  -26.3050  -12.9340   20.3340 N   0  0  0  0  0  0  0  0  0  0  0  0
  -25.9330  -11.6500   20.5760 N   0  0  0  0  0  0  0  0  0  0  0  0
  -23.9060  -10.4310   21.0400 C   0  0  0  0  0  0  0  0  0  0  0  0
  -24.3610   -9.4230   21.9180 C   0  0  0  0  0  3  0  0  0  0  0  0
  -23.6290   -8.2260   22.0760 C   0  0  0  0  0  3  0  0  0  0  0  0
  -22.4280   -8.0290   21.3550 C   0  0  0  0  0  0  0  0  0  0  0  0
  -21.9900   -9.0260   20.4650 C   0  0  0  0  0  3  0  0  0  0  0  0
  -22.7230  -10.2150   20.3050 C   0  0  0  0  0  3  0  0  0  0  0  0
  -21.6660   -6.8880   21.4240 O   0  0  0  0  0  0  0  0  0  0  0  0
  -21.6870   -6.0740   22.5270 C   0  0  0  0  0  0  0  0  0  0  0  0
  -21.4020   -6.5640   23.8200 C   0  0  0  0  0  3  0  0  0  0  0  0
  -21.3650   -5.6790   24.9160 C   0  0  0  0  0  3  0  0  0  0  0  0
  -21.6040   -4.3050   24.7210 C   0  0  0  0  0  0  0  0  0  0  0  0
  -21.8830   -3.8140   23.4340 C   0  0  0  0  0  3  0  0  0  0  0  0
  -21.9210   -4.6960   22.3390 C   0  0  0  0  0  0  0  0  0  0  0  0
  -22.1670   -4.2150   21.0970 F   0  0  0  0  0  0  0  0  0  0  0  0
  -21.5620   -3.4530   25.7730 F   0  0  0  0  0  0  0  0  0  0  0  0
  -22.7880  -13.5270   21.1840 C   0  0  0  0  0  0  0  0  0  0  0  0
  -22.0510  -12.8250   22.0380 N   0  0  0  0  0  0  0  0  0  0  0  0
  -22.3570  -14.5580   20.6710 O   0  0  0  0  0  0  0  0  0  0  0  0
  -22.4080  -11.9870   22.4720 H   0  0  0  0  0  0  0  0  0  0  0  0
  -21.1130  -13.1290   22.2560 H   0  0  0  0  0  0  0  0  0  0  0  0
  -25.4400  -15.1880   20.4030 N   0  0  0  0  0  0  0  0  0  0  0  0
  -24.6910  -15.8600   20.5260 H   0  0  0  0  0  0  0  0  0  0  0  0
  -26.3080  -15.6120   20.1040 H   0  0  0  0  0  0  0  0  0  0  0  0
  1  2  1  0
  2  5  2  0
  3  1  2  0
  3  6  1  0
  4  5  1  0
  5 60  1  0
  6  4  2  0
  7  6  1  0
  7  9  2  0
  8  7  1  0
 10  8  1  0
 11  8  1  0
 12 11  1  0
 13 12  1  0
 14 13  1  0
 14 15  1  0
 16 14  1  0
 17 14  1  0
 18 17  1  0
 18 19  1  0
 20 31  2  0
 21 19  1  0
 21 26  1  0
 22 30  1  0
 22 32  1  0
 23 29  1  0
 23 25  1  0
 24 30  1  0
 25 24  1  0
 26 25  2  0
 27 28  1  0
 27 21  2  0
 28 23  2  0
 29 22  1  0
 30 20  1  0
 32 34  2  0
 33 32  1  0
 35 33  1  0
 36 45  2  0
 36 41  1  0
 37 33  1  0
 37 41  1  0
 38 37  1  0
 39 40  1  0
 39 38  1  0
 40 36  1  0
 41 42  2  0
 42 43  1  0
 44 43  2  0
 45 44  1  0
 46 20  1  0
 46 47  1  0
 46 56  1  0
 47 50  1  0
 48 52  1  0
 48 47  1  0
 49 48  2  0
 52 51  1  0
 54 52  1  0
 54 55  1  0
 54 53  1  0
 56 59  1  1
 56 57  1  0
 58 56  1  0
 60 62  1  0
 60 61  2  0
 62 63  1  0
 64 63  1  0
 65 64  1  0
 65 66  1  0
 65 67  1  0
 68 65  1  0
 69 68  1  0
 70 78  1  0
 71 76  1  0
 72 73  1  0
 72 71  1  0
 74 73  1  0
 74 83  1  0
 74 75  1  0
 76 70  1  0
 76 75  1  0
 77 70  2  0
 78 79  1  0
 78 69  1  0
 80 81  2  0
 81100  1  0
 82 81  1  0
 82 85  1  0
 83 80  1  0
 83 84  1  0
 84 82  2  0
 85 86  1  0
 86 87  2  0
 88 91  1  0
 88 87  1  0
 89 88  2  0
 90 89  1  0
 90 85  2  0
 91 92  1  0
 92 93  1  0
 93 94  2  0
 95 94  1  0
 95 99  1  0
 96 95  2  0
 97 92  2  0
 97 96  1  0
 98 97  1  0
100101  1  0
101104  1  0
101103  1  0
102100  2  0
105106  1  0
105 80  1  0
107105  1  0
M  ISO  4  18 101  19 101  70 100  78 100
M  END
>  <TORSDO>  (90) 
F 30

>  <SCORE>  (90) 
82.297

>  <name>  (90) 
91

>  <ligand_id>  (90) 
91

>  <original_smiles>  (90) 
[H]c1c([H])c(C(=O)N([H])C([H])([H])C([H])([H])C([H])([H])[N+]([H])([H])C([H])([H])C([H])([H])Oc2c([H])c([H])c3c(c2[H])C([H])([H])N(C(=O)C([H])(N([H])C(=O)C([H])(N([H])C([H])([H])[H])C([H])([H])[H])C(C([H])([H])[H])(C([H])([H])[H])C([H])([H])[H])C([H])(C(=O)N([H])C2([H])c4c([H])c([H])c([H])c([H])c4C([H])([H])C([H])([H])C2([H])[H])C3([H])[H])c([H])c(C(=O)C([H])([H])C([H])([H])C([H])([H])[N+]([H])([H])C([H])([H])C([H])([H])N([H])C(=O)N2C([H])([H])C([H])([H])C([H])([H])C([H])(n3nc(-c4c([H])c([H])c(Oc5c([H])c([H])c(F)c([H])c5F)c([H])c4[H])c(C(=O)N([H])[H])c3N([H])[H])C2([H])[H])c1[H]

>  <smiles>  (90) 
[H]c1c([H])c(C(=O)N([H])C([H])([H])C([H])([H])C([H])([H])[N+]([H])([H])C([H])([H])C([H])([H])Oc2c([H])c([H])c3c(c2[H])C([H])([H])N(C(=O)C([H])(N([H])C(=O)C([H])(N([H])C([H])([H])[H])C([H])([H])[H])C(C([H])([H])[H])(C([H])([H])[H])C([H])([H])[H])C([H])(C(=O)N([H])C2([H])c4c([H])c([H])c([H])c([H])c4C([H])([H])C([H])([H])C2([H])[H])C3([H])[H])c([H])c(C(=O)C([H])([H])C([H])([H])C([H])([H])[N+]([H])([H])C([H])([H])C([H])([H])N([H])C(=O)N2C([H])([H])C([H])([H])C([H])([H])C([H])(n3nc(-c4c([H])c([H])c(Oc5c([H])c([H])c(F)c([H])c5F)c([H])c4[H])c(C(=O)N([H])[H])c3N([H])[H])C2([H])[H])c1[H]

$$$$
92:0:0
     RDKit          3D

103112  0  0  1  0  0  0  0  0999 V2000
  -28.6820  -21.1950   21.2170 C   0  0  0  0  0  3  0  0  0  0  0  0
  -27.6830  -22.1490   21.5490 C   0  0  0  0  0  3  0  0  0  0  0  0
  -30.5480  -22.5800   22.1300 C   0  0  0  0  0  3  0  0  0  0  0  0
  -29.5600  -23.5200   22.4330 C   0  0  0  0  0  0  0  0  0  0  0  0
  -30.0820  -21.4040   21.4680 C   0  0  0  0  0  0  0  0  0  0  0  0
  -28.1660  -23.3270   22.1290 C   0  0  0  0  0  0  0  0  0  0  0  0
  -29.2820  -24.8870   22.8940 C   0  0  0  0  0  0  0  0  0  0  0  0
  -27.7350  -24.7540   22.4470 C   0  0  2  0  0  0  0  0  0  0  0  0
  -26.7230  -24.8670   23.5880 C   0  0  0  0  0  1  0  0  0  0  0  0
  -30.0090  -25.7420   23.4040 O   0  0  0  0  0  0  0  0  0  0  0  0
  -31.0980  -20.4380   20.9250 C   0  0  0  0  0  0  0  0  0  0  0  0
  -30.6360  -19.2550   20.5050 N   0  0  0  0  0  0  0  0  0  0  0  0
  -32.2950  -20.7310   20.8970 O   0  0  0  0  0  0  0  0  0  0  0  0
  -29.6440  -19.0830   20.5920 H   0  0  0  0  0  0  0  0  0  0  0  0
  -31.4650  -18.1950   19.9510 C   0  0  0  0  0  2  0  0  0  0  0  0
  -31.7630  -17.1320   21.0190 C   0  0  0  0  0  2  0  0  0  0  0  0
  -31.3640  -14.9490   19.9170 C   0  0  0  0  0  0  0  0  0  0  0  0
  -31.1740  -12.5490   19.4100 C   0  0  0  0  0  2  0  0  0  0  0  0
  -30.2350  -12.2640   18.2270 C   0  0  0  0  0  2  0  0  0  0  0  0
  -28.7790  -12.1330   18.7120 C   0  0  0  0  0  2  0  0  0  0  0  0
  -28.3490  -13.3220   19.6130 C   0  0  0  0  0  3  0  0  0  0  0  0
  -29.3990  -13.5900   20.7170 C   0  0  0  0  0  2  0  0  0  0  0  0
  -30.7180  -13.7710   20.0810 N   0  0  0  0  0  0  0  0  0  0  0  0
  -32.3000  -15.1150   19.1290 O   0  0  0  0  0  0  0  0  0  0  0  0
  -31.0150  -15.9000   20.7870 N   0  0  0  0  0  0  0  0  0  0  0  0
  -30.2450  -15.6980   21.4070 H   0  0  0  0  0  0  0  0  0  0  0  0
  -26.1060  -14.0290   20.6650 C   0  0  0  0  0  0  0  0  0  0  0  0
  -24.9920  -13.3160   21.0070 C   0  0  0  0  0  0  0  0  0  0  0  0
  -25.2850  -11.9520   20.7000 C   0  0  0  0  0  0  0  0  0  0  0  0
  -27.0170  -13.1050   20.1780 N   0  0  0  0  0  0  0  0  0  0  0  0
  -26.5280  -11.8410   20.2510 N   0  0  0  0  0  0  0  0  0  0  0  0
  -24.4320  -10.7570   20.7480 C   0  0  0  0  0  0  0  0  0  0  0  0
  -24.7060   -9.6890   21.6300 C   0  0  0  0  0  3  0  0  0  0  0  0
  -23.8630   -8.5570   21.6670 C   0  0  0  0  0  3  0  0  0  0  0  0
  -22.7270   -8.4900   20.8240 C   0  0  0  0  0  0  0  0  0  0  0  0
  -22.4730   -9.5440   19.9310 C   0  0  0  0  0  3  0  0  0  0  0  0
  -23.3170  -10.6670   19.8920 C   0  0  0  0  0  3  0  0  0  0  0  0
  -21.8630   -7.4220   20.7790 O   0  0  0  0  0  0  0  0  0  0  0  0
  -21.5420   -6.7080   21.9040 C   0  0  0  0  0  0  0  0  0  0  0  0
  -20.9020   -7.3060   23.0130 C   0  0  0  0  0  3  0  0  0  0  0  0
  -20.5300   -6.5190   24.1200 C   0  0  0  0  0  3  0  0  0  0  0  0
  -20.7860   -5.1340   24.1190 C   0  0  0  0  0  0  0  0  0  0  0  0
  -21.4130   -4.5340   23.0110 C   0  0  0  0  0  3  0  0  0  0  0  0
  -21.7890   -5.3190   21.9080 C   0  0  0  0  0  0  0  0  0  0  0  0
  -22.3770   -4.7340   20.8370 F   0  0  0  0  0  0  0  0  0  0  0  0
  -20.4180   -4.3750   25.1780 F   0  0  0  0  0  0  0  0  0  0  0  0
  -23.6890  -13.8760   21.5050 C   0  0  0  0  0  0  0  0  0  0  0  0
  -22.9440  -13.1030   22.2870 N   0  0  0  0  0  0  0  0  0  0  0  0
  -23.3500  -15.0300   21.2410 O   0  0  0  0  0  0  0  0  0  0  0  0
  -23.2310  -12.1660   22.5250 H   0  0  0  0  0  0  0  0  0  0  0  0
  -22.0740  -13.4570   22.6560 H   0  0  0  0  0  0  0  0  0  0  0  0
  -26.4160  -15.3860   20.7040 N   0  0  0  0  0  0  0  0  0  0  0  0
  -25.7450  -16.0820   21.0070 H   0  0  0  0  0  0  0  0  0  0  0  0
  -27.2960  -15.7840   20.4020 H   0  0  0  0  0  0  0  0  0  0  0  0
  -27.3990  -25.6060   21.1910 C   0  0  0  0  0  2  0  0  0  0  0  0
  -27.0990  -24.7550   19.9280 C   0  0  0  0  0  2  0  0  0  0  0  0
  -26.3220  -25.3900   18.8290 N   0  0  2  0  0  4  0  0  0  0  0  0
  -26.7300  -26.3060   18.6930 H   0  0  0  0  0  0  0  0  0  0  0  0
  -24.1710  -24.4630   19.8830 C   0  0  0  0  0  1  0  0  0  0  0  0
  -24.8870  -25.6350   19.1680 C   0  0  0  0  0  2  0  0  0  0  0  0
  -26.5590  -24.6320   17.5520 C   0  0  0  0  0  2  0  0  0  0  0  0
  -26.9190  -25.4660   16.2880 C   0  0  0  0  0  2  0  0  0  0  0  0
  -25.8240  -25.6090   15.3730 O   0  0  0  0  0  0  0  0  0  0  0  0
  -23.9200  -29.3800   21.0280 C   0  0  0  0  0  0  0  0  0  0  0  0
  -24.8300  -26.3480   15.9420 C   0  0  0  0  0  0  0  0  0  0  0  0
  -22.0750  -28.5160   19.6220 C   0  0  0  0  0  3  0  0  0  0  0  0
  -22.7540  -27.6170   17.3340 C   0  0  0  0  0  0  0  0  0  0  0  0
  -24.3520  -29.0640   18.5990 C   0  0  0  0  0  2  0  0  0  0  0  0
  -24.0820  -27.9830   17.5780 C   0  0  0  0  0  0  0  0  0  0  0  0
  -25.1320  -27.3530   16.8810 C   0  0  0  0  0  3  0  0  0  0  0  0
  -23.4900  -26.0290   15.6540 C   0  0  0  0  0  3  0  0  0  0  0  0
  -22.4480  -26.6490   16.3630 C   0  0  0  0  0  3  0  0  0  0  0  0
  -21.6860  -28.3300   18.1300 C   0  0  0  0  0  2  0  0  0  0  0  0
  -23.4890  -28.9810   19.7970 N   0  0  0  0  0  0  0  0  0  0  0  0
  -23.1520  -29.4000   21.9980 O   0  0  0  0  0  0  0  0  0  0  0  0
  -21.7680  -27.2050   20.3780 C   0  0  0  0  0  0  0  0  0  0  0  0
  -20.4690  -26.8990   20.5360 N   0  0  0  0  0  0  0  0  0  0  0  0
  -22.6810  -26.4800   20.7860 O   0  0  0  0  0  0  0  0  0  0  0  0
  -19.7880  -27.5460   20.1680 H   0  0  0  0  0  0  0  0  0  0  0  0
  -17.4290  -25.1360   21.3630 C   0  0  0  0  0  0  0  0  0  0  0  0
  -19.9460  -25.7060   21.2000 C   0  0  0  0  0  3  0  0  0  0  0  0
  -20.0530  -24.4650   20.2880 C   0  0  0  0  0  2  0  0  0  0  0  0
  -18.8010  -24.2190   19.4370 C   0  0  0  0  0  2  0  0  0  0  0  0
  -17.5780  -24.0230   20.3370 C   0  0  0  0  0  2  0  0  0  0  0  0
  -18.5370  -25.9320   21.7570 C   0  0  0  0  0  0  0  0  0  0  0  0
  -18.3370  -26.9730   22.6890 C   0  0  0  0  0  3  0  0  0  0  0  0
  -17.0640  -27.2190   23.2340 C   0  0  0  0  0  3  0  0  0  0  0  0
  -15.9720  -26.4170   22.8530 C   0  0  0  0  0  3  0  0  0  0  0  0
  -16.1560  -25.3800   21.9210 C   0  0  0  0  0  3  0  0  0  0  0  0
  -25.3890  -29.8560   21.2690 C   0  0  0  0  0  3  0  0  0  0  0  0
  -26.4110  -28.6630   21.4230 C   0  0  1  0  0  0  0  0  0  0  0  0
  -25.9040  -27.5190   22.3310 C   0  0  0  0  0  1  0  0  0  0  0  0
  -26.7420  -28.0480   20.0440 C   0  0  0  0  0  1  0  0  0  0  0  0
  -27.7460  -29.1840   22.0110 C   0  0  0  0  0  1  0  0  0  0  0  0
  -25.3900  -30.7010   22.4710 N   0  0  0  0  0  0  0  0  0  0  0  0
  -25.4020  -32.0420   22.4570 C   0  0  0  0  0  0  0  0  0  0  0  0
  -25.4900  -32.7000   21.4170 O   0  0  0  0  0  0  0  0  0  0  0  0
  -25.2730  -30.2300   23.3550 H   0  0  0  0  0  0  0  0  0  0  0  0
  -23.8580  -33.2470   24.0330 C   0  0  0  0  0  1  0  0  0  0  0  0
  -25.3040  -32.7690   23.8120 C   0  0  0  0  0  3  0  0  0  0  0  0
  -27.6360  -33.5060   24.0140 C   0  0  0  0  0  1  0  0  0  0  0  0
  -26.2350  -33.9120   23.9390 N   0  0  0  0  0  0  0  0  0  0  0  0
  -26.0230  -34.4640   24.7670 H   0  0  0  0  0  0  0  0  0  0  0  0
  1  5  2  0
  1  2  1  0
  2  6  2  0
  3  4  2  0
  4  7  1  0
  5  3  1  0
  6  4  1  0
  6  8  1  0
  7 10  2  0
  8  7  1  0
  8  9  1  1
 11  5  1  0
 12 14  1  0
 12 11  1  0
 13 11  2  0
 15 12  1  0
 15 16  1  0
 17 23  1  0
 17 25  1  0
 18 23  1  0
 19 20  1  0
 19 18  1  0
 21 20  1  0
 21 30  1  0
 21 22  1  0
 23 22  1  0
 24 17  2  0
 25 16  1  0
 25 26  1  0
 27 52  1  0
 27 28  2  0
 28 47  1  0
 29 32  1  0
 29 28  1  0
 30 31  1  0
 30 27  1  0
 31 29  2  0
 32 33  1  0
 33 34  2  0
 35 34  1  0
 36 35  2  0
 37 36  1  0
 37 32  2  0
 38 35  1  0
 38 39  1  0
 39 44  2  0
 39 40  1  0
 40 41  2  0
 42 41  1  0
 42 46  1  0
 43 42  2  0
 44 43  1  0
 45 44  1  0
 47 48  1  0
 48 50  1  0
 48 51  1  0
 49 47  2  0
 52 53  1  0
 54 52  1  0
 55  8  1  0
 56 55  1  0
 57 60  1  0
 57 56  1  0
 57 58  1  6
 60 59  1  0
 61 57  1  0
 62 61  1  0
 63 65  1  0
 63 62  1  0
 64 75  2  0
 65 70  1  0
 66 74  1  0
 66 76  1  0
 67 69  1  0
 67 73  1  0
 68 74  1  0
 69 68  1  0
 70 69  2  0
 71 65  2  0
 71 72  1  0
 72 67  2  0
 73 66  1  0
 74 64  1  0
 76 77  1  0
 76 78  2  0
 79 77  1  0
 80 85  2  0
 80 89  1  0
 81 77  1  0
 81 85  1  0
 82 81  1  0
 83 82  1  0
 83 84  1  0
 84 80  1  0
 85 86  1  0
 86 87  2  0
 88 87  1  0
 89 88  2  0
 90 64  1  0
 90 91  1  0
 90 95  1  0
 91 94  1  1
 91 92  1  0
 93 91  1  0
 95 98  1  0
 96 95  1  0
 96100  1  0
 97 96  2  0
100102  1  0
100 99  1  0
102101  1  0
102103  1  0
M  ISO  4  17 100  25 100  62 101  63 101
M  END
>  <TORSDO>  (91) 
F 25

>  <SCORE>  (91) 
-6.207

>  <name>  (91) 
92

>  <ligand_id>  (91) 
92

>  <original_smiles>  (91) 
[H]c1c([H])c([H])c2c(c1[H])C([H])([H])C([H])([H])C([H])([H])C2([H])N([H])C(=O)C1([H])N(C(=O)C([H])(N([H])C(=O)C([H])(N([H])C([H])([H])[H])C([H])([H])[H])C(C([H])([H])[H])(C([H])([H])[H])C([H])([H])[H])C([H])([H])c2c([H])c(OC([H])([H])C([H])([H])[N+]([H])(C([H])([H])C([H])([H])[H])C([H])([H])C([H])([H])C3(C([H])([H])[H])C(=O)c4c([H])c(C(=O)N([H])C([H])([H])C([H])([H])N([H])C(=O)N5C([H])([H])C([H])([H])C([H])([H])C([H])(n6nc(-c7c([H])c([H])c(Oc8c([H])c([H])c(F)c([H])c8F)c([H])c7[H])c(C(=O)N([H])[H])c6N([H])[H])C5([H])[H])c([H])c([H])c43)c([H])c([H])c2C1([H])[H]

>  <smiles>  (91) 
[H]c1c([H])c([H])c2c(c1[H])C([H])([H])C([H])([H])C([H])([H])C2([H])N([H])C(=O)C1([H])N(C(=O)C([H])(N([H])C(=O)C([H])(N([H])C([H])([H])[H])C([H])([H])[H])C(C([H])([H])[H])(C([H])([H])[H])C([H])([H])[H])C([H])([H])c2c([H])c(OC([H])([H])C([H])([H])[N+]([H])(C([H])([H])C([H])([H])[H])C([H])([H])C([H])([H])C3(C([H])([H])[H])C(=O)c4c([H])c(C(=O)N([H])C([H])([H])C([H])([H])N([H])C(=O)N5C([H])([H])C([H])([H])C([H])([H])C([H])(n6nc(-c7c([H])c([H])c(Oc8c([H])c([H])c(F)c([H])c8F)c([H])c7[H])c(C(=O)N([H])[H])c6N([H])[H])C5([H])[H])c([H])c([H])c43)c([H])c([H])c2C1([H])[H]

$$$$
93:0:0
     RDKit          3D

 94 97  0  0  1  0  0  0  0  0999 V2000
  -21.4620  -24.8440   21.8650 C   0  0  0  0  0  2  0  0  0  0  0  0
  -20.2880  -26.0030   21.5590 N   0  0  0  0  0  0  0  0  0  0  0  0
  -21.1910  -24.1870   22.8690 O   0  0  0  0  0  1  0  0  0  0  0  0
  -19.4950  -25.9980   22.1830 H   0  0  0  0  0  0  0  0  0  0  0  0
  -22.6690  -22.9210   20.2340 C   0  0  0  0  0  1  0  0  0  0  0  0
  -23.1280  -24.1680   21.0370 C   0  0  0  0  0  2  0  0  0  0  0  0
  -24.8100  -23.5930   21.4180 N   0  0  0  0  0  4  0  0  0  0  0  0
  -25.3100  -24.4510   21.5790 H   0  0  0  0  0  0  0  0  0  0  0  0
  -24.6940  -23.1980   22.3370 H   0  0  0  0  0  0  0  0  0  0  0  0
  -26.0690  -22.4910   20.6700 C   0  0  0  0  0  1  0  0  0  0  0  0
  -27.6020  -21.2440   21.1420 C   0  0  0  0  0 15  0  0  0  0  0  0
  -28.8050  -19.7660   20.4260 C   0  0  0  0  0  1  0  0  0  0  0  0
  -31.1120  -17.3290   20.7290 C   0  0  0  0  0  0  0  0  0  0  0  0
  -32.1390  -14.8500   20.2140 C   0  0  0  0  0  2  0  0  0  0  0  0
  -31.5950  -14.2170   18.8850 C   0  0  0  0  0  2  0  0  0  0  0  0
  -30.1240  -13.7840   19.0300 C   0  0  0  0  0  2  0  0  0  0  0  0
  -29.3630  -14.8280   19.8740 C   0  0  0  0  0  3  0  0  0  0  0  0
  -30.0360  -15.1040   21.2160 C   0  0  0  0  0  2  0  0  0  0  0  0
  -31.1550  -15.8860   20.8090 N   0  0  0  0  0  0  0  0  0  0  0  0
  -32.3160  -17.6420   20.4880 O   0  0  0  0  0  0  0  0  0  0  0  0
  -29.7830  -18.2430   20.8410 N   0  0  0  0  0  0  0  0  0  0  0  0
  -29.0940  -17.6030   21.2180 H   0  0  0  0  0  0  0  0  0  0  0  0
  -26.9540  -15.4260   20.2150 C   0  0  0  0  0  0  0  0  0  0  0  0
  -25.8610  -14.6640   20.4880 C   0  0  0  0  0  0  0  0  0  0  0  0
  -26.3320  -13.3200   20.5970 C   0  0  0  0  0  0  0  0  0  0  0  0
  -27.9970  -14.5310   20.1330 N   0  0  0  0  0  0  0  0  0  0  0  0
  -27.6450  -13.2680   20.4500 N   0  0  0  0  0  0  0  0  0  0  0  0
  -25.6060  -12.0660   20.7630 C   0  0  0  0  0  0  0  0  0  0  0  0
  -25.7940  -11.2460   21.8960 C   0  0  0  0  0  3  0  0  0  0  0  0
  -25.0650  -10.0450   22.0300 C   0  0  0  0  0  3  0  0  0  0  0  0
  -24.1420   -9.6630   21.0270 C   0  0  0  0  0  0  0  0  0  0  0  0
  -23.9860  -10.4720   19.8880 C   0  0  0  0  0  3  0  0  0  0  0  0
  -24.7140  -11.6620   19.7530 C   0  0  0  0  0  3  0  0  0  0  0  0
  -23.4030   -8.5070   21.0600 O   0  0  0  0  0  0  0  0  0  0  0  0
  -22.8360   -8.0540   22.2230 C   0  0  0  0  0  0  0  0  0  0  0  0
  -21.9950   -8.8720   23.0090 C   0  0  0  0  0  3  0  0  0  0  0  0
  -21.3740   -8.3420   24.1570 C   0  0  0  0  0  3  0  0  0  0  0  0
  -21.5850   -6.9970   24.5160 C   0  0  0  0  0  0  0  0  0  0  0  0
  -22.4170   -6.1810   23.7290 C   0  0  0  0  0  3  0  0  0  0  0  0
  -23.0390   -6.7080   22.5850 C   0  0  0  0  0  0  0  0  0  0  0  0
  -23.8260   -5.9150   21.8200 F   0  0  0  0  0  0  0  0  0  0  0  0
  -20.9830   -6.4850   25.6130 F   0  0  0  0  0  0  0  0  0  0  0  0
  -24.4460  -15.1440   20.5350 C   0  0  0  0  0  0  0  0  0  0  0  0
  -23.6270  -14.5380   21.3840 N   0  0  0  0  0  0  0  0  0  0  0  0
  -24.0760  -16.0980   19.8510 O   0  0  0  0  0  0  0  0  0  0  0  0
  -23.9460  -13.7670   21.9520 H   0  0  0  0  0  0  0  0  0  0  0  0
  -22.6680  -14.8430   21.4650 H   0  0  0  0  0  0  0  0  0  0  0  0
  -27.1440  -16.7920   20.0090 N   0  0  0  0  0  0  0  0  0  0  0  0
  -26.3590  -17.4320   19.9960 H   0  0  0  0  0  0  0  0  0  0  0  0
  -27.9970  -17.2120   19.6650 H   0  0  0  0  0  0  0  0  0  0  0  0
  -20.1980  -27.8470   19.7920 C   0  0  0  0  0  3  0  0  0  0  0  0
  -21.7570  -28.1530   18.6430 C   0  0  0  0  0  2  0  0  0  0  0  0
  -23.4400  -27.3710   18.2830 C   0  0  0  0  0  2  0  0  0  0  0  0
  -25.0650  -27.3080   18.8090 O   0  0  0  0  0  0  0  0  0  0  0  0
  -24.8490  -31.3610   23.2530 C   0  0  0  0  0  0  0  0  0  0  0  0
  -26.1500  -28.1050   18.4570 C   0  0  0  0  0  3  0  0  0  0  0  0
  -23.4640  -30.9320   21.3090 C   0  0  0  0  0  3  0  0  0  0  0  0
  -24.6560  -30.2220   19.1350 C   0  0  0  0  0  3  0  0  0  0  0  0
  -26.0110  -30.8580   21.1080 C   0  0  0  0  0  2  0  0  0  0  0  0
  -25.7860  -29.9620   19.9100 C   0  0  0  0  0  3  0  0  0  0  0  0
  -26.6390  -28.9080   19.5230 C   0  0  0  0  0  2  0  0  0  0  0  0
  -25.5840  -28.7700   17.4060 C   0  0  0  0  0  2  0  0  0  0  0  0
  -24.6430  -29.7440   17.8070 C   0  0  0  0  0  2  0  0  0  0  0  0
  -23.6140  -31.1290   19.7700 C   0  0  0  0  0  2  0  0  0  0  0  0
  -24.7980  -31.0880   21.9300 N   0  0  0  0  0  0  0  0  0  0  0  0
  -23.8170  -31.5410   23.9190 O   0  0  0  0  0  0  0  0  0  0  0  0
  -22.9030  -29.5740   21.8130 C   0  0  0  0  0  0  0  0  0  0  0  0
  -21.6830  -29.4750   22.2860 N   0  0  0  0  0  0  0  0  0  0  0  0
  -23.6150  -28.5810   21.8990 O   0  0  0  0  0  0  0  0  0  0  0  0
  -21.1280  -30.3110   22.4000 H   0  0  0  0  0  0  0  0  0  0  0  0
  -18.0150  -28.7100   22.1760 C   0  0  0  0  0  0  0  0  0  0  0  0
  -20.9870  -28.1570   22.3890 C   0  0  0  0  0  2  0  0  0  0  0  0
  -21.3110  -27.0780   20.6370 C   0  0  0  0  0  2  0  0  0  0  0  0
  -19.2260  -27.0400   19.3170 C   0  0  0  0  0  1  0  0  0  0  0  0
  -17.6830  -27.8960   20.5360 C   0  0  0  0  0  1  0  0  0  0  0  0
  -19.3880  -28.8070   22.9190 C   0  0  0  0  0  0  0  0  0  0  0  0
  -19.4510  -29.7430   24.0360 C   0  0  0  0  0  3  0  0  0  0  0  0
  -18.3640  -30.4700   24.5880 C   0  0  0  0  0  3  0  0  0  0  0  0
  -17.0940  -30.2680   24.0360 C   0  0  0  0  0  3  0  0  0  0  0  0
  -16.9480  -29.4340   22.8760 C   0  0  0  0  0  3  0  0  0  0  0  0
  -26.2130  -31.4830   23.9730 C   0  0  0  0  0  3  0  0  0  0  0  0
  -26.2090  -32.7930   24.6330 N   0  0  0  0  0  0  0  0  0  0  0  0
  -26.8110  -33.8810   24.1470 C   0  0  0  0  0  0  0  0  0  0  0  0
  -27.5180  -33.8640   23.1360 O   0  0  0  0  0  0  0  0  0  0  0  0
  -25.6120  -32.8900   25.4410 H   0  0  0  0  0  0  0  0  0  0  0  0
  -25.6290  -36.1020   24.1460 C   0  0  0  0  0  1  0  0  0  0  0  0
  -26.6060  -35.2000   24.9150 C   0  0  0  0  0  3  0  0  0  0  0  0
  -28.7460  -35.2470   26.1160 C   0  0  0  0  0  1  0  0  0  0  0  0
  -27.8650  -35.9290   25.1730 N   0  0  0  0  0  0  0  0  0  0  0  0
  -27.6710  -36.8590   25.5370 H   0  0  0  0  0  0  0  0  0  0  0  0
  -26.4710  -30.3240   25.0080 C   0  0  1  0  0  0  0  0  0  0  0  0
  -25.2990  -30.0920   25.9890 C   0  0  0  0  0  1  0  0  0  0  0  0
  -26.7490  -28.9800   24.2950 C   0  0  0  0  0  1  0  0  0  0  0  0
  -27.7360  -30.6520   25.8330 C   0  0  0  0  0  1  0  0  0  0  0  0
  1  3  1  0
  2  1  1  0
  2  4  1  0
  5  6  1  0
  6  7  1  0
  7  8  1  0
  7  9  1  0
 10  7  1  0
 12 21  1  0
 13 19  1  0
 13 21  1  0
 14 19  1  0
 15 16  1  0
 15 14  1  0
 17 16  1  0
 17 26  1  0
 17 18  1  0
 19 18  1  0
 20 13  2  0
 21 22  1  0
 23 24  2  0
 24 43  1  0
 24 25  1  0
 25 28  1  0
 26 23  1  0
 26 27  1  0
 27 25  2  0
 28 29  1  0
 29 30  2  0
 31 34  1  0
 31 30  1  0
 32 31  2  0
 33 32  1  0
 33 28  2  0
 34 35  1  0
 35 40  2  0
 35 36  1  0
 36 37  2  0
 37 38  1  0
 38 42  1  0
 39 38  2  0
 40 39  1  0
 41 40  1  0
 43 44  1  0
 44 47  1  0
 44 46  1  0
 45 43  2  0
 48 23  1  0
 49 48  1  0
 50 48  1  0
 51 74  1  0
 51 73  1  0
 52 51  1  0
 53 52  1  0
 53 54  1  0
 55 66  2  0
 56 54  1  0
 56 61  1  0
 57 67  1  0
 57 65  1  0
 58 63  1  0
 58 64  1  0
 58 60  1  0
 59 65  1  0
 60 61  1  0
 60 59  1  0
 62 63  1  0
 62 56  1  0
 64 57  1  0
 65 55  1  0
 67 69  2  0
 67 68  1  0
 68 72  1  0
 68 70  1  0
 71 80  2  0
 71 76  1  0
 72 76  1  0
 73  2  1  0
 75 71  1  0
 76 77  2  0
 77 78  1  0
 79 78  2  0
 80 79  1  0
 81 55  1  0
 81 82  1  0
 81 91  1  0
 82 85  1  0
 83 82  1  0
 83 87  1  0
 84 83  2  0
 87 86  1  0
 87 89  1  0
 89 90  1  0
 89 88  1  0
 91 94  1  1
 91 92  1  0
 93 91  1  0
M  ISO  4  13 100  21 100  53 101  54 101
M  END
>  <TORSDO>  (92) 
F 24

>  <SCORE>  (92) 
-6.304

>  <name>  (92) 
93

>  <ligand_id>  (92) 
93

>  <original_smiles>  (92) 
[H]c1c([H])c([H])c2c(c1[H])C([H])([H])C([H])([H])C([H])([H])C2([H])N([H])C(=O)C1([H])N(C(=O)C([H])(N([H])C(=O)C([H])(N([H])C([H])([H])[H])C([H])([H])[H])C(C([H])([H])[H])(C([H])([H])[H])C([H])([H])[H])C([H])([H])c2c([H])c(OC([H])([H])C([H])([H])C([H])([H])N([H])C(=O)C([H])(C([H])([H])[H])[N+]([H])([H])C([H])([H])C([H])([H])C([H])([H])N([H])C(=O)N3C([H])([H])C([H])([H])C([H])([H])C([H])(n4nc(-c5c([H])c([H])c(Oc6c([H])c([H])c(F)c([H])c6F)c([H])c5[H])c(C(=O)N([H])[H])c4N([H])[H])C3([H])[H])c([H])c([H])c2C1([H])[H]

>  <smiles>  (92) 
[H]c1c([H])c([H])c2c(c1[H])C([H])([H])C([H])([H])C([H])([H])C2([H])N([H])C(=O)C1([H])N(C(=O)C([H])(N([H])C(=O)C([H])(N([H])C([H])([H])[H])C([H])([H])[H])C(C([H])([H])[H])(C([H])([H])[H])C([H])([H])[H])C([H])([H])c2c([H])c(OC([H])([H])C([H])([H])C([H])([H])N([H])C(=O)C([H])(C([H])([H])[H])[N+]([H])([H])C([H])([H])C([H])([H])C([H])([H])N([H])C(=O)N3C([H])([H])C([H])([H])C([H])([H])C([H])(n4nc(-c5c([H])c([H])c(Oc6c([H])c([H])c(F)c([H])c6F)c([H])c5[H])c(C(=O)N([H])[H])c4N([H])[H])C3([H])[H])c([H])c([H])c2C1([H])[H]

$$$$
94:0:0
     RDKit          3D

102110  0  0  1  0  0  0  0  0999 V2000
  -28.9090  -19.8120   18.3520 C   0  0  0  0  0  3  0  0  0  0  0  0
  -29.6580  -18.8910   17.6020 C   0  0  0  0  0  3  0  0  0  0  0  0
  -30.5110  -21.5640   17.7750 C   0  0  0  0  0  3  0  0  0  0  0  0
  -29.3740  -21.1340   18.5000 C   0  0  0  0  0  0  0  0  0  0  0  0
  -30.8730  -19.2820   17.0050 C   0  0  0  0  0  0  0  0  0  0  0  0
  -31.2660  -20.6420   17.0110 C   0  0  0  0  0  0  0  0  0  0  0  0
  -28.7030  -22.0480   19.4730 C   0  0  0  0  0  0  0  0  0  0  0  0
  -29.5520  -22.6530   20.3120 N   0  0  0  0  0  0  0  0  0  0  0  0
  -27.4750  -22.1370   19.5440 O   0  0  0  0  0  0  0  0  0  0  0  0
  -30.5350  -22.4960   20.1320 H   0  0  0  0  0  0  0  0  0  0  0  0
  -29.2020  -23.3790   21.5250 C   0  0  0  0  0  2  0  0  0  0  0  0
  -29.2930  -24.8950   21.3080 C   0  0  0  0  0  2  0  0  0  0  0  0
  -28.2980  -25.3840   20.2580 C   0  0  0  0  0  2  0  0  0  0  0  0
  -28.3930  -26.7960   20.1800 O   0  0  0  0  0  0  0  0  0  0  0  0
  -24.5480  -31.8900   23.2450 C   0  0  0  0  0  0  0  0  0  0  0  0
  -27.2050  -27.4800   20.1690 C   0  0  0  0  0  0  0  0  0  0  0  0
  -23.3490  -30.4930   21.5930 C   0  0  0  0  0  3  0  0  0  0  0  0
  -24.8100  -28.9650   20.1710 C   0  0  0  0  0  0  0  0  0  0  0  0
  -25.8730  -30.8530   21.4120 C   0  0  0  0  0  2  0  0  0  0  0  0
  -25.9590  -29.4840   20.7800 C   0  0  0  0  0  0  0  0  0  0  0  0
  -27.1600  -28.7490   20.7780 C   0  0  0  0  0  3  0  0  0  0  0  0
  -26.0420  -26.9670   19.5440 C   0  0  0  0  0  3  0  0  0  0  0  0
  -24.8440  -27.7040   19.5490 C   0  0  0  0  0  3  0  0  0  0  0  0
  -23.5640  -29.8190   20.2120 C   0  0  0  0  0  2  0  0  0  0  0  0
  -24.6090  -31.0920   22.1430 N   0  0  0  0  0  0  0  0  0  0  0  0
  -23.4640  -32.1650   23.7770 O   0  0  0  0  0  0  0  0  0  0  0  0
  -22.6940  -29.4670   22.5440 C   0  0  0  0  0  0  0  0  0  0  0  0
  -21.3710  -29.2900   22.4060 N   0  0  0  0  0  0  0  0  0  0  0  0
  -23.3710  -28.8340   23.3570 O   0  0  0  0  0  0  0  0  0  0  0  0
  -20.8930  -29.8410   21.7060 H   0  0  0  0  0  0  0  0  0  0  0  0
  -17.9870  -28.1240   22.8630 C   0  0  0  0  0  0  0  0  0  0  0  0
  -20.5430  -28.3580   23.1660 C   0  0  0  0  0  3  0  0  0  0  0  0
  -20.6420  -26.9310   22.5810 C   0  0  0  0  0  2  0  0  0  0  0  0
  -19.5450  -26.6190   21.5570 C   0  0  0  0  0  2  0  0  0  0  0  0
  -18.1580  -26.7750   22.1860 C   0  0  0  0  0  2  0  0  0  0  0  0
  -19.1070  -28.8740   23.3090 C   0  0  0  0  0  0  0  0  0  0  0  0
  -18.8920  -30.1380   23.8990 C   0  0  0  0  0  3  0  0  0  0  0  0
  -17.5900  -30.6500   24.0540 C   0  0  0  0  0  3  0  0  0  0  0  0
  -16.4840  -29.8940   23.6270 C   0  0  0  0  0  3  0  0  0  0  0  0
  -16.6840  -28.6340   23.0340 C   0  0  0  0  0  3  0  0  0  0  0  0
  -25.8320  -32.5140   23.8770 C   0  0  0  0  0  3  0  0  0  0  0  0
  -25.5340  -33.9160   24.1960 N   0  0  0  0  0  0  0  0  0  0  0  0
  -25.8870  -34.9600   23.4340 C   0  0  0  0  0  0  0  0  0  0  0  0
  -26.5710  -34.8440   22.4150 O   0  0  0  0  0  0  0  0  0  0  0  0
  -24.9350  -34.0830   24.9920 H   0  0  0  0  0  0  0  0  0  0  0  0
  -24.1810  -36.7630   23.0320 C   0  0  0  0  0  1  0  0  0  0  0  0
  -25.4020  -36.3550   23.8710 C   0  0  0  0  0  3  0  0  0  0  0  0
  -27.5290  -37.2240   24.7410 C   0  0  0  0  0  1  0  0  0  0  0  0
  -26.4470  -37.3970   23.7740 N   0  0  0  0  0  0  0  0  0  0  0  0
  -26.0480  -38.3230   23.9050 H   0  0  0  0  0  0  0  0  0  0  0  0
  -26.3300  -31.7410   25.1600 C   0  0  1  0  0  0  0  0  0  0  0  0
  -25.2210  -31.5090   26.2130 C   0  0  0  0  0  1  0  0  0  0  0  0
  -26.9100  -30.3610   24.7700 C   0  0  0  0  0  1  0  0  0  0  0  0
  -27.4850  -32.5230   25.8290 C   0  0  0  0  0  1  0  0  0  0  0  0
  -32.5140  -22.3420   15.8720 C   0  0  0  0  0  1  0  0  0  0  0  0
  -32.4070  -20.9950   16.3240 O   0  0  0  0  0  0  0  0  0  0  0  0
  -31.7900  -18.2020   16.4440 C   0  0  0  0  0  2  0  0  0  0  0  0
  -32.3600  -17.3120   17.5740 C   0  0  0  0  0  2  0  0  0  0  0  0
  -32.8890  -18.1140   18.7030 N   0  0  0  0  0  4  0  0  0  0  0  0
  -32.3570  -18.9650   18.7890 H   0  0  0  0  0  0  0  0  0  0  0  0
  -33.8260  -18.3780   18.4410 H   0  0  0  0  0  0  0  0  0  0  0  0
  -32.9930  -17.4290   20.0160 C   0  0  0  0  0  2  0  0  0  0  0  0
  -31.7600  -17.5600   20.9680 C   0  0  0  0  0  2  0  0  0  0  0  0
  -30.3780  -16.9720   20.5710 C   0  0  0  0  0  2  0  0  0  0  0  0
  -30.7100  -14.5130   20.2270 C   0  0  0  0  0  0  0  0  0  0  0  0
  -30.3120  -12.3700   19.1120 C   0  0  0  0  0  2  0  0  0  0  0  0
  -29.3630  -12.6140   17.9250 C   0  0  0  0  0  2  0  0  0  0  0  0
  -27.8980  -12.4940   18.3840 C   0  0  0  0  0  2  0  0  0  0  0  0
  -27.5940  -13.3320   19.6570 C   0  0  0  0  0  3  0  0  0  0  0  0
  -28.6700  -13.1160   20.7480 C   0  0  0  0  0  2  0  0  0  0  0  0
  -29.9950  -13.3660   20.1480 N   0  0  0  0  0  0  0  0  0  0  0  0
  -31.7730  -14.6700   19.6300 O   0  0  0  0  0  0  0  0  0  0  0  0
  -30.1250  -15.5460   20.8400 N   0  0  0  0  0  0  0  0  0  0  0  0
  -29.2540  -15.3270   21.3030 H   0  0  0  0  0  0  0  0  0  0  0  0
  -25.2050  -13.9400   20.4020 C   0  0  0  0  0  0  0  0  0  0  0  0
  -24.1430  -13.1680   20.7930 C   0  0  0  0  0  0  0  0  0  0  0  0
  -24.6030  -11.8180   20.7610 C   0  0  0  0  0  0  0  0  0  0  0  0
  -26.2460  -13.0590   20.1610 N   0  0  0  0  0  0  0  0  0  0  0  0
  -25.8880  -11.7770   20.4310 N   0  0  0  0  0  0  0  0  0  0  0  0
  -23.8780  -10.5570   20.9710 C   0  0  0  0  0  0  0  0  0  0  0  0
  -24.3280   -9.5940   21.9010 C   0  0  0  0  0  3  0  0  0  0  0  0
  -23.6070   -8.3950   22.0990 C   0  0  0  0  0  3  0  0  0  0  0  0
  -22.4220   -8.1530   21.3630 C   0  0  0  0  0  0  0  0  0  0  0  0
  -21.9900   -9.1040   20.4230 C   0  0  0  0  0  3  0  0  0  0  0  0
  -22.7110  -10.2930   20.2260 C   0  0  0  0  0  3  0  0  0  0  0  0
  -21.6700   -7.0060   21.4710 O   0  0  0  0  0  0  0  0  0  0  0  0
  -21.6460   -6.2670   22.6260 C   0  0  0  0  0  0  0  0  0  0  0  0
  -21.2480   -6.8250   23.8610 C   0  0  0  0  0  3  0  0  0  0  0  0
  -21.1700   -6.0110   25.0080 C   0  0  0  0  0  3  0  0  0  0  0  0
  -21.4810   -4.6410   24.9240 C   0  0  0  0  0  0  0  0  0  0  0  0
  -21.8710   -4.0810   23.6930 C   0  0  0  0  0  3  0  0  0  0  0  0
  -21.9510   -4.8930   22.5480 C   0  0  0  0  0  0  0  0  0  0  0  0
  -22.3070   -4.3460   21.3610 F   0  0  0  0  0  0  0  0  0  0  0  0
  -21.3970   -3.8570   26.0230 F   0  0  0  0  0  0  0  0  0  0  0  0
  -22.7510  -13.6460   21.0920 C   0  0  0  0  0  0  0  0  0  0  0  0
  -22.0400  -12.9500   21.9710 N   0  0  0  0  0  0  0  0  0  0  0  0
  -22.3040  -14.6710   20.5800 O   0  0  0  0  0  0  0  0  0  0  0  0
  -22.4140  -12.1210   22.4090 H   0  0  0  0  0  0  0  0  0  0  0  0
  -21.1050  -13.2510   22.2090 H   0  0  0  0  0  0  0  0  0  0  0  0
  -25.3660  -15.3110   20.2150 N   0  0  0  0  0  0  0  0  0  0  0  0
  -24.6020  -15.9640   20.3360 H   0  0  0  0  0  0  0  0  0  0  0  0
  -26.2140  -15.7510   19.8760 H   0  0  0  0  0  0  0  0  0  0  0  0
  1  4  1  0
  2  1  2  0
  3  4  2  0
  4  7  1  0
  5  6  2  0
  5  2  1  0
  6  3  1  0
  7  9  2  0
  7  8  1  0
  8 11  1  0
 10  8  1  0
 12 11  1  0
 13 12  1  0
 14 13  1  0
 15 26  2  0
 16 14  1  0
 16 21  1  0
 17 25  1  0
 17 27  1  0
 18 24  1  0
 18 20  1  0
 19 25  1  0
 20 19  1  0
 21 20  2  0
 22 23  1  0
 22 16  2  0
 23 18  2  0
 24 17  1  0
 25 15  1  0
 27 29  2  0
 28 27  1  0
 30 28  1  0
 31 40  2  0
 31 36  1  0
 32 28  1  0
 32 36  1  0
 33 32  1  0
 34 35  1  0
 34 33  1  0
 35 31  1  0
 36 37  2  0
 37 38  1  0
 39 38  2  0
 40 39  1  0
 41 15  1  0
 41 42  1  0
 41 51  1  0
 42 45  1  0
 43 47  1  0
 43 42  1  0
 44 43  2  0
 47 46  1  0
 49 47  1  0
 49 50  1  0
 49 48  1  0
 51 54  1  1
 51 52  1  0
 53 51  1  0
 55 56  1  0
 56  6  1  0
 57  5  1  0
 57 58  1  0
 58 59  1  0
 59 60  1  0
 59 62  1  0
 61 59  1  0
 62 63  1  0
 64 73  1  0
 64 63  1  0
 65 73  1  0
 66 71  1  0
 67 68  1  0
 67 66  1  0
 69 68  1  0
 69 78  1  0
 69 70  1  0
 71 65  1  0
 71 70  1  0
 72 65  2  0
 73 74  1  0
 75 76  2  0
 76 95  1  0
 77 76  1  0
 77 80  1  0
 78 75  1  0
 78 79  1  0
 79 77  2  0
 80 81  1  0
 81 82  2  0
 83 86  1  0
 83 82  1  0
 84 83  2  0
 85 84  1  0
 85 80  2  0
 86 87  1  0
 87 88  1  0
 88 89  2  0
 90 89  1  0
 90 94  1  0
 91 90  2  0
 92 87  2  0
 92 91  1  0
 93 92  1  0
 95 96  1  0
 96 99  1  0
 96 98  1  0
 97 95  2  0
100101  1  0
100 75  1  0
102100  1  0
M  ISO  4  13 101  14 101  65 100  73 100
M  END
>  <TORSDO>  (93) 
F 27

>  <SCORE>  (93) 
-11.852

>  <name>  (93) 
94

>  <ligand_id>  (93) 
94

>  <original_smiles>  (93) 
[H]c1c([H])c([H])c2c(c1[H])C([H])([H])C([H])([H])C([H])([H])C2([H])N([H])C(=O)C1([H])N(C(=O)C([H])(N([H])C(=O)C([H])(N([H])C([H])([H])[H])C([H])([H])[H])C(C([H])([H])[H])(C([H])([H])[H])C([H])([H])[H])C([H])([H])c2c([H])c(OC([H])([H])C([H])([H])C([H])([H])N([H])C(=O)c3c([H])c([H])c(C([H])([H])C([H])([H])[N+]([H])([H])C([H])([H])C([H])([H])C([H])([H])N([H])C(=O)N4C([H])([H])C([H])([H])C([H])([H])C([H])(n5nc(-c6c([H])c([H])c(Oc7c([H])c([H])c(F)c([H])c7F)c([H])c6[H])c(C(=O)N([H])[H])c5N([H])[H])C4([H])[H])c(OC([H])([H])[H])c3[H])c([H])c([H])c2C1([H])[H]

>  <smiles>  (93) 
[H]c1c([H])c([H])c2c(c1[H])C([H])([H])C([H])([H])C([H])([H])C2([H])N([H])C(=O)C1([H])N(C(=O)C([H])(N([H])C(=O)C([H])(N([H])C([H])([H])[H])C([H])([H])[H])C(C([H])([H])[H])(C([H])([H])[H])C([H])([H])[H])C([H])([H])c2c([H])c(OC([H])([H])C([H])([H])C([H])([H])N([H])C(=O)c3c([H])c([H])c(C([H])([H])C([H])([H])[N+]([H])([H])C([H])([H])C([H])([H])C([H])([H])N([H])C(=O)N4C([H])([H])C([H])([H])C([H])([H])C([H])(n5nc(-c6c([H])c([H])c(Oc7c([H])c([H])c(F)c([H])c7F)c([H])c6[H])c(C(=O)N([H])[H])c5N([H])[H])C4([H])[H])c(OC([H])([H])[H])c3[H])c([H])c([H])c2C1([H])[H]

$$$$
95:0:0
     RDKit          3D

 95 97  0  0  1  0  0  0  0  0999 V2000
  -28.3880  -15.1570   20.4540 N   0  0  0  0  0  0  0  0  0  0  0  0
  -28.9440  -15.0790   21.2860 H   0  0  0  0  0  0  0  0  0  0  0  0
  -27.5020  -14.7220   20.6650 H   0  0  0  0  0  0  0  0  0  0  0  0
  -29.6020  -13.5000   18.5620 C   0  0  0  0  0  2  0  0  0  0  0  0
  -31.1020  -13.3190   17.9200 C   0  0  0  0  0  0  0  0  0  0  0  0
  -31.7940  -12.3440   18.2410 O   0  0  0  0  0  0  0  0  0  0  0  0
  -31.7180  -14.2500   16.8590 C   0  0  0  0  0  2  0  0  0  0  0  0
  -32.9960  -14.9830   17.3560 C   0  0  0  0  0  2  0  0  0  0  0  0
  -32.7670  -16.4290   17.8520 C   0  0  0  0  0  2  0  0  0  0  0  0
  -32.9830  -16.6860   19.3640 C   0  0  0  0  0  2  0  0  0  0  0  0
  -31.6900  -15.1710   20.8430 C   0  0  0  0  0  0  0  0  0  0  0  0
  -30.3440  -13.1190   21.4680 C   0  0  0  0  0  3  0  0  0  0  0  0
  -29.0440  -11.8980   21.1010 C   0  0  0  0  0  3  0  0  0  0  0  0
  -27.9080  -11.8540   19.7550 C   0  0  0  0  0  2  0  0  0  0  0  0
  -27.3940  -13.5290   19.3800 C   0  0  0  0  0  2  0  0  0  0  0  0
  -29.0860  -15.2850   19.2120 C   0  0  0  0  0  2  0  0  0  0  0  0
  -30.5130  -14.7230   20.6630 N   0  0  0  0  0  2  0  0  0  0  0  0
  -32.5740  -14.5030   21.3360 O   0  0  0  0  0  0  0  0  0  0  0  0
  -31.8160  -16.2860   20.1300 N   0  0  0  0  0  0  0  0  0  0  0  0
  -30.9450  -16.6900   19.8240 H   0  0  0  0  0  0  0  0  0  0  0  0
  -25.1440  -13.8260   20.7330 C   0  0  0  0  0  3  0  0  0  0  0  0
  -24.1200  -12.9720   21.0850 C   0  0  0  0  0  0  0  0  0  0  0  0
  -24.6100  -11.6490   21.1580 C   0  0  0  0  0  0  0  0  0  0  0  0
  -26.2410  -13.1090   20.4430 N   0  0  0  0  0  0  0  0  0  0  0  0
  -25.8980  -11.8190   21.0060 N   0  0  0  0  0  2  0  0  0  0  0  0
  -23.9350  -10.2990   21.2750 C   0  0  0  0  0  0  0  0  0  0  0  0
  -24.3110   -9.3010   22.2110 C   0  0  0  0  0  3  0  0  0  0  0  0
  -23.5690   -8.0930   22.3470 C   0  0  0  0  0  3  0  0  0  0  0  0
  -22.4320   -7.8500   21.5360 C   0  0  0  0  0  0  0  0  0  0  0  0
  -22.0860   -8.8180   20.5770 C   0  0  0  0  0  3  0  0  0  0  0  0
  -22.8250  -10.0130   20.4440 C   0  0  0  0  0  3  0  0  0  0  0  0
  -21.6590   -6.7070   21.5780 O   0  0  0  0  0  0  0  0  0  0  0  0
  -21.5410   -5.9310   22.7110 C   0  0  0  0  0  0  0  0  0  0  0  0
  -21.0720   -6.4610   23.9320 C   0  0  0  0  0  3  0  0  0  0  0  0
  -20.9070   -5.6180   25.0510 C   0  0  0  0  0  3  0  0  0  0  0  0
  -21.1960   -4.2440   24.9490 C   0  0  0  0  0  0  0  0  0  0  0  0
  -21.6520   -3.7120   23.7310 C   0  0  0  0  0  3  0  0  0  0  0  0
  -21.8150   -4.5500   22.6150 C   0  0  0  0  0  0  0  0  0  0  0  0
  -22.2270   -4.0200   21.4370 F   0  0  0  0  0  0  0  0  0  0  0  0
  -21.0400   -3.4370   26.0250 F   0  0  0  0  0  0  0  0  0  0  0  0
  -22.7030  -13.3700   21.1500 C   0  0  0  0  0  0  0  0  0  0  0  0
  -21.9100  -12.6750   21.9540 N   0  0  0  0  0  0  0  0  0  0  0  0
  -22.3080  -14.3360   20.5060 O   0  0  0  0  0  0  0  0  0  0  0  0
  -22.2660  -11.9070   22.5010 H   0  0  0  0  0  0  0  0  0  0  0  0
  -20.9360  -12.9250   22.0210 H   0  0  0  0  0  0  0  0  0  0  0  0
  -25.2520  -15.1700   20.4960 N   0  0  0  0  0  0  0  0  0  0  0  0
  -24.3430  -15.6210   20.4570 H   0  0  0  0  0  0  0  0  0  0  0  0
  -25.8010  -15.4370   19.6880 H   0  0  0  0  0  0  0  0  0  0  0  0
  -27.9110  -17.2770   20.2570 C   0  0  0  0  0 15  0  0  0  0  0  0
  -28.2550  -19.6870   19.9020 C   0  0  0  0  0  1  0  0  0  0  0  0
  -29.0210  -19.9800   21.1060 N   0  0  0  0  0  0  0  0  0  0  0  0
  -28.4140  -20.4820   21.7570 H   0  0  0  0  0  0  0  0  0  0  0  0
  -29.2670  -19.1280   21.5970 H   0  0  0  0  0  0  0  0  0  0  0  0
  -27.6460  -22.0410   19.6070 C   0  0  0  0  0 15  0  0  0  0  0  0
  -27.8790  -24.2160   19.5890 O   0  0  0  0  0  1  0  0  0  0  0  0
  -25.0480  -31.4730   22.9310 C   0  0  0  0  0  0  0  0  0  0  0  0
  -27.1750  -25.8550   19.6250 C   0  0  0  0  0  0  0  0  0  0  0  0
  -23.8230  -30.1860   21.2490 C   0  0  0  0  0  3  0  0  0  0  0  0
  -25.1810  -28.4840   19.7050 C   0  0  0  0  0  0  0  0  0  0  0  0
  -26.4140  -30.0540   21.1420 C   0  0  0  0  0  2  0  0  0  0  0  0
  -26.3930  -28.5860   20.3910 C   0  0  0  0  0  0  0  0  0  0  0  0
  -27.3490  -27.3300   20.3050 C   0  0  0  0  0  3  0  0  0  0  0  0
  -25.9950  -26.1960   18.8550 C   0  0  0  0  0  3  0  0  0  0  0  0
  -25.0760  -27.3290   18.9000 C   0  0  0  0  0  3  0  0  0  0  0  0
  -24.0480  -29.5510   19.8340 C   0  0  0  0  0  2  0  0  0  0  0  0
  -25.1340  -30.6270   21.8270 N   0  0  0  0  0  0  0  0  0  0  0  0
  -23.9580  -31.7760   23.4580 O   0  0  0  0  0  0  0  0  0  0  0  0
  -23.0790  -29.1960   22.1860 C   0  0  0  0  0  0  0  0  0  0  0  0
  -21.7360  -29.0780   22.0930 N   0  0  0  0  0  0  0  0  0  0  0  0
  -23.7320  -28.5250   22.9910 O   0  0  0  0  0  0  0  0  0  0  0  0
  -21.2520  -29.6700   21.4330 H   0  0  0  0  0  0  0  0  0  0  0  0
  -18.3560  -27.8170   22.6300 C   0  0  0  0  0  0  0  0  0  0  0  0
  -20.9240  -28.0960   22.8290 C   0  0  0  0  0  3  0  0  0  0  0  0
  -21.0130  -26.6980   22.1680 C   0  0  0  0  0  2  0  0  0  0  0  0
  -19.8870  -26.4350   21.1640 C   0  0  0  0  0  2  0  0  0  0  0  0
  -18.5230  -26.5220   21.8530 C   0  0  0  0  0  2  0  0  0  0  0  0
  -19.4810  -28.5630   23.0740 C   0  0  0  0  0  0  0  0  0  0  0  0
  -19.2630  -29.7710   23.7740 C   0  0  0  0  0  3  0  0  0  0  0  0
  -17.9580  -30.2330   24.0260 C   0  0  0  0  0  3  0  0  0  0  0  0
  -16.8500  -29.4840   23.5930 C   0  0  0  0  0  3  0  0  0  0  0  0
  -17.0500  -28.2760   22.9010 C   0  0  0  0  0  3  0  0  0  0  0  0
  -26.3000  -32.1210   23.6070 C   0  0  0  0  0  3  0  0  0  0  0  0
  -26.9130  -31.2230   24.7540 C   0  0  1  0  0  0  0  0  0  0  0  0
  -25.8890  -30.7980   25.8330 C   0  0  0  0  0  1  0  0  0  0  0  0
  -27.5360  -29.9330   24.1840 C   0  0  0  0  0  1  0  0  0  0  0  0
  -28.0610  -31.9810   25.4600 C   0  0  0  0  0  1  0  0  0  0  0  0
  -25.9200  -33.4340   24.1860 N   0  0  0  0  0  0  0  0  0  0  0  0
  -26.1880  -34.6390   23.6620 C   0  0  0  0  0  0  0  0  0  0  0  0
  -26.8230  -34.7710   22.6140 O   0  0  0  0  0  0  0  0  0  0  0  0
  -25.3430  -33.4020   25.0150 H   0  0  0  0  0  0  0  0  0  0  0  0
  -24.3880  -36.4070   23.7650 C   0  0  0  0  0  1  0  0  0  0  0  0
  -25.6860  -35.8970   24.4120 C   0  0  0  0  0  3  0  0  0  0  0  0
  -27.8330  -36.7080   25.2980 C   0  0  0  0  0  1  0  0  0  0  0  0
  -26.6710  -37.0020   24.4620 N   0  0  0  0  0  0  0  0  0  0  0  0
  -26.2390  -37.8520   24.8130 H   0  0  0  0  0  0  0  0  0  0  0  0
  1  3  1  0
  1  2  1  0
  4 16  1  0
  5  6  2  0
  5  4  1  0
  7  8  1  0
  7  5  1  0
  8  9  1  0
  9 10  1  0
 10 19  1  0
 11 18  2  0
 13 12  2  0
 14 13  1  0
 15 14  1  0
 15 24  1  0
 16  1  1  0
 17 11  1  0
 17 12  1  0
 19 11  1  0
 20 19  1  0
 21 46  1  0
 21 22  1  0
 22 41  1  0
 22 23  2  0
 23 26  1  0
 24 21  1  0
 24 25  1  0
 25 23  1  0
 26 27  1  0
 27 28  2  0
 29 32  1  0
 29 28  1  0
 30 29  2  0
 31 30  1  0
 31 26  2  0
 32 33  1  0
 33 34  1  0
 34 35  2  0
 36 35  1  0
 36 40  1  0
 37 36  2  0
 38 33  2  0
 38 37  1  0
 39 38  1  0
 41 42  1  0
 42 45  1  0
 42 44  1  0
 43 41  2  0
 47 46  1  0
 48 46  1  0
 50 51  1  0
 51 53  1  0
 51 52  1  0
 55 57  1  0
 56 67  2  0
 57 62  1  0
 58 66  1  0
 58 68  1  0
 59 65  1  0
 59 61  1  0
 60 66  1  0
 61 60  1  0
 62 61  2  0
 63 64  1  0
 63 57  2  0
 64 59  2  0
 65 58  1  0
 66 56  1  0
 68 70  2  0
 69 68  1  0
 71 69  1  0
 72 81  2  0
 72 77  1  0
 73 69  1  0
 73 77  1  0
 74 73  1  0
 75 76  1  0
 75 74  1  0
 76 72  1  0
 77 78  2  0
 78 79  1  0
 80 79  2  0
 81 80  1  0
 82 56  1  0
 82 87  1  0
 82 83  1  0
 83 86  1  1
 83 84  1  0
 85 83  1  0
 87 90  1  0
 88 87  1  0
 88 92  1  0
 89 88  2  0
 92 91  1  0
 92 94  1  0
 94 95  1  0
 94 93  1  0
M  ISO  4  11 100  19 100  54 101  55 101
M  END
>  <TORSDO>  (94) 
F 26

>  <SCORE>  (94) 
-12.579

>  <name>  (94) 
95

>  <ligand_id>  (94) 
95

>  <original_smiles>  (94) 
[H]c1c([H])c([H])c2c(c1[H])C([H])([H])C([H])([H])C([H])([H])C2([H])N([H])C(=O)C1([H])N(C(=O)C([H])(N([H])C(=O)C([H])(N([H])C([H])([H])[H])C([H])([H])[H])C(C([H])([H])[H])(C([H])([H])[H])C([H])([H])[H])C([H])([H])c2c([H])c(OC([H])([H])C([H])(N([H])[H])C([H])([H])[N+]([H])([H])C([H])([H])C(=O)C([H])([H])C([H])([H])C([H])([H])C([H])([H])N([H])C(=O)N3C([H])([H])C([H])([H])C([H])([H])C([H])(n4nc(-c5c([H])c([H])c(Oc6c([H])c([H])c(F)c([H])c6F)c([H])c5[H])c(C(=O)N([H])[H])c4N([H])[H])C3([H])[H])c([H])c([H])c2C1([H])[H]

>  <smiles>  (94) 
[H]c1c([H])c([H])c2c(c1[H])C([H])([H])C([H])([H])C([H])([H])C2([H])N([H])C(=O)C1([H])N(C(=O)C([H])(N([H])C(=O)C([H])(N([H])C([H])([H])[H])C([H])([H])[H])C(C([H])([H])[H])(C([H])([H])[H])C([H])([H])[H])C([H])([H])c2c([H])c(OC([H])([H])C([H])(N([H])[H])C([H])([H])[N+]([H])([H])C([H])([H])C(=O)C([H])([H])C([H])([H])C([H])([H])C([H])([H])N([H])C(=O)N3C([H])([H])C([H])([H])C([H])([H])C([H])(n4nc(-c5c([H])c([H])c(Oc6c([H])c([H])c(F)c([H])c6F)c([H])c5[H])c(C(=O)N([H])[H])c4N([H])[H])C3([H])[H])c([H])c([H])c2C1([H])[H]

$$$$
96:0:0
     RDKit          3D

101108  0  0  1  0  0  0  0  0999 V2000
  -26.7960  -21.8140   20.9680 C   0  0  0  0  0  0  0  0  0  0  0  0
  -26.7890  -20.7510   20.1580 N   0  0  0  0  0  0  0  0  0  0  0  0
  -27.4120  -21.8310   22.0350 O   0  0  0  0  0  0  0  0  0  0  0  0
  -26.2430  -20.8080   19.3070 H   0  0  0  0  0  0  0  0  0  0  0  0
  -26.0220  -23.0470   20.5040 C   0  0  0  0  0  2  0  0  0  0  0  0
  -26.8670  -23.9970   19.6290 C   0  0  0  0  0  2  0  0  0  0  0  0
  -27.7730  -24.9660   20.4170 C   0  0  0  0  0  2  0  0  0  0  0  0
  -28.5220  -25.8700   19.5220 N   0  0  0  0  0  4  0  0  0  0  0  0
  -27.9290  -26.1180   18.7450 H   0  0  0  0  0  0  0  0  0  0  0  0
  -29.3190  -25.3790   19.1440 H   0  0  0  0  0  0  0  0  0  0  0  0
  -28.9780  -27.1200   20.1730 C   0  0  0  0  0  2  0  0  0  0  0  0
  -29.3320  -28.1930   19.1260 C   0  0  0  0  0  2  0  0  0  0  0  0
  -28.2930  -28.2810   18.1480 O   0  0  0  0  0  0  0  0  0  0  0  0
  -24.4020  -31.3840   23.2580 C   0  0  0  0  0  0  0  0  0  0  0  0
  -27.0650  -28.7030   18.6010 C   0  0  0  0  0  0  0  0  0  0  0  0
  -23.1400  -30.1950   21.4930 C   0  0  0  0  0  3  0  0  0  0  0  0
  -24.4940  -29.4820   19.4530 C   0  0  0  0  0  0  0  0  0  0  0  0
  -25.4280  -31.2140   20.9970 C   0  0  0  0  0  2  0  0  0  0  0  0
  -25.6280  -30.1120   19.9810 C   0  0  0  0  0  0  0  0  0  0  0  0
  -26.9160  -29.7280   19.5620 C   0  0  0  0  0  3  0  0  0  0  0  0
  -25.9180  -28.0870   18.0630 C   0  0  0  0  0  3  0  0  0  0  0  0
  -24.6330  -28.4640   18.4930 C   0  0  0  0  0  3  0  0  0  0  0  0
  -23.1520  -29.9610   19.9570 C   0  0  0  0  0  2  0  0  0  0  0  0
  -24.3510  -30.9340   21.9720 N   0  0  0  0  0  0  0  0  0  0  0  0
  -23.4410  -31.2350   24.0250 O   0  0  0  0  0  0  0  0  0  0  0  0
  -22.9330  -28.8340   22.1950 C   0  0  0  0  0  0  0  0  0  0  0  0
  -21.7540  -28.2270   21.9790 N   0  0  0  0  0  0  0  0  0  0  0  0
  -23.8250  -28.3370   22.8880 O   0  0  0  0  0  0  0  0  0  0  0  0
  -21.0750  -28.7060   21.4050 H   0  0  0  0  0  0  0  0  0  0  0  0
  -19.1670  -25.7100   21.8340 C   0  0  0  0  0  0  0  0  0  0  0  0
  -21.3490  -26.9250   22.5020 C   0  0  0  0  0  3  0  0  0  0  0  0
  -22.0900  -25.7770   21.7780 C   0  0  0  0  0  2  0  0  0  0  0  0
  -21.3110  -25.2150   20.5840 C   0  0  0  0  0  2  0  0  0  0  0  0
  -19.9480  -24.6800   21.0340 C   0  0  0  0  0  2  0  0  0  0  0  0
  -19.8230  -26.7730   22.5100 C   0  0  0  0  0  0  0  0  0  0  0  0
  -19.0480  -27.7200   23.2100 C   0  0  0  0  0  3  0  0  0  0  0  0
  -17.6450  -27.6200   23.2430 C   0  0  0  0  0  3  0  0  0  0  0  0
  -17.0010  -26.5590   22.5850 C   0  0  0  0  0  3  0  0  0  0  0  0
  -17.7620  -25.6030   21.8880 C   0  0  0  0  0  3  0  0  0  0  0  0
  -25.6550  -32.1290   23.8160 C   0  0  0  0  0  3  0  0  0  0  0  0
  -25.2440  -33.5010   24.1400 N   0  0  0  0  0  0  0  0  0  0  0  0
  -25.4730  -34.5650   23.3590 C   0  0  0  0  0  0  0  0  0  0  0  0
  -26.1230  -34.5010   22.3110 O   0  0  0  0  0  0  0  0  0  0  0  0
  -24.6610  -33.6200   24.9550 H   0  0  0  0  0  0  0  0  0  0  0  0
  -23.6170  -36.2230   22.9970 C   0  0  0  0  0  1  0  0  0  0  0  0
  -24.8850  -35.9150   23.8100 C   0  0  0  0  0  3  0  0  0  0  0  0
  -26.9450  -36.9620   24.6420 C   0  0  0  0  0  1  0  0  0  0  0  0
  -25.8390  -37.0410   23.6920 N   0  0  0  0  0  0  0  0  0  0  0  0
  -25.3650  -37.9290   23.8290 H   0  0  0  0  0  0  0  0  0  0  0  0
  -26.2900  -31.4200   25.0750 C   0  0  1  0  0  0  0  0  0  0  0  0
  -25.2750  -31.1350   26.2060 C   0  0  0  0  0  1  0  0  0  0  0  0
  -26.9360  -30.0740   24.6700 C   0  0  0  0  0  1  0  0  0  0  0  0
  -27.4220  -32.3010   25.6550 C   0  0  0  0  0  1  0  0  0  0  0  0
  -27.6020  -19.5550   20.3480 C   0  0  0  0  0  2  0  0  0  0  0  0
  -28.7160  -19.4800   19.2870 C   0  0  0  0  0  2  0  0  0  0  0  0
  -28.6190  -18.2000   18.4400 C   0  0  0  0  0  2  0  0  0  0  0  0
  -29.9710  -17.5100   18.1590 C   0  0  0  0  0  2  0  0  0  0  0  0
  -30.3730  -16.4580   19.2240 C   0  0  0  0  0  3  0  0  0  0  0  0
  -31.9890  -14.4630   18.7780 C   0  0  0  0  0  0  0  0  0  0  0  0
  -31.7590  -12.0670   19.2850 C   0  0  0  0  0  2  0  0  0  0  0  0
  -30.8410  -11.3840   18.2490 C   0  0  0  0  0  2  0  0  0  0  0  0
  -29.3570  -11.4980   18.6530 C   0  0  0  0  0  2  0  0  0  0  0  0
  -28.9640  -12.9410   19.0700 C   0  0  0  0  0  3  0  0  0  0  0  0
  -29.9970  -13.4730   20.0860 C   0  0  0  0  0  2  0  0  0  0  0  0
  -31.3210  -13.4680   19.4390 N   0  0  0  0  0  0  0  0  0  0  0  0
  -33.0450  -14.2530   18.1790 O   0  0  0  0  0  0  0  0  0  0  0  0
  -31.5340  -15.7280   18.7250 N   0  0  0  0  0  0  0  0  0  0  0  0
  -32.1580  -16.3030   18.1790 H   0  0  0  0  0  0  0  0  0  0  0  0
  -26.7790  -14.0920   19.8110 C   0  0  0  0  0  0  0  0  0  0  0  0
  -25.5860  -13.5870   20.2530 C   0  0  0  0  0  0  0  0  0  0  0  0
  -25.7420  -12.1670   20.2720 C   0  0  0  0  0  0  0  0  0  0  0  0
  -27.6010  -12.9950   19.5950 N   0  0  0  0  0  0  0  0  0  0  0  0
  -26.9780  -11.8350   19.9210 N   0  0  0  0  0  0  0  0  0  0  0  0
  -24.7710  -11.1010   20.5460 C   0  0  0  0  0  0  0  0  0  0  0  0
  -25.1180   -9.9630   21.3070 C   0  0  0  0  0  3  0  0  0  0  0  0
  -24.1620   -8.9580   21.5710 C   0  0  0  0  0  3  0  0  0  0  0  0
  -22.8430   -9.0880   21.0790 C   0  0  0  0  0  0  0  0  0  0  0  0
  -22.5090  -10.2110   20.3010 C   0  0  0  0  0  3  0  0  0  0  0  0
  -23.4630  -11.2070   20.0340 C   0  0  0  0  0  3  0  0  0  0  0  0
  -21.8530   -8.1530   21.2660 O   0  0  0  0  0  0  0  0  0  0  0  0
  -21.7790   -7.4070   22.4140 C   0  0  0  0  0  0  0  0  0  0  0  0
  -21.8350   -7.9990   23.6950 C   0  0  0  0  0  3  0  0  0  0  0  0
  -21.6860   -7.2010   24.8470 C   0  0  0  0  0  3  0  0  0  0  0  0
  -21.4720   -5.8130   24.7200 C   0  0  0  0  0  0  0  0  0  0  0  0
  -21.4100   -5.2240   23.4460 C   0  0  0  0  0  3  0  0  0  0  0  0
  -21.5600   -6.0200   22.2960 C   0  0  0  0  0  0  0  0  0  0  0  0
  -21.4810   -5.4490   21.0700 F   0  0  0  0  0  0  0  0  0  0  0  0
  -21.3190   -5.0470   25.8250 F   0  0  0  0  0  0  0  0  0  0  0  0
  -24.3370  -14.3660   20.5510 C   0  0  0  0  0  0  0  0  0  0  0  0
  -23.5680  -13.9390   21.5460 N   0  0  0  0  0  0  0  0  0  0  0  0
  -24.0610  -15.3910   19.9290 O   0  0  0  0  0  0  0  0  0  0  0  0
  -23.8010  -13.1060   22.0680 H   0  0  0  0  0  0  0  0  0  0  0  0
  -22.7310  -14.4520   21.7920 H   0  0  0  0  0  0  0  0  0  0  0  0
  -27.2300  -15.3850   19.5630 N   0  0  0  0  0  0  0  0  0  0  0  0
  -26.6120  -16.1860   19.6380 H   0  0  0  0  0  0  0  0  0  0  0  0
  -28.1230  -15.6100   19.1470 H   0  0  0  0  0  0  0  0  0  0  0  0
  -30.7470  -17.0900   20.5950 C   0  0  0  0  0  2  0  0  0  0  0  0
  -29.5840  -17.5340   21.3790 N   0  0  0  0  0  4  0  0  0  0  0  0
  -29.9040  -17.9210   22.2520 H   0  0  0  0  0  0  0  0  0  0  0  0
  -28.9660  -16.7710   21.5870 H   0  0  0  0  0  0  0  0  0  0  0  0
  -29.0760  -18.2490   20.8900 H   0  0  0  0  0  0  0  0  0  0  0  0
  1  3  2  0
  2 54  1  0
  2  1  1  0
  4  2  1  0
  5  1  1  0
  6  7  1  0
  6  5  1  0
  8 11  1  0
  8  7  1  0
  9  8  1  0
 10  8  1  0
 12 11  1  0
 13 15  1  0
 13 12  1  0
 14 25  2  0
 15 20  1  0
 16 24  1  0
 16 26  1  0
 17 23  1  0
 17 19  1  0
 18 24  1  0
 19 18  1  0
 20 19  2  0
 21 22  1  0
 21 15  2  0
 22 17  2  0
 23 16  1  0
 24 14  1  0
 26 28  2  0
 27 26  1  0
 29 27  1  0
 30 39  2  0
 30 35  1  0
 31 27  1  0
 31 35  1  0
 32 31  1  0
 33 34  1  0
 33 32  1  0
 34 30  1  0
 35 36  2  0
 36 37  1  0
 38 37  2  0
 39 38  1  0
 40 14  1  0
 40 41  1  0
 40 50  1  0
 41 44  1  0
 42 46  1  0
 42 41  1  0
 43 42  2  0
 46 45  1  0
 48 46  1  0
 48 49  1  0
 48 47  1  0
 50 53  1  1
 50 51  1  0
 52 50  1  0
 55 54  1  0
 56 55  1  0
 57 56  1  0
 58 57  1  0
 58 97  1  0
 59 65  1  0
 60 65  1  0
 61 62  1  0
 61 60  1  0
 63 62  1  0
 63 72  1  0
 63 64  1  0
 65 64  1  0
 66 59  2  0
 67 59  1  0
 67 58  1  0
 68 67  1  0
 69 70  2  0
 70 71  1  0
 70 89  1  0
 71 74  1  0
 72 69  1  0
 72 73  1  0
 73 71  2  0
 74 75  1  0
 75 76  2  0
 77 80  1  0
 77 76  1  0
 78 77  2  0
 79 78  1  0
 79 74  2  0
 80 81  1  0
 81 82  1  0
 82 83  2  0
 84 83  1  0
 84 88  1  0
 85 84  2  0
 86 81  2  0
 86 85  1  0
 87 86  1  0
 89 90  1  0
 90 93  1  0
 90 92  1  0
 91 89  2  0
 94 95  1  0
 94 69  1  0
 96 94  1  0
 97 98  1  0
 98100  1  0
 98 99  1  0
101 98  1  0
M  ISO  4  12 101  13 101  59 100  67 100
M  END
>  <TORSDO>  (95) 
F 29

>  <SCORE>  (95) 
-4.906

>  <name>  (95) 
96

>  <ligand_id>  (95) 
96

>  <original_smiles>  (95) 
[H]c1c([H])c([H])c2c(c1[H])C([H])([H])C([H])([H])C([H])([H])C2([H])N([H])C(=O)C1([H])N(C(=O)C([H])(N([H])C(=O)C([H])(N([H])C([H])([H])[H])C([H])([H])[H])C(C([H])([H])[H])(C([H])([H])[H])C([H])([H])[H])C([H])([H])c2c([H])c(OC([H])([H])C([H])([H])[N+]([H])([H])C([H])([H])C([H])([H])C([H])([H])C(=O)N([H])C([H])([H])C([H])([H])C([H])([H])C([H])([H])C([H])(N([H])C(=O)N3C([H])([H])C([H])([H])C([H])([H])C([H])(n4nc(-c5c([H])c([H])c(Oc6c([H])c([H])c(F)c([H])c6F)c([H])c5[H])c(C(=O)N([H])[H])c4N([H])[H])C3([H])[H])C([H])([H])[N+]([H])([H])[H])c([H])c([H])c2C1([H])[H]

>  <smiles>  (95) 
[H]c1c([H])c([H])c2c(c1[H])C([H])([H])C([H])([H])C([H])([H])C2([H])N([H])C(=O)C1([H])N(C(=O)C([H])(N([H])C(=O)C([H])(N([H])C([H])([H])[H])C([H])([H])[H])C(C([H])([H])[H])(C([H])([H])[H])C([H])([H])[H])C([H])([H])c2c([H])c(OC([H])([H])C([H])([H])[N+]([H])([H])C([H])([H])C([H])([H])C([H])([H])C(=O)N([H])C([H])([H])C([H])([H])C([H])([H])C([H])([H])C([H])(N([H])C(=O)N3C([H])([H])C([H])([H])C([H])([H])C([H])(n4nc(-c5c([H])c([H])c(Oc6c([H])c([H])c(F)c([H])c6F)c([H])c5[H])c(C(=O)N([H])[H])c4N([H])[H])C3([H])[H])C([H])([H])[N+]([H])([H])[H])c([H])c([H])c2C1([H])[H]

$$$$
97:0:0
     RDKit          3D

 99106  0  0  1  0  0  0  0  0999 V2000
  -28.3420  -22.0640   18.8520 C   0  0  0  0  0  2  0  0  0  0  0  0
  -27.4340  -20.9490   18.5010 N   0  0  0  0  0  4  0  0  0  0  0  0
  -27.5610  -20.6660   17.5430 H   0  0  0  0  0  0  0  0  0  0  0  0
  -26.4680  -21.2380   18.6030 H   0  0  0  0  0  0  0  0  0  0  0  0
  -27.5190  -19.7680   19.3880 C   0  0  0  0  0  3  0  0  0  0  0  0
  -28.8880  -19.0580   19.2790 C   0  0  0  0  0  2  0  0  0  0  0  0
  -29.1010  -17.9430   20.3200 C   0  0  0  0  0  2  0  0  0  0  0  0
  -30.5880  -17.7440   20.6560 C   0  0  0  0  0  2  0  0  0  0  0  0
  -30.8400  -16.7180   21.7750 C   0  0  0  0  0  2  0  0  0  0  0  0
  -30.8770  -14.5190   20.6120 C   0  0  0  0  0  0  0  0  0  0  0  0
  -30.5590  -12.4110   19.3790 C   0  0  0  0  0  2  0  0  0  0  0  0
  -29.6440  -12.6390   18.1610 C   0  0  0  0  0  2  0  0  0  0  0  0
  -28.1610  -12.5100   18.5570 C   0  0  0  0  0  2  0  0  0  0  0  0
  -27.8050  -13.3460   19.8150 C   0  0  0  0  0  3  0  0  0  0  0  0
  -28.8270  -13.0910   20.9450 C   0  0  0  0  0  2  0  0  0  0  0  0
  -30.1750  -13.3750   20.4190 N   0  0  0  0  0  0  0  0  0  0  0  0
  -31.9470  -14.7650   20.0480 O   0  0  0  0  0  0  0  0  0  0  0  0
  -30.3080  -15.4000   21.4440 N   0  0  0  0  0  0  0  0  0  0  0  0
  -29.4340  -15.1280   21.8700 H   0  0  0  0  0  0  0  0  0  0  0  0
  -25.3910  -13.9740   20.4630 C   0  0  0  0  0  0  0  0  0  0  0  0
  -24.3100  -13.2110   20.8120 C   0  0  0  0  0  0  0  0  0  0  0  0
  -24.7620  -11.8560   20.7920 C   0  0  0  0  0  0  0  0  0  0  0  0
  -26.4370  -13.0860   20.2590 N   0  0  0  0  0  0  0  0  0  0  0  0
  -26.0580  -11.8070   20.5110 N   0  0  0  0  0  0  0  0  0  0  0  0
  -24.0220  -10.5990   20.9680 C   0  0  0  0  0  0  0  0  0  0  0  0
  -24.4390   -9.6220   21.8980 C   0  0  0  0  0  3  0  0  0  0  0  0
  -23.7020   -8.4290   22.0620 C   0  0  0  0  0  3  0  0  0  0  0  0
  -22.5340   -8.2060   21.2940 C   0  0  0  0  0  0  0  0  0  0  0  0
  -22.1380   -9.1710   20.3510 C   0  0  0  0  0  3  0  0  0  0  0  0
  -22.8750  -10.3550   20.1870 C   0  0  0  0  0  3  0  0  0  0  0  0
  -21.7700   -7.0660   21.3660 O   0  0  0  0  0  0  0  0  0  0  0  0
  -21.7110   -6.3110   22.5090 C   0  0  0  0  0  0  0  0  0  0  0  0
  -21.2990   -6.8590   23.7440 C   0  0  0  0  0  3  0  0  0  0  0  0
  -21.1860   -6.0310   24.8780 C   0  0  0  0  0  3  0  0  0  0  0  0
  -21.4750   -4.6570   24.7800 C   0  0  0  0  0  0  0  0  0  0  0  0
  -21.8780   -4.1080   23.5490 C   0  0  0  0  0  3  0  0  0  0  0  0
  -21.9940   -4.9330   22.4170 C   0  0  0  0  0  0  0  0  0  0  0  0
  -22.3630   -4.3970   21.2290 F   0  0  0  0  0  0  0  0  0  0  0  0
  -21.3580   -3.8590   25.8670 F   0  0  0  0  0  0  0  0  0  0  0  0
  -22.9110  -13.6990   21.0550 C   0  0  0  0  0  0  0  0  0  0  0  0
  -22.1650  -13.0140   21.9120 N   0  0  0  0  0  0  0  0  0  0  0  0
  -22.4900  -14.7240   20.5190 O   0  0  0  0  0  0  0  0  0  0  0  0
  -22.5190  -12.1860   22.3680 H   0  0  0  0  0  0  0  0  0  0  0  0
  -21.2250  -13.3230   22.1190 H   0  0  0  0  0  0  0  0  0  0  0  0
  -25.5690  -15.3430   20.2830 N   0  0  0  0  0  0  0  0  0  0  0  0
  -24.7940  -15.9940   20.3440 H   0  0  0  0  0  0  0  0  0  0  0  0
  -26.4230  -15.7630   19.9380 H   0  0  0  0  0  0  0  0  0  0  0  0
  -26.3340  -18.8370   19.0800 C   0  0  0  0  0  2  0  0  0  0  0  0
  -25.1670  -19.6220   18.8840 O   0  0  0  0  0  0  0  0  0  0  0  0
  -24.4330  -19.0240   18.7670 H   0  0  0  0  0  0  0  0  0  0  0  0
  -28.1830  -23.2890   17.9370 C   0  0  0  0  0  2  0  0  0  0  0  0
  -29.3040  -24.3150   18.1890 C   0  0  0  0  0  2  0  0  0  0  0  0
  -29.1550  -25.6100   17.3700 C   0  0  0  0  0  2  0  0  0  0  0  0
  -30.2230  -26.5930   17.6660 N   0  0  0  0  0  4  0  0  0  0  0  0
  -30.4660  -27.0060   16.7780 H   0  0  0  0  0  0  0  0  0  0  0  0
  -31.0520  -26.1200   17.9900 H   0  0  0  0  0  0  0  0  0  0  0  0
  -29.8570  -27.7210   18.5640 C   0  0  0  0  0  2  0  0  0  0  0  0
  -29.7880  -27.3520   20.0630 C   0  0  0  0  0  2  0  0  0  0  0  0
  -28.5650  -26.6770   20.3710 O   0  0  0  0  0  0  0  0  0  0  0  0
  -24.6510  -31.9060   23.2790 C   0  0  0  0  0  0  0  0  0  0  0  0
  -27.4100  -27.4250   20.3920 C   0  0  0  0  0  0  0  0  0  0  0  0
  -23.4870  -30.4450   21.6540 C   0  0  0  0  0  3  0  0  0  0  0  0
  -24.9830  -28.8670   20.3190 C   0  0  0  0  0  0  0  0  0  0  0  0
  -26.0090  -30.8240   21.4960 C   0  0  0  0  0  2  0  0  0  0  0  0
  -26.1200  -29.4340   20.9090 C   0  0  0  0  0  0  0  0  0  0  0  0
  -27.3320  -28.7190   20.9530 C   0  0  0  0  0  3  0  0  0  0  0  0
  -26.2510  -26.8480   19.8350 C   0  0  0  0  0  3  0  0  0  0  0  0
  -25.0390  -27.5660   19.7860 C   0  0  0  0  0  3  0  0  0  0  0  0
  -23.7280  -29.7110   20.3060 C   0  0  0  0  0  2  0  0  0  0  0  0
  -24.7320  -31.0750   22.2020 N   0  0  0  0  0  0  0  0  0  0  0  0
  -23.5580  -32.1880   23.7890 O   0  0  0  0  0  0  0  0  0  0  0  0
  -22.8200  -29.4550   22.6340 C   0  0  0  0  0  0  0  0  0  0  0  0
  -21.4970  -29.2720   22.4910 N   0  0  0  0  0  0  0  0  0  0  0  0
  -23.4910  -28.8490   23.4740 O   0  0  0  0  0  0  0  0  0  0  0  0
  -21.0180  -29.8130   21.7830 H   0  0  0  0  0  0  0  0  0  0  0  0
  -18.1090  -28.1170   22.9680 C   0  0  0  0  0  0  0  0  0  0  0  0
  -20.6650  -28.3580   23.2710 C   0  0  0  0  0  3  0  0  0  0  0  0
  -20.7650  -26.9140   22.7270 C   0  0  0  0  0  2  0  0  0  0  0  0
  -19.6730  -26.5780   21.7050 C   0  0  0  0  0  2  0  0  0  0  0  0
  -18.2830  -26.7510   22.3260 C   0  0  0  0  0  2  0  0  0  0  0  0
  -19.2280  -28.8780   23.3980 C   0  0  0  0  0  0  0  0  0  0  0  0
  -19.0140  -30.1580   23.9530 C   0  0  0  0  0  3  0  0  0  0  0  0
  -17.7110  -30.6750   24.0860 C   0  0  0  0  0  3  0  0  0  0  0  0
  -16.6060  -29.9100   23.6770 C   0  0  0  0  0  3  0  0  0  0  0  0
  -16.8060  -28.6330   23.1230 C   0  0  0  0  0  3  0  0  0  0  0  0
  -25.9220  -32.5590   23.9080 C   0  0  0  0  0  3  0  0  0  0  0  0
  -25.5930  -33.9570   24.2170 N   0  0  0  0  0  0  0  0  0  0  0  0
  -25.9290  -35.0040   23.4510 C   0  0  0  0  0  0  0  0  0  0  0  0
  -26.6170  -34.8950   22.4330 O   0  0  0  0  0  0  0  0  0  0  0  0
  -24.9780  -34.1160   25.0020 H   0  0  0  0  0  0  0  0  0  0  0  0
  -24.1840  -36.7700   23.0480 C   0  0  0  0  0  1  0  0  0  0  0  0
  -25.4160  -36.3910   23.8830 C   0  0  0  0  0  3  0  0  0  0  0  0
  -27.5280  -37.3100   24.7330 C   0  0  0  0  0  1  0  0  0  0  0  0
  -26.4370  -37.4550   23.7740 N   0  0  0  0  0  0  0  0  0  0  0  0
  -26.0180  -38.3730   23.9040 H   0  0  0  0  0  0  0  0  0  0  0  0
  -26.4360  -31.8050   25.1980 C   0  0  1  0  0  0  0  0  0  0  0  0
  -25.3320  -31.5460   26.2470 C   0  0  0  0  0  1  0  0  0  0  0  0
  -27.0570  -30.4420   24.8200 C   0  0  0  0  0  1  0  0  0  0  0  0
  -27.5500  -32.6320   25.8790 C   0  0  0  0  0  1  0  0  0  0  0  0
  2  4  1  0
  2  1  1  0
  2  5  1  0
  3  2  1  0
  5 48  1  0
  6  5  1  0
  6  7  1  0
  7  8  1  0
  8  9  1  0
 10 18  1  0
 11 16  1  0
 12 13  1  0
 12 11  1  0
 14 13  1  0
 14 23  1  0
 14 15  1  0
 16 10  1  0
 16 15  1  0
 17 10  2  0
 18  9  1  0
 18 19  1  0
 20 21  2  0
 21 40  1  0
 22 21  1  0
 22 25  1  0
 23 20  1  0
 23 24  1  0
 24 22  2  0
 25 26  1  0
 26 27  2  0
 28 31  1  0
 28 27  1  0
 29 28  2  0
 30 29  1  0
 30 25  2  0
 31 32  1  0
 32 33  1  0
 33 34  2  0
 35 34  1  0
 35 39  1  0
 36 35  2  0
 37 32  2  0
 37 36  1  0
 38 37  1  0
 40 41  1  0
 41 44  1  0
 41 43  1  0
 42 40  2  0
 45 46  1  0
 45 20  1  0
 47 45  1  0
 49 48  1  0
 50 49  1  0
 51 52  1  0
 51  1  1  0
 53 54  1  0
 53 52  1  0
 54 56  1  0
 54 57  1  0
 55 54  1  0
 57 58  1  0
 58 59  1  0
 59 61  1  0
 60 71  2  0
 61 66  1  0
 62 70  1  0
 62 72  1  0
 63 65  1  0
 64 70  1  0
 65 66  2  0
 65 64  1  0
 67 61  2  0
 68 67  1  0
 68 63  2  0
 69 63  1  0
 69 62  1  0
 70 60  1  0
 72 74  2  0
 73 72  1  0
 75 73  1  0
 76 85  2  0
 76 81  1  0
 77 73  1  0
 77 81  1  0
 78 77  1  0
 79 80  1  0
 79 78  1  0
 80 76  1  0
 81 82  2  0
 82 83  1  0
 84 83  2  0
 85 84  1  0
 86 60  1  0
 86 87  1  0
 86 96  1  0
 87 90  1  0
 88 92  1  0
 88 87  1  0
 89 88  2  0
 92 91  1  0
 94 92  1  0
 94 95  1  0
 94 93  1  0
 96 99  1  1
 96 97  1  0
 98 96  1  0
M  ISO  4  10 100  18 100  58 101  59 101
M  END
>  <TORSDO>  (96) 
F 30

>  <SCORE>  (96) 
-10.801

>  <name>  (96) 
97

>  <ligand_id>  (96) 
97

>  <original_smiles>  (96) 
[H]OC([H])([H])C([H])(C([H])([H])C([H])([H])C([H])([H])C([H])([H])N([H])C(=O)N1C([H])([H])C([H])([H])C([H])([H])C([H])(n2nc(-c3c([H])c([H])c(Oc4c([H])c([H])c(F)c([H])c4F)c([H])c3[H])c(C(=O)N([H])[H])c2N([H])[H])C1([H])[H])[N+]([H])([H])C([H])([H])C([H])([H])C([H])([H])C([H])([H])[N+]([H])([H])C([H])([H])C([H])([H])Oc1c([H])c([H])c2c(c1[H])C([H])([H])N(C(=O)C([H])(N([H])C(=O)C([H])(N([H])C([H])([H])[H])C([H])([H])[H])C(C([H])([H])[H])(C([H])([H])[H])C([H])([H])[H])C([H])(C(=O)N([H])C1([H])c3c([H])c([H])c([H])c([H])c3C([H])([H])C([H])([H])C1([H])[H])C2([H])[H]

>  <smiles>  (96) 
[H]OC([H])([H])C([H])(C([H])([H])C([H])([H])C([H])([H])C([H])([H])N([H])C(=O)N1C([H])([H])C([H])([H])C([H])([H])C([H])(n2nc(-c3c([H])c([H])c(Oc4c([H])c([H])c(F)c([H])c4F)c([H])c3[H])c(C(=O)N([H])[H])c2N([H])[H])C1([H])[H])[N+]([H])([H])C([H])([H])C([H])([H])C([H])([H])C([H])([H])[N+]([H])([H])C([H])([H])C([H])([H])Oc1c([H])c([H])c2c(c1[H])C([H])([H])N(C(=O)C([H])(N([H])C(=O)C([H])(N([H])C([H])([H])[H])C([H])([H])[H])C(C([H])([H])[H])(C([H])([H])[H])C([H])([H])[H])C([H])(C(=O)N([H])C1([H])c3c([H])c([H])c([H])c([H])c3C([H])([H])C([H])([H])C1([H])[H])C2([H])[H]

$$$$
98:0:0
     RDKit          3D

101109  0  0  1  0  0  0  0  0999 V2000
  -24.4870  -26.1140   23.8760 N   0  0  0  0  0  4  0  0  0  0  0  0
  -25.1700  -26.2400   24.6080 H   0  0  0  0  0  0  0  0  0  0  0  0
  -24.7080  -26.8550   23.2390 H   0  0  0  0  0  0  0  0  0  0  0  0
  -24.6160  -23.5750   24.1600 C   0  0  0  0  0  1  0  0  0  0  0  0
  -24.9630  -24.6860   23.1620 C   0  0  0  0  0  3  0  0  0  0  0  0
  -28.4430  -22.4110   21.9740 C   0  0  0  0  0  3  0  0  0  0  0  0
  -27.4780  -23.1520   20.0450 C   0  0  0  0  0  3  0  0  0  0  0  0
  -27.4570  -23.2120   22.7720 C   0  0  0  0  0  3  0  0  0  0  0  0
  -26.5010  -23.9550   20.8370 C   0  0  0  0  0  3  0  0  0  0  0  0
  -28.5510  -22.2760   20.5150 C   0  0  0  0  0  0  0  0  0  0  0  0
  -26.3710  -24.0700   22.2920 C   0  0  0  0  0  0  0  0  0  0  0  0
  -29.4170  -21.0790   19.5370 C   0  0  0  0  0  3  0  0  0  0  0  0
  -31.1080  -20.5800   19.1000 C   0  0  0  0  0  3  0  0  0  0  0  0
  -32.8490  -18.7180   17.4620 C   0  0  0  0  0  0  0  0  0  0  0  0
  -34.3720  -17.9110   15.4810 C   0  0  0  0  0  2  0  0  0  0  0  0
  -35.0120  -19.0930   14.6930 C   0  0  0  0  0  2  0  0  0  0  0  0
  -34.0010  -19.7240   13.7160 C   0  0  0  0  0  2  0  0  0  0  0  0
  -32.6120  -19.8880   14.3820 C   0  0  0  0  0  3  0  0  0  0  0  0
  -32.1330  -18.5880   15.0400 C   0  0  0  0  0  2  0  0  0  0  0  0
  -33.0700  -18.3460   16.1220 N   0  0  0  0  0  0  0  0  0  0  0  0
  -33.7470  -18.2830   18.2190 O   0  0  0  0  0  0  0  0  0  0  0  0
  -31.7200  -19.6250   17.8500 N   0  0  0  0  0  0  0  0  0  0  0  0
  -31.1640  -19.7720   17.0190 H   0  0  0  0  0  0  0  0  0  0  0  0
  -30.7670  -21.4830   13.6720 C   0  0  0  0  0  0  0  0  0  0  0  0
  -30.0050  -21.5550   12.5370 C   0  0  0  0  0  0  0  0  0  0  0  0
  -30.4150  -20.4620   11.7150 C   0  0  0  0  0  0  0  0  0  0  0  0
  -31.5930  -20.3910   13.4880 N   0  0  0  0  0  0  0  0  0  0  0  0
  -31.3340  -19.7330   12.3330 N   0  0  0  0  0  0  0  0  0  0  0  0
  -30.0320  -20.1030   10.3460 C   0  0  0  0  0  0  0  0  0  0  0  0
  -29.5790  -18.8070   10.0200 C   0  0  0  0  0  3  0  0  0  0  0  0
  -29.1990  -18.4960    8.6960 C   0  0  0  0  0  3  0  0  0  0  0  0
  -29.2680  -19.4870    7.6890 C   0  0  0  0  0  0  0  0  0  0  0  0
  -29.7430  -20.7700    8.0160 C   0  0  0  0  0  3  0  0  0  0  0  0
  -30.1250  -21.0750    9.3310 C   0  0  0  0  0  3  0  0  0  0  0  0
  -28.9460  -19.2690    6.3710 O   0  0  0  0  0  0  0  0  0  0  0  0
  -28.0480  -18.3010    6.0020 C   0  0  0  0  0  0  0  0  0  0  0  0
  -26.7320  -18.2720    6.5120 C   0  0  0  0  0  3  0  0  0  0  0  0
  -25.8200  -17.3010    6.0530 C   0  0  0  0  0  3  0  0  0  0  0  0
  -26.2180  -16.3660    5.0780 C   0  0  0  0  0  0  0  0  0  0  0  0
  -27.5260  -16.3970    4.5640 C   0  0  0  0  0  3  0  0  0  0  0  0
  -28.4370  -17.3650    5.0220 C   0  0  0  0  0  0  0  0  0  0  0  0
  -29.6910  -17.4040    4.5090 F   0  0  0  0  0  0  0  0  0  0  0  0
  -25.3400  -15.4380    4.6300 F   0  0  0  0  0  0  0  0  0  0  0  0
  -29.0250  -22.6390   12.2020 C   0  0  0  0  0  0  0  0  0  0  0  0
  -28.0010  -22.3170   11.4180 N   0  0  0  0  0  0  0  0  0  0  0  0
  -29.1390  -23.7680   12.6710 O   0  0  0  0  0  0  0  0  0  0  0  0
  -27.8950  -21.3840   11.0540 H   0  0  0  0  0  0  0  0  0  0  0  0
  -27.3110  -23.0170   11.1840 H   0  0  0  0  0  0  0  0  0  0  0  0
  -30.8380  -22.2560   14.8260 N   0  0  0  0  0  0  0  0  0  0  0  0
  -30.3070  -23.1150   14.9210 H   0  0  0  0  0  0  0  0  0  0  0  0
  -31.5160  -22.1280   15.5670 H   0  0  0  0  0  0  0  0  0  0  0  0
  -23.0210  -26.4530   24.6360 C   0  0  0  0  0  2  0  0  0  0  0  0
  -21.9050  -27.9460   24.9260 C   0  0  0  0  0  2  0  0  0  0  0  0
  -20.8530  -29.2170   23.9590 C   0  0  0  0  0  3  0  0  0  0  0  0
  -20.2650  -29.4480   22.1140 C   0  0  0  0  0  3  0  0  0  0  0  0
  -20.6030  -28.5690   20.6450 N   0  0  0  0  0  4  0  0  0  0  0  0
  -20.2900  -29.1870   19.9110 H   0  0  0  0  0  0  0  0  0  0  0  0
  -19.8510  -27.8940   20.6770 H   0  0  0  0  0  0  0  0  0  0  0  0
  -21.8380  -27.5860   19.8960 C   0  0  0  0  0  2  0  0  0  0  0  0
  -23.4390  -26.6700   20.2710 C   0  0  0  0  0  2  0  0  0  0  0  0
  -25.1380  -26.7650   20.3140 O   0  0  0  0  0  0  0  0  0  0  0  0
  -24.3170  -31.7200   23.0520 C   0  0  0  0  0  0  0  0  0  0  0  0
  -26.0390  -27.3840   19.4770 C   0  0  0  0  0  3  0  0  0  0  0  0
  -23.1250  -30.1070   21.5580 C   0  0  0  0  0  3  0  0  0  0  0  0
  -24.2770  -29.3360   19.4820 C   0  0  0  0  0  3  0  0  0  0  0  0
  -25.5100  -30.7360   21.1250 C   0  0  0  0  0  2  0  0  0  0  0  0
  -25.4500  -29.5380   20.2060 C   0  0  0  0  0  3  0  0  0  0  0  0
  -26.4660  -28.5860   20.0910 C   0  0  0  0  0  2  0  0  0  0  0  0
  -25.2790  -27.4470   18.3390 C   0  0  0  0  0  2  0  0  0  0  0  0
  -24.2510  -28.3980   18.4190 C   0  0  0  0  0  2  0  0  0  0  0  0
  -23.1250  -30.1370   19.9840 C   0  0  0  0  0  2  0  0  0  0  0  0
  -24.3250  -30.8580   21.9930 N   0  0  0  0  0  0  0  0  0  0  0  0
  -23.2890  -32.0810   23.6380 O   0  0  0  0  0  0  0  0  0  0  0  0
  -23.0480  -28.6330   22.3280 C   0  0  0  0  0  0  0  0  0  0  0  0
  -22.0760  -27.5150   22.3990 N   0  0  0  0  0  0  0  0  0  0  0  0
  -23.9270  -28.4570   23.1240 O   0  0  0  0  0  0  0  0  0  0  0  0
  -22.5880  -26.8750   22.9790 H   0  0  0  0  0  0  0  0  0  0  0  0
  -17.9730  -26.6060   21.8160 C   0  0  0  0  0  0  0  0  0  0  0  0
  -20.5220  -26.9410   22.6090 C   0  0  0  0  0  3  0  0  0  0  0  0
  -20.6930  -25.5300   22.1450 C   0  0  0  0  0  2  0  0  0  0  0  0
  -19.8660  -25.2030   20.9240 C   0  0  0  0  0  2  0  0  0  0  0  0
  -18.3850  -25.2720   21.2560 C   0  0  0  0  0  2  0  0  0  0  0  0
  -18.9190  -27.4350   22.4870 C   0  0  0  0  0  0  0  0  0  0  0  0
  -18.2420  -28.5490   23.1230 C   0  0  0  0  0  3  0  0  0  0  0  0
  -16.9150  -28.9660   22.8720 C   0  0  0  0  0  3  0  0  0  0  0  0
  -16.0710  -28.1350   22.1390 C   0  0  0  0  0  3  0  0  0  0  0  0
  -16.5980  -26.9280   21.6690 C   0  0  0  0  0  3  0  0  0  0  0  0
  -25.6310  -32.3450   23.5660 C   0  0  0  0  0  3  0  0  0  0  0  0
  -25.2970  -33.6910   24.0440 N   0  0  0  0  0  0  0  0  0  0  0  0
  -25.4330  -34.8000   23.3100 C   0  0  0  0  0  0  0  0  0  0  0  0
  -25.9500  -34.7960   22.1890 O   0  0  0  0  0  0  0  0  0  0  0  0
  -24.8050  -33.7510   24.9240 H   0  0  0  0  0  0  0  0  0  0  0  0
  -23.5980  -36.5230   23.2710 C   0  0  0  0  0  1  0  0  0  0  0  0
  -24.9320  -36.1170   23.9200 C   0  0  0  0  0  3  0  0  0  0  0  0
  -27.1110  -37.0160   24.5970 C   0  0  0  0  0  1  0  0  0  0  0  0
  -25.9070  -37.2190   23.7940 N   0  0  0  0  0  0  0  0  0  0  0  0
  -25.4860  -38.1020   24.0710 H   0  0  0  0  0  0  0  0  0  0  0  0
  -26.3000  -31.4950   24.7090 C   0  0  1  0  0  0  0  0  0  0  0  0
  -25.3600  -31.1780   25.8930 C   0  0  0  0  0  1  0  0  0  0  0  0
  -26.8490  -30.1470   24.1820 C   0  0  0  0  0  1  0  0  0  0  0  0
  -27.5100  -32.2790   25.2500 C   0  0  0  0  0  1  0  0  0  0  0  0
  1  2  1  0
  1 52  1  0
  3  1  1  0
  5  1  1  0
  5  4  1  0
  6  8  1  0
  7 10  1  0
  7  9  2  0
  9 11  1  0
 10  6  2  0
 11  8  2  0
 11  5  1  0
 12 10  1  0
 13 12  2  0
 14 22  1  0
 14 21  2  0
 15 20  1  0
 16 15  1  0
 17 18  1  0
 17 16  1  0
 18 27  1  0
 18 19  1  0
 19 20  1  0
 20 14  1  0
 22 13  1  0
 23 22  1  0
 24 49  1  0
 25 24  2  0
 26 28  2  0
 26 25  1  0
 27 24  1  0
 28 27  1  0
 29 26  1  0
 30 29  1  0
 31 30  2  0
 32 33  2  0
 32 31  1  0
 33 34  1  0
 34 29  2  0
 35 32  1  0
 36 35  1  0
 36 37  1  0
 38 37  2  0
 39 38  1  0
 40 41  1  0
 40 39  2  0
 41 36  2  0
 42 41  1  0
 43 39  1  0
 44 25  1  0
 44 46  2  0
 45 44  1  0
 47 45  1  0
 48 45  1  0
 49 50  1  0
 49 51  1  0
 52 53  1  0
 54 53  1  0
 55 54  2  0
 56 58  1  0
 56 55  1  0
 57 56  1  0
 59 60  1  0
 59 56  1  0
 60 61  1  0
 62 73  2  0
 63 68  1  0
 63 61  1  0
 64 72  1  0
 64 74  1  0
 65 70  1  0
 65 71  1  0
 65 67  1  0
 66 72  1  0
 67 68  1  0
 67 66  1  0
 69 70  1  0
 69 63  1  0
 71 64  1  0
 72 62  1  0
 74 75  1  0
 74 76  2  0
 75 77  1  0
 78 83  1  0
 79 75  1  0
 80 79  1  0
 81 82  1  0
 81 80  1  0
 82 78  1  0
 83 79  1  0
 83 84  2  0
 85 84  1  0
 86 85  2  0
 87 78  2  0
 87 86  1  0
 88 62  1  0
 88 89  1  0
 88 98  1  0
 89 92  1  0
 90 94  1  0
 90 89  1  0
 91 90  2  0
 94 93  1  0
 96 94  1  0
 96 97  1  0
 96 95  1  0
 98101  1  1
 98 99  1  0
100 98  1  0
M  ISO  4  14 100  22 100  60 101  61 101
M  END
>  <TORSDO>  (97) 
F 27

>  <SCORE>  (97) 
-2.043

>  <name>  (97) 
98

>  <ligand_id>  (97) 
98

>  <original_smiles>  (97) 
[H]c1c([H])c([H])c2c(c1[H])C([H])([H])C([H])([H])C([H])([H])C2([H])N([H])C(=O)C1([H])N(C(=O)C([H])(N([H])C(=O)C([H])(N([H])C([H])([H])[H])C([H])([H])[H])C(C([H])([H])[H])(C([H])([H])[H])C([H])([H])[H])C([H])([H])c2c([H])c(OC([H])([H])C([H])([H])[N+]([H])([H])C([H])([H])C([H])([H])C([H])([H])C([H])([H])[N+]([H])([H])C([H])(c3c([H])c([H])c(C([H])([H])C([H])([H])N([H])C(=O)N4C([H])([H])C([H])([H])C([H])([H])C([H])(n5nc(-c6c([H])c([H])c(Oc7c([H])c([H])c(F)c([H])c7F)c([H])c6[H])c(C(=O)N([H])[H])c5N([H])[H])C4([H])[H])c([H])c3[H])C([H])([H])[H])c([H])c([H])c2C1([H])[H]

>  <smiles>  (97) 
[H]c1c([H])c([H])c2c(c1[H])C([H])([H])C([H])([H])C([H])([H])C2([H])N([H])C(=O)C1([H])N(C(=O)C([H])(N([H])C(=O)C([H])(N([H])C([H])([H])[H])C([H])([H])[H])C(C([H])([H])[H])(C([H])([H])[H])C([H])([H])[H])C([H])([H])c2c([H])c(OC([H])([H])C([H])([H])[N+]([H])([H])C([H])([H])C([H])([H])C([H])([H])C([H])([H])[N+]([H])([H])C([H])(c3c([H])c([H])c(C([H])([H])C([H])([H])N([H])C(=O)N4C([H])([H])C([H])([H])C([H])([H])C([H])(n5nc(-c6c([H])c([H])c(Oc7c([H])c([H])c(F)c([H])c7F)c([H])c6[H])c(C(=O)N([H])[H])c5N([H])[H])C4([H])[H])c([H])c3[H])C([H])([H])[H])c([H])c([H])c2C1([H])[H]

$$$$
99:0:0
     RDKit          3D

100109  0  0  1  0  0  0  0  0999 V2000
  -30.6120  -23.8020   25.1110 C   0  0  0  0  0  1  0  0  0  0  0  0
  -30.2040  -23.8110   23.6200 C   0  0  0  0  0  3  0  0  0  0  0  0
  -29.6830  -22.4970   23.2460 N   0  0  0  0  0  0  0  0  0  0  0  0
  -29.0160  -22.1710   23.9410 H   0  0  0  0  0  0  0  0  0  0  0  0
  -30.7690  -21.5330   23.0700 C   0  0  0  0  0  2  0  0  0  0  0  0
  -30.4860  -20.5570   21.9150 C   0  0  0  0  0  2  0  0  0  0  0  0
  -31.5270  -19.5070   21.8460 N   0  0  0  0  0  4  0  0  0  0  0  0
  -32.4280  -19.9220   22.0230 H   0  0  0  0  0  0  0  0  0  0  0  0
  -31.3390  -18.8630   22.6000 H   0  0  0  0  0  0  0  0  0  0  0  0
  -34.1790  -16.9210   17.9810 C   0  0  0  0  0  0  0  0  0  0  0  0
  -35.5310  -16.0870   16.0830 C   0  0  0  0  0  2  0  0  0  0  0  0
  -36.3010  -17.2140   15.3710 C   0  0  0  0  0  2  0  0  0  0  0  0
  -35.4200  -17.8940   14.3040 C   0  0  0  0  0  2  0  0  0  0  0  0
  -34.0230  -18.2830   14.8510 C   0  0  0  0  0  3  0  0  0  0  0  0
  -33.3780  -17.0830   15.5800 C   0  0  0  0  0  2  0  0  0  0  0  0
  -34.2950  -16.6490   16.6510 N   0  0  0  0  0  0  0  0  0  0  0  0
  -35.0780  -16.6620   18.7910 O   0  0  0  0  0  0  0  0  0  0  0  0
  -32.2320  -17.3510   20.8070 C   0  0  0  0  0  2  0  0  0  0  0  0
  -32.3000  -19.4630   19.4520 C   0  0  0  0  0  2  0  0  0  0  0  0
  -32.2780  -16.5370   19.4990 C   0  0  0  0  0  2  0  0  0  0  0  0
  -32.3650  -18.6090   18.1690 C   0  0  0  0  0  2  0  0  0  0  0  0
  -31.5650  -18.7240   20.5880 C   0  0  0  0  0  3  0  0  0  0  0  0
  -32.9420  -17.2750   18.4130 N   0  0  0  0  0  0  0  0  0  0  0  0
  -32.4360  -19.9840   13.7430 C   0  0  0  0  0  0  0  0  0  0  0  0
  -31.8520  -20.0140   12.5060 C   0  0  0  0  0  0  0  0  0  0  0  0
  -32.2630  -18.8150   11.8470 C   0  0  0  0  0  0  0  0  0  0  0  0
  -33.1570  -18.8010   13.7950 N   0  0  0  0  0  0  0  0  0  0  0  0
  -33.0030  -18.0730   12.6600 N   0  0  0  0  0  0  0  0  0  0  0  0
  -32.0440  -18.3580   10.4700 C   0  0  0  0  0  0  0  0  0  0  0  0
  -31.4890  -17.0890   10.1920 C   0  0  0  0  0  3  0  0  0  0  0  0
  -31.2730  -16.6790    8.8590 C   0  0  0  0  0  3  0  0  0  0  0  0
  -31.6080  -17.5400    7.7890 C   0  0  0  0  0  0  0  0  0  0  0  0
  -32.1820  -18.7920    8.0690 C   0  0  0  0  0  3  0  0  0  0  0  0
  -32.4020  -19.1970    9.3970 C   0  0  0  0  0  3  0  0  0  0  0  0
  -31.4580  -17.2160    6.4610 O   0  0  0  0  0  0  0  0  0  0  0  0
  -30.4940  -16.3340    6.0410 C   0  0  0  0  0  0  0  0  0  0  0  0
  -29.1240  -16.5490    6.3000 C   0  0  0  0  0  3  0  0  0  0  0  0
  -28.1620  -15.6540    5.7910 C   0  0  0  0  0  3  0  0  0  0  0  0
  -28.5670  -14.5510    5.0150 C   0  0  0  0  0  0  0  0  0  0  0  0
  -29.9320  -14.3380    4.7510 C   0  0  0  0  0  3  0  0  0  0  0  0
  -30.8930  -15.2290    5.2620 C   0  0  0  0  0  0  0  0  0  0  0  0
  -32.2050  -15.0320    4.9860 F   0  0  0  0  0  0  0  0  0  0  0  0
  -27.6440  -13.6950    4.5180 F   0  0  0  0  0  0  0  0  0  0  0  0
  -31.0340  -21.1340   11.9270 C   0  0  0  0  0  0  0  0  0  0  0  0
  -30.0810  -20.8130   11.0600 N   0  0  0  0  0  0  0  0  0  0  0  0
  -31.2050  -22.2990   12.2810 O   0  0  0  0  0  0  0  0  0  0  0  0
  -29.9260  -19.8530   10.7850 H   0  0  0  0  0  0  0  0  0  0  0  0
  -29.4980  -21.5370   10.6630 H   0  0  0  0  0  0  0  0  0  0  0  0
  -32.4300  -20.8710   14.8150 N   0  0  0  0  0  0  0  0  0  0  0  0
  -31.9500  -21.7620   14.7690 H   0  0  0  0  0  0  0  0  0  0  0  0
  -32.9650  -20.7530   15.6660 H   0  0  0  0  0  0  0  0  0  0  0  0
  -29.1450  -24.9000   23.3140 C   0  0  0  0  0  2  0  0  0  0  0  0
  -30.9380  -28.2720   23.5160 C   0  0  0  0  0  3  0  0  0  0  0  0
  -31.3280  -28.4880   22.1850 C   0  0  0  0  0  3  0  0  0  0  0  0
  -30.1900  -27.1290   23.8490 C   0  0  0  0  0  3  0  0  0  0  0  0
  -30.9220  -27.5860   21.1840 C   0  0  0  0  0  3  0  0  0  0  0  0
  -29.8030  -26.2010   22.8550 C   0  0  0  0  0  0  0  0  0  0  0  0
  -30.1100  -26.4700   21.4900 C   0  0  0  0  0  0  0  0  0  0  0  0
  -29.6370  -25.5610   20.3490 C   0  0  0  0  0  2  0  0  0  0  0  0
  -29.2070  -26.2530   19.1730 O   0  0  0  0  0  0  0  0  0  0  0  0
  -24.9670  -30.5920   22.8850 C   0  0  0  0  0  0  0  0  0  0  0  0
  -27.9940  -26.8930   19.2740 C   0  0  0  0  0  0  0  0  0  0  0  0
  -23.9140  -29.4560   20.9510 C   0  0  0  0  0  3  0  0  0  0  0  0
  -25.5150  -28.2400   19.3810 C   0  0  0  0  0  0  0  0  0  0  0  0
  -26.4200  -29.9500   20.9690 C   0  0  0  0  0  2  0  0  0  0  0  0
  -26.6040  -28.7150   20.1190 C   0  0  0  0  0  0  0  0  0  0  0  0
  -27.8440  -28.0540   20.0590 C   0  0  0  0  0  3  0  0  0  0  0  0
  -26.8910  -26.4160   18.5370 C   0  0  0  0  0  3  0  0  0  0  0  0
  -25.6490  -27.0840   18.5870 C   0  0  0  0  0  3  0  0  0  0  0  0
  -24.2280  -29.0270   19.4910 C   0  0  0  0  0  2  0  0  0  0  0  0
  -25.1140  -30.0060   21.6640 N   0  0  0  0  0  0  0  0  0  0  0  0
  -23.8460  -30.7270   23.3980 O   0  0  0  0  0  0  0  0  0  0  0  0
  -23.2610  -28.2620   21.6820 C   0  0  0  0  0  0  0  0  0  0  0  0
  -22.1450  -27.7630   21.1280 N   0  0  0  0  0  0  0  0  0  0  0  0
  -23.7690  -27.7870   22.7010 O   0  0  0  0  0  0  0  0  0  0  0  0
  -21.7870  -28.2140   20.2980 H   0  0  0  0  0  0  0  0  0  0  0  0
  -19.5320  -25.4300   20.2560 C   0  0  0  0  0  0  0  0  0  0  0  0
  -21.3810  -26.6160   21.6160 C   0  0  0  0  0  3  0  0  0  0  0  0
  -22.1890  -25.3070   21.4700 C   0  0  0  0  0  2  0  0  0  0  0  0
  -21.9120  -24.5720   20.1570 C   0  0  0  0  0  2  0  0  0  0  0  0
  -20.4250  -24.2190   20.0410 C   0  0  0  0  0  2  0  0  0  0  0  0
  -19.9870  -26.5610   20.9810 C   0  0  0  0  0  0  0  0  0  0  0  0
  -19.1310  -27.6760   21.1190 C   0  0  0  0  0  3  0  0  0  0  0  0
  -17.8420  -27.6680   20.5520 C   0  0  0  0  0  3  0  0  0  0  0  0
  -17.3910  -26.5380   19.8490 C   0  0  0  0  0  3  0  0  0  0  0  0
  -18.2330  -25.4210   19.7050 C   0  0  0  0  0  3  0  0  0  0  0  0
  -26.1890  -31.1450   23.6850 C   0  0  0  0  0  3  0  0  0  0  0  0
  -25.8520  -32.5080   24.1170 N   0  0  0  0  0  0  0  0  0  0  0  0
  -26.3980  -33.6210   23.6100 C   0  0  0  0  0  0  0  0  0  0  0  0
  -27.2980  -33.6040   22.7660 O   0  0  0  0  0  0  0  0  0  0  0  0
  -25.0820  -32.6010   24.7620 H   0  0  0  0  0  0  0  0  0  0  0  0
  -24.9120  -35.5730   23.0650 C   0  0  0  0  0  1  0  0  0  0  0  0
  -25.8550  -34.9700   24.1170 C   0  0  0  0  0  3  0  0  0  0  0  0
  -27.7050  -35.5610   25.6190 C   0  0  0  0  0  1  0  0  0  0  0  0
  -26.9180  -35.9430   24.4500 N   0  0  0  0  0  0  0  0  0  0  0  0
  -26.5230  -36.8640   24.6200 H   0  0  0  0  0  0  0  0  0  0  0  0
  -26.5870  -30.2470   24.9210 C   0  0  1  0  0  0  0  0  0  0  0  0
  -25.4110  -29.9640   25.8850 C   0  0  0  0  0  1  0  0  0  0  0  0
  -27.1520  -28.8870   24.4440 C   0  0  0  0  0  1  0  0  0  0  0  0
  -27.7160  -30.9340   25.7240 C   0  0  0  0  0  1  0  0  0  0  0  0
  2  1  1  0
  3  2  1  0
  3  4  1  0
  5  3  1  0
  6  5  1  0
  7  6  1  0
  7  8  1  0
  7  9  1  0
 10 23  1  0
 10 17  2  0
 11 16  1  0
 12 11  1  0
 13 14  1  0
 13 12  1  0
 14 27  1  0
 14 15  1  0
 15 16  1  0
 16 10  1  0
 19 22  1  0
 20 18  1  0
 21 23  1  0
 21 19  1  0
 22 18  1  0
 22  7  1  0
 23 20  1  0
 24 27  1  0
 24 49  1  0
 25 24  2  0
 26 25  1  0
 26 28  2  0
 28 27  1  0
 29 26  1  0
 30 29  1  0
 31 30  2  0
 32 33  2  0
 32 31  1  0
 33 34  1  0
 34 29  2  0
 35 32  1  0
 36 37  1  0
 36 35  1  0
 38 37  2  0
 39 38  1  0
 40 39  2  0
 40 41  1  0
 41 36  2  0
 42 41  1  0
 43 39  1  0
 44 46  2  0
 44 25  1  0
 45 44  1  0
 47 45  1  0
 48 45  1  0
 49 51  1  0
 50 49  1  0
 52  2  1  0
 53 55  1  0
 54 53  2  0
 56 58  2  0
 56 54  1  0
 57 52  1  0
 57 55  2  0
 58 57  1  0
 59 58  1  0
 60 62  1  0
 60 59  1  0
 61 72  2  0
 62 67  1  0
 63 71  1  0
 63 73  1  0
 64 70  1  0
 64 66  1  0
 65 71  1  0
 66 65  1  0
 67 66  2  0
 68 69  1  0
 68 62  2  0
 69 64  2  0
 70 63  1  0
 71 61  1  0
 73 75  2  0
 74 73  1  0
 76 74  1  0
 77 82  1  0
 78 74  1  0
 79 78  1  0
 80 79  1  0
 81 80  1  0
 81 77  1  0
 82 83  2  0
 82 78  1  0
 84 83  1  0
 85 84  2  0
 86 85  1  0
 86 77  2  0
 87 61  1  0
 87 88  1  0
 87 97  1  0
 88 91  1  0
 89 88  1  0
 89 93  1  0
 90 89  2  0
 93 92  1  0
 93 95  1  0
 95 96  1  0
 95 94  1  0
 97100  1  1
 97 98  1  0
 99 97  1  0
M  ISO  4  10 100  23 100  59 101  60 101
M  END
>  <TORSDO>  (98) 
F 23

>  <SCORE>  (98) 
-2.878

>  <name>  (98) 
99

>  <ligand_id>  (98) 
99

>  <original_smiles>  (98) 
[H]c1c([H])c([H])c(C([H])([H])C([H])(N([H])C([H])([H])C([H])([H])[N+]([H])([H])C2([H])C([H])([H])C([H])([H])N(C(=O)N3C([H])([H])C([H])([H])C([H])([H])C([H])(n4nc(-c5c([H])c([H])c(Oc6c([H])c([H])c(F)c([H])c6F)c([H])c5[H])c(C(=O)N([H])[H])c4N([H])[H])C3([H])[H])C([H])([H])C2([H])[H])C([H])([H])[H])c(C([H])([H])Oc2c([H])c([H])c3c(c2[H])C([H])([H])N(C(=O)C([H])(N([H])C(=O)C([H])(N([H])C([H])([H])[H])C([H])([H])[H])C(C([H])([H])[H])(C([H])([H])[H])C([H])([H])[H])C([H])(C(=O)N([H])C2([H])c4c([H])c([H])c([H])c([H])c4C([H])([H])C([H])([H])C2([H])[H])C3([H])[H])c1[H]

>  <smiles>  (98) 
[H]c1c([H])c([H])c(C([H])([H])C([H])(N([H])C([H])([H])C([H])([H])[N+]([H])([H])C2([H])C([H])([H])C([H])([H])N(C(=O)N3C([H])([H])C([H])([H])C([H])([H])C([H])(n4nc(-c5c([H])c([H])c(Oc6c([H])c([H])c(F)c([H])c6F)c([H])c5[H])c(C(=O)N([H])[H])c4N([H])[H])C3([H])[H])C([H])([H])C2([H])[H])C([H])([H])[H])c(C([H])([H])Oc2c([H])c([H])c3c(c2[H])C([H])([H])N(C(=O)C([H])(N([H])C(=O)C([H])(N([H])C([H])([H])[H])C([H])([H])[H])C(C([H])([H])[H])(C([H])([H])[H])C([H])([H])[H])C([H])(C(=O)N([H])C2([H])c4c([H])c([H])c([H])c([H])c4C([H])([H])C([H])([H])C2([H])[H])C3([H])[H])c1[H]

$$$$
