0:0:0
     RDKit          3D

 96104  0  0  1  0  0  0  0  0999 V2000
  -31.6520  -22.5510   22.7170 C   0  0  0  0  0  3  0  0  0  0  0  0
  -30.6340  -23.5220   22.6270 C   0  0  0  0  0  3  0  0  0  0  0  0
  -30.1330  -20.8890   21.8040 C   0  0  0  0  0  3  0  0  0  0  0  0
  -31.4040  -21.2210   22.3210 C   0  0  0  0  0  0  0  0  0  0  0  0
  -29.3540  -23.1950   22.1190 C   0  0  0  0  0  0  0  0  0  0  0  0
  -29.1240  -21.8650   21.6810 C   0  0  0  0  0  0  0  0  0  0  0  0
  -27.9070  -21.4710   21.1310 N   0  0  0  0  0  0  0  0  0  0  0  0
  -27.8940  -20.6220   20.5760 H   0  0  0  0  0  0  0  0  0  0  0  0
  -27.2970  -22.1900   20.7570 H   0  0  0  0  0  0  0  0  0  0  0  0
  -32.4810  -20.1540   22.4980 C   0  0  0  0  0  2  0  0  0  0  0  0
  -33.0560  -19.5720   21.1880 C   0  0  0  0  0  2  0  0  0  0  0  0
  -32.0950  -18.6770   20.3870 C   0  0  0  0  0  2  0  0  0  0  0  0
  -31.6750  -17.3840   21.1160 C   0  0  0  0  0  2  0  0  0  0  0  0
  -30.4810  -16.7190   20.4100 C   0  0  0  0  0  2  0  0  0  0  0  0
  -30.8160  -14.2940   20.1770 C   0  0  0  0  0  0  0  0  0  0  0  0
  -30.3560  -12.1680   19.0410 C   0  0  0  0  0  2  0  0  0  0  0  0
  -29.3840  -12.4360   17.8750 C   0  0  0  0  0  2  0  0  0  0  0  0
  -27.9250  -12.3410   18.3610 C   0  0  0  0  0  2  0  0  0  0  0  0
  -27.6650  -13.1720   19.6460 C   0  0  0  0  0  3  0  0  0  0  0  0
  -28.7600  -12.9240   20.7120 C   0  0  0  0  0  2  0  0  0  0  0  0
  -30.0790  -13.1550   20.0940 N   0  0  0  0  0  0  0  0  0  0  0  0
  -31.8830  -14.4500   19.5780 O   0  0  0  0  0  0  0  0  0  0  0  0
  -30.2350  -15.3260   20.7990 N   0  0  0  0  0  0  0  0  0  0  0  0
  -29.3820  -15.1330   21.3020 H   0  0  0  0  0  0  0  0  0  0  0  0
  -25.3230  -13.8340   20.4900 C   0  0  0  0  0  0  0  0  0  0  0  0
  -24.2460  -13.0860   20.8850 C   0  0  0  0  0  0  0  0  0  0  0  0
  -24.6540  -11.7230   20.7810 C   0  0  0  0  0  0  0  0  0  0  0  0
  -26.3240  -12.9260   20.1770 N   0  0  0  0  0  0  0  0  0  0  0  0
  -25.9250  -11.6490   20.4070 N   0  0  0  0  0  0  0  0  0  0  0  0
  -23.8900  -10.4800   20.9640 C   0  0  0  0  0  0  0  0  0  0  0  0
  -24.3140   -9.4760   21.8630 C   0  0  0  0  0  3  0  0  0  0  0  0
  -23.5520   -8.3000   22.0350 C   0  0  0  0  0  3  0  0  0  0  0  0
  -22.3490   -8.1200   21.3080 C   0  0  0  0  0  0  0  0  0  0  0  0
  -21.9460   -9.1120   20.3960 C   0  0  0  0  0  3  0  0  0  0  0  0
  -22.7090  -10.2800   20.2240 C   0  0  0  0  0  3  0  0  0  0  0  0
  -21.5600   -6.9980   21.3900 O   0  0  0  0  0  0  0  0  0  0  0  0
  -21.5030   -6.2400   22.5330 C   0  0  0  0  0  0  0  0  0  0  0  0
  -21.0950   -6.7850   23.7700 C   0  0  0  0  0  3  0  0  0  0  0  0
  -20.9840   -5.9530   24.9030 C   0  0  0  0  0  3  0  0  0  0  0  0
  -21.2700   -4.5780   24.7980 C   0  0  0  0  0  0  0  0  0  0  0  0
  -21.6700   -4.0330   23.5650 C   0  0  0  0  0  3  0  0  0  0  0  0
  -21.7840   -4.8620   22.4360 C   0  0  0  0  0  0  0  0  0  0  0  0
  -22.1490   -4.3270   21.2450 F   0  0  0  0  0  0  0  0  0  0  0  0
  -21.1550   -3.7780   25.8840 F   0  0  0  0  0  0  0  0  0  0  0  0
  -22.8820  -13.6030   21.2470 C   0  0  0  0  0  0  0  0  0  0  0  0
  -22.1720  -12.9010   22.1240 N   0  0  0  0  0  0  0  0  0  0  0  0
  -22.4560  -14.6630   20.7900 O   0  0  0  0  0  0  0  0  0  0  0  0
  -22.5310  -12.0450   22.5210 H   0  0  0  0  0  0  0  0  0  0  0  0
  -21.2560  -13.2250   22.4040 H   0  0  0  0  0  0  0  0  0  0  0  0
  -25.5300  -15.2010   20.3540 N   0  0  0  0  0  0  0  0  0  0  0  0
  -24.7970  -15.8820   20.5160 H   0  0  0  0  0  0  0  0  0  0  0  0
  -26.3890  -15.6220   20.0210 H   0  0  0  0  0  0  0  0  0  0  0  0
  -28.2370  -24.2480   22.1290 C   0  0  0  0  0  2  0  0  0  0  0  0
  -28.5960  -25.6300   21.5450 C   0  0  0  0  0  2  0  0  0  0  0  0
  -28.6420  -25.6780   20.0070 C   0  0  0  0  0  2  0  0  0  0  0  0
  -28.5940  -27.0350   19.5550 O   0  0  0  0  0  0  0  0  0  0  0  0
  -24.5440  -31.6570   23.1190 C   0  0  0  0  0  0  0  0  0  0  0  0
  -27.3730  -27.6650   19.6440 C   0  0  0  0  0  0  0  0  0  0  0  0
  -23.3850  -30.3510   21.3610 C   0  0  0  0  0  3  0  0  0  0  0  0
  -24.8970  -29.0180   19.8020 C   0  0  0  0  0  0  0  0  0  0  0  0
  -25.8830  -30.8590   21.1800 C   0  0  0  0  0  2  0  0  0  0  0  0
  -26.0310  -29.5570   20.4240 C   0  0  0  0  0  0  0  0  0  0  0  0
  -27.2720  -28.8890   20.3380 C   0  0  0  0  0  3  0  0  0  0  0  0
  -26.2230  -27.1340   19.0190 C   0  0  0  0  0  3  0  0  0  0  0  0
  -24.9880  -27.8070   19.0930 C   0  0  0  0  0  3  0  0  0  0  0  0
  -23.6130  -29.8020   19.9260 C   0  0  0  0  0  2  0  0  0  0  0  0
  -24.6200  -30.9680   21.9460 N   0  0  0  0  0  0  0  0  0  0  0  0
  -23.4600  -31.8260   23.6940 O   0  0  0  0  0  0  0  0  0  0  0  0
  -22.7950  -29.2200   22.2350 C   0  0  0  0  0  0  0  0  0  0  0  0
  -21.4750  -29.0020   22.1180 N   0  0  0  0  0  0  0  0  0  0  0  0
  -23.5200  -28.5440   22.9700 O   0  0  0  0  0  0  0  0  0  0  0  0
  -20.9540  -29.6000   21.4930 H   0  0  0  0  0  0  0  0  0  0  0  0
  -18.1500  -27.6740   22.5920 C   0  0  0  0  0  0  0  0  0  0  0  0
  -20.7090  -27.9680   22.8120 C   0  0  0  0  0  3  0  0  0  0  0  0
  -20.8260  -26.6100   22.0820 C   0  0  0  0  0  2  0  0  0  0  0  0
  -19.6980  -26.3670   21.0750 C   0  0  0  0  0  2  0  0  0  0  0  0
  -18.3360  -26.4070   21.7730 C   0  0  0  0  0  2  0  0  0  0  0  0
  -19.2640  -28.4150   23.0660 C   0  0  0  0  0  0  0  0  0  0  0  0
  -19.0360  -29.6030   23.7950 C   0  0  0  0  0  3  0  0  0  0  0  0
  -17.7260  -30.0500   24.0520 C   0  0  0  0  0  3  0  0  0  0  0  0
  -16.6270  -29.3030   23.5950 C   0  0  0  0  0  3  0  0  0  0  0  0
  -16.8400  -28.1170   22.8700 C   0  0  0  0  0  3  0  0  0  0  0  0
  -25.8100  -32.2890   23.7830 C   0  0  0  0  0  3  0  0  0  0  0  0
  -26.3350  -31.4740   25.0260 C   0  0  1  0  0  0  0  0  0  0  0  0
  -25.2370  -31.1720   26.0710 C   0  0  0  0  0  1  0  0  0  0  0  0
  -26.9460  -30.1240   24.5780 C   0  0  0  0  0  1  0  0  0  0  0  0
  -27.4660  -32.2590   25.7310 C   0  0  0  0  0  1  0  0  0  0  0  0
  -25.4650  -33.6630   24.1690 N   0  0  0  0  0  0  0  0  0  0  0  0
  -25.7840  -34.7540   23.4610 C   0  0  0  0  0  0  0  0  0  0  0  0
  -26.4690  -34.7120   22.4360 O   0  0  0  0  0  0  0  0  0  0  0  0
  -24.8580  -33.7680   24.9690 H   0  0  0  0  0  0  0  0  0  0  0  0
  -24.0130  -36.5150   23.1660 C   0  0  0  0  0  1  0  0  0  0  0  0
  -25.2560  -36.1080   23.9740 C   0  0  0  0  0  3  0  0  0  0  0  0
  -27.3570  -37.0110   24.8720 C   0  0  0  0  0  1  0  0  0  0  0  0
  -26.2630  -37.1900   23.9200 N   0  0  0  0  0  0  0  0  0  0  0  0
  -25.8290  -38.0910   24.1010 H   0  0  0  0  0  0  0  0  0  0  0  0
  2  1  1  0
  3  4  1  0
  4 10  1  0
  4  1  2  0
  5 53  1  0
  5  2  2  0
  6  3  2  0
  6  5  1  0
  7  6  1  0
  8  7  1  0
  9  7  1  0
 11 10  1  0
 12 13  1  0
 12 11  1  0
 14 23  1  0
 14 13  1  0
 15 23  1  0
 16 21  1  0
 17 18  1  0
 17 16  1  0
 19 18  1  0
 19 28  1  0
 19 20  1  0
 21 15  1  0
 21 20  1  0
 22 15  2  0
 23 24  1  0
 25 26  2  0
 26 45  1  0
 27 26  1  0
 27 30  1  0
 28 29  1  0
 28 25  1  0
 29 27  2  0
 30 31  1  0
 31 32  2  0
 33 36  1  0
 33 32  1  0
 34 33  2  0
 35 34  1  0
 35 30  2  0
 36 37  1  0
 37 38  1  0
 38 39  2  0
 40 39  1  0
 40 44  1  0
 41 40  2  0
 42 37  2  0
 42 41  1  0
 43 42  1  0
 45 46  1  0
 46 49  1  0
 46 48  1  0
 47 45  2  0
 50 25  1  0
 50 51  1  0
 52 50  1  0
 54 53  1  0
 55 54  1  0
 56 58  1  0
 56 55  1  0
 57 68  2  0
 58 63  1  0
 59 67  1  0
 59 69  1  0
 60 66  1  0
 60 62  1  0
 61 67  1  0
 62 61  1  0
 63 62  2  0
 64 65  1  0
 64 58  2  0
 65 60  2  0
 66 59  1  0
 67 57  1  0
 69 71  2  0
 70 69  1  0
 72 70  1  0
 73 82  2  0
 73 78  1  0
 74 70  1  0
 74 78  1  0
 75 74  1  0
 76 77  1  0
 76 75  1  0
 77 73  1  0
 78 79  2  0
 79 80  1  0
 81 80  2  0
 82 81  1  0
 83 57  1  0
 83 88  1  0
 83 84  1  0
 84 87  1  1
 84 85  1  0
 86 84  1  0
 88 91  1  0
 89 93  1  0
 89 88  1  0
 90 89  2  0
 93 92  1  0
 95 93  1  0
 95 96  1  0
 95 94  1  0
M  ISO  4  15 100  23 100  55 101  56 101
M  END
>  <TORSDO>  (1) 
F 25

>  <SCORE>  (1) 
-10.903

>  <name>  (1) 
0

>  <ligand_id>  (1) 
0

>  <original_smiles>  (1) 
[H]c1c([H])c([H])c2c(c1[H])C([H])([H])C([H])([H])C([H])([H])C2([H])N([H])C(=O)C1([H])N(C(=O)C([H])(N([H])C(=O)C([H])(N([H])C([H])([H])[H])C([H])([H])[H])C(C([H])([H])[H])(C([H])([H])[H])C([H])([H])[H])C([H])([H])c2c([H])c(OC([H])([H])C([H])([H])C([H])([H])c3c([H])c([H])c(C([H])([H])C([H])([H])C([H])([H])C([H])([H])C([H])([H])N([H])C(=O)N4C([H])([H])C([H])([H])C([H])([H])C([H])(n5nc(-c6c([H])c([H])c(Oc7c([H])c([H])c(F)c([H])c7F)c([H])c6[H])c(C(=O)N([H])[H])c5N([H])[H])C4([H])[H])c([H])c3N([H])[H])c([H])c([H])c2C1([H])[H]

>  <smiles>  (1) 
[H]c1c([H])c([H])c2c(c1[H])C([H])([H])C([H])([H])C([H])([H])C2([H])N([H])C(=O)C1([H])N(C(=O)C([H])(N([H])C(=O)C([H])(N([H])C([H])([H])[H])C([H])([H])[H])C(C([H])([H])[H])(C([H])([H])[H])C([H])([H])[H])C([H])([H])c2c([H])c(OC([H])([H])C([H])([H])C([H])([H])c3c([H])c([H])c(C([H])([H])C([H])([H])C([H])([H])C([H])([H])C([H])([H])N([H])C(=O)N4C([H])([H])C([H])([H])C([H])([H])C([H])(n5nc(-c6c([H])c([H])c(Oc7c([H])c([H])c(F)c([H])c7F)c([H])c6[H])c(C(=O)N([H])[H])c5N([H])[H])C4([H])[H])c([H])c3N([H])[H])c([H])c([H])c2C1([H])[H]

$$$$
1:0:0
     RDKit          3D

103112  0  0  1  0  0  0  0  0999 V2000
  -29.2110  -22.8860   18.6100 C   0  0  0  0  0  3  0  0  0  0  0  0
  -28.6570  -24.1580   18.8790 C   0  0  0  0  0  3  0  0  0  0  0  0
  -31.3370  -23.9390   18.1510 C   0  0  0  0  0  0  0  0  0  0  0  0
  -30.8020  -25.2040   18.4150 C   0  0  0  0  0  0  0  0  0  0  0  0
  -30.5580  -22.7690   18.2160 C   0  0  0  0  0  0  0  0  0  0  0  0
  -29.4310  -25.3370   18.7660 C   0  0  0  0  0  0  0  0  0  0  0  0
  -32.7820  -24.0040   17.7490 C   0  0  0  0  0  3  0  0  0  0  0  0
  -33.1590  -25.4810   17.9250 C   0  0  0  0  0  3  0  0  0  0  0  0
  -31.8630  -26.2890   18.2260 C   0  0  1  0  0  0  0  0  0  0  0  0
  -31.5410  -27.1900   17.0170 C   0  0  0  0  0  1  0  0  0  0  0  0
  -32.1010  -27.1160   19.5060 C   0  0  0  0  0  1  0  0  0  0  0  0
  -28.7140  -26.6730   18.9290 C   0  0  0  0  0  2  0  0  0  0  0  0
  -28.1980  -26.8660   20.2430 O   0  0  0  0  0  0  0  0  0  0  0  0
  -24.5080  -32.0590   23.4120 C   0  0  0  0  0  0  0  0  0  0  0  0
  -27.0350  -27.5910   20.2980 C   0  0  0  0  0  0  0  0  0  0  0  0
  -23.2480  -30.6610   21.8050 C   0  0  0  0  0  3  0  0  0  0  0  0
  -24.6540  -29.0960   20.3650 C   0  0  0  0  0  0  0  0  0  0  0  0
  -25.7710  -30.9920   21.5530 C   0  0  0  0  0  2  0  0  0  0  0  0
  -25.8270  -29.6150   20.9280 C   0  0  0  0  0  0  0  0  0  0  0  0
  -27.0200  -28.8630   20.9070 C   0  0  0  0  0  3  0  0  0  0  0  0
  -25.8450  -27.0710   19.7470 C   0  0  0  0  0  3  0  0  0  0  0  0
  -24.6550  -27.8190   19.7760 C   0  0  0  0  0  3  0  0  0  0  0  0
  -23.4220  -29.9670   20.4270 C   0  0  0  0  0  2  0  0  0  0  0  0
  -24.5290  -31.2520   22.3150 N   0  0  0  0  0  0  0  0  0  0  0  0
  -23.4430  -32.3490   23.9730 O   0  0  0  0  0  0  0  0  0  0  0  0
  -22.6060  -29.6550   22.7860 C   0  0  0  0  0  0  0  0  0  0  0  0
  -21.3040  -29.3840   22.5970 N   0  0  0  0  0  0  0  0  0  0  0  0
  -23.2770  -29.1180   23.6720 O   0  0  0  0  0  0  0  0  0  0  0  0
  -20.8250  -29.8730   21.8540 H   0  0  0  0  0  0  0  0  0  0  0  0
  -18.0200  -27.9050   22.8740 C   0  0  0  0  0  0  0  0  0  0  0  0
  -20.4990  -28.4420   23.3720 C   0  0  0  0  0  3  0  0  0  0  0  0
  -20.7930  -26.9830   22.9550 C   0  0  0  0  0  2  0  0  0  0  0  0
  -19.8430  -26.4610   21.8730 C   0  0  0  0  0  2  0  0  0  0  0  0
  -18.3920  -26.5240   22.3590 C   0  0  0  0  0  2  0  0  0  0  0  0
  -19.0120  -28.8110   23.3350 C   0  0  0  0  0  0  0  0  0  0  0  0
  -18.6160  -30.0950   23.7690 C   0  0  0  0  0  3  0  0  0  0  0  0
  -17.2620  -30.4760   23.7510 C   0  0  0  0  0  3  0  0  0  0  0  0
  -16.2830  -29.5690   23.3090 C   0  0  0  0  0  3  0  0  0  0  0  0
  -16.6620  -28.2860   22.8770 C   0  0  0  0  0  3  0  0  0  0  0  0
  -25.8170  -32.6740   24.0010 C   0  0  0  0  0  3  0  0  0  0  0  0
  -26.3240  -31.9340   25.3000 C   0  0  1  0  0  0  0  0  0  0  0  0
  -25.2260  -31.7360   26.3690 C   0  0  0  0  0  1  0  0  0  0  0  0
  -26.8960  -30.5420   24.9450 C   0  0  0  0  0  1  0  0  0  0  0  0
  -27.4800  -32.7370   25.9420 C   0  0  0  0  0  1  0  0  0  0  0  0
  -25.5540  -34.0920   24.2780 N   0  0  0  0  0  0  0  0  0  0  0  0
  -25.9410  -35.1050   23.4920 C   0  0  0  0  0  0  0  0  0  0  0  0
  -26.6310  -34.9420   22.4810 O   0  0  0  0  0  0  0  0  0  0  0  0
  -24.9470  -34.2960   25.0600 H   0  0  0  0  0  0  0  0  0  0  0  0
  -24.2790  -36.9360   23.0410 C   0  0  0  0  0  1  0  0  0  0  0  0
  -25.4930  -36.5240   23.8890 C   0  0  0  0  0  3  0  0  0  0  0  0
  -27.6470  -37.3620   24.7170 C   0  0  0  0  0  1  0  0  0  0  0  0
  -26.5610  -37.5380   23.7550 N   0  0  0  0  0  0  0  0  0  0  0  0
  -26.1850  -38.4750   23.8710 H   0  0  0  0  0  0  0  0  0  0  0  0
  -31.1340  -21.4170   17.8280 C   0  0  0  0  0  2  0  0  0  0  0  0
  -31.2020  -21.2480   16.2970 C   0  0  0  0  0  2  0  0  0  0  0  0
  -31.9300  -19.9670   15.8860 C   0  0  0  0  0  0  0  0  0  0  0  0
  -31.2600  -19.1210   15.0950 N   0  0  0  0  0  0  0  0  0  0  0  0
  -33.0660  -19.7270   16.3040 O   0  0  0  0  0  0  0  0  0  0  0  0
  -30.3640  -19.4270   14.7390 H   0  0  0  0  0  0  0  0  0  0  0  0
  -31.6110  -17.7220   14.8660 C   0  0  0  0  0  2  0  0  0  0  0  0
  -31.5580  -16.9230   16.1770 C   0  0  0  0  0  2  0  0  0  0  0  0
  -30.3370  -17.2520   17.0580 C   0  0  0  0  0  2  0  0  0  0  0  0
  -30.4720  -16.5990   18.4300 C   0  0  0  0  0  2  0  0  0  0  0  0
  -31.4380  -17.3010   19.4100 C   0  0  0  0  0  2  0  0  0  0  0  0
  -32.5120  -16.4040   20.0710 C   0  0  0  0  0  2  0  0  0  0  0  0
  -32.5740  -13.9360   20.2860 C   0  0  0  0  0  0  0  0  0  0  0  0
  -31.8260  -12.0100   18.9760 C   0  0  0  0  0  2  0  0  0  0  0  0
  -30.9470  -12.5560   17.8310 C   0  0  0  0  0  2  0  0  0  0  0  0
  -29.4830  -12.7510   18.2850 C   0  0  0  0  0  2  0  0  0  0  0  0
  -29.3380  -13.4350   19.6740 C   0  0  0  0  0  3  0  0  0  0  0  0
  -30.3410  -12.8750   20.7050 C   0  0  0  0  0  2  0  0  0  0  0  0
  -31.6870  -12.9280   20.1120 N   0  0  0  0  0  0  0  0  0  0  0  0
  -33.7600  -13.8740   19.9560 O   0  0  0  0  0  0  0  0  0  0  0  0
  -31.9830  -15.1170   20.5190 N   0  0  0  0  0  0  0  0  0  0  0  0
  -30.9980  -15.0810   20.7420 H   0  0  0  0  0  0  0  0  0  0  0  0
  -27.1060  -14.4390   20.4610 C   0  0  0  0  0  0  0  0  0  0  0  0
  -25.9110  -13.8570   20.7870 C   0  0  0  0  0  0  0  0  0  0  0  0
  -26.1130  -12.4510   20.6640 C   0  0  0  0  0  0  0  0  0  0  0  0
  -27.9640  -13.3930   20.1570 N   0  0  0  0  0  0  0  0  0  0  0  0
  -27.3720  -12.1900   20.3410 N   0  0  0  0  0  0  0  0  0  0  0  0
  -25.1700  -11.3330   20.7770 C   0  0  0  0  0  0  0  0  0  0  0  0
  -25.4390  -10.2350   21.6200 C   0  0  0  0  0  3  0  0  0  0  0  0
  -24.5120   -9.1780   21.7320 C   0  0  0  0  0  3  0  0  0  0  0  0
  -23.3020   -9.2160   20.9980 C   0  0  0  0  0  0  0  0  0  0  0  0
  -23.0480  -10.3060   20.1430 C   0  0  0  0  0  3  0  0  0  0  0  0
  -23.9750  -11.3540   20.0300 C   0  0  0  0  0  3  0  0  0  0  0  0
  -22.3530   -8.2230   21.0260 O   0  0  0  0  0  0  0  0  0  0  0  0
  -22.1560   -7.4440   22.1400 C   0  0  0  0  0  0  0  0  0  0  0  0
  -21.8520   -8.0050   23.3980 C   0  0  0  0  0  3  0  0  0  0  0  0
  -21.5750   -7.1630   24.4950 C   0  0  0  0  0  3  0  0  0  0  0  0
  -21.6070   -5.7630   24.3360 C   0  0  0  0  0  0  0  0  0  0  0  0
  -21.9100   -5.2050   23.0830 C   0  0  0  0  0  3  0  0  0  0  0  0
  -22.1780   -6.0430   21.9860 C   0  0  0  0  0  0  0  0  0  0  0  0
  -22.4440   -5.5000   20.7740 F   0  0  0  0  0  0  0  0  0  0  0  0
  -21.3390   -4.9560   25.3870 F   0  0  0  0  0  0  0  0  0  0  0  0
  -24.6280  -14.5710   21.1120 C   0  0  0  0  0  0  0  0  0  0  0  0
  -23.7960  -13.9750   21.9590 N   0  0  0  0  0  0  0  0  0  0  0  0
  -24.3800  -15.6810   20.6480 O   0  0  0  0  0  0  0  0  0  0  0  0
  -24.0180  -13.0690   22.3420 H   0  0  0  0  0  0  0  0  0  0  0  0
  -22.9310  -14.4250   22.2290 H   0  0  0  0  0  0  0  0  0  0  0  0
  -27.5270  -15.7610   20.3820 N   0  0  0  0  0  0  0  0  0  0  0  0
  -26.9130  -16.5470   20.5670 H   0  0  0  0  0  0  0  0  0  0  0  0
  -28.4590  -16.0430   20.1230 H   0  0  0  0  0  0  0  0  0  0  0  0
  1  2  1  0
  3  5  1  0
  3  4  2  0
  4  6  1  0
  5  1  2  0
  6  2  2  0
  6 12  1  0
  7  8  2  0
  7  3  1  0
  8  9  1  0
  9  4  1  0
  9 11  1  1
 10  9  1  0
 12 13  1  0
 13 15  1  0
 14 25  2  0
 15 20  1  0
 16 24  1  0
 16 26  1  0
 17 23  1  0
 17 19  1  0
 18 24  1  0
 19 18  1  0
 20 19  2  0
 21 22  1  0
 21 15  2  0
 22 17  2  0
 23 16  1  0
 24 14  1  0
 26 28  2  0
 27 26  1  0
 29 27  1  0
 30 39  2  0
 30 35  1  0
 31 27  1  0
 32 31  1  0
 33 34  1  0
 33 32  1  0
 34 30  1  0
 35 31  1  0
 35 36  2  0
 37 36  1  0
 38 37  2  0
 39 38  1  0
 40 14  1  0
 40 45  1  0
 40 41  1  0
 41 44  1  1
 41 42  1  0
 43 41  1  0
 45 48  1  0
 46 50  1  0
 46 45  1  0
 47 46  2  0
 50 49  1  0
 52 53  1  0
 52 50  1  0
 52 51  1  0
 54  5  1  0
 55 54  1  0
 56 55  1  0
 56 58  2  0
 57 56  1  0
 59 57  1  0
 60 57  1  0
 60 61  1  0
 61 62  1  0
 62 63  1  0
 63 64  1  0
 64 65  1  0
 65 74  1  0
 66 74  1  0
 67 72  1  0
 68 69  1  0
 68 67  1  0
 70 69  1  0
 70 79  1  0
 70 71  1  0
 72 66  1  0
 72 71  1  0
 73 66  2  0
 74 75  1  0
 76 77  2  0
 77 96  1  0
 78 81  1  0
 78 77  1  0
 79 80  1  0
 79 76  1  0
 80 78  2  0
 81 82  1  0
 82 83  2  0
 84 87  1  0
 84 83  1  0
 85 84  2  0
 86 85  1  0
 86 81  2  0
 87 88  1  0
 88 89  1  0
 89 90  2  0
 91 90  1  0
 91 95  1  0
 92 91  2  0
 93 88  2  0
 93 92  1  0
 94 93  1  0
 96 97  1  0
 97100  1  0
 97 99  1  0
 98 96  2  0
101 76  1  0
101102  1  0
103101  1  0
M  ISO  4  12 101  13 101  66 100  74 100
M  END
>  <TORSDO>  (2) 
F 26

>  <SCORE>  (2) 
-9.285

>  <name>  (2) 
1

>  <ligand_id>  (2) 
1

>  <original_smiles>  (2) 
[H]c1c([H])c([H])c2c(c1[H])C([H])([H])C([H])([H])C([H])([H])C2([H])N([H])C(=O)C1([H])N(C(=O)C([H])(N([H])C(=O)C([H])(N([H])C([H])([H])[H])C([H])([H])[H])C(C([H])([H])[H])(C([H])([H])[H])C([H])([H])[H])C([H])([H])c2c([H])c(OC([H])([H])c3c([H])c([H])c(C([H])([H])C([H])([H])C(=O)N([H])C([H])([H])C([H])([H])C([H])([H])C([H])([H])C([H])([H])C([H])([H])N([H])C(=O)N4C([H])([H])C([H])([H])C([H])([H])C([H])(n5nc(-c6c([H])c([H])c(Oc7c([H])c([H])c(F)c([H])c7F)c([H])c6[H])c(C(=O)N([H])[H])c5N([H])[H])C4([H])[H])c4c3C(C([H])([H])[H])(C([H])([H])[H])C([H])([H])C4([H])[H])c([H])c([H])c2C1([H])[H]

>  <smiles>  (2) 
[H]c1c([H])c([H])c2c(c1[H])C([H])([H])C([H])([H])C([H])([H])C2([H])N([H])C(=O)C1([H])N(C(=O)C([H])(N([H])C(=O)C([H])(N([H])C([H])([H])[H])C([H])([H])[H])C(C([H])([H])[H])(C([H])([H])[H])C([H])([H])[H])C([H])([H])c2c([H])c(OC([H])([H])c3c([H])c([H])c(C([H])([H])C([H])([H])C(=O)N([H])C([H])([H])C([H])([H])C([H])([H])C([H])([H])C([H])([H])C([H])([H])N([H])C(=O)N4C([H])([H])C([H])([H])C([H])([H])C([H])(n5nc(-c6c([H])c([H])c(Oc7c([H])c([H])c(F)c([H])c7F)c([H])c6[H])c(C(=O)N([H])[H])c5N([H])[H])C4([H])[H])c4c3C(C([H])([H])[H])(C([H])([H])[H])C([H])([H])C4([H])[H])c([H])c([H])c2C1([H])[H]

$$$$
2:0:0
     RDKit          3D

 92100  0  0  1  0  0  0  0  0999 V2000
  -25.6420  -21.9780   19.6030 C   0  0  0  0  0  3  0  0  0  0  0  0
  -26.3560  -20.7880   19.3760 C   0  0  0  0  0  3  0  0  0  0  0  0
  -26.3120  -23.2130   19.5780 C   0  0  0  0  0  3  0  0  0  0  0  0
  -28.4220  -22.0720   19.1330 C   0  0  0  0  0  3  0  0  0  0  0  0
  -27.7480  -20.8260   19.1540 C   0  0  0  0  0  0  0  0  0  0  0  0
  -27.7030  -23.2760   19.3320 C   0  0  0  0  0  0  0  0  0  0  0  0
  -28.4420  -19.5540   18.8340 C   0  0  0  0  0  0  0  0  0  0  0  0
  -28.0980  -18.8400   17.8870 O   0  0  0  0  0  0  0  0  0  0  0  0
  -29.5510  -19.0830   19.7820 C   0  0  0  0  0  2  0  0  0  0  0  0
  -29.4040  -17.5830   20.1260 C   0  0  0  0  0  2  0  0  0  0  0  0
  -30.4460  -17.0420   21.1220 C   0  0  0  0  0  2  0  0  0  0  0  0
  -30.9560  -14.6740   20.5340 C   0  0  0  0  0  0  0  0  0  0  0  0
  -30.6780  -12.5450   19.3300 C   0  0  0  0  0  2  0  0  0  0  0  0
  -29.7530  -12.7800   18.1160 C   0  0  0  0  0  2  0  0  0  0  0  0
  -28.2690  -12.6560   18.5160 C   0  0  0  0  0  2  0  0  0  0  0  0
  -27.9230  -13.4750   19.7900 C   0  0  0  0  0  3  0  0  0  0  0  0
  -28.9530  -13.1940   20.9070 C   0  0  0  0  0  2  0  0  0  0  0  0
  -30.2970  -13.4970   20.3800 N   0  0  0  0  0  0  0  0  0  0  0  0
  -32.0280  -14.9350   19.9750 O   0  0  0  0  0  0  0  0  0  0  0  0
  -30.2870  -15.5950   21.2420 N   0  0  0  0  0  0  0  0  0  0  0  0
  -29.4650  -15.2640   21.7260 H   0  0  0  0  0  0  0  0  0  0  0  0
  -25.5100  -14.1020   20.4360 C   0  0  0  0  0  0  0  0  0  0  0  0
  -24.4300  -13.3380   20.7890 C   0  0  0  0  0  0  0  0  0  0  0  0
  -24.8850  -11.9850   20.7770 C   0  0  0  0  0  0  0  0  0  0  0  0
  -26.5550  -13.2140   20.2350 N   0  0  0  0  0  0  0  0  0  0  0  0
  -26.1790  -11.9350   20.4880 N   0  0  0  0  0  0  0  0  0  0  0  0
  -24.1480  -10.7280   20.9630 C   0  0  0  0  0  0  0  0  0  0  0  0
  -24.5330   -9.7850   21.9400 C   0  0  0  0  0  3  0  0  0  0  0  0
  -23.8010   -8.5910   22.1080 C   0  0  0  0  0  3  0  0  0  0  0  0
  -22.6700   -8.3300   21.2990 C   0  0  0  0  0  0  0  0  0  0  0  0
  -22.3070   -9.2620   20.3100 C   0  0  0  0  0  3  0  0  0  0  0  0
  -23.0400  -10.4490   20.1410 C   0  0  0  0  0  3  0  0  0  0  0  0
  -21.9120   -7.1870   21.3740 O   0  0  0  0  0  0  0  0  0  0  0  0
  -21.7660   -6.4980   22.5510 C   0  0  0  0  0  0  0  0  0  0  0  0
  -21.1980   -7.0930   23.6990 C   0  0  0  0  0  3  0  0  0  0  0  0
  -21.0080   -6.3280   24.8670 C   0  0  0  0  0  3  0  0  0  0  0  0
  -21.3740   -4.9680   24.8870 C   0  0  0  0  0  0  0  0  0  0  0  0
  -21.9340   -4.3720   23.7430 C   0  0  0  0  0  3  0  0  0  0  0  0
  -22.1290   -5.1360   22.5790 C   0  0  0  0  0  0  0  0  0  0  0  0
  -22.6510   -4.5520   21.4730 F   0  0  0  0  0  0  0  0  0  0  0  0
  -21.1830   -4.2320   26.0060 F   0  0  0  0  0  0  0  0  0  0  0  0
  -23.0300  -13.8250   21.0340 C   0  0  0  0  0  0  0  0  0  0  0  0
  -22.2870  -13.1450   21.8980 N   0  0  0  0  0  0  0  0  0  0  0  0
  -22.6030  -14.8440   20.4920 O   0  0  0  0  0  0  0  0  0  0  0  0
  -22.6480  -12.3230   22.3630 H   0  0  0  0  0  0  0  0  0  0  0  0
  -21.3460  -13.4480   22.1010 H   0  0  0  0  0  0  0  0  0  0  0  0
  -25.6870  -15.4680   20.2550 N   0  0  0  0  0  0  0  0  0  0  0  0
  -24.9200  -16.1260   20.3460 H   0  0  0  0  0  0  0  0  0  0  0  0
  -26.5440  -15.9000   19.9330 H   0  0  0  0  0  0  0  0  0  0  0  0
  -28.3800  -24.6400   19.2100 C   0  0  0  0  0  2  0  0  0  0  0  0
  -28.2680  -25.5110   20.4810 C   0  0  0  0  0  2  0  0  0  0  0  0
  -28.4060  -26.9150   20.2090 O   0  0  0  0  0  0  0  0  0  0  0  0
  -24.5380  -31.9920   23.3450 C   0  0  0  0  0  0  0  0  0  0  0  0
  -27.2300  -27.6350   20.1990 C   0  0  0  0  0  0  0  0  0  0  0  0
  -23.3440  -30.5980   21.6890 C   0  0  0  0  0  3  0  0  0  0  0  0
  -24.8140  -29.1050   20.2390 C   0  0  0  0  0  0  0  0  0  0  0  0
  -25.8650  -30.9960   21.4870 C   0  0  0  0  0  2  0  0  0  0  0  0
  -25.9680  -29.6380   20.8260 C   0  0  0  0  0  0  0  0  0  0  0  0
  -27.1800  -28.9120   20.8020 C   0  0  0  0  0  3  0  0  0  0  0  0
  -26.0570  -27.1200   19.6020 C   0  0  0  0  0  3  0  0  0  0  0  0
  -24.8530  -27.8420   19.6250 C   0  0  0  0  0  3  0  0  0  0  0  0
  -23.5580  -29.9410   20.2990 C   0  0  0  0  0  2  0  0  0  0  0  0
  -24.6000  -31.2070   22.2330 N   0  0  0  0  0  0  0  0  0  0  0  0
  -23.4550  -32.2430   23.8920 O   0  0  0  0  0  0  0  0  0  0  0  0
  -22.7100  -29.5520   22.6340 C   0  0  0  0  0  0  0  0  0  0  0  0
  -21.3920  -29.3370   22.4910 N   0  0  0  0  0  0  0  0  0  0  0  0
  -23.3990  -28.9390   23.4530 O   0  0  0  0  0  0  0  0  0  0  0  0
  -20.8940  -29.8830   21.8020 H   0  0  0  0  0  0  0  0  0  0  0  0
  -18.0450  -28.0620   22.9440 C   0  0  0  0  0  0  0  0  0  0  0  0
  -20.5920  -28.3740   23.2470 C   0  0  0  0  0  3  0  0  0  0  0  0
  -20.7340  -26.9490   22.6630 C   0  0  0  0  0  2  0  0  0  0  0  0
  -19.6500  -26.6080   21.6350 C   0  0  0  0  0  2  0  0  0  0  0  0
  -18.2590  -26.7190   22.2640 C   0  0  0  0  0  2  0  0  0  0  0  0
  -19.1400  -28.8440   23.3920 C   0  0  0  0  0  0  0  0  0  0  0  0
  -18.8870  -30.1000   23.9850 C   0  0  0  0  0  3  0  0  0  0  0  0
  -17.5700  -30.5740   24.1360 C   0  0  0  0  0  3  0  0  0  0  0  0
  -16.4870  -29.7860   23.7070 C   0  0  0  0  0  3  0  0  0  0  0  0
  -16.7260  -28.5310   23.1180 C   0  0  0  0  0  3  0  0  0  0  0  0
  -25.8180  -32.6310   23.9670 C   0  0  0  0  0  3  0  0  0  0  0  0
  -25.5130  -34.0390   24.2540 N   0  0  0  0  0  0  0  0  0  0  0  0
  -25.8780  -35.0690   23.4780 C   0  0  0  0  0  0  0  0  0  0  0  0
  -26.5780  -34.9320   22.4700 O   0  0  0  0  0  0  0  0  0  0  0  0
  -24.8930  -34.2190   25.0310 H   0  0  0  0  0  0  0  0  0  0  0  0
  -24.1930  -36.8740   23.0100 C   0  0  0  0  0  1  0  0  0  0  0  0
  -25.3900  -36.4720   23.8860 C   0  0  0  0  0  3  0  0  0  0  0  0
  -27.4940  -37.3510   24.7980 C   0  0  0  0  0  1  0  0  0  0  0  0
  -26.4410  -37.5080   23.7980 N   0  0  0  0  0  0  0  0  0  0  0  0
  -26.0410  -38.4360   23.9040 H   0  0  0  0  0  0  0  0  0  0  0  0
  -26.3140  -31.8900   25.2670 C   0  0  1  0  0  0  0  0  0  0  0  0
  -25.2040  -31.6720   26.3210 C   0  0  0  0  0  1  0  0  0  0  0  0
  -26.9050  -30.5040   24.9120 C   0  0  0  0  0  1  0  0  0  0  0  0
  -27.4530  -32.6990   25.9300 C   0  0  0  0  0  1  0  0  0  0  0  0
  2  1  2  0
  3  1  1  0
  4  5  2  0
  4  6  1  0
  5  2  1  0
  6  3  2  0
  7  5  1  0
  7  9  1  0
  8  7  2  0
  9 10  1  0
 10 11  1  0
 11 20  1  0
 12 20  1  0
 13 18  1  0
 14 15  1  0
 14 13  1  0
 16 15  1  0
 16 25  1  0
 16 17  1  0
 18 12  1  0
 18 17  1  0
 19 12  2  0
 20 21  1  0
 22 23  2  0
 23 42  1  0
 24 23  1  0
 24 27  1  0
 25 22  1  0
 25 26  1  0
 26 24  2  0
 27 28  1  0
 28 29  2  0
 30 33  1  0
 30 29  1  0
 31 30  2  0
 32 31  1  0
 32 27  2  0
 33 34  1  0
 34 39  2  0
 34 35  1  0
 35 36  2  0
 36 37  1  0
 37 41  1  0
 38 37  2  0
 39 38  1  0
 40 39  1  0
 42 43  1  0
 43 46  1  0
 43 45  1  0
 44 42  2  0
 47 48  1  0
 47 22  1  0
 49 47  1  0
 50  6  1  0
 50 51  1  0
 52 51  1  0
 53 64  2  0
 54 52  1  0
 54 59  1  0
 55 63  1  0
 55 65  1  0
 56 62  1  0
 56 58  1  0
 57 63  1  0
 58 57  1  0
 59 58  2  0
 60 61  1  0
 60 54  2  0
 61 56  2  0
 62 55  1  0
 63 53  1  0
 65 67  2  0
 66 65  1  0
 68 66  1  0
 69 78  2  0
 69 74  1  0
 70 66  1  0
 70 74  1  0
 71 70  1  0
 72 73  1  0
 72 71  1  0
 73 69  1  0
 74 75  2  0
 75 76  1  0
 77 76  2  0
 78 77  1  0
 79 53  1  0
 79 80  1  0
 79 89  1  0
 80 83  1  0
 81 85  1  0
 81 80  1  0
 82 81  2  0
 85 84  1  0
 87 85  1  0
 87 88  1  0
 87 86  1  0
 89 92  1  1
 89 90  1  0
 91 89  1  0
M  ISO  4  12 100  20 100  51 101  52 101
M  END
>  <TORSDO>  (3) 
F 22

>  <SCORE>  (3) 
-12.140

>  <name>  (3) 
2

>  <ligand_id>  (3) 
2

>  <original_smiles>  (3) 
[H]c1c([H])c(C(=O)C([H])([H])C([H])([H])C([H])([H])N([H])C(=O)N2C([H])([H])C([H])([H])C([H])([H])C([H])(n3nc(-c4c([H])c([H])c(Oc5c([H])c([H])c(F)c([H])c5F)c([H])c4[H])c(C(=O)N([H])[H])c3N([H])[H])C2([H])[H])c([H])c(C([H])([H])C([H])([H])Oc2c([H])c([H])c3c(c2[H])C([H])([H])N(C(=O)C([H])(N([H])C(=O)C([H])(N([H])C([H])([H])[H])C([H])([H])[H])C(C([H])([H])[H])(C([H])([H])[H])C([H])([H])[H])C([H])(C(=O)N([H])C2([H])c4c([H])c([H])c([H])c([H])c4C([H])([H])C([H])([H])C2([H])[H])C3([H])[H])c1[H]

>  <smiles>  (3) 
[H]c1c([H])c(C(=O)C([H])([H])C([H])([H])C([H])([H])N([H])C(=O)N2C([H])([H])C([H])([H])C([H])([H])C([H])(n3nc(-c4c([H])c([H])c(Oc5c([H])c([H])c(F)c([H])c5F)c([H])c4[H])c(C(=O)N([H])[H])c3N([H])[H])C2([H])[H])c([H])c(C([H])([H])C([H])([H])Oc2c([H])c([H])c3c(c2[H])C([H])([H])N(C(=O)C([H])(N([H])C(=O)C([H])(N([H])C([H])([H])[H])C([H])([H])[H])C(C([H])([H])[H])(C([H])([H])[H])C([H])([H])[H])C([H])(C(=O)N([H])C2([H])c4c([H])c([H])c([H])c([H])c4C([H])([H])C([H])([H])C2([H])[H])C3([H])[H])c1[H]

$$$$
3:0:0
     RDKit          3D

102110  0  0  1  0  0  0  0  0999 V2000
  -29.0730  -20.8630   17.4660 C   0  0  0  0  0  3  0  0  0  0  0  0
  -30.3630  -21.2570   17.0660 C   0  0  0  0  0  3  0  0  0  0  0  0
  -28.8730  -22.8960   18.7730 C   0  0  0  0  0  3  0  0  0  0  0  0
  -30.1630  -23.3110   18.3760 C   0  0  0  0  0  0  0  0  0  0  0  0
  -28.3120  -21.6790   18.3320 C   0  0  0  0  0  0  0  0  0  0  0  0
  -30.9180  -22.4750   17.5090 C   0  0  0  0  0  0  0  0  0  0  0  0
  -32.3170  -22.8410   17.0320 C   0  0  0  0  0  1  0  0  0  0  0  0
  -30.6600  -24.6570   18.8340 C   0  0  0  0  0  0  0  0  0  0  0  0
  -30.5180  -24.9050   20.1410 N   0  0  0  0  0  0  0  0  0  0  0  0
  -31.1530  -25.4620   18.0400 O   0  0  0  0  0  0  0  0  0  0  0  0
  -30.1380  -24.1640   20.7140 H   0  0  0  0  0  0  0  0  0  0  0  0
  -30.7600  -26.1970   20.7780 C   0  0  0  0  0  2  0  0  0  0  0  0
  -29.4440  -26.8870   21.1810 C   0  0  0  0  0  2  0  0  0  0  0  0
  -28.4600  -26.7190   20.1580 O   0  0  0  0  0  0  0  0  0  0  0  0
  -24.5470  -31.8530   23.2460 C   0  0  0  0  0  0  0  0  0  0  0  0
  -27.3010  -27.4600   20.2270 C   0  0  0  0  0  0  0  0  0  0  0  0
  -23.3750  -30.4400   21.5820 C   0  0  0  0  0  3  0  0  0  0  0  0
  -24.8660  -28.9040   20.1930 C   0  0  0  0  0  0  0  0  0  0  0  0
  -25.8920  -30.8260   21.4210 C   0  0  0  0  0  2  0  0  0  0  0  0
  -26.0000  -29.4510   20.8030 C   0  0  0  0  0  0  0  0  0  0  0  0
  -27.2120  -28.7360   20.8310 C   0  0  0  0  0  3  0  0  0  0  0  0
  -26.1500  -26.9210   19.6120 C   0  0  0  0  0  3  0  0  0  0  0  0
  -24.9310  -27.6310   19.5980 C   0  0  0  0  0  3  0  0  0  0  0  0
  -23.6120  -29.7490   20.2100 C   0  0  0  0  0  2  0  0  0  0  0  0
  -24.6210  -31.0540   22.1430 N   0  0  0  0  0  0  0  0  0  0  0  0
  -23.4560  -32.1210   23.7690 O   0  0  0  0  0  0  0  0  0  0  0  0
  -22.7130  -29.4200   22.5350 C   0  0  0  0  0  0  0  0  0  0  0  0
  -21.3930  -29.2320   22.3820 N   0  0  0  0  0  0  0  0  0  0  0  0
  -23.3850  -28.7990   23.3620 O   0  0  0  0  0  0  0  0  0  0  0  0
  -20.9130  -29.7870   21.6870 H   0  0  0  0  0  0  0  0  0  0  0  0
  -18.0100  -28.0570   22.8420 C   0  0  0  0  0  0  0  0  0  0  0  0
  -20.5660  -28.2930   23.1390 C   0  0  0  0  0  3  0  0  0  0  0  0
  -20.6640  -26.8680   22.5500 C   0  0  0  0  0  2  0  0  0  0  0  0
  -19.5670  -26.5610   21.5230 C   0  0  0  0  0  2  0  0  0  0  0  0
  -18.1810  -26.7120   22.1570 C   0  0  0  0  0  2  0  0  0  0  0  0
  -19.1300  -28.8070   23.2880 C   0  0  0  0  0  0  0  0  0  0  0  0
  -18.9170  -30.0670   23.8880 C   0  0  0  0  0  3  0  0  0  0  0  0
  -17.6150  -30.5780   24.0450 C   0  0  0  0  0  3  0  0  0  0  0  0
  -16.5080  -29.8260   23.6160 C   0  0  0  0  0  3  0  0  0  0  0  0
  -16.7060  -28.5680   23.0200 C   0  0  0  0  0  3  0  0  0  0  0  0
  -25.8220  -32.4870   23.8860 C   0  0  0  0  0  3  0  0  0  0  0  0
  -26.3120  -31.7290   25.1810 C   0  0  1  0  0  0  0  0  0  0  0  0
  -25.1940  -31.4940   26.2240 C   0  0  0  0  0  1  0  0  0  0  0  0
  -26.9110  -30.3510   24.8100 C   0  0  0  0  0  1  0  0  0  0  0  0
  -27.4410  -32.5340   25.8640 C   0  0  0  0  0  1  0  0  0  0  0  0
  -25.5120  -33.8910   24.1890 N   0  0  0  0  0  0  0  0  0  0  0  0
  -25.8640  -34.9290   23.4190 C   0  0  0  0  0  0  0  0  0  0  0  0
  -26.5550  -34.8070   22.4040 O   0  0  0  0  0  0  0  0  0  0  0  0
  -24.9030  -34.0600   24.9760 H   0  0  0  0  0  0  0  0  0  0  0  0
  -24.1590  -36.7260   22.9840 C   0  0  0  0  0  1  0  0  0  0  0  0
  -25.3710  -36.3260   23.8420 C   0  0  0  0  0  3  0  0  0  0  0  0
  -27.4750  -37.2150   24.7410 C   0  0  0  0  0  1  0  0  0  0  0  0
  -26.4140  -37.3700   23.7500 N   0  0  0  0  0  0  0  0  0  0  0  0
  -26.0080  -38.2960   23.8610 H   0  0  0  0  0  0  0  0  0  0  0  0
  -26.8800  -21.3700   18.7740 C   0  0  0  0  0  2  0  0  0  0  0  0
  -26.3420  -19.9150   18.7500 C   0  0  0  0  0  3  0  0  0  0  0  0
  -26.2310  -19.3390   17.3950 N   0  0  0  0  0  4  0  0  0  0  0  0
  -25.8090  -18.4280   17.4300 H   0  0  0  0  0  0  0  0  0  0  0  0
  -27.1260  -19.2620   16.9480 H   0  0  0  0  0  0  0  0  0  0  0  0
  -25.6440  -19.9210   16.8220 H   0  0  0  0  0  0  0  0  0  0  0  0
  -26.9500  -18.9420   19.7920 C   0  0  0  0  0  2  0  0  0  0  0  0
  -28.4240  -18.5230   19.6180 C   0  0  0  0  0  2  0  0  0  0  0  0
  -28.7570  -17.3230   20.5200 C   0  0  0  0  0  2  0  0  0  0  0  0
  -30.2060  -16.8100   20.4180 C   0  0  0  0  0  2  0  0  0  0  0  0
  -30.8800  -14.4450   20.1150 C   0  0  0  0  0  0  0  0  0  0  0  0
  -30.5040  -12.3080   18.9570 C   0  0  0  0  0  2  0  0  0  0  0  0
  -29.4970  -12.5530   17.8130 C   0  0  0  0  0  2  0  0  0  0  0  0
  -28.0460  -12.4380   18.3250 C   0  0  0  0  0  2  0  0  0  0  0  0
  -27.7940  -13.2650   19.6150 C   0  0  0  0  0  3  0  0  0  0  0  0
  -28.9010  -12.9810   20.6580 C   0  0  0  0  0  2  0  0  0  0  0  0
  -30.2080  -13.2680   20.0310 N   0  0  0  0  0  0  0  0  0  0  0  0
  -31.9230  -14.6890   19.5030 O   0  0  0  0  0  0  0  0  0  0  0  0
  -30.2160  -15.3950   20.7800 N   0  0  0  0  0  0  0  0  0  0  0  0
  -29.4280  -15.0650   21.3140 H   0  0  0  0  0  0  0  0  0  0  0  0
  -25.4570  -13.9090   20.4930 C   0  0  0  0  0  0  0  0  0  0  0  0
  -24.3930  -13.1530   20.9010 C   0  0  0  0  0  0  0  0  0  0  0  0
  -24.8090  -11.7920   20.7820 C   0  0  0  0  0  0  0  0  0  0  0  0
  -26.4610  -13.0110   20.1610 N   0  0  0  0  0  0  0  0  0  0  0  0
  -26.0750  -11.7280   20.3880 N   0  0  0  0  0  0  0  0  0  0  0  0
  -24.0580  -10.5460   20.9690 C   0  0  0  0  0  0  0  0  0  0  0  0
  -24.4550   -9.5800   21.9200 C   0  0  0  0  0  3  0  0  0  0  0  0
  -23.7090   -8.3950   22.0920 C   0  0  0  0  0  3  0  0  0  0  0  0
  -22.5510   -8.1690   21.3110 C   0  0  0  0  0  0  0  0  0  0  0  0
  -22.1720   -9.1220   20.3500 C   0  0  0  0  0  3  0  0  0  0  0  0
  -22.9200  -10.2980   20.1770 C   0  0  0  0  0  3  0  0  0  0  0  0
  -21.7790   -7.0340   21.3910 O   0  0  0  0  0  0  0  0  0  0  0  0
  -21.6250   -6.3500   22.5710 C   0  0  0  0  0  0  0  0  0  0  0  0
  -21.0460   -6.9490   23.7100 C   0  0  0  0  0  3  0  0  0  0  0  0
  -20.8410   -6.1900   24.8790 C   0  0  0  0  0  3  0  0  0  0  0  0
  -21.2050   -4.8310   24.9100 C   0  0  0  0  0  0  0  0  0  0  0  0
  -21.7790   -4.2300   23.7760 C   0  0  0  0  0  3  0  0  0  0  0  0
  -21.9850   -4.9870   22.6090 C   0  0  0  0  0  0  0  0  0  0  0  0
  -22.5170   -4.3970   21.5110 F   0  0  0  0  0  0  0  0  0  0  0  0
  -21.0010   -4.0990   26.0290 F   0  0  0  0  0  0  0  0  0  0  0  0
  -23.0330  -13.6580   21.2890 C   0  0  0  0  0  0  0  0  0  0  0  0
  -22.3440  -12.9500   22.1760 N   0  0  0  0  0  0  0  0  0  0  0  0
  -22.5910  -14.7170   20.8420 O   0  0  0  0  0  0  0  0  0  0  0  0
  -22.7110  -12.0930   22.5620 H   0  0  0  0  0  0  0  0  0  0  0  0
  -21.4320  -13.2670   22.4720 H   0  0  0  0  0  0  0  0  0  0  0  0
  -25.6460  -15.2790   20.3580 N   0  0  0  0  0  0  0  0  0  0  0  0
  -24.9090  -15.9440   20.5650 H   0  0  0  0  0  0  0  0  0  0  0  0
  -26.4890  -15.7070   20.0030 H   0  0  0  0  0  0  0  0  0  0  0  0
  1  5  1  0
  2  1  2  0
  2  6  1  0
  4  3  1  0
  4  8  1  0
  5  3  2  0
  5 55  1  0
  6  4  2  0
  7  6  1  0
  8  9  1  0
  9 11  1  0
  9 12  1  0
 10  8  2  0
 12 13  1  0
 14 16  1  0
 14 13  1  0
 15 26  2  0
 16 21  1  0
 17 25  1  0
 17 27  1  0
 18 24  1  0
 18 20  1  0
 19 25  1  0
 20 21  2  0
 20 19  1  0
 22 16  2  0
 23 22  1  0
 23 18  2  0
 24 17  1  0
 25 15  1  0
 27 29  2  0
 28 27  1  0
 30 28  1  0
 31 40  2  0
 31 36  1  0
 32 28  1  0
 32 36  1  0
 33 32  1  0
 34 35  1  0
 34 33  1  0
 35 31  1  0
 36 37  2  0
 37 38  1  0
 39 38  2  0
 40 39  1  0
 41 15  1  0
 41 46  1  0
 41 42  1  0
 42 45  1  1
 42 43  1  0
 44 42  1  0
 46 49  1  0
 47 51  1  0
 47 46  1  0
 48 47  2  0
 51 50  1  0
 53 51  1  0
 53 54  1  0
 53 52  1  0
 56 55  1  0
 56 61  1  0
 57 58  1  0
 57 56  1  0
 59 57  1  0
 60 57  1  0
 62 61  1  0
 62 63  1  0
 64 63  1  0
 64 73  1  0
 65 73  1  0
 66 71  1  0
 67 68  1  0
 67 66  1  0
 69 68  1  0
 69 78  1  0
 69 70  1  0
 71 65  1  0
 71 70  1  0
 72 65  2  0
 73 74  1  0
 75 76  2  0
 76 95  1  0
 77 76  1  0
 77 80  1  0
 78 79  1  0
 78 75  1  0
 79 77  2  0
 80 81  1  0
 81 82  2  0
 83 86  1  0
 83 82  1  0
 84 83  2  0
 85 84  1  0
 85 80  2  0
 86 87  1  0
 87 92  2  0
 87 88  1  0
 88 89  2  0
 89 90  1  0
 90 94  1  0
 91 90  2  0
 92 91  1  0
 93 92  1  0
 95 96  1  0
 96 99  1  0
 96 98  1  0
 97 95  2  0
100 75  1  0
100101  1  0
102100  1  0
M  ISO  4  13 101  14 101  65 100  73 100
M  END
>  <TORSDO>  (4) 
F 26

>  <SCORE>  (4) 
-11.173

>  <name>  (4) 
3

>  <ligand_id>  (4) 
3

>  <original_smiles>  (4) 
[H]c1c([H])c([H])c2c(c1[H])C([H])([H])C([H])([H])C([H])([H])C2([H])N([H])C(=O)C1([H])N(C(=O)C([H])(N([H])C(=O)C([H])(N([H])C([H])([H])[H])C([H])([H])[H])C(C([H])([H])[H])(C([H])([H])[H])C([H])([H])[H])C([H])([H])c2c([H])c(OC([H])([H])C([H])([H])N([H])C(=O)c3c([H])c(C([H])([H])C([H])(C([H])([H])C([H])([H])C([H])([H])C([H])([H])N([H])C(=O)N4C([H])([H])C([H])([H])C([H])([H])C([H])(n5nc(-c6c([H])c([H])c(Oc7c([H])c([H])c(F)c([H])c7F)c([H])c6[H])c(C(=O)N([H])[H])c5N([H])[H])C4([H])[H])[N+]([H])([H])[H])c([H])c([H])c3C([H])([H])[H])c([H])c([H])c2C1([H])[H]

>  <smiles>  (4) 
[H]c1c([H])c([H])c2c(c1[H])C([H])([H])C([H])([H])C([H])([H])C2([H])N([H])C(=O)C1([H])N(C(=O)C([H])(N([H])C(=O)C([H])(N([H])C([H])([H])[H])C([H])([H])[H])C(C([H])([H])[H])(C([H])([H])[H])C([H])([H])[H])C([H])([H])c2c([H])c(OC([H])([H])C([H])([H])N([H])C(=O)c3c([H])c(C([H])([H])C([H])(C([H])([H])C([H])([H])C([H])([H])C([H])([H])N([H])C(=O)N4C([H])([H])C([H])([H])C([H])([H])C([H])(n5nc(-c6c([H])c([H])c(Oc7c([H])c([H])c(F)c([H])c7F)c([H])c6[H])c(C(=O)N([H])[H])c5N([H])[H])C4([H])[H])[N+]([H])([H])[H])c([H])c([H])c3C([H])([H])[H])c([H])c([H])c2C1([H])[H]

$$$$
4:0:0
     RDKit          3D

 92100  0  0  1  0  0  0  0  0999 V2000
  -26.2490  -20.7250   20.1640 C   0  0  0  0  0  3  0  0  0  0  0  0
  -27.3680  -19.8760   20.0470 C   0  0  0  0  0  3  0  0  0  0  0  0
  -26.4220  -22.0830   20.4890 C   0  0  0  0  0  3  0  0  0  0  0  0
  -28.8360  -21.7550   20.5470 C   0  0  0  0  0  3  0  0  0  0  0  0
  -28.6730  -20.3860   20.2410 C   0  0  0  0  0  0  0  0  0  0  0  0
  -27.7190  -22.5980   20.6940 C   0  0  0  0  0  0  0  0  0  0  0  0
  -29.8910  -19.5360   20.1190 C   0  0  0  0  0  0  0  0  0  0  0  0
  -31.0200  -20.0130   19.9580 O   0  0  0  0  0  0  0  0  0  0  0  0
  -29.7180  -18.0130   20.2310 C   0  0  0  0  0  2  0  0  0  0  0  0
  -31.0060  -17.2830   20.6680 C   0  0  0  0  0  2  0  0  0  0  0  0
  -31.4680  -14.8460   20.3760 C   0  0  0  0  0  0  0  0  0  0  0  0
  -31.2430  -12.5460   19.5280 C   0  0  0  0  0  2  0  0  0  0  0  0
  -30.3380  -12.5590   18.2780 C   0  0  0  0  0  2  0  0  0  0  0  0
  -28.8500  -12.4770   18.6700 C   0  0  0  0  0  2  0  0  0  0  0  0
  -28.4640  -13.4980   19.7730 C   0  0  0  0  0  3  0  0  0  0  0  0
  -29.4720  -13.4210   20.9420 C   0  0  0  0  0  2  0  0  0  0  0  0
  -30.8220  -13.6520   20.3970 N   0  0  0  0  0  0  0  0  0  0  0  0
  -32.5660  -15.0230   19.8410 O   0  0  0  0  0  0  0  0  0  0  0  0
  -30.7500  -15.8600   20.8770 N   0  0  0  0  0  0  0  0  0  0  0  0
  -29.8830  -15.6070   21.3280 H   0  0  0  0  0  0  0  0  0  0  0  0
  -26.1000  -14.2350   20.4940 C   0  0  0  0  0  0  0  0  0  0  0  0
  -24.9800  -13.5160   20.8220 C   0  0  0  0  0  0  0  0  0  0  0  0
  -25.3540  -12.1410   20.7270 C   0  0  0  0  0  0  0  0  0  0  0  0
  -27.0890  -13.2970   20.2290 N   0  0  0  0  0  0  0  0  0  0  0  0
  -26.6390  -12.0320   20.4210 N   0  0  0  0  0  0  0  0  0  0  0  0
  -24.5480  -10.9190   20.8500 C   0  0  0  0  0  0  0  0  0  0  0  0
  -24.8550   -9.9280   21.8070 C   0  0  0  0  0  3  0  0  0  0  0  0
  -24.0560   -8.7710   21.9230 C   0  0  0  0  0  3  0  0  0  0  0  0
  -22.9340   -8.5960   21.0790 C   0  0  0  0  0  0  0  0  0  0  0  0
  -22.6440   -9.5760   20.1140 C   0  0  0  0  0  3  0  0  0  0  0  0
  -23.4430  -10.7250   19.9960 C   0  0  0  0  0  3  0  0  0  0  0  0
  -22.1180   -7.4920   21.1010 O   0  0  0  0  0  0  0  0  0  0  0  0
  -21.8640   -6.8070   22.2620 C   0  0  0  0  0  0  0  0  0  0  0  0
  -21.2660   -7.4280   23.3790 C   0  0  0  0  0  3  0  0  0  0  0  0
  -20.9580   -6.6700   24.5260 C   0  0  0  0  0  3  0  0  0  0  0  0
  -21.2400   -5.2910   24.5550 C   0  0  0  0  0  0  0  0  0  0  0  0
  -21.8350   -4.6710   23.4440 C   0  0  0  0  0  3  0  0  0  0  0  0
  -22.1410   -5.4260   22.2990 C   0  0  0  0  0  0  0  0  0  0  0  0
  -22.6940   -4.8180   21.2210 F   0  0  0  0  0  0  0  0  0  0  0  0
  -20.9390   -4.5610   25.6550 F   0  0  0  0  0  0  0  0  0  0  0  0
  -23.6160  -14.0680   21.1130 C   0  0  0  0  0  0  0  0  0  0  0  0
  -22.8420  -13.3830   21.9500 N   0  0  0  0  0  0  0  0  0  0  0  0
  -23.2430  -15.1390   20.6350 O   0  0  0  0  0  0  0  0  0  0  0  0
  -23.1560  -12.5160   22.3610 H   0  0  0  0  0  0  0  0  0  0  0  0
  -21.9240  -13.7320   22.1840 H   0  0  0  0  0  0  0  0  0  0  0  0
  -26.3560  -15.5970   20.3830 N   0  0  0  0  0  0  0  0  0  0  0  0
  -25.6220  -16.2900   20.4960 H   0  0  0  0  0  0  0  0  0  0  0  0
  -27.2270  -15.9870   20.0490 H   0  0  0  0  0  0  0  0  0  0  0  0
  -27.9360  -24.0420   21.0910 C   0  0  0  0  0  2  0  0  0  0  0  0
  -28.5230  -24.8850   19.9550 C   0  0  0  0  0  2  0  0  0  0  0  0
  -28.9390  -26.2860   20.4310 C   0  0  0  0  0  2  0  0  0  0  0  0
  -28.6800  -27.2640   19.4350 O   0  0  0  0  0  0  0  0  0  0  0  0
  -24.6470  -31.7540   23.1950 C   0  0  0  0  0  0  0  0  0  0  0  0
  -27.4680  -27.8850   19.5770 C   0  0  0  0  0  0  0  0  0  0  0  0
  -23.4790  -30.4680   21.4360 C   0  0  0  0  0  3  0  0  0  0  0  0
  -24.9810  -29.1860   19.8250 C   0  0  0  0  0  0  0  0  0  0  0  0
  -25.9690  -31.0090   21.2250 C   0  0  0  0  0  2  0  0  0  0  0  0
  -26.1190  -29.7230   20.4410 C   0  0  0  0  0  0  0  0  0  0  0  0
  -27.3650  -29.0760   20.3220 C   0  0  0  0  0  3  0  0  0  0  0  0
  -26.3200  -27.3510   18.9570 C   0  0  0  0  0  3  0  0  0  0  0  0
  -25.0740  -27.9940   19.0840 C   0  0  0  0  0  3  0  0  0  0  0  0
  -23.6890  -29.9500   19.9870 C   0  0  0  0  0  2  0  0  0  0  0  0
  -24.7170  -31.0860   22.0110 N   0  0  0  0  0  0  0  0  0  0  0  0
  -23.5660  -31.9000   23.7820 O   0  0  0  0  0  0  0  0  0  0  0  0
  -22.9190  -29.3110   22.2920 C   0  0  0  0  0  0  0  0  0  0  0  0
  -21.6060  -29.0630   22.1690 N   0  0  0  0  0  0  0  0  0  0  0  0
  -23.6590  -28.6420   23.0170 O   0  0  0  0  0  0  0  0  0  0  0  0
  -21.0590  -29.6710   21.5740 H   0  0  0  0  0  0  0  0  0  0  0  0
  -18.3270  -27.5900   22.5530 C   0  0  0  0  0  0  0  0  0  0  0  0
  -20.8670  -27.9920   22.8390 C   0  0  0  0  0  3  0  0  0  0  0  0
  -21.0600  -26.6420   22.1130 C   0  0  0  0  0  2  0  0  0  0  0  0
  -19.9680  -26.3480   21.0800 C   0  0  0  0  0  2  0  0  0  0  0  0
  -18.5860  -26.3300   21.7410 C   0  0  0  0  0  2  0  0  0  0  0  0
  -19.3990  -28.3790   23.0510 C   0  0  0  0  0  0  0  0  0  0  0  0
  -19.1050  -29.5600   23.7680 C   0  0  0  0  0  3  0  0  0  0  0  0
  -17.7730  -29.9570   23.9830 C   0  0  0  0  0  3  0  0  0  0  0  0
  -16.7160  -29.1680   23.4990 C   0  0  0  0  0  3  0  0  0  0  0  0
  -16.9940  -27.9830   22.7930 C   0  0  0  0  0  3  0  0  0  0  0  0
  -25.9130  -32.3870   23.8530 C   0  0  0  0  0  3  0  0  0  0  0  0
  -25.5530  -33.7480   24.2800 N   0  0  0  0  0  0  0  0  0  0  0  0
  -25.8560  -34.8600   23.6010 C   0  0  0  0  0  0  0  0  0  0  0  0
  -26.5410  -34.8530   22.5740 O   0  0  0  0  0  0  0  0  0  0  0  0
  -24.9490  -33.8250   25.0840 H   0  0  0  0  0  0  0  0  0  0  0  0
  -24.0750  -36.6170   23.3450 C   0  0  0  0  0  1  0  0  0  0  0  0
  -25.3140  -36.1940   24.1500 C   0  0  0  0  0  3  0  0  0  0  0  0
  -27.3970  -37.0880   25.0910 C   0  0  0  0  0  1  0  0  0  0  0  0
  -26.3120  -37.2850   24.1360 N   0  0  0  0  0  0  0  0  0  0  0  0
  -25.8700  -38.1780   24.3350 H   0  0  0  0  0  0  0  0  0  0  0  0
  -26.4710  -31.5460   25.0660 C   0  0  1  0  0  0  0  0  0  0  0  0
  -25.4000  -31.2010   26.1280 C   0  0  0  0  0  1  0  0  0  0  0  0
  -27.0940  -30.2180   24.5710 C   0  0  0  0  0  1  0  0  0  0  0  0
  -27.6030  -32.3330   25.7710 C   0  0  0  0  0  1  0  0  0  0  0  0
  1  3  1  0
  2  1  2  0
  2  5  1  0
  3  6  2  0
  4  6  1  0
  5  4  2  0
  6 49  1  0
  7  9  1  0
  7  5  1  0
  8  7  2  0
  9 10  1  0
 10 19  1  0
 11 17  1  0
 11 19  1  0
 12 17  1  0
 13 14  1  0
 13 12  1  0
 15 14  1  0
 15 24  1  0
 15 16  1  0
 17 16  1  0
 18 11  2  0
 19 20  1  0
 21 22  2  0
 22 41  1  0
 23 22  1  0
 23 26  1  0
 24 25  1  0
 24 21  1  0
 25 23  2  0
 26 27  1  0
 27 28  2  0
 29 32  1  0
 29 28  1  0
 30 29  2  0
 31 30  1  0
 31 26  2  0
 32 33  1  0
 33 38  2  0
 33 34  1  0
 34 35  2  0
 35 36  1  0
 36 40  1  0
 37 36  2  0
 38 37  1  0
 39 38  1  0
 41 42  1  0
 42 45  1  0
 42 44  1  0
 43 41  2  0
 46 21  1  0
 46 47  1  0
 48 46  1  0
 50 51  1  0
 50 49  1  0
 52 54  1  0
 52 51  1  0
 53 64  2  0
 54 59  1  0
 55 63  1  0
 55 65  1  0
 56 62  1  0
 56 58  1  0
 57 63  1  0
 58 57  1  0
 59 58  2  0
 60 61  1  0
 60 54  2  0
 61 56  2  0
 62 55  1  0
 63 53  1  0
 65 67  2  0
 66 65  1  0
 68 66  1  0
 69 78  2  0
 69 74  1  0
 70 66  1  0
 70 74  1  0
 71 70  1  0
 72 73  1  0
 72 71  1  0
 73 69  1  0
 74 75  2  0
 75 76  1  0
 77 76  2  0
 78 77  1  0
 79 53  1  0
 79 80  1  0
 79 89  1  0
 80 83  1  0
 81 85  1  0
 81 80  1  0
 82 81  2  0
 85 84  1  0
 87 85  1  0
 87 88  1  0
 87 86  1  0
 89 92  1  1
 89 90  1  0
 91 89  1  0
M  ISO  4  11 100  19 100  51 101  52 101
M  END
>  <TORSDO>  (5) 
F 22

>  <SCORE>  (5) 
-9.103

>  <name>  (5) 
4

>  <ligand_id>  (5) 
4

>  <original_smiles>  (5) 
[H]c1c([H])c(C(=O)C([H])([H])C([H])([H])N([H])C(=O)N2C([H])([H])C([H])([H])C([H])([H])C([H])(n3nc(-c4c([H])c([H])c(Oc5c([H])c([H])c(F)c([H])c5F)c([H])c4[H])c(C(=O)N([H])[H])c3N([H])[H])C2([H])[H])c([H])c(C([H])([H])C([H])([H])C([H])([H])Oc2c([H])c([H])c3c(c2[H])C([H])([H])N(C(=O)C([H])(N([H])C(=O)C([H])(N([H])C([H])([H])[H])C([H])([H])[H])C(C([H])([H])[H])(C([H])([H])[H])C([H])([H])[H])C([H])(C(=O)N([H])C2([H])c4c([H])c([H])c([H])c([H])c4C([H])([H])C([H])([H])C2([H])[H])C3([H])[H])c1[H]

>  <smiles>  (5) 
[H]c1c([H])c(C(=O)C([H])([H])C([H])([H])N([H])C(=O)N2C([H])([H])C([H])([H])C([H])([H])C([H])(n3nc(-c4c([H])c([H])c(Oc5c([H])c([H])c(F)c([H])c5F)c([H])c4[H])c(C(=O)N([H])[H])c3N([H])[H])C2([H])[H])c([H])c(C([H])([H])C([H])([H])C([H])([H])Oc2c([H])c([H])c3c(c2[H])C([H])([H])N(C(=O)C([H])(N([H])C(=O)C([H])(N([H])C([H])([H])[H])C([H])([H])[H])C(C([H])([H])[H])(C([H])([H])[H])C([H])([H])[H])C([H])(C(=O)N([H])C2([H])c4c([H])c([H])c([H])c([H])c4C([H])([H])C([H])([H])C2([H])[H])C3([H])[H])c1[H]

$$$$
5:0:0
     RDKit          3D

 93101  0  0  1  0  0  0  0  0999 V2000
  -28.1800  -20.7260   20.4830 C   0  0  0  0  0  3  0  0  0  0  0  0
  -29.8770  -21.3950   22.0950 C   0  0  0  0  0  3  0  0  0  0  0  0
  -27.6260  -22.0200   20.5300 C   0  0  0  0  0  3  0  0  0  0  0  0
  -29.3260  -22.6900   22.1390 C   0  0  0  0  0  3  0  0  0  0  0  0
  -29.3170  -20.4010   21.2610 C   0  0  0  0  0  0  0  0  0  0  0  0
  -28.1940  -23.0070   21.3620 C   0  0  0  0  0  0  0  0  0  0  0  0
  -29.8980  -19.0260   21.2930 C   0  0  0  0  0  0  0  0  0  0  0  0
  -30.3580  -18.5250   22.3230 O   0  0  0  0  0  0  0  0  0  0  0  0
  -29.9750  -18.2330   19.9820 C   0  0  0  0  0  2  0  0  0  0  0  0
  -31.4100  -17.7920   19.6210 C   0  0  0  0  0  2  0  0  0  0  0  0
  -32.0310  -16.7270   20.5490 C   0  0  0  0  0  2  0  0  0  0  0  0
  -31.7580  -14.4240   19.6410 C   0  0  0  0  0  0  0  0  0  0  0  0
  -31.3090  -12.1150   18.9010 C   0  0  0  0  0  2  0  0  0  0  0  0
  -30.3140  -12.0850   17.7270 C   0  0  0  0  0  2  0  0  0  0  0  0
  -28.8630  -12.0780   18.2430 C   0  0  0  0  0  2  0  0  0  0  0  0
  -28.6010  -13.1830   19.2990 C   0  0  0  0  0  3  0  0  0  0  0  0
  -29.6960  -13.1700   20.3880 C   0  0  0  0  0  2  0  0  0  0  0  0
  -31.0120  -13.2920   19.7290 N   0  0  0  0  0  0  0  0  0  0  0  0
  -32.7470  -14.5310   18.9110 O   0  0  0  0  0  0  0  0  0  0  0  0
  -31.3660  -15.4300   20.4330 N   0  0  0  0  0  0  0  0  0  0  0  0
  -30.5680  -15.2590   21.0260 H   0  0  0  0  0  0  0  0  0  0  0  0
  -26.3540  -14.0500   20.2130 C   0  0  0  0  0  0  0  0  0  0  0  0
  -25.2330  -13.3980   20.6510 C   0  0  0  0  0  0  0  0  0  0  0  0
  -25.5210  -12.0030   20.5480 C   0  0  0  0  0  0  0  0  0  0  0  0
  -27.2640  -13.0590   19.8780 N   0  0  0  0  0  0  0  0  0  0  0  0
  -26.7680  -11.8210   20.1320 N   0  0  0  0  0  0  0  0  0  0  0  0
  -24.6650  -10.8310   20.7660 C   0  0  0  0  0  0  0  0  0  0  0  0
  -24.9990   -9.8370   21.7140 C   0  0  0  0  0  3  0  0  0  0  0  0
  -24.1510   -8.7290   21.9180 C   0  0  0  0  0  3  0  0  0  0  0  0
  -22.9530   -8.6050   21.1750 C   0  0  0  0  0  0  0  0  0  0  0  0
  -22.6360   -9.5840   20.2180 C   0  0  0  0  0  3  0  0  0  0  0  0
  -23.4840  -10.6850   20.0110 C   0  0  0  0  0  3  0  0  0  0  0  0
  -22.0810   -7.5490   21.2880 O   0  0  0  0  0  0  0  0  0  0  0  0
  -21.8870   -6.9010   22.4820 C   0  0  0  0  0  0  0  0  0  0  0  0
  -21.4390   -7.5800   23.6350 C   0  0  0  0  0  3  0  0  0  0  0  0
  -21.1870   -6.8620   24.8210 C   0  0  0  0  0  3  0  0  0  0  0  0
  -21.3710   -5.4660   24.8540 C   0  0  0  0  0  0  0  0  0  0  0  0
  -21.8110   -4.7880   23.7050 C   0  0  0  0  0  3  0  0  0  0  0  0
  -22.0650   -5.5020   22.5210 C   0  0  0  0  0  0  0  0  0  0  0  0
  -22.4690   -4.8400   21.4100 F   0  0  0  0  0  0  0  0  0  0  0  0
  -21.1210   -4.7760   25.9910 F   0  0  0  0  0  0  0  0  0  0  0  0
  -23.9300  -14.0290   21.0520 C   0  0  0  0  0  0  0  0  0  0  0  0
  -23.2040  -13.4030   21.9730 N   0  0  0  0  0  0  0  0  0  0  0  0
  -23.5710  -15.1080   20.5840 O   0  0  0  0  0  0  0  0  0  0  0  0
  -23.5090  -12.5280   22.3730 H   0  0  0  0  0  0  0  0  0  0  0  0
  -22.3320  -13.8080   22.2840 H   0  0  0  0  0  0  0  0  0  0  0  0
  -26.6700  -15.3960   20.0540 N   0  0  0  0  0  0  0  0  0  0  0  0
  -25.9980  -16.1340   20.2340 H   0  0  0  0  0  0  0  0  0  0  0  0
  -27.5360  -15.7360   19.6570 H   0  0  0  0  0  0  0  0  0  0  0  0
  -27.5670  -24.3860   21.4700 C   0  0  0  0  0  2  0  0  0  0  0  0
  -28.4000  -25.5040   20.8200 C   0  0  0  0  0  2  0  0  0  0  0  0
  -28.2770  -25.5760   19.2800 C   0  0  0  0  0  2  0  0  0  0  0  0
  -28.2270  -26.9310   18.8190 O   0  0  0  0  0  0  0  0  0  0  0  0
  -24.6080  -31.5030   22.8570 C   0  0  0  0  0  0  0  0  0  0  0  0
  -27.0330  -27.5950   18.9950 C   0  0  0  0  0  0  0  0  0  0  0  0
  -23.2740  -30.2700   21.1780 C   0  0  0  0  0  3  0  0  0  0  0  0
  -24.6110  -28.9770   19.4350 C   0  0  0  0  0  0  0  0  0  0  0  0
  -25.7540  -30.7510   20.7760 C   0  0  0  0  0  2  0  0  0  0  0  0
  -25.8070  -29.4760   19.9630 C   0  0  0  0  0  0  0  0  0  0  0  0
  -27.0220  -28.7950   19.7370 C   0  0  0  0  0  3  0  0  0  0  0  0
  -25.8180  -27.1030   18.4660 C   0  0  0  0  0  3  0  0  0  0  0  0
  -24.6100  -27.7890   18.6850 C   0  0  0  0  0  3  0  0  0  0  0  0
  -23.3560  -29.7730   19.7100 C   0  0  0  0  0  2  0  0  0  0  0  0
  -24.5690  -30.8490   21.6610 N   0  0  0  0  0  0  0  0  0  0  0  0
  -23.5820  -31.6670   23.5310 O   0  0  0  0  0  0  0  0  0  0  0  0
  -22.7510  -29.1140   22.0610 C   0  0  0  0  0  0  0  0  0  0  0  0
  -21.4330  -28.8680   22.0010 N   0  0  0  0  0  0  0  0  0  0  0  0
  -23.5240  -28.4480   22.7530 O   0  0  0  0  0  0  0  0  0  0  0  0
  -20.8660  -29.4650   21.4150 H   0  0  0  0  0  0  0  0  0  0  0  0
  -18.1830  -27.3730   22.5070 C   0  0  0  0  0  0  0  0  0  0  0  0
  -20.7230  -27.8070   22.7140 C   0  0  0  0  0  3  0  0  0  0  0  0
  -20.9100  -26.4420   22.0130 C   0  0  0  0  0  2  0  0  0  0  0  0
  -19.7950  -26.1200   21.0120 C   0  0  0  0  0  2  0  0  0  0  0  0
  -18.4340  -26.1020   21.7130 C   0  0  0  0  0  2  0  0  0  0  0  0
  -19.2580  -28.1820   22.9640 C   0  0  0  0  0  0  0  0  0  0  0  0
  -18.9690  -29.3720   23.6670 C   0  0  0  0  0  3  0  0  0  0  0  0
  -17.6370  -29.7550   23.9170 C   0  0  0  0  0  3  0  0  0  0  0  0
  -16.5780  -28.9420   23.4770 C   0  0  0  0  0  3  0  0  0  0  0  0
  -16.8520  -27.7530   22.7780 C   0  0  0  0  0  3  0  0  0  0  0  0
  -25.9370  -32.0980   23.4210 C   0  0  0  0  0  3  0  0  0  0  0  0
  -25.6260  -33.4180   23.9850 N   0  0  0  0  0  0  0  0  0  0  0  0
  -25.8640  -34.5830   23.3670 C   0  0  0  0  0  0  0  0  0  0  0  0
  -26.4430  -34.6600   22.2800 O   0  0  0  0  0  0  0  0  0  0  0  0
  -25.1000  -33.4300   24.8460 H   0  0  0  0  0  0  0  0  0  0  0  0
  -24.0680  -36.3420   23.4290 C   0  0  0  0  0  1  0  0  0  0  0  0
  -25.3820  -35.8680   24.0680 C   0  0  0  0  0  3  0  0  0  0  0  0
  -27.5580  -36.6960   24.8490 C   0  0  0  0  0  1  0  0  0  0  0  0
  -26.3770  -36.9640   24.0350 N   0  0  0  0  0  0  0  0  0  0  0  0
  -25.9620  -37.8350   24.3530 H   0  0  0  0  0  0  0  0  0  0  0  0
  -26.6220  -31.1760   24.5030 C   0  0  1  0  0  0  0  0  0  0  0  0
  -25.6700  -30.7380   25.6400 C   0  0  0  0  0  1  0  0  0  0  0  0
  -27.1910  -29.8970   23.8450 C   0  0  0  0  0  1  0  0  0  0  0  0
  -27.8200  -31.9180   25.1410 C   0  0  0  0  0  1  0  0  0  0  0  0
  1  3  2  0
  1  5  1  0
  2  4  1  0
  3  6  1  0
  5  7  1  0
  5  2  2  0
  6 50  1  0
  6  4  2  0
  7  8  2  0
  9  7  1  0
 10  9  1  0
 10 11  1  0
 12 18  1  0
 12 20  1  0
 13 18  1  0
 14 15  1  0
 14 13  1  0
 16 15  1  0
 16 25  1  0
 16 17  1  0
 18 17  1  0
 19 12  2  0
 20 11  1  0
 20 21  1  0
 22 23  2  0
 23 42  1  0
 24 23  1  0
 24 27  1  0
 25 26  1  0
 25 22  1  0
 26 24  2  0
 27 28  1  0
 28 29  2  0
 30 33  1  0
 30 29  1  0
 31 30  2  0
 32 31  1  0
 32 27  2  0
 33 34  1  0
 34 39  2  0
 34 35  1  0
 35 36  2  0
 36 37  1  0
 37 41  1  0
 38 37  2  0
 39 38  1  0
 40 39  1  0
 42 43  1  0
 43 46  1  0
 43 45  1  0
 44 42  2  0
 47 22  1  0
 47 48  1  0
 49 47  1  0
 51 50  1  0
 52 51  1  0
 53 55  1  0
 53 52  1  0
 54 65  2  0
 55 60  1  0
 56 64  1  0
 56 66  1  0
 57 63  1  0
 57 59  1  0
 58 64  1  0
 59 58  1  0
 60 59  2  0
 61 62  1  0
 61 55  2  0
 62 57  2  0
 63 56  1  0
 64 54  1  0
 66 68  2  0
 67 66  1  0
 69 67  1  0
 70 79  2  0
 70 75  1  0
 71 67  1  0
 71 75  1  0
 72 71  1  0
 73 74  1  0
 73 72  1  0
 74 70  1  0
 75 76  2  0
 76 77  1  0
 78 77  2  0
 79 78  1  0
 80 54  1  0
 80 81  1  0
 80 90  1  0
 81 84  1  0
 82 81  1  0
 82 86  1  0
 83 82  2  0
 86 85  1  0
 88 86  1  0
 88 89  1  0
 88 87  1  0
 90 93  1  1
 90 91  1  0
 92 90  1  0
M  ISO  4  12 100  20 100  52 101  53 101
M  END
>  <TORSDO>  (6) 
F 23

>  <SCORE>  (6) 
-10.278

>  <name>  (6) 
5

>  <ligand_id>  (6) 
5

>  <original_smiles>  (6) 
[H]c1c([H])c([H])c2c(c1[H])C([H])([H])C([H])([H])C([H])([H])C2([H])N([H])C(=O)C1([H])N(C(=O)C([H])(N([H])C(=O)C([H])(N([H])C([H])([H])[H])C([H])([H])[H])C(C([H])([H])[H])(C([H])([H])[H])C([H])([H])[H])C([H])([H])c2c([H])c(OC([H])([H])C([H])([H])C([H])([H])c3c([H])c([H])c(C(=O)C([H])([H])C([H])([H])C([H])([H])N([H])C(=O)N4C([H])([H])C([H])([H])C([H])([H])C([H])(n5nc(-c6c([H])c([H])c(Oc7c([H])c([H])c(F)c([H])c7F)c([H])c6[H])c(C(=O)N([H])[H])c5N([H])[H])C4([H])[H])c([H])c3[H])c([H])c([H])c2C1([H])[H]

>  <smiles>  (6) 
[H]c1c([H])c([H])c2c(c1[H])C([H])([H])C([H])([H])C([H])([H])C2([H])N([H])C(=O)C1([H])N(C(=O)C([H])(N([H])C(=O)C([H])(N([H])C([H])([H])[H])C([H])([H])[H])C(C([H])([H])[H])(C([H])([H])[H])C([H])([H])[H])C([H])([H])c2c([H])c(OC([H])([H])C([H])([H])C([H])([H])c3c([H])c([H])c(C(=O)C([H])([H])C([H])([H])C([H])([H])N([H])C(=O)N4C([H])([H])C([H])([H])C([H])([H])C([H])(n5nc(-c6c([H])c([H])c(Oc7c([H])c([H])c(F)c([H])c7F)c([H])c6[H])c(C(=O)N([H])[H])c5N([H])[H])C4([H])[H])c([H])c3[H])c([H])c([H])c2C1([H])[H]

$$$$
6:0:0
     RDKit          3D

 96104  0  0  1  0  0  0  0  0999 V2000
  -26.5330  -22.0340   18.2730 C   0  0  0  0  0  3  0  0  0  0  0  0
  -24.7560  -20.3900   18.5170 C   0  0  0  0  0  3  0  0  0  0  0  0
  -27.4580  -21.0030   18.0220 C   0  0  0  0  0  3  0  0  0  0  0  0
  -25.6740  -19.3630   18.2520 C   0  0  0  0  0  3  0  0  0  0  0  0
  -25.1990  -21.7250   18.6320 C   0  0  0  0  0  0  0  0  0  0  0  0
  -27.0420  -19.6610   18.0960 C   0  0  0  0  0  0  0  0  0  0  0  0
  -24.2580  -22.7310   19.1940 C   0  0  0  0  0  0  0  0  0  0  0  0
  -23.0330  -22.5750   19.2260 O   0  0  0  0  0  0  0  0  0  0  0  0
  -24.8510  -23.9990   19.8060 C   0  0  0  0  0  2  0  0  0  0  0  0
  -26.0410  -23.7820   20.7740 C   0  0  0  0  0  2  0  0  0  0  0  0
  -26.8690  -25.0620   20.7650 C   0  0  0  0  0  2  0  0  0  0  0  0
  -28.3060  -25.0240   21.3000 C   0  0  0  0  0  2  0  0  0  0  0  0
  -28.9710  -26.4130   21.1920 C   0  0  0  0  0  2  0  0  0  0  0  0
  -28.6330  -27.0540   19.9500 O   0  0  0  0  0  0  0  0  0  0  0  0
  -24.6720  -31.8210   23.4120 C   0  0  0  0  0  0  0  0  0  0  0  0
  -27.4710  -27.7930   19.9740 C   0  0  0  0  0  0  0  0  0  0  0  0
  -23.5190  -30.5850   21.6000 C   0  0  0  0  0  3  0  0  0  0  0  0
  -25.0330  -29.2160   20.0690 C   0  0  0  0  0  0  0  0  0  0  0  0
  -26.0390  -30.9890   21.5190 C   0  0  0  0  0  2  0  0  0  0  0  0
  -26.1580  -29.6970   20.7520 C   0  0  0  0  0  0  0  0  0  0  0  0
  -27.3740  -28.9870   20.7170 C   0  0  0  0  0  3  0  0  0  0  0  0
  -26.3480  -27.3510   19.2390 C   0  0  0  0  0  3  0  0  0  0  0  0
  -25.1190  -28.0370   19.3100 C   0  0  0  0  0  3  0  0  0  0  0  0
  -23.7730  -30.0440   20.1640 C   0  0  0  0  0  2  0  0  0  0  0  0
  -24.7560  -31.1430   22.2360 N   0  0  0  0  0  0  0  0  0  0  0  0
  -23.5750  -32.0320   23.9480 O   0  0  0  0  0  0  0  0  0  0  0  0
  -22.8560  -29.4680   22.4340 C   0  0  0  0  0  0  0  0  0  0  0  0
  -21.5390  -29.2900   22.2460 N   0  0  0  0  0  0  0  0  0  0  0  0
  -23.5230  -28.7690   23.2050 O   0  0  0  0  0  0  0  0  0  0  0  0
  -21.0640  -29.9130   21.6070 H   0  0  0  0  0  0  0  0  0  0  0  0
  -18.1590  -28.0540   22.5340 C   0  0  0  0  0  0  0  0  0  0  0  0
  -20.7100  -28.2720   22.8880 C   0  0  0  0  0  3  0  0  0  0  0  0
  -20.8290  -26.9130   22.1620 C   0  0  0  0  0  2  0  0  0  0  0  0
  -19.7500  -26.7060   21.0970 C   0  0  0  0  0  2  0  0  0  0  0  0
  -18.3520  -26.7810   21.7230 C   0  0  0  0  0  2  0  0  0  0  0  0
  -19.2690  -28.7590   23.0700 C   0  0  0  0  0  0  0  0  0  0  0  0
  -19.0380  -29.9560   23.7850 C   0  0  0  0  0  3  0  0  0  0  0  0
  -17.7310  -30.4430   23.9720 C   0  0  0  0  0  3  0  0  0  0  0  0
  -16.6350  -29.7300   23.4550 C   0  0  0  0  0  3  0  0  0  0  0  0
  -16.8500  -28.5360   22.7450 C   0  0  0  0  0  3  0  0  0  0  0  0
  -25.9410  -32.3850   24.1260 C   0  0  0  0  0  3  0  0  0  0  0  0
  -26.3230  -31.5940   25.4360 C   0  0  1  0  0  0  0  0  0  0  0  0
  -25.1420  -31.4200   26.4160 C   0  0  0  0  0  1  0  0  0  0  0  0
  -26.8690  -30.1870   25.0880 C   0  0  0  0  0  1  0  0  0  0  0  0
  -27.4540  -32.3360   26.1890 C   0  0  0  0  0  1  0  0  0  0  0  0
  -25.6790  -33.7970   24.4250 N   0  0  0  0  0  0  0  0  0  0  0  0
  -26.1000  -34.8260   23.6760 C   0  0  0  0  0  0  0  0  0  0  0  0
  -26.8220  -34.6830   22.6860 O   0  0  0  0  0  0  0  0  0  0  0  0
  -25.0490  -33.9870   25.1910 H   0  0  0  0  0  0  0  0  0  0  0  0
  -24.4680  -36.6840   23.2250 C   0  0  0  0  0  1  0  0  0  0  0  0
  -25.6510  -36.2370   24.0950 C   0  0  0  0  0  3  0  0  0  0  0  0
  -27.7780  -37.0500   25.0170 C   0  0  0  0  0  1  0  0  0  0  0  0
  -26.7300  -37.2460   24.0180 N   0  0  0  0  0  0  0  0  0  0  0  0
  -26.3520  -38.1830   24.1330 H   0  0  0  0  0  0  0  0  0  0  0  0
  -28.0680  -18.5530   18.2000 C   0  0  0  0  0  2  0  0  0  0  0  0
  -28.3100  -18.2070   19.6830 C   0  0  0  0  0  2  0  0  0  0  0  0
  -29.7910  -18.2030   20.0710 C   0  0  0  0  0  2  0  0  0  0  0  0
  -30.0510  -17.5870   21.4640 C   0  0  0  0  0  2  0  0  0  0  0  0
  -30.5620  -15.2500   20.7980 C   0  0  0  0  0  0  0  0  0  0  0  0
  -30.4810  -13.0700   19.6500 C   0  0  0  0  0  2  0  0  0  0  0  0
  -29.5920  -13.1690   18.3960 C   0  0  0  0  0  2  0  0  0  0  0  0
  -28.1090  -12.9370   18.7530 C   0  0  0  0  0  2  0  0  0  0  0  0
  -27.6420  -13.7870   19.9670 C   0  0  0  0  0  3  0  0  0  0  0  0
  -28.6470  -13.6440   21.1360 C   0  0  0  0  0  2  0  0  0  0  0  0
  -29.9810  -14.0320   20.6410 N   0  0  0  0  0  0  0  0  0  0  0  0
  -31.6470  -15.5580   20.2960 O   0  0  0  0  0  0  0  0  0  0  0  0
  -29.8160  -16.1490   21.4550 N   0  0  0  0  0  0  0  0  0  0  0  0
  -28.9530  -15.8180   21.8590 H   0  0  0  0  0  0  0  0  0  0  0  0
  -25.1740  -14.2430   20.5640 C   0  0  0  0  0  0  0  0  0  0  0  0
  -24.1410  -13.4040   20.8840 C   0  0  0  0  0  0  0  0  0  0  0  0
  -24.6880  -12.0850   20.8630 C   0  0  0  0  0  0  0  0  0  0  0  0
  -26.2820  -13.4310   20.3720 N   0  0  0  0  0  0  0  0  0  0  0  0
  -25.9890  -12.1250   20.6080 N   0  0  0  0  0  0  0  0  0  0  0  0
  -24.0420  -10.7770   21.0140 C   0  0  0  0  0  0  0  0  0  0  0  0
  -24.4800   -9.8420   21.9790 C   0  0  0  0  0  3  0  0  0  0  0  0
  -23.8270   -8.5970   22.1180 C   0  0  0  0  0  3  0  0  0  0  0  0
  -22.7230   -8.2810   21.2930 C   0  0  0  0  0  0  0  0  0  0  0  0
  -22.3100   -9.2030   20.3150 C   0  0  0  0  0  3  0  0  0  0  0  0
  -22.9650  -10.4390   20.1750 C   0  0  0  0  0  3  0  0  0  0  0  0
  -22.0440   -7.0880   21.3360 O   0  0  0  0  0  0  0  0  0  0  0  0
  -21.9410   -6.3610   22.4940 C   0  0  0  0  0  0  0  0  0  0  0  0
  -21.3550   -6.8970   23.6640 C   0  0  0  0  0  3  0  0  0  0  0  0
  -21.2160   -6.0950   24.8120 C   0  0  0  0  0  3  0  0  0  0  0  0
  -21.6430   -4.7530   24.7900 C   0  0  0  0  0  0  0  0  0  0  0  0
  -22.2220   -4.2150   23.6260 C   0  0  0  0  0  3  0  0  0  0  0  0
  -22.3680   -5.0180   22.4820 C   0  0  0  0  0  0  0  0  0  0  0  0
  -22.9080   -4.4910   21.3580 F   0  0  0  0  0  0  0  0  0  0  0  0
  -21.4960   -3.9770   25.8910 F   0  0  0  0  0  0  0  0  0  0  0  0
  -22.7060  -13.7950   21.0970 C   0  0  0  0  0  0  0  0  0  0  0  0
  -21.9840  -13.0520   21.9300 N   0  0  0  0  0  0  0  0  0  0  0  0
  -22.2220  -14.7880   20.5580 O   0  0  0  0  0  0  0  0  0  0  0  0
  -22.3820  -12.2440   22.3860 H   0  0  0  0  0  0  0  0  0  0  0  0
  -21.0180  -13.2920   22.1000 H   0  0  0  0  0  0  0  0  0  0  0  0
  -25.2500  -15.6190   20.3980 N   0  0  0  0  0  0  0  0  0  0  0  0
  -24.4340  -16.2070   20.5240 H   0  0  0  0  0  0  0  0  0  0  0  0
  -26.0670  -16.1190   20.0780 H   0  0  0  0  0  0  0  0  0  0  0  0
  1  5  1  0
  2  5  2  0
  3  6  1  0
  3  1  2  0
  4  2  1  0
  5  7  1  0
  6 55  1  0
  6  4  2  0
  7  8  2  0
  7  9  1  0
  9 10  1  0
 11 10  1  0
 11 12  1  0
 13 12  1  0
 14 16  1  0
 14 13  1  0
 15 26  2  0
 16 21  1  0
 17 25  1  0
 17 27  1  0
 18 24  1  0
 18 20  1  0
 19 25  1  0
 20 19  1  0
 21 20  2  0
 22 23  1  0
 22 16  2  0
 23 18  2  0
 24 17  1  0
 25 15  1  0
 27 29  2  0
 28 27  1  0
 30 28  1  0
 31 40  2  0
 31 36  1  0
 32 28  1  0
 32 36  1  0
 33 32  1  0
 34 35  1  0
 34 33  1  0
 35 31  1  0
 36 37  2  0
 37 38  1  0
 39 38  2  0
 40 39  1  0
 41 15  1  0
 41 46  1  0
 41 42  1  0
 42 45  1  1
 42 43  1  0
 44 42  1  0
 46 49  1  0
 47 51  1  0
 47 46  1  0
 48 47  2  0
 51 50  1  0
 53 51  1  0
 53 54  1  0
 53 52  1  0
 55 56  1  0
 56 57  1  0
 57 58  1  0
 59 67  1  0
 60 65  1  0
 61 62  1  0
 61 60  1  0
 63 62  1  0
 63 72  1  0
 63 64  1  0
 65 59  1  0
 65 64  1  0
 66 59  2  0
 67 58  1  0
 67 68  1  0
 69 70  2  0
 70 89  1  0
 71 70  1  0
 71 74  1  0
 72 69  1  0
 72 73  1  0
 73 71  2  0
 74 75  1  0
 75 76  2  0
 77 80  1  0
 77 76  1  0
 78 77  2  0
 79 78  1  0
 79 74  2  0
 80 81  1  0
 81 82  1  0
 82 83  2  0
 84 83  1  0
 84 88  1  0
 85 84  2  0
 86 81  2  0
 86 85  1  0
 87 86  1  0
 89 90  1  0
 90 93  1  0
 90 92  1  0
 91 89  2  0
 94 95  1  0
 94 69  1  0
 96 94  1  0
M  ISO  4  13 101  14 101  59 100  67 100
M  END
>  <TORSDO>  (7) 
F 26

>  <SCORE>  (7) 
-11.316

>  <name>  (7) 
6

>  <ligand_id>  (7) 
6

>  <original_smiles>  (7) 
[H]c1c([H])c([H])c2c(c1[H])C([H])([H])C([H])([H])C([H])([H])C2([H])N([H])C(=O)C1([H])N(C(=O)C([H])(N([H])C(=O)C([H])(N([H])C([H])([H])[H])C([H])([H])[H])C(C([H])([H])[H])(C([H])([H])[H])C([H])([H])[H])C([H])([H])c2c([H])c(OC([H])([H])C([H])([H])C([H])([H])C([H])([H])C([H])([H])C(=O)c3c([H])c([H])c(C([H])([H])C([H])([H])C([H])([H])C([H])([H])N([H])C(=O)N4C([H])([H])C([H])([H])C([H])([H])C([H])(n5nc(-c6c([H])c([H])c(Oc7c([H])c([H])c(F)c([H])c7F)c([H])c6[H])c(C(=O)N([H])[H])c5N([H])[H])C4([H])[H])c([H])c3[H])c([H])c([H])c2C1([H])[H]

>  <smiles>  (7) 
[H]c1c([H])c([H])c2c(c1[H])C([H])([H])C([H])([H])C([H])([H])C2([H])N([H])C(=O)C1([H])N(C(=O)C([H])(N([H])C(=O)C([H])(N([H])C([H])([H])[H])C([H])([H])[H])C(C([H])([H])[H])(C([H])([H])[H])C([H])([H])[H])C([H])([H])c2c([H])c(OC([H])([H])C([H])([H])C([H])([H])C([H])([H])C([H])([H])C(=O)c3c([H])c([H])c(C([H])([H])C([H])([H])C([H])([H])C([H])([H])N([H])C(=O)N4C([H])([H])C([H])([H])C([H])([H])C([H])(n5nc(-c6c([H])c([H])c(Oc7c([H])c([H])c(F)c([H])c7F)c([H])c6[H])c(C(=O)N([H])[H])c5N([H])[H])C4([H])[H])c([H])c3[H])c([H])c([H])c2C1([H])[H]

$$$$
7:0:0
     RDKit          3D

 94 95  0  0  1  0  0  0  0  0999 V2000
  -20.0140  -27.3880   21.4170 C   0  0  0  0  0  2  0  0  0  0  0  0
  -19.7420  -26.1410   23.0120 C   0  0  0  0  0  1  0  0  0  0  0  0
  -20.7290  -28.3600   20.9130 C   0  0  0  0  0  2  0  0  0  0  0  0
  -20.4280  -26.2280   23.2260 C   0  0  0  0  0  2  0  0  0  0  0  0
  -20.4130  -24.8310   23.5510 C   0  0  0  0  0  1  0  0  0  0  0  0
  -21.1410  -27.2470   21.4880 C   0  0  0  0  0  3  0  0  0  0  0  0
  -21.7260  -23.5500   23.4850 C   0  0  0  0  0  2  0  0  0  0  0  0
  -22.0030  -23.1960   24.6340 O   0  0  0  0  0  1  0  0  0  0  0  0
  -22.7420  -22.5370   22.3730 C   0  0  0  0  0  3  0  0  0  0  0  0
  -24.0710  -21.2050   22.6200 C   0  0  0  0  0  3  0  0  0  0  0  0
  -25.2050  -20.0610   21.6220 C   0  0  0  0  0  3  0  0  0  0  0  0
  -26.3670  -18.5890   21.8910 C   0  0  0  0  0  3  0  0  0  0  0  0
  -27.7950  -17.7040   21.0160 C   0  0  0  0  0  2  0  0  0  0  0  0
  -29.7500  -15.2590   20.6520 C   0  0  0  0  0  0  0  0  0  0  0  0
  -30.3700  -12.9000   19.6140 C   0  0  0  0  0  2  0  0  0  0  0  0
  -29.5220  -12.6020   18.3400 C   0  0  0  0  0  2  0  0  0  0  0  0
  -28.0710  -12.2410   18.7080 C   0  0  0  0  0  2  0  0  0  0  0  0
  -27.5420  -13.1780   19.8180 C   0  0  0  0  0  3  0  0  0  0  0  0
  -28.4740  -13.1630   21.0230 C   0  0  0  0  0  2  0  0  0  0  0  0
  -29.6280  -13.8570   20.5340 N   0  0  0  0  0  0  0  0  0  0  0  0
  -30.9120  -15.5960   20.3070 O   0  0  0  0  0  0  0  0  0  0  0  0
  -28.5330  -16.1310   21.0290 N   0  0  0  0  0  0  0  0  0  0  0  0
  -27.8110  -15.4760   21.2950 H   0  0  0  0  0  0  0  0  0  0  0  0
  -25.2150  -13.8010   20.5680 C   0  0  0  0  0  0  0  0  0  0  0  0
  -24.1450  -13.0340   20.9240 C   0  0  0  0  0  0  0  0  0  0  0  0
  -24.5990  -11.6790   20.8730 C   0  0  0  0  0  0  0  0  0  0  0  0
  -26.2160  -12.8980   20.2730 N   0  0  0  0  0  0  0  0  0  0  0  0
  -25.8770  -11.6210   20.5410 N   0  0  0  0  0  0  0  0  0  0  0  0
  -23.8800  -10.4220   21.0480 C   0  0  0  0  0  0  0  0  0  0  0  0
  -24.3460   -9.4180   21.9250 C   0  0  0  0  0  3  0  0  0  0  0  0
  -23.6220   -8.2180   22.0780 C   0  0  0  0  0  3  0  0  0  0  0  0
  -22.4200   -8.0210   21.3580 C   0  0  0  0  0  0  0  0  0  0  0  0
  -21.9770   -9.0150   20.4680 C   0  0  0  0  0  3  0  0  0  0  0  0
  -22.7020  -10.2060   20.3110 C   0  0  0  0  0  3  0  0  0  0  0  0
  -21.6610   -6.8790   21.4250 O   0  0  0  0  0  0  0  0  0  0  0  0
  -21.6840   -6.0670   22.5290 C   0  0  0  0  0  0  0  0  0  0  0  0
  -21.4010   -6.5610   23.8210 C   0  0  0  0  0  3  0  0  0  0  0  0
  -21.3660   -5.6790   24.9190 C   0  0  0  0  0  3  0  0  0  0  0  0
  -21.6040   -4.3040   24.7250 C   0  0  0  0  0  0  0  0  0  0  0  0
  -21.8810   -3.8110   23.4380 C   0  0  0  0  0  3  0  0  0  0  0  0
  -21.9190   -4.6910   22.3430 C   0  0  0  0  0  0  0  0  0  0  0  0
  -22.1650   -4.2090   21.1000 F   0  0  0  0  0  0  0  0  0  0  0  0
  -21.5630   -3.4540   25.7770 F   0  0  0  0  0  0  0  0  0  0  0  0
  -22.7580  -13.5240   21.1980 C   0  0  0  0  0  0  0  0  0  0  0  0
  -22.0240  -12.8240   22.0510 N   0  0  0  0  0  0  0  0  0  0  0  0
  -22.3330  -14.5600   20.6920 O   0  0  0  0  0  0  0  0  0  0  0  0
  -22.3840  -11.9910   22.4940 H   0  0  0  0  0  0  0  0  0  0  0  0
  -21.0940  -13.1440   22.2740 H   0  0  0  0  0  0  0  0  0  0  0  0
  -25.4190  -15.1760   20.4530 N   0  0  0  0  0  0  0  0  0  0  0  0
  -24.6870  -15.8390   20.6820 H   0  0  0  0  0  0  0  0  0  0  0  0
  -26.2470  -15.6220   20.0830 H   0  0  0  0  0  0  0  0  0  0  0  0
  -22.6380  -26.9040   20.4550 C   0  0  0  0  0  2  0  0  0  0  0  0
  -24.3370  -26.2210   20.6450 C   0  0  0  0  0  2  0  0  0  0  0  0
  -25.9940  -26.4230   20.7910 O   0  0  0  0  0  0  0  0  0  0  0  0
  -24.6680  -31.9440   23.2310 C   0  0  0  0  0  0  0  0  0  0  0  0
  -26.7560  -27.3430   20.0950 C   0  0  0  0  0  3  0  0  0  0  0  0
  -23.4830  -30.6170   21.5750 C   0  0  0  0  0  3  0  0  0  0  0  0
  -24.8870  -29.2820   19.8800 C   0  0  0  0  0  0  0  0  0  0  0  0
  -26.0120  -30.8520   21.4340 C   0  0  0  0  0  2  0  0  0  0  0  0
  -25.9950  -29.5380   20.6870 C   0  0  0  0  0  0  0  0  0  0  0  0
  -27.0130  -28.5650   20.7730 C   0  0  0  0  0  3  0  0  0  0  0  0
  -26.0890  -27.4070   18.8920 C   0  0  0  0  0  2  0  0  0  0  0  0
  -24.9840  -28.2790   18.8920 C   0  0  0  0  0  3  0  0  0  0  0  0
  -23.6710  -30.1580   20.0970 C   0  0  0  0  0  2  0  0  0  0  0  0
  -24.7370  -31.1950   22.1020 N   0  0  0  0  0  0  0  0  0  0  0  0
  -23.5820  -32.2130   23.7690 O   0  0  0  0  0  0  0  0  0  0  0  0
  -23.0750  -29.5350   22.5880 C   0  0  0  0  0  0  0  0  0  0  0  0
  -21.8380  -29.5050   22.9940 N   0  0  0  0  0  0  0  0  0  0  0  0
  -23.8840  -28.7910   23.1300 O   0  0  0  0  0  0  0  0  0  0  0  0
  -21.1490  -30.1210   22.5900 H   0  0  0  0  0  0  0  0  0  0  0  0
  -18.0170  -27.7450   22.6280 C   0  0  0  0  0  3  0  0  0  0  0  0
  -21.3690  -28.2750   23.6050 C   0  0  0  0  0  1  0  0  0  0  0  0
  -22.5460  -26.2000   22.8060 C   0  0  0  0  0 15  0  0  0  0  0  0
  -20.5680  -25.0620   21.1350 C   0  0  0  0  0 15  0  0  0  0  0  0
  -18.2440  -25.9490   21.3340 C   0  0  0  0  0 15  0  0  0  0  0  0
  -19.3330  -28.5930   23.4420 C   0  0  0  0  0  3  0  0  0  0  0  0
  -18.9770  -29.8650   23.9800 C   0  0  0  0  0  3  0  0  0  0  0  0
  -17.6710  -30.3910   23.9860 C   0  0  0  0  0  3  0  0  0  0  0  0
  -16.5930  -29.6570   23.4580 C   0  0  0  0  0  3  0  0  0  0  0  0
  -16.7610  -28.4030   22.8050 C   0  0  0  0  0  3  0  0  0  0  0  0
  -25.9580  -32.5130   23.8710 C   0  0  0  0  0  3  0  0  0  0  0  0
  -25.6410  -33.8880   24.2660 N   0  0  0  0  0  0  0  0  0  0  0  0
  -25.9140  -34.9630   23.5200 C   0  0  0  0  0  0  0  0  0  0  0  0
  -26.5490  -34.8990   22.4630 O   0  0  0  0  0  0  0  0  0  0  0  0
  -25.0810  -34.0090   25.0970 H   0  0  0  0  0  0  0  0  0  0  0  0
  -24.1510  -36.7360   23.2600 C   0  0  0  0  0  1  0  0  0  0  0  0
  -25.4130  -36.3240   24.0350 C   0  0  0  0  0  3  0  0  0  0  0  0
  -27.5600  -37.1890   24.8470 C   0  0  0  0  0  1  0  0  0  0  0  0
  -26.4290  -37.3930   23.9450 N   0  0  0  0  0  0  0  0  0  0  0  0
  -26.0170  -38.3000   24.1480 H   0  0  0  0  0  0  0  0  0  0  0  0
  -26.4610  -31.6690   25.1020 C   0  0  1  0  0  0  0  0  0  0  0  0
  -25.3700  -31.3840   26.1590 C   0  0  0  0  0  1  0  0  0  0  0  0
  -27.0370  -30.3070   24.6450 C   0  0  0  0  0  1  0  0  0  0  0  0
  -27.6160  -32.4260   25.7940 C   0  0  0  0  0  1  0  0  0  0  0  0
  1  6  1  0
  2  4  1  0
  3  1  1  0
  3  6  1  0
  4  5  1  0
  7  8  1  0
  9 10  2  0
  9  7  1  0
 11 12  2  0
 11 10  1  0
 13 22  1  0
 13 12  1  0
 14 22  1  0
 15 20  1  0
 16 17  1  0
 16 15  1  0
 18 17  1  0
 18 27  1  0
 18 19  1  0
 20 14  1  0
 20 19  1  0
 21 14  2  0
 22 23  1  0
 24 25  2  0
 25 44  1  0
 26 25  1  0
 26 29  1  0
 27 28  1  0
 27 24  1  0
 28 26  2  0
 29 30  1  0
 30 31  2  0
 32 35  1  0
 32 31  1  0
 33 32  2  0
 34 33  1  0
 34 29  2  0
 35 36  1  0
 36 37  1  0
 37 38  2  0
 39 38  1  0
 39 43  1  0
 40 39  2  0
 41 36  2  0
 41 40  1  0
 42 41  1  0
 44 45  1  0
 45 48  1  0
 45 47  1  0
 46 44  2  0
 49 24  1  0
 49 50  1  0
 51 49  1  0
 52 53  1  0
 52  6  1  0
 53 54  1  0
 55 66  2  0
 56 61  1  0
 56 54  1  0
 57 65  1  0
 57 67  1  0
 58 64  1  0
 58 60  1  0
 59 65  1  0
 60 61  2  0
 60 59  1  0
 62 56  1  0
 63 62  1  0
 63 58  2  0
 64 57  1  0
 65 55  1  0
 67 68  1  0
 67 69  2  0
 68 72  1  0
 70 68  1  0
 71 80  2  0
 71 76  1  0
 76 77  2  0
 77 78  1  0
 79 78  2  0
 80 79  1  0
 81 55  1  0
 81 82  1  0
 81 91  1  0
 82 85  1  0
 83 87  1  0
 83 82  1  0
 84 83  2  0
 87 86  1  0
 89 87  1  0
 89 90  1  0
 89 88  1  0
 91 94  1  1
 91 92  1  0
 93 91  1  0
M  ISO  4  14 100  22 100  53 101  54 101
M  END
>  <TORSDO>  (8) 
F 24

>  <SCORE>  (8) 
31.145

>  <name>  (8) 
7

>  <ligand_id>  (8) 
7

>  <original_smiles>  (8) 
[H]c1c([H])c(C(=O)C([H])([H])C([H])([H])C([H])([H])C([H])([H])C([H])([H])N([H])C(=O)N2C([H])([H])C([H])([H])C([H])([H])C([H])(n3nc(-c4c([H])c([H])c(Oc5c([H])c([H])c(F)c([H])c5F)c([H])c4[H])c(C(=O)N([H])[H])c3N([H])[H])C2([H])[H])c([H])c(C([H])([H])C([H])([H])Oc2c([H])c([H])c3c(c2[H])C([H])([H])N(C(=O)C([H])(N([H])C(=O)C([H])(N([H])C([H])([H])[H])C([H])([H])[H])C(C([H])([H])[H])(C([H])([H])[H])C([H])([H])[H])C([H])(C(=O)N([H])C2([H])c4c([H])c([H])c([H])c([H])c4C([H])([H])C([H])([H])C2([H])[H])C3([H])[H])c1[H]

>  <smiles>  (8) 
[H]c1c([H])c(C(=O)C([H])([H])C([H])([H])C([H])([H])C([H])([H])C([H])([H])N([H])C(=O)N2C([H])([H])C([H])([H])C([H])([H])C([H])(n3nc(-c4c([H])c([H])c(Oc5c([H])c([H])c(F)c([H])c5F)c([H])c4[H])c(C(=O)N([H])[H])c3N([H])[H])C2([H])[H])c([H])c(C([H])([H])C([H])([H])Oc2c([H])c([H])c3c(c2[H])C([H])([H])N(C(=O)C([H])(N([H])C(=O)C([H])(N([H])C([H])([H])[H])C([H])([H])[H])C(C([H])([H])[H])(C([H])([H])[H])C([H])([H])[H])C([H])(C(=O)N([H])C2([H])c4c([H])c([H])c([H])c([H])c4C([H])([H])C([H])([H])C2([H])[H])C3([H])[H])c1[H]

$$$$
8:0:0
     RDKit          3D

 97105  0  0  1  0  0  0  0  0999 V2000
  -28.6630  -22.2620   18.8790 C   0  0  0  0  0  3  0  0  0  0  0  0
  -29.4710  -21.1590   19.2060 C   0  0  0  0  0  3  0  0  0  0  0  0
  -28.8890  -23.0040   17.7010 C   0  0  0  0  0  0  0  0  0  0  0  0
  -30.5220  -20.7520   18.3490 C   0  0  0  0  0  0  0  0  0  0  0  0
  -29.9290  -22.6010   16.8230 C   0  0  0  0  0  0  0  0  0  0  0  0
  -30.7200  -21.4750   17.1470 C   0  0  0  0  0  0  0  0  0  0  0  0
  -30.2510  -23.3370   15.5300 C   0  0  0  0  0  1  0  0  0  0  0  0
  -31.6730  -21.0770   16.2690 F   0  0  0  0  0  0  0  0  0  0  0  0
  -32.9090  -19.8030   18.6720 C   0  0  0  0  0  1  0  0  0  0  0  0
  -31.3910  -19.5200   18.6610 C   0  0  0  0  0  3  0  0  0  0  0  0
  -31.0200  -18.8720   19.9420 N   0  0  0  0  0  4  0  0  0  0  0  0
  -31.7820  -18.9940   20.5900 H   0  0  0  0  0  0  0  0  0  0  0  0
  -30.2270  -19.3650   20.3120 H   0  0  0  0  0  0  0  0  0  0  0  0
  -30.6800  -17.4380   19.8340 C   0  0  0  0  0  2  0  0  0  0  0  0
  -30.5580  -16.7600   21.2240 C   0  0  0  0  0  2  0  0  0  0  0  0
  -30.7220  -14.3850   20.4970 C   0  0  0  0  0  0  0  0  0  0  0  0
  -30.3450  -12.2840   19.2790 C   0  0  0  0  0  2  0  0  0  0  0  0
  -29.4060  -12.5580   18.0880 C   0  0  0  0  0  2  0  0  0  0  0  0
  -27.9320  -12.4390   18.5220 C   0  0  0  0  0  2  0  0  0  0  0  0
  -27.6190  -13.2540   19.8060 C   0  0  0  0  0  3  0  0  0  0  0  0
  -28.6730  -12.9730   20.9030 C   0  0  0  0  0  2  0  0  0  0  0  0
  -30.0080  -13.2440   20.3400 N   0  0  0  0  0  0  0  0  0  0  0  0
  -31.8210  -14.5780   19.9730 O   0  0  0  0  0  0  0  0  0  0  0  0
  -30.0970  -15.3720   21.1450 N   0  0  0  0  0  0  0  0  0  0  0  0
  -29.2060  -15.1540   21.5660 H   0  0  0  0  0  0  0  0  0  0  0  0
  -25.2200  -13.8860   20.5000 C   0  0  0  0  0  0  0  0  0  0  0  0
  -24.1460  -13.1250   20.8710 C   0  0  0  0  0  0  0  0  0  0  0  0
  -24.5960  -11.7680   20.8500 C   0  0  0  0  0  0  0  0  0  0  0  0
  -26.2610  -12.9960   20.2800 N   0  0  0  0  0  0  0  0  0  0  0  0
  -25.8860  -11.7170   20.5450 N   0  0  0  0  0  0  0  0  0  0  0  0
  -23.8610  -10.5130   21.0450 C   0  0  0  0  0  0  0  0  0  0  0  0
  -24.2960   -9.5400   21.9720 C   0  0  0  0  0  3  0  0  0  0  0  0
  -23.5630   -8.3480   22.1550 C   0  0  0  0  0  3  0  0  0  0  0  0
  -22.3810   -8.1200   21.4120 C   0  0  0  0  0  0  0  0  0  0  0  0
  -21.9650   -9.0820   20.4740 C   0  0  0  0  0  3  0  0  0  0  0  0
  -22.6970  -10.2660   20.2890 C   0  0  0  0  0  3  0  0  0  0  0  0
  -21.6190   -6.9820   21.5060 O   0  0  0  0  0  0  0  0  0  0  0  0
  -21.5880   -6.2270   22.6510 C   0  0  0  0  0  0  0  0  0  0  0  0
  -21.2130   -6.7780   23.8970 C   0  0  0  0  0  3  0  0  0  0  0  0
  -21.1290   -5.9510   25.0340 C   0  0  0  0  0  3  0  0  0  0  0  0
  -21.4090   -4.5750   24.9300 C   0  0  0  0  0  0  0  0  0  0  0  0
  -21.7780   -4.0250   23.6890 C   0  0  0  0  0  3  0  0  0  0  0  0
  -21.8650   -4.8490   22.5530 C   0  0  0  0  0  0  0  0  0  0  0  0
  -22.2000   -4.3090   21.3560 F   0  0  0  0  0  0  0  0  0  0  0  0
  -21.3220   -3.7790   26.0200 F   0  0  0  0  0  0  0  0  0  0  0  0
  -22.7510  -13.6120   21.1390 C   0  0  0  0  0  0  0  0  0  0  0  0
  -22.0170  -12.9260   22.0090 N   0  0  0  0  0  0  0  0  0  0  0  0
  -22.3200  -14.6360   20.6100 O   0  0  0  0  0  0  0  0  0  0  0  0
  -22.3780  -12.0970   22.4570 H   0  0  0  0  0  0  0  0  0  0  0  0
  -21.0820  -13.2340   22.2310 H   0  0  0  0  0  0  0  0  0  0  0  0
  -25.3940  -15.2550   20.3150 N   0  0  0  0  0  0  0  0  0  0  0  0
  -24.6290  -15.9130   20.4190 H   0  0  0  0  0  0  0  0  0  0  0  0
  -26.2480  -15.6900   19.9890 H   0  0  0  0  0  0  0  0  0  0  0  0
  -27.9960  -24.2110   17.4350 C   0  0  0  0  0  2  0  0  0  0  0  0
  -28.5310  -25.5050   18.0720 C   0  0  0  0  0  2  0  0  0  0  0  0
  -28.4650  -25.4860   19.6120 C   0  0  0  0  0  2  0  0  0  0  0  0
  -28.4100  -26.8070   20.1360 O   0  0  0  0  0  0  0  0  0  0  0  0
  -24.5720  -31.8950   23.2420 C   0  0  0  0  0  0  0  0  0  0  0  0
  -27.2000  -27.4690   20.1430 C   0  0  0  0  0  0  0  0  0  0  0  0
  -23.3530  -30.4970   21.6110 C   0  0  0  0  0  3  0  0  0  0  0  0
  -24.7940  -28.9560   20.1850 C   0  0  0  0  0  0  0  0  0  0  0  0
  -25.8780  -30.8540   21.3970 C   0  0  0  0  0  2  0  0  0  0  0  0
  -25.9550  -29.4860   20.7570 C   0  0  0  0  0  0  0  0  0  0  0  0
  -27.1590  -28.7500   20.7310 C   0  0  0  0  0  3  0  0  0  0  0  0
  -26.0080  -26.9390   19.5870 C   0  0  0  0  0  3  0  0  0  0  0  0
  -24.8120  -27.6780   19.6050 C   0  0  0  0  0  3  0  0  0  0  0  0
  -23.5540  -29.8190   20.2310 C   0  0  0  0  0  2  0  0  0  0  0  0
  -24.6190  -31.0970   22.1400 N   0  0  0  0  0  0  0  0  0  0  0  0
  -23.4960  -32.1680   23.7900 O   0  0  0  0  0  0  0  0  0  0  0  0
  -22.7110  -29.4720   22.5710 C   0  0  0  0  0  0  0  0  0  0  0  0
  -21.3870  -29.2860   22.4460 N   0  0  0  0  0  0  0  0  0  0  0  0
  -23.3990  -28.8460   23.3830 O   0  0  0  0  0  0  0  0  0  0  0  0
  -20.8950  -29.8390   21.7580 H   0  0  0  0  0  0  0  0  0  0  0  0
  -18.0150  -28.0920   22.9490 C   0  0  0  0  0  0  0  0  0  0  0  0
  -20.5740  -28.3510   23.2210 C   0  0  0  0  0  3  0  0  0  0  0  0
  -20.6760  -26.9170   22.6500 C   0  0  0  0  0  2  0  0  0  0  0  0
  -19.5750  -26.5900   21.6370 C   0  0  0  0  0  2  0  0  0  0  0  0
  -18.1930  -26.7390   22.2800 C   0  0  0  0  0  2  0  0  0  0  0  0
  -19.1340  -28.8570   23.3760 C   0  0  0  0  0  0  0  0  0  0  0  0
  -18.9150  -30.1250   23.9570 C   0  0  0  0  0  3  0  0  0  0  0  0
  -17.6090  -30.6270   24.1170 C   0  0  0  0  0  3  0  0  0  0  0  0
  -16.5060  -29.8610   23.7070 C   0  0  0  0  0  3  0  0  0  0  0  0
  -16.7100  -28.5950   23.1290 C   0  0  0  0  0  3  0  0  0  0  0  0
  -25.8650  -32.5240   23.8530 C   0  0  0  0  0  3  0  0  0  0  0  0
  -25.5610  -33.9200   24.1860 N   0  0  0  0  0  0  0  0  0  0  0  0
  -25.8920  -34.9720   23.4240 C   0  0  0  0  0  0  0  0  0  0  0  0
  -26.5600  -34.8680   22.3910 O   0  0  0  0  0  0  0  0  0  0  0  0
  -24.9710  -34.0750   24.9890 H   0  0  0  0  0  0  0  0  0  0  0  0
  -24.1650  -36.7640   23.0710 C   0  0  0  0  0  1  0  0  0  0  0  0
  -25.4050  -36.3590   23.8830 C   0  0  0  0  0  3  0  0  0  0  0  0
  -27.5430  -37.2350   24.7140 C   0  0  0  0  0  1  0  0  0  0  0  0
  -26.4400  -37.4110   23.7730 N   0  0  0  0  0  0  0  0  0  0  0  0
  -26.0370  -38.3300   23.9310 H   0  0  0  0  0  0  0  0  0  0  0  0
  -26.3920  -31.7490   25.1210 C   0  0  1  0  0  0  0  0  0  0  0  0
  -25.3080  -31.5090   26.1990 C   0  0  0  0  0  1  0  0  0  0  0  0
  -26.9700  -30.3730   24.7170 C   0  0  0  0  0  1  0  0  0  0  0  0
  -27.5510  -32.5410   25.7710 C   0  0  0  0  0  1  0  0  0  0  0  0
  1  2  1  0
  3  1  2  0
  4 10  1  0
  4  2  2  0
  5  6  2  0
  5  3  1  0
  6  4  1  0
  7  5  1  0
  8  6  1  0
 10  9  1  0
 10 11  1  0
 11 13  1  0
 11 12  1  0
 14 11  1  0
 14 15  1  0
 16 24  1  0
 17 22  1  0
 18 19  1  0
 18 17  1  0
 20 19  1  0
 20 29  1  0
 20 21  1  0
 22 16  1  0
 22 21  1  0
 23 16  2  0
 24 15  1  0
 24 25  1  0
 26 27  2  0
 27 46  1  0
 28 27  1  0
 28 31  1  0
 29 26  1  0
 29 30  1  0
 30 28  2  0
 31 32  1  0
 32 33  2  0
 34 37  1  0
 34 33  1  0
 35 34  2  0
 36 35  1  0
 36 31  2  0
 37 38  1  0
 38 39  1  0
 39 40  2  0
 41 40  1  0
 41 45  1  0
 42 41  2  0
 43 38  2  0
 43 42  1  0
 44 43  1  0
 46 47  1  0
 47 50  1  0
 47 49  1  0
 48 46  2  0
 51 52  1  0
 51 26  1  0
 53 51  1  0
 54  3  1  0
 54 55  1  0
 55 56  1  0
 56 57  1  0
 57 59  1  0
 58 69  2  0
 59 64  1  0
 60 68  1  0
 60 70  1  0
 61 67  1  0
 61 63  1  0
 62 68  1  0
 63 62  1  0
 64 63  2  0
 65 66  1  0
 65 59  2  0
 66 61  2  0
 67 60  1  0
 68 58  1  0
 70 72  2  0
 71 70  1  0
 73 71  1  0
 74 83  2  0
 74 79  1  0
 75 71  1  0
 75 79  1  0
 76 75  1  0
 77 78  1  0
 77 76  1  0
 78 74  1  0
 79 80  2  0
 80 81  1  0
 82 81  2  0
 83 82  1  0
 84 58  1  0
 84 85  1  0
 84 94  1  0
 85 88  1  0
 86 90  1  0
 86 85  1  0
 87 86  2  0
 90 89  1  0
 92 90  1  0
 92 93  1  0
 92 91  1  0
 94 97  1  1
 94 95  1  0
 96 94  1  0
M  ISO  4  16 100  24 100  56 101  57 101
M  END
>  <TORSDO>  (9) 
F 23

>  <SCORE>  (9) 
-12.798

>  <name>  (9) 
8

>  <ligand_id>  (9) 
8

>  <original_smiles>  (9) 
[H]c1c([H])c([H])c2c(c1[H])C([H])([H])C([H])([H])C([H])([H])C2([H])N([H])C(=O)C1([H])N(C(=O)C([H])(N([H])C(=O)C([H])(N([H])C([H])([H])[H])C([H])([H])[H])C(C([H])([H])[H])(C([H])([H])[H])C([H])([H])[H])C([H])([H])c2c([H])c(OC([H])([H])C([H])([H])C([H])([H])c3c([H])c([H])c(C([H])(C([H])([H])[H])[N+]([H])([H])C([H])([H])C([H])([H])N([H])C(=O)N4C([H])([H])C([H])([H])C([H])([H])C([H])(n5nc(-c6c([H])c([H])c(Oc7c([H])c([H])c(F)c([H])c7F)c([H])c6[H])c(C(=O)N([H])[H])c5N([H])[H])C4([H])[H])c(F)c3C([H])([H])[H])c([H])c([H])c2C1([H])[H]

>  <smiles>  (9) 
[H]c1c([H])c([H])c2c(c1[H])C([H])([H])C([H])([H])C([H])([H])C2([H])N([H])C(=O)C1([H])N(C(=O)C([H])(N([H])C(=O)C([H])(N([H])C([H])([H])[H])C([H])([H])[H])C(C([H])([H])[H])(C([H])([H])[H])C([H])([H])[H])C([H])([H])c2c([H])c(OC([H])([H])C([H])([H])C([H])([H])c3c([H])c([H])c(C([H])(C([H])([H])[H])[N+]([H])([H])C([H])([H])C([H])([H])N([H])C(=O)N4C([H])([H])C([H])([H])C([H])([H])C([H])(n5nc(-c6c([H])c([H])c(Oc7c([H])c([H])c(F)c([H])c7F)c([H])c6[H])c(C(=O)N([H])[H])c5N([H])[H])C4([H])[H])c(F)c3C([H])([H])[H])c([H])c([H])c2C1([H])[H]

$$$$
9:0:0
     RDKit          3D

 96105  0  0  1  0  0  0  0  0999 V2000
  -30.4690  -22.8090   21.9680 C   0  0  0  0  0  3  0  0  0  0  0  0
  -28.7260  -21.7490   20.6420 C   0  0  0  0  0  3  0  0  0  0  0  0
  -31.0370  -21.5480   22.2300 C   0  0  0  0  0  3  0  0  0  0  0  0
  -29.2900  -20.4870   20.9080 C   0  0  0  0  0  3  0  0  0  0  0  0
  -29.3090  -22.9270   21.1630 C   0  0  0  0  0  0  0  0  0  0  0  0
  -30.4460  -20.3840   21.7050 C   0  0  0  0  0  0  0  0  0  0  0  0
  -28.6540  -24.2390   20.8740 C   0  0  0  0  0  0  0  0  0  0  0  0
  -27.4450  -24.3380   20.6400 O   0  0  0  0  0  0  0  0  0  0  0  0
  -29.5170  -25.5070   20.8660 C   0  0  0  0  0  2  0  0  0  0  0  0
  -29.3330  -26.3680   19.6100 C   0  0  0  0  0  2  0  0  0  0  0  0
  -29.0840  -27.7070   20.0330 O   0  0  0  0  0  0  0  0  0  0  0  0
  -24.4140  -31.6930   23.6180 C   0  0  0  0  0  0  0  0  0  0  0  0
  -27.7860  -28.1540   20.1130 C   0  0  0  0  0  0  0  0  0  0  0  0
  -23.4770  -30.3560   21.7610 C   0  0  0  0  0  3  0  0  0  0  0  0
  -25.1820  -29.2460   20.2260 C   0  0  0  0  0  0  0  0  0  0  0  0
  -25.9200  -31.1070   21.7230 C   0  0  0  0  0  2  0  0  0  0  0  0
  -26.2290  -29.8570   20.9270 C   0  0  0  0  0  0  0  0  0  0  0  0
  -27.5300  -29.3160   20.8720 C   0  0  0  0  0  3  0  0  0  0  0  0
  -26.7170  -27.5500   19.4070 C   0  0  0  0  0  3  0  0  0  0  0  0
  -25.4180  -28.0850   19.4710 C   0  0  0  0  0  3  0  0  0  0  0  0
  -23.8230  -29.9000   20.3170 C   0  0  0  0  0  2  0  0  0  0  0  0
  -24.6180  -31.0600   22.4290 N   0  0  0  0  0  0  0  0  0  0  0  0
  -23.2900  -31.7320   24.1400 O   0  0  0  0  0  0  0  0  0  0  0  0
  -22.9670  -29.1320   22.5530 C   0  0  0  0  0  0  0  0  0  0  0  0
  -21.7220  -28.7160   22.2710 N   0  0  0  0  0  0  0  0  0  0  0  0
  -23.6900  -28.5620   23.3740 O   0  0  0  0  0  0  0  0  0  0  0  0
  -21.1920  -29.2430   21.5910 H   0  0  0  0  0  0  0  0  0  0  0  0
  -18.6850  -26.7640   22.1800 C   0  0  0  0  0  0  0  0  0  0  0  0
  -21.0450  -27.5630   22.8640 C   0  0  0  0  0  3  0  0  0  0  0  0
  -21.5590  -26.2380   22.2550 C   0  0  0  0  0  2  0  0  0  0  0  0
  -20.7220  -25.7560   21.0660 C   0  0  0  0  0  2  0  0  0  0  0  0
  -19.2650  -25.5420   21.4880 C   0  0  0  0  0  2  0  0  0  0  0  0
  -19.5230  -27.7210   22.8120 C   0  0  0  0  0  0  0  0  0  0  0  0
  -18.9370  -28.8560   23.4110 C   0  0  0  0  0  3  0  0  0  0  0  0
  -17.5420  -29.0440   23.3890 C   0  0  0  0  0  3  0  0  0  0  0  0
  -16.7160  -28.0860   22.7760 C   0  0  0  0  0  3  0  0  0  0  0  0
  -17.2860  -26.9470   22.1790 C   0  0  0  0  0  3  0  0  0  0  0  0
  -25.5740  -32.4200   24.3660 C   0  0  0  0  0  3  0  0  0  0  0  0
  -25.1970  -33.8330   24.5030 N   0  0  0  0  0  0  0  0  0  0  0  0
  -25.6510  -34.8200   23.7200 C   0  0  0  0  0  0  0  0  0  0  0  0
  -26.4990  -34.6430   22.8420 O   0  0  0  0  0  0  0  0  0  0  0  0
  -24.4680  -34.0430   25.1680 H   0  0  0  0  0  0  0  0  0  0  0  0
  -23.9870  -36.5120   22.8900 C   0  0  0  0  0  1  0  0  0  0  0  0
  -25.0680  -36.2280   23.9450 C   0  0  0  0  0  3  0  0  0  0  0  0
  -27.0240  -37.2380   25.0320 C   0  0  0  0  0  1  0  0  0  0  0  0
  -26.0890  -37.2980   23.9120 N   0  0  0  0  0  0  0  0  0  0  0  0
  -25.6510  -38.2150   23.9130 H   0  0  0  0  0  0  0  0  0  0  0  0
  -25.8960  -31.7900   25.7770 C   0  0  1  0  0  0  0  0  0  0  0  0
  -24.6450  -31.5760   26.6610 C   0  0  0  0  0  1  0  0  0  0  0  0
  -26.5990  -30.4220   25.6130 C   0  0  0  0  0  1  0  0  0  0  0  0
  -26.8740  -32.7040   26.5490 C   0  0  0  0  0  1  0  0  0  0  0  0
  -31.0480  -19.0250   21.9900 C   0  0  0  0  0  2  0  0  0  0  0  0
  -30.9800  -18.1000   20.7620 C   0  0  0  0  0  2  0  0  0  0  0  0
  -33.5200  -15.3210   21.2400 C   0  0  0  0  0  2  0  0  0  0  0  0
  -32.9630  -16.6920   21.6080 C   0  0  0  0  0  2  0  0  0  0  0  0
  -32.9910  -15.0820   19.8300 C   0  0  0  0  0  2  0  0  0  0  0  0
  -31.5430  -16.6890   21.0240 C   0  0  0  0  0  3  0  0  0  0  0  0
  -31.6420  -15.8270   19.7460 C   0  0  0  0  0  3  0  0  0  0  0  0
  -30.3210  -14.1780   18.4810 C   0  0  0  0  0  0  0  0  0  0  0  0
  -29.6760  -11.9790   17.5940 C   0  0  0  0  0  2  0  0  0  0  0  0
  -28.4030  -12.0290   16.7350 C   0  0  0  0  0  2  0  0  0  0  0  0
  -27.1630  -11.8490   17.6220 C   0  0  0  0  0  2  0  0  0  0  0  0
  -27.1600  -12.8130   18.8380 C   0  0  0  0  0  3  0  0  0  0  0  0
  -28.5170  -12.7960   19.5820 C   0  0  0  0  0  2  0  0  0  0  0  0
  -29.6030  -13.0360   18.6150 N   0  0  0  0  0  0  0  0  0  0  0  0
  -30.9160  -14.4790   17.4420 O   0  0  0  0  0  0  0  0  0  0  0  0
  -30.5420  -14.8650   19.6100 N   0  0  0  0  0  0  0  0  0  0  0  0
  -30.0650  -14.5580   20.4450 H   0  0  0  0  0  0  0  0  0  0  0  0
  -25.1980  -13.3950   20.4010 C   0  0  0  0  0  0  0  0  0  0  0  0
  -24.2790  -12.6130   21.0460 C   0  0  0  0  0  0  0  0  0  0  0  0
  -24.6110  -11.2630   20.7230 C   0  0  0  0  0  0  0  0  0  0  0  0
  -26.0420  -12.5210   19.7340 N   0  0  0  0  0  0  0  0  0  0  0  0
  -25.7090  -11.2260   19.9780 N   0  0  0  0  0  0  0  0  0  0  0  0
  -23.9170  -10.0060   21.0350 C   0  0  0  0  0  0  0  0  0  0  0  0
  -24.3840   -9.1340   22.0440 C   0  0  0  0  0  3  0  0  0  0  0  0
  -23.6900   -7.9410   22.3370 C   0  0  0  0  0  3  0  0  0  0  0  0
  -22.5140   -7.6090   21.6230 C   0  0  0  0  0  0  0  0  0  0  0  0
  -22.0660   -8.4690   20.6040 C   0  0  0  0  0  3  0  0  0  0  0  0
  -22.7620   -9.6530   20.3090 C   0  0  0  0  0  3  0  0  0  0  0  0
  -21.7890   -6.4600   21.8220 O   0  0  0  0  0  0  0  0  0  0  0  0
  -21.6740   -5.8870   23.0640 C   0  0  0  0  0  0  0  0  0  0  0  0
  -20.9590   -6.5100   24.1100 C   0  0  0  0  0  3  0  0  0  0  0  0
  -20.8070   -5.8540   25.3470 C   0  0  0  0  0  3  0  0  0  0  0  0
  -21.3620   -4.5760   25.5400 C   0  0  0  0  0  0  0  0  0  0  0  0
  -22.0700   -3.9510   24.4990 C   0  0  0  0  0  3  0  0  0  0  0  0
  -22.2240   -4.6040   23.2630 C   0  0  0  0  0  0  0  0  0  0  0  0
  -22.8900   -3.9890   22.2560 F   0  0  0  0  0  0  0  0  0  0  0  0
  -21.2100   -3.9420   26.7260 F   0  0  0  0  0  0  0  0  0  0  0  0
  -23.0990  -13.0920   21.8430 C   0  0  0  0  0  0  0  0  0  0  0  0
  -22.6600  -12.3050   22.8200 N   0  0  0  0  0  0  0  0  0  0  0  0
  -22.5890  -14.1910   21.6330 O   0  0  0  0  0  0  0  0  0  0  0  0
  -23.0900  -11.4110   23.0050 H   0  0  0  0  0  0  0  0  0  0  0  0
  -21.8820  -12.6030   23.3940 H   0  0  0  0  0  0  0  0  0  0  0  0
  -25.3780  -14.7730   20.3090 N   0  0  0  0  0  0  0  0  0  0  0  0
  -24.7460  -15.4350   20.7460 H   0  0  0  0  0  0  0  0  0  0  0  0
  -26.0980  -15.2180   19.7550 H   0  0  0  0  0  0  0  0  0  0  0  0
  1  3  1  0
  2  4  2  0
  2  5  1  0
  4  6  1  0
  5  1  2  0
  6 52  1  0
  6  3  2  0
  7  5  1  0
  8  7  2  0
  9  7  1  0
 10 11  1  0
 10  9  1  0
 11 13  1  0
 12 23  2  0
 13 18  1  0
 14 22  1  0
 14 24  1  0
 15 21  1  0
 15 17  1  0
 16 22  1  0
 17 16  1  0
 18 17  2  0
 19 20  1  0
 19 13  2  0
 20 15  2  0
 21 14  1  0
 22 12  1  0
 24 26  2  0
 25 24  1  0
 27 25  1  0
 28 33  1  0
 29 25  1  0
 30 29  1  0
 31 32  1  0
 31 30  1  0
 32 28  1  0
 33 29  1  0
 33 34  2  0
 35 34  1  0
 36 35  2  0
 37 28  2  0
 37 36  1  0
 38 12  1  0
 38 39  1  0
 38 48  1  0
 39 42  1  0
 40 44  1  0
 40 39  1  0
 41 40  2  0
 44 43  1  0
 46 47  1  0
 46 44  1  0
 46 45  1  0
 48 51  1  1
 48 49  1  0
 50 48  1  0
 53 52  1  0
 54 55  1  0
 56 54  1  0
 57 53  1  0
 57 55  1  0
 58 67  1  0
 58 56  1  0
 58 57  1  0
 59 65  1  0
 59 67  1  0
 60 65  1  0
 61 60  1  0
 61 62  1  0
 63 62  1  0
 63 64  1  0
 63 72  1  0
 65 64  1  0
 66 59  2  0
 67 68  1  0
 69 70  2  0
 70 89  1  0
 71 74  1  0
 71 70  1  0
 72 73  1  0
 72 69  1  0
 73 71  2  0
 74 75  1  0
 75 76  2  0
 77 80  1  0
 77 76  1  0
 78 77  2  0
 79 78  1  0
 79 74  2  0
 80 81  1  0
 81 86  2  0
 81 82  1  0
 82 83  2  0
 83 84  1  0
 84 88  1  0
 85 84  2  0
 86 85  1  0
 87 86  1  0
 89 90  1  0
 90 92  1  0
 90 93  1  0
 91 89  2  0
 94 69  1  0
 94 95  1  0
 96 94  1  0
M  ISO  4  10 101  11 101  59 100  67 100
M  END
>  <TORSDO>  (10) 
F 22

>  <SCORE>  (10) 
-1.889

>  <name>  (10) 
9

>  <ligand_id>  (10) 
9

>  <original_smiles>  (10) 
[H]c1c([H])c([H])c2c(c1[H])C([H])([H])C([H])([H])C([H])([H])C2([H])N([H])C(=O)C1([H])N(C(=O)C([H])(N([H])C(=O)C([H])(N([H])C([H])([H])[H])C([H])([H])[H])C(C([H])([H])[H])(C([H])([H])[H])C([H])([H])[H])C([H])([H])c2c([H])c(OC([H])([H])C([H])([H])C(=O)c3c([H])c([H])c(C([H])([H])C([H])([H])C4([H])C([H])([H])C([H])([H])C([H])([H])C4([H])N([H])C(=O)N4C([H])([H])C([H])([H])C([H])([H])C([H])(n5nc(-c6c([H])c([H])c(Oc7c([H])c([H])c(F)c([H])c7F)c([H])c6[H])c(C(=O)N([H])[H])c5N([H])[H])C4([H])[H])c([H])c3[H])c([H])c([H])c2C1([H])[H]

>  <smiles>  (10) 
[H]c1c([H])c([H])c2c(c1[H])C([H])([H])C([H])([H])C([H])([H])C2([H])N([H])C(=O)C1([H])N(C(=O)C([H])(N([H])C(=O)C([H])(N([H])C([H])([H])[H])C([H])([H])[H])C(C([H])([H])[H])(C([H])([H])[H])C([H])([H])[H])C([H])([H])c2c([H])c(OC([H])([H])C([H])([H])C(=O)c3c([H])c([H])c(C([H])([H])C([H])([H])C4([H])C([H])([H])C([H])([H])C([H])([H])C4([H])N([H])C(=O)N4C([H])([H])C([H])([H])C([H])([H])C([H])(n5nc(-c6c([H])c([H])c(Oc7c([H])c([H])c(F)c([H])c7F)c([H])c6[H])c(C(=O)N([H])[H])c5N([H])[H])C4([H])[H])c([H])c3[H])c([H])c([H])c2C1([H])[H]

$$$$
10:0:0
     RDKit          3D

 94102  0  0  1  0  0  0  0  0999 V2000
  -32.1600  -15.4560   20.3650 C   0  0  0  0  0  3  0  0  0  0  0  0
  -33.4290  -16.3160   19.1410 C   0  0  0  0  0  1  0  0  0  0  0  0
  -29.7030  -17.3340   18.9480 C   0  0  0  0  0  2  0  0  0  0  0  0
  -30.2480  -15.9770   20.2470 C   0  0  0  0  0  2  0  0  0  0  0  0
  -32.7780  -17.7020   17.8890 C   0  0  0  0  0  2  0  0  0  0  0  0
  -30.9520  -18.3200   17.8950 C   0  0  0  0  0  3  0  0  0  0  0  0
  -33.7690  -18.3780   16.9670 C   0  0  0  0  0  1  0  0  0  0  0  0
  -29.5560  -16.0060   21.5560 C   0  0  0  0  0  3  0  0  0  0  0  0
  -30.2270  -17.2380   22.1220 C   0  0  0  0  0  2  0  0  0  0  0  0
  -33.0070  -14.4520   20.2230 C   0  0  0  0  0  0  0  0  0  0  0  0
  -32.9630  -11.6670   20.7520 C   0  0  0  0  0  2  0  0  0  0  0  0
  -32.1180  -10.6970   19.8380 C   0  0  0  0  0  2  0  0  0  0  0  0
  -30.6000  -10.7200   20.1090 C   0  0  0  0  0  2  0  0  0  0  0  0
  -30.1670  -12.1560   20.4450 C   0  0  0  0  0  3  0  0  0  0  0  0
  -31.1180  -12.7140   21.5240 C   0  0  0  0  0  2  0  0  0  0  0  0
  -32.4120  -13.1350   20.8220 N   0  0  0  0  0  0  0  0  0  0  0  0
  -34.0590  -13.8610   19.8090 O   0  0  0  0  0  0  0  0  0  0  0  0
  -32.7560  -19.5150   20.8000 C   0  0  0  0  0  2  0  0  0  0  0  0
  -31.4960  -19.2550   21.5060 C   0  0  0  0  0  2  0  0  0  0  0  0
  -33.4420  -18.2060   21.1270 C   0  0  0  0  0  2  0  0  0  0  0  0
  -31.2830  -17.8000   21.1080 C   0  0  0  0  0  3  0  0  0  0  0  0
  -32.5980  -16.9040   20.7860 N   0  0  0  0  0  0  0  0  0  0  0  0
  -28.0170  -13.4390   20.9450 C   0  0  0  0  0  0  0  0  0  0  0  0
  -26.7300  -13.0470   21.1730 C   0  0  0  0  0  0  0  0  0  0  0  0
  -26.7290  -11.6240   21.0670 C   0  0  0  0  0  0  0  0  0  0  0  0
  -28.7490  -12.2750   20.7700 N   0  0  0  0  0  0  0  0  0  0  0  0
  -27.9680  -11.1700   20.8830 N   0  0  0  0  0  0  0  0  0  0  0  0
  -25.6060  -10.6760   21.0620 C   0  0  0  0  0  0  0  0  0  0  0  0
  -25.5780   -9.5550   21.9200 C   0  0  0  0  0  3  0  0  0  0  0  0
  -24.4770   -8.6710   21.9070 C   0  0  0  0  0  3  0  0  0  0  0  0
  -23.3850   -8.9080   21.0350 C   0  0  0  0  0  0  0  0  0  0  0  0
  -23.4290  -10.0150   20.1690 C   0  0  0  0  0  3  0  0  0  0  0  0
  -24.5290  -10.8880   20.1790 C   0  0  0  0  0  3  0  0  0  0  0  0
  -22.2840   -8.0930   20.9430 O   0  0  0  0  0  0  0  0  0  0  0  0
  -21.8650   -7.3260   21.9990 C   0  0  0  0  0  0  0  0  0  0  0  0
  -21.4740   -7.8990   23.2300 C   0  0  0  0  0  3  0  0  0  0  0  0
  -20.9890   -7.0770   24.2660 C   0  0  0  0  0  3  0  0  0  0  0  0
  -20.8810   -5.6890   24.0700 C   0  0  0  0  0  0  0  0  0  0  0  0
  -21.2620   -5.1160   22.8460 C   0  0  0  0  0  3  0  0  0  0  0  0
  -21.7510   -5.9320   21.8110 C   0  0  0  0  0  0  0  0  0  0  0  0
  -22.1000   -5.3790   20.6260 F   0  0  0  0  0  0  0  0  0  0  0  0
  -20.4040   -4.8990   25.0640 F   0  0  0  0  0  0  0  0  0  0  0  0
  -25.5490  -13.9570   21.3490 C   0  0  0  0  0  0  0  0  0  0  0  0
  -24.5680  -13.5480   22.1460 N   0  0  0  0  0  0  0  0  0  0  0  0
  -25.5130  -15.0660   20.8160 O   0  0  0  0  0  0  0  0  0  0  0  0
  -24.5960  -12.6410   22.5880 H   0  0  0  0  0  0  0  0  0  0  0  0
  -23.7660  -14.1410   22.2920 H   0  0  0  0  0  0  0  0  0  0  0  0
  -28.6150  -14.6890   20.8240 N   0  0  0  0  0  4  0  0  0  0  0  0
  -28.0510  -15.5320   20.8140 H   0  0  0  0  0  0  0  0  0  0  0  0
  -29.5580  -14.8400   20.4930 H   0  0  0  0  0  0  0  0  0  0  0  0
  -30.5430  -20.0930   17.3720 C   0  0  0  0  0  2  0  0  0  0  0  0
  -30.2760  -21.9380   17.9960 C   0  0  0  0  0  1  0  0  0  0  0  0
  -29.5430  -23.6840   17.4330 C   0  0  0  0  0  1  0  0  0  0  0  0
  -29.3880  -25.4150   17.8390 O   0  0  0  0  0  0  0  0  0  0  0  0
  -25.0370  -30.3820   21.9460 C   0  0  0  0  0  0  0  0  0  0  0  0
  -28.2880  -26.5250   17.9560 C   0  0  0  0  0  0  0  0  0  0  0  0
  -24.1040  -29.3850   19.9020 C   0  0  0  0  0  3  0  0  0  0  0  0
  -25.8080  -28.3080   18.2290 C   0  0  0  0  0  0  0  0  0  0  0  0
  -26.6550  -29.7630   20.0500 C   0  0  0  0  0  2  0  0  0  0  0  0
  -26.9150  -28.5730   19.0440 C   0  0  0  0  0  0  0  0  0  0  0  0
  -28.1290  -27.7170   18.8850 C   0  0  0  0  0  3  0  0  0  0  0  0
  -27.1310  -26.4810   17.1310 C   0  0  0  0  0  3  0  0  0  0  0  0
  -25.9600  -27.2990   17.2560 C   0  0  0  0  0  3  0  0  0  0  0  0
  -24.5010  -29.1020   18.4200 C   0  0  0  0  0  2  0  0  0  0  0  0
  -25.2810  -29.8630   20.6940 N   0  0  0  0  0  0  0  0  0  0  0  0
  -23.8880  -30.4450   22.4170 O   0  0  0  0  0  0  0  0  0  0  0  0
  -23.4230  -28.1310   20.5160 C   0  0  0  0  0  0  0  0  0  0  0  0
  -22.1150  -27.9290   20.2570 N   0  0  0  0  0  0  0  0  0  0  0  0
  -24.0840  -27.3470   21.1990 O   0  0  0  0  0  0  0  0  0  0  0  0
  -21.6240  -28.6170   19.7020 H   0  0  0  0  0  0  0  0  0  0  0  0
  -18.8440  -26.3490   20.1160 C   0  0  0  0  0  0  0  0  0  0  0  0
  -21.3370  -26.7540   20.6780 C   0  0  0  0  0  3  0  0  0  0  0  0
  -21.6320  -25.5390   19.7640 C   0  0  0  0  0  2  0  0  0  0  0  0
  -20.6400  -25.4050   18.6080 C   0  0  0  0  0  2  0  0  0  0  0  0
  -19.2080  -25.2530   19.1300 C   0  0  0  0  0  2  0  0  0  0  0  0
  -19.8420  -27.0630   20.8330 C   0  0  0  0  0  0  0  0  0  0  0  0
  -19.4430  -28.0880   21.7190 C   0  0  0  0  0  3  0  0  0  0  0  0
  -18.0820  -28.4050   21.8890 C   0  0  0  0  0  3  0  0  0  0  0  0
  -17.0990  -27.6870   21.1860 C   0  0  0  0  0  3  0  0  0  0  0  0
  -17.4820  -26.6580   20.3060 C   0  0  0  0  0  3  0  0  0  0  0  0
  -26.1800  -30.9350   22.8500 C   0  0  0  0  0  3  0  0  0  0  0  0
  -25.6590  -32.0920   23.6080 N   0  0  0  0  0  0  0  0  0  0  0  0
  -25.9830  -33.3720   23.3810 C   0  0  0  0  0  0  0  0  0  0  0  0
  -26.8030  -33.7060   22.5250 O   0  0  0  0  0  0  0  0  0  0  0  0
  -24.9360  -31.8940   24.2840 H   0  0  0  0  0  0  0  0  0  0  0  0
  -24.1920  -35.1430   23.4090 C   0  0  0  0  0  1  0  0  0  0  0  0
  -25.2890  -34.4550   24.2370 C   0  0  0  0  0  3  0  0  0  0  0  0
  -27.1180  -34.9560   25.8000 C   0  0  0  0  0  1  0  0  0  0  0  0
  -26.2210  -35.4740   24.7700 N   0  0  0  0  0  0  0  0  0  0  0  0
  -25.7120  -36.2630   25.1610 H   0  0  0  0  0  0  0  0  0  0  0  0
  -26.7490  -29.8560   23.8540 C   0  0  1  0  0  0  0  0  0  0  0  0
  -25.6600  -29.1620   24.7080 C   0  0  0  0  0  1  0  0  0  0  0  0
  -27.5190  -28.7500   23.1010 C   0  0  0  0  0  1  0  0  0  0  0  0
  -27.7680  -30.5190   24.8110 C   0  0  0  0  0  1  0  0  0  0  0  0
  1  2  1  0
  1 22  1  0
  3  4  1  0
  5  6  1  0
  6  3  1  0
  7  5  1  0
  8  4  1  0
  8  9  1  0
 10  1  1  0
 10 16  1  0
 11 16  1  0
 12 13  1  0
 12 11  1  0
 14 13  1  0
 14 26  1  0
 14 15  1  0
 16 15  1  0
 17 10  2  0
 18 20  1  0
 18 19  1  0
 21 19  1  0
 21  9  1  0
 22 21  1  0
 22 20  1  0
 23 24  2  0
 24 43  1  0
 25 24  1  0
 26 27  1  0
 26 23  1  0
 27 25  2  0
 28 25  1  0
 28 29  1  0
 30 29  2  0
 31 30  1  0
 32 33  1  0
 32 31  2  0
 33 28  2  0
 34 31  1  0
 34 35  1  0
 35 36  1  0
 36 37  2  0
 38 37  1  0
 38 42  1  0
 39 38  2  0
 40 35  2  0
 40 39  1  0
 41 40  1  0
 43 44  1  0
 44 47  1  0
 44 46  1  0
 45 43  2  0
 48 23  1  0
 48  8  1  0
 49 48  1  0
 50 48  1  0
 51  6  1  0
 51 52  1  0
 53 54  1  0
 54 56  1  0
 55 66  2  0
 56 61  1  0
 57 67  1  0
 57 65  1  0
 58 64  1  0
 58 60  1  0
 59 65  1  0
 60 59  1  0
 61 60  2  0
 62 63  1  0
 62 56  2  0
 63 58  2  0
 64 57  1  0
 65 55  1  0
 67 69  2  0
 68 67  1  0
 70 68  1  0
 71 80  2  0
 71 76  1  0
 72 68  1  0
 72 76  1  0
 73 72  1  0
 74 75  1  0
 74 73  1  0
 75 71  1  0
 76 77  2  0
 77 78  1  0
 79 78  2  0
 80 79  1  0
 81 55  1  0
 81 82  1  0
 81 91  1  0
 82 85  1  0
 83 82  1  0
 83 87  1  0
 84 83  2  0
 87 86  1  0
 87 89  1  0
 89 90  1  0
 89 88  1  0
 91 92  1  1
 91 94  1  0
 93 91  1  0
M  ISO  4  10 100  22 100  53 101  54 101
M  END
>  <TORSDO>  (11) 
F 21

>  <SCORE>  (11) 
-7.453

>  <name>  (11) 
10

>  <ligand_id>  (11) 
10

>  <original_smiles>  (11) 
[H]c1c([H])c([H])c2c(c1[H])C([H])([H])C([H])([H])C([H])([H])C2([H])N([H])C(=O)C1([H])N(C(=O)C([H])(N([H])C(=O)C([H])(N([H])C([H])([H])[H])C([H])([H])[H])C(C([H])([H])[H])(C([H])([H])[H])C([H])([H])[H])C([H])([H])c2c([H])c(OC([H])([H])C([H])([H])C([H])([H])c3c([H])c(C([H])([H])C([H])([H])C4([H])N(C(=O)N5C([H])([H])C([H])([H])C([H])([H])C([H])(n6nc(-c7c([H])c([H])c(Oc8c([H])c([H])c(F)c([H])c8F)c([H])c7[H])c(C(=O)N([H])[H])c6N([H])[H])C5([H])[H])C([H])([H])C([H])([H])C4([H])[H])c([H])c([H])c3C([H])([H])[H])c([H])c([H])c2C1([H])[H]

>  <smiles>  (11) 
[H]c1c([H])c([H])c2c(c1[H])C([H])([H])C([H])([H])C([H])([H])C2([H])N([H])C(=O)C1([H])N(C(=O)C([H])(N([H])C(=O)C([H])(N([H])C([H])([H])[H])C([H])([H])[H])C(C([H])([H])[H])(C([H])([H])[H])C([H])([H])[H])C([H])([H])c2c([H])c(OC([H])([H])C([H])([H])C([H])([H])c3c([H])c(C([H])([H])C([H])([H])C4([H])N(C(=O)N5C([H])([H])C([H])([H])C([H])([H])C([H])(n6nc(-c7c([H])c([H])c(Oc8c([H])c([H])c(F)c([H])c8F)c([H])c7[H])c(C(=O)N([H])[H])c6N([H])[H])C5([H])[H])C([H])([H])C([H])([H])C4([H])[H])c([H])c([H])c3C([H])([H])[H])c([H])c([H])c2C1([H])[H]

$$$$
11:0:0
     RDKit          3D

 95104  0  0  1  0  0  0  0  0999 V2000
  -31.9230  -22.0510   20.7830 C   0  0  0  0  0  0  0  0  0  0  0  0
  -31.2880  -23.1200   20.2790 N   0  0  0  0  0  0  0  0  0  0  0  0
  -33.0940  -22.1850   21.1430 O   0  0  0  0  0  0  0  0  0  0  0  0
  -31.8960  -23.9250   20.2140 H   0  0  0  0  0  0  0  0  0  0  0  0
  -30.4770  -20.0910   19.9370 C   0  0  0  0  0  3  0  0  0  0  0  0
  -29.9900  -18.7590   20.0800 C   0  0  0  0  0  3  0  0  0  0  0  0
  -31.5610  -19.9620   22.1230 C   0  0  0  0  0  3  0  0  0  0  0  0
  -31.2590  -20.7030   20.9560 C   0  0  0  0  0  0  0  0  0  0  0  0
  -30.3070  -18.0480   21.2590 C   0  0  0  0  0  0  0  0  0  0  0  0
  -31.0830  -18.6470   22.2480 C   0  0  0  0  0  0  0  0  0  0  0  0
  -31.3350  -17.7080   23.4030 C   0  0  0  0  0  2  0  0  0  0  0  0
  -30.8840  -16.3410   22.8520 C   0  0  0  0  0  2  0  0  0  0  0  0
  -29.8660  -16.6700   21.7360 C   0  0  0  0  0  3  0  0  0  0  0  0
  -30.3060  -14.6840   20.1700 C   0  0  0  0  0  0  0  0  0  0  0  0
  -30.0730  -12.5730   18.8990 C   0  0  0  0  0  2  0  0  0  0  0  0
  -29.0410  -12.7550   17.7670 C   0  0  0  0  0  2  0  0  0  0  0  0
  -27.6010  -12.5260   18.2720 C   0  0  0  0  0  2  0  0  0  0  0  0
  -27.2940  -13.3040   19.5790 C   0  0  0  0  0  3  0  0  0  0  0  0
  -28.4220  -13.0720   20.6080 C   0  0  0  0  0  2  0  0  0  0  0  0
  -29.6920  -13.4870   19.9810 N   0  0  0  0  0  0  0  0  0  0  0  0
  -31.4200  -14.9640   19.7150 O   0  0  0  0  0  0  0  0  0  0  0  0
  -29.5390  -15.5760   20.8150 N   0  0  0  0  0  0  0  0  0  0  0  0
  -28.5940  -15.2380   20.9230 H   0  0  0  0  0  0  0  0  0  0  0  0
  -24.8950  -13.7770   20.3920 C   0  0  0  0  0  0  0  0  0  0  0  0
  -23.8900  -12.9450   20.8070 C   0  0  0  0  0  0  0  0  0  0  0  0
  -24.4290  -11.6210   20.7580 C   0  0  0  0  0  0  0  0  0  0  0  0
  -25.9790  -12.9570   20.1180 N   0  0  0  0  0  0  0  0  0  0  0  0
  -25.7040  -11.6560   20.3960 N   0  0  0  0  0  0  0  0  0  0  0  0
  -23.7870  -10.3210   20.9770 C   0  0  0  0  0  0  0  0  0  0  0  0
  -24.2820   -9.4030   21.9280 C   0  0  0  0  0  3  0  0  0  0  0  0
  -23.6350   -8.1660   22.1310 C   0  0  0  0  0  3  0  0  0  0  0  0
  -22.4790   -7.8380   21.3850 C   0  0  0  0  0  0  0  0  0  0  0  0
  -22.0070   -8.7440   20.4180 C   0  0  0  0  0  3  0  0  0  0  0  0
  -22.6550   -9.9730   20.2140 C   0  0  0  0  0  3  0  0  0  0  0  0
  -21.8010   -6.6490   21.4990 O   0  0  0  0  0  0  0  0  0  0  0  0
  -21.7690   -5.9470   22.6770 C   0  0  0  0  0  0  0  0  0  0  0  0
  -21.2700   -6.5150   23.8700 C   0  0  0  0  0  3  0  0  0  0  0  0
  -21.1900   -5.7350   25.0400 C   0  0  0  0  0  3  0  0  0  0  0  0
  -21.6010   -4.3880   25.0210 C   0  0  0  0  0  0  0  0  0  0  0  0
  -22.0920   -3.8200   23.8330 C   0  0  0  0  0  3  0  0  0  0  0  0
  -22.1740   -4.5970   22.6630 C   0  0  0  0  0  0  0  0  0  0  0  0
  -22.6280   -4.0360   21.5170 F   0  0  0  0  0  0  0  0  0  0  0  0
  -21.5180   -3.6380   26.1430 F   0  0  0  0  0  0  0  0  0  0  0  0
  -22.4810  -13.3410   21.1370 C   0  0  0  0  0  0  0  0  0  0  0  0
  -21.8330  -12.6090   22.0380 N   0  0  0  0  0  0  0  0  0  0  0  0
  -21.9600  -14.3360   20.6320 O   0  0  0  0  0  0  0  0  0  0  0  0
  -22.2640  -11.8060   22.4700 H   0  0  0  0  0  0  0  0  0  0  0  0
  -20.8910  -12.8600   22.3040 H   0  0  0  0  0  0  0  0  0  0  0  0
  -24.9690  -15.1560   20.2060 N   0  0  0  0  0  0  0  0  0  0  0  0
  -24.1610  -15.7550   20.3340 H   0  0  0  0  0  0  0  0  0  0  0  0
  -25.7630  -15.6510   19.8160 H   0  0  0  0  0  0  0  0  0  0  0  0
  -29.8880  -23.4070   19.9780 C   0  0  0  0  0  2  0  0  0  0  0  0
  -29.7270  -24.9460   20.0260 C   0  0  0  0  0  2  0  0  0  0  0  0
  -28.3420  -25.5210   19.6930 C   0  0  0  0  0  2  0  0  0  0  0  0
  -28.3880  -26.9210   19.9900 O   0  0  0  0  0  0  0  0  0  0  0  0
  -24.6490  -31.9340   23.3690 C   0  0  0  0  0  0  0  0  0  0  0  0
  -27.2000  -27.6180   20.0510 C   0  0  0  0  0  0  0  0  0  0  0  0
  -23.4040  -30.6190   21.6880 C   0  0  0  0  0  3  0  0  0  0  0  0
  -24.8150  -29.1320   20.1760 C   0  0  0  0  0  0  0  0  0  0  0  0
  -25.9290  -30.9670   21.4600 C   0  0  0  0  0  2  0  0  0  0  0  0
  -25.9870  -29.6230   20.7640 C   0  0  0  0  0  0  0  0  0  0  0  0
  -27.1800  -28.8720   20.7010 C   0  0  0  0  0  3  0  0  0  0  0  0
  -26.0060  -27.1350   19.4700 C   0  0  0  0  0  3  0  0  0  0  0  0
  -24.8160  -27.8830   19.5320 C   0  0  0  0  0  3  0  0  0  0  0  0
  -23.5820  -30.0010   20.2760 C   0  0  0  0  0  2  0  0  0  0  0  0
  -24.6810  -31.1880   22.2300 N   0  0  0  0  0  0  0  0  0  0  0  0
  -23.5790  -32.1870   23.9440 O   0  0  0  0  0  0  0  0  0  0  0  0
  -22.7610  -29.5590   22.6120 C   0  0  0  0  0  0  0  0  0  0  0  0
  -21.4380  -29.3700   22.4730 N   0  0  0  0  0  0  0  0  0  0  0  0
  -23.4470  -28.9140   23.4090 O   0  0  0  0  0  0  0  0  0  0  0  0
  -20.9440  -29.9460   21.8030 H   0  0  0  0  0  0  0  0  0  0  0  0
  -18.0760  -28.1100   22.8880 C   0  0  0  0  0  0  0  0  0  0  0  0
  -20.6250  -28.4000   23.2040 C   0  0  0  0  0  3  0  0  0  0  0  0
  -20.7580  -26.9860   22.5930 C   0  0  0  0  0  2  0  0  0  0  0  0
  -19.6750  -26.6730   21.5560 C   0  0  0  0  0  2  0  0  0  0  0  0
  -18.2810  -26.7800   22.1820 C   0  0  0  0  0  2  0  0  0  0  0  0
  -19.1770  -28.8780   23.3540 C   0  0  0  0  0  0  0  0  0  0  0  0
  -18.9300  -30.1220   23.9740 C   0  0  0  0  0  3  0  0  0  0  0  0
  -17.6150  -30.6010   24.1330 C   0  0  0  0  0  3  0  0  0  0  0  0
  -16.5290  -29.8310   23.6840 C   0  0  0  0  0  3  0  0  0  0  0  0
  -16.7600  -28.5870   23.0680 C   0  0  0  0  0  3  0  0  0  0  0  0
  -25.9510  -32.5260   23.9970 C   0  0  0  0  0  3  0  0  0  0  0  0
  -26.4490  -31.7260   25.2650 C   0  0  1  0  0  0  0  0  0  0  0  0
  -25.3530  -31.5020   26.3300 C   0  0  0  0  0  1  0  0  0  0  0  0
  -27.0000  -30.3380   24.8530 C   0  0  0  0  0  1  0  0  0  0  0  0
  -27.6160  -32.4860   25.9380 C   0  0  0  0  0  1  0  0  0  0  0  0
  -25.6810  -33.9290   24.3380 N   0  0  0  0  0  0  0  0  0  0  0  0
  -26.0220  -34.9740   23.5720 C   0  0  0  0  0  0  0  0  0  0  0  0
  -26.6680  -34.8560   22.5260 O   0  0  0  0  0  0  0  0  0  0  0  0
  -25.1110  -34.0970   25.1530 H   0  0  0  0  0  0  0  0  0  0  0  0
  -24.3180  -36.7980   23.2670 C   0  0  0  0  0  1  0  0  0  0  0  0
  -25.5770  -36.3730   24.0390 C   0  0  0  0  0  3  0  0  0  0  0  0
  -27.7500  -37.2240   24.7990 C   0  0  0  0  0  1  0  0  0  0  0  0
  -26.6240  -37.4050   23.8880 N   0  0  0  0  0  0  0  0  0  0  0  0
  -26.2380  -38.3330   24.0370 H   0  0  0  0  0  0  0  0  0  0  0  0
  1  8  1  0
  1  3  2  0
  2  1  1  0
  4  2  1  0
  5  6  2  0
  5  8  1  0
  6  9  1  0
  7 10  1  0
  8  7  2  0
  9 13  1  0
  9 10  2  0
 10 11  1  0
 12 11  1  0
 13 22  1  0
 13 12  1  0
 14 22  1  0
 15 20  1  0
 16 17  1  0
 16 15  1  0
 18 17  1  0
 18 27  1  0
 18 19  1  0
 20 14  1  0
 20 19  1  0
 21 14  2  0
 22 23  1  0
 24 25  2  0
 25 44  1  0
 26 25  1  0
 26 29  1  0
 27 24  1  0
 27 28  1  0
 28 26  2  0
 29 30  1  0
 30 31  2  0
 32 35  1  0
 32 31  1  0
 33 32  2  0
 34 33  1  0
 34 29  2  0
 35 36  1  0
 36 37  1  0
 37 38  2  0
 39 38  1  0
 39 43  1  0
 40 39  2  0
 41 36  2  0
 41 40  1  0
 42 41  1  0
 44 45  1  0
 45 48  1  0
 45 47  1  0
 46 44  2  0
 49 50  1  0
 49 24  1  0
 51 49  1  0
 52 53  1  0
 52  2  1  0
 54 55  1  0
 54 53  1  0
 55 57  1  0
 56 67  2  0
 57 62  1  0
 58 66  1  0
 58 68  1  0
 59 65  1  0
 59 61  1  0
 60 66  1  0
 61 60  1  0
 62 61  2  0
 63 64  1  0
 63 57  2  0
 64 59  2  0
 65 58  1  0
 66 56  1  0
 68 70  2  0
 69 68  1  0
 71 69  1  0
 72 81  2  0
 72 77  1  0
 73 69  1  0
 73 77  1  0
 74 73  1  0
 75 76  1  0
 75 74  1  0
 76 72  1  0
 77 78  2  0
 78 79  1  0
 80 79  2  0
 81 80  1  0
 82 56  1  0
 82 87  1  0
 82 83  1  0
 83 86  1  1
 83 84  1  0
 85 83  1  0
 87 90  1  0
 88 92  1  0
 88 87  1  0
 89 88  2  0
 92 91  1  0
 94 95  1  0
 94 92  1  0
 94 93  1  0
M  ISO  4  14 100  22 100  54 101  55 101
M  END
>  <TORSDO>  (12) 
F 20

>  <SCORE>  (12) 
-11.981

>  <name>  (12) 
11

>  <ligand_id>  (12) 
11

>  <original_smiles>  (12) 
[H]c1c([H])c([H])c2c(c1[H])C([H])([H])C([H])([H])C([H])([H])C2([H])N([H])C(=O)C1([H])N(C(=O)C([H])(N([H])C(=O)C([H])(N([H])C([H])([H])[H])C([H])([H])[H])C(C([H])([H])[H])(C([H])([H])[H])C([H])([H])[H])C([H])([H])c2c([H])c(OC([H])([H])C([H])([H])C([H])([H])N([H])C(=O)c3c([H])c([H])c4c(c3[H])C([H])([H])C([H])([H])C4([H])N([H])C(=O)N3C([H])([H])C([H])([H])C([H])([H])C([H])(n4nc(-c5c([H])c([H])c(Oc6c([H])c([H])c(F)c([H])c6F)c([H])c5[H])c(C(=O)N([H])[H])c4N([H])[H])C3([H])[H])c([H])c([H])c2C1([H])[H]

>  <smiles>  (12) 
[H]c1c([H])c([H])c2c(c1[H])C([H])([H])C([H])([H])C([H])([H])C2([H])N([H])C(=O)C1([H])N(C(=O)C([H])(N([H])C(=O)C([H])(N([H])C([H])([H])[H])C([H])([H])[H])C(C([H])([H])[H])(C([H])([H])[H])C([H])([H])[H])C([H])([H])c2c([H])c(OC([H])([H])C([H])([H])C([H])([H])N([H])C(=O)c3c([H])c([H])c4c(c3[H])C([H])([H])C([H])([H])C4([H])N([H])C(=O)N3C([H])([H])C([H])([H])C([H])([H])C([H])(n4nc(-c5c([H])c([H])c(Oc6c([H])c([H])c(F)c([H])c6F)c([H])c5[H])c(C(=O)N([H])[H])c4N([H])[H])C3([H])[H])c([H])c([H])c2C1([H])[H]

$$$$
12:0:0
     RDKit          3D

 92 99  0  0  1  0  0  0  0  0999 V2000
  -29.1620  -22.4050   17.6800 N   0  0  0  0  0  4  0  0  0  0  0  0
  -29.8780  -22.3370   18.3870 H   0  0  0  0  0  0  0  0  0  0  0  0
  -29.5750  -22.8980   16.9050 H   0  0  0  0  0  0  0  0  0  0  0  0
  -27.7740  -21.0080   16.0770 C   0  0  0  0  0  1  0  0  0  0  0  0
  -28.8270  -21.0240   17.2080 C   0  0  0  0  0  3  0  0  0  0  0  0
  -28.3650  -20.0680   18.3410 C   0  0  0  0  0  2  0  0  0  0  0  0
  -29.4720  -19.4360   19.2170 C   0  0  0  0  0  2  0  0  0  0  0  0
  -28.8790  -18.4470   20.2510 C   0  0  0  0  0  2  0  0  0  0  0  0
  -29.8580  -17.7530   21.2410 C   0  0  0  0  0  2  0  0  0  0  0  0
  -30.9140  -16.7420   20.6880 C   0  0  0  0  0  2  0  0  0  0  0  0
  -31.2140  -14.2770   20.1510 C   0  0  0  0  0  0  0  0  0  0  0  0
  -30.8370  -12.1770   18.9150 C   0  0  0  0  0  2  0  0  0  0  0  0
  -29.8510  -12.4270   17.7560 C   0  0  0  0  0  2  0  0  0  0  0  0
  -28.3820  -12.3680   18.2250 C   0  0  0  0  0  2  0  0  0  0  0  0
  -28.1300  -13.2050   19.5080 C   0  0  0  0  0  3  0  0  0  0  0  0
  -29.1880  -12.8750   20.5830 C   0  0  0  0  0  2  0  0  0  0  0  0
  -30.5100  -13.1250   19.9920 N   0  0  0  0  0  0  0  0  0  0  0  0
  -32.3840  -14.4000   19.7810 O   0  0  0  0  0  0  0  0  0  0  0  0
  -30.4710  -15.3390   20.5560 N   0  0  0  0  0  0  0  0  0  0  0  0
  -29.5000  -15.1370   20.7430 H   0  0  0  0  0  0  0  0  0  0  0  0
  -25.7930  -13.9780   20.2600 C   0  0  0  0  0  0  0  0  0  0  0  0
  -24.6870  -13.2820   20.6600 C   0  0  0  0  0  0  0  0  0  0  0  0
  -25.0620  -11.9030   20.6440 C   0  0  0  0  0  0  0  0  0  0  0  0
  -26.7740  -13.0300   20.0200 N   0  0  0  0  0  0  0  0  0  0  0  0
  -26.3420  -11.7790   20.3140 N   0  0  0  0  0  0  0  0  0  0  0  0
  -24.2670  -10.6930   20.8640 C   0  0  0  0  0  0  0  0  0  0  0  0
  -24.6370   -9.7330   21.8320 C   0  0  0  0  0  3  0  0  0  0  0  0
  -23.8460   -8.5830   22.0380 C   0  0  0  0  0  3  0  0  0  0  0  0
  -22.6710   -8.3840   21.2760 C   0  0  0  0  0  0  0  0  0  0  0  0
  -22.3210   -9.3290   20.2960 C   0  0  0  0  0  3  0  0  0  0  0  0
  -23.1110  -10.4700   20.0890 C   0  0  0  0  0  3  0  0  0  0  0  0
  -21.8530   -7.2850   21.3890 O   0  0  0  0  0  0  0  0  0  0  0  0
  -21.7230   -6.6030   22.5720 C   0  0  0  0  0  0  0  0  0  0  0  0
  -21.2660   -7.2330   23.7490 C   0  0  0  0  0  3  0  0  0  0  0  0
  -21.0840   -6.4780   24.9250 C   0  0  0  0  0  3  0  0  0  0  0  0
  -21.3480   -5.0950   24.9230 C   0  0  0  0  0  0  0  0  0  0  0  0
  -21.7950   -4.4660   23.7480 C   0  0  0  0  0  3  0  0  0  0  0  0
  -21.9820   -5.2180   22.5760 C   0  0  0  0  0  0  0  0  0  0  0  0
  -22.3950   -4.6020   21.4410 F   0  0  0  0  0  0  0  0  0  0  0  0
  -21.1640   -4.3680   26.0490 F   0  0  0  0  0  0  0  0  0  0  0  0
  -23.3250  -13.8470   20.9510 C   0  0  0  0  0  0  0  0  0  0  0  0
  -22.5750  -13.2080   21.8400 N   0  0  0  0  0  0  0  0  0  0  0  0
  -22.9410  -14.8910   20.4230 O   0  0  0  0  0  0  0  0  0  0  0  0
  -22.8950  -12.3570   22.2790 H   0  0  0  0  0  0  0  0  0  0  0  0
  -21.6630  -13.5690   22.0810 H   0  0  0  0  0  0  0  0  0  0  0  0
  -26.0420  -15.3350   20.0590 N   0  0  0  0  0  0  0  0  0  0  0  0
  -25.3030  -16.0230   20.1470 H   0  0  0  0  0  0  0  0  0  0  0  0
  -26.9060  -15.7300   19.7080 H   0  0  0  0  0  0  0  0  0  0  0  0
  -28.0330  -23.2160   18.2040 C   0  0  0  0  0  2  0  0  0  0  0  0
  -28.3350  -24.7280   18.4200 C   0  0  0  0  0  2  0  0  0  0  0  0
  -28.3180  -25.1720   19.9070 C   0  0  0  0  0  2  0  0  0  0  0  0
  -28.3910  -26.5920   20.1320 O   0  0  0  0  0  0  0  0  0  0  0  0
  -24.6140  -31.8170   23.2650 C   0  0  0  0  0  0  0  0  0  0  0  0
  -27.2100  -27.3150   20.1780 C   0  0  0  0  0  0  0  0  0  0  0  0
  -23.4000  -30.4240   21.6310 C   0  0  0  0  0  3  0  0  0  0  0  0
  -24.8320  -28.8560   20.2300 C   0  0  0  0  0  0  0  0  0  0  0  0
  -25.9340  -30.7400   21.4390 C   0  0  0  0  0  2  0  0  0  0  0  0
  -26.0000  -29.3620   20.8080 C   0  0  0  0  0  0  0  0  0  0  0  0
  -27.1960  -28.5990   20.7740 C   0  0  0  0  0  3  0  0  0  0  0  0
  -26.0030  -26.8180   19.6290 C   0  0  0  0  0  3  0  0  0  0  0  0
  -24.8240  -27.5800   19.6500 C   0  0  0  0  0  3  0  0  0  0  0  0
  -23.6070  -29.7400   20.2560 C   0  0  0  0  0  2  0  0  0  0  0  0
  -24.6700  -31.0070   22.1700 N   0  0  0  0  0  0  0  0  0  0  0  0
  -23.5320  -32.1090   23.7960 O   0  0  0  0  0  0  0  0  0  0  0  0
  -22.7260  -29.4120   22.5880 C   0  0  0  0  0  0  0  0  0  0  0  0
  -21.3990  -29.2420   22.4510 N   0  0  0  0  0  0  0  0  0  0  0  0
  -23.3940  -28.7810   23.4110 O   0  0  0  0  0  0  0  0  0  0  0  0
  -20.9150  -29.8090   21.7680 H   0  0  0  0  0  0  0  0  0  0  0  0
  -18.0130  -28.0900   22.9460 C   0  0  0  0  0  0  0  0  0  0  0  0
  -20.5720  -28.3170   23.2230 C   0  0  0  0  0  3  0  0  0  0  0  0
  -20.6590  -26.8810   22.6530 C   0  0  0  0  0  2  0  0  0  0  0  0
  -19.5560  -26.5680   21.6370 C   0  0  0  0  0  2  0  0  0  0  0  0
  -18.1730  -26.7360   22.2750 C   0  0  0  0  0  2  0  0  0  0  0  0
  -19.1390  -28.8390   23.3770 C   0  0  0  0  0  0  0  0  0  0  0  0
  -18.9370  -30.1090   23.9590 C   0  0  0  0  0  3  0  0  0  0  0  0
  -17.6390  -30.6300   24.1140 C   0  0  0  0  0  3  0  0  0  0  0  0
  -16.5250  -29.8810   23.6980 C   0  0  0  0  0  3  0  0  0  0  0  0
  -16.7130  -28.6120   23.1220 C   0  0  0  0  0  3  0  0  0  0  0  0
  -25.9020  -32.4370   23.8910 C   0  0  0  0  0  3  0  0  0  0  0  0
  -26.3930  -31.6780   25.1840 C   0  0  1  0  0  0  0  0  0  0  0  0
  -25.2820  -31.4720   26.2420 C   0  0  0  0  0  1  0  0  0  0  0  0
  -26.9600  -30.2880   24.8150 C   0  0  0  0  0  1  0  0  0  0  0  0
  -27.5460  -32.4670   25.8480 C   0  0  0  0  0  1  0  0  0  0  0  0
  -25.6120  -33.8430   24.1920 N   0  0  0  0  0  0  0  0  0  0  0  0
  -25.9760  -34.8760   23.4200 C   0  0  0  0  0  0  0  0  0  0  0  0
  -26.6590  -34.7430   22.4010 O   0  0  0  0  0  0  0  0  0  0  0  0
  -25.0170  -34.0260   24.9850 H   0  0  0  0  0  0  0  0  0  0  0  0
  -24.2940  -36.6960   22.9920 C   0  0  0  0  0  1  0  0  0  0  0  0
  -25.5020  -36.2770   23.8440 C   0  0  0  0  0  3  0  0  0  0  0  0
  -27.6260  -37.1340   24.7300 C   0  0  0  0  0  1  0  0  0  0  0  0
  -26.5560  -37.3110   23.7520 N   0  0  0  0  0  0  0  0  0  0  0  0
  -26.1620  -38.2390   23.8830 H   0  0  0  0  0  0  0  0  0  0  0  0
  1 49  1  0
  1  2  1  0
  3  1  1  0
  5  4  1  0
  5  1  1  0
  5  6  1  0
  6  7  1  0
  7  8  1  0
  8  9  1  0
 10  9  1  0
 11 19  1  0
 12 17  1  0
 13 14  1  0
 13 12  1  0
 15 14  1  0
 15 24  1  0
 15 16  1  0
 17 11  1  0
 17 16  1  0
 18 11  2  0
 19 10  1  0
 19 20  1  0
 21 22  2  0
 22 41  1  0
 23 22  1  0
 23 26  1  0
 24 21  1  0
 24 25  1  0
 25 23  2  0
 26 27  1  0
 27 28  2  0
 29 32  1  0
 29 28  1  0
 30 29  2  0
 31 30  1  0
 31 26  2  0
 32 33  1  0
 33 38  2  0
 33 34  1  0
 34 35  2  0
 36 35  1  0
 36 40  1  0
 37 36  2  0
 38 37  1  0
 39 38  1  0
 41 42  1  0
 42 45  1  0
 42 44  1  0
 43 41  2  0
 46 47  1  0
 46 21  1  0
 48 46  1  0
 49 50  1  0
 50 51  1  0
 51 52  1  0
 52 54  1  0
 53 64  2  0
 54 59  1  0
 55 63  1  0
 55 65  1  0
 56 62  1  0
 56 58  1  0
 57 63  1  0
 58 57  1  0
 59 58  2  0
 60 61  1  0
 60 54  2  0
 61 56  2  0
 62 55  1  0
 63 53  1  0
 65 67  2  0
 66 65  1  0
 68 66  1  0
 69 78  2  0
 69 74  1  0
 70 66  1  0
 70 74  1  0
 71 70  1  0
 72 73  1  0
 72 71  1  0
 73 69  1  0
 74 75  2  0
 75 76  1  0
 77 76  2  0
 78 77  1  0
 79 53  1  0
 79 84  1  0
 79 80  1  0
 80 83  1  1
 80 81  1  0
 82 80  1  0
 84 87  1  0
 85 89  1  0
 85 84  1  0
 86 85  2  0
 89 88  1  0
 91 89  1  0
 91 92  1  0
 91 90  1  0
M  ISO  4  11 100  19 100  51 101  52 101
M  END
>  <TORSDO>  (13) 
F 25

>  <SCORE>  (13) 
-10.450

>  <name>  (13) 
12

>  <ligand_id>  (13) 
12

>  <original_smiles>  (13) 
[H]c1c([H])c([H])c2c(c1[H])C([H])([H])C([H])([H])C([H])([H])C2([H])N([H])C(=O)C1([H])N(C(=O)C([H])(N([H])C(=O)C([H])(N([H])C([H])([H])[H])C([H])([H])[H])C(C([H])([H])[H])(C([H])([H])[H])C([H])([H])[H])C([H])([H])c2c([H])c(OC([H])([H])C([H])([H])C([H])([H])[N+]([H])([H])C([H])(C([H])([H])[H])C([H])([H])C([H])([H])C([H])([H])C([H])([H])C([H])([H])N([H])C(=O)N3C([H])([H])C([H])([H])C([H])([H])C([H])(n4nc(-c5c([H])c([H])c(Oc6c([H])c([H])c(F)c([H])c6F)c([H])c5[H])c(C(=O)N([H])[H])c4N([H])[H])C3([H])[H])c([H])c([H])c2C1([H])[H]

>  <smiles>  (13) 
[H]c1c([H])c([H])c2c(c1[H])C([H])([H])C([H])([H])C([H])([H])C2([H])N([H])C(=O)C1([H])N(C(=O)C([H])(N([H])C(=O)C([H])(N([H])C([H])([H])[H])C([H])([H])[H])C(C([H])([H])[H])(C([H])([H])[H])C([H])([H])[H])C([H])([H])c2c([H])c(OC([H])([H])C([H])([H])C([H])([H])[N+]([H])([H])C([H])(C([H])([H])[H])C([H])([H])C([H])([H])C([H])([H])C([H])([H])C([H])([H])N([H])C(=O)N3C([H])([H])C([H])([H])C([H])([H])C([H])(n4nc(-c5c([H])c([H])c(Oc6c([H])c([H])c(F)c([H])c6F)c([H])c5[H])c(C(=O)N([H])[H])c4N([H])[H])C3([H])[H])c([H])c([H])c2C1([H])[H]

$$$$
13:0:0
     RDKit          3D

 96104  0  0  1  0  0  0  0  0999 V2000
  -28.4110  -21.8610   22.2110 C   0  0  0  0  0  3  0  0  0  0  0  0
  -28.3100  -20.7200   21.4020 C   0  0  0  0  0  3  0  0  0  0  0  0
  -28.3570  -23.1350   21.6240 C   0  0  0  0  0  3  0  0  0  0  0  0
  -28.1990  -20.8380   19.9990 C   0  0  0  0  0  0  0  0  0  0  0  0
  -28.2190  -23.2880   20.2260 C   0  0  0  0  0  0  0  0  0  0  0  0
  -28.1580  -22.1300   19.3930 C   0  0  0  0  0  0  0  0  0  0  0  0
  -28.0720  -19.5690   19.2340 C   0  0  0  0  0  0  0  0  0  0  0  0
  -27.0730  -18.8450   19.2670 O   0  0  0  0  0  0  0  0  0  0  0  0
  -29.2950  -19.1440   18.4190 C   0  0  0  0  0  2  0  0  0  0  0  0
  -30.0910  -17.9980   19.0730 C   0  0  0  0  0  2  0  0  0  0  0  0
  -30.9720  -18.4580   20.2500 C   0  0  0  0  0  2  0  0  0  0  0  0
  -32.1160  -17.4950   20.6010 C   0  0  0  0  0  2  0  0  0  0  0  0
  -31.7600  -16.3400   21.5610 C   0  0  0  0  0  2  0  0  0  0  0  0
  -31.2400  -14.4850   19.9460 C   0  0  0  0  0  0  0  0  0  0  0  0
  -30.7690  -12.3250   18.8470 C   0  0  0  0  0  2  0  0  0  0  0  0
  -29.7810  -12.4660   17.6770 C   0  0  0  0  0  2  0  0  0  0  0  0
  -28.3320  -12.3580   18.1890 C   0  0  0  0  0  2  0  0  0  0  0  0
  -28.0590  -13.3060   19.3850 C   0  0  0  0  0  3  0  0  0  0  0  0
  -29.1530  -13.1590   20.4650 C   0  0  0  0  0  2  0  0  0  0  0  0
  -30.4720  -13.3720   19.8360 N   0  0  0  0  0  0  0  0  0  0  0  0
  -32.2000  -14.7190   19.2070 O   0  0  0  0  0  0  0  0  0  0  0  0
  -30.9450  -15.2630   20.9960 N   0  0  0  0  0  0  0  0  0  0  0  0
  -30.1630  -14.9550   21.5560 H   0  0  0  0  0  0  0  0  0  0  0  0
  -25.7470  -14.0120   20.2710 C   0  0  0  0  0  0  0  0  0  0  0  0
  -24.6650  -13.2820   20.6870 C   0  0  0  0  0  0  0  0  0  0  0  0
  -25.0500  -11.9110   20.5790 C   0  0  0  0  0  0  0  0  0  0  0  0
  -26.7260  -13.0880   19.9420 N   0  0  0  0  0  0  0  0  0  0  0  0
  -26.3120  -11.8170   20.1820 N   0  0  0  0  0  0  0  0  0  0  0  0
  -24.2710  -10.6820   20.7760 C   0  0  0  0  0  0  0  0  0  0  0  0
  -24.6470   -9.7150   21.7340 C   0  0  0  0  0  3  0  0  0  0  0  0
  -23.8720   -8.5480   21.9170 C   0  0  0  0  0  3  0  0  0  0  0  0
  -22.7070   -8.3410   21.1410 C   0  0  0  0  0  0  0  0  0  0  0  0
  -22.3490   -9.2970   20.1750 C   0  0  0  0  0  3  0  0  0  0  0  0
  -23.1230  -10.4540   19.9910 C   0  0  0  0  0  3  0  0  0  0  0  0
  -21.9080   -7.2270   21.2300 O   0  0  0  0  0  0  0  0  0  0  0  0
  -21.7230   -6.5690   22.4210 C   0  0  0  0  0  0  0  0  0  0  0  0
  -21.1810   -7.2150   23.5520 C   0  0  0  0  0  3  0  0  0  0  0  0
  -20.9430   -6.4850   24.7340 C   0  0  0  0  0  3  0  0  0  0  0  0
  -21.2340   -5.1070   24.7810 C   0  0  0  0  0  0  0  0  0  0  0  0
  -21.7690   -4.4620   23.6540 C   0  0  0  0  0  3  0  0  0  0  0  0
  -22.0090   -5.1900   22.4750 C   0  0  0  0  0  0  0  0  0  0  0  0
  -22.5050   -4.5580   21.3840 F   0  0  0  0  0  0  0  0  0  0  0  0
  -20.9980   -4.4040   25.9130 F   0  0  0  0  0  0  0  0  0  0  0  0
  -23.3180  -13.8210   21.0730 C   0  0  0  0  0  0  0  0  0  0  0  0
  -22.6160  -13.1360   21.9700 N   0  0  0  0  0  0  0  0  0  0  0  0
  -22.8960  -14.8800   20.6110 O   0  0  0  0  0  0  0  0  0  0  0  0
  -22.9690  -12.2760   22.3630 H   0  0  0  0  0  0  0  0  0  0  0  0
  -21.7140  -13.4780   22.2690 H   0  0  0  0  0  0  0  0  0  0  0  0
  -25.9690  -15.3770   20.1270 N   0  0  0  0  0  0  0  0  0  0  0  0
  -25.2420  -16.0640   20.3000 H   0  0  0  0  0  0  0  0  0  0  0  0
  -26.8180  -15.7950   19.7650 H   0  0  0  0  0  0  0  0  0  0  0  0
  -26.5240  -22.4610   17.4700 C   0  0  0  0  0  1  0  0  0  0  0  0
  -27.9910  -22.2740   17.8760 C   0  0  0  0  0  2  0  0  0  0  0  0
  -28.0040  -24.6950   19.6650 C   0  0  0  0  0  2  0  0  0  0  0  0
  -28.7270  -25.8450   20.3980 C   0  0  0  0  0  2  0  0  0  0  0  0
  -28.6240  -27.0970   19.7210 O   0  0  0  0  0  0  0  0  0  0  0  0
  -24.5600  -31.7720   23.2260 C   0  0  0  0  0  0  0  0  0  0  0  0
  -27.4080  -27.7280   19.8170 C   0  0  0  0  0  0  0  0  0  0  0  0
  -23.4120  -30.4030   21.5200 C   0  0  0  0  0  3  0  0  0  0  0  0
  -24.9290  -29.0590   19.9760 C   0  0  0  0  0  0  0  0  0  0  0  0
  -25.9050  -30.9330   21.3050 C   0  0  0  0  0  2  0  0  0  0  0  0
  -26.0610  -29.6140   20.5860 C   0  0  0  0  0  0  0  0  0  0  0  0
  -27.3050  -28.9500   20.5120 C   0  0  0  0  0  3  0  0  0  0  0  0
  -26.2650  -27.2020   19.1780 C   0  0  0  0  0  3  0  0  0  0  0  0
  -25.0210  -27.8470   19.2770 C   0  0  0  0  0  3  0  0  0  0  0  0
  -23.6350  -29.8310   20.0970 C   0  0  0  0  0  2  0  0  0  0  0  0
  -24.6440  -31.0470   22.0760 N   0  0  0  0  0  0  0  0  0  0  0  0
  -23.4730  -31.9460   23.7970 O   0  0  0  0  0  0  0  0  0  0  0  0
  -22.8460  -29.2810   22.4180 C   0  0  0  0  0  0  0  0  0  0  0  0
  -21.5450  -28.9920   22.2650 N   0  0  0  0  0  0  0  0  0  0  0  0
  -23.5770  -28.6750   23.2070 O   0  0  0  0  0  0  0  0  0  0  0  0
  -21.0180  -29.5380   21.5980 H   0  0  0  0  0  0  0  0  0  0  0  0
  -18.2810  -27.4950   22.6480 C   0  0  0  0  0  0  0  0  0  0  0  0
  -20.8030  -27.9520   22.9760 C   0  0  0  0  0  3  0  0  0  0  0  0
  -21.0370  -26.5660   22.3340 C   0  0  0  0  0  2  0  0  0  0  0  0
  -19.9790  -26.1980   21.2890 C   0  0  0  0  0  2  0  0  0  0  0  0
  -18.5810  -26.1990   21.9140 C   0  0  0  0  0  2  0  0  0  0  0  0
  -19.3260  -28.3260   23.1320 C   0  0  0  0  0  0  0  0  0  0  0  0
  -18.9940  -29.5400   23.7730 C   0  0  0  0  0  3  0  0  0  0  0  0
  -17.6490  -29.9250   23.9360 C   0  0  0  0  0  3  0  0  0  0  0  0
  -16.6190  -29.0880   23.4720 C   0  0  0  0  0  3  0  0  0  0  0  0
  -16.9360  -27.8750   22.8330 C   0  0  0  0  0  3  0  0  0  0  0  0
  -25.8180  -32.4370   23.8650 C   0  0  0  0  0  3  0  0  0  0  0  0
  -26.3450  -31.6780   25.1440 C   0  0  1  0  0  0  0  0  0  0  0  0
  -25.2410  -31.3780   26.1840 C   0  0  0  0  0  1  0  0  0  0  0  0
  -27.0010  -30.3340   24.7450 C   0  0  0  0  0  1  0  0  0  0  0  0
  -27.4430  -32.5180   25.8390 C   0  0  0  0  0  1  0  0  0  0  0  0
  -25.4650  -33.8250   24.1890 N   0  0  0  0  0  0  0  0  0  0  0  0
  -25.7720  -34.8830   23.4290 C   0  0  0  0  0  0  0  0  0  0  0  0
  -26.4540  -34.7960   22.4030 O   0  0  0  0  0  0  0  0  0  0  0  0
  -24.8580  -33.9690   24.9820 H   0  0  0  0  0  0  0  0  0  0  0  0
  -23.9870  -36.6140   23.0570 C   0  0  0  0  0  1  0  0  0  0  0  0
  -25.2360  -36.2540   23.8770 C   0  0  0  0  0  3  0  0  0  0  0  0
  -27.3300  -37.2160   24.7240 C   0  0  0  0  0  1  0  0  0  0  0  0
  -26.2320  -37.3410   23.7680 N   0  0  0  0  0  0  0  0  0  0  0  0
  -25.7920  -38.2480   23.9020 H   0  0  0  0  0  0  0  0  0  0  0  0
  2  1  2  0
  3  1  1  0
  4  2  1  0
  5  3  2  0
  6  4  2  0
  6  5  1  0
  7  8  2  0
  7  4  1  0
  9 10  1  0
  9  7  1  0
 10 11  1  0
 11 12  1  0
 12 13  1  0
 14 22  1  0
 15 20  1  0
 16 17  1  0
 16 15  1  0
 18 17  1  0
 18 27  1  0
 18 19  1  0
 20 14  1  0
 20 19  1  0
 21 14  2  0
 22 23  1  0
 22 13  1  0
 24 25  2  0
 25 44  1  0
 26 25  1  0
 26 29  1  0
 27 28  1  0
 27 24  1  0
 28 26  2  0
 29 30  1  0
 30 31  2  0
 32 35  1  0
 32 31  1  0
 33 32  2  0
 34 33  1  0
 34 29  2  0
 35 36  1  0
 36 41  2  0
 36 37  1  0
 37 38  2  0
 38 39  1  0
 39 43  1  0
 40 39  2  0
 41 40  1  0
 42 41  1  0
 44 45  1  0
 45 48  1  0
 45 47  1  0
 46 44  2  0
 49 24  1  0
 49 50  1  0
 51 49  1  0
 52 53  1  0
 53  6  1  0
 54  5  1  0
 54 55  1  0
 56 58  1  0
 56 55  1  0
 57 68  2  0
 58 63  1  0
 59 67  1  0
 59 69  1  0
 60 66  1  0
 60 62  1  0
 61 67  1  0
 62 61  1  0
 63 62  2  0
 64 65  1  0
 64 58  2  0
 65 60  2  0
 66 59  1  0
 67 57  1  0
 69 71  2  0
 70 69  1  0
 72 70  1  0
 73 82  2  0
 73 78  1  0
 74 70  1  0
 74 78  1  0
 75 74  1  0
 76 77  1  0
 76 75  1  0
 77 73  1  0
 78 79  2  0
 79 80  1  0
 81 80  2  0
 82 81  1  0
 83 57  1  0
 83 88  1  0
 83 84  1  0
 84 87  1  1
 84 85  1  0
 86 84  1  0
 88 91  1  0
 89 93  1  0
 89 88  1  0
 90 89  2  0
 93 92  1  0
 95 93  1  0
 95 96  1  0
 95 94  1  0
M  ISO  4  14 100  22 100  55 101  56 101
M  END
>  <TORSDO>  (14) 
F 25

>  <SCORE>  (14) 
-10.727

>  <name>  (14) 
13

>  <ligand_id>  (14) 
13

>  <original_smiles>  (14) 
[H]c1c([H])c(C(=O)C([H])([H])C([H])([H])C([H])([H])C([H])([H])C([H])([H])N([H])C(=O)N2C([H])([H])C([H])([H])C([H])([H])C([H])(n3nc(-c4c([H])c([H])c(Oc5c([H])c([H])c(F)c([H])c5F)c([H])c4[H])c(C(=O)N([H])[H])c3N([H])[H])C2([H])[H])c(C([H])([H])C([H])([H])[H])c(C([H])([H])C([H])([H])Oc2c([H])c([H])c3c(c2[H])C([H])([H])N(C(=O)C([H])(N([H])C(=O)C([H])(N([H])C([H])([H])[H])C([H])([H])[H])C(C([H])([H])[H])(C([H])([H])[H])C([H])([H])[H])C([H])(C(=O)N([H])C2([H])c4c([H])c([H])c([H])c([H])c4C([H])([H])C([H])([H])C2([H])[H])C3([H])[H])c1[H]

>  <smiles>  (14) 
[H]c1c([H])c(C(=O)C([H])([H])C([H])([H])C([H])([H])C([H])([H])C([H])([H])N([H])C(=O)N2C([H])([H])C([H])([H])C([H])([H])C([H])(n3nc(-c4c([H])c([H])c(Oc5c([H])c([H])c(F)c([H])c5F)c([H])c4[H])c(C(=O)N([H])[H])c3N([H])[H])C2([H])[H])c(C([H])([H])C([H])([H])[H])c(C([H])([H])C([H])([H])Oc2c([H])c([H])c3c(c2[H])C([H])([H])N(C(=O)C([H])(N([H])C(=O)C([H])(N([H])C([H])([H])[H])C([H])([H])[H])C(C([H])([H])[H])(C([H])([H])[H])C([H])([H])[H])C([H])(C(=O)N([H])C2([H])c4c([H])c([H])c([H])c([H])c4C([H])([H])C([H])([H])C2([H])[H])C3([H])[H])c1[H]

$$$$
14:0:0
     RDKit          3D

 93100  0  0  1  0  0  0  0  0999 V2000
  -28.6540  -21.9490   20.9030 C   0  0  0  0  0  3  0  0  0  0  0  0
  -29.1010  -23.3030   21.3760 N   0  0  0  0  0  4  0  0  0  0  0  0
  -30.0230  -23.2080   21.7750 H   0  0  0  0  0  0  0  0  0  0  0  0
  -28.4910  -23.5060   22.1530 H   0  0  0  0  0  0  0  0  0  0  0  0
  -29.0660  -24.5210   20.4940 C   0  0  0  0  0  2  0  0  0  0  0  0
  -29.1480  -25.8350   21.3330 C   0  0  0  0  0  2  0  0  0  0  0  0
  -29.0830  -27.0660   20.5850 O   0  0  0  0  0  0  0  0  0  0  0  0
  -24.7960  -32.0190   23.4820 C   0  0  0  0  0  0  0  0  0  0  0  0
  -27.8740  -27.7300   20.5800 C   0  0  0  0  0  0  0  0  0  0  0  0
  -23.7790  -30.5660   21.7550 C   0  0  0  0  0  3  0  0  0  0  0  0
  -25.4070  -29.1120   20.4320 C   0  0  0  0  0  0  0  0  0  0  0  0
  -26.2900  -31.0570   21.7300 C   0  0  0  0  0  2  0  0  0  0  0  0
  -26.4930  -29.6920   21.1000 C   0  0  0  0  0  0  0  0  0  0  0  0
  -27.7320  -29.0100   21.1690 C   0  0  0  0  0  3  0  0  0  0  0  0
  -26.7720  -27.1620   19.9090 C   0  0  0  0  0  3  0  0  0  0  0  0
  -25.5410  -27.8470   19.8330 C   0  0  0  0  0  3  0  0  0  0  0  0
  -24.1180  -29.9060   20.3920 C   0  0  0  0  0  2  0  0  0  0  0  0
  -24.9680  -31.2320   22.3820 N   0  0  0  0  0  0  0  0  0  0  0  0
  -23.6680  -32.2280   23.9500 O   0  0  0  0  0  0  0  0  0  0  0  0
  -23.1180  -29.5070   22.6670 C   0  0  0  0  0  0  0  0  0  0  0  0
  -21.8130  -29.2690   22.4640 N   0  0  0  0  0  0  0  0  0  0  0  0
  -23.7820  -28.9020   23.5130 O   0  0  0  0  0  0  0  0  0  0  0  0
  -21.3380  -29.8140   21.7580 H   0  0  0  0  0  0  0  0  0  0  0  0
  -18.4510  -27.9970   22.8310 C   0  0  0  0  0  0  0  0  0  0  0  0
  -20.9940  -28.2880   23.1770 C   0  0  0  0  0  3  0  0  0  0  0  0
  -21.1390  -26.8840   22.5450 C   0  0  0  0  0  2  0  0  0  0  0  0
  -20.0670  -26.5820   21.4910 C   0  0  0  0  0  2  0  0  0  0  0  0
  -18.6690  -26.6790   22.1060 C   0  0  0  0  0  2  0  0  0  0  0  0
  -19.5440  -28.7610   23.3190 C   0  0  0  0  0  0  0  0  0  0  0  0
  -19.2870  -29.9950   23.9530 C   0  0  0  0  0  3  0  0  0  0  0  0
  -17.9700  -30.4670   24.1050 C   0  0  0  0  0  3  0  0  0  0  0  0
  -16.8910  -29.6990   23.6320 C   0  0  0  0  0  3  0  0  0  0  0  0
  -17.1320  -28.4660   23.0020 C   0  0  0  0  0  3  0  0  0  0  0  0
  -26.0010  -32.7110   24.1900 C   0  0  0  0  0  3  0  0  0  0  0  0
  -26.4090  -32.0200   25.5490 C   0  0  1  0  0  0  0  0  0  0  0  0
  -25.2180  -31.7800   26.5030 C   0  0  0  0  0  1  0  0  0  0  0  0
  -27.0850  -30.6560   25.2840 C   0  0  0  0  0  1  0  0  0  0  0  0
  -27.4470  -32.8950   26.2920 C   0  0  0  0  0  1  0  0  0  0  0  0
  -25.6370  -34.1180   24.4110 N   0  0  0  0  0  0  0  0  0  0  0  0
  -26.0150  -35.1340   23.6240 C   0  0  0  0  0  0  0  0  0  0  0  0
  -26.7750  -34.9910   22.6610 O   0  0  0  0  0  0  0  0  0  0  0  0
  -24.9740  -34.3040   25.1480 H   0  0  0  0  0  0  0  0  0  0  0  0
  -24.2780  -36.8530   23.0270 C   0  0  0  0  0  1  0  0  0  0  0  0
  -25.4590  -36.5320   23.9550 C   0  0  0  0  0  3  0  0  0  0  0  0
  -27.4930  -37.5280   24.9030 C   0  0  0  0  0  1  0  0  0  0  0  0
  -26.4720  -37.6050   23.8620 N   0  0  0  0  0  0  0  0  0  0  0  0
  -26.0320  -38.5200   23.9180 H   0  0  0  0  0  0  0  0  0  0  0  0
  -27.6020  -21.9870   19.7560 C   0  0  0  0  0  2  0  0  0  0  0  0
  -26.7840  -20.7830   19.7170 N   0  0  0  0  0  0  0  0  0  0  0  0
  -26.0340  -20.9120   19.0440 H   0  0  0  0  0  0  0  0  0  0  0  0
  -26.3000  -20.6660   20.6010 H   0  0  0  0  0  0  0  0  0  0  0  0
  -29.8010  -20.9010   20.6800 C   0  0  0  0  0  2  0  0  0  0  0  0
  -29.4080  -19.4400   21.1000 C   0  0  0  0  0  2  0  0  0  0  0  0
  -30.3940  -18.2580   20.7380 C   0  0  0  0  0  2  0  0  0  0  0  0
  -30.0420  -16.7620   20.3540 C   0  0  0  0  0  2  0  0  0  0  0  0
  -31.4620  -14.7090   20.3370 C   0  0  0  0  0  0  0  0  0  0  0  0
  -31.0630  -12.4860   19.3380 C   0  0  0  0  0  2  0  0  0  0  0  0
  -30.1490  -12.6070   18.1030 C   0  0  0  0  0  2  0  0  0  0  0  0
  -28.6690  -12.5400   18.5250 C   0  0  0  0  0  2  0  0  0  0  0  0
  -28.3340  -13.4960   19.7000 C   0  0  0  0  0  3  0  0  0  0  0  0
  -29.3710  -13.3760   20.8400 C   0  0  0  0  0  2  0  0  0  0  0  0
  -30.7110  -13.5740   20.2650 N   0  0  0  0  0  0  0  0  0  0  0  0
  -32.5830  -14.7960   19.8380 O   0  0  0  0  0  0  0  0  0  0  0  0
  -30.9530  -15.7760   20.9810 N   0  0  0  0  0  0  0  0  0  0  0  0
  -31.7040  -16.2710   21.4400 H   0  0  0  0  0  0  0  0  0  0  0  0
  -25.9840  -14.2300   20.4540 C   0  0  0  0  0  0  0  0  0  0  0  0
  -24.8660  -13.5180   20.7960 C   0  0  0  0  0  0  0  0  0  0  0  0
  -25.2350  -12.1410   20.7050 C   0  0  0  0  0  0  0  0  0  0  0  0
  -26.9680  -13.2920   20.1800 N   0  0  0  0  0  0  0  0  0  0  0  0
  -26.5200  -12.0270   20.3910 N   0  0  0  0  0  0  0  0  0  0  0  0
  -24.4220  -10.9240   20.8440 C   0  0  0  0  0  0  0  0  0  0  0  0
  -24.7590   -9.9160   21.7750 C   0  0  0  0  0  3  0  0  0  0  0  0
  -23.9550   -8.7630   21.9060 C   0  0  0  0  0  3  0  0  0  0  0  0
  -22.7950   -8.6140   21.1080 C   0  0  0  0  0  0  0  0  0  0  0  0
  -22.4760   -9.6110   20.1680 C   0  0  0  0  0  3  0  0  0  0  0  0
  -23.2820  -10.7530   20.0350 C   0  0  0  0  0  3  0  0  0  0  0  0
  -21.9650   -7.5200   21.1490 O   0  0  0  0  0  0  0  0  0  0  0  0
  -21.7820   -6.7990   22.3010 C   0  0  0  0  0  0  0  0  0  0  0  0
  -21.2720   -7.3890   23.4780 C   0  0  0  0  0  3  0  0  0  0  0  0
  -21.0340   -6.5970   24.6170 C   0  0  0  0  0  3  0  0  0  0  0  0
  -21.2990   -5.2130   24.5800 C   0  0  0  0  0  0  0  0  0  0  0  0
  -21.8010   -4.6230   23.4090 C   0  0  0  0  0  3  0  0  0  0  0  0
  -22.0400   -5.4140   22.2700 C   0  0  0  0  0  0  0  0  0  0  0  0
  -22.5040   -4.8370   21.1370 F   0  0  0  0  0  0  0  0  0  0  0  0
  -21.0620   -4.4490   25.6710 F   0  0  0  0  0  0  0  0  0  0  0  0
  -23.5070  -14.0790   21.0930 C   0  0  0  0  0  0  0  0  0  0  0  0
  -22.7360  -13.4060   21.9390 N   0  0  0  0  0  0  0  0  0  0  0  0
  -23.1350  -15.1480   20.6080 O   0  0  0  0  0  0  0  0  0  0  0  0
  -23.0450  -12.5380   22.3510 H   0  0  0  0  0  0  0  0  0  0  0  0
  -21.8230  -13.7660   22.1770 H   0  0  0  0  0  0  0  0  0  0  0  0
  -26.2390  -15.5920   20.3310 N   0  0  0  0  0  0  0  0  0  0  0  0
  -25.5140  -16.2890   20.4610 H   0  0  0  0  0  0  0  0  0  0  0  0
  -27.1130  -15.9830   20.0040 H   0  0  0  0  0  0  0  0  0  0  0  0
  1 48  1  0
  1  2  1  0
  2  3  1  0
  2  4  1  0
  5  6  1  0
  5  2  1  0
  7  6  1  0
  8 19  2  0
  9  7  1  0
  9 14  1  0
 10 18  1  0
 10 20  1  0
 11 13  1  0
 12 18  1  0
 13 14  2  0
 13 12  1  0
 15  9  2  0
 16 15  1  0
 16 11  2  0
 17 11  1  0
 17 10  1  0
 18  8  1  0
 20 22  2  0
 21 20  1  0
 23 21  1  0
 24 33  2  0
 24 29  1  0
 25 21  1  0
 25 29  1  0
 26 25  1  0
 27 28  1  0
 27 26  1  0
 28 24  1  0
 29 30  2  0
 30 31  1  0
 32 31  2  0
 33 32  1  0
 34  8  1  0
 34 39  1  0
 34 35  1  0
 35 38  1  1
 35 36  1  0
 37 35  1  0
 39 42  1  0
 40 44  1  0
 40 39  1  0
 41 40  2  0
 44 43  1  0
 46 47  1  0
 46 44  1  0
 46 45  1  0
 49 48  1  0
 49 51  1  0
 50 49  1  0
 52  1  1  0
 52 53  1  0
 54 53  1  0
 55 54  1  0
 55 64  1  0
 56 64  1  0
 57 62  1  0
 58 59  1  0
 58 57  1  0
 60 59  1  0
 60 69  1  0
 60 61  1  0
 62 56  1  0
 62 61  1  0
 63 56  2  0
 64 65  1  0
 66 67  2  0
 67 86  1  0
 68 67  1  0
 68 71  1  0
 69 70  1  0
 69 66  1  0
 70 68  2  0
 71 72  1  0
 72 73  2  0
 74 77  1  0
 74 73  1  0
 75 74  2  0
 76 75  1  0
 76 71  2  0
 77 78  1  0
 78 79  1  0
 79 80  2  0
 81 80  1  0
 81 85  1  0
 82 81  2  0
 83 78  2  0
 83 82  1  0
 84 83  1  0
 86 87  1  0
 87 90  1  0
 87 89  1  0
 88 86  2  0
 91 66  1  0
 91 92  1  0
 93 91  1  0
M  ISO  4   6 101   7 101  56 100  64 100
M  END
>  <TORSDO>  (15) 
F 25

>  <SCORE>  (15) 
-11.048

>  <name>  (15) 
14

>  <ligand_id>  (15) 
14

>  <original_smiles>  (15) 
[H]c1c([H])c([H])c2c(c1[H])C([H])([H])C([H])([H])C([H])([H])C2([H])N([H])C(=O)C1([H])N(C(=O)C([H])(N([H])C(=O)C([H])(N([H])C([H])([H])[H])C([H])([H])[H])C(C([H])([H])[H])(C([H])([H])[H])C([H])([H])[H])C([H])([H])c2c([H])c(OC([H])([H])C([H])([H])[N+]([H])([H])C([H])(C([H])([H])N([H])[H])C([H])([H])C([H])([H])C([H])([H])C([H])([H])N([H])C(=O)N3C([H])([H])C([H])([H])C([H])([H])C([H])(n4nc(-c5c([H])c([H])c(Oc6c([H])c([H])c(F)c([H])c6F)c([H])c5[H])c(C(=O)N([H])[H])c4N([H])[H])C3([H])[H])c([H])c([H])c2C1([H])[H]

>  <smiles>  (15) 
[H]c1c([H])c([H])c2c(c1[H])C([H])([H])C([H])([H])C([H])([H])C2([H])N([H])C(=O)C1([H])N(C(=O)C([H])(N([H])C(=O)C([H])(N([H])C([H])([H])[H])C([H])([H])[H])C(C([H])([H])[H])(C([H])([H])[H])C([H])([H])[H])C([H])([H])c2c([H])c(OC([H])([H])C([H])([H])[N+]([H])([H])C([H])(C([H])([H])N([H])[H])C([H])([H])C([H])([H])C([H])([H])C([H])([H])N([H])C(=O)N3C([H])([H])C([H])([H])C([H])([H])C([H])(n4nc(-c5c([H])c([H])c(Oc6c([H])c([H])c(F)c([H])c6F)c([H])c5[H])c(C(=O)N([H])[H])c4N([H])[H])C3([H])[H])c([H])c([H])c2C1([H])[H]

$$$$
15:0:0
     RDKit          3D

 98107  0  0  1  0  0  0  0  0999 V2000
  -27.8510  -24.2780   23.1370 C   0  0  0  0  0  3  0  0  0  0  0  0
  -26.5790  -24.6710   23.5930 C   0  0  0  0  0  3  0  0  0  0  0  0
  -27.9340  -26.2410   21.6940 C   0  0  0  0  0  3  0  0  0  0  0  0
  -28.5460  -25.0790   22.2090 C   0  0  0  0  0  0  0  0  0  0  0  0
  -26.6520  -26.6330   22.1350 C   0  0  0  0  0  0  0  0  0  0  0  0
  -25.9880  -25.8620   23.1190 C   0  0  0  0  0  0  0  0  0  0  0  0
  -26.0330  -27.9050   21.5780 C   0  0  0  0  0  1  0  0  0  0  0  0
  -24.7710  -26.3000   23.6480 N   0  0  0  0  0  0  0  0  0  0  0  0
  -24.5130  -27.2310   23.3380 H   0  0  0  0  0  0  0  0  0  0  0  0
  -24.6270  -26.1390   25.0930 C   0  0  0  0  0  2  0  0  0  0  0  0
  -24.5200  -27.4910   25.8190 C   0  0  0  0  0  3  0  0  0  0  0  0
  -25.8140  -27.9730   26.5240 C   0  0  0  0  0  3  0  0  0  0  0  0
  -25.8050  -29.4370   27.0490 C   0  0  0  0  0  2  0  0  0  0  0  0
  -25.7680  -29.5820   28.4760 O   0  0  0  0  0  0  0  0  0  0  0  0
  -21.5680  -26.9970   33.5190 C   0  0  0  0  0  0  0  0  0  0  0  0
  -24.5060  -29.6300   29.0070 C   0  0  0  0  0  0  0  0  0  0  0  0
  -20.4170  -28.1020   31.6270 C   0  0  0  0  0  3  0  0  0  0  0  0
  -21.9050  -29.4650   30.0690 C   0  0  0  0  0  0  0  0  0  0  0  0
  -22.7680  -28.8270   32.3300 C   0  0  0  0  0  2  0  0  0  0  0  0
  -23.0120  -29.2150   30.8890 C   0  0  0  0  0  0  0  0  0  0  0  0
  -24.3180  -29.3100   30.3650 C   0  0  0  0  0  3  0  0  0  0  0  0
  -23.3860  -29.9110   28.1950 C   0  0  0  0  0  3  0  0  0  0  0  0
  -22.0850  -29.8190   28.7200 C   0  0  0  0  0  3  0  0  0  0  0  0
  -20.5410  -29.3450   30.7080 C   0  0  0  0  0  2  0  0  0  0  0  0
  -21.6080  -27.9250   32.5210 N   0  0  0  0  0  0  0  0  0  0  0  0
  -20.5470  -26.3290   33.7320 O   0  0  0  0  0  0  0  0  0  0  0  0
  -20.1200  -26.8660   30.7490 C   0  0  0  0  0  0  0  0  0  0  0  0
  -18.8860  -26.7900   30.2230 N   0  0  0  0  0  0  0  0  0  0  0  0
  -20.9910  -26.0200   30.5300 O   0  0  0  0  0  0  0  0  0  0  0  0
  -18.2290  -27.5210   30.4570 H   0  0  0  0  0  0  0  0  0  0  0  0
  -16.4850  -26.0700   27.6220 C   0  0  0  0  0  0  0  0  0  0  0  0
  -18.3880  -25.7370   29.3390 C   0  0  0  0  0  3  0  0  0  0  0  0
  -19.3190  -25.5520   28.1180 C   0  0  0  0  0  2  0  0  0  0  0  0
  -18.8890  -26.3790   26.9020 C   0  0  0  0  0  2  0  0  0  0  0  0
  -17.4700  -26.0020   26.4680 C   0  0  0  0  0  2  0  0  0  0  0  0
  -16.9170  -25.9620   28.9700 C   0  0  0  0  0  0  0  0  0  0  0  0
  -15.9620  -26.0690   30.0050 C   0  0  0  0  0  3  0  0  0  0  0  0
  -14.6010  -26.2750   29.7110 C   0  0  0  0  0  3  0  0  0  0  0  0
  -14.1770  -26.3640   28.3730 C   0  0  0  0  0  3  0  0  0  0  0  0
  -15.1170  -26.2580   27.3340 C   0  0  0  0  0  3  0  0  0  0  0  0
  -22.7920  -26.7500   34.4570 C   0  0  0  0  0  3  0  0  0  0  0  0
  -22.3210  -26.8650   35.8430 N   0  0  0  0  0  0  0  0  0  0  0  0
  -22.4720  -27.9540   36.6090 C   0  0  0  0  0  0  0  0  0  0  0  0
  -23.0970  -28.9520   36.2380 O   0  0  0  0  0  0  0  0  0  0  0  0
  -21.7540  -26.1060   36.1920 H   0  0  0  0  0  0  0  0  0  0  0  0
  -20.5120  -28.7330   37.9770 C   0  0  0  0  0  1  0  0  0  0  0  0
  -21.8260  -27.9330   38.0070 C   0  0  0  0  0  3  0  0  0  0  0  0
  -23.8530  -27.5980   39.3490 C   0  0  0  0  0  1  0  0  0  0  0  0
  -22.7080  -28.4610   39.0720 N   0  0  0  0  0  0  0  0  0  0  0  0
  -22.1900  -28.5960   39.9360 H   0  0  0  0  0  0  0  0  0  0  0  0
  -23.4880  -25.3550   34.2170 C   0  0  1  0  0  0  0  0  0  0  0  0
  -22.6290  -24.1480   34.6610 C   0  0  0  0  0  1  0  0  0  0  0  0
  -23.8330  -25.1650   32.7210 C   0  0  0  0  0  1  0  0  0  0  0  0
  -24.8290  -25.3000   34.9870 C   0  0  0  0  0  1  0  0  0  0  0  0
  -29.9810  -24.7500   21.8440 C   0  0  0  0  0  2  0  0  0  0  0  0
  -30.2640  -24.6460   20.3330 C   0  0  0  0  0  2  0  0  0  0  0  0
  -32.9650  -28.9910   17.7570 C   0  0  0  0  0  0  0  0  0  0  0  0
  -32.8910  -30.5470   15.8460 C   0  0  0  0  0  2  0  0  0  0  0  0
  -31.6500  -31.4570   15.9220 C   0  0  0  0  0  2  0  0  0  0  0  0
  -30.4430  -30.7820   15.2450 C   0  0  0  0  0  2  0  0  0  0  0  0
  -30.2260  -29.3270   15.7340 C   0  0  0  0  0  3  0  0  0  0  0  0
  -31.5460  -28.5290   15.7050 C   0  0  0  0  0  2  0  0  0  0  0  0
  -32.5600  -29.2630   16.4860 N   0  0  0  0  0  0  0  0  0  0  0  0
  -33.6940  -29.7590   18.3960 O   0  0  0  0  0  0  0  0  0  0  0  0
  -30.9460  -27.1040   20.2080 C   0  0  0  0  0  2  0  0  0  0  0  0
  -31.7180  -25.5430   18.4050 C   0  0  0  0  0  2  0  0  0  0  0  0
  -32.0570  -28.0790   19.7990 C   0  0  0  0  0  2  0  0  0  0  0  0
  -32.8190  -26.5630   18.0420 C   0  0  0  0  0  2  0  0  0  0  0  0
  -31.3490  -25.6500   19.8950 C   0  0  0  0  0  3  0  0  0  0  0  0
  -32.3890  -27.9330   18.3720 N   0  0  0  0  0  0  0  0  0  0  0  0
  -28.0340  -28.0130   15.4110 C   0  0  0  0  0  0  0  0  0  0  0  0
  -27.3600  -27.6220   14.2860 C   0  0  0  0  0  0  0  0  0  0  0  0
  -28.1490  -28.0640   13.1790 C   0  0  0  0  0  0  0  0  0  0  0  0
  -29.1790  -28.6570   14.9660 N   0  0  0  0  0  0  0  0  0  0  0  0
  -29.2660  -28.6340   13.6100 N   0  0  0  0  0  0  0  0  0  0  0  0
  -27.8770  -28.0250   11.7360 C   0  0  0  0  0  0  0  0  0  0  0  0
  -28.7340  -27.3520   10.8400 C   0  0  0  0  0  3  0  0  0  0  0  0
  -28.4420  -27.3140    9.4590 C   0  0  0  0  0  3  0  0  0  0  0  0
  -27.2820  -27.9530    8.9630 C   0  0  0  0  0  0  0  0  0  0  0  0
  -26.4430  -28.6430    9.8570 C   0  0  0  0  0  3  0  0  0  0  0  0
  -26.7380  -28.6820   11.2300 C   0  0  0  0  0  3  0  0  0  0  0  0
  -26.9310  -27.9930    7.6350 O   0  0  0  0  0  0  0  0  0  0  0  0
  -27.2430  -26.9680    6.7780 C   0  0  0  0  0  0  0  0  0  0  0  0
  -26.7930  -25.6490    6.9970 C   0  0  0  0  0  3  0  0  0  0  0  0
  -27.0780  -24.6410    6.0540 C   0  0  0  0  0  3  0  0  0  0  0  0
  -27.8060  -24.9500    4.8910 C   0  0  0  0  0  0  0  0  0  0  0  0
  -28.2520  -26.2650    4.6670 C   0  0  0  0  0  3  0  0  0  0  0  0
  -27.9690  -27.2720    5.6070 C   0  0  0  0  0  0  0  0  0  0  0  0
  -28.3830  -28.5410    5.3770 F   0  0  0  0  0  0  0  0  0  0  0  0
  -28.0740  -23.9840    3.9810 F   0  0  0  0  0  0  0  0  0  0  0  0
  -26.0130  -26.9590   14.2340 C   0  0  0  0  0  0  0  0  0  0  0  0
  -25.7930  -26.0940   13.2520 N   0  0  0  0  0  0  0  0  0  0  0  0
  -25.1620  -27.1720   15.0980 O   0  0  0  0  0  0  0  0  0  0  0  0
  -26.4970  -25.9050   12.5540 H   0  0  0  0  0  0  0  0  0  0  0  0
  -24.9060  -25.6120   13.1960 H   0  0  0  0  0  0  0  0  0  0  0  0
  -27.7640  -27.8960   16.7720 N   0  0  0  0  0  0  0  0  0  0  0  0
  -26.9150  -27.4670   17.1230 H   0  0  0  0  0  0  0  0  0  0  0  0
  -28.3610  -28.2560   17.5060 H   0  0  0  0  0  0  0  0  0  0  0  0
  1  2  1  0
  3  5  2  0
  3  4  1  0
  4  1  2  0
  5  6  1  0
  6  2  2  0
  6  8  1  0
  7  5  1  0
  8 10  1  0
  9  8  1  0
 10 11  1  0
 11 12  2  0
 12 13  1  0
 13 14  1  0
 14 16  1  0
 15 26  2  0
 16 21  1  0
 17 27  1  0
 17 25  1  0
 18 24  1  0
 18 20  1  0
 19 25  1  0
 20 19  1  0
 21 20  2  0
 22 23  1  0
 22 16  2  0
 23 18  2  0
 24 17  1  0
 25 15  1  0
 28 30  1  0
 28 27  1  0
 29 27  2  0
 31 36  1  0
 32 28  1  0
 33 32  1  0
 34 33  1  0
 35 34  1  0
 35 31  1  0
 36 32  1  0
 36 37  2  0
 38 37  1  0
 39 38  2  0
 40 31  2  0
 40 39  1  0
 41 15  1  0
 41 42  1  0
 42 45  1  0
 42 43  1  0
 43 47  1  0
 44 43  2  0
 47 46  1  0
 47 49  1  0
 49 48  1  0
 49 50  1  0
 51 41  1  0
 51 52  1  1
 51 54  1  0
 53 51  1  0
 55  4  1  0
 56 55  1  0
 57 70  1  0
 57 64  2  0
 58 59  1  0
 58 63  1  0
 60 61  1  0
 60 59  1  0
 61 74  1  0
 62 61  1  0
 62 63  1  0
 63 57  1  0
 66 69  1  0
 67 65  1  0
 68 70  1  0
 68 66  1  0
 69 65  1  0
 69 56  1  0
 70 67  1  0
 71 96  1  0
 72 71  2  0
 73 75  2  0
 73 72  1  0
 74 71  1  0
 75 74  1  0
 76 73  1  0
 77 76  2  0
 78 77  1  0
 79 78  2  0
 79 80  1  0
 80 81  2  0
 81 76  1  0
 82 79  1  0
 83 84  1  0
 83 82  1  0
 85 84  2  0
 86 85  1  0
 87 86  2  0
 87 88  1  0
 88 83  2  0
 89 88  1  0
 90 86  1  0
 91 72  1  0
 91 93  2  0
 92 91  1  0
 94 92  1  0
 95 92  1  0
 96 97  1  0
 96 98  1  0
M  ISO  4  13 101  14 101  57 100  70 100
M  END
>  <TORSDO>  (16) 
F 23

>  <SCORE>  (16) 
29.412

>  <name>  (16) 
15

>  <ligand_id>  (16) 
15

>  <original_smiles>  (16) 
[H]c1c([H])c([H])c2c(c1[H])C([H])([H])C([H])([H])C([H])([H])C2([H])N([H])C(=O)C1([H])N(C(=O)C([H])(N([H])C(=O)C([H])(N([H])C([H])([H])[H])C([H])([H])[H])C(C([H])([H])[H])(C([H])([H])[H])C([H])([H])[H])C([H])([H])c2c([H])c(OC([H])([H])C([H])([H])C([H])([H])C([H])([H])N([H])c3c([H])c([H])c(C([H])([H])C([H])([H])C4([H])C([H])([H])C([H])([H])N(C(=O)N5C([H])([H])C([H])([H])C([H])([H])C([H])(n6nc(-c7c([H])c([H])c(Oc8c([H])c([H])c(F)c([H])c8F)c([H])c7[H])c(C(=O)N([H])[H])c6N([H])[H])C5([H])[H])C([H])([H])C4([H])[H])c([H])c3C([H])([H])[H])c([H])c([H])c2C1([H])[H]

>  <smiles>  (16) 
[H]c1c([H])c([H])c2c(c1[H])C([H])([H])C([H])([H])C([H])([H])C2([H])N([H])C(=O)C1([H])N(C(=O)C([H])(N([H])C(=O)C([H])(N([H])C([H])([H])[H])C([H])([H])[H])C(C([H])([H])[H])(C([H])([H])[H])C([H])([H])[H])C([H])([H])c2c([H])c(OC([H])([H])C([H])([H])C([H])([H])C([H])([H])N([H])c3c([H])c([H])c(C([H])([H])C([H])([H])C4([H])C([H])([H])C([H])([H])N(C(=O)N5C([H])([H])C([H])([H])C([H])([H])C([H])(n6nc(-c7c([H])c([H])c(Oc8c([H])c([H])c(F)c([H])c8F)c([H])c7[H])c(C(=O)N([H])[H])c6N([H])[H])C5([H])[H])C([H])([H])C4([H])[H])c([H])c3C([H])([H])[H])c([H])c([H])c2C1([H])[H]

$$$$
16:0:0
     RDKit          3D

 84 91  0  0  1  0  0  0  0  0999 V2000
  -28.8310  -21.4880   20.5980 C   0  0  0  0  0  3  0  0  0  0  0  0
  -28.5800  -22.8300   20.0470 C   0  0  0  0  0  3  0  0  0  0  0  0
  -29.1880  -19.9730   19.9500 C   0  0  0  0  0  0  0  0  0  0  0  0
  -29.0220  -19.8800   18.7330 O   0  0  0  0  0  0  0  0  0  0  0  0
  -29.7550  -18.4730   20.6300 C   0  0  0  0  0  2  0  0  0  0  0  0
  -29.4780  -16.7560   20.1960 C   0  0  0  0  0  2  0  0  0  0  0  0
  -30.3900  -15.2630   20.2240 C   0  0  0  0  0  0  0  0  0  0  0  0
  -30.4070  -12.8180   19.3670 C   0  0  0  0  0  2  0  0  0  0  0  0
  -29.4720  -12.6440   18.1400 C   0  0  0  0  0  2  0  0  0  0  0  0
  -28.0220  -12.3770   18.5830 C   0  0  0  0  0  2  0  0  0  0  0  0
  -27.5810  -13.3260   19.7240 C   0  0  0  0  0  3  0  0  0  0  0  0
  -28.6370  -13.4450   20.8400 C   0  0  0  0  0  2  0  0  0  0  0  0
  -29.8770  -13.9380   20.2220 N   0  0  0  0  0  0  0  0  0  0  0  0
  -31.6100  -15.2970   20.0130 O   0  0  0  0  0  0  0  0  0  0  0  0
  -25.2140  -13.8730   20.5040 C   0  0  0  0  0  0  0  0  0  0  0  0
  -24.1590  -13.0900   20.8810 C   0  0  0  0  0  0  0  0  0  0  0  0
  -24.6320  -11.7420   20.8430 C   0  0  0  0  0  0  0  0  0  0  0  0
  -26.2580  -13.0040   20.2450 N   0  0  0  0  0  0  0  0  0  0  0  0
  -25.9210  -11.7160   20.5170 N   0  0  0  0  0  0  0  0  0  0  0  0
  -23.9130  -10.4760   21.0360 C   0  0  0  0  0  0  0  0  0  0  0  0
  -24.3560   -9.5060   21.9610 C   0  0  0  0  0  3  0  0  0  0  0  0
  -23.6340   -8.3070   22.1430 C   0  0  0  0  0  3  0  0  0  0  0  0
  -22.4530   -8.0690   21.4000 C   0  0  0  0  0  0  0  0  0  0  0  0
  -22.0280   -9.0280   20.4640 C   0  0  0  0  0  3  0  0  0  0  0  0
  -22.7520  -10.2180   20.2790 C   0  0  0  0  0  3  0  0  0  0  0  0
  -21.7020   -6.9220   21.4920 O   0  0  0  0  0  0  0  0  0  0  0  0
  -21.6680   -6.1730   22.6410 C   0  0  0  0  0  0  0  0  0  0  0  0
  -21.2580   -6.7210   23.8750 C   0  0  0  0  0  3  0  0  0  0  0  0
  -21.1710   -5.8990   25.0170 C   0  0  0  0  0  3  0  0  0  0  0  0
  -21.4840   -4.5300   24.9240 C   0  0  0  0  0  0  0  0  0  0  0  0
  -21.8880   -3.9810   23.6940 C   0  0  0  0  0  3  0  0  0  0  0  0
  -21.9750   -4.8010   22.5550 C   0  0  0  0  0  0  0  0  0  0  0  0
  -22.3440   -4.2620   21.3680 F   0  0  0  0  0  0  0  0  0  0  0  0
  -21.3940   -3.7380   26.0190 F   0  0  0  0  0  0  0  0  0  0  0  0
  -22.7610  -13.5590   21.1620 C   0  0  0  0  0  0  0  0  0  0  0  0
  -22.0420  -12.8580   22.0300 N   0  0  0  0  0  0  0  0  0  0  0  0
  -22.3180  -14.5860   20.6480 O   0  0  0  0  0  0  0  0  0  0  0  0
  -22.4160  -12.0290   22.4690 H   0  0  0  0  0  0  0  0  0  0  0  0
  -21.1040  -13.1550   22.2620 H   0  0  0  0  0  0  0  0  0  0  0  0
  -25.3690  -15.2460   20.3320 N   0  0  0  0  0  0  0  0  0  0  0  0
  -24.6000  -15.8950   20.4590 H   0  0  0  0  0  0  0  0  0  0  0  0
  -26.2120  -15.6920   19.9960 H   0  0  0  0  0  0  0  0  0  0  0  0
  -27.9760  -24.3410   20.6520 C   0  0  0  0  0  2  0  0  0  0  0  0
  -28.2360  -25.9100   20.2680 O   0  0  0  0  0  0  0  0  0  0  0  0
  -24.6340  -31.8690   23.2110 C   0  0  0  0  0  0  0  0  0  0  0  0
  -27.2130  -26.9880   20.2580 C   0  0  0  0  0  0  0  0  0  0  0  0
  -23.4480  -30.4550   21.5820 C   0  0  0  0  0  3  0  0  0  0  0  0
  -24.9050  -28.8420   20.1850 C   0  0  0  0  0  0  0  0  0  0  0  0
  -26.0130  -30.6780   21.4390 C   0  0  0  0  0  2  0  0  0  0  0  0
  -26.0910  -29.2640   20.8010 C   0  0  0  0  0  0  0  0  0  0  0  0
  -27.2430  -28.3590   20.8080 C   0  0  0  0  0  3  0  0  0  0  0  0
  -25.9960  -26.7100   19.5980 C   0  0  0  0  0  3  0  0  0  0  0  0
  -24.8800  -27.5840   19.5630 C   0  0  0  0  0  3  0  0  0  0  0  0
  -23.6830  -29.7580   20.2140 C   0  0  0  0  0  2  0  0  0  0  0  0
  -24.7200  -31.0270   22.1310 N   0  0  0  0  0  0  0  0  0  0  0  0
  -23.5420  -32.1600   23.7260 O   0  0  0  0  0  0  0  0  0  0  0  0
  -22.7540  -29.4660   22.5540 C   0  0  0  0  0  0  0  0  0  0  0  0
  -21.4240  -29.3040   22.4320 N   0  0  0  0  0  0  0  0  0  0  0  0
  -23.4190  -28.8440   23.3860 O   0  0  0  0  0  0  0  0  0  0  0  0
  -20.9400  -29.8550   21.7370 H   0  0  0  0  0  0  0  0  0  0  0  0
  -18.0380  -28.1090   22.9530 C   0  0  0  0  0  0  0  0  0  0  0  0
  -20.5990  -28.3730   23.2100 C   0  0  0  0  0  3  0  0  0  0  0  0
  -20.6970  -26.9370   22.6450 C   0  0  0  0  0  2  0  0  0  0  0  0
  -19.5920  -26.6090   21.6340 C   0  0  0  0  0  2  0  0  0  0  0  0
  -18.2120  -26.7560   22.2810 C   0  0  0  0  0  2  0  0  0  0  0  0
  -19.1580  -28.8740   23.3750 C   0  0  0  0  0  0  0  0  0  0  0  0
  -18.9380  -30.1370   23.9660 C   0  0  0  0  0  3  0  0  0  0  0  0
  -17.6330  -30.6350   24.1380 C   0  0  0  0  0  3  0  0  0  0  0  0
  -16.5290  -29.8680   23.7290 C   0  0  0  0  0  3  0  0  0  0  0  0
  -16.7310  -28.6060   23.1430 C   0  0  0  0  0  3  0  0  0  0  0  0
  -25.9020  -32.5200   23.8410 C   0  0  0  0  0  3  0  0  0  0  0  0
  -26.4070  -31.7650   25.1340 C   0  0  1  0  0  0  0  0  0  0  0  0
  -25.3040  -31.5410   26.1960 C   0  0  0  0  0  1  0  0  0  0  0  0
  -26.9940  -30.3820   24.7730 C   0  0  0  0  0  1  0  0  0  0  0  0
  -27.5510  -32.5680   25.7960 C   0  0  0  0  0  1  0  0  0  0  0  0
  -25.5790  -33.9200   24.1660 N   0  0  0  0  0  0  0  0  0  0  0  0
  -25.9120  -34.9780   23.4160 C   0  0  0  0  0  0  0  0  0  0  0  0
  -26.5860  -34.8790   22.3880 O   0  0  0  0  0  0  0  0  0  0  0  0
  -24.9790  -34.0700   24.9640 H   0  0  0  0  0  0  0  0  0  0  0  0
  -24.1820  -36.7750   23.0650 C   0  0  0  0  0  1  0  0  0  0  0  0
  -25.4220  -36.3670   23.8760 C   0  0  0  0  0  3  0  0  0  0  0  0
  -27.5540  -37.2560   24.7150 C   0  0  0  0  0  1  0  0  0  0  0  0
  -26.4540  -37.4220   23.7680 N   0  0  0  0  0  0  0  0  0  0  0  0
  -26.0460  -38.3420   23.9140 H   0  0  0  0  0  0  0  0  0  0  0  0
  2  1  2  0
  2 43  1  0
  3  1  1  0
  3  5  1  0
  4  3  2  0
  6  7  1  0
  6  5  1  0
  8 13  1  0
  9 10  1  0
  9  8  1  0
 11 10  1  0
 11 18  1  0
 11 12  1  0
 13  7  1  0
 13 12  1  0
 14  7  2  0
 15 16  2  0
 16 35  1  0
 17 16  1  0
 17 20  1  0
 18 15  1  0
 18 19  1  0
 19 17  2  0
 20 21  1  0
 21 22  2  0
 23 26  1  0
 23 22  1  0
 24 23  2  0
 25 24  1  0
 25 20  2  0
 26 27  1  0
 27 28  1  0
 28 29  2  0
 30 29  1  0
 30 34  1  0
 31 30  2  0
 32 27  2  0
 32 31  1  0
 33 32  1  0
 35 36  1  0
 36 39  1  0
 36 38  1  0
 37 35  2  0
 40 41  1  0
 40 15  1  0
 42 40  1  0
 44 43  1  0
 45 56  2  0
 46 44  1  0
 46 51  1  0
 47 55  1  0
 47 57  1  0
 48 54  1  0
 48 50  1  0
 49 55  1  0
 50 51  2  0
 50 49  1  0
 52 46  2  0
 53 52  1  0
 53 48  2  0
 54 47  1  0
 55 45  1  0
 57 59  2  0
 58 57  1  0
 60 58  1  0
 61 70  2  0
 61 66  1  0
 62 58  1  0
 62 66  1  0
 63 62  1  0
 64 65  1  0
 64 63  1  0
 65 61  1  0
 66 67  2  0
 67 68  1  0
 69 68  2  0
 70 69  1  0
 71 45  1  0
 71 76  1  0
 71 72  1  0
 72 75  1  1
 72 73  1  0
 74 72  1  0
 76 79  1  0
 77 81  1  0
 77 76  1  0
 78 77  2  0
 81 80  1  0
 83 81  1  0
 83 84  1  0
 83 82  1  0
M  ISO  4   6 100   7 100  43 101  44 101
M  END
>  <TORSDO>  (17) 
F 20

>  <SCORE>  (17) 
-15.455

>  <name>  (17) 
16

>  <ligand_id>  (17) 
16

>  <original_smiles>  (17) 
[H]C(C(=O)C([H])([H])C([H])([H])C(=O)N1C([H])([H])C([H])([H])C([H])([H])C([H])(n2nc(-c3c([H])c([H])c(Oc4c([H])c([H])c(F)c([H])c4F)c([H])c3[H])c(C(=O)N([H])[H])c2N([H])[H])C1([H])[H])=C([H])C([H])([H])Oc1c([H])c([H])c2c(c1[H])C([H])([H])N(C(=O)C([H])(N([H])C(=O)C([H])(N([H])C([H])([H])[H])C([H])([H])[H])C(C([H])([H])[H])(C([H])([H])[H])C([H])([H])[H])C([H])(C(=O)N([H])C1([H])c3c([H])c([H])c([H])c([H])c3C([H])([H])C([H])([H])C1([H])[H])C2([H])[H]

>  <smiles>  (17) 
[H]C(C(=O)C([H])([H])C([H])([H])C(=O)N1C([H])([H])C([H])([H])C([H])([H])C([H])(n2nc(-c3c([H])c([H])c(Oc4c([H])c([H])c(F)c([H])c4F)c([H])c3[H])c(C(=O)N([H])[H])c2N([H])[H])C1([H])[H])=C([H])C([H])([H])Oc1c([H])c([H])c2c(c1[H])C([H])([H])N(C(=O)C([H])(N([H])C(=O)C([H])(N([H])C([H])([H])[H])C([H])([H])[H])C(C([H])([H])[H])(C([H])([H])[H])C([H])([H])[H])C([H])(C(=O)N([H])C1([H])c3c([H])c([H])c([H])c([H])c3C([H])([H])C([H])([H])C1([H])[H])C2([H])[H]

$$$$
17:0:0
     RDKit          3D

102110  0  0  1  0  0  0  0  0999 V2000
  -30.3270  -21.8430   23.0180 C   0  0  0  0  0  3  0  0  0  0  0  0
  -29.9740  -22.7330   21.9870 C   0  0  0  0  0  3  0  0  0  0  0  0
  -29.4730  -20.0020   21.7030 C   0  0  0  0  0  3  0  0  0  0  0  0
  -30.0810  -20.4600   22.8920 C   0  0  0  0  0  0  0  0  0  0  0  0
  -29.3740  -22.2760   20.7880 C   0  0  0  0  0  0  0  0  0  0  0  0
  -29.1680  -20.8710   20.6340 C   0  0  0  0  0  0  0  0  0  0  0  0
  -30.4780  -19.5350   23.9980 C   0  0  0  0  0  0  0  0  0  0  0  0
  -31.0140  -19.9390   25.0350 O   0  0  0  0  0  0  0  0  0  0  0  0
  -30.1960  -18.0330   23.8320 C   0  0  0  0  0  2  0  0  0  0  0  0
  -31.4580  -17.1560   23.6930 C   0  0  0  0  0  2  0  0  0  0  0  0
  -31.8020  -16.9280   22.2210 C   0  0  0  0  0  0  0  0  0  0  0  0
  -32.0430  -15.6840   21.8270 N   0  0  0  0  0  0  0  0  0  0  0  0
  -31.8380  -17.8650   21.4290 O   0  0  0  0  0  0  0  0  0  0  0  0
  -32.0100  -14.9180   22.4860 H   0  0  0  0  0  0  0  0  0  0  0  0
  -32.2780  -15.4970   20.8630 H   0  0  0  0  0  0  0  0  0  0  0  0
  -30.0970  -23.3750   18.6350 C   0  0  0  0  0  1  0  0  0  0  0  0
  -28.9940  -23.3060   19.7070 C   0  0  0  0  0  3  0  0  0  0  0  0
  -28.6560  -24.7100   20.2830 C   0  0  0  0  0  2  0  0  0  0  0  0
  -28.2500  -25.7700   19.2440 C   0  0  0  0  0  2  0  0  0  0  0  0
  -28.1230  -27.0380   19.8970 O   0  0  0  0  0  0  0  0  0  0  0  0
  -24.5860  -32.0550   23.4580 C   0  0  0  0  0  0  0  0  0  0  0  0
  -26.9200  -27.7100   20.0020 C   0  0  0  0  0  0  0  0  0  0  0  0
  -23.2440  -30.7800   21.8120 C   0  0  0  0  0  3  0  0  0  0  0  0
  -24.5670  -29.2720   20.2390 C   0  0  0  0  0  0  0  0  0  0  0  0
  -25.7630  -31.0710   21.4940 C   0  0  0  0  0  2  0  0  0  0  0  0
  -25.7670  -29.7310   20.7870 C   0  0  0  0  0  0  0  0  0  0  0  0
  -26.9410  -28.9550   20.6690 C   0  0  0  0  0  3  0  0  0  0  0  0
  -25.6900  -27.2510   19.4730 C   0  0  0  0  0  3  0  0  0  0  0  0
  -24.5210  -28.0300   19.5840 C   0  0  0  0  0  3  0  0  0  0  0  0
  -23.3560  -30.1660   20.3900 C   0  0  0  0  0  2  0  0  0  0  0  0
  -24.5530  -31.3140   22.3130 N   0  0  0  0  0  0  0  0  0  0  0  0
  -23.5450  -32.3320   24.0700 O   0  0  0  0  0  0  0  0  0  0  0  0
  -22.6110  -29.7320   22.7540 C   0  0  0  0  0  0  0  0  0  0  0  0
  -21.3060  -29.4780   22.5730 N   0  0  0  0  0  0  0  0  0  0  0  0
  -23.2930  -29.1490   23.6000 O   0  0  0  0  0  0  0  0  0  0  0  0
  -20.8150  -30.0060   21.8660 H   0  0  0  0  0  0  0  0  0  0  0  0
  -18.0260  -27.9860   22.8130 C   0  0  0  0  0  0  0  0  0  0  0  0
  -20.5080  -28.5040   23.3160 C   0  0  0  0  0  3  0  0  0  0  0  0
  -20.8000  -27.0630   22.8340 C   0  0  0  0  0  2  0  0  0  0  0  0
  -19.8410  -26.5870   21.7390 C   0  0  0  0  0  2  0  0  0  0  0  0
  -18.3930  -26.6290   22.2370 C   0  0  0  0  0  2  0  0  0  0  0  0
  -19.0210  -28.8730   23.3050 C   0  0  0  0  0  0  0  0  0  0  0  0
  -18.6260  -30.1380   23.7950 C   0  0  0  0  0  3  0  0  0  0  0  0
  -17.2710  -30.5160   23.8030 C   0  0  0  0  0  3  0  0  0  0  0  0
  -16.2900  -29.6280   23.3300 C   0  0  0  0  0  3  0  0  0  0  0  0
  -16.6680  -28.3650   22.8390 C   0  0  0  0  0  3  0  0  0  0  0  0
  -25.9260  -32.6080   24.0370 C   0  0  0  0  0  3  0  0  0  0  0  0
  -25.7060  -34.0150   24.3950 N   0  0  0  0  0  0  0  0  0  0  0  0
  -26.0700  -35.0570   23.6360 C   0  0  0  0  0  0  0  0  0  0  0  0
  -26.6980  -34.9320   22.5820 O   0  0  0  0  0  0  0  0  0  0  0  0
  -25.1500  -34.1910   25.2180 H   0  0  0  0  0  0  0  0  0  0  0  0
  -24.4230  -36.9400   23.3620 C   0  0  0  0  0  1  0  0  0  0  0  0
  -25.6710  -36.4630   24.1240 C   0  0  0  0  0  3  0  0  0  0  0  0
  -27.8810  -37.2210   24.8780 C   0  0  0  0  0  1  0  0  0  0  0  0
  -26.7510  -37.4640   23.9840 N   0  0  0  0  0  0  0  0  0  0  0  0
  -26.3990  -38.4010   24.1640 H   0  0  0  0  0  0  0  0  0  0  0  0
  -26.4500  -31.7910   25.2800 C   0  0  1  0  0  0  0  0  0  0  0  0
  -25.3770  -31.5510   26.3670 C   0  0  0  0  0  1  0  0  0  0  0  0
  -26.9870  -30.4100   24.8350 C   0  0  0  0  0  1  0  0  0  0  0  0
  -27.6340  -32.5380   25.9390 C   0  0  0  0  0  1  0  0  0  0  0  0
  -28.6530  -20.2150   19.3520 C   0  0  0  0  0  2  0  0  0  0  0  0
  -29.6130  -19.1430   18.7800 C   0  0  0  0  0  2  0  0  0  0  0  0
  -29.3580  -17.6780   19.2170 C   0  0  0  0  0  2  0  0  0  0  0  0
  -30.5330  -17.0120   19.9640 C   0  0  0  0  0  2  0  0  0  0  0  0
  -30.8840  -14.5600   19.6900 C   0  0  0  0  0  0  0  0  0  0  0  0
  -30.3730  -12.4530   18.5350 C   0  0  0  0  0  2  0  0  0  0  0  0
  -29.3100  -12.7600   17.4610 C   0  0  0  0  0  2  0  0  0  0  0  0
  -27.8910  -12.6560   18.0560 C   0  0  0  0  0  2  0  0  0  0  0  0
  -27.7370  -13.4460   19.3850 C   0  0  0  0  0  3  0  0  0  0  0  0
  -28.9090  -13.1360   20.3480 C   0  0  0  0  0  2  0  0  0  0  0  0
  -30.1690  -13.4050   19.6360 N   0  0  0  0  0  0  0  0  0  0  0  0
  -31.9560  -14.7180   19.1000 O   0  0  0  0  0  0  0  0  0  0  0  0
  -30.2400  -15.6000   20.2410 N   0  0  0  0  0  0  0  0  0  0  0  0
  -29.3820  -15.3880   20.7260 H   0  0  0  0  0  0  0  0  0  0  0  0
  -25.5000  -14.0960   20.4790 C   0  0  0  0  0  0  0  0  0  0  0  0
  -24.4350  -13.3450   20.9000 C   0  0  0  0  0  0  0  0  0  0  0  0
  -24.7870  -11.9840   20.6460 C   0  0  0  0  0  0  0  0  0  0  0  0
  -26.4390  -13.1920   20.0080 N   0  0  0  0  0  0  0  0  0  0  0  0
  -26.0190  -11.9100   20.1610 N   0  0  0  0  0  0  0  0  0  0  0  0
  -23.9990  -10.7520   20.7850 C   0  0  0  0  0  0  0  0  0  0  0  0
  -24.4570   -9.6640   21.5600 C   0  0  0  0  0  3  0  0  0  0  0  0
  -23.6740   -8.4970   21.6910 C   0  0  0  0  0  3  0  0  0  0  0  0
  -22.4170   -8.4090   21.0490 C   0  0  0  0  0  0  0  0  0  0  0  0
  -21.9750   -9.4860   20.2590 C   0  0  0  0  0  3  0  0  0  0  0  0
  -22.7590  -10.6450   20.1250 C   0  0  0  0  0  3  0  0  0  0  0  0
  -21.5990   -7.3070   21.1010 O   0  0  0  0  0  0  0  0  0  0  0  0
  -21.5780   -6.4770   22.1940 C   0  0  0  0  0  0  0  0  0  0  0  0
  -21.2830   -6.9560   23.4890 C   0  0  0  0  0  3  0  0  0  0  0  0
  -21.2030   -6.0580   24.5720 C   0  0  0  0  0  3  0  0  0  0  0  0
  -21.4070   -4.6820   24.3610 C   0  0  0  0  0  0  0  0  0  0  0  0
  -21.6920   -4.2000   23.0700 C   0  0  0  0  0  3  0  0  0  0  0  0
  -21.7750   -5.0960   21.9910 C   0  0  0  0  0  0  0  0  0  0  0  0
  -22.0310   -4.6240   20.7470 F   0  0  0  0  0  0  0  0  0  0  0  0
  -21.3220   -3.8170   25.3990 F   0  0  0  0  0  0  0  0  0  0  0  0
  -23.1230  -13.8620   21.4180 C   0  0  0  0  0  0  0  0  0  0  0  0
  -22.4730  -13.1160   22.3050 N   0  0  0  0  0  0  0  0  0  0  0  0
  -22.6900  -14.9610   21.0740 O   0  0  0  0  0  0  0  0  0  0  0  0
  -22.8340  -12.2220   22.6060 H   0  0  0  0  0  0  0  0  0  0  0  0
  -21.5990  -13.4450   22.6920 H   0  0  0  0  0  0  0  0  0  0  0  0
  -25.7390  -15.4650   20.4380 N   0  0  0  0  0  0  0  0  0  0  0  0
  -25.0420  -16.1450   20.7200 H   0  0  0  0  0  0  0  0  0  0  0  0
  -26.5600  -15.8900   20.0250 H   0  0  0  0  0  0  0  0  0  0  0  0
  2  1  2  0
  3  4  2  0
  4  1  1  0
  4  7  1  0
  5  2  1  0
  6  5  2  0
  6  3  1  0
  7  8  2  0
  9  7  1  0
 10  9  1  0
 11 10  1  0
 12 11  1  0
 12 14  1  0
 13 11  2  0
 15 12  1  0
 17 16  1  0
 17 18  1  0
 17  5  1  0
 19 20  1  0
 19 18  1  0
 20 22  1  0
 21 32  2  0
 22 27  1  0
 23 31  1  0
 23 33  1  0
 24 30  1  0
 24 26  1  0
 25 31  1  0
 26 25  1  0
 27 26  2  0
 28 29  1  0
 28 22  2  0
 29 24  2  0
 30 23  1  0
 31 21  1  0
 33 35  2  0
 34 33  1  0
 36 34  1  0
 37 46  2  0
 37 42  1  0
 38 34  1  0
 39 38  1  0
 40 41  1  0
 40 39  1  0
 41 37  1  0
 42 38  1  0
 42 43  2  0
 43 44  1  0
 45 44  2  0
 46 45  1  0
 47 21  1  0
 47 48  1  0
 47 57  1  0
 48 51  1  0
 49 53  1  0
 49 48  1  0
 50 49  2  0
 53 52  1  0
 55 53  1  0
 55 56  1  0
 55 54  1  0
 57 60  1  1
 57 58  1  0
 59 57  1  0
 61  6  1  0
 62 63  1  0
 62 61  1  0
 63 64  1  0
 64 73  1  0
 65 73  1  0
 66 71  1  0
 67 68  1  0
 67 66  1  0
 69 68  1  0
 69 78  1  0
 69 70  1  0
 71 65  1  0
 71 70  1  0
 72 65  2  0
 73 74  1  0
 75 76  2  0
 76 95  1  0
 77 80  1  0
 77 76  1  0
 78 79  1  0
 78 75  1  0
 79 77  2  0
 80 81  1  0
 81 82  2  0
 83 86  1  0
 83 82  1  0
 84 83  2  0
 85 84  1  0
 85 80  2  0
 86 87  1  0
 87 88  1  0
 88 89  2  0
 90 89  1  0
 90 94  1  0
 91 90  2  0
 92 87  2  0
 92 91  1  0
 93 92  1  0
 95 96  1  0
 96 98  1  0
 96 99  1  0
 97 95  2  0
100 75  1  0
100101  1  0
102100  1  0
M  ISO  4  19 101  20 101  65 100  73 100
M  END
>  <TORSDO>  (18) 
F 27

>  <SCORE>  (18) 
-6.038

>  <name>  (18) 
17

>  <ligand_id>  (18) 
17

>  <original_smiles>  (18) 
[H]c1c([H])c([H])c2c(c1[H])C([H])([H])C([H])([H])C([H])([H])C2([H])N([H])C(=O)C1([H])N(C(=O)C([H])(N([H])C(=O)C([H])(N([H])C([H])([H])[H])C([H])([H])[H])C(C([H])([H])[H])(C([H])([H])[H])C([H])([H])[H])C([H])([H])c2c([H])c(OC([H])([H])C([H])([H])C([H])(c3c([H])c([H])c(C(=O)C([H])([H])C([H])([H])C(=O)N([H])[H])c([H])c3C([H])([H])C([H])([H])C([H])([H])C([H])([H])N([H])C(=O)N3C([H])([H])C([H])([H])C([H])([H])C([H])(n4nc(-c5c([H])c([H])c(Oc6c([H])c([H])c(F)c([H])c6F)c([H])c5[H])c(C(=O)N([H])[H])c4N([H])[H])C3([H])[H])C([H])([H])[H])c([H])c([H])c2C1([H])[H]

>  <smiles>  (18) 
[H]c1c([H])c([H])c2c(c1[H])C([H])([H])C([H])([H])C([H])([H])C2([H])N([H])C(=O)C1([H])N(C(=O)C([H])(N([H])C(=O)C([H])(N([H])C([H])([H])[H])C([H])([H])[H])C(C([H])([H])[H])(C([H])([H])[H])C([H])([H])[H])C([H])([H])c2c([H])c(OC([H])([H])C([H])([H])C([H])(c3c([H])c([H])c(C(=O)C([H])([H])C([H])([H])C(=O)N([H])[H])c([H])c3C([H])([H])C([H])([H])C([H])([H])C([H])([H])N([H])C(=O)N3C([H])([H])C([H])([H])C([H])([H])C([H])(n4nc(-c5c([H])c([H])c(Oc6c([H])c([H])c(F)c([H])c6F)c([H])c5[H])c(C(=O)N([H])[H])c4N([H])[H])C3([H])[H])C([H])([H])[H])c([H])c([H])c2C1([H])[H]

$$$$
18:0:0
     RDKit          3D

 95103  0  0  1  0  0  0  0  0999 V2000
  -30.7680  -21.8070   22.9080 C   0  0  0  0  0  3  0  0  0  0  0  0
  -30.3900  -22.9730   22.2220 C   0  0  0  0  0  3  0  0  0  0  0  0
  -29.7560  -20.4510   21.1650 C   0  0  0  0  0  3  0  0  0  0  0  0
  -30.4950  -20.5300   22.3690 C   0  0  0  0  0  0  0  0  0  0  0  0
  -29.6960  -22.8960   20.9910 C   0  0  0  0  0  0  0  0  0  0  0  0
  -29.3280  -21.6230   20.4810 C   0  0  0  0  0  0  0  0  0  0  0  0
  -28.1240  -20.3150   18.8310 C   0  0  0  0  0  1  0  0  0  0  0  0
  -28.5680  -21.5790   19.3270 O   0  0  0  0  0  0  0  0  0  0  0  0
  -30.9450  -19.3210   23.1290 C   0  0  0  0  0  0  0  0  0  0  0  0
  -31.6960  -19.3990   24.1070 O   0  0  0  0  0  0  0  0  0  0  0  0
  -30.5360  -17.9200   22.6500 C   0  0  0  0  0  2  0  0  0  0  0  0
  -31.4100  -17.4200   21.4760 C   0  0  0  0  0  2  0  0  0  0  0  0
  -31.7530  -15.9120   21.5200 C   0  0  0  0  0  2  0  0  0  0  0  0
  -30.8780  -14.2870   19.8410 C   0  0  0  0  0  0  0  0  0  0  0  0
  -30.4070  -12.1000   18.7910 C   0  0  0  0  0  2  0  0  0  0  0  0
  -29.3560  -12.1600   17.6680 C   0  0  0  0  0  2  0  0  0  0  0  0
  -27.9330  -12.0410   18.2460 C   0  0  0  0  0  2  0  0  0  0  0  0
  -27.6900  -13.0140   19.4300 C   0  0  0  0  0  3  0  0  0  0  0  0
  -28.8360  -12.9340   20.4610 C   0  0  0  0  0  2  0  0  0  0  0  0
  -30.1210  -13.1610   19.7700 N   0  0  0  0  0  0  0  0  0  0  0  0
  -31.7790  -14.5380   19.0330 O   0  0  0  0  0  0  0  0  0  0  0  0
  -30.7250  -15.0260   20.9550 N   0  0  0  0  0  0  0  0  0  0  0  0
  -29.9650  -14.7660   21.5690 H   0  0  0  0  0  0  0  0  0  0  0  0
  -25.4370  -13.7040   20.4710 C   0  0  0  0  0  0  0  0  0  0  0  0
  -24.3710  -12.9700   20.9170 C   0  0  0  0  0  0  0  0  0  0  0  0
  -24.7330  -11.6010   20.7380 C   0  0  0  0  0  0  0  0  0  0  0  0
  -26.3860  -12.7840   20.0530 N   0  0  0  0  0  0  0  0  0  0  0  0
  -25.9700  -11.5080   20.2670 N   0  0  0  0  0  0  0  0  0  0  0  0
  -23.9530  -10.3730   20.9360 C   0  0  0  0  0  0  0  0  0  0  0  0
  -24.3760   -9.3620   21.8270 C   0  0  0  0  0  3  0  0  0  0  0  0
  -23.5980   -8.1970   22.0110 C   0  0  0  0  0  3  0  0  0  0  0  0
  -22.3810   -8.0370   21.3060 C   0  0  0  0  0  0  0  0  0  0  0  0
  -21.9750   -9.0380   20.4070 C   0  0  0  0  0  3  0  0  0  0  0  0
  -22.7540  -10.1930   20.2190 C   0  0  0  0  0  3  0  0  0  0  0  0
  -21.5720   -6.9290   21.4040 O   0  0  0  0  0  0  0  0  0  0  0  0
  -21.4830   -6.2050   22.5650 C   0  0  0  0  0  0  0  0  0  0  0  0
  -21.0580   -6.7910   23.7780 C   0  0  0  0  0  3  0  0  0  0  0  0
  -20.9110   -5.9950   24.9310 C   0  0  0  0  0  3  0  0  0  0  0  0
  -21.1770   -4.6130   24.8730 C   0  0  0  0  0  0  0  0  0  0  0  0
  -21.5950   -4.0290   23.6640 C   0  0  0  0  0  3  0  0  0  0  0  0
  -21.7430   -4.8210   22.5140 C   0  0  0  0  0  0  0  0  0  0  0  0
  -22.1250   -4.2460   21.3470 F   0  0  0  0  0  0  0  0  0  0  0  0
  -21.0290   -3.8480   25.9790 F   0  0  0  0  0  0  0  0  0  0  0  0
  -23.0520  -13.5050   21.3950 C   0  0  0  0  0  0  0  0  0  0  0  0
  -22.3990  -12.8070   22.3150 N   0  0  0  0  0  0  0  0  0  0  0  0
  -22.6140  -14.5800   20.9840 O   0  0  0  0  0  0  0  0  0  0  0  0
  -22.7660  -11.9350   22.6720 H   0  0  0  0  0  0  0  0  0  0  0  0
  -21.5140  -13.1480   22.6670 H   0  0  0  0  0  0  0  0  0  0  0  0
  -25.6670  -15.0720   20.3650 N   0  0  0  0  0  0  0  0  0  0  0  0
  -24.9610  -15.7580   20.6130 H   0  0  0  0  0  0  0  0  0  0  0  0
  -26.4960  -15.4890   19.9630 H   0  0  0  0  0  0  0  0  0  0  0  0
  -29.3240  -24.1810   20.2400 C   0  0  0  0  0  2  0  0  0  0  0  0
  -30.4260  -25.2700   20.2220 C   0  0  0  0  0  2  0  0  0  0  0  0
  -30.0150  -26.5680   19.4960 C   0  0  0  0  0  2  0  0  0  0  0  0
  -29.4070  -27.4390   20.4530 O   0  0  0  0  0  0  0  0  0  0  0  0
  -24.6200  -31.7880   23.3320 C   0  0  0  0  0  0  0  0  0  0  0  0
  -28.1250  -27.9280   20.3180 C   0  0  0  0  0  0  0  0  0  0  0  0
  -23.7750  -30.3450   21.5060 C   0  0  0  0  0  3  0  0  0  0  0  0
  -25.5500  -29.0910   20.1620 C   0  0  0  0  0  0  0  0  0  0  0  0
  -26.2300  -31.0380   21.5790 C   0  0  0  0  0  2  0  0  0  0  0  0
  -26.5600  -29.7270   20.8950 C   0  0  0  0  0  0  0  0  0  0  0  0
  -27.8410  -29.1410   20.9810 C   0  0  0  0  0  3  0  0  0  0  0  0
  -27.0900  -27.2930   19.5890 C   0  0  0  0  0  3  0  0  0  0  0  0
  -25.8050  -27.8720   19.5110 C   0  0  0  0  0  3  0  0  0  0  0  0
  -24.2010  -29.7760   20.1250 C   0  0  0  0  0  2  0  0  0  0  0  0
  -24.8860  -31.0700   22.2020 N   0  0  0  0  0  0  0  0  0  0  0  0
  -23.4660  -31.8880   23.7710 O   0  0  0  0  0  0  0  0  0  0  0  0
  -23.1750  -29.1950   22.3470 C   0  0  0  0  0  0  0  0  0  0  0  0
  -21.8860  -28.8960   22.1140 N   0  0  0  0  0  0  0  0  0  0  0  0
  -23.8650  -28.5770   23.1600 O   0  0  0  0  0  0  0  0  0  0  0  0
  -21.3930  -29.4490   21.4300 H   0  0  0  0  0  0  0  0  0  0  0  0
  -18.6160  -27.3770   22.3130 C   0  0  0  0  0  0  0  0  0  0  0  0
  -21.1230  -27.8290   22.7550 C   0  0  0  0  0  3  0  0  0  0  0  0
  -21.3850  -26.4680   22.0660 C   0  0  0  0  0  2  0  0  0  0  0  0
  -20.3700  -26.1440   20.9670 C   0  0  0  0  0  2  0  0  0  0  0  0
  -18.9490  -26.1120   21.5380 C   0  0  0  0  0  2  0  0  0  0  0  0
  -19.6370  -28.1900   22.8670 C   0  0  0  0  0  0  0  0  0  0  0  0
  -19.2790  -29.3740   23.5480 C   0  0  0  0  0  3  0  0  0  0  0  0
  -17.9260  -29.7450   23.6800 C   0  0  0  0  0  3  0  0  0  0  0  0
  -16.9190  -28.9250   23.1440 C   0  0  0  0  0  3  0  0  0  0  0  0
  -17.2630  -27.7450   22.4630 C   0  0  0  0  0  3  0  0  0  0  0  0
  -25.7480  -32.5350   24.1090 C   0  0  0  0  0  3  0  0  0  0  0  0
  -25.3110  -33.9230   24.3080 N   0  0  0  0  0  0  0  0  0  0  0  0
  -25.7040  -34.9550   23.5500 C   0  0  0  0  0  0  0  0  0  0  0  0
  -26.5380  -34.8480   22.6460 O   0  0  0  0  0  0  0  0  0  0  0  0
  -24.5820  -34.0760   24.9890 H   0  0  0  0  0  0  0  0  0  0  0  0
  -23.9500  -36.6040   22.8170 C   0  0  0  0  0  1  0  0  0  0  0  0
  -25.0660  -36.3280   23.8360 C   0  0  0  0  0  3  0  0  0  0  0  0
  -26.9970  -37.3860   24.9240 C   0  0  0  0  0  1  0  0  0  0  0  0
  -26.0400  -37.4400   23.8220 N   0  0  0  0  0  0  0  0  0  0  0  0
  -25.5640  -38.3370   23.8680 H   0  0  0  0  0  0  0  0  0  0  0  0
  -26.1070  -31.8590   25.4900 C   0  0  1  0  0  0  0  0  0  0  0  0
  -24.8740  -31.5750   26.3820 C   0  0  0  0  0  1  0  0  0  0  0  0
  -26.8420  -30.5170   25.2630 C   0  0  0  0  0  1  0  0  0  0  0  0
  -27.0740  -32.7650   26.2890 C   0  0  0  0  0  1  0  0  0  0  0  0
  2  1  2  0
  3  4  2  0
  4  1  1  0
  4  9  1  0
  5  2  1  0
  6  5  2  0
  6  3  1  0
  7  8  1  0
  8  6  1  0
  9 10  2  0
 11  9  1  0
 12 13  1  0
 12 11  1  0
 14 22  1  0
 15 20  1  0
 16 17  1  0
 16 15  1  0
 18 17  1  0
 18 27  1  0
 18 19  1  0
 20 14  1  0
 20 19  1  0
 21 14  2  0
 22 13  1  0
 22 23  1  0
 24 25  2  0
 25 44  1  0
 26 25  1  0
 26 29  1  0
 27 28  1  0
 27 24  1  0
 28 26  2  0
 29 30  1  0
 30 31  2  0
 32 35  1  0
 32 31  1  0
 33 32  2  0
 34 33  1  0
 34 29  2  0
 35 36  1  0
 36 37  1  0
 37 38  2  0
 39 38  1  0
 39 43  1  0
 40 39  2  0
 41 36  2  0
 41 40  1  0
 42 41  1  0
 44 45  1  0
 45 48  1  0
 45 47  1  0
 46 44  2  0
 49 24  1  0
 49 50  1  0
 51 49  1  0
 52  5  1  0
 53 52  1  0
 54 53  1  0
 54 55  1  0
 56 67  2  0
 57 55  1  0
 57 62  1  0
 58 66  1  0
 58 68  1  0
 59 61  1  0
 60 66  1  0
 61 62  2  0
 61 60  1  0
 63 57  2  0
 64 63  1  0
 64 59  2  0
 65 59  1  0
 65 58  1  0
 66 56  1  0
 68 70  2  0
 69 68  1  0
 71 69  1  0
 72 81  2  0
 72 77  1  0
 73 69  1  0
 73 77  1  0
 74 73  1  0
 75 76  1  0
 75 74  1  0
 76 72  1  0
 77 78  2  0
 78 79  1  0
 80 79  2  0
 81 80  1  0
 82 56  1  0
 82 83  1  0
 82 92  1  0
 83 86  1  0
 84 88  1  0
 84 83  1  0
 85 84  2  0
 88 87  1  0
 90 88  1  0
 90 91  1  0
 90 89  1  0
 92 95  1  1
 92 93  1  0
 94 92  1  0
M  ISO  4  14 100  22 100  54 101  55 101
M  END
>  <TORSDO>  (19) 
F 24

>  <SCORE>  (19) 
-10.447

>  <name>  (19) 
18

>  <ligand_id>  (19) 
18

>  <original_smiles>  (19) 
[H]c1c([H])c([H])c2c(c1[H])C([H])([H])C([H])([H])C([H])([H])C2([H])N([H])C(=O)C1([H])N(C(=O)C([H])(N([H])C(=O)C([H])(N([H])C([H])([H])[H])C([H])([H])[H])C(C([H])([H])[H])(C([H])([H])[H])C([H])([H])[H])C([H])([H])c2c([H])c(OC([H])([H])C([H])([H])C([H])([H])c3c([H])c([H])c(C(=O)C([H])([H])C([H])([H])C([H])([H])N([H])C(=O)N4C([H])([H])C([H])([H])C([H])([H])C([H])(n5nc(-c6c([H])c([H])c(Oc7c([H])c([H])c(F)c([H])c7F)c([H])c6[H])c(C(=O)N([H])[H])c5N([H])[H])C4([H])[H])c([H])c3OC([H])([H])[H])c([H])c([H])c2C1([H])[H]

>  <smiles>  (19) 
[H]c1c([H])c([H])c2c(c1[H])C([H])([H])C([H])([H])C([H])([H])C2([H])N([H])C(=O)C1([H])N(C(=O)C([H])(N([H])C(=O)C([H])(N([H])C([H])([H])[H])C([H])([H])[H])C(C([H])([H])[H])(C([H])([H])[H])C([H])([H])[H])C([H])([H])c2c([H])c(OC([H])([H])C([H])([H])C([H])([H])c3c([H])c([H])c(C(=O)C([H])([H])C([H])([H])C([H])([H])N([H])C(=O)N4C([H])([H])C([H])([H])C([H])([H])C([H])(n5nc(-c6c([H])c([H])c(Oc7c([H])c([H])c(F)c([H])c7F)c([H])c6[H])c(C(=O)N([H])[H])c5N([H])[H])C4([H])[H])c([H])c3OC([H])([H])[H])c([H])c([H])c2C1([H])[H]

$$$$
19:0:0
     RDKit          3D

100108  0  0  1  0  0  0  0  0999 V2000
  -26.0080  -21.4370   19.5420 C   0  0  0  0  0  3  0  0  0  0  0  0
  -27.9530  -22.0290   18.2290 C   0  0  0  0  0  3  0  0  0  0  0  0
  -26.3240  -23.7480   18.8000 C   0  0  0  0  0  3  0  0  0  0  0  0
  -27.2200  -21.0570   18.9440 C   0  0  0  0  0  0  0  0  0  0  0  0
  -25.5440  -22.7620   19.4620 C   0  0  0  0  0  0  0  0  0  0  0  0
  -27.5180  -23.3710   18.1460 C   0  0  0  0  0  0  0  0  0  0  0  0
  -27.6140  -24.4620   15.8680 C   0  0  0  0  0  1  0  0  0  0  0  0
  -28.2990  -24.3260   17.2310 C   0  0  0  0  0  3  0  0  0  0  0  0
  -28.5200  -25.6840   17.7710 N   0  0  0  0  0  4  0  0  0  0  0  0
  -29.0550  -26.1710   17.0640 H   0  0  0  0  0  0  0  0  0  0  0  0
  -27.6240  -26.1350   17.8350 H   0  0  0  0  0  0  0  0  0  0  0  0
  -29.2430  -25.8330   19.0570 C   0  0  0  0  0  2  0  0  0  0  0  0
  -29.7530  -27.2860   19.2310 C   0  0  0  0  0  2  0  0  0  0  0  0
  -29.3980  -27.8250   20.5010 O   0  0  0  0  0  0  0  0  0  0  0  0
  -25.2870  -32.1470   24.3690 C   0  0  0  0  0  0  0  0  0  0  0  0
  -28.1670  -28.4360   20.6180 C   0  0  0  0  0  0  0  0  0  0  0  0
  -24.1680  -31.0400   22.4620 C   0  0  0  0  0  3  0  0  0  0  0  0
  -25.7070  -29.8250   20.8340 C   0  0  0  0  0  0  0  0  0  0  0  0
  -26.6850  -31.5040   22.4070 C   0  0  0  0  0  2  0  0  0  0  0  0
  -26.8310  -30.2740   21.5400 C   0  0  0  0  0  0  0  0  0  0  0  0
  -28.0580  -29.5820   21.4350 C   0  0  0  0  0  3  0  0  0  0  0  0
  -27.0050  -27.9720   19.9540 C   0  0  0  0  0  3  0  0  0  0  0  0
  -25.7830  -28.6630   20.0520 C   0  0  0  0  0  3  0  0  0  0  0  0
  -24.4320  -30.6280   20.9900 C   0  0  0  0  0  2  0  0  0  0  0  0
  -25.3950  -31.5640   23.1410 N   0  0  0  0  0  0  0  0  0  0  0  0
  -24.1860  -32.2800   24.9190 O   0  0  0  0  0  0  0  0  0  0  0  0
  -23.5290  -29.8380   23.1920 C   0  0  0  0  0  0  0  0  0  0  0  0
  -22.2620  -29.5440   22.8720 N   0  0  0  0  0  0  0  0  0  0  0  0
  -24.1820  -29.1710   24.0040 O   0  0  0  0  0  0  0  0  0  0  0  0
  -21.7800  -30.1700   22.2440 H   0  0  0  0  0  0  0  0  0  0  0  0
  -19.0850  -27.8320   22.6340 C   0  0  0  0  0  0  0  0  0  0  0  0
  -21.4830  -28.4190   23.3870 C   0  0  0  0  0  3  0  0  0  0  0  0
  -21.9230  -27.0860   22.7340 C   0  0  0  0  0  2  0  0  0  0  0  0
  -21.0560  -26.6650   21.5460 C   0  0  0  0  0  2  0  0  0  0  0  0
  -19.5770  -26.5730   21.9420 C   0  0  0  0  0  2  0  0  0  0  0  0
  -19.9800  -28.7010   23.3090 C   0  0  0  0  0  0  0  0  0  0  0  0
  -19.4750  -29.8700   23.9200 C   0  0  0  0  0  3  0  0  0  0  0  0
  -18.1020  -30.1680   23.8690 C   0  0  0  0  0  3  0  0  0  0  0  0
  -17.2190  -29.2980   23.2070 C   0  0  0  0  0  3  0  0  0  0  0  0
  -17.7090  -28.1340   22.5930 C   0  0  0  0  0  3  0  0  0  0  0  0
  -26.5340  -32.6950   25.1310 C   0  0  0  0  0  3  0  0  0  0  0  0
  -26.8720  -31.8760   26.4370 C   0  0  1  0  0  0  0  0  0  0  0  0
  -25.6610  -31.6610   27.3730 C   0  0  0  0  0  1  0  0  0  0  0  0
  -27.4350  -30.4850   26.0700 C   0  0  0  0  0  1  0  0  0  0  0  0
  -27.9790  -32.5990   27.2420 C   0  0  0  0  0  1  0  0  0  0  0  0
  -26.2740  -34.1040   25.4590 N   0  0  0  0  0  0  0  0  0  0  0  0
  -26.7420  -35.1430   24.7590 C   0  0  0  0  0  0  0  0  0  0  0  0
  -27.5090  -35.0120   23.8020 O   0  0  0  0  0  0  0  0  0  0  0  0
  -25.6050  -34.2810   26.1940 H   0  0  0  0  0  0  0  0  0  0  0  0
  -25.1710  -37.0390   24.2440 C   0  0  0  0  0  1  0  0  0  0  0  0
  -26.2880  -36.5550   25.1840 C   0  0  0  0  0  3  0  0  0  0  0  0
  -28.3610  -37.2970   26.2690 C   0  0  0  0  0  1  0  0  0  0  0  0
  -27.3880  -37.5440   25.2080 N   0  0  0  0  0  0  0  0  0  0  0  0
  -27.0220  -38.4870   25.3190 H   0  0  0  0  0  0  0  0  0  0  0  0
  -27.6280  -19.6270   18.9730 C   0  0  0  0  0  0  0  0  0  0  0  0
  -27.0040  -18.7300   18.4000 O   0  0  0  0  0  0  0  0  0  0  0  0
  -28.8870  -19.2590   19.7600 C   0  0  0  0  0  2  0  0  0  0  0  0
  -29.6620  -18.1020   19.1040 C   0  0  0  0  0  2  0  0  0  0  0  0
  -31.0630  -17.8560   19.7110 C   0  0  0  0  0  2  0  0  0  0  0  0
  -32.0730  -15.5520   20.2620 C   0  0  0  0  0  0  0  0  0  0  0  0
  -32.1630  -13.0780   20.2630 C   0  0  0  0  0  2  0  0  0  0  0  0
  -31.3860  -12.5920   19.0200 C   0  0  0  0  0  2  0  0  0  0  0  0
  -29.8640  -12.5120   19.2910 C   0  0  0  0  0  2  0  0  0  0  0  0
  -29.3140  -13.8020   19.9570 C   0  0  0  0  0  3  0  0  0  0  0  0
  -30.2000  -14.1590   21.1720 C   0  0  0  0  0  2  0  0  0  0  0  0
  -31.5740  -14.3580   20.6720 N   0  0  0  0  0  0  0  0  0  0  0  0
  -33.2340  -15.7270   19.8640 O   0  0  0  0  0  0  0  0  0  0  0  0
  -31.1030  -16.4760   20.1660 N   0  0  0  0  0  0  0  0  0  0  0  0
  -30.1840  -16.0890   20.3430 H   0  0  0  0  0  0  0  0  0  0  0  0
  -26.9430  -14.6410   20.5640 C   0  0  0  0  0  0  0  0  0  0  0  0
  -25.7910  -13.9610   20.8520 C   0  0  0  0  0  0  0  0  0  0  0  0
  -26.1270  -12.5740   20.8030 C   0  0  0  0  0  0  0  0  0  0  0  0
  -27.9150  -13.6650   20.3540 N   0  0  0  0  0  0  0  0  0  0  0  0
  -27.4200  -12.4220   20.5530 N   0  0  0  0  0  0  0  0  0  0  0  0
  -25.2830  -11.3810   20.9090 C   0  0  0  0  0  0  0  0  0  0  0  0
  -25.4690  -10.4370   21.9410 C   0  0  0  0  0  3  0  0  0  0  0  0
  -24.6330   -9.3060   22.0300 C   0  0  0  0  0  3  0  0  0  0  0  0
  -23.5990   -9.1080   21.0870 C   0  0  0  0  0  0  0  0  0  0  0  0
  -23.4360  -10.0410   20.0440 C   0  0  0  0  0  3  0  0  0  0  0  0
  -24.2720  -11.1620   19.9530 C   0  0  0  0  0  3  0  0  0  0  0  0
  -22.7510   -8.0280   21.0810 O   0  0  0  0  0  0  0  0  0  0  0  0
  -22.3450   -7.4300   22.2470 C   0  0  0  0  0  0  0  0  0  0  0  0
  -21.6300   -8.1350   23.2380 C   0  0  0  0  0  3  0  0  0  0  0  0
  -21.1710   -7.4610   24.3900 C   0  0  0  0  0  3  0  0  0  0  0  0
  -21.4180   -6.0840   24.5430 C   0  0  0  0  0  0  0  0  0  0  0  0
  -22.1300   -5.3790   23.5560 C   0  0  0  0  0  3  0  0  0  0  0  0
  -22.5890   -6.0520   22.4080 C   0  0  0  0  0  0  0  0  0  0  0  0
  -23.2520   -5.3630   21.4490 F   0  0  0  0  0  0  0  0  0  0  0  0
  -20.9750   -5.4320   25.6450 F   0  0  0  0  0  0  0  0  0  0  0  0
  -24.4300  -14.5540   21.0650 C   0  0  0  0  0  0  0  0  0  0  0  0
  -23.6110  -13.9190   21.8940 N   0  0  0  0  0  0  0  0  0  0  0  0
  -24.1000  -15.6160   20.5290 O   0  0  0  0  0  0  0  0  0  0  0  0
  -23.8870  -13.0610   22.3490 H   0  0  0  0  0  0  0  0  0  0  0  0
  -22.6910  -14.2990   22.0800 H   0  0  0  0  0  0  0  0  0  0  0  0
  -27.2280  -15.9990   20.4360 N   0  0  0  0  0  0  0  0  0  0  0  0
  -26.4970  -16.6920   20.5550 H   0  0  0  0  0  0  0  0  0  0  0  0
  -28.0830  -16.3860   20.0660 H   0  0  0  0  0  0  0  0  0  0  0  0
  -24.1610  -23.0170   20.0370 C   0  0  0  0  0  2  0  0  0  0  0  0
  -21.9790  -24.2410   19.6230 C   0  0  0  0  0  1  0  0  0  0  0  0
  -23.5090  -24.3660   19.6790 C   0  0  0  0  0  2  0  0  0  0  0  0
  2  4  1  0
  3  5  2  0
  4 55  1  0
  4  1  2  0
  5  1  1  0
  5 98  1  0
  6  2  2  0
  6  3  1  0
  8  7  1  0
  8  9  1  0
  8  6  1  0
  9 11  1  0
  9 12  1  0
 10  9  1  0
 12 13  1  0
 13 14  1  0
 14 16  1  0
 15 26  2  0
 16 21  1  0
 17 25  1  0
 17 27  1  0
 18 24  1  0
 18 20  1  0
 19 25  1  0
 20 19  1  0
 21 20  2  0
 22 23  1  0
 22 16  2  0
 23 18  2  0
 24 17  1  0
 25 15  1  0
 27 29  2  0
 28 27  1  0
 30 28  1  0
 31 36  1  0
 32 28  1  0
 33 32  1  0
 34 35  1  0
 34 33  1  0
 35 31  1  0
 36 32  1  0
 36 37  2  0
 38 37  1  0
 39 38  2  0
 40 31  2  0
 40 39  1  0
 41 15  1  0
 41 46  1  0
 41 42  1  0
 42 45  1  1
 42 43  1  0
 44 42  1  0
 46 49  1  0
 47 51  1  0
 47 46  1  0
 48 47  2  0
 51 50  1  0
 51 53  1  0
 53 54  1  0
 53 52  1  0
 55 57  1  0
 56 55  2  0
 58 59  1  0
 58 57  1  0
 59 68  1  0
 60 66  1  0
 61 66  1  0
 62 63  1  0
 62 61  1  0
 64 63  1  0
 64 73  1  0
 64 65  1  0
 66 65  1  0
 67 60  2  0
 68 60  1  0
 68 69  1  0
 70 71  2  0
 71 90  1  0
 72 71  1  0
 72 75  1  0
 73 74  1  0
 73 70  1  0
 74 72  2  0
 75 76  1  0
 76 77  2  0
 78 77  1  0
 79 78  2  0
 80 79  1  0
 80 75  2  0
 81 78  1  0
 81 82  1  0
 82 87  2  0
 82 83  1  0
 83 84  2  0
 84 85  1  0
 85 89  1  0
 86 85  2  0
 87 86  1  0
 88 87  1  0
 90 91  1  0
 91 94  1  0
 91 93  1  0
 92 90  2  0
 95 96  1  0
 95 70  1  0
 97 95  1  0
 99100  1  0
100 98  1  0
M  ISO  4  13 101  14 101  60 100  68 100
M  END
>  <TORSDO>  (20) 
F 26

>  <SCORE>  (20) 
-6.628

>  <name>  (20) 
19

>  <ligand_id>  (20) 
19

>  <original_smiles>  (20) 
[H]c1c([H])c([H])c2c(c1[H])C([H])([H])C([H])([H])C([H])([H])C2([H])N([H])C(=O)C1([H])N(C(=O)C([H])(N([H])C(=O)C([H])(N([H])C([H])([H])[H])C([H])([H])[H])C(C([H])([H])[H])(C([H])([H])[H])C([H])([H])[H])C([H])([H])c2c([H])c(OC([H])([H])C([H])([H])[N+]([H])([H])C([H])(c3c([H])c(C(=O)C([H])([H])C([H])([H])C([H])([H])N([H])C(=O)N4C([H])([H])C([H])([H])C([H])([H])C([H])(n5nc(-c6c([H])c([H])c(Oc7c([H])c([H])c(F)c([H])c7F)c([H])c6[H])c(C(=O)N([H])[H])c5N([H])[H])C4([H])[H])c([H])c(C([H])([H])C([H])([H])C([H])([H])[H])c3[H])C([H])([H])[H])c([H])c([H])c2C1([H])[H]

>  <smiles>  (20) 
[H]c1c([H])c([H])c2c(c1[H])C([H])([H])C([H])([H])C([H])([H])C2([H])N([H])C(=O)C1([H])N(C(=O)C([H])(N([H])C(=O)C([H])(N([H])C([H])([H])[H])C([H])([H])[H])C(C([H])([H])[H])(C([H])([H])[H])C([H])([H])[H])C([H])([H])c2c([H])c(OC([H])([H])C([H])([H])[N+]([H])([H])C([H])(c3c([H])c(C(=O)C([H])([H])C([H])([H])C([H])([H])N([H])C(=O)N4C([H])([H])C([H])([H])C([H])([H])C([H])(n5nc(-c6c([H])c([H])c(Oc7c([H])c([H])c(F)c([H])c7F)c([H])c6[H])c(C(=O)N([H])[H])c5N([H])[H])C4([H])[H])c([H])c(C([H])([H])C([H])([H])C([H])([H])[H])c3[H])C([H])([H])[H])c([H])c([H])c2C1([H])[H]

$$$$
20:0:0
     RDKit          3D

 93 99  0  0  1  0  0  0  0  0999 V2000
  -19.7680  -26.1300   22.4950 C   0  0  0  0  0  1  0  0  0  0  0  0
  -19.8210  -25.7830   24.1220 C   0  0  0  0  0  2  0  0  0  0  0  0
  -21.8290  -26.5340   21.9170 C   0  0  0  0  0  1  0  0  0  0  0  0
  -21.0380  -26.0840   25.1510 C   0  0  0  0  0  3  0  0  0  0  0  0
  -22.8540  -26.6040   23.1330 C   0  0  0  0  0  3  0  0  0  0  0  0
  -22.4270  -26.1800   24.5310 C   0  0  0  0  0  3  0  0  0  0  0  0
  -23.6010  -26.0970   25.4890 C   0  0  0  0  0  1  0  0  0  0  0  0
  -20.8640  -26.6790   26.8240 C   0  0  0  0  0  0  0  0  0  0  0  0
  -19.7750  -27.2210   27.0130 O   0  0  0  0  0  0  0  0  0  0  0  0
  -21.8450  -26.7350   28.3520 C   0  0  0  0  0  2  0  0  0  0  0  0
  -21.6120  -27.3660   30.1160 C   0  0  0  0  0  3  0  0  0  0  0  0
  -22.2060  -26.9900   31.8680 C   0  0  0  0  0  3  0  0  0  0  0  0
  -22.2140  -27.7600   33.5960 C   0  0  0  0  0  3  0  0  0  0  0  0
  -22.5930  -27.1920   35.3540 C   0  0  0  0  0  3  0  0  0  0  0  0
  -22.8620  -27.7040   37.1070 C   0  0  0  0  0  0  0  0  0  0  0  0
  -21.9230  -27.1960   39.5090 C   0  0  0  0  0  2  0  0  0  0  0  0
  -21.1550  -25.8430   39.4600 C   0  0  0  0  0  2  0  0  0  0  0  0
  -19.7680  -26.0220   38.8070 C   0  0  0  0  0  2  0  0  0  0  0  0
  -19.8660  -26.9260   37.5580 C   0  0  0  0  0  3  0  0  0  0  0  0
  -20.5700  -28.2410   37.8510 C   0  0  0  0  0  2  0  0  0  0  0  0
  -21.9040  -27.8230   38.1300 N   0  0  0  0  0  0  0  0  0  0  0  0
  -23.9920  -27.6760   37.6610 O   0  0  0  0  0  0  0  0  0  0  0  0
  -18.2800  -26.9620   35.5920 C   0  0  0  0  0  0  0  0  0  0  0  0
  -16.9940  -27.3890   35.4760 C   0  0  0  0  0  0  0  0  0  0  0  0
  -16.6400  -27.9040   36.7590 C   0  0  0  0  0  0  0  0  0  0  0  0
  -18.6270  -27.2120   36.9050 N   0  0  0  0  0  0  0  0  0  0  0  0
  -17.6650  -27.8590   37.5910 N   0  0  0  0  0  0  0  0  0  0  0  0
  -15.3600  -28.3710   37.2750 C   0  0  0  0  0  0  0  0  0  0  0  0
  -15.2210  -29.6460   37.8630 C   0  0  0  0  0  3  0  0  0  0  0  0
  -13.9660  -30.0720   38.3440 C   0  0  0  0  0  3  0  0  0  0  0  0
  -12.8410  -29.2190   38.2350 C   0  0  0  0  0  0  0  0  0  0  0  0
  -12.9960  -27.9380   37.6740 C   0  0  0  0  0  3  0  0  0  0  0  0
  -14.2470  -27.5140   37.2020 C   0  0  0  0  0  3  0  0  0  0  0  0
  -11.5870  -29.5370   38.6930 O   0  0  0  0  0  0  0  0  0  0  0  0
  -11.1430  -30.8330   38.7160 C   0  0  0  0  0  0  0  0  0  0  0  0
  -11.0930  -31.6260   37.5480 C   0  0  0  0  0  3  0  0  0  0  0  0
  -10.5610  -32.9280   37.6050 C   0  0  0  0  0  3  0  0  0  0  0  0
  -10.0740  -33.4370   38.8250 C   0  0  0  0  0  0  0  0  0  0  0  0
  -10.1200  -32.6470   39.9870 C   0  0  0  0  0  3  0  0  0  0  0  0
  -10.6520  -31.3470   39.9310 C   0  0  0  0  0  0  0  0  0  0  0  0
  -10.6760  -30.5810   41.0480 F   0  0  0  0  0  0  0  0  0  0  0  0
   -9.5540  -34.6850   38.8790 F   0  0  0  0  0  0  0  0  0  0  0  0
  -16.1130  -27.2200   34.2760 C   0  0  0  0  0  0  0  0  0  0  0  0
  -15.1990  -28.1550   34.0530 N   0  0  0  0  0  0  0  0  0  0  0  0
  -16.2670  -26.2760   33.5040 O   0  0  0  0  0  0  0  0  0  0  0  0
  -15.0900  -28.9400   34.6760 H   0  0  0  0  0  0  0  0  0  0  0  0
  -14.6030  -28.0850   33.2410 H   0  0  0  0  0  0  0  0  0  0  0  0
  -19.1580  -26.3510   34.7070 N   0  0  0  0  0  0  0  0  0  0  0  0
  -18.8840  -26.1180   33.7590 H   0  0  0  0  0  0  0  0  0  0  0  0
  -20.1000  -26.0560   34.9250 H   0  0  0  0  0  0  0  0  0  0  0  0
  -23.8670  -27.9490   23.2250 C   0  0  0  0  0  2  0  0  0  0  0  0
  -23.6800  -29.6640   22.7420 C   0  0  0  0  0  2  0  0  0  0  0  0
  -23.7910  -31.2200   23.2890 O   0  0  0  0  0  0  0  0  0  0  0  0
  -29.8340  -32.5590   25.2120 C   0  0  0  0  0  0  0  0  0  0  0  0
  -23.9730  -31.4960   24.6210 C   0  0  0  0  0  3  0  0  0  0  0  0
  -28.7770  -30.3540   24.9840 C   0  0  0  0  0  3  0  0  0  0  0  0
  -26.2420  -30.2490   25.4570 C   0  0  0  0  0  0  0  0  0  0  0  0
  -27.4720  -32.3400   25.9450 C   0  0  0  0  0  2  0  0  0  0  0  0
  -26.2240  -31.6440   25.4690 C   0  0  0  0  0  0  0  0  0  0  0  0
  -25.0600  -32.3140   25.0300 C   0  0  0  0  0  3  0  0  0  0  0  0
  -23.8290  -30.2520   25.1870 C   0  0  0  0  0  2  0  0  0  0  0  0
  -25.0190  -29.5620   25.4370 C   0  0  0  0  0  3  0  0  0  0  0  0
  -27.5800  -29.5460   25.5610 C   0  0  0  0  0  2  0  0  0  0  0  0
  -28.7330  -31.7850   25.4020 N   0  0  0  0  0  0  0  0  0  0  0  0
  -30.8820  -32.0870   24.7460 O   0  0  0  0  0  0  0  0  0  0  0  0
  -28.8610  -30.3070   23.4460 C   0  0  0  0  0  0  0  0  0  0  0  0
  -29.6630  -29.4130   22.8570 N   0  0  0  0  0  4  0  0  0  0  0  0
  -28.2500  -31.1640   22.8190 O   0  0  0  0  0  0  0  0  0  0  0  0
  -30.2200  -28.8210   23.4580 H   0  0  0  0  0  0  0  0  0  0  0  0
  -29.9370  -26.2330   20.9070 C   0  0  0  0  0  0  0  0  0  0  0  0
  -29.8060  -29.1640   21.4000 C   0  0  0  0  0  0  0  0  0  0  0  0
  -28.4790  -29.8300   20.5130 C   0  0  0  0  0  2  0  0  0  0  0  0
  -26.9780  -29.0510   20.1540 C   0  0  0  0  0  1  0  0  0  0  0  0
  -28.0670  -25.7920   20.5020 C   0  0  0  0  0  1  0  0  0  0  0  0
  -30.5060  -27.6530   21.2650 C   0  0  0  0  0  0  0  0  0  0  0  0
  -31.8790  -27.8810   21.6390 C   0  0  0  0  0  3  0  0  0  0  0  0
  -32.8780  -26.9180   21.5610 C   0  0  0  0  0  3  0  0  0  0  0  0
  -32.4850  -25.6760   21.0530 C   0  0  0  0  0  3  0  0  0  0  0  0
  -31.1050  -25.3670   20.7410 C   0  0  0  0  0  3  0  0  0  0  0  0
  -29.8340  -34.0600   25.6030 C   0  0  0  0  0  3  0  0  0  0  0  0
  -31.1980  -34.3730   26.0400 N   0  0  0  0  0  0  0  0  0  0  0  0
  -31.5650  -34.5360   27.3170 C   0  0  0  0  0  0  0  0  0  0  0  0
  -30.7600  -34.5260   28.2520 O   0  0  0  0  0  0  0  0  0  0  0  0
  -31.9180  -34.3310   25.3330 H   0  0  0  0  0  0  0  0  0  0  0  0
  -33.6600  -33.4790   28.2180 C   0  0  0  0  0  1  0  0  0  0  0  0
  -33.0630  -34.7520   27.5990 C   0  0  0  0  0  3  0  0  0  0  0  0
  -33.0310  -37.1930   27.8500 C   0  0  0  0  0  1  0  0  0  0  0  0
  -33.3300  -35.9080   28.4790 N   0  0  0  0  0  0  0  0  0  0  0  0
  -34.3030  -35.9190   28.7740 H   0  0  0  0  0  0  0  0  0  0  0  0
  -29.3880  -35.0120   24.4280 C   0  0  1  0  0  0  0  0  0  0  0  0
  -30.1410  -34.7720   23.1000 C   0  0  0  0  0  1  0  0  0  0  0  0
  -27.8760  -34.8810   24.1380 C   0  0  0  0  0  1  0  0  0  0  0  0
  -29.6220  -36.4770   24.8530 C   0  0  0  0  0  1  0  0  0  0  0  0
  1  2  1  0
  4  2  1  0
  4  8  1  0
  5  3  1  0
  5 51  1  0
  5  6  1  0
  6  4  1  0
  6  7  1  0
  8  9  2  0
  8 10  1  0
 10 11  1  0
 11 12  2  0
 12 13  1  0
 13 14  2  0
 14 15  1  0
 15 22  2  0
 15 21  1  0
 17 16  1  0
 18 17  1  0
 19 26  1  0
 19 20  1  0
 19 18  1  0
 20 21  1  0
 21 16  1  0
 23 26  1  0
 24 23  2  0
 24 25  1  0
 25 28  1  0
 25 27  2  0
 26 27  1  0
 28 29  1  0
 29 30  2  0
 31 30  1  0
 31 34  1  0
 32 31  2  0
 33 28  2  0
 33 32  1  0
 34 35  1  0
 35 40  1  0
 36 37  1  0
 36 35  2  0
 37 38  2  0
 38 42  1  0
 38 39  1  0
 40 39  2  0
 40 41  1  0
 43 24  1  0
 44 43  1  0
 44 46  1  0
 45 43  2  0
 47 44  1  0
 48 50  1  0
 48 23  1  0
 49 48  1  0
 52 51  1  0
 52 53  1  0
 54 64  1  0
 55 53  1  0
 55 60  1  0
 55 61  1  0
 56 66  1  0
 56 64  1  0
 56 63  1  0
 57 59  1  0
 57 63  1  0
 59 58  1  0
 60 59  2  0
 61 62  1  0
 62 57  2  0
 64 58  1  0
 65 54  2  0
 67 66  1  0
 67 69  1  0
 68 66  2  0
 70 75  1  0
 71 67  2  0
 72 71  1  0
 73 72  1  0
 74 70  1  0
 75 71  1  0
 75 76  2  0
 77 76  1  0
 78 77  2  0
 79 70  2  0
 79 78  1  0
 80 54  1  0
 80 81  1  0
 81 82  1  0
 82 86  1  0
 82 83  2  0
 84 81  1  0
 86 85  1  0
 86 88  1  0
 87 88  1  0
 88 89  1  0
 90 93  1  1
 90 80  1  0
 91 90  1  0
 92 90  1  0
M  ISO  4  14 100  15 100  52 101  53 101
M  END
>  <TORSDO>  (21) 
F 24

>  <SCORE>  (21) 
25.777

>  <name>  (21) 
20

>  <ligand_id>  (21) 
20

>  <original_smiles>  (21) 
[H]c1c([H])c(C(=O)C([H])([H])C([H])([H])C([H])([H])C([H])([H])C([H])([H])C(=O)N2C([H])([H])C([H])([H])C([H])([H])C([H])(n3nc(-c4c([H])c([H])c(Oc5c([H])c([H])c(F)c([H])c5F)c([H])c4[H])c(C(=O)N([H])[H])c3N([H])[H])C2([H])[H])c(C([H])([H])[H])c(C([H])([H])C([H])([H])Oc2c([H])c([H])c3c(c2[H])C([H])([H])N(C(=O)C([H])(N([H])C(=O)C([H])(N([H])C([H])([H])[H])C([H])([H])[H])C(C([H])([H])[H])(C([H])([H])[H])C([H])([H])[H])C([H])(C(=O)N([H])C2([H])c4c([H])c([H])c([H])c([H])c4C([H])([H])C([H])([H])C2([H])[H])C3([H])[H])c1[H]

>  <smiles>  (21) 
[H]c1c([H])c(C(=O)C([H])([H])C([H])([H])C([H])([H])C([H])([H])C([H])([H])C(=O)N2C([H])([H])C([H])([H])C([H])([H])C([H])(n3nc(-c4c([H])c([H])c(Oc5c([H])c([H])c(F)c([H])c5F)c([H])c4[H])c(C(=O)N([H])[H])c3N([H])[H])C2([H])[H])c(C([H])([H])[H])c(C([H])([H])C([H])([H])Oc2c([H])c([H])c3c(c2[H])C([H])([H])N(C(=O)C([H])(N([H])C(=O)C([H])(N([H])C([H])([H])[H])C([H])([H])[H])C(C([H])([H])[H])(C([H])([H])[H])C([H])([H])[H])C([H])(C(=O)N([H])C2([H])c4c([H])c([H])c([H])c([H])c4C([H])([H])C([H])([H])C2([H])[H])C3([H])[H])c1[H]

$$$$
21:0:0
     RDKit          3D

 95102  0  0  1  0  0  0  0  0999 V2000
  -32.7690  -24.1360   17.7920 C   0  0  0  0  0  2  0  0  0  0  0  0
  -32.1630  -25.5500   17.7870 C   0  0  0  0  0  2  0  0  0  0  0  0
  -31.2620  -25.7770   18.9410 N   0  0  0  0  0  4  0  0  0  0  0  0
  -31.7880  -25.6370   19.7900 H   0  0  0  0  0  0  0  0  0  0  0  0
  -30.5250  -25.0880   18.9190 H   0  0  0  0  0  0  0  0  0  0  0  0
  -30.6560  -27.1260   18.9590 C   0  0  0  0  0  2  0  0  0  0  0  0
  -29.7580  -27.3780   20.1840 C   0  0  0  0  0  2  0  0  0  0  0  0
  -28.4820  -26.7370   20.0230 O   0  0  0  0  0  0  0  0  0  0  0  0
  -24.6190  -31.8710   23.2250 C   0  0  0  0  0  0  0  0  0  0  0  0
  -27.3210  -27.4810   20.1320 C   0  0  0  0  0  0  0  0  0  0  0  0
  -23.4120  -30.4580   21.5830 C   0  0  0  0  0  3  0  0  0  0  0  0
  -24.8760  -28.9200   20.1660 C   0  0  0  0  0  0  0  0  0  0  0  0
  -25.9280  -30.8400   21.3800 C   0  0  0  0  0  2  0  0  0  0  0  0
  -26.0220  -29.4660   20.7550 C   0  0  0  0  0  0  0  0  0  0  0  0
  -27.2340  -28.7500   20.7600 C   0  0  0  0  0  3  0  0  0  0  0  0
  -26.1480  -26.9340   19.5670 C   0  0  0  0  0  3  0  0  0  0  0  0
  -24.9270  -27.6430   19.5790 C   0  0  0  0  0  3  0  0  0  0  0  0
  -23.6240  -29.7670   20.2080 C   0  0  0  0  0  2  0  0  0  0  0  0
  -24.6710  -31.0700   22.1210 N   0  0  0  0  0  0  0  0  0  0  0  0
  -23.5400  -32.1410   23.7670 O   0  0  0  0  0  0  0  0  0  0  0  0
  -22.7670  -29.4410   22.5500 C   0  0  0  0  0  0  0  0  0  0  0  0
  -21.4420  -29.2630   22.4290 N   0  0  0  0  0  0  0  0  0  0  0  0
  -23.4540  -28.8140   23.3600 O   0  0  0  0  0  0  0  0  0  0  0  0
  -20.9510  -29.8200   21.7440 H   0  0  0  0  0  0  0  0  0  0  0  0
  -18.0670  -28.0860   22.9430 C   0  0  0  0  0  0  0  0  0  0  0  0
  -20.6280  -28.3270   23.2020 C   0  0  0  0  0  3  0  0  0  0  0  0
  -20.7190  -26.8980   22.6210 C   0  0  0  0  0  2  0  0  0  0  0  0
  -19.6090  -26.5860   21.6120 C   0  0  0  0  0  2  0  0  0  0  0  0
  -18.2330  -26.7370   22.2640 C   0  0  0  0  0  2  0  0  0  0  0  0
  -19.1930  -28.8410   23.3700 C   0  0  0  0  0  0  0  0  0  0  0  0
  -18.9860  -30.1050   23.9650 C   0  0  0  0  0  3  0  0  0  0  0  0
  -17.6860  -30.6140   24.1390 C   0  0  0  0  0  3  0  0  0  0  0  0
  -16.5740  -29.8580   23.7290 C   0  0  0  0  0  3  0  0  0  0  0  0
  -16.7660  -28.5970   23.1360 C   0  0  0  0  0  3  0  0  0  0  0  0
  -25.9070  -32.5030   23.8420 C   0  0  0  0  0  3  0  0  0  0  0  0
  -26.4430  -31.7210   25.1040 C   0  0  1  0  0  0  0  0  0  0  0  0
  -25.3620  -31.4660   26.1810 C   0  0  0  0  0  1  0  0  0  0  0  0
  -27.0280  -30.3510   24.6870 C   0  0  0  0  0  1  0  0  0  0  0  0
  -27.5970  -32.5140   25.7630 C   0  0  0  0  0  1  0  0  0  0  0  0
  -25.5940  -33.8950   24.1850 N   0  0  0  0  0  0  0  0  0  0  0  0
  -25.9210  -34.9540   23.4330 C   0  0  0  0  0  0  0  0  0  0  0  0
  -26.5880  -34.8630   22.3990 O   0  0  0  0  0  0  0  0  0  0  0  0
  -24.9990  -34.0400   24.9880 H   0  0  0  0  0  0  0  0  0  0  0  0
  -24.1810  -36.7390   23.1000 C   0  0  0  0  0  1  0  0  0  0  0  0
  -25.4270  -36.3350   23.9040 C   0  0  0  0  0  3  0  0  0  0  0  0
  -27.5630  -37.2210   24.7280 C   0  0  0  0  0  1  0  0  0  0  0  0
  -26.4520  -37.3960   23.7960 N   0  0  0  0  0  0  0  0  0  0  0  0
  -26.0430  -38.3110   23.9600 H   0  0  0  0  0  0  0  0  0  0  0  0
  -31.7170  -23.0230   17.6530 C   0  0  0  0  0  2  0  0  0  0  0  0
  -32.3320  -21.6190   17.7440 C   0  0  0  0  0  2  0  0  0  0  0  0
  -31.2950  -20.5190   18.0490 C   0  0  0  0  0  2  0  0  0  0  0  0
  -30.7590  -20.5030   19.4880 C   0  0  0  0  0  0  0  0  0  0  0  0
  -31.2840  -21.1590   20.3940 O   0  0  0  0  0  0  0  0  0  0  0  0
  -29.5320  -19.6270   19.7500 C   0  0  0  0  0  2  0  0  0  0  0  0
  -29.6720  -18.5980   20.8970 C   0  0  0  0  0  2  0  0  0  0  0  0
  -30.9500  -17.7330   20.8600 C   0  0  0  0  0  2  0  0  0  0  0  0
  -30.9320  -16.5400   21.8450 C   0  0  0  0  0  2  0  0  0  0  0  0
  -30.6890  -14.4380   20.5410 C   0  0  0  0  0  0  0  0  0  0  0  0
  -30.2980  -12.3170   19.3370 C   0  0  0  0  0  2  0  0  0  0  0  0
  -29.3730  -12.5590   18.1310 C   0  0  0  0  0  2  0  0  0  0  0  0
  -27.9000  -12.4140   18.5580 C   0  0  0  0  0  2  0  0  0  0  0  0
  -27.5660  -13.2470   19.8250 C   0  0  0  0  0  3  0  0  0  0  0  0
  -28.6170  -13.0390   20.9360 C   0  0  0  0  0  2  0  0  0  0  0  0
  -29.9520  -13.3080   20.3690 N   0  0  0  0  0  0  0  0  0  0  0  0
  -31.7670  -14.6300   19.9730 O   0  0  0  0  0  0  0  0  0  0  0  0
  -30.1840  -15.3720   21.3630 N   0  0  0  0  0  0  0  0  0  0  0  0
  -29.2690  -15.1980   21.7580 H   0  0  0  0  0  0  0  0  0  0  0  0
  -25.1610  -13.8430   20.5160 C   0  0  0  0  0  0  0  0  0  0  0  0
  -24.0970  -13.0670   20.8860 C   0  0  0  0  0  0  0  0  0  0  0  0
  -24.5670  -11.7170   20.8690 C   0  0  0  0  0  0  0  0  0  0  0  0
  -26.2140  -12.9660   20.3010 N   0  0  0  0  0  0  0  0  0  0  0  0
  -25.8590  -11.6830   20.5700 N   0  0  0  0  0  0  0  0  0  0  0  0
  -23.8450  -10.4530   21.0660 C   0  0  0  0  0  0  0  0  0  0  0  0
  -24.2950   -9.4830   21.9870 C   0  0  0  0  0  3  0  0  0  0  0  0
  -23.5750   -8.2840   22.1720 C   0  0  0  0  0  3  0  0  0  0  0  0
  -22.3880   -8.0480   21.4380 C   0  0  0  0  0  0  0  0  0  0  0  0
  -21.9580   -9.0060   20.5040 C   0  0  0  0  0  3  0  0  0  0  0  0
  -22.6790  -10.1970   20.3170 C   0  0  0  0  0  3  0  0  0  0  0  0
  -21.6380   -6.9010   21.5350 O   0  0  0  0  0  0  0  0  0  0  0  0
  -21.6370   -6.1360   22.6750 C   0  0  0  0  0  0  0  0  0  0  0  0
  -21.2820   -6.6710   23.9330 C   0  0  0  0  0  3  0  0  0  0  0  0
  -21.2260   -5.8320   25.0640 C   0  0  0  0  0  3  0  0  0  0  0  0
  -21.5140   -4.4590   24.9400 C   0  0  0  0  0  0  0  0  0  0  0  0
  -21.8590   -3.9260   23.6870 C   0  0  0  0  0  3  0  0  0  0  0  0
  -21.9180   -4.7610   22.5580 C   0  0  0  0  0  0  0  0  0  0  0  0
  -22.2310   -4.2350   21.3480 F   0  0  0  0  0  0  0  0  0  0  0  0
  -21.4550   -3.6520   26.0250 F   0  0  0  0  0  0  0  0  0  0  0  0
  -22.6940  -13.5370   21.1480 C   0  0  0  0  0  0  0  0  0  0  0  0
  -21.9680  -12.8450   22.0180 N   0  0  0  0  0  0  0  0  0  0  0  0
  -22.2500  -14.5540   20.6170 O   0  0  0  0  0  0  0  0  0  0  0  0
  -22.3350  -12.0170   22.4620 H   0  0  0  0  0  0  0  0  0  0  0  0
  -21.0300  -13.1480   22.2410 H   0  0  0  0  0  0  0  0  0  0  0  0
  -25.3160  -15.2140   20.3180 N   0  0  0  0  0  0  0  0  0  0  0  0
  -24.5400  -15.8630   20.3970 H   0  0  0  0  0  0  0  0  0  0  0  0
  -26.1660  -15.6510   19.9830 H   0  0  0  0  0  0  0  0  0  0  0  0
  2  1  1  0
  2  3  1  0
  3  6  1  0
  3  4  1  0
  5  3  1  0
  6  7  1  0
  8 10  1  0
  8  7  1  0
  9 20  2  0
 10 15  1  0
 11 19  1  0
 11 21  1  0
 12 18  1  0
 12 14  1  0
 13 19  1  0
 14 15  2  0
 14 13  1  0
 16 17  1  0
 16 10  2  0
 17 12  2  0
 18 11  1  0
 19  9  1  0
 21 23  2  0
 22 21  1  0
 24 22  1  0
 25 34  2  0
 25 30  1  0
 26 22  1  0
 26 30  1  0
 27 26  1  0
 28 29  1  0
 28 27  1  0
 29 25  1  0
 30 31  2  0
 31 32  1  0
 33 32  2  0
 34 33  1  0
 35  9  1  0
 35 40  1  0
 35 36  1  0
 36 39  1  1
 36 37  1  0
 38 36  1  0
 40 43  1  0
 41 45  1  0
 41 40  1  0
 42 41  2  0
 45 44  1  0
 47 45  1  0
 47 48  1  0
 47 46  1  0
 49 50  1  0
 49  1  1  0
 50 51  1  0
 51 52  1  0
 52 54  1  0
 52 53  2  0
 54 55  1  0
 56 55  1  0
 56 57  1  0
 58 66  1  0
 59 64  1  0
 60 61  1  0
 60 59  1  0
 62 61  1  0
 62 71  1  0
 62 63  1  0
 64 58  1  0
 64 63  1  0
 65 58  2  0
 66 67  1  0
 66 57  1  0
 68 69  2  0
 69 88  1  0
 70 69  1  0
 70 73  1  0
 71 68  1  0
 71 72  1  0
 72 70  2  0
 73 74  1  0
 74 75  2  0
 76 79  1  0
 76 75  1  0
 77 76  2  0
 78 77  1  0
 78 73  2  0
 79 80  1  0
 80 81  1  0
 81 82  2  0
 83 82  1  0
 83 87  1  0
 84 83  2  0
 85 80  2  0
 85 84  1  0
 86 85  1  0
 88 89  1  0
 89 92  1  0
 89 91  1  0
 90 88  2  0
 93 94  1  0
 93 68  1  0
 95 93  1  0
M  ISO  4   7 101   8 101  58 100  66 100
M  END
>  <TORSDO>  (22) 
F 28

>  <SCORE>  (22) 
-11.301

>  <name>  (22) 
21

>  <ligand_id>  (22) 
21

>  <original_smiles>  (22) 
[H]c1c([H])c([H])c2c(c1[H])C([H])([H])C([H])([H])C([H])([H])C2([H])N([H])C(=O)C1([H])N(C(=O)C([H])(N([H])C(=O)C([H])(N([H])C([H])([H])[H])C([H])([H])[H])C(C([H])([H])[H])(C([H])([H])[H])C([H])([H])[H])C([H])([H])c2c([H])c(OC([H])([H])C([H])([H])[N+]([H])([H])C([H])([H])C([H])([H])C([H])([H])C([H])([H])C([H])([H])C(=O)C([H])([H])C([H])([H])C([H])([H])C([H])([H])N([H])C(=O)N3C([H])([H])C([H])([H])C([H])([H])C([H])(n4nc(-c5c([H])c([H])c(Oc6c([H])c([H])c(F)c([H])c6F)c([H])c5[H])c(C(=O)N([H])[H])c4N([H])[H])C3([H])[H])c([H])c([H])c2C1([H])[H]

>  <smiles>  (22) 
[H]c1c([H])c([H])c2c(c1[H])C([H])([H])C([H])([H])C([H])([H])C2([H])N([H])C(=O)C1([H])N(C(=O)C([H])(N([H])C(=O)C([H])(N([H])C([H])([H])[H])C([H])([H])[H])C(C([H])([H])[H])(C([H])([H])[H])C([H])([H])[H])C([H])([H])c2c([H])c(OC([H])([H])C([H])([H])[N+]([H])([H])C([H])([H])C([H])([H])C([H])([H])C([H])([H])C([H])([H])C(=O)C([H])([H])C([H])([H])C([H])([H])C([H])([H])N([H])C(=O)N3C([H])([H])C([H])([H])C([H])([H])C([H])(n4nc(-c5c([H])c([H])c(Oc6c([H])c([H])c(F)c([H])c6F)c([H])c5[H])c(C(=O)N([H])[H])c4N([H])[H])C3([H])[H])c([H])c([H])c2C1([H])[H]

$$$$
22:0:0
     RDKit          3D

 94 95  0  0  1  0  0  0  0  0999 V2000
  -24.8120  -24.5020   24.5350 C   0  0  0  0  0  3  0  0  0  0  0  0
  -24.0920  -25.4190   25.4020 C   0  0  0  0  0  3  0  0  0  0  0  0
  -24.4890  -26.2180   22.9830 C   0  0  0  0  0  3  0  0  0  0  0  0
  -25.0990  -24.7390   23.1600 C   0  0  0  0  0  0  0  0  0  0  0  0
  -23.5880  -27.3530   23.8260 C   0  0  0  0  0  3  0  0  0  0  0  0
  -23.5010  -26.7110   25.0960 C   0  0  0  0  0  0  0  0  0  0  0  0
  -22.7860  -27.3290   26.0770 O   0  0  0  0  0  0  0  0  0  0  0  0
  -22.5210  -28.2110   25.8430 H   0  0  0  0  0  0  0  0  0  0  0  0
  -25.8720  -23.3910   22.0410 C   0  0  0  0  0  1  0  0  0  0  0  0
  -27.2960  -22.0030   21.8510 C   0  0  0  0  0 15  0  0  0  0  0  0
  -27.8890  -20.4350   20.7490 C   0  0  0  0  0 15  0  0  0  0  0  0
  -29.3650  -19.1120   20.4670 C   0  0  0  0  0  1  0  0  0  0  0  0
  -30.7970  -16.2080   19.8090 C   0  0  0  0  0  0  0  0  0  0  0  0
  -31.2940  -13.5950   19.1490 C   0  0  0  0  0  2  0  0  0  0  0  0
  -30.4770  -12.9260   17.9870 C   0  0  0  0  0  2  0  0  0  0  0  0
  -29.0330  -12.6060   18.4110 C   0  0  0  0  0  2  0  0  0  0  0  0
  -28.4890  -13.7570   19.2850 C   0  0  0  0  0  3  0  0  0  0  0  0
  -29.4120  -14.1430   20.4430 C   0  0  0  0  0  2  0  0  0  0  0  0
  -30.5390  -14.7780   19.8040 N   0  0  0  0  0  0  0  0  0  0  0  0
  -32.0120  -16.3270   19.4870 O   0  0  0  0  0  0  0  0  0  0  0  0
  -29.7340  -17.3660   20.0710 N   0  0  0  0  0  0  0  0  0  0  0  0
  -28.8600  -16.8640   20.1550 H   0  0  0  0  0  0  0  0  0  0  0  0
  -26.2330  -14.5020   20.1110 C   0  0  0  0  0  0  0  0  0  0  0  0
  -25.1400  -13.8100   20.5410 C   0  0  0  0  0  0  0  0  0  0  0  0
  -25.4980  -12.4260   20.4840 C   0  0  0  0  0  0  0  0  0  0  0  0
  -27.1670  -13.5380   19.7990 N   0  0  0  0  0  0  0  0  0  0  0  0
  -26.7570  -12.2860   20.0960 N   0  0  0  0  0  0  0  0  0  0  0  0
  -24.6910  -11.2230   20.7040 C   0  0  0  0  0  0  0  0  0  0  0  0
  -25.0590  -10.2490   21.6580 C   0  0  0  0  0  3  0  0  0  0  0  0
  -24.2500   -9.1120   21.8590 C   0  0  0  0  0  3  0  0  0  0  0  0
  -23.0650   -8.9430   21.1080 C   0  0  0  0  0  0  0  0  0  0  0  0
  -22.7170   -9.9050   20.1440 C   0  0  0  0  0  3  0  0  0  0  0  0
  -23.5230  -11.0350   19.9400 C   0  0  0  0  0  3  0  0  0  0  0  0
  -22.2280   -7.8600   21.2210 O   0  0  0  0  0  0  0  0  0  0  0  0
  -22.0350   -7.2220   22.4190 C   0  0  0  0  0  0  0  0  0  0  0  0
  -21.5940   -7.9120   23.5690 C   0  0  0  0  0  3  0  0  0  0  0  0
  -21.3440   -7.2050   24.7600 C   0  0  0  0  0  3  0  0  0  0  0  0
  -21.5240   -5.8100   24.8030 C   0  0  0  0  0  0  0  0  0  0  0  0
  -21.9590   -5.1200   23.6580 C   0  0  0  0  0  3  0  0  0  0  0  0
  -22.2110   -5.8240   22.4680 C   0  0  0  0  0  0  0  0  0  0  0  0
  -22.6110   -5.1520   21.3600 F   0  0  0  0  0  0  0  0  0  0  0  0
  -21.2740   -5.1290   25.9450 F   0  0  0  0  0  0  0  0  0  0  0  0
  -23.8060  -14.4000   20.8770 C   0  0  0  0  0  0  0  0  0  0  0  0
  -23.0920  -13.7970   21.8190 N   0  0  0  0  0  0  0  0  0  0  0  0
  -23.4130  -15.4320   20.3350 O   0  0  0  0  0  0  0  0  0  0  0  0
  -23.4240  -12.9640   22.2800 H   0  0  0  0  0  0  0  0  0  0  0  0
  -22.1980  -14.1790   22.0890 H   0  0  0  0  0  0  0  0  0  0  0  0
  -26.5070  -15.8580   19.9290 N   0  0  0  0  0  0  0  0  0  0  0  0
  -25.7540  -16.5350   19.9950 H   0  0  0  0  0  0  0  0  0  0  0  0
  -27.2790  -16.1850   19.3670 H   0  0  0  0  0  0  0  0  0  0  0  0
  -22.4940  -29.0830   23.3410 C   0  0  0  0  0 15  0  0  0  0  0  0
  -21.4300  -29.4330   21.1990 C   0  0  0  0  0 15  0  0  0  0  0  0
  -22.1870  -28.2780   19.4190 C   0  0  0  0  0 15  0  0  0  0  0  0
  -23.9410  -27.4920   19.1500 O   0  0  0  0  0  1  0  0  0  0  0  0
  -24.8980  -31.2790   22.9070 C   0  0  0  0  0  0  0  0  0  0  0  0
  -25.3250  -27.7390   18.6580 C   0  0  0  0  0  3  0  0  0  0  0  0
  -23.7440  -29.8980   21.2560 C   0  0  0  0  0  3  0  0  0  0  0  0
  -24.3960  -30.0440   18.8450 C   0  0  0  0  0  3  0  0  0  0  0  0
  -25.9270  -30.7830   20.6690 C   0  0  0  0  0  2  0  0  0  0  0  0
  -25.6270  -29.8970   19.4790 C   0  0  0  0  0  3  0  0  0  0  0  0
  -26.2230  -28.6580   19.2830 C   0  0  0  0  0  2  0  0  0  0  0  0
  -24.9890  -28.1600   17.4100 C   0  0  0  0  0  2  0  0  0  0  0  0
  -24.1440  -29.2720   17.6530 C   0  0  0  0  0  2  0  0  0  0  0  0
  -23.4030  -30.5950   19.8370 C   0  0  0  0  0  2  0  0  0  0  0  0
  -24.8870  -30.6460   21.7050 N   0  0  0  0  0  0  0  0  0  0  0  0
  -23.9240  -31.3420   23.6830 O   0  0  0  0  0  0  0  0  0  0  0  0
  -23.8860  -28.1670   21.5580 C   0  0  0  0  0  0  0  0  0  0  0  0
  -22.8360  -26.9380   21.2460 N   0  0  0  0  0  0  0  0  0  0  0  0
  -24.7390  -27.9760   22.3720 O   0  0  0  0  0  0  0  0  0  0  0  0
  -23.3650  -26.0770   21.2750 H   0  0  0  0  0  0  0  0  0  0  0  0
  -18.2990  -26.7520   21.9100 C   0  0  0  0  0  0  0  0  0  0  0  0
  -21.0860  -26.4720   21.6510 C   0  0  0  0  0  3  0  0  0  0  0  0
  -20.7570  -25.5370   20.5950 C   0  0  0  0  0  2  0  0  0  0  0  0
  -19.4620  -25.8690   19.9250 C   0  0  0  0  0  2  0  0  0  0  0  0
  -18.3100  -25.6590   20.8950 C   0  0  0  0  0  2  0  0  0  0  0  0
  -19.5780  -27.2710   22.3100 C   0  0  0  0  0  0  0  0  0  0  0  0
  -19.3010  -28.4570   23.1580 C   0  0  0  0  0  3  0  0  0  0  0  0
  -18.0100  -28.9270   23.5960 C   0  0  0  0  0  3  0  0  0  0  0  0
  -16.8360  -28.2840   23.1870 C   0  0  0  0  0  3  0  0  0  0  0  0
  -17.0040  -27.1990   22.3220 C   0  0  0  0  0  3  0  0  0  0  0  0
  -26.2240  -31.8790   23.3640 C   0  0  0  0  0  3  0  0  0  0  0  0
  -25.9300  -33.1620   24.0030 N   0  0  0  0  0  0  0  0  0  0  0  0
  -26.0460  -34.3460   23.3910 C   0  0  0  0  0  0  0  0  0  0  0  0
  -26.4640  -34.4660   22.2360 O   0  0  0  0  0  0  0  0  0  0  0  0
  -25.5400  -33.1340   24.9320 H   0  0  0  0  0  0  0  0  0  0  0  0
  -24.2710  -36.0900   23.7450 C   0  0  0  0  0  1  0  0  0  0  0  0
  -25.6540  -35.5940   24.1970 C   0  0  0  0  0  3  0  0  0  0  0  0
  -27.9150  -36.3780   24.7440 C   0  0  0  0  0  1  0  0  0  0  0  0
  -26.6440  -36.6880   24.0930 N   0  0  0  0  0  0  0  0  0  0  0  0
  -26.2790  -37.5460   24.4980 H   0  0  0  0  0  0  0  0  0  0  0  0
  -26.9580  -30.8920   24.3380 C   0  0  1  0  0  0  0  0  0  0  0  0
  -26.0690  -30.3520   25.4850 C   0  0  0  0  0  1  0  0  0  0  0  0
  -27.5490  -29.6740   23.5920 C   0  0  0  0  0  1  0  0  0  0  0  0
  -28.1640  -31.6260   24.9490 C   0  0  0  0  0  1  0  0  0  0  0  0
  1  2  1  0
  3  4  1  0
  3  5  2  0
  4  1  2  0
  5  6  1  0
  6  2  2  0
  6  7  1  0
  8  7  1  0
  9  4  1  0
 13 21  1  0
 14 19  1  0
 15 16  1  0
 15 14  1  0
 17 16  1  0
 17 26  1  0
 17 18  1  0
 19 13  1  0
 19 18  1  0
 20 13  2  0
 21 22  1  0
 21 12  1  0
 23 24  2  0
 24 43  1  0
 25 24  1  0
 25 28  1  0
 26 27  1  0
 26 23  1  0
 27 25  2  0
 28 29  1  0
 29 30  2  0
 31 34  1  0
 31 30  1  0
 32 31  2  0
 33 32  1  0
 33 28  2  0
 34 35  1  0
 35 40  2  0
 35 36  1  0
 36 37  2  0
 37 38  1  0
 38 42  1  0
 39 38  2  0
 40 39  1  0
 41 40  1  0
 43 44  1  0
 44 47  1  0
 44 46  1  0
 45 43  2  0
 48 49  1  0
 48 23  1  0
 50 48  1  0
 55 66  2  0
 56 54  1  0
 56 61  1  0
 57 67  1  0
 57 65  1  0
 58 63  1  0
 58 60  1  0
 58 64  1  0
 59 65  1  0
 60 61  1  0
 60 59  1  0
 62 63  1  0
 62 56  1  0
 64 57  1  0
 65 55  1  0
 67 69  2  0
 68 70  1  0
 68 67  1  0
 71 76  2  0
 71 80  1  0
 72 68  1  0
 72 76  1  0
 73 72  1  0
 74 73  1  0
 74 75  1  0
 75 71  1  0
 76 77  1  0
 77 78  2  0
 79 78  1  0
 80 79  2  0
 81 55  1  0
 81 82  1  0
 81 91  1  0
 82 85  1  0
 83 82  1  0
 83 87  1  0
 84 83  2  0
 87 86  1  0
 89 87  1  0
 89 90  1  0
 89 88  1  0
 91 94  1  1
 91 92  1  0
 93 91  1  0
M  ISO  4  13 100  21 100  53 101  54 101
M  END
>  <TORSDO>  (23) 
F 24

>  <SCORE>  (23) 
-8.673

>  <name>  (23) 
22

>  <ligand_id>  (23) 
22

>  <original_smiles>  (23) 
[H]Oc1c([H])c([H])c(C([H])([H])C([H])([H])C([H])([H])C([H])([H])N([H])C(=O)N2C([H])([H])C([H])([H])C([H])([H])C([H])(n3nc(-c4c([H])c([H])c(Oc5c([H])c([H])c(F)c([H])c5F)c([H])c4[H])c(C(=O)N([H])[H])c3N([H])[H])C2([H])[H])c([H])c1C([H])([H])C([H])([H])C([H])([H])Oc1c([H])c([H])c2c(c1[H])C([H])([H])N(C(=O)C([H])(N([H])C(=O)C([H])(N([H])C([H])([H])[H])C([H])([H])[H])C(C([H])([H])[H])(C([H])([H])[H])C([H])([H])[H])C([H])(C(=O)N([H])C1([H])c3c([H])c([H])c([H])c([H])c3C([H])([H])C([H])([H])C1([H])[H])C2([H])[H]

>  <smiles>  (23) 
[H]Oc1c([H])c([H])c(C([H])([H])C([H])([H])C([H])([H])C([H])([H])N([H])C(=O)N2C([H])([H])C([H])([H])C([H])([H])C([H])(n3nc(-c4c([H])c([H])c(Oc5c([H])c([H])c(F)c([H])c5F)c([H])c4[H])c(C(=O)N([H])[H])c3N([H])[H])C2([H])[H])c([H])c1C([H])([H])C([H])([H])C([H])([H])Oc1c([H])c([H])c2c(c1[H])C([H])([H])N(C(=O)C([H])(N([H])C(=O)C([H])(N([H])C([H])([H])[H])C([H])([H])[H])C(C([H])([H])[H])(C([H])([H])[H])C([H])([H])[H])C([H])(C(=O)N([H])C1([H])c3c([H])c([H])c([H])c([H])c3C([H])([H])C([H])([H])C1([H])[H])C2([H])[H]

$$$$
23:0:0
     RDKit          3D

 95103  0  0  1  0  0  0  0  0999 V2000
  -29.2750  -21.0280   19.2150 C   0  0  0  0  0  3  0  0  0  0  0  0
  -29.9110  -19.9510   18.5940 C   0  0  0  0  0  3  0  0  0  0  0  0
  -27.2760  -20.6380   17.8830 C   0  0  0  0  0  3  0  0  0  0  0  0
  -27.9550  -21.3820   18.8680 C   0  0  0  0  0  0  0  0  0  0  0  0
  -29.2180  -19.1650   17.6600 C   0  0  0  0  0  0  0  0  0  0  0  0
  -27.8890  -19.5080   17.2940 C   0  0  0  0  0  0  0  0  0  0  0  0
  -27.0870  -18.6560   16.3210 C   0  0  0  0  0  1  0  0  0  0  0  0
  -27.2450  -22.4920   19.6200 C   0  0  0  0  0  2  0  0  0  0  0  0
  -28.1230  -23.7350   19.8790 C   0  0  0  0  0  2  0  0  0  0  0  0
  -27.8110  -24.4160   21.2230 C   0  0  0  0  0  2  0  0  0  0  0  0
  -29.0400  -25.1130   21.8560 C   0  0  0  0  0  2  0  0  0  0  0  0
  -28.8350  -26.6160   21.9520 C   0  0  0  0  0  2  0  0  0  0  0  0
  -28.7030  -27.0840   20.6000 O   0  0  0  0  0  0  0  0  0  0  0  0
  -24.6420  -32.0410   23.4380 C   0  0  0  0  0  0  0  0  0  0  0  0
  -27.5490  -27.7910   20.4460 C   0  0  0  0  0  0  0  0  0  0  0  0
  -23.5370  -30.6070   21.7470 C   0  0  0  0  0  3  0  0  0  0  0  0
  -25.0960  -29.1550   20.3390 C   0  0  0  0  0  0  0  0  0  0  0  0
  -26.0340  -31.0980   21.6080 C   0  0  0  0  0  2  0  0  0  0  0  0
  -26.2010  -29.7370   20.9740 C   0  0  0  0  0  0  0  0  0  0  0  0
  -27.4300  -29.0620   21.0310 C   0  0  0  0  0  3  0  0  0  0  0  0
  -26.4470  -27.2080   19.7930 C   0  0  0  0  0  3  0  0  0  0  0  0
  -25.2130  -27.8860   19.7420 C   0  0  0  0  0  3  0  0  0  0  0  0
  -23.8090  -29.9460   20.3650 C   0  0  0  0  0  2  0  0  0  0  0  0
  -24.7540  -31.2610   22.3270 N   0  0  0  0  0  0  0  0  0  0  0  0
  -23.5380  -32.2640   23.9510 O   0  0  0  0  0  0  0  0  0  0  0  0
  -22.9020  -29.5530   22.6810 C   0  0  0  0  0  0  0  0  0  0  0  0
  -21.6040  -29.2830   22.4720 N   0  0  0  0  0  0  0  0  0  0  0  0
  -23.5740  -28.9800   23.5430 O   0  0  0  0  0  0  0  0  0  0  0  0
  -21.1290  -29.7870   21.7350 H   0  0  0  0  0  0  0  0  0  0  0  0
  -18.2980  -27.8590   22.7480 C   0  0  0  0  0  0  0  0  0  0  0  0
  -20.8010  -28.3050   23.2030 C   0  0  0  0  0  3  0  0  0  0  0  0
  -21.0490  -26.8800   22.6600 C   0  0  0  0  0  2  0  0  0  0  0  0
  -20.0510  -26.4610   21.5760 C   0  0  0  0  0  2  0  0  0  0  0  0
  -18.6170  -26.5170   22.1130 C   0  0  0  0  0  2  0  0  0  0  0  0
  -19.3220  -28.7040   23.2450 C   0  0  0  0  0  0  0  0  0  0  0  0
  -18.9740  -29.9560   23.7980 C   0  0  0  0  0  3  0  0  0  0  0  0
  -17.6290  -30.3700   23.8520 C   0  0  0  0  0  3  0  0  0  0  0  0
  -16.6140  -29.5240   23.3760 C   0  0  0  0  0  3  0  0  0  0  0  0
  -16.9490  -28.2680   22.8330 C   0  0  0  0  0  3  0  0  0  0  0  0
  -25.8890  -32.7070   24.1030 C   0  0  0  0  0  3  0  0  0  0  0  0
  -25.5480  -34.1100   24.3660 N   0  0  0  0  0  0  0  0  0  0  0  0
  -25.9070  -35.1360   23.5810 C   0  0  0  0  0  0  0  0  0  0  0  0
  -26.6340  -35.0040   22.5930 O   0  0  0  0  0  0  0  0  0  0  0  0
  -24.9070  -34.2870   25.1250 H   0  0  0  0  0  0  0  0  0  0  0  0
  -24.1730  -36.8840   23.0740 C   0  0  0  0  0  1  0  0  0  0  0  0
  -25.3790  -36.5330   23.9580 C   0  0  0  0  0  3  0  0  0  0  0  0
  -27.4580  -37.4790   24.8600 C   0  0  0  0  0  1  0  0  0  0  0  0
  -26.4050  -37.5950   23.8550 N   0  0  0  0  0  0  0  0  0  0  0  0
  -25.9790  -38.5140   23.9530 H   0  0  0  0  0  0  0  0  0  0  0  0
  -26.3540  -31.9810   25.4230 C   0  0  1  0  0  0  0  0  0  0  0  0
  -25.2040  -31.7270   26.4250 C   0  0  0  0  0  1  0  0  0  0  0  0
  -27.0020  -30.6150   25.0940 C   0  0  0  0  0  1  0  0  0  0  0  0
  -27.4430  -32.8230   26.1320 C   0  0  0  0  0  1  0  0  0  0  0  0
  -29.9200  -17.9190   17.1480 C   0  0  0  0  0  2  0  0  0  0  0  0
  -29.7710  -16.7310   18.1060 C   0  0  0  0  0  2  0  0  0  0  0  0
  -31.0590  -14.9830   20.9500 C   0  0  0  0  0  0  0  0  0  0  0  0
  -30.8880  -12.7400   20.0760 C   0  0  0  0  0  2  0  0  0  0  0  0
  -30.1140  -12.9060   18.7490 C   0  0  0  0  0  2  0  0  0  0  0  0
  -28.5870  -12.8320   18.9850 C   0  0  0  0  0  2  0  0  0  0  0  0
  -28.0910  -13.7110   20.1640 C   0  0  0  0  0  3  0  0  0  0  0  0
  -29.0180  -13.5830   21.4030 C   0  0  0  0  0  2  0  0  0  0  0  0
  -30.4150  -13.7900   20.9850 N   0  0  0  0  0  0  0  0  0  0  0  0
  -32.2820  -15.1130   21.0160 O   0  0  0  0  0  0  0  0  0  0  0  0
  -30.6780  -16.7250   19.3560 C   0  0  0  0  0  0  0  0  0  0  0  0
  -30.2780  -15.8790   20.3240 N   0  0  0  0  0  0  0  0  0  0  0  0
  -31.7220  -17.3870   19.3900 O   0  0  0  0  0  0  0  0  0  0  0  0
  -29.3420  -15.5370   20.2240 H   0  0  0  0  0  0  0  0  0  0  0  0
  -25.6350  -14.3380   20.6140 C   0  0  0  0  0  0  0  0  0  0  0  0
  -24.5270  -13.5670   20.8470 C   0  0  0  0  0  0  0  0  0  0  0  0
  -24.9820  -12.2140   20.8480 C   0  0  0  0  0  0  0  0  0  0  0  0
  -26.6940  -13.4460   20.4920 N   0  0  0  0  0  0  0  0  0  0  0  0
  -26.2990  -12.1660   20.6890 N   0  0  0  0  0  0  0  0  0  0  0  0
  -24.2350  -10.9550   20.9390 C   0  0  0  0  0  0  0  0  0  0  0  0
  -24.5590   -9.9670   21.8940 C   0  0  0  0  0  3  0  0  0  0  0  0
  -23.8100   -8.7730   21.9730 C   0  0  0  0  0  3  0  0  0  0  0  0
  -22.7230   -8.5600   21.0930 C   0  0  0  0  0  0  0  0  0  0  0  0
  -22.4230   -9.5340   20.1230 C   0  0  0  0  0  3  0  0  0  0  0  0
  -23.1740  -10.7190   20.0430 C   0  0  0  0  0  3  0  0  0  0  0  0
  -21.9640   -7.4130   21.0730 O   0  0  0  0  0  0  0  0  0  0  0  0
  -21.7700   -6.6600   22.2020 C   0  0  0  0  0  0  0  0  0  0  0  0
  -21.1960   -7.2060   23.3710 C   0  0  0  0  0  3  0  0  0  0  0  0
  -20.9510   -6.3820   24.4870 C   0  0  0  0  0  3  0  0  0  0  0  0
  -21.2710   -5.0130   24.4320 C   0  0  0  0  0  0  0  0  0  0  0  0
  -21.8390   -4.4660   23.2690 C   0  0  0  0  0  3  0  0  0  0  0  0
  -22.0840   -5.2870   22.1550 C   0  0  0  0  0  0  0  0  0  0  0  0
  -22.6150   -4.7530   21.0260 F   0  0  0  0  0  0  0  0  0  0  0  0
  -21.0310   -4.2210   25.5000 F   0  0  0  0  0  0  0  0  0  0  0  0
  -23.1100  -14.0520   20.9640 C   0  0  0  0  0  0  0  0  0  0  0  0
  -22.2910  -13.3530   21.7420 N   0  0  0  0  0  0  0  0  0  0  0  0
  -22.7360  -15.0800   20.4050 O   0  0  0  0  0  0  0  0  0  0  0  0
  -22.6140  -12.5230   22.2150 H   0  0  0  0  0  0  0  0  0  0  0  0
  -21.3320  -13.6520   21.8550 H   0  0  0  0  0  0  0  0  0  0  0  0
  -25.8230  -15.7100   20.4800 N   0  0  0  0  0  0  0  0  0  0  0  0
  -25.0470  -16.3620   20.5330 H   0  0  0  0  0  0  0  0  0  0  0  0
  -26.7070  -16.1660   20.3090 H   0  0  0  0  0  0  0  0  0  0  0  0
  2  1  2  0
  3  4  2  0
  4  1  1  0
  4  8  1  0
  5  2  1  0
  6  5  2  0
  6  3  1  0
  7  6  1  0
  8  9  1  0
  9 10  1  0
 10 11  1  0
 11 12  1  0
 13 12  1  0
 14 25  2  0
 15 13  1  0
 15 20  1  0
 16 24  1  0
 16 26  1  0
 17 23  1  0
 17 19  1  0
 18 24  1  0
 19 20  2  0
 19 18  1  0
 21 15  2  0
 22 21  1  0
 22 17  2  0
 23 16  1  0
 24 14  1  0
 26 28  2  0
 27 26  1  0
 29 27  1  0
 30 39  2  0
 30 35  1  0
 31 27  1  0
 31 35  1  0
 32 31  1  0
 33 34  1  0
 33 32  1  0
 34 30  1  0
 35 36  2  0
 36 37  1  0
 38 37  2  0
 39 38  1  0
 40 14  1  0
 40 41  1  0
 40 50  1  0
 41 44  1  0
 42 46  1  0
 42 41  1  0
 43 42  2  0
 46 45  1  0
 48 49  1  0
 48 46  1  0
 48 47  1  0
 50 53  1  1
 50 51  1  0
 52 50  1  0
 54  5  1  0
 54 55  1  0
 55 64  1  0
 56 62  1  0
 56 63  2  0
 57 62  1  0
 58 59  1  0
 58 57  1  0
 60 59  1  0
 60 71  1  0
 60 61  1  0
 62 61  1  0
 64 66  2  0
 64 65  1  0
 65 56  1  0
 67 65  1  0
 68 69  2  0
 69 70  1  0
 69 88  1  0
 70 73  1  0
 71 68  1  0
 71 72  1  0
 72 70  2  0
 73 74  1  0
 74 75  2  0
 76 75  1  0
 77 76  2  0
 78 77  1  0
 78 73  2  0
 79 76  1  0
 79 80  1  0
 80 81  1  0
 81 82  2  0
 83 82  1  0
 83 87  1  0
 84 83  2  0
 85 80  2  0
 85 84  1  0
 86 85  1  0
 88 89  1  0
 89 92  1  0
 89 91  1  0
 90 88  2  0
 93 94  1  0
 93 68  1  0
 95 93  1  0
M  ISO  4  12 101  13 101  56 100  65 100
M  END
>  <TORSDO>  (24) 
F 23

>  <SCORE>  (24) 
-11.047

>  <name>  (24) 
23

>  <ligand_id>  (24) 
23

>  <original_smiles>  (24) 
[H]c1c([H])c([H])c2c(c1[H])C([H])([H])C([H])([H])C([H])([H])C2([H])N([H])C(=O)C1([H])N(C(=O)C([H])(N([H])C(=O)C([H])(N([H])C([H])([H])[H])C([H])([H])[H])C(C([H])([H])[H])(C([H])([H])[H])C([H])([H])[H])C([H])([H])c2c([H])c(OC([H])([H])C([H])([H])C([H])([H])C([H])([H])C([H])([H])c3c([H])c([H])c(C([H])([H])C([H])([H])C(=O)N([H])C(=O)N4C([H])([H])C([H])([H])C([H])([H])C([H])(n5nc(-c6c([H])c([H])c(Oc7c([H])c([H])c(F)c([H])c7F)c([H])c6[H])c(C(=O)N([H])[H])c5N([H])[H])C4([H])[H])c(C([H])([H])[H])c3[H])c([H])c([H])c2C1([H])[H]

>  <smiles>  (24) 
[H]c1c([H])c([H])c2c(c1[H])C([H])([H])C([H])([H])C([H])([H])C2([H])N([H])C(=O)C1([H])N(C(=O)C([H])(N([H])C(=O)C([H])(N([H])C([H])([H])[H])C([H])([H])[H])C(C([H])([H])[H])(C([H])([H])[H])C([H])([H])[H])C([H])([H])c2c([H])c(OC([H])([H])C([H])([H])C([H])([H])C([H])([H])C([H])([H])c3c([H])c([H])c(C([H])([H])C([H])([H])C(=O)N([H])C(=O)N4C([H])([H])C([H])([H])C([H])([H])C([H])(n5nc(-c6c([H])c([H])c(Oc7c([H])c([H])c(F)c([H])c7F)c([H])c6[H])c(C(=O)N([H])[H])c5N([H])[H])C4([H])[H])c(C([H])([H])[H])c3[H])c([H])c([H])c2C1([H])[H]

$$$$
24:0:0
     RDKit          3D

 98106  0  0  1  0  0  0  0  0999 V2000
  -26.5600  -25.0330   25.0750 C   0  0  0  0  0  1  0  0  0  0  0  0
  -27.5300  -25.6840   24.0810 C   0  0  0  0  0  3  0  0  0  0  0  0
  -25.4230  -25.5780   20.8770 C   0  0  0  0  0  3  0  0  0  0  0  0
  -26.3200  -25.0240   19.9470 C   0  0  0  0  0  3  0  0  0  0  0  0
  -25.8200  -25.7610   22.2140 C   0  0  0  0  0  3  0  0  0  0  0  0
  -28.0010  -24.7980   21.6960 C   0  0  0  0  0  3  0  0  0  0  0  0
  -27.6150  -24.6280   20.3460 C   0  0  0  0  0  0  0  0  0  0  0  0
  -27.1170  -25.3920   22.6320 C   0  0  0  0  0  0  0  0  0  0  0  0
  -28.5200  -23.9780   19.3000 C   0  0  0  0  0  2  0  0  0  0  0  0
  -30.0230  -24.3360   19.3130 C   0  0  0  0  0  2  0  0  0  0  0  0
  -30.7760  -23.4830   18.2700 C   0  0  0  0  0  2  0  0  0  0  0  0
  -32.2570  -23.8470   18.0480 C   0  0  0  0  0  2  0  0  0  0  0  0
  -32.8830  -22.9610   16.9550 C   0  0  0  0  0  2  0  0  0  0  0  0
  -34.2780  -23.2050   16.7780 O   0  0  0  0  0  0  0  0  0  0  0  0
  -34.8330  -23.1260   15.5410 C   0  0  0  0  0  0  0  0  0  0  0  0
  -35.5880  -21.5260   13.7850 C   0  0  0  0  0  2  0  0  0  0  0  0
  -34.3710  -20.9590   13.0260 C   0  0  0  0  0  2  0  0  0  0  0  0
  -33.7960  -19.7220   13.7480 C   0  0  0  0  0  2  0  0  0  0  0  0
  -33.5720  -19.9710   15.2650 C   0  0  0  0  0  3  0  0  0  0  0  0
  -34.8340  -20.5950   15.9070 C   0  0  0  0  0  2  0  0  0  0  0  0
  -35.1540  -21.8140   15.1550 N   0  0  0  0  0  0  0  0  0  0  0  0
  -35.0240  -24.1310   14.8540 O   0  0  0  0  0  0  0  0  0  0  0  0
  -32.0480  -18.5280   16.7540 C   0  0  0  0  0  0  0  0  0  0  0  0
  -32.1040  -17.2060   17.1030 C   0  0  0  0  0  0  0  0  0  0  0  0
  -33.2740  -16.6800   16.4710 C   0  0  0  0  0  0  0  0  0  0  0  0
  -33.1600  -18.7560   15.9570 N   0  0  0  0  0  0  0  0  0  0  0  0
  -33.9240  -17.6410   15.8300 N   0  0  0  0  0  0  0  0  0  0  0  0
  -33.7800  -15.3050   16.3930 C   0  0  0  0  0  0  0  0  0  0  0  0
  -35.0990  -14.9810   16.7780 C   0  0  0  0  0  3  0  0  0  0  0  0
  -35.5610  -13.6480   16.7050 C   0  0  0  0  0  3  0  0  0  0  0  0
  -34.6960  -12.6240   16.2470 C   0  0  0  0  0  0  0  0  0  0  0  0
  -33.3910  -12.9570   15.8430 C   0  0  0  0  0  3  0  0  0  0  0  0
  -32.9360  -14.2860   15.9110 C   0  0  0  0  0  3  0  0  0  0  0  0
  -35.0630  -11.3060   16.1220 O   0  0  0  0  0  0  0  0  0  0  0  0
  -36.0410  -10.7560   16.9090 C   0  0  0  0  0  0  0  0  0  0  0  0
  -35.9730  -10.7860   18.3200 C   0  0  0  0  0  3  0  0  0  0  0  0
  -36.9650  -10.1440   19.0880 C   0  0  0  0  0  3  0  0  0  0  0  0
  -38.0220   -9.4680   18.4490 C   0  0  0  0  0  0  0  0  0  0  0  0
  -38.0900   -9.4340   17.0440 C   0  0  0  0  0  3  0  0  0  0  0  0
  -37.1020  -10.0750   16.2770 C   0  0  0  0  0  0  0  0  0  0  0  0
  -37.1620  -10.0210   14.9250 F   0  0  0  0  0  0  0  0  0  0  0  0
  -38.9720   -8.8440   19.1840 F   0  0  0  0  0  0  0  0  0  0  0  0
  -31.0800  -16.4450   17.8950 C   0  0  0  0  0  0  0  0  0  0  0  0
  -31.5050  -15.4110   18.6140 N   0  0  0  0  0  0  0  0  0  0  0  0
  -29.9020  -16.7950   17.9220 O   0  0  0  0  0  0  0  0  0  0  0  0
  -32.4750  -15.1310   18.6070 H   0  0  0  0  0  0  0  0  0  0  0  0
  -30.8470  -14.8910   19.1780 H   0  0  0  0  0  0  0  0  0  0  0  0
  -31.1380  -19.5410   17.0290 N   0  0  0  0  0  0  0  0  0  0  0  0
  -30.2730  -19.3630   17.5260 H   0  0  0  0  0  0  0  0  0  0  0  0
  -31.1720  -20.4570   16.6040 H   0  0  0  0  0  0  0  0  0  0  0  0
  -29.0190  -25.3720   24.4180 C   0  0  0  0  0  2  0  0  0  0  0  0
  -30.0340  -26.0110   23.4580 C   0  0  0  0  0  0  0  0  0  0  0  0
  -29.7960  -27.2670   23.0610 N   0  0  0  0  0  0  0  0  0  0  0  0
  -30.9910  -25.3560   23.0450 O   0  0  0  0  0  0  0  0  0  0  0  0
  -29.0370  -27.7530   23.5190 H   0  0  0  0  0  0  0  0  0  0  0  0
  -30.2250  -27.8430   21.7960 C   0  0  0  0  0  2  0  0  0  0  0  0
  -29.0880  -28.7290   21.2500 C   0  0  0  0  0  2  0  0  0  0  0  0
  -28.8070  -29.7210   22.2340 O   0  0  0  0  0  0  0  0  0  0  0  0
  -24.4240  -28.7920   27.7130 C   0  0  0  0  0  0  0  0  0  0  0  0
  -27.5190  -29.9110   22.6860 C   0  0  0  0  0  0  0  0  0  0  0  0
  -23.3490  -29.5770   25.6230 C   0  0  0  0  0  3  0  0  0  0  0  0
  -24.9400  -30.3250   23.7710 C   0  0  0  0  0  0  0  0  0  0  0  0
  -25.7940  -30.1260   26.1160 C   0  0  0  0  0  2  0  0  0  0  0  0
  -26.0330  -30.1200   24.6210 C   0  0  0  0  0  0  0  0  0  0  0  0
  -27.3190  -29.9170   24.0820 C   0  0  0  0  0  3  0  0  0  0  0  0
  -26.4080  -30.1200   21.8370 C   0  0  0  0  0  3  0  0  0  0  0  0
  -25.1210  -30.3220   22.3750 C   0  0  0  0  0  3  0  0  0  0  0  0
  -23.5980  -30.5410   24.4300 C   0  0  0  0  0  2  0  0  0  0  0  0
  -24.5400  -29.4520   26.5250 N   0  0  0  0  0  0  0  0  0  0  0  0
  -23.3360  -28.3300   28.0830 O   0  0  0  0  0  0  0  0  0  0  0  0
  -22.8620  -28.2220   25.0630 C   0  0  0  0  0  0  0  0  0  0  0  0
  -21.8780  -28.2710   24.1520 N   0  0  0  0  0  0  0  0  0  0  0  0
  -23.3860  -27.1640   25.4230 O   0  0  0  0  0  0  0  0  0  0  0  0
  -21.4950  -29.1750   23.9170 H   0  0  0  0  0  0  0  0  0  0  0  0
  -20.0810  -27.2780   21.1800 C   0  0  0  0  0  0  0  0  0  0  0  0
  -21.2930  -27.1240   23.4580 C   0  0  0  0  0  3  0  0  0  0  0  0
  -22.3780  -26.3130   22.7110 C   0  0  0  0  0  2  0  0  0  0  0  0
  -22.5550  -26.7440   21.2530 C   0  0  0  0  0  2  0  0  0  0  0  0
  -21.2410  -26.5860   20.4820 C   0  0  0  0  0  2  0  0  0  0  0  0
  -20.1130  -27.5460   22.5740 C   0  0  0  0  0  0  0  0  0  0  0  0
  -19.0260  -28.2250   23.1670 C   0  0  0  0  0  3  0  0  0  0  0  0
  -17.9240  -28.6320   22.3920 C   0  0  0  0  0  3  0  0  0  0  0  0
  -17.8890  -28.3500   21.0160 C   0  0  0  0  0  3  0  0  0  0  0  0
  -18.9640  -27.6700   20.4150 C   0  0  0  0  0  3  0  0  0  0  0  0
  -25.6430  -28.6060   28.6700 C   0  0  0  0  0  3  0  0  0  0  0  0
  -25.1380  -28.6600   30.0490 N   0  0  0  0  0  0  0  0  0  0  0  0
  -25.2930  -29.7040   30.8730 C   0  0  0  0  0  0  0  0  0  0  0  0
  -25.9460  -30.7070   30.5700 O   0  0  0  0  0  0  0  0  0  0  0  0
  -24.5480  -27.8970   30.3460 H   0  0  0  0  0  0  0  0  0  0  0  0
  -23.3130  -30.4460   32.2360 C   0  0  0  0  0  1  0  0  0  0  0  0
  -24.6130  -29.6240   32.2530 C   0  0  0  0  0  3  0  0  0  0  0  0
  -26.6050  -29.1920   33.6190 C   0  0  0  0  0  1  0  0  0  0  0  0
  -25.4770  -30.0830   33.3620 N   0  0  0  0  0  0  0  0  0  0  0  0
  -24.9420  -30.1710   34.2220 H   0  0  0  0  0  0  0  0  0  0  0  0
  -26.4370  -27.2660   28.4170 C   0  0  1  0  0  0  0  0  0  0  0  0
  -25.5420  -26.0050   28.4180 C   0  0  0  0  0  1  0  0  0  0  0  0
  -27.1790  -27.3190   27.0620 C   0  0  0  0  0  1  0  0  0  0  0  0
  -27.5240  -27.0850   29.5050 C   0  0  0  0  0  1  0  0  0  0  0  0
  2 51  1  0
  2  1  1  0
  3  5  1  0
  4  7  1  0
  4  3  2  0
  5  8  2  0
  6  8  1  0
  7  6  2  0
  8  2  1  0
  9 10  1  0
  9  7  1  0
 11 10  1  0
 12 11  1  0
 13 12  1  0
 14 13  1  0
 15 14  1  0
 16 21  1  0
 17 18  1  0
 17 16  1  0
 19 18  1  0
 19 20  1  0
 19 26  1  0
 21 15  1  0
 21 20  1  0
 22 15  2  0
 23 48  1  0
 23 24  2  0
 24 43  1  0
 25 24  1  0
 26 23  1  0
 27 26  1  0
 27 25  2  0
 28 25  1  0
 28 29  1  0
 30 29  2  0
 31 30  1  0
 32 33  1  0
 32 31  2  0
 33 28  2  0
 34 31  1  0
 34 35  1  0
 35 36  1  0
 36 37  2  0
 38 37  1  0
 38 42  1  0
 39 38  2  0
 40 35  2  0
 40 39  1  0
 41 40  1  0
 43 45  2  0
 43 44  1  0
 44 47  1  0
 46 44  1  0
 48 49  1  0
 50 48  1  0
 52 51  1  0
 53 52  1  0
 53 55  1  0
 54 52  2  0
 56 53  1  0
 57 56  1  0
 57 58  1  0
 58 60  1  0
 59 70  2  0
 60 65  1  0
 61 71  1  0
 61 69  1  0
 62 68  1  0
 62 64  1  0
 63 69  1  0
 64 63  1  0
 65 64  2  0
 66 67  1  0
 66 60  2  0
 67 62  2  0
 68 61  1  0
 69 59  1  0
 71 73  2  0
 72 71  1  0
 74 72  1  0
 75 80  1  0
 76 72  1  0
 77 76  1  0
 78 77  1  0
 79 75  1  0
 79 78  1  0
 80 81  2  0
 80 76  1  0
 82 81  1  0
 83 82  2  0
 84 83  1  0
 84 75  2  0
 85 59  1  0
 85 86  1  0
 86 89  1  0
 86 87  1  0
 87 91  1  0
 88 87  2  0
 91 90  1  0
 91 93  1  0
 93 92  1  0
 93 94  1  0
 95 96  1  6
 95 85  1  0
 95 98  1  0
 97 95  1  0
M  ISO  4  14 100  15 100  57 101  58 101
M  END
>  <TORSDO>  (25) 
F 27

>  <SCORE>  (25) 
0.950

>  <name>  (25) 
24

>  <ligand_id>  (25) 
24

>  <original_smiles>  (25) 
[H]c1c([H])c([H])c2c(c1[H])C([H])([H])C([H])([H])C([H])([H])C2([H])N([H])C(=O)C1([H])N(C(=O)C([H])(N([H])C(=O)C([H])(N([H])C([H])([H])[H])C([H])([H])[H])C(C([H])([H])[H])(C([H])([H])[H])C([H])([H])[H])C([H])([H])c2c([H])c(OC([H])([H])C([H])([H])N([H])C(=O)C([H])([H])C([H])(c3c([H])c([H])c([H])c(C([H])([H])C([H])([H])C([H])([H])C([H])([H])C([H])([H])OC(=O)N4C([H])([H])C([H])([H])C([H])([H])C([H])(n5nc(-c6c([H])c([H])c(Oc7c([H])c([H])c(F)c([H])c7F)c([H])c6[H])c(C(=O)N([H])[H])c5N([H])[H])C4([H])[H])c3[H])C([H])([H])[H])c([H])c([H])c2C1([H])[H]

>  <smiles>  (25) 
[H]c1c([H])c([H])c2c(c1[H])C([H])([H])C([H])([H])C([H])([H])C2([H])N([H])C(=O)C1([H])N(C(=O)C([H])(N([H])C(=O)C([H])(N([H])C([H])([H])[H])C([H])([H])[H])C(C([H])([H])[H])(C([H])([H])[H])C([H])([H])[H])C([H])([H])c2c([H])c(OC([H])([H])C([H])([H])N([H])C(=O)C([H])([H])C([H])(c3c([H])c([H])c([H])c(C([H])([H])C([H])([H])C([H])([H])C([H])([H])C([H])([H])OC(=O)N4C([H])([H])C([H])([H])C([H])([H])C([H])(n5nc(-c6c([H])c([H])c(Oc7c([H])c([H])c(F)c([H])c7F)c([H])c6[H])c(C(=O)N([H])[H])c5N([H])[H])C4([H])[H])c3[H])C([H])([H])[H])c([H])c([H])c2C1([H])[H]

$$$$
25:0:0
     RDKit          3D

 98107  0  0  1  0  0  0  0  0999 V2000
  -26.8910  -25.0790   16.0010 C   0  0  0  0  0  3  0  0  0  0  0  0
  -27.6530  -23.8970   16.0400 C   0  0  0  0  0  3  0  0  0  0  0  0
  -27.3790  -26.2520   16.6070 C   0  0  0  0  0  3  0  0  0  0  0  0
  -29.3910  -25.0610   17.2990 C   0  0  0  0  0  3  0  0  0  0  0  0
  -28.9070  -23.8870   16.6860 C   0  0  0  0  0  0  0  0  0  0  0  0
  -28.6270  -26.2490   17.2680 C   0  0  0  0  0  0  0  0  0  0  0  0
  -29.7280  -22.6110   16.7140 C   0  0  0  0  0  2  0  0  0  0  0  0
  -30.5510  -21.5040   18.8640 C   0  0  0  0  0  2  0  0  0  0  0  0
  -28.8920  -20.2980   17.4080 C   0  0  0  0  0  2  0  0  0  0  0  0
  -30.2360  -20.5040   19.9920 C   0  0  0  0  0  2  0  0  0  0  0  0
  -28.6220  -19.3290   18.5750 C   0  0  0  0  0  2  0  0  0  0  0  0
  -29.3650  -21.6810   17.8960 C   0  0  0  0  0  3  0  0  0  0  0  0
  -29.8240  -19.1880   19.4360 N   0  0  2  0  0  4  0  0  0  0  0  0
  -30.5640  -18.8830   18.8230 H   0  0  0  0  0  0  0  0  0  0  0  0
  -29.6840  -18.1190   20.4620 C   0  0  0  0  0  2  0  0  0  0  0  0
  -31.0520  -17.5820   20.9380 C   0  0  0  0  0  2  0  0  0  0  0  0
  -30.9770  -16.4020   21.9310 C   0  0  0  0  0  2  0  0  0  0  0  0
  -30.8170  -14.3840   20.4580 C   0  0  0  0  0  0  0  0  0  0  0  0
  -30.4170  -12.3400   19.1390 C   0  0  0  0  0  2  0  0  0  0  0  0
  -29.4700  -12.6190   17.9560 C   0  0  0  0  0  2  0  0  0  0  0  0
  -27.9990  -12.4930   18.3940 C   0  0  0  0  0  2  0  0  0  0  0  0
  -27.6910  -13.2940   19.6860 C   0  0  0  0  0  3  0  0  0  0  0  0
  -28.7400  -12.9890   20.7780 C   0  0  0  0  0  2  0  0  0  0  0  0
  -30.0780  -13.2700   20.2240 N   0  0  0  0  0  0  0  0  0  0  0  0
  -31.8650  -14.6440   19.8590 O   0  0  0  0  0  0  0  0  0  0  0  0
  -30.3260  -15.2050   21.3950 N   0  0  0  0  0  0  0  0  0  0  0  0
  -29.4720  -14.9040   21.8420 H   0  0  0  0  0  0  0  0  0  0  0  0
  -25.2920  -13.9320   20.3710 C   0  0  0  0  0  0  0  0  0  0  0  0
  -24.2160  -13.1730   20.7470 C   0  0  0  0  0  0  0  0  0  0  0  0
  -24.6670  -11.8180   20.7380 C   0  0  0  0  0  0  0  0  0  0  0  0
  -26.3320  -13.0390   20.1590 N   0  0  0  0  0  0  0  0  0  0  0  0
  -25.9580  -11.7640   20.4350 N   0  0  0  0  0  0  0  0  0  0  0  0
  -23.9320  -10.5640   20.9450 C   0  0  0  0  0  0  0  0  0  0  0  0
  -24.3610   -9.6040   21.8890 C   0  0  0  0  0  3  0  0  0  0  0  0
  -23.6270   -8.4140   22.0830 C   0  0  0  0  0  3  0  0  0  0  0  0
  -22.4510   -8.1750   21.3320 C   0  0  0  0  0  0  0  0  0  0  0  0
  -22.0420   -9.1230   20.3780 C   0  0  0  0  0  3  0  0  0  0  0  0
  -22.7760  -10.3050   20.1830 C   0  0  0  0  0  3  0  0  0  0  0  0
  -21.6910   -7.0350   21.4340 O   0  0  0  0  0  0  0  0  0  0  0  0
  -21.6420   -6.3030   22.5920 C   0  0  0  0  0  0  0  0  0  0  0  0
  -21.2310   -6.8720   23.8180 C   0  0  0  0  0  3  0  0  0  0  0  0
  -21.1290   -6.0670   24.9690 C   0  0  0  0  0  3  0  0  0  0  0  0
  -21.4280   -4.6940   24.8980 C   0  0  0  0  0  0  0  0  0  0  0  0
  -21.8340   -4.1240   23.6780 C   0  0  0  0  0  3  0  0  0  0  0  0
  -21.9370   -4.9260   22.5280 C   0  0  0  0  0  0  0  0  0  0  0  0
  -22.3090   -4.3680   21.3510 F   0  0  0  0  0  0  0  0  0  0  0  0
  -21.3220   -3.9180   26.0020 F   0  0  0  0  0  0  0  0  0  0  0  0
  -22.8210  -13.6650   21.0070 C   0  0  0  0  0  0  0  0  0  0  0  0
  -22.0850  -12.9880   21.8800 N   0  0  0  0  0  0  0  0  0  0  0  0
  -22.3930  -14.6850   20.4700 O   0  0  0  0  0  0  0  0  0  0  0  0
  -22.4450  -12.1630   22.3380 H   0  0  0  0  0  0  0  0  0  0  0  0
  -21.1500  -13.3000   22.0970 H   0  0  0  0  0  0  0  0  0  0  0  0
  -25.4690  -15.2980   20.1760 N   0  0  0  0  0  0  0  0  0  0  0  0
  -24.7090  -15.9620   20.2730 H   0  0  0  0  0  0  0  0  0  0  0  0
  -26.3290  -15.7230   19.8530 H   0  0  0  0  0  0  0  0  0  0  0  0
  -29.1360  -27.5230   17.9300 C   0  0  0  0  0  2  0  0  0  0  0  0
  -29.4150  -27.3870   19.4430 C   0  0  0  0  0  2  0  0  0  0  0  0
  -28.3210  -26.8040   20.1460 O   0  0  0  0  0  0  0  0  0  0  0  0
  -24.5050  -31.9700   23.2540 C   0  0  0  0  0  0  0  0  0  0  0  0
  -27.1710  -27.5490   20.1950 C   0  0  0  0  0  0  0  0  0  0  0  0
  -23.3000  -30.5450   21.6280 C   0  0  0  0  0  3  0  0  0  0  0  0
  -24.7580  -29.0040   20.2170 C   0  0  0  0  0  0  0  0  0  0  0  0
  -25.8180  -30.9300   21.4110 C   0  0  0  0  0  2  0  0  0  0  0  0
  -25.9130  -29.5540   20.7870 C   0  0  0  0  0  0  0  0  0  0  0  0
  -27.1270  -28.8350   20.7740 C   0  0  0  0  0  3  0  0  0  0  0  0
  -25.9960  -26.9900   19.6570 C   0  0  0  0  0  3  0  0  0  0  0  0
  -24.7920  -27.7170   19.6510 C   0  0  0  0  0  3  0  0  0  0  0  0
  -23.5080  -29.8510   20.2560 C   0  0  0  0  0  2  0  0  0  0  0  0
  -24.5600  -31.1630   22.1560 N   0  0  0  0  0  0  0  0  0  0  0  0
  -23.4250  -32.2400   23.7960 O   0  0  0  0  0  0  0  0  0  0  0  0
  -22.6600  -29.5300   22.6010 C   0  0  0  0  0  0  0  0  0  0  0  0
  -21.3400  -29.3270   22.4700 N   0  0  0  0  0  0  0  0  0  0  0  0
  -23.3490  -28.9250   23.4280 O   0  0  0  0  0  0  0  0  0  0  0  0
  -20.8460  -29.8670   21.7730 H   0  0  0  0  0  0  0  0  0  0  0  0
  -17.9820  -28.0850   22.9510 C   0  0  0  0  0  0  0  0  0  0  0  0
  -20.5310  -28.3900   23.2490 C   0  0  0  0  0  3  0  0  0  0  0  0
  -20.6650  -26.9510   22.7010 C   0  0  0  0  0  2  0  0  0  0  0  0
  -19.5810  -26.5890   21.6810 C   0  0  0  0  0  2  0  0  0  0  0  0
  -18.1890  -26.7250   22.3070 C   0  0  0  0  0  2  0  0  0  0  0  0
  -19.0820  -28.8730   23.3800 C   0  0  0  0  0  0  0  0  0  0  0  0
  -18.8360  -30.1460   23.9400 C   0  0  0  0  0  3  0  0  0  0  0  0
  -17.5210  -30.6290   24.0780 C   0  0  0  0  0  3  0  0  0  0  0  0
  -16.4350  -29.8380   23.6680 C   0  0  0  0  0  3  0  0  0  0  0  0
  -16.6660  -28.5670   23.1100 C   0  0  0  0  0  3  0  0  0  0  0  0
  -25.7910  -32.6130   23.8610 C   0  0  0  0  0  3  0  0  0  0  0  0
  -25.4800  -34.0130   24.1760 N   0  0  0  0  0  0  0  0  0  0  0  0
  -25.8130  -35.0570   23.4050 C   0  0  0  0  0  0  0  0  0  0  0  0
  -26.4860  -34.9430   22.3770 O   0  0  0  0  0  0  0  0  0  0  0  0
  -24.8830  -34.1750   24.9740 H   0  0  0  0  0  0  0  0  0  0  0  0
  -24.0850  -36.8430   23.0180 C   0  0  0  0  0  1  0  0  0  0  0  0
  -25.3200  -36.4480   23.8440 C   0  0  0  0  0  3  0  0  0  0  0  0
  -27.4480  -37.3410   24.6820 C   0  0  0  0  0  1  0  0  0  0  0  0
  -26.3510  -37.5020   23.7310 N   0  0  0  0  0  0  0  0  0  0  0  0
  -25.9430  -38.4220   23.8720 H   0  0  0  0  0  0  0  0  0  0  0  0
  -26.3210  -31.8560   25.1410 C   0  0  1  0  0  0  0  0  0  0  0  0
  -25.2340  -31.6110   26.2130 C   0  0  0  0  0  1  0  0  0  0  0  0
  -26.9200  -30.4850   24.7520 C   0  0  0  0  0  1  0  0  0  0  0  0
  -27.4630  -32.6690   25.7950 C   0  0  0  0  0  1  0  0  0  0  0  0
  1  2  2  0
  1  3  1  0
  2  5  1  0
  3  6  2  0
  5  7  1  0
  5  4  2  0
  6  4  1  0
  6 56  1  0
  8 10  1  0
  9 12  1  0
  9 11  1  0
 11 13  1  0
 12  7  1  0
 12  8  1  0
 13 10  1  0
 13 15  1  0
 13 14  1  6
 15 16  1  0
 16 17  1  0
 18 26  1  0
 19 24  1  0
 20 21  1  0
 20 19  1  0
 22 21  1  0
 22 31  1  0
 22 23  1  0
 24 18  1  0
 24 23  1  0
 25 18  2  0
 26 27  1  0
 26 17  1  0
 28 29  2  0
 29 48  1  0
 30 29  1  0
 30 33  1  0
 31 28  1  0
 31 32  1  0
 32 30  2  0
 33 34  1  0
 34 35  2  0
 36 39  1  0
 36 35  1  0
 37 36  2  0
 38 37  1  0
 38 33  2  0
 39 40  1  0
 40 41  1  0
 41 42  2  0
 43 42  1  0
 43 47  1  0
 44 43  2  0
 45 40  2  0
 45 44  1  0
 46 45  1  0
 48 49  1  0
 49 52  1  0
 49 51  1  0
 50 48  2  0
 53 54  1  0
 53 28  1  0
 55 53  1  0
 56 57  1  0
 57 58  1  0
 58 60  1  0
 59 70  2  0
 60 65  1  0
 61 69  1  0
 61 71  1  0
 62 68  1  0
 62 64  1  0
 63 69  1  0
 64 63  1  0
 65 64  2  0
 66 60  2  0
 67 66  1  0
 67 62  2  0
 68 61  1  0
 69 59  1  0
 71 73  2  0
 72 71  1  0
 74 72  1  0
 75 84  2  0
 75 80  1  0
 76 72  1  0
 76 80  1  0
 77 76  1  0
 78 79  1  0
 78 77  1  0
 79 75  1  0
 80 81  2  0
 81 82  1  0
 83 82  2  0
 84 83  1  0
 85 59  1  0
 85 86  1  0
 85 95  1  0
 86 89  1  0
 87 91  1  0
 87 86  1  0
 88 87  2  0
 91 90  1  0
 93 91  1  0
 93 94  1  0
 93 92  1  0
 95 98  1  1
 95 96  1  0
 97 95  1  0
M  ISO  4  18 100  26 100  57 101  58 101
M  END
>  <TORSDO>  (26) 
F 23

>  <SCORE>  (26) 
-12.033

>  <name>  (26) 
25

>  <ligand_id>  (26) 
25

>  <original_smiles>  (26) 
[H]c1c([H])c([H])c2c(c1[H])C([H])([H])C([H])([H])C([H])([H])C2([H])N([H])C(=O)C1([H])N(C(=O)C([H])(N([H])C(=O)C([H])(N([H])C([H])([H])[H])C([H])([H])[H])C(C([H])([H])[H])(C([H])([H])[H])C([H])([H])[H])C([H])([H])c2c([H])c(OC([H])([H])C([H])([H])c3c([H])c([H])c([H])c(C([H])([H])C4([H])C([H])([H])C([H])([H])[N+]([H])(C([H])([H])C([H])([H])C([H])([H])N([H])C(=O)N5C([H])([H])C([H])([H])C([H])([H])C([H])(n6nc(-c7c([H])c([H])c(Oc8c([H])c([H])c(F)c([H])c8F)c([H])c7[H])c(C(=O)N([H])[H])c6N([H])[H])C5([H])[H])C([H])([H])C4([H])[H])c3[H])c([H])c([H])c2C1([H])[H]

>  <smiles>  (26) 
[H]c1c([H])c([H])c2c(c1[H])C([H])([H])C([H])([H])C([H])([H])C2([H])N([H])C(=O)C1([H])N(C(=O)C([H])(N([H])C(=O)C([H])(N([H])C([H])([H])[H])C([H])([H])[H])C(C([H])([H])[H])(C([H])([H])[H])C([H])([H])[H])C([H])([H])c2c([H])c(OC([H])([H])C([H])([H])c3c([H])c([H])c([H])c(C([H])([H])C4([H])C([H])([H])C([H])([H])[N+]([H])(C([H])([H])C([H])([H])C([H])([H])N([H])C(=O)N5C([H])([H])C([H])([H])C([H])([H])C([H])(n6nc(-c7c([H])c([H])c(Oc8c([H])c([H])c(F)c([H])c8F)c([H])c7[H])c(C(=O)N([H])[H])c6N([H])[H])C5([H])[H])C([H])([H])C4([H])[H])c3[H])c([H])c([H])c2C1([H])[H]

$$$$
26:0:0
     RDKit          3D

 96104  0  0  1  0  0  0  0  0999 V2000
  -29.5840  -22.0090   22.2820 C   0  0  0  0  0  3  0  0  0  0  0  0
  -29.5900  -23.3780   21.9450 C   0  0  0  0  0  3  0  0  0  0  0  0
  -29.5300  -22.7800   19.5950 C   0  0  0  0  0  3  0  0  0  0  0  0
  -29.5640  -21.0000   21.2840 C   0  0  0  0  0  0  0  0  0  0  0  0
  -29.5730  -23.7720   20.5950 C   0  0  0  0  0  0  0  0  0  0  0  0
  -29.5190  -21.4090   19.9210 C   0  0  0  0  0  0  0  0  0  0  0  0
  -29.5710  -19.5490   21.6750 C   0  0  0  0  0  0  0  0  0  0  0  0
  -28.8000  -18.7130   21.1900 O   0  0  0  0  0  0  0  0  0  0  0  0
  -30.6110  -19.0700   22.6950 C   0  0  0  0  0  2  0  0  0  0  0  0
  -31.8730  -18.4750   22.0400 C   0  0  0  0  0  2  0  0  0  0  0  0
  -31.7030  -17.0050   21.6200 C   0  0  0  0  0  2  0  0  0  0  0  0
  -32.8460  -16.5320   20.7070 C   0  0  0  0  0  2  0  0  0  0  0  0
  -33.0630  -15.0130   20.7330 C   0  0  0  0  0  2  0  0  0  0  0  0
  -31.6700  -13.7080   19.1360 C   0  0  0  0  0  0  0  0  0  0  0  0
  -30.8000  -11.6200   18.1660 C   0  0  0  0  0  2  0  0  0  0  0  0
  -29.6530  -11.8110   17.1630 C   0  0  0  0  0  2  0  0  0  0  0  0
  -28.3010  -11.8620   17.8940 C   0  0  0  0  0  2  0  0  0  0  0  0
  -28.3040  -12.8790   19.0630 C   0  0  0  0  0  3  0  0  0  0  0  0
  -29.5340  -12.6780   19.9770 C   0  0  0  0  0  2  0  0  0  0  0  0
  -30.7580  -12.7070   19.1530 N   0  0  0  0  0  0  0  0  0  0  0  0
  -32.4200  -13.9390   18.1820 O   0  0  0  0  0  0  0  0  0  0  0  0
  -31.8760  -14.2570   20.3390 N   0  0  0  0  0  0  0  0  0  0  0  0
  -31.2650  -13.9450   21.0790 H   0  0  0  0  0  0  0  0  0  0  0  0
  -26.3160  -13.8470   20.3870 C   0  0  0  0  0  0  0  0  0  0  0  0
  -25.1970  -13.2600   20.9150 C   0  0  0  0  0  0  0  0  0  0  0  0
  -25.3100  -11.8660   20.6260 C   0  0  0  0  0  0  0  0  0  0  0  0
  -27.0540  -12.8190   19.8210 N   0  0  0  0  0  0  0  0  0  0  0  0
  -26.4590  -11.6130   20.0150 N   0  0  0  0  0  0  0  0  0  0  0  0
  -24.3620  -10.7650   20.8480 C   0  0  0  0  0  0  0  0  0  0  0  0
  -24.7270   -9.6140   21.5800 C   0  0  0  0  0  3  0  0  0  0  0  0
  -23.7940   -8.5760   21.7930 C   0  0  0  0  0  3  0  0  0  0  0  0
  -22.4800   -8.6840   21.2770 C   0  0  0  0  0  0  0  0  0  0  0  0
  -22.1300   -9.8230   20.5310 C   0  0  0  0  0  3  0  0  0  0  0  0
  -23.0610  -10.8530   20.3150 C   0  0  0  0  0  3  0  0  0  0  0  0
  -21.5150   -7.7160   21.4130 O   0  0  0  0  0  0  0  0  0  0  0  0
  -21.4880   -6.8740   22.4970 C   0  0  0  0  0  0  0  0  0  0  0  0
  -21.3990   -7.3660   23.8180 C   0  0  0  0  0  3  0  0  0  0  0  0
  -21.3020   -6.4650   24.8980 C   0  0  0  0  0  3  0  0  0  0  0  0
  -21.2850   -5.0770   24.6610 C   0  0  0  0  0  0  0  0  0  0  0  0
  -21.3660   -4.5870   23.3450 C   0  0  0  0  0  3  0  0  0  0  0  0
  -21.4640   -5.4850   22.2660 C   0  0  0  0  0  0  0  0  0  0  0  0
  -21.5220   -5.0080   21.0000 F   0  0  0  0  0  0  0  0  0  0  0  0
  -21.1830   -4.2130   25.6970 F   0  0  0  0  0  0  0  0  0  0  0  0
  -24.0410  -13.9630   21.5680 C   0  0  0  0  0  0  0  0  0  0  0  0
  -23.3890  -13.3090   22.5230 N   0  0  0  0  0  0  0  0  0  0  0  0
  -23.7410  -15.1180   21.2680 O   0  0  0  0  0  0  0  0  0  0  0  0
  -23.6490  -12.3700   22.7850 H   0  0  0  0  0  0  0  0  0  0  0  0
  -22.6170  -13.7560   23.0000 H   0  0  0  0  0  0  0  0  0  0  0  0
  -26.7600  -15.1640   20.3240 N   0  0  0  0  0  0  0  0  0  0  0  0
  -26.2200  -15.9390   20.6920 H   0  0  0  0  0  0  0  0  0  0  0  0
  -27.6050  -15.4570   19.8520 H   0  0  0  0  0  0  0  0  0  0  0  0
  -29.4860  -20.5230   18.8790 O   0  0  0  0  0  0  0  0  0  0  0  0
  -29.4860  -19.6150   19.1800 H   0  0  0  0  0  0  0  0  0  0  0  0
  -29.6410  -25.2370   20.1740 C   0  0  0  0  0  2  0  0  0  0  0  0
  -29.4660  -26.2820   21.3020 C   0  0  0  0  0  2  0  0  0  0  0  0
  -29.5180  -27.6250   20.8050 O   0  0  0  0  0  0  0  0  0  0  0  0
  -24.9420  -32.1900   23.7560 C   0  0  0  0  0  0  0  0  0  0  0  0
  -28.2940  -28.2410   20.7260 C   0  0  0  0  0  0  0  0  0  0  0  0
  -24.0450  -30.7860   21.9280 C   0  0  0  0  0  3  0  0  0  0  0  0
  -25.7730  -29.4920   20.5770 C   0  0  0  0  0  0  0  0  0  0  0  0
  -26.5270  -31.3990   22.0080 C   0  0  0  0  0  2  0  0  0  0  0  0
  -26.8080  -30.0850   21.3130 C   0  0  0  0  0  0  0  0  0  0  0  0
  -28.0710  -29.4620   21.3940 C   0  0  0  0  0  3  0  0  0  0  0  0
  -27.2570  -27.6780   19.9560 C   0  0  0  0  0  3  0  0  0  0  0  0
  -25.9910  -28.2840   19.8970 C   0  0  0  0  0  3  0  0  0  0  0  0
  -24.4510  -30.2230   20.5410 C   0  0  0  0  0  2  0  0  0  0  0  0
  -25.1820  -31.4690   22.6250 N   0  0  0  0  0  0  0  0  0  0  0  0
  -23.7930  -32.3260   24.1970 O   0  0  0  0  0  0  0  0  0  0  0  0
  -23.4160  -29.6450   22.7590 C   0  0  0  0  0  0  0  0  0  0  0  0
  -22.1390  -29.3380   22.4790 N   0  0  0  0  0  0  0  0  0  0  0  0
  -24.0760  -29.0480   23.6140 O   0  0  0  0  0  0  0  0  0  0  0  0
  -21.6610  -29.8800   21.7740 H   0  0  0  0  0  0  0  0  0  0  0  0
  -18.8770  -27.7920   22.5580 C   0  0  0  0  0  0  0  0  0  0  0  0
  -21.3530  -28.2810   23.1150 C   0  0  0  0  0  3  0  0  0  0  0  0
  -21.6600  -26.9050   22.4850 C   0  0  0  0  0  2  0  0  0  0  0  0
  -20.7070  -26.5380   21.3430 C   0  0  0  0  0  2  0  0  0  0  0  0
  -19.2600  -26.5090   21.8400 C   0  0  0  0  0  2  0  0  0  0  0  0
  -19.8610  -28.6330   23.1430 C   0  0  0  0  0  0  0  0  0  0  0  0
  -19.4510  -29.8330   23.7630 C   0  0  0  0  0  3  0  0  0  0  0  0
  -18.0930  -30.1940   23.8100 C   0  0  0  0  0  3  0  0  0  0  0  0
  -17.1220  -29.3510   23.2440 C   0  0  0  0  0  3  0  0  0  0  0  0
  -17.5140  -28.1510   22.6240 C   0  0  0  0  0  3  0  0  0  0  0  0
  -26.0980  -32.8970   24.5330 C   0  0  0  0  0  3  0  0  0  0  0  0
  -26.4420  -32.2030   25.9080 C   0  0  1  0  0  0  0  0  0  0  0  0
  -25.2030  -31.9310   26.7900 C   0  0  0  0  0  1  0  0  0  0  0  0
  -27.1590  -30.8520   25.6700 C   0  0  0  0  0  1  0  0  0  0  0  0
  -27.4170  -33.0910   26.7160 C   0  0  0  0  0  1  0  0  0  0  0  0
  -25.6990  -34.2950   24.7410 N   0  0  0  0  0  0  0  0  0  0  0  0
  -26.0990  -35.3220   23.9820 C   0  0  0  0  0  0  0  0  0  0  0  0
  -26.9180  -35.1980   23.0640 O   0  0  0  0  0  0  0  0  0  0  0  0
  -24.9890  -34.4650   25.4380 H   0  0  0  0  0  0  0  0  0  0  0  0
  -24.3740  -37.0120   23.2870 C   0  0  0  0  0  1  0  0  0  0  0  0
  -25.4980  -36.7060   24.2890 C   0  0  0  0  0  3  0  0  0  0  0  0
  -27.4650  -37.7140   25.3560 C   0  0  0  0  0  1  0  0  0  0  0  0
  -26.4930  -37.8000   24.2690 N   0  0  0  0  0  0  0  0  0  0  0  0
  -26.0330  -38.7040   24.3240 H   0  0  0  0  0  0  0  0  0  0  0  0
  2  1  1  0
  3  6  2  0
  3  5  1  0
  4  7  1  0
  4  1  2  0
  5  2  2  0
  6  4  1  0
  7  9  1  0
  8  7  2  0
 10  9  1  0
 11 10  1  0
 12 13  1  0
 12 11  1  0
 14 20  1  0
 14 22  1  0
 15 20  1  0
 16 17  1  0
 16 15  1  0
 18 17  1  0
 18 27  1  0
 18 19  1  0
 20 19  1  0
 21 14  2  0
 22 13  1  0
 22 23  1  0
 24 25  2  0
 25 44  1  0
 26 29  1  0
 26 25  1  0
 27 28  1  0
 27 24  1  0
 28 26  2  0
 29 30  1  0
 30 31  2  0
 32 35  1  0
 32 31  1  0
 33 32  2  0
 34 33  1  0
 34 29  2  0
 35 36  1  0
 36 37  1  0
 37 38  2  0
 39 38  1  0
 39 43  1  0
 40 39  2  0
 41 36  2  0
 41 40  1  0
 42 41  1  0
 44 45  1  0
 45 47  1  0
 45 48  1  0
 46 44  2  0
 49 24  1  0
 49 50  1  0
 51 49  1  0
 52 53  1  0
 52  6  1  0
 54  5  1  0
 54 55  1  0
 56 55  1  0
 57 68  2  0
 58 56  1  0
 58 63  1  0
 59 67  1  0
 59 69  1  0
 60 62  1  0
 61 67  1  0
 62 63  2  0
 62 61  1  0
 64 58  2  0
 65 64  1  0
 65 60  2  0
 66 60  1  0
 66 59  1  0
 67 57  1  0
 69 71  2  0
 70 69  1  0
 72 70  1  0
 73 82  2  0
 73 78  1  0
 74 70  1  0
 74 78  1  0
 75 74  1  0
 76 77  1  0
 76 75  1  0
 77 73  1  0
 78 79  2  0
 79 80  1  0
 81 80  2  0
 82 81  1  0
 83 57  1  0
 83 88  1  0
 83 84  1  0
 84 87  1  1
 84 85  1  0
 86 84  1  0
 88 91  1  0
 89 93  1  0
 89 88  1  0
 90 89  2  0
 93 92  1  0
 95 93  1  0
 95 96  1  0
 95 94  1  0
M  ISO  4  14 100  22 100  55 101  56 101
M  END
>  <TORSDO>  (27) 
F 25

>  <SCORE>  (27) 
-6.401

>  <name>  (27) 
26

>  <ligand_id>  (27) 
26

>  <original_smiles>  (27) 
[H]Oc1c([H])c(C([H])([H])C([H])([H])Oc2c([H])c([H])c3c(c2[H])C([H])([H])N(C(=O)C([H])(N([H])C(=O)C([H])(N([H])C([H])([H])[H])C([H])([H])[H])C(C([H])([H])[H])(C([H])([H])[H])C([H])([H])[H])C([H])(C(=O)N([H])C2([H])c4c([H])c([H])c([H])c([H])c4C([H])([H])C([H])([H])C2([H])[H])C3([H])[H])c([H])c([H])c1C(=O)C([H])([H])C([H])([H])C([H])([H])C([H])([H])C([H])([H])N([H])C(=O)N1C([H])([H])C([H])([H])C([H])([H])C([H])(n2nc(-c3c([H])c([H])c(Oc4c([H])c([H])c(F)c([H])c4F)c([H])c3[H])c(C(=O)N([H])[H])c2N([H])[H])C1([H])[H]

>  <smiles>  (27) 
[H]Oc1c([H])c(C([H])([H])C([H])([H])Oc2c([H])c([H])c3c(c2[H])C([H])([H])N(C(=O)C([H])(N([H])C(=O)C([H])(N([H])C([H])([H])[H])C([H])([H])[H])C(C([H])([H])[H])(C([H])([H])[H])C([H])([H])[H])C([H])(C(=O)N([H])C2([H])c4c([H])c([H])c([H])c([H])c4C([H])([H])C([H])([H])C2([H])[H])C3([H])[H])c([H])c([H])c1C(=O)C([H])([H])C([H])([H])C([H])([H])C([H])([H])C([H])([H])N([H])C(=O)N1C([H])([H])C([H])([H])C([H])([H])C([H])(n2nc(-c3c([H])c([H])c(Oc4c([H])c([H])c(F)c([H])c4F)c([H])c3[H])c(C(=O)N([H])[H])c2N([H])[H])C1([H])[H]

$$$$
27:0:0
     RDKit          3D

 95103  0  0  1  0  0  0  0  0999 V2000
  -25.0740  -22.8440   20.8560 C   0  0  0  0  0  3  0  0  0  0  0  0
  -25.8800  -21.8160   20.3310 C   0  0  0  0  0  3  0  0  0  0  0  0
  -25.6640  -24.0250   21.3450 C   0  0  0  0  0  3  0  0  0  0  0  0
  -27.8690  -23.1230   20.8350 C   0  0  0  0  0  3  0  0  0  0  0  0
  -27.2880  -21.9500   20.2990 C   0  0  0  0  0  0  0  0  0  0  0  0
  -27.0650  -24.1710   21.3310 C   0  0  0  0  0  0  0  0  0  0  0  0
  -28.1250  -20.8690   19.6960 C   0  0  0  0  0  0  0  0  0  0  0  0
  -27.6470  -19.8290   19.2360 O   0  0  0  0  0  0  0  0  0  0  0  0
  -29.6440  -21.1160   19.6420 C   0  0  0  0  0  2  0  0  0  0  0  0
  -30.5240  -19.9370   19.1850 C   0  0  0  0  0  2  0  0  0  0  0  0
  -30.5730  -18.7400   20.1510 C   0  0  0  0  0  2  0  0  0  0  0  0
  -31.8490  -17.9150   19.9550 C   0  0  0  0  0  2  0  0  0  0  0  0
  -31.9580  -16.7040   20.8990 C   0  0  0  0  0  2  0  0  0  0  0  0
  -31.3070  -14.7000   19.5740 C   0  0  0  0  0  0  0  0  0  0  0  0
  -30.9520  -12.3520   18.9170 C   0  0  0  0  0  2  0  0  0  0  0  0
  -29.9660  -12.1820   17.7500 C   0  0  0  0  0  2  0  0  0  0  0  0
  -28.5190  -12.1110   18.2700 C   0  0  0  0  0  2  0  0  0  0  0  0
  -28.1840  -13.2690   19.2440 C   0  0  0  0  0  3  0  0  0  0  0  0
  -29.2710  -13.4170   20.3310 C   0  0  0  0  0  2  0  0  0  0  0  0
  -30.5840  -13.5570   19.6740 N   0  0  0  0  0  0  0  0  0  0  0  0
  -32.2260  -14.8510   18.7640 O   0  0  0  0  0  0  0  0  0  0  0  0
  -31.0700  -15.5990   20.5380 N   0  0  0  0  0  0  0  0  0  0  0  0
  -30.3150  -15.3860   21.1740 H   0  0  0  0  0  0  0  0  0  0  0  0
  -25.9160  -14.0620   20.1770 C   0  0  0  0  0  0  0  0  0  0  0  0
  -24.8180  -13.3730   20.6160 C   0  0  0  0  0  0  0  0  0  0  0  0
  -25.1500  -11.9870   20.5050 C   0  0  0  0  0  0  0  0  0  0  0  0
  -26.8550  -13.1010   19.8310 N   0  0  0  0  0  0  0  0  0  0  0  0
  -26.4000  -11.8460   20.0820 N   0  0  0  0  0  0  0  0  0  0  0  0
  -24.3300  -10.7880   20.7210 C   0  0  0  0  0  0  0  0  0  0  0  0
  -24.7100   -9.7910   21.6460 C   0  0  0  0  0  3  0  0  0  0  0  0
  -23.8970   -8.6550   21.8500 C   0  0  0  0  0  3  0  0  0  0  0  0
  -22.6880   -8.5100   21.1290 C   0  0  0  0  0  0  0  0  0  0  0  0
  -22.3260   -9.4940   20.1930 C   0  0  0  0  0  3  0  0  0  0  0  0
  -23.1390  -10.6210   19.9880 C   0  0  0  0  0  3  0  0  0  0  0  0
  -21.8480   -7.4280   21.2430 O   0  0  0  0  0  0  0  0  0  0  0  0
  -21.7240   -6.7330   22.4180 C   0  0  0  0  0  0  0  0  0  0  0  0
  -21.3200   -7.3610   23.6170 C   0  0  0  0  0  3  0  0  0  0  0  0
  -21.1380   -6.5950   24.7860 C   0  0  0  0  0  3  0  0  0  0  0  0
  -21.3530   -5.2050   24.7580 C   0  0  0  0  0  0  0  0  0  0  0  0
  -21.7510   -4.5770   23.5650 C   0  0  0  0  0  3  0  0  0  0  0  0
  -21.9330   -5.3400   22.3980 C   0  0  0  0  0  0  0  0  0  0  0  0
  -22.2970   -4.7270   21.2450 F   0  0  0  0  0  0  0  0  0  0  0  0
  -21.1710   -4.4670   25.8790 F   0  0  0  0  0  0  0  0  0  0  0  0
  -23.4990  -13.9610   21.0280 C   0  0  0  0  0  0  0  0  0  0  0  0
  -22.8000  -13.3100   21.9510 N   0  0  0  0  0  0  0  0  0  0  0  0
  -23.1020  -15.0290   20.5640 O   0  0  0  0  0  0  0  0  0  0  0  0
  -23.1350  -12.4460   22.3490 H   0  0  0  0  0  0  0  0  0  0  0  0
  -21.9160  -13.6850   22.2680 H   0  0  0  0  0  0  0  0  0  0  0  0
  -26.1900  -15.4180   20.0270 N   0  0  0  0  0  0  0  0  0  0  0  0
  -25.5030  -16.1370   20.2260 H   0  0  0  0  0  0  0  0  0  0  0  0
  -27.0590  -15.7920   19.6640 H   0  0  0  0  0  0  0  0  0  0  0  0
  -27.7120  -25.4640   21.8000 C   0  0  0  0  0  2  0  0  0  0  0  0
  -28.8270  -25.9670   20.8590 C   0  0  0  0  0  2  0  0  0  0  0  0
  -28.4420  -26.0390   19.3630 C   0  0  0  0  0  2  0  0  0  0  0  0
  -28.2810  -27.3900   18.9500 O   0  0  0  0  0  0  0  0  0  0  0  0
  -24.5990  -31.8370   23.0730 C   0  0  0  0  0  0  0  0  0  0  0  0
  -27.0670  -27.9770   19.2010 C   0  0  0  0  0  0  0  0  0  0  0  0
  -23.2730  -30.5780   21.4050 C   0  0  0  0  0  3  0  0  0  0  0  0
  -24.6220  -29.3040   19.6570 C   0  0  0  0  0  0  0  0  0  0  0  0
  -25.7380  -31.1070   20.9830 C   0  0  0  0  0  2  0  0  0  0  0  0
  -25.8100  -29.8280   20.1760 C   0  0  0  0  0  0  0  0  0  0  0  0
  -27.0360  -29.1710   19.9480 C   0  0  0  0  0  3  0  0  0  0  0  0
  -25.8630  -27.4490   18.6870 C   0  0  0  0  0  3  0  0  0  0  0  0
  -24.6390  -28.1090   18.9110 C   0  0  0  0  0  3  0  0  0  0  0  0
  -23.3540  -30.0790   19.9370 C   0  0  0  0  0  2  0  0  0  0  0  0
  -24.5610  -31.1820   21.8790 N   0  0  0  0  0  0  0  0  0  0  0  0
  -23.5770  -31.9810   23.7570 O   0  0  0  0  0  0  0  0  0  0  0  0
  -22.7790  -29.4140   22.2930 C   0  0  0  0  0  0  0  0  0  0  0  0
  -21.4660  -29.1390   22.2410 N   0  0  0  0  0  0  0  0  0  0  0  0
  -23.5690  -28.7670   22.9840 O   0  0  0  0  0  0  0  0  0  0  0  0
  -20.8830  -29.7220   21.6550 H   0  0  0  0  0  0  0  0  0  0  0  0
  -18.2500  -27.5710   22.7500 C   0  0  0  0  0  0  0  0  0  0  0  0
  -20.7800  -28.0650   22.9590 C   0  0  0  0  0  3  0  0  0  0  0  0
  -21.0000  -26.7010   22.2620 C   0  0  0  0  0  2  0  0  0  0  0  0
  -19.8940  -26.3490   21.2630 C   0  0  0  0  0  2  0  0  0  0  0  0
  -18.5320  -26.3030   21.9630 C   0  0  0  0  0  2  0  0  0  0  0  0
  -19.3060  -28.4070   23.2030 C   0  0  0  0  0  0  0  0  0  0  0  0
  -18.9870  -29.5930   23.9000 C   0  0  0  0  0  3  0  0  0  0  0  0
  -17.6470  -29.9450   24.1470 C   0  0  0  0  0  3  0  0  0  0  0  0
  -16.6070  -29.1060   23.7120 C   0  0  0  0  0  3  0  0  0  0  0  0
  -16.9110  -27.9210   23.0180 C   0  0  0  0  0  3  0  0  0  0  0  0
  -25.9210  -32.4550   23.6260 C   0  0  0  0  0  3  0  0  0  0  0  0
  -26.5890  -31.5820   24.7580 C   0  0  1  0  0  0  0  0  0  0  0  0
  -25.6240  -31.2020   25.9050 C   0  0  0  0  0  1  0  0  0  0  0  0
  -27.1600  -30.2720   24.1650 C   0  0  0  0  0  1  0  0  0  0  0  0
  -27.7840  -32.3480   25.3730 C   0  0  0  0  0  1  0  0  0  0  0  0
  -25.6060  -33.8000   24.1240 N   0  0  0  0  0  0  0  0  0  0  0  0
  -25.8460  -34.9350   23.4510 C   0  0  0  0  0  0  0  0  0  0  0  0
  -26.4290  -34.9580   22.3630 O   0  0  0  0  0  0  0  0  0  0  0  0
  -25.0800  -33.8540   24.9840 H   0  0  0  0  0  0  0  0  0  0  0  0
  -24.0510  -36.6940   23.4150 C   0  0  0  0  0  1  0  0  0  0  0  0
  -25.3620  -36.2520   24.0840 C   0  0  0  0  0  3  0  0  0  0  0  0
  -27.5350  -37.1170   24.8310 C   0  0  0  0  0  1  0  0  0  0  0  0
  -26.3550  -37.3440   24.0000 N   0  0  0  0  0  0  0  0  0  0  0  0
  -25.9410  -38.2320   24.2740 H   0  0  0  0  0  0  0  0  0  0  0  0
  1  3  1  0
  2  1  2  0
  4  6  1  0
  5  2  1  0
  5  4  2  0
  6  3  2  0
  6 52  1  0
  7  5  1  0
  8  7  2  0
  9  7  1  0
 10  9  1  0
 10 11  1  0
 12 11  1  0
 12 13  1  0
 14 20  1  0
 14 22  1  0
 15 20  1  0
 16 17  1  0
 16 15  1  0
 18 17  1  0
 18 27  1  0
 18 19  1  0
 20 19  1  0
 21 14  2  0
 22 13  1  0
 22 23  1  0
 24 25  2  0
 25 44  1  0
 26 25  1  0
 26 29  1  0
 27 28  1  0
 27 24  1  0
 28 26  2  0
 29 30  1  0
 30 31  2  0
 32 35  1  0
 32 31  1  0
 33 32  2  0
 34 33  1  0
 34 29  2  0
 35 36  1  0
 36 37  1  0
 37 38  2  0
 39 38  1  0
 39 43  1  0
 40 39  2  0
 41 36  2  0
 41 40  1  0
 42 41  1  0
 44 45  1  0
 45 48  1  0
 45 47  1  0
 46 44  2  0
 49 24  1  0
 49 50  1  0
 51 49  1  0
 53 52  1  0
 54 53  1  0
 55 57  1  0
 55 54  1  0
 56 67  2  0
 57 62  1  0
 58 66  1  0
 58 68  1  0
 59 65  1  0
 59 61  1  0
 60 66  1  0
 61 60  1  0
 62 61  2  0
 63 64  1  0
 63 57  2  0
 64 59  2  0
 65 58  1  0
 66 56  1  0
 68 70  2  0
 69 68  1  0
 71 69  1  0
 72 81  2  0
 72 77  1  0
 73 69  1  0
 73 77  1  0
 74 73  1  0
 75 76  1  0
 75 74  1  0
 76 72  1  0
 77 78  2  0
 78 79  1  0
 80 79  2  0
 81 80  1  0
 82 56  1  0
 82 87  1  0
 82 83  1  0
 83 86  1  1
 83 84  1  0
 85 83  1  0
 87 90  1  0
 88 92  1  0
 88 87  1  0
 89 88  2  0
 92 91  1  0
 94 92  1  0
 94 95  1  0
 94 93  1  0
M  ISO  4  14 100  22 100  54 101  55 101
M  END
>  <TORSDO>  (28) 
F 25

>  <SCORE>  (28) 
-9.281

>  <name>  (28) 
27

>  <ligand_id>  (28) 
27

>  <original_smiles>  (28) 
[H]c1c([H])c(C(=O)C([H])([H])C([H])([H])C([H])([H])C([H])([H])C([H])([H])N([H])C(=O)N2C([H])([H])C([H])([H])C([H])([H])C([H])(n3nc(-c4c([H])c([H])c(Oc5c([H])c([H])c(F)c([H])c5F)c([H])c4[H])c(C(=O)N([H])[H])c3N([H])[H])C2([H])[H])c([H])c(C([H])([H])C([H])([H])C([H])([H])Oc2c([H])c([H])c3c(c2[H])C([H])([H])N(C(=O)C([H])(N([H])C(=O)C([H])(N([H])C([H])([H])[H])C([H])([H])[H])C(C([H])([H])[H])(C([H])([H])[H])C([H])([H])[H])C([H])(C(=O)N([H])C2([H])c4c([H])c([H])c([H])c([H])c4C([H])([H])C([H])([H])C2([H])[H])C3([H])[H])c1[H]

>  <smiles>  (28) 
[H]c1c([H])c(C(=O)C([H])([H])C([H])([H])C([H])([H])C([H])([H])C([H])([H])N([H])C(=O)N2C([H])([H])C([H])([H])C([H])([H])C([H])(n3nc(-c4c([H])c([H])c(Oc5c([H])c([H])c(F)c([H])c5F)c([H])c4[H])c(C(=O)N([H])[H])c3N([H])[H])C2([H])[H])c([H])c(C([H])([H])C([H])([H])C([H])([H])Oc2c([H])c([H])c3c(c2[H])C([H])([H])N(C(=O)C([H])(N([H])C(=O)C([H])(N([H])C([H])([H])[H])C([H])([H])[H])C(C([H])([H])[H])(C([H])([H])[H])C([H])([H])[H])C([H])(C(=O)N([H])C2([H])c4c([H])c([H])c([H])c([H])c4C([H])([H])C([H])([H])C2([H])[H])C3([H])[H])c1[H]

$$$$
28:0:0
     RDKit          3D

 97105  0  0  1  0  0  0  0  0999 V2000
  -27.4300  -22.2140   20.1800 C   0  0  0  0  0  3  0  0  0  0  0  0
  -27.8470  -20.9910   19.6470 C   0  0  0  0  0  3  0  0  0  0  0  0
  -26.3460  -22.9340   19.6250 C   0  0  0  0  0  0  0  0  0  0  0  0
  -27.1840  -20.4360   18.5410 C   0  0  0  0  0  0  0  0  0  0  0  0
  -25.7030  -22.4020   18.4530 C   0  0  0  0  0  0  0  0  0  0  0  0
  -26.1240  -21.1440   17.9280 C   0  0  0  0  0  0  0  0  0  0  0  0
  -24.5800  -23.1270   17.7000 C   0  0  0  0  0  1  0  0  0  0  0  0
  -25.4760  -20.5860   16.8560 O   0  0  0  0  0  0  0  0  0  0  0  0
  -24.7490  -21.0930   16.5120 H   0  0  0  0  0  0  0  0  0  0  0  0
  -27.6610  -19.1180   18.0620 C   0  0  0  0  0  0  0  0  0  0  0  0
  -27.9360  -18.8370   16.8890 O   0  0  0  0  0  0  0  0  0  0  0  0
  -27.7810  -18.0380   19.1250 C   0  0  0  0  0  2  0  0  0  0  0  0
  -29.1240  -17.3170   19.0620 C   0  0  0  0  0  2  0  0  0  0  0  0
  -29.4830  -16.5500   20.3440 C   0  0  0  0  0  2  0  0  0  0  0  0
  -31.1890  -14.6430   20.5160 C   0  0  0  0  0  0  0  0  0  0  0  0
  -30.8240  -12.3980   19.6220 C   0  0  0  0  0  2  0  0  0  0  0  0
  -29.9770  -12.4910   18.3500 C   0  0  0  0  0  2  0  0  0  0  0  0
  -28.4810  -12.3950   18.7010 C   0  0  0  0  0  2  0  0  0  0  0  0
  -28.0680  -13.3690   19.8430 C   0  0  0  0  0  3  0  0  0  0  0  0
  -29.0690  -13.3290   21.0210 C   0  0  0  0  0  2  0  0  0  0  0  0
  -30.4180  -13.5240   20.4680 N   0  0  0  0  0  0  0  0  0  0  0  0
  -32.4090  -14.6260   20.3740 O   0  0  0  0  0  0  0  0  0  0  0  0
  -30.6510  -15.7580   20.0230 N   0  0  0  0  0  0  0  0  0  0  0  0
  -31.3770  -16.3200   19.5990 H   0  0  0  0  0  0  0  0  0  0  0  0
  -25.6680  -14.0500   20.4960 C   0  0  0  0  0  0  0  0  0  0  0  0
  -24.5560  -13.3170   20.8060 C   0  0  0  0  0  0  0  0  0  0  0  0
  -24.9710  -11.9490   20.7570 C   0  0  0  0  0  0  0  0  0  0  0  0
  -26.6910  -13.1360   20.2780 N   0  0  0  0  0  0  0  0  0  0  0  0
  -26.2720  -11.8630   20.5050 N   0  0  0  0  0  0  0  0  0  0  0  0
  -24.1900  -10.7190   20.8930 C   0  0  0  0  0  0  0  0  0  0  0  0
  -24.5400   -9.7200   21.8310 C   0  0  0  0  0  3  0  0  0  0  0  0
  -23.7650   -8.5450   21.9490 C   0  0  0  0  0  3  0  0  0  0  0  0
  -22.6160   -8.3790   21.1390 C   0  0  0  0  0  0  0  0  0  0  0  0
  -22.2860   -9.3590   20.1900 C   0  0  0  0  0  3  0  0  0  0  0  0
  -23.0600  -10.5260   20.0720 C   0  0  0  0  0  3  0  0  0  0  0  0
  -21.8080   -7.2690   21.1750 O   0  0  0  0  0  0  0  0  0  0  0  0
  -21.6490   -6.5330   22.3170 C   0  0  0  0  0  0  0  0  0  0  0  0
  -21.1310   -7.1020   23.5030 C   0  0  0  0  0  3  0  0  0  0  0  0
  -20.9150   -6.2890   24.6340 C   0  0  0  0  0  3  0  0  0  0  0  0
  -21.2150   -4.9110   24.5840 C   0  0  0  0  0  0  0  0  0  0  0  0
  -21.7280   -4.3500   23.4030 C   0  0  0  0  0  3  0  0  0  0  0  0
  -21.9380   -5.1550   22.2750 C   0  0  0  0  0  0  0  0  0  0  0  0
  -22.4180   -4.6080   21.1340 F   0  0  0  0  0  0  0  0  0  0  0  0
  -20.9950   -4.1250   25.6660 F   0  0  0  0  0  0  0  0  0  0  0  0
  -23.1720  -13.8530   21.0260 C   0  0  0  0  0  0  0  0  0  0  0  0
  -22.3720  -13.1950   21.8620 N   0  0  0  0  0  0  0  0  0  0  0  0
  -22.8050  -14.8990   20.4860 O   0  0  0  0  0  0  0  0  0  0  0  0
  -21.4300  -13.5400   22.0000 H   0  0  0  0  0  0  0  0  0  0  0  0
  -22.6790  -12.3740   22.3600 H   0  0  0  0  0  0  0  0  0  0  0  0
  -25.8890  -15.4110   20.3830 N   0  0  0  0  0  0  0  0  0  0  0  0
  -25.1500  -16.0960   20.5030 H   0  0  0  0  0  0  0  0  0  0  0  0
  -26.7840  -15.8040   20.1280 H   0  0  0  0  0  0  0  0  0  0  0  0
  -25.9160  -24.1690   20.3780 C   0  0  0  0  0  0  0  0  0  0  0  0
  -24.7370  -24.5020   20.5280 O   0  0  0  0  0  0  0  0  0  0  0  0
  -26.9830  -25.0130   21.1250 C   0  0  0  0  0  2  0  0  0  0  0  0
  -28.2210  -25.4830   20.2880 C   0  0  0  0  0  2  0  0  0  0  0  0
  -28.4730  -26.9070   20.2300 O   0  0  0  0  0  0  0  0  0  0  0  0
  -24.6370  -32.0120   23.2810 C   0  0  0  0  0  0  0  0  0  0  0  0
  -27.3600  -27.7030   20.1050 C   0  0  0  0  0  0  0  0  0  0  0  0
  -23.4700  -30.6220   21.5970 C   0  0  0  0  0  3  0  0  0  0  0  0
  -24.9600  -29.1670   20.1280 C   0  0  0  0  0  0  0  0  0  0  0  0
  -25.9870  -31.0340   21.4320 C   0  0  0  0  0  2  0  0  0  0  0  0
  -26.1020  -29.6840   20.7600 C   0  0  0  0  0  0  0  0  0  0  0  0
  -27.3040  -28.9490   20.7670 C   0  0  0  0  0  3  0  0  0  0  0  0
  -26.2370  -27.2520   19.3830 C   0  0  0  0  0  3  0  0  0  0  0  0
  -25.0220  -27.9470   19.4400 C   0  0  0  0  0  3  0  0  0  0  0  0
  -23.7030  -29.9960   20.1970 C   0  0  0  0  0  2  0  0  0  0  0  0
  -24.7140  -31.2390   22.1590 N   0  0  0  0  0  0  0  0  0  0  0  0
  -23.5460  -32.2440   23.8220 O   0  0  0  0  0  0  0  0  0  0  0  0
  -22.8480  -29.5580   22.5260 C   0  0  0  0  0  0  0  0  0  0  0  0
  -21.5310  -29.3380   22.3810 N   0  0  0  0  0  0  0  0  0  0  0  0
  -23.5430  -28.9360   23.3340 O   0  0  0  0  0  0  0  0  0  0  0  0
  -21.0310  -29.8990   21.7050 H   0  0  0  0  0  0  0  0  0  0  0  0
  -18.1810  -28.0730   22.8530 C   0  0  0  0  0  0  0  0  0  0  0  0
  -20.7360  -28.3630   23.1230 C   0  0  0  0  0  3  0  0  0  0  0  0
  -20.8580  -26.9540   22.4980 C   0  0  0  0  0  2  0  0  0  0  0  0
  -19.7550  -26.6470   21.4790 C   0  0  0  0  0  2  0  0  0  0  0  0
  -18.3760  -26.7490   22.1330 C   0  0  0  0  0  2  0  0  0  0  0  0
  -19.2890  -28.8370   23.3050 C   0  0  0  0  0  0  0  0  0  0  0  0
  -19.0540  -30.0790   23.9370 C   0  0  0  0  0  3  0  0  0  0  0  0
  -17.7420  -30.5530   24.1230 C   0  0  0  0  0  3  0  0  0  0  0  0
  -16.6480  -29.7850   23.6880 C   0  0  0  0  0  3  0  0  0  0  0  0
  -16.8690  -28.5480   23.0590 C   0  0  0  0  0  3  0  0  0  0  0  0
  -25.9070  -32.6580   23.9190 C   0  0  0  0  0  3  0  0  0  0  0  0
  -25.5750  -34.0520   24.2370 N   0  0  0  0  0  0  0  0  0  0  0  0
  -25.8980  -35.1050   23.4730 C   0  0  0  0  0  0  0  0  0  0  0  0
  -26.5800  -35.0040   22.4490 O   0  0  0  0  0  0  0  0  0  0  0  0
  -24.9690  -34.2030   25.0300 H   0  0  0  0  0  0  0  0  0  0  0  0
  -24.1370  -36.8640   23.1000 C   0  0  0  0  0  1  0  0  0  0  0  0
  -25.3860  -36.4870   23.9160 C   0  0  0  0  0  3  0  0  0  0  0  0
  -27.4990  -37.4260   24.7430 C   0  0  0  0  0  1  0  0  0  0  0  0
  -26.3980  -37.5580   23.7910 N   0  0  0  0  0  0  0  0  0  0  0  0
  -25.9740  -38.4720   23.9210 H   0  0  0  0  0  0  0  0  0  0  0  0
  -26.4100  -31.8970   25.2050 C   0  0  1  0  0  0  0  0  0  0  0  0
  -25.2920  -31.6030   26.2340 C   0  0  0  0  0  1  0  0  0  0  0  0
  -27.0660  -30.5500   24.8240 C   0  0  0  0  0  1  0  0  0  0  0  0
  -27.4960  -32.7330   25.9210 C   0  0  0  0  0  1  0  0  0  0  0  0
  2  1  1  0
  3  1  2  0
  3 53  1  0
  4  2  2  0
  5  3  1  0
  6  5  2  0
  6  4  1  0
  7  5  1  0
  8  6  1  0
  9  8  1  0
 10  4  1  0
 10 12  1  0
 11 10  2  0
 13 12  1  0
 13 14  1  0
 16 21  1  0
 17 18  1  0
 17 16  1  0
 19 18  1  0
 19 28  1  0
 19 20  1  0
 21 15  1  0
 21 20  1  0
 22 15  2  0
 23 14  1  0
 23 15  1  0
 24 23  1  0
 25 26  2  0
 26 45  1  0
 27 26  1  0
 27 30  1  0
 28 25  1  0
 28 29  1  0
 29 27  2  0
 30 31  1  0
 31 32  2  0
 33 36  1  0
 33 32  1  0
 34 33  2  0
 35 34  1  0
 35 30  2  0
 36 37  1  0
 37 38  1  0
 38 39  2  0
 40 39  1  0
 40 44  1  0
 41 40  2  0
 42 37  2  0
 42 41  1  0
 43 42  1  0
 45 46  1  0
 46 48  1  0
 46 49  1  0
 47 45  2  0
 50 25  1  0
 50 51  1  0
 52 50  1  0
 53 54  2  0
 53 55  1  0
 56 55  1  0
 57 56  1  0
 58 69  2  0
 59 57  1  0
 59 64  1  0
 60 68  1  0
 60 70  1  0
 61 67  1  0
 61 63  1  0
 62 68  1  0
 63 64  2  0
 63 62  1  0
 65 66  1  0
 65 59  2  0
 66 61  2  0
 67 60  1  0
 68 58  1  0
 70 72  2  0
 71 70  1  0
 73 71  1  0
 74 83  2  0
 74 79  1  0
 75 71  1  0
 75 79  1  0
 76 75  1  0
 77 78  1  0
 77 76  1  0
 78 74  1  0
 79 80  2  0
 80 81  1  0
 82 81  2  0
 83 82  1  0
 84 58  1  0
 84 85  1  0
 84 94  1  0
 85 88  1  0
 86 90  1  0
 86 85  1  0
 87 86  2  0
 90 89  1  0
 92 90  1  0
 92 93  1  0
 92 91  1  0
 94 97  1  1
 94 95  1  0
 96 94  1  0
M  ISO  4  15 100  23 100  56 101  57 101
M  END
>  <TORSDO>  (29) 
F 24

>  <SCORE>  (29) 
-12.935

>  <name>  (29) 
28

>  <ligand_id>  (29) 
28

>  <original_smiles>  (29) 
[H]Oc1c(C(=O)C([H])([H])C([H])([H])C([H])([H])N([H])C(=O)N2C([H])([H])C([H])([H])C([H])([H])C([H])(n3nc(-c4c([H])c([H])c(Oc5c([H])c([H])c(F)c([H])c5F)c([H])c4[H])c(C(=O)N([H])[H])c3N([H])[H])C2([H])[H])c([H])c([H])c(C(=O)C([H])([H])C([H])([H])Oc2c([H])c([H])c3c(c2[H])C([H])([H])N(C(=O)C([H])(N([H])C(=O)C([H])(N([H])C([H])([H])[H])C([H])([H])[H])C(C([H])([H])[H])(C([H])([H])[H])C([H])([H])[H])C([H])(C(=O)N([H])C2([H])c4c([H])c([H])c([H])c([H])c4C([H])([H])C([H])([H])C2([H])[H])C3([H])[H])c1C([H])([H])[H]

>  <smiles>  (29) 
[H]Oc1c(C(=O)C([H])([H])C([H])([H])C([H])([H])N([H])C(=O)N2C([H])([H])C([H])([H])C([H])([H])C([H])(n3nc(-c4c([H])c([H])c(Oc5c([H])c([H])c(F)c([H])c5F)c([H])c4[H])c(C(=O)N([H])[H])c3N([H])[H])C2([H])[H])c([H])c([H])c(C(=O)C([H])([H])C([H])([H])Oc2c([H])c([H])c3c(c2[H])C([H])([H])N(C(=O)C([H])(N([H])C(=O)C([H])(N([H])C([H])([H])[H])C([H])([H])[H])C(C([H])([H])[H])(C([H])([H])[H])C([H])([H])[H])C([H])(C(=O)N([H])C2([H])c4c([H])c([H])c([H])c([H])c4C([H])([H])C([H])([H])C2([H])[H])C3([H])[H])c1C([H])([H])[H]

$$$$
29:0:0
     RDKit          3D

 92100  0  0  1  0  0  0  0  0999 V2000
  -31.1170  -22.6990   20.5830 C   0  0  0  0  0  3  0  0  0  0  0  0
  -30.0170  -22.4470   22.7340 C   0  0  0  0  0  3  0  0  0  0  0  0
  -30.7770  -24.0720   20.5680 C   0  0  0  0  0  3  0  0  0  0  0  0
  -29.6780  -23.8190   22.7170 C   0  0  0  0  0  3  0  0  0  0  0  0
  -30.7660  -21.8780   21.6800 C   0  0  0  0  0  0  0  0  0  0  0  0
  -30.0760  -24.6570   21.6500 C   0  0  0  0  0  0  0  0  0  0  0  0
  -31.1010  -26.7890   22.4690 C   0  0  0  0  0  1  0  0  0  0  0  0
  -29.8700  -26.1780   21.7810 C   0  0  0  0  0  3  0  0  0  0  0  0
  -29.5490  -26.9640   20.4780 C   0  0  0  0  0  2  0  0  0  0  0  0
  -28.2750  -26.6350   19.9260 O   0  0  0  0  0  0  0  0  0  0  0  0
  -24.5430  -31.8780   23.1730 C   0  0  0  0  0  0  0  0  0  0  0  0
  -27.1690  -27.4610   20.0430 C   0  0  0  0  0  0  0  0  0  0  0  0
  -23.3170  -30.4840   21.5370 C   0  0  0  0  0  3  0  0  0  0  0  0
  -24.7580  -28.9580   20.0910 C   0  0  0  0  0  0  0  0  0  0  0  0
  -25.8380  -30.8490   21.3120 C   0  0  0  0  0  2  0  0  0  0  0  0
  -25.9190  -29.4790   20.6750 C   0  0  0  0  0  0  0  0  0  0  0  0
  -27.1250  -28.7370   20.6620 C   0  0  0  0  0  3  0  0  0  0  0  0
  -25.9860  -26.9580   19.4630 C   0  0  0  0  0  3  0  0  0  0  0  0
  -24.7850  -27.6910   19.4840 C   0  0  0  0  0  3  0  0  0  0  0  0
  -23.5100  -29.8090   20.1520 C   0  0  0  0  0  2  0  0  0  0  0  0
  -24.5830  -31.0830   22.0660 N   0  0  0  0  0  0  0  0  0  0  0  0
  -23.4690  -32.1490   23.7270 O   0  0  0  0  0  0  0  0  0  0  0  0
  -22.6750  -29.4610   22.5010 C   0  0  0  0  0  0  0  0  0  0  0  0
  -21.3460  -29.2920   22.3960 N   0  0  0  0  0  0  0  0  0  0  0  0
  -23.3690  -28.8240   23.2990 O   0  0  0  0  0  0  0  0  0  0  0  0
  -20.8490  -29.8540   21.7190 H   0  0  0  0  0  0  0  0  0  0  0  0
  -17.9730  -28.1210   22.9370 C   0  0  0  0  0  0  0  0  0  0  0  0
  -20.5370  -28.3540   23.1720 C   0  0  0  0  0  3  0  0  0  0  0  0
  -20.6180  -26.9270   22.5790 C   0  0  0  0  0  2  0  0  0  0  0  0
  -19.4970  -26.6270   21.5800 C   0  0  0  0  0  2  0  0  0  0  0  0
  -18.1270  -26.7770   22.2470 C   0  0  0  0  0  2  0  0  0  0  0  0
  -19.1040  -28.8710   23.3580 C   0  0  0  0  0  0  0  0  0  0  0  0
  -18.9040  -30.1310   23.9600 C   0  0  0  0  0  3  0  0  0  0  0  0
  -17.6060  -30.6410   24.1500 C   0  0  0  0  0  3  0  0  0  0  0  0
  -16.4900  -29.8870   23.7470 C   0  0  0  0  0  3  0  0  0  0  0  0
  -16.6750  -28.6310   23.1450 C   0  0  0  0  0  3  0  0  0  0  0  0
  -25.8390  -32.5000   23.7790 C   0  0  0  0  0  3  0  0  0  0  0  0
  -25.5340  -33.8930   24.1330 N   0  0  0  0  0  0  0  0  0  0  0  0
  -25.8700  -34.9560   23.3910 C   0  0  0  0  0  0  0  0  0  0  0  0
  -26.5370  -34.8670   22.3550 O   0  0  0  0  0  0  0  0  0  0  0  0
  -24.9350  -34.0360   24.9330 H   0  0  0  0  0  0  0  0  0  0  0  0
  -24.1550  -36.7640   23.0620 C   0  0  0  0  0  1  0  0  0  0  0  0
  -25.3900  -36.3370   23.8700 C   0  0  0  0  0  3  0  0  0  0  0  0
  -27.5250  -37.1940   24.7290 C   0  0  0  0  0  1  0  0  0  0  0  0
  -26.4290  -37.3860   23.7830 N   0  0  0  0  0  0  0  0  0  0  0  0
  -26.0260  -38.3040   23.9430 H   0  0  0  0  0  0  0  0  0  0  0  0
  -26.3830  -31.7100   25.0330 C   0  0  1  0  0  0  0  0  0  0  0  0
  -25.3090  -31.4570   26.1150 C   0  0  0  0  0  1  0  0  0  0  0  0
  -26.9570  -30.3380   24.6070 C   0  0  0  0  0  1  0  0  0  0  0  0
  -27.5460  -32.4960   25.6820 C   0  0  0  0  0  1  0  0  0  0  0  0
  -31.2670  -20.4330   21.7800 C   0  0  0  0  0  2  0  0  0  0  0  0
  -30.2240  -19.3480   21.4290 C   0  0  0  0  0  2  0  0  0  0  0  0
  -30.7380  -17.8860   21.5770 C   0  0  0  0  0  2  0  0  0  0  0  0
  -29.9010  -16.8870   20.7430 C   0  0  0  0  0  2  0  0  0  0  0  0
  -30.7290  -14.5230   20.5270 C   0  0  0  0  0  0  0  0  0  0  0  0
  -30.4970  -12.3680   19.3480 C   0  0  0  0  0  2  0  0  0  0  0  0
  -29.5680  -12.5760   18.1320 C   0  0  0  0  0  2  0  0  0  0  0  0
  -28.0810  -12.4470   18.5240 C   0  0  0  0  0  2  0  0  0  0  0  0
  -27.7260  -13.2640   19.7970 C   0  0  0  0  0  3  0  0  0  0  0  0
  -28.7580  -12.9980   20.9160 C   0  0  0  0  0  2  0  0  0  0  0  0
  -30.0980  -13.3260   20.3910 N   0  0  0  0  0  0  0  0  0  0  0  0
  -31.8170  -14.7810   20.0010 O   0  0  0  0  0  0  0  0  0  0  0  0
  -29.9920  -15.4730   21.1300 N   0  0  0  0  0  0  0  0  0  0  0  0
  -29.1670  -15.1080   21.5850 H   0  0  0  0  0  0  0  0  0  0  0  0
  -25.3070  -13.8790   20.4420 C   0  0  0  0  0  0  0  0  0  0  0  0
  -24.2330  -13.1100   20.8000 C   0  0  0  0  0  0  0  0  0  0  0  0
  -24.6980  -11.7590   20.7980 C   0  0  0  0  0  0  0  0  0  0  0  0
  -26.3600  -12.9960   20.2450 N   0  0  0  0  0  0  0  0  0  0  0  0
  -25.9930  -11.7170   20.5140 N   0  0  0  0  0  0  0  0  0  0  0  0
  -23.9720  -10.4980   20.9940 C   0  0  0  0  0  0  0  0  0  0  0  0
  -24.3920   -9.5450   21.9490 C   0  0  0  0  0  3  0  0  0  0  0  0
  -23.6670   -8.3480   22.1330 C   0  0  0  0  0  3  0  0  0  0  0  0
  -22.5080   -8.0960   21.3610 C   0  0  0  0  0  0  0  0  0  0  0  0
  -22.1070   -9.0370   20.3970 C   0  0  0  0  0  3  0  0  0  0  0  0
  -22.8320  -10.2260   20.2100 C   0  0  0  0  0  3  0  0  0  0  0  0
  -21.7560   -6.9490   21.4530 O   0  0  0  0  0  0  0  0  0  0  0  0
  -21.6890   -6.2220   22.6140 C   0  0  0  0  0  0  0  0  0  0  0  0
  -21.2350   -6.7900   23.8250 C   0  0  0  0  0  3  0  0  0  0  0  0
  -21.1130   -5.9890   24.9780 C   0  0  0  0  0  3  0  0  0  0  0  0
  -21.4380   -4.6200   24.9220 C   0  0  0  0  0  0  0  0  0  0  0  0
  -21.8840   -4.0510   23.7180 C   0  0  0  0  0  3  0  0  0  0  0  0
  -22.0060   -4.8490   22.5670 C   0  0  0  0  0  0  0  0  0  0  0  0
  -22.4160   -4.2900   21.4030 F   0  0  0  0  0  0  0  0  0  0  0  0
  -21.3150   -3.8500   26.0280 F   0  0  0  0  0  0  0  0  0  0  0  0
  -22.8290  -13.5870   21.0380 C   0  0  0  0  0  0  0  0  0  0  0  0
  -22.0830  -12.9050   21.9010 N   0  0  0  0  0  0  0  0  0  0  0  0
  -22.3970  -14.6040   20.4950 O   0  0  0  0  0  0  0  0  0  0  0  0
  -22.4400  -12.0860   22.3710 H   0  0  0  0  0  0  0  0  0  0  0  0
  -21.1400  -13.2100   22.0980 H   0  0  0  0  0  0  0  0  0  0  0  0
  -25.4730  -15.2470   20.2450 N   0  0  0  0  0  0  0  0  0  0  0  0
  -24.7100  -15.9080   20.3300 H   0  0  0  0  0  0  0  0  0  0  0  0
  -26.3290  -15.6800   19.9220 H   0  0  0  0  0  0  0  0  0  0  0  0
  1  5  1  0
  3  1  2  0
  3  6  1  0
  4  2  1  0
  5 51  1  0
  5  2  2  0
  6  8  1  0
  6  4  2  0
  8  7  1  0
  9  8  1  0
 10 12  1  0
 10  9  1  0
 11 22  2  0
 12 17  1  0
 13 21  1  0
 13 23  1  0
 14 20  1  0
 14 16  1  0
 15 21  1  0
 16 15  1  0
 17 16  2  0
 18 19  1  0
 18 12  2  0
 19 14  2  0
 20 13  1  0
 21 11  1  0
 23 25  2  0
 24 23  1  0
 26 24  1  0
 27 36  2  0
 27 32  1  0
 28 24  1  0
 28 32  1  0
 29 28  1  0
 30 31  1  0
 30 29  1  0
 31 27  1  0
 32 33  2  0
 33 34  1  0
 35 34  2  0
 36 35  1  0
 37 11  1  0
 37 38  1  0
 37 47  1  0
 38 41  1  0
 39 43  1  0
 39 38  1  0
 40 39  2  0
 43 42  1  0
 45 43  1  0
 45 46  1  0
 45 44  1  0
 47 50  1  1
 47 48  1  0
 49 47  1  0
 52 53  1  0
 52 51  1  0
 54 63  1  0
 54 53  1  0
 55 63  1  0
 56 61  1  0
 57 58  1  0
 57 56  1  0
 59 58  1  0
 59 68  1  0
 59 60  1  0
 61 55  1  0
 61 60  1  0
 62 55  2  0
 63 64  1  0
 65 66  2  0
 66 85  1  0
 67 66  1  0
 67 70  1  0
 68 65  1  0
 68 69  1  0
 69 67  2  0
 70 71  1  0
 71 72  2  0
 73 76  1  0
 73 72  1  0
 74 73  2  0
 75 74  1  0
 75 70  2  0
 76 77  1  0
 77 78  1  0
 78 79  2  0
 80 79  1  0
 80 84  1  0
 81 80  2  0
 82 77  2  0
 82 81  1  0
 83 82  1  0
 85 86  1  0
 86 89  1  0
 86 88  1  0
 87 85  2  0
 90 91  1  0
 90 65  1  0
 92 90  1  0
M  ISO  4   9 101  10 101  55 100  63 100
M  END
>  <TORSDO>  (30) 
F 22

>  <SCORE>  (30) 
-13.225

>  <name>  (30) 
29

>  <ligand_id>  (30) 
29

>  <original_smiles>  (30) 
[H]c1c([H])c([H])c2c(c1[H])C([H])([H])C([H])([H])C([H])([H])C2([H])N([H])C(=O)C1([H])N(C(=O)C([H])(N([H])C(=O)C([H])(N([H])C([H])([H])[H])C([H])([H])[H])C(C([H])([H])[H])(C([H])([H])[H])C([H])([H])[H])C([H])([H])c2c([H])c(OC([H])([H])C([H])(c3c([H])c([H])c(C([H])([H])C([H])([H])C([H])([H])C([H])([H])N([H])C(=O)N4C([H])([H])C([H])([H])C([H])([H])C([H])(n5nc(-c6c([H])c([H])c(Oc7c([H])c([H])c(F)c([H])c7F)c([H])c6[H])c(C(=O)N([H])[H])c5N([H])[H])C4([H])[H])c([H])c3[H])C([H])([H])[H])c([H])c([H])c2C1([H])[H]

>  <smiles>  (30) 
[H]c1c([H])c([H])c2c(c1[H])C([H])([H])C([H])([H])C([H])([H])C2([H])N([H])C(=O)C1([H])N(C(=O)C([H])(N([H])C(=O)C([H])(N([H])C([H])([H])[H])C([H])([H])[H])C(C([H])([H])[H])(C([H])([H])[H])C([H])([H])[H])C([H])([H])c2c([H])c(OC([H])([H])C([H])(c3c([H])c([H])c(C([H])([H])C([H])([H])C([H])([H])C([H])([H])N([H])C(=O)N4C([H])([H])C([H])([H])C([H])([H])C([H])(n5nc(-c6c([H])c([H])c(Oc7c([H])c([H])c(F)c([H])c7F)c([H])c6[H])c(C(=O)N([H])[H])c5N([H])[H])C4([H])[H])c([H])c3[H])C([H])([H])[H])c([H])c([H])c2C1([H])[H]

$$$$
30:0:0
     RDKit          3D

 96104  0  0  1  0  0  0  0  0999 V2000
  -25.2030  -23.1980   19.9340 C   0  0  0  0  0  3  0  0  0  0  0  0
  -25.7640  -24.1240   20.8340 C   0  0  0  0  0  3  0  0  0  0  0  0
  -27.4070  -22.2490   19.5670 C   0  0  0  0  0  3  0  0  0  0  0  0
  -26.0250  -22.2640   19.2740 C   0  0  0  0  0  0  0  0  0  0  0  0
  -27.1550  -24.1580   21.0690 C   0  0  0  0  0  0  0  0  0  0  0  0
  -27.9740  -23.1910   20.4450 C   0  0  0  0  0  0  0  0  0  0  0  0
  -29.3160  -23.1490   20.6700 O   0  0  0  0  0  0  0  0  0  0  0  0
  -29.7600  -22.5570   20.0730 H   0  0  0  0  0  0  0  0  0  0  0  0
  -27.7350  -25.2220   22.0010 C   0  0  0  0  0  2  0  0  0  0  0  0
  -28.7750  -26.1840   21.3690 C   0  0  0  0  0  2  0  0  0  0  0  0
  -28.3770  -26.8030   20.1490 O   0  0  0  0  0  0  0  0  0  0  0  0
  -24.5660  -31.9390   23.3420 C   0  0  0  0  0  0  0  0  0  0  0  0
  -27.2370  -27.5560   20.2180 C   0  0  0  0  0  0  0  0  0  0  0  0
  -23.3740  -30.5460   21.6830 C   0  0  0  0  0  3  0  0  0  0  0  0
  -24.8390  -29.0270   20.2530 C   0  0  0  0  0  0  0  0  0  0  0  0
  -25.8970  -30.9110   21.5070 C   0  0  0  0  0  2  0  0  0  0  0  0
  -25.9890  -29.5460   20.8640 C   0  0  0  0  0  0  0  0  0  0  0  0
  -27.1930  -28.8100   20.8610 C   0  0  0  0  0  3  0  0  0  0  0  0
  -26.0850  -27.0570   19.5830 C   0  0  0  0  0  3  0  0  0  0  0  0
  -24.8780  -27.7740   19.6150 C   0  0  0  0  0  3  0  0  0  0  0  0
  -23.5910  -29.8760   20.3000 C   0  0  0  0  0  2  0  0  0  0  0  0
  -24.6310  -31.1430   22.2380 N   0  0  0  0  0  0  0  0  0  0  0  0
  -23.4800  -32.2050   23.8760 O   0  0  0  0  0  0  0  0  0  0  0  0
  -22.7260  -29.5120   22.6300 C   0  0  0  0  0  0  0  0  0  0  0  0
  -21.4090  -29.3080   22.4810 N   0  0  0  0  0  0  0  0  0  0  0  0
  -23.4090  -28.9010   23.4560 O   0  0  0  0  0  0  0  0  0  0  0  0
  -20.9240  -29.8570   21.7840 H   0  0  0  0  0  0  0  0  0  0  0  0
  -18.0440  -28.0800   22.9350 C   0  0  0  0  0  0  0  0  0  0  0  0
  -20.5960  -28.3580   23.2360 C   0  0  0  0  0  3  0  0  0  0  0  0
  -20.7150  -26.9330   22.6470 C   0  0  0  0  0  2  0  0  0  0  0  0
  -19.6250  -26.6070   21.6210 C   0  0  0  0  0  2  0  0  0  0  0  0
  -18.2360  -26.7370   22.2520 C   0  0  0  0  0  2  0  0  0  0  0  0
  -19.1510  -28.8490   23.3830 C   0  0  0  0  0  0  0  0  0  0  0  0
  -18.9160  -30.1070   23.9800 C   0  0  0  0  0  3  0  0  0  0  0  0
  -17.6050  -30.5970   24.1330 C   0  0  0  0  0  3  0  0  0  0  0  0
  -16.5130  -29.8240   23.7020 C   0  0  0  0  0  3  0  0  0  0  0  0
  -16.7330  -28.5680   23.1090 C   0  0  0  0  0  3  0  0  0  0  0  0
  -25.8470  -32.5690   23.9700 C   0  0  0  0  0  3  0  0  0  0  0  0
  -26.3270  -31.8200   25.2720 C   0  0  1  0  0  0  0  0  0  0  0  0
  -25.2040  -31.6110   26.3140 C   0  0  0  0  0  1  0  0  0  0  0  0
  -26.9080  -30.4330   24.9210 C   0  0  0  0  0  1  0  0  0  0  0  0
  -27.4690  -32.6170   25.9440 C   0  0  0  0  0  1  0  0  0  0  0  0
  -25.5470  -33.9760   24.2580 N   0  0  0  0  0  0  0  0  0  0  0  0
  -25.9150  -35.0070   23.4850 C   0  0  0  0  0  0  0  0  0  0  0  0
  -26.6130  -34.8710   22.4740 O   0  0  0  0  0  0  0  0  0  0  0  0
  -24.9310  -34.1550   25.0370 H   0  0  0  0  0  0  0  0  0  0  0  0
  -24.2250  -36.8080   23.0270 C   0  0  0  0  0  1  0  0  0  0  0  0
  -25.4300  -36.4080   23.8950 C   0  0  0  0  0  3  0  0  0  0  0  0
  -27.5450  -37.2800   24.7840 C   0  0  0  0  0  1  0  0  0  0  0  0
  -26.4800  -37.4470   23.7980 N   0  0  0  0  0  0  0  0  0  0  0  0
  -26.0830  -38.3770   23.9050 H   0  0  0  0  0  0  0  0  0  0  0  0
  -25.4130  -21.3120   18.2500 C   0  0  0  0  0  2  0  0  0  0  0  0
  -26.0160  -19.8930   18.2620 C   0  0  0  0  0  2  0  0  0  0  0  0
  -27.2480  -19.7400   17.3460 C   0  0  0  0  0  2  0  0  0  0  0  0
  -28.0780  -18.4840   17.6380 C   0  0  0  0  0  2  0  0  0  0  0  0
  -28.9020  -18.5450   18.9450 C   0  0  0  0  0  2  0  0  0  0  0  0
  -29.2420  -17.1360   19.4360 C   0  0  0  0  0  2  0  0  0  0  0  0
  -30.0780  -17.0430   20.7320 C   0  0  0  0  0  2  0  0  0  0  0  0
  -30.8610  -14.7010   20.5730 C   0  0  0  0  0  0  0  0  0  0  0  0
  -30.6180  -12.5650   19.3830 C   0  0  0  0  0  2  0  0  0  0  0  0
  -29.7110  -12.8110   18.1580 C   0  0  0  0  0  2  0  0  0  0  0  0
  -28.2210  -12.6640   18.5350 C   0  0  0  0  0  2  0  0  0  0  0  0
  -27.8480  -13.4680   19.8090 C   0  0  0  0  0  3  0  0  0  0  0  0
  -28.8710  -13.2000   20.9410 C   0  0  0  0  0  2  0  0  0  0  0  0
  -30.2220  -13.5120   20.4310 N   0  0  0  0  0  0  0  0  0  0  0  0
  -31.9550  -14.9680   20.0630 O   0  0  0  0  0  0  0  0  0  0  0  0
  -30.1090  -15.6450   21.1470 N   0  0  0  0  0  0  0  0  0  0  0  0
  -29.2760  -15.2970   21.5980 H   0  0  0  0  0  0  0  0  0  0  0  0
  -25.4130  -14.0730   20.4170 C   0  0  0  0  0  0  0  0  0  0  0  0
  -24.3420  -13.2970   20.7660 C   0  0  0  0  0  0  0  0  0  0  0  0
  -24.8210  -11.9500   20.7790 C   0  0  0  0  0  0  0  0  0  0  0  0
  -26.4780  -13.2000   20.2420 N   0  0  0  0  0  0  0  0  0  0  0  0
  -26.1200  -11.9200   20.5120 N   0  0  0  0  0  0  0  0  0  0  0  0
  -24.1070  -10.6840   20.9740 C   0  0  0  0  0  0  0  0  0  0  0  0
  -24.5160   -9.7490   21.9500 C   0  0  0  0  0  3  0  0  0  0  0  0
  -23.8040   -8.5430   22.1300 C   0  0  0  0  0  3  0  0  0  0  0  0
  -22.6690   -8.2630   21.3340 C   0  0  0  0  0  0  0  0  0  0  0  0
  -22.2750   -9.1890   20.3510 C   0  0  0  0  0  3  0  0  0  0  0  0
  -22.9870  -10.3870   20.1700 C   0  0  0  0  0  3  0  0  0  0  0  0
  -21.9320   -7.1070   21.4200 O   0  0  0  0  0  0  0  0  0  0  0  0
  -21.8270   -6.4080   22.5950 C   0  0  0  0  0  0  0  0  0  0  0  0
  -21.3160   -6.9970   23.7710 C   0  0  0  0  0  3  0  0  0  0  0  0
  -21.1590   -6.2220   24.9370 C   0  0  0  0  0  3  0  0  0  0  0  0
  -21.5050   -4.8580   24.9270 C   0  0  0  0  0  0  0  0  0  0  0  0
  -22.0100   -4.2670   23.7550 C   0  0  0  0  0  3  0  0  0  0  0  0
  -22.1670   -5.0390   22.5910 C   0  0  0  0  0  0  0  0  0  0  0  0
  -22.6350   -4.4590   21.4590 F   0  0  0  0  0  0  0  0  0  0  0  0
  -21.3460   -4.1100   26.0450 F   0  0  0  0  0  0  0  0  0  0  0  0
  -22.9310  -13.7610   20.9870 C   0  0  0  0  0  0  0  0  0  0  0  0
  -22.1980  -13.0920   21.8690 N   0  0  0  0  0  0  0  0  0  0  0  0
  -22.4860  -14.7540   20.4130 O   0  0  0  0  0  0  0  0  0  0  0  0
  -22.5680  -12.2830   22.3470 H   0  0  0  0  0  0  0  0  0  0  0  0
  -21.2540  -13.3910   22.0680 H   0  0  0  0  0  0  0  0  0  0  0  0
  -25.5630  -15.4420   20.2140 N   0  0  0  0  0  0  0  0  0  0  0  0
  -24.7810  -16.0830   20.2810 H   0  0  0  0  0  0  0  0  0  0  0  0
  -26.4140  -15.8870   19.9010 H   0  0  0  0  0  0  0  0  0  0  0  0
  1  2  1  0
  2  5  2  0
  3  6  2  0
  4  3  1  0
  4  1  2  0
  5  9  1  0
  6  7  1  0
  6  5  1  0
  8  7  1  0
 10  9  1  0
 11 13  1  0
 11 10  1  0
 12 23  2  0
 13 18  1  0
 14 22  1  0
 14 24  1  0
 15 21  1  0
 15 17  1  0
 16 22  1  0
 17 16  1  0
 18 17  2  0
 19 20  1  0
 19 13  2  0
 20 15  2  0
 21 14  1  0
 22 12  1  0
 24 26  2  0
 25 24  1  0
 27 25  1  0
 28 37  2  0
 28 33  1  0
 29 25  1  0
 29 33  1  0
 30 29  1  0
 31 32  1  0
 31 30  1  0
 32 28  1  0
 33 34  2  0
 34 35  1  0
 36 35  2  0
 37 36  1  0
 38 12  1  0
 38 43  1  0
 38 39  1  0
 39 42  1  1
 39 40  1  0
 41 39  1  0
 43 46  1  0
 44 48  1  0
 44 43  1  0
 45 44  2  0
 48 47  1  0
 50 48  1  0
 50 51  1  0
 50 49  1  0
 52 53  1  0
 52  4  1  0
 54 55  1  0
 54 53  1  0
 55 56  1  0
 56 57  1  0
 57 58  1  0
 58 67  1  0
 59 67  1  0
 60 65  1  0
 61 62  1  0
 61 60  1  0
 63 62  1  0
 63 72  1  0
 63 64  1  0
 65 59  1  0
 65 64  1  0
 66 59  2  0
 67 68  1  0
 69 70  2  0
 70 71  1  0
 70 89  1  0
 71 74  1  0
 72 69  1  0
 72 73  1  0
 73 71  2  0
 74 75  1  0
 75 76  2  0
 77 80  1  0
 77 76  1  0
 78 77  2  0
 79 78  1  0
 79 74  2  0
 80 81  1  0
 81 82  1  0
 82 83  2  0
 84 83  1  0
 84 88  1  0
 85 84  2  0
 86 81  2  0
 86 85  1  0
 87 86  1  0
 89 90  1  0
 90 93  1  0
 90 92  1  0
 91 89  2  0
 94 95  1  0
 94 69  1  0
 96 94  1  0
M  ISO  4  10 101  11 101  59 100  67 100
M  END
>  <TORSDO>  (31) 
F 26

>  <SCORE>  (31) 
-12.129

>  <name>  (31) 
30

>  <ligand_id>  (31) 
30

>  <original_smiles>  (31) 
[H]Oc1c([H])c(C([H])([H])C([H])([H])C([H])([H])C([H])([H])C([H])([H])C([H])([H])C([H])([H])N([H])C(=O)N2C([H])([H])C([H])([H])C([H])([H])C([H])(n3nc(-c4c([H])c([H])c(Oc5c([H])c([H])c(F)c([H])c5F)c([H])c4[H])c(C(=O)N([H])[H])c3N([H])[H])C2([H])[H])c([H])c([H])c1C([H])([H])C([H])([H])Oc1c([H])c([H])c2c(c1[H])C([H])([H])N(C(=O)C([H])(N([H])C(=O)C([H])(N([H])C([H])([H])[H])C([H])([H])[H])C(C([H])([H])[H])(C([H])([H])[H])C([H])([H])[H])C([H])(C(=O)N([H])C1([H])c3c([H])c([H])c([H])c([H])c3C([H])([H])C([H])([H])C1([H])[H])C2([H])[H]

>  <smiles>  (31) 
[H]Oc1c([H])c(C([H])([H])C([H])([H])C([H])([H])C([H])([H])C([H])([H])C([H])([H])C([H])([H])N([H])C(=O)N2C([H])([H])C([H])([H])C([H])([H])C([H])(n3nc(-c4c([H])c([H])c(Oc5c([H])c([H])c(F)c([H])c5F)c([H])c4[H])c(C(=O)N([H])[H])c3N([H])[H])C2([H])[H])c([H])c([H])c1C([H])([H])C([H])([H])Oc1c([H])c([H])c2c(c1[H])C([H])([H])N(C(=O)C([H])(N([H])C(=O)C([H])(N([H])C([H])([H])[H])C([H])([H])[H])C(C([H])([H])[H])(C([H])([H])[H])C([H])([H])[H])C([H])(C(=O)N([H])C1([H])c3c([H])c([H])c([H])c([H])c3C([H])([H])C([H])([H])C1([H])[H])C2([H])[H]

$$$$
31:0:0
     RDKit          3D

100109  0  0  1  0  0  0  0  0999 V2000
  -31.9150  -23.8940   22.4460 C   0  0  0  0  0  3  0  0  0  0  0  0
  -31.8030  -25.1860   21.8840 C   0  0  0  0  0  3  0  0  0  0  0  0
  -30.8950  -22.8990   20.4510 C   0  0  0  0  0  3  0  0  0  0  0  0
  -30.7910  -24.1920   19.9100 C   0  0  0  0  0  0  0  0  0  0  0  0
  -31.4550  -22.7450   21.7480 C   0  0  0  0  0  0  0  0  0  0  0  0
  -31.2320  -25.3100   20.6070 C   0  0  0  0  0  0  0  0  0  0  0  0
  -30.2400  -24.5990   18.6130 C   0  0  0  0  0  0  0  0  0  0  0  0
  -31.0100  -26.5880   19.8320 C   0  0  0  0  0  2  0  0  0  0  0  0
  -30.3010  -26.1370   18.5140 C   0  0  1  0  0  0  0  0  0  0  0  0
  -31.1370  -26.5450   17.2830 C   0  0  0  0  0  1  0  0  0  0  0  0
  -29.8020  -23.8590   17.7250 O   0  0  0  0  0  0  0  0  0  0  0  0
  -31.5770  -21.4010   22.3940 C   0  0  0  0  0  0  0  0  0  0  0  0
  -32.4630  -21.1430   23.2190 O   0  0  0  0  0  0  0  0  0  0  0  0
  -30.5190  -20.3160   22.0400 C   0  0  0  0  0  0  0  0  0  0  0  0
  -31.0520  -19.0900   21.9280 N   0  0  0  0  0  0  0  0  0  0  0  0
  -29.3160  -20.5650   21.8940 O   0  0  0  0  0  0  0  0  0  0  0  0
  -32.0410  -19.0170   22.1260 H   0  0  0  0  0  0  0  0  0  0  0  0
  -30.3010  -17.8670   21.6530 C   0  0  0  0  0  2  0  0  0  0  0  0
  -30.8710  -17.0730   20.4670 C   0  0  0  0  0  2  0  0  0  0  0  0
  -32.0290  -16.1130   20.8260 C   0  0  0  0  0  2  0  0  0  0  0  0
  -31.9640  -13.7820   19.8370 C   0  0  0  0  0  0  0  0  0  0  0  0
  -31.3290  -11.5790   18.9130 C   0  0  0  0  0  2  0  0  0  0  0  0
  -30.3330  -11.7410   17.7480 C   0  0  0  0  0  2  0  0  0  0  0  0
  -28.8850  -11.8550   18.2630 C   0  0  0  0  0  2  0  0  0  0  0  0
  -28.7400  -12.8960   19.4040 C   0  0  0  0  0  3  0  0  0  0  0  0
  -29.8120  -12.6450   20.4850 C   0  0  0  0  0  2  0  0  0  0  0  0
  -31.1420  -12.7010   19.8400 N   0  0  0  0  0  0  0  0  0  0  0  0
  -32.9670  -13.8890   19.1240 O   0  0  0  0  0  0  0  0  0  0  0  0
  -31.5720  -14.7360   20.6900 N   0  0  0  0  0  0  0  0  0  0  0  0
  -30.7790  -14.4800   21.2580 H   0  0  0  0  0  0  0  0  0  0  0  0
  -26.5840  -13.9520   20.3460 C   0  0  0  0  0  0  0  0  0  0  0  0
  -25.4010  -13.3980   20.7560 C   0  0  0  0  0  0  0  0  0  0  0  0
  -25.5520  -11.9860   20.5980 C   0  0  0  0  0  0  0  0  0  0  0  0
  -27.3930  -12.8880   19.9710 N   0  0  0  0  0  0  0  0  0  0  0  0
  -26.7760  -11.6980   20.1750 N   0  0  0  0  0  0  0  0  0  0  0  0
  -24.5840  -10.8950   20.7710 C   0  0  0  0  0  0  0  0  0  0  0  0
  -24.8610   -9.7900   21.6040 C   0  0  0  0  0  3  0  0  0  0  0  0
  -23.9090   -8.7600   21.7660 C   0  0  0  0  0  3  0  0  0  0  0  0
  -22.6650   -8.8330   21.0970 C   0  0  0  0  0  0  0  0  0  0  0  0
  -22.4040   -9.9250   20.2510 C   0  0  0  0  0  3  0  0  0  0  0  0
  -23.3540  -10.9460   20.0850 C   0  0  0  0  0  3  0  0  0  0  0  0
  -21.6900   -7.8680   21.1750 O   0  0  0  0  0  0  0  0  0  0  0  0
  -21.5360   -7.0870   22.2910 C   0  0  0  0  0  0  0  0  0  0  0  0
  -21.3010   -7.6490   23.5660 C   0  0  0  0  0  3  0  0  0  0  0  0
  -21.0800   -6.8080   24.6750 C   0  0  0  0  0  3  0  0  0  0  0  0
  -21.0850   -5.4090   24.5120 C   0  0  0  0  0  0  0  0  0  0  0  0
  -21.3130   -4.8490   23.2430 C   0  0  0  0  0  3  0  0  0  0  0  0
  -21.5370   -5.6860   22.1360 C   0  0  0  0  0  0  0  0  0  0  0  0
  -21.7350   -5.1420   20.9110 F   0  0  0  0  0  0  0  0  0  0  0  0
  -20.8650   -4.6010   25.5750 F   0  0  0  0  0  0  0  0  0  0  0  0
  -24.1640  -14.1360   21.1820 C   0  0  0  0  0  0  0  0  0  0  0  0
  -23.3790  -13.5530   22.0810 N   0  0  0  0  0  0  0  0  0  0  0  0
  -23.9120  -15.2620   20.7530 O   0  0  0  0  0  0  0  0  0  0  0  0
  -23.5970  -12.6390   22.4480 H   0  0  0  0  0  0  0  0  0  0  0  0
  -22.5490  -14.0280   22.4050 H   0  0  0  0  0  0  0  0  0  0  0  0
  -27.0330  -15.2650   20.2420 N   0  0  0  0  0  0  0  0  0  0  0  0
  -26.4390  -16.0580   20.4600 H   0  0  0  0  0  0  0  0  0  0  0  0
  -27.9350  -15.5380   19.8720 H   0  0  0  0  0  0  0  0  0  0  0  0
  -28.8700  -26.7130   18.4050 C   0  0  0  0  0  2  0  0  0  0  0  0
  -28.2150  -26.6550   19.6690 O   0  0  0  0  0  0  0  0  0  0  0  0
  -24.5050  -31.6450   23.0940 C   0  0  0  0  0  0  0  0  0  0  0  0
  -27.0480  -27.3660   19.7410 C   0  0  0  0  0  0  0  0  0  0  0  0
  -23.2470  -30.3270   21.4180 C   0  0  0  0  0  3  0  0  0  0  0  0
  -24.6560  -28.8430   19.8950 C   0  0  0  0  0  0  0  0  0  0  0  0
  -25.7660  -30.6820   21.1770 C   0  0  0  0  0  2  0  0  0  0  0  0
  -25.8250  -29.3420   20.4830 C   0  0  0  0  0  0  0  0  0  0  0  0
  -27.0230  -28.6000   20.4180 C   0  0  0  0  0  3  0  0  0  0  0  0
  -25.8630  -26.8620   19.1650 C   0  0  0  0  0  3  0  0  0  0  0  0
  -24.6650  -27.5980   19.2410 C   0  0  0  0  0  3  0  0  0  0  0  0
  -23.4180  -29.7050   20.0060 C   0  0  0  0  0  2  0  0  0  0  0  0
  -24.5250  -30.8970   21.9560 N   0  0  0  0  0  0  0  0  0  0  0  0
  -23.4390  -31.9000   23.6730 O   0  0  0  0  0  0  0  0  0  0  0  0
  -22.6110  -29.2700   22.3460 C   0  0  0  0  0  0  0  0  0  0  0  0
  -21.2800  -29.1190   22.2530 N   0  0  0  0  0  0  0  0  0  0  0  0
  -23.3080  -28.5900   23.1030 O   0  0  0  0  0  0  0  0  0  0  0  0
  -20.7790  -29.7200   21.6140 H   0  0  0  0  0  0  0  0  0  0  0  0
  -17.9020  -27.9590   22.7870 C   0  0  0  0  0  0  0  0  0  0  0  0
  -20.4700  -28.1580   23.0000 C   0  0  0  0  0  3  0  0  0  0  0  0
  -20.5310  -26.7560   22.3510 C   0  0  0  0  0  2  0  0  0  0  0  0
  -19.3960  -26.5030   21.3540 C   0  0  0  0  0  2  0  0  0  0  0  0
  -18.0340  -26.6410   22.0430 C   0  0  0  0  0  2  0  0  0  0  0  0
  -19.0460  -28.6790   23.2230 C   0  0  0  0  0  0  0  0  0  0  0  0
  -18.8680  -29.9170   23.8780 C   0  0  0  0  0  3  0  0  0  0  0  0
  -17.5780  -30.4330   24.1040 C   0  0  0  0  0  3  0  0  0  0  0  0
  -16.4490  -29.7080   23.6850 C   0  0  0  0  0  3  0  0  0  0  0  0
  -16.6120  -28.4730   23.0320 C   0  0  0  0  0  3  0  0  0  0  0  0
  -25.8130  -32.2340   23.7110 C   0  0  0  0  0  3  0  0  0  0  0  0
  -25.5400  -33.6290   24.0780 N   0  0  0  0  0  0  0  0  0  0  0  0
  -25.8990  -34.6920   23.3460 C   0  0  0  0  0  0  0  0  0  0  0  0
  -26.5680  -34.5990   22.3130 O   0  0  0  0  0  0  0  0  0  0  0  0
  -24.9530  -33.7780   24.8860 H   0  0  0  0  0  0  0  0  0  0  0  0
  -24.2150  -36.5310   23.0340 C   0  0  0  0  0  1  0  0  0  0  0  0
  -25.4450  -36.0790   23.8380 C   0  0  0  0  0  3  0  0  0  0  0  0
  -27.5970  -36.8910   24.6960 C   0  0  0  0  0  1  0  0  0  0  0  0
  -26.5030  -37.1100   23.7530 N   0  0  0  0  0  0  0  0  0  0  0  0
  -26.1180  -38.0350   23.9240 H   0  0  0  0  0  0  0  0  0  0  0  0
  -26.3350  -31.4200   24.9580 C   0  0  1  0  0  0  0  0  0  0  0  0
  -25.2550  -31.1790   26.0380 C   0  0  0  0  0  1  0  0  0  0  0  0
  -26.8810  -30.0420   24.5160 C   0  0  0  0  0  1  0  0  0  0  0  0
  -27.5120  -32.1740   25.6210 C   0  0  0  0  0  1  0  0  0  0  0  0
  2  1  1  0
  3  5  1  0
  4  3  2  0
  4  6  1  0
  5 12  1  0
  5  1  2  0
  6  2  2  0
  7  4  1  0
  8  6  1  0
  9 10  1  6
  9  7  1  0
  9  8  1  0
 11  7  2  0
 12 13  2  0
 14 12  1  0
 15 14  1  0
 15 17  1  0
 16 14  2  0
 18 15  1  0
 19 20  1  0
 19 18  1  0
 21 27  1  0
 21 29  1  0
 22 27  1  0
 23 24  1  0
 23 22  1  0
 25 24  1  0
 25 34  1  0
 25 26  1  0
 27 26  1  0
 28 21  2  0
 29 20  1  0
 29 30  1  0
 31 32  2  0
 32 51  1  0
 33 32  1  0
 33 36  1  0
 34 35  1  0
 34 31  1  0
 35 33  2  0
 36 37  1  0
 37 38  2  0
 39 42  1  0
 39 38  1  0
 40 39  2  0
 41 40  1  0
 41 36  2  0
 42 43  1  0
 43 44  1  0
 44 45  2  0
 46 45  1  0
 46 50  1  0
 47 46  2  0
 48 43  2  0
 48 47  1  0
 49 48  1  0
 51 52  1  0
 52 55  1  0
 52 54  1  0
 53 51  2  0
 56 31  1  0
 56 57  1  0
 58 56  1  0
 59  9  1  0
 59 60  1  0
 60 62  1  0
 61 72  2  0
 62 67  1  0
 63 71  1  0
 63 73  1  0
 64 70  1  0
 64 66  1  0
 65 71  1  0
 66 65  1  0
 67 66  2  0
 68 69  1  0
 68 62  2  0
 69 64  2  0
 70 63  1  0
 71 61  1  0
 73 75  2  0
 74 73  1  0
 76 74  1  0
 77 86  2  0
 77 82  1  0
 78 74  1  0
 78 82  1  0
 79 78  1  0
 80 81  1  0
 80 79  1  0
 81 77  1  0
 82 83  2  0
 83 84  1  0
 85 84  2  0
 86 85  1  0
 87 61  1  0
 87 88  1  0
 87 97  1  0
 88 91  1  0
 89 93  1  0
 89 88  1  0
 90 89  2  0
 93 92  1  0
 95 93  1  0
 95 96  1  0
 95 94  1  0
 97100  1  1
 97 98  1  0
 99 97  1  0
M  ISO  4  21 100  29 100  59 101  60 101
M  END
>  <TORSDO>  (32) 
F 22

>  <SCORE>  (32) 
-7.636

>  <name>  (32) 
31

>  <ligand_id>  (32) 
31

>  <original_smiles>  (32) 
[H]c1c([H])c([H])c2c(c1[H])C([H])([H])C([H])([H])C([H])([H])C2([H])N([H])C(=O)C1([H])N(C(=O)C([H])(N([H])C(=O)C([H])(N([H])C([H])([H])[H])C([H])([H])[H])C(C([H])([H])[H])(C([H])([H])[H])C([H])([H])[H])C([H])([H])c2c([H])c(OC([H])([H])C3(C([H])([H])[H])C(=O)c4c([H])c(C(=O)C(=O)N([H])C([H])([H])C([H])([H])C([H])([H])N([H])C(=O)N5C([H])([H])C([H])([H])C([H])([H])C([H])(n6nc(-c7c([H])c([H])c(Oc8c([H])c([H])c(F)c([H])c8F)c([H])c7[H])c(C(=O)N([H])[H])c6N([H])[H])C5([H])[H])c([H])c([H])c4C3([H])[H])c([H])c([H])c2C1([H])[H]

>  <smiles>  (32) 
[H]c1c([H])c([H])c2c(c1[H])C([H])([H])C([H])([H])C([H])([H])C2([H])N([H])C(=O)C1([H])N(C(=O)C([H])(N([H])C(=O)C([H])(N([H])C([H])([H])[H])C([H])([H])[H])C(C([H])([H])[H])(C([H])([H])[H])C([H])([H])[H])C([H])([H])c2c([H])c(OC([H])([H])C3(C([H])([H])[H])C(=O)c4c([H])c(C(=O)C(=O)N([H])C([H])([H])C([H])([H])C([H])([H])N([H])C(=O)N5C([H])([H])C([H])([H])C([H])([H])C([H])(n6nc(-c7c([H])c([H])c(Oc8c([H])c([H])c(F)c([H])c8F)c([H])c7[H])c(C(=O)N([H])[H])c6N([H])[H])C5([H])[H])c([H])c([H])c4C3([H])[H])c([H])c([H])c2C1([H])[H]

$$$$
32:0:0
     RDKit          3D

 93100  0  0  1  0  0  0  0  0999 V2000
  -25.9330  -24.6070   16.2810 C   0  0  0  0  0  3  0  0  0  0  0  0
  -25.9180  -25.8850   16.9050 C   0  0  0  0  0  3  0  0  0  0  0  0
  -26.6140  -23.4740   16.8200 C   0  0  0  0  0  3  0  0  0  0  0  0
  -27.4320  -24.9250   18.5340 C   0  0  0  0  0  3  0  0  0  0  0  0
  -26.6340  -26.1710   18.0920 C   0  0  0  0  0  0  0  0  0  0  0  0
  -27.3800  -23.5190   18.0200 C   0  0  0  0  0  0  0  0  0  0  0  0
  -26.0600  -27.6230   19.0330 C   0  0  0  0  0  1  0  0  0  0  0  0
  -25.6830  -27.3900   22.1580 C   0  0  0  0  0  2  0  0  0  0  0  0
  -24.6850  -27.1730   22.8490 O   0  0  0  0  0  1  0  0  0  0  0  0
  -27.0530  -26.7640   22.7520 C   0  0  0  0  0  2  0  0  0  0  0  0
  -28.0040  -26.3900   21.6860 O   0  0  0  0  0  0  0  0  0  0  0  0
  -24.5230  -31.9340   23.2660 C   0  0  0  0  0  0  0  0  0  0  0  0
  -27.2810  -26.8010   20.7110 C   0  0  0  0  0  0  0  0  0  0  0  0
  -23.2380  -30.5130   21.7310 C   0  0  0  0  0  3  0  0  0  0  0  0
  -24.4780  -28.7190   20.3630 C   0  0  0  0  0  0  0  0  0  0  0  0
  -25.7900  -30.8530   21.2610 C   0  0  0  0  0  2  0  0  0  0  0  0
  -25.9470  -29.4600   20.5120 C   0  0  0  0  0  0  0  0  0  0  0  0
  -27.4020  -28.5670   20.5940 C   0  0  0  0  0  3  0  0  0  0  0  0
  -25.6310  -25.9600   20.5910 C   0  0  0  0  0  3  0  0  0  0  0  0
  -24.2640  -27.0350   20.3890 C   0  0  0  0  0  3  0  0  0  0  0  0
  -23.3230  -29.7000   20.4110 C   0  0  0  0  0  2  0  0  0  0  0  0
  -24.5670  -31.0840   22.1680 N   0  0  0  0  0  0  0  0  0  0  0  0
  -23.4480  -32.2760   23.7880 O   0  0  0  0  0  0  0  0  0  0  0  0
  -22.4610  -29.6930   22.7970 C   0  0  0  0  0  0  0  0  0  0  0  0
  -21.1470  -29.4950   22.6080 N   0  0  0  0  0  0  0  0  0  0  0  0
  -23.0270  -29.2460   23.7950 O   0  0  0  0  0  0  0  0  0  0  0  0
  -20.6800  -29.9960   21.8630 H   0  0  0  0  0  0  0  0  0  0  0  0
  -17.7590  -28.3450   23.0930 C   0  0  0  0  0  0  0  0  0  0  0  0
  -20.3070  -28.6020   23.4230 C   0  0  0  0  0  3  0  0  0  0  0  0
  -20.4000  -27.1360   22.9280 C   0  0  0  0  0  2  0  0  0  0  0  0
  -19.3280  -26.7950   21.8860 C   0  0  0  0  0  2  0  0  0  0  0  0
  -17.9390  -26.9580   22.5090 C   0  0  0  0  0  2  0  0  0  0  0  0
  -18.8680  -29.1200   23.5170 C   0  0  0  0  0  0  0  0  0  0  0  0
  -18.6360  -30.4070   24.0540 C   0  0  0  0  0  3  0  0  0  0  0  0
  -17.3290  -30.9240   24.1340 C   0  0  0  0  0  3  0  0  0  0  0  0
  -16.2390  -30.1530   23.6910 C   0  0  0  0  0  3  0  0  0  0  0  0
  -16.4550  -28.8570   23.2020 C   0  0  0  0  0  3  0  0  0  0  0  0
  -25.7980  -32.5600   23.9110 C   0  0  0  0  0  3  0  0  0  0  0  0
  -25.5020  -33.9630   24.2560 N   0  0  0  0  0  0  0  0  0  0  0  0
  -25.8540  -35.0270   23.5150 C   0  0  0  0  0  0  0  0  0  0  0  0
  -26.5110  -34.9210   22.4780 O   0  0  0  0  0  0  0  0  0  0  0  0
  -24.8990  -34.1070   25.0520 H   0  0  0  0  0  0  0  0  0  0  0  0
  -24.1460  -36.8530   23.2260 C   0  0  0  0  0  1  0  0  0  0  0  0
  -25.4070  -36.4210   23.9950 C   0  0  0  0  0  3  0  0  0  0  0  0
  -27.5740  -37.2620   24.7840 C   0  0  0  0  0  1  0  0  0  0  0  0
  -26.4590  -37.4540   23.8570 N   0  0  0  0  0  0  0  0  0  0  0  0
  -26.0750  -38.3800   24.0080 H   0  0  0  0  0  0  0  0  0  0  0  0
  -26.2880  -31.7950   25.2010 C   0  0  1  0  0  0  0  0  0  0  0  0
  -25.1870  -31.5920   26.2720 C   0  0  0  0  0  1  0  0  0  0  0  0
  -26.8240  -30.4040   24.7980 C   0  0  0  0  0  1  0  0  0  0  0  0
  -27.4560  -32.5850   25.8390 C   0  0  0  0  0  1  0  0  0  0  0  0
  -27.6670  -22.0020   18.7860 C   0  0  0  0  0  2  0  0  0  0  0  0
  -28.9600  -20.8500   18.9360 C   0  0  0  0  0  2  0  0  0  0  0  0
  -28.8000  -19.1500   19.3560 C   0  0  0  0  0  3  0  0  0  0  0  0
  -29.9620  -17.8830   19.6780 C   0  0  0  0  0  3  0  0  0  0  0  0
  -30.4860  -15.1300   20.2650 C   0  0  0  0  0  0  0  0  0  0  0  0
  -30.4830  -12.6920   19.5560 C   0  0  0  0  0  2  0  0  0  0  0  0
  -29.5470  -12.4610   18.3480 C   0  0  0  0  0  2  0  0  0  0  0  0
  -28.1180  -12.1640   18.8430 C   0  0  0  0  0  2  0  0  0  0  0  0
  -27.6430  -13.2050   19.8890 C   0  0  0  0  0  3  0  0  0  0  0  0
  -28.6970  -13.4110   20.9960 C   0  0  0  0  0  2  0  0  0  0  0  0
  -29.9350  -13.8430   20.3290 N   0  0  0  0  0  0  0  0  0  0  0  0
  -31.7250  -15.1700   20.1920 O   0  0  0  0  0  0  0  0  0  0  0  0
  -29.6840  -16.3170   20.0210 N   0  0  0  0  0  0  0  0  0  0  0  0
  -28.7020  -16.0960   19.9950 H   0  0  0  0  0  0  0  0  0  0  0  0
  -25.2680  -13.7640   20.6640 C   0  0  0  0  0  0  0  0  0  0  0  0
  -24.2120  -12.9760   21.0270 C   0  0  0  0  0  0  0  0  0  0  0  0
  -24.6880  -11.6290   20.9820 C   0  0  0  0  0  0  0  0  0  0  0  0
  -26.3170  -12.8970   20.4170 N   0  0  0  0  0  0  0  0  0  0  0  0
  -25.9800  -11.6090   20.6800 N   0  0  0  0  0  0  0  0  0  0  0  0
  -23.9710  -10.3580   21.1420 C   0  0  0  0  0  0  0  0  0  0  0  0
  -24.3820   -9.3990   22.0930 C   0  0  0  0  0  3  0  0  0  0  0  0
  -23.6640   -8.1960   22.2460 C   0  0  0  0  0  3  0  0  0  0  0  0
  -22.5220   -7.9450   21.4500 C   0  0  0  0  0  0  0  0  0  0  0  0
  -22.1310   -8.8940   20.4910 C   0  0  0  0  0  3  0  0  0  0  0  0
  -22.8490  -10.0890   20.3350 C   0  0  0  0  0  3  0  0  0  0  0  0
  -21.7780   -6.7910   21.5110 O   0  0  0  0  0  0  0  0  0  0  0  0
  -21.6700   -6.0660   22.6710 C   0  0  0  0  0  0  0  0  0  0  0  0
  -21.1380   -6.6260   23.8530 C   0  0  0  0  0  3  0  0  0  0  0  0
  -20.9850   -5.8260   25.0030 C   0  0  0  0  0  3  0  0  0  0  0  0
  -21.3500   -4.4670   24.9690 C   0  0  0  0  0  0  0  0  0  0  0  0
  -21.8760   -3.9060   23.7910 C   0  0  0  0  0  3  0  0  0  0  0  0
  -22.0320   -4.7040   22.6450 C   0  0  0  0  0  0  0  0  0  0  0  0
  -22.5190   -4.1550   21.5050 F   0  0  0  0  0  0  0  0  0  0  0  0
  -21.1940   -3.6950   26.0700 F   0  0  0  0  0  0  0  0  0  0  0  0
  -22.8100  -13.4430   21.2940 C   0  0  0  0  0  0  0  0  0  0  0  0
  -22.0830  -12.7310   22.1470 N   0  0  0  0  0  0  0  0  0  0  0  0
  -22.3680  -14.4670   20.7760 O   0  0  0  0  0  0  0  0  0  0  0  0
  -22.4630  -11.9060   22.5910 H   0  0  0  0  0  0  0  0  0  0  0  0
  -21.1380  -13.0160   22.3640 H   0  0  0  0  0  0  0  0  0  0  0  0
  -25.4140  -15.1360   20.5010 N   0  0  0  0  0  0  0  0  0  0  0  0
  -24.6140  -15.7510   20.5850 H   0  0  0  0  0  0  0  0  0  0  0  0
  -26.2390  -15.5990   20.1490 H   0  0  0  0  0  0  0  0  0  0  0  0
  1  3  2  0
  1  2  1  0
  2  5  2  0
  3  6  1  0
  5  4  1  0
  5  7  1  0
  6  4  2  0
  6 52  1  0
  8 10  1  0
  8  9  1  0
 11 10  1  0
 12 23  2  0
 13 11  1  0
 14 22  1  0
 14 24  1  0
 15 20  2  0
 15 21  1  0
 15 17  1  0
 16 22  1  0
 17 18  2  0
 17 16  1  0
 18 13  1  0
 19 13  2  0
 20 19  1  0
 21 14  1  0
 22 12  1  0
 24 26  2  0
 25 24  1  0
 27 25  1  0
 28 37  2  0
 28 33  1  0
 29 25  1  0
 29 33  1  0
 30 29  1  0
 31 32  1  0
 31 30  1  0
 32 28  1  0
 33 34  2  0
 34 35  1  0
 36 35  2  0
 37 36  1  0
 38 12  1  0
 38 39  1  0
 38 48  1  0
 39 42  1  0
 40 44  1  0
 40 39  1  0
 41 40  2  0
 44 43  1  0
 46 44  1  0
 46 47  1  0
 46 45  1  0
 48 51  1  1
 48 49  1  0
 50 48  1  0
 52 53  1  0
 53 54  1  0
 54 55  2  0
 55 64  1  0
 56 62  1  0
 57 62  1  0
 58 59  1  0
 58 57  1  0
 60 59  1  0
 60 69  1  0
 60 61  1  0
 62 61  1  0
 63 56  2  0
 64 56  1  0
 65 64  1  0
 66 67  2  0
 67 86  1  0
 68 67  1  0
 68 71  1  0
 69 66  1  0
 69 70  1  0
 70 68  2  0
 71 72  1  0
 72 73  2  0
 74 77  1  0
 74 73  1  0
 75 74  2  0
 76 75  1  0
 76 71  2  0
 77 78  1  0
 78 79  1  0
 79 80  2  0
 81 80  1  0
 81 85  1  0
 82 81  2  0
 83 78  2  0
 83 82  1  0
 84 83  1  0
 86 87  1  0
 87 90  1  0
 87 89  1  0
 88 86  2  0
 91 92  1  0
 91 66  1  0
 93 91  1  0
M  ISO  4  10 101  11 101  56 100  64 100
M  END
>  <TORSDO>  (33) 
F 23

>  <SCORE>  (33) 
-14.079

>  <name>  (33) 
32

>  <ligand_id>  (33) 
32

>  <original_smiles>  (33) 
[H]c1c([H])c(C([H])([H])C(=O)C([H])([H])Oc2c([H])c([H])c3c(c2[H])C([H])([H])N(C(=O)C([H])(N([H])C(=O)C([H])(N([H])C([H])([H])[H])C([H])([H])[H])C(C([H])([H])[H])(C([H])([H])[H])C([H])([H])[H])C([H])(C(=O)N([H])C2([H])c4c([H])c([H])c([H])c([H])c4C([H])([H])C([H])([H])C2([H])[H])C3([H])[H])c([H])c(C([H])([H])C([H])([H])C([H])([H])C([H])([H])N([H])C(=O)N2C([H])([H])C([H])([H])C([H])([H])C([H])(n3nc(-c4c([H])c([H])c(Oc5c([H])c([H])c(F)c([H])c5F)c([H])c4[H])c(C(=O)N([H])[H])c3N([H])[H])C2([H])[H])c1[H]

>  <smiles>  (33) 
[H]c1c([H])c(C([H])([H])C(=O)C([H])([H])Oc2c([H])c([H])c3c(c2[H])C([H])([H])N(C(=O)C([H])(N([H])C(=O)C([H])(N([H])C([H])([H])[H])C([H])([H])[H])C(C([H])([H])[H])(C([H])([H])[H])C([H])([H])[H])C([H])(C(=O)N([H])C2([H])c4c([H])c([H])c([H])c([H])c4C([H])([H])C([H])([H])C2([H])[H])C3([H])[H])c([H])c(C([H])([H])C([H])([H])C([H])([H])C([H])([H])N([H])C(=O)N2C([H])([H])C([H])([H])C([H])([H])C([H])(n3nc(-c4c([H])c([H])c(Oc5c([H])c([H])c(F)c([H])c5F)c([H])c4[H])c(C(=O)N([H])[H])c3N([H])[H])C2([H])[H])c1[H]

$$$$
33:0:0
     RDKit          3D

 99107  0  0  1  0  0  0  0  0999 V2000
  -23.8790  -23.2230   20.3330 C   0  0  0  0  0  3  0  0  0  0  0  0
  -24.9210  -23.9070   20.9850 C   0  0  0  0  0  3  0  0  0  0  0  0
  -24.1760  -22.2370   19.3740 C   0  0  0  0  0  3  0  0  0  0  0  0
  -26.5550  -22.6080   19.7220 C   0  0  0  0  0  3  0  0  0  0  0  0
  -26.2650  -23.6160   20.6730 C   0  0  0  0  0  0  0  0  0  0  0  0
  -25.5170  -21.9100   19.0560 C   0  0  0  0  0  0  0  0  0  0  0  0
  -27.3640  -24.3590   21.3720 C   0  0  0  0  0  0  0  0  0  0  0  0
  -28.4580  -24.5910   20.6400 N   0  0  0  0  0  0  0  0  0  0  0  0
  -27.2190  -24.7730   22.5240 O   0  0  0  0  0  0  0  0  0  0  0  0
  -28.4540  -24.2670   19.6840 H   0  0  0  0  0  0  0  0  0  0  0  0
  -29.6070  -25.3880   21.0640 C   0  0  0  0  0  2  0  0  0  0  0  0
  -29.2780  -26.8900   21.0980 C   0  0  0  0  0  2  0  0  0  0  0  0
  -28.6660  -27.2350   19.8590 O   0  0  0  0  0  0  0  0  0  0  0  0
  -24.7210  -31.9670   23.4340 C   0  0  0  0  0  0  0  0  0  0  0  0
  -27.4890  -27.9270   19.9740 C   0  0  0  0  0  0  0  0  0  0  0  0
  -23.5420  -30.6600   21.6920 C   0  0  0  0  0  3  0  0  0  0  0  0
  -25.0340  -29.2970   20.1350 C   0  0  0  0  0  0  0  0  0  0  0  0
  -26.0440  -31.1370   21.4970 C   0  0  0  0  0  2  0  0  0  0  0  0
  -26.1740  -29.8260   20.7560 C   0  0  0  0  0  0  0  0  0  0  0  0
  -27.4050  -29.1440   20.6840 C   0  0  0  0  0  3  0  0  0  0  0  0
  -26.3430  -27.4060   19.3450 C   0  0  0  0  0  3  0  0  0  0  0  0
  -25.1100  -28.0810   19.4320 C   0  0  0  0  0  3  0  0  0  0  0  0
  -23.7580  -30.0970   20.2610 C   0  0  0  0  0  2  0  0  0  0  0  0
  -24.7870  -31.2630   22.2680 N   0  0  0  0  0  0  0  0  0  0  0  0
  -23.6390  -32.1550   24.0070 O   0  0  0  0  0  0  0  0  0  0  0  0
  -22.9430  -29.5410   22.5730 C   0  0  0  0  0  0  0  0  0  0  0  0
  -21.6390  -29.2740   22.3910 N   0  0  0  0  0  0  0  0  0  0  0  0
  -23.6460  -28.9190   23.3730 O   0  0  0  0  0  0  0  0  0  0  0  0
  -21.1280  -29.8360   21.7260 H   0  0  0  0  0  0  0  0  0  0  0  0
  -18.3710  -27.7610   22.6400 C   0  0  0  0  0  0  0  0  0  0  0  0
  -20.8720  -28.2370   23.0800 C   0  0  0  0  0  3  0  0  0  0  0  0
  -21.1410  -26.8440   22.4660 C   0  0  0  0  0  2  0  0  0  0  0  0
  -20.1350  -26.4610   21.3750 C   0  0  0  0  0  2  0  0  0  0  0  0
  -18.7120  -26.4570   21.9360 C   0  0  0  0  0  2  0  0  0  0  0  0
  -19.3870  -28.6030   23.1630 C   0  0  0  0  0  0  0  0  0  0  0  0
  -19.0190  -29.8210   23.7760 C   0  0  0  0  0  3  0  0  0  0  0  0
  -17.6670  -30.1980   23.8750 C   0  0  0  0  0  3  0  0  0  0  0  0
  -16.6640  -29.3510   23.3700 C   0  0  0  0  0  3  0  0  0  0  0  0
  -17.0160  -28.1340   22.7590 C   0  0  0  0  0  3  0  0  0  0  0  0
  -25.9940  -32.5900   24.0860 C   0  0  0  0  0  3  0  0  0  0  0  0
  -26.4930  -31.7980   25.3560 C   0  0  1  0  0  0  0  0  0  0  0  0
  -25.3820  -31.5330   26.3970 C   0  0  0  0  0  1  0  0  0  0  0  0
  -27.0910  -30.4310   24.9450 C   0  0  0  0  0  1  0  0  0  0  0  0
  -27.6250  -32.5870   26.0560 C   0  0  0  0  0  1  0  0  0  0  0  0
  -25.6790  -33.9820   24.4310 N   0  0  0  0  0  0  0  0  0  0  0  0
  -26.0390  -35.0460   23.7010 C   0  0  0  0  0  0  0  0  0  0  0  0
  -26.7440  -34.9590   22.6920 O   0  0  0  0  0  0  0  0  0  0  0  0
  -25.0570  -34.1230   25.2130 H   0  0  0  0  0  0  0  0  0  0  0  0
  -24.3280  -36.8470   23.3140 C   0  0  0  0  0  1  0  0  0  0  0  0
  -25.5390  -36.4270   24.1640 C   0  0  0  0  0  3  0  0  0  0  0  0
  -27.6460  -37.2900   25.0830 C   0  0  0  0  0  1  0  0  0  0  0  0
  -26.5760  -37.4790   24.1060 N   0  0  0  0  0  0  0  0  0  0  0  0
  -26.1670  -38.3970   24.2590 H   0  0  0  0  0  0  0  0  0  0  0  0
  -25.0220  -20.8480   16.8610 C   0  0  0  0  0  1  0  0  0  0  0  0
  -25.8030  -20.9140   18.0960 N   0  0  0  0  0  0  0  0  0  0  0  0
  -26.6890  -19.8030   18.4340 C   0  0  0  0  0  2  0  0  0  0  0  0
  -28.0750  -19.9420   17.7820 C   0  0  0  0  0  2  0  0  0  0  0  0
  -29.1040  -18.8920   18.2430 C   0  0  0  0  0  2  0  0  0  0  0  0
  -29.2770  -18.7970   19.7720 C   0  0  0  0  0  2  0  0  0  0  0  0
  -30.6670  -18.2930   20.2020 C   0  0  0  0  0  2  0  0  0  0  0  0
  -30.6720  -17.5070   21.5300 C   0  0  0  0  0  2  0  0  0  0  0  0
  -30.8620  -15.1580   20.7270 C   0  0  0  0  0  0  0  0  0  0  0  0
  -30.7320  -12.8830   19.7930 C   0  0  0  0  0  2  0  0  0  0  0  0
  -29.8860  -12.8800   18.5040 C   0  0  0  0  0  2  0  0  0  0  0  0
  -28.3920  -12.7070   18.8360 C   0  0  0  0  0  2  0  0  0  0  0  0
  -27.9090  -13.6810   19.9430 C   0  0  0  0  0  3  0  0  0  0  0  0
  -28.8710  -13.6640   21.1510 C   0  0  0  0  0  2  0  0  0  0  0  0
  -30.2300  -13.9580   20.6620 N   0  0  0  0  0  0  0  0  0  0  0  0
  -31.9590  -15.3730   20.2050 O   0  0  0  0  0  0  0  0  0  0  0  0
  -30.1980  -16.1300   21.3670 N   0  0  0  0  0  0  0  0  0  0  0  0
  -29.3080  -15.8880   21.7770 H   0  0  0  0  0  0  0  0  0  0  0  0
  -25.4730  -14.2560   20.5460 C   0  0  0  0  0  0  0  0  0  0  0  0
  -24.3930  -13.4680   20.8430 C   0  0  0  0  0  0  0  0  0  0  0  0
  -24.8650  -12.1210   20.7990 C   0  0  0  0  0  0  0  0  0  0  0  0
  -26.5340  -13.3870   20.3450 N   0  0  0  0  0  0  0  0  0  0  0  0
  -26.1680  -12.0970   20.5530 N   0  0  0  0  0  0  0  0  0  0  0  0
  -24.1390  -10.8490   20.9230 C   0  0  0  0  0  0  0  0  0  0  0  0
  -24.5020   -9.8830   21.8880 C   0  0  0  0  0  3  0  0  0  0  0  0
  -23.7770   -8.6760   21.9990 C   0  0  0  0  0  3  0  0  0  0  0  0
  -22.6770   -8.4270   21.1440 C   0  0  0  0  0  0  0  0  0  0  0  0
  -22.3360   -9.3820   20.1710 C   0  0  0  0  0  3  0  0  0  0  0  0
  -23.0610  -10.5800   20.0580 C   0  0  0  0  0  3  0  0  0  0  0  0
  -21.9330   -7.2730   21.1620 O   0  0  0  0  0  0  0  0  0  0  0  0
  -21.7380   -6.5600   22.3180 C   0  0  0  0  0  0  0  0  0  0  0  0
  -21.1470   -7.1400   23.4610 C   0  0  0  0  0  3  0  0  0  0  0  0
  -20.9030   -6.3520   24.6030 C   0  0  0  0  0  3  0  0  0  0  0  0
  -21.2390   -4.9860   24.6030 C   0  0  0  0  0  0  0  0  0  0  0  0
  -21.8240   -4.4050   23.4630 C   0  0  0  0  0  3  0  0  0  0  0  0
  -22.0690   -5.1900   22.3230 C   0  0  0  0  0  0  0  0  0  0  0  0
  -22.6130   -4.6200   21.2200 F   0  0  0  0  0  0  0  0  0  0  0  0
  -20.9980   -4.2260   25.6970 F   0  0  0  0  0  0  0  0  0  0  0  0
  -22.9810  -13.9300   21.0620 C   0  0  0  0  0  0  0  0  0  0  0  0
  -22.2250  -13.2190   21.8930 N   0  0  0  0  0  0  0  0  0  0  0  0
  -22.5540  -14.9540   20.5310 O   0  0  0  0  0  0  0  0  0  0  0  0
  -22.5830  -12.3900   22.3440 H   0  0  0  0  0  0  0  0  0  0  0  0
  -21.2770  -13.5110   22.0810 H   0  0  0  0  0  0  0  0  0  0  0  0
  -25.6370  -15.6310   20.4130 N   0  0  0  0  0  0  0  0  0  0  0  0
  -24.8650  -16.2810   20.5020 H   0  0  0  0  0  0  0  0  0  0  0  0
  -26.5070  -16.0770   20.1510 H   0  0  0  0  0  0  0  0  0  0  0  0
  1  2  1  0
  3  1  2  0
  4  5  1  0
  5  2  2  0
  5  7  1  0
  6  3  1  0
  6  4  2  0
  7  9  2  0
  8 11  1  0
  8  7  1  0
 10  8  1  0
 11 12  1  0
 13 15  1  0
 13 12  1  0
 14 25  2  0
 15 20  1  0
 16 24  1  0
 16 26  1  0
 17 23  1  0
 17 19  1  0
 18 24  1  0
 19 18  1  0
 20 19  2  0
 21 22  1  0
 21 15  2  0
 22 17  2  0
 23 16  1  0
 24 14  1  0
 26 28  2  0
 27 26  1  0
 29 27  1  0
 30 39  2  0
 30 35  1  0
 31 27  1  0
 31 35  1  0
 32 31  1  0
 33 34  1  0
 33 32  1  0
 34 30  1  0
 35 36  2  0
 36 37  1  0
 38 37  2  0
 39 38  1  0
 40 14  1  0
 40 45  1  0
 40 41  1  0
 41 44  1  1
 41 42  1  0
 43 41  1  0
 45 48  1  0
 46 50  1  0
 46 45  1  0
 47 46  2  0
 50 49  1  0
 52 50  1  0
 52 53  1  0
 52 51  1  0
 54 55  1  0
 55 56  1  0
 55  6  1  0
 57 58  1  0
 57 56  1  0
 58 59  1  0
 59 60  1  0
 60 61  1  0
 62 70  1  0
 63 68  1  0
 64 65  1  0
 64 63  1  0
 66 65  1  0
 66 75  1  0
 66 67  1  0
 68 62  1  0
 68 67  1  0
 69 62  2  0
 70 61  1  0
 70 71  1  0
 72 73  2  0
 73 92  1  0
 74 73  1  0
 74 77  1  0
 75 72  1  0
 75 76  1  0
 76 74  2  0
 77 78  1  0
 78 79  2  0
 80 83  1  0
 80 79  1  0
 81 80  2  0
 82 81  1  0
 82 77  2  0
 83 84  1  0
 84 89  2  0
 84 85  1  0
 85 86  2  0
 86 87  1  0
 87 91  1  0
 88 87  2  0
 89 88  1  0
 90 89  1  0
 92 93  1  0
 93 96  1  0
 93 95  1  0
 94 92  2  0
 97 98  1  0
 97 72  1  0
 99 97  1  0
M  ISO  4  12 101  13 101  62 100  70 100
M  END
>  <TORSDO>  (34) 
F 26

>  <SCORE>  (34) 
-11.239

>  <name>  (34) 
33

>  <ligand_id>  (34) 
33

>  <original_smiles>  (34) 
[H]c1c([H])c(C(=O)N([H])C([H])([H])C([H])([H])Oc2c([H])c([H])c3c(c2[H])C([H])([H])N(C(=O)C([H])(N([H])C(=O)C([H])(N([H])C([H])([H])[H])C([H])([H])[H])C(C([H])([H])[H])(C([H])([H])[H])C([H])([H])[H])C([H])(C(=O)N([H])C2([H])c4c([H])c([H])c([H])c([H])c4C([H])([H])C([H])([H])C2([H])[H])C3([H])[H])c([H])c(N(C([H])([H])[H])C([H])([H])C([H])([H])C([H])([H])C([H])([H])C([H])([H])C([H])([H])N([H])C(=O)N2C([H])([H])C([H])([H])C([H])([H])C([H])(n3nc(-c4c([H])c([H])c(Oc5c([H])c([H])c(F)c([H])c5F)c([H])c4[H])c(C(=O)N([H])[H])c3N([H])[H])C2([H])[H])c1[H]

>  <smiles>  (34) 
[H]c1c([H])c(C(=O)N([H])C([H])([H])C([H])([H])Oc2c([H])c([H])c3c(c2[H])C([H])([H])N(C(=O)C([H])(N([H])C(=O)C([H])(N([H])C([H])([H])[H])C([H])([H])[H])C(C([H])([H])[H])(C([H])([H])[H])C([H])([H])[H])C([H])(C(=O)N([H])C2([H])c4c([H])c([H])c([H])c([H])c4C([H])([H])C([H])([H])C2([H])[H])C3([H])[H])c([H])c(N(C([H])([H])[H])C([H])([H])C([H])([H])C([H])([H])C([H])([H])C([H])([H])C([H])([H])N([H])C(=O)N2C([H])([H])C([H])([H])C([H])([H])C([H])(n3nc(-c4c([H])c([H])c(Oc5c([H])c([H])c(F)c([H])c5F)c([H])c4[H])c(C(=O)N([H])[H])c3N([H])[H])C2([H])[H])c1[H]

$$$$
34:0:0
     RDKit          3D

102110  0  0  1  0  0  0  0  0999 V2000
  -28.1340  -20.4020   21.0740 C   0  0  0  0  0  3  0  0  0  0  0  0
  -28.7200  -19.1780   20.7130 C   0  0  0  0  0  3  0  0  0  0  0  0
  -28.8620  -19.9320   18.4030 C   0  0  0  0  0  3  0  0  0  0  0  0
  -27.8560  -21.3900   20.0990 C   0  0  0  0  0  0  0  0  0  0  0  0
  -29.0720  -18.9310   19.3750 C   0  0  0  0  0  0  0  0  0  0  0  0
  -28.2340  -21.1570   18.7410 C   0  0  0  0  0  0  0  0  0  0  0  0
  -27.0950  -22.6120   20.5390 C   0  0  0  0  0  0  0  0  0  0  0  0
  -27.6700  -23.3400   21.4880 N   0  0  0  0  0  0  0  0  0  0  0  0
  -26.0260  -22.9400   20.0270 O   0  0  0  0  0  0  0  0  0  0  0  0
  -28.5650  -23.0630   21.8590 H   0  0  0  0  0  0  0  0  0  0  0  0
  -27.2040  -24.1480   21.8660 H   0  0  0  0  0  0  0  0  0  0  0  0
  -29.5530  -17.5420   18.9830 C   0  0  0  0  0  2  0  0  0  0  0  0
  -31.0740  -17.1920   19.0150 C   0  0  0  0  0  3  0  0  0  0  0  0
  -31.6430  -14.7390   18.9100 C   0  0  0  0  0  0  0  0  0  0  0  0
  -31.4180  -12.2890   18.6960 C   0  0  0  0  0  2  0  0  0  0  0  0
  -30.3740  -11.9200   17.6210 C   0  0  0  0  0  2  0  0  0  0  0  0
  -28.9490  -11.9130   18.2050 C   0  0  0  0  0  2  0  0  0  0  0  0
  -28.6390  -13.1950   19.0270 C   0  0  0  0  0  3  0  0  0  0  0  0
  -29.7740  -13.4770   20.0370 C   0  0  0  0  0  2  0  0  0  0  0  0
  -31.0460  -13.5780   19.2930 N   0  0  0  0  0  0  0  0  0  0  0  0
  -32.5460  -14.8030   18.0710 O   0  0  0  0  0  0  0  0  0  0  0  0
  -31.1480  -15.8220   19.5200 N   0  0  0  0  0  0  0  0  0  0  0  0
  -30.5170  -15.6100   20.2780 H   0  0  0  0  0  0  0  0  0  0  0  0
  -26.4920  -14.1160   20.1200 C   0  0  0  0  0  0  0  0  0  0  0  0
  -25.3750  -13.4910   20.6100 C   0  0  0  0  0  0  0  0  0  0  0  0
  -25.5980  -12.0930   20.4330 C   0  0  0  0  0  0  0  0  0  0  0  0
  -27.3370  -13.1020   19.6880 N   0  0  0  0  0  0  0  0  0  0  0  0
  -26.8040  -11.8770   19.9210 N   0  0  0  0  0  0  0  0  0  0  0  0
  -24.7110  -10.9460   20.6660 C   0  0  0  0  0  0  0  0  0  0  0  0
  -25.1140   -9.8590   21.4720 C   0  0  0  0  0  3  0  0  0  0  0  0
  -24.2390   -8.7770   21.7050 C   0  0  0  0  0  3  0  0  0  0  0  0
  -22.9470   -8.7730   21.1270 C   0  0  0  0  0  0  0  0  0  0  0  0
  -22.5590   -9.8470   20.3060 C   0  0  0  0  0  3  0  0  0  0  0  0
  -23.4320  -10.9220   20.0750 C   0  0  0  0  0  3  0  0  0  0  0  0
  -22.0400   -7.7500   21.2690 O   0  0  0  0  0  0  0  0  0  0  0  0
  -21.8590   -7.1090   22.4670 C   0  0  0  0  0  0  0  0  0  0  0  0
  -21.4510   -7.8060   23.6270 C   0  0  0  0  0  3  0  0  0  0  0  0
  -21.2130   -7.1010   24.8240 C   0  0  0  0  0  3  0  0  0  0  0  0
  -21.3690   -5.7010   24.8600 C   0  0  0  0  0  0  0  0  0  0  0  0
  -21.7630   -5.0060   23.7030 C   0  0  0  0  0  3  0  0  0  0  0  0
  -22.0070   -5.7090   22.5100 C   0  0  0  0  0  0  0  0  0  0  0  0
  -22.3720   -5.0320   21.3950 F   0  0  0  0  0  0  0  0  0  0  0  0
  -21.1290   -5.0220   26.0060 F   0  0  0  0  0  0  0  0  0  0  0  0
  -24.1290  -14.1550   21.1240 C   0  0  0  0  0  0  0  0  0  0  0  0
  -23.4930  -13.5720   22.1330 N   0  0  0  0  0  0  0  0  0  0  0  0
  -23.7380  -15.2280   20.6670 O   0  0  0  0  0  0  0  0  0  0  0  0
  -23.8270  -12.7090   22.5390 H   0  0  0  0  0  0  0  0  0  0  0  0
  -22.6700  -14.0050   22.5220 H   0  0  0  0  0  0  0  0  0  0  0  0
  -26.8530  -15.4530   19.9900 N   0  0  0  0  0  0  0  0  0  0  0  0
  -26.2340  -16.2070   20.2620 H   0  0  0  0  0  0  0  0  0  0  0  0
  -27.7060  -15.7840   19.5570 H   0  0  0  0  0  0  0  0  0  0  0  0
  -32.1860  -19.4060   19.7630 C   0  0  0  0  0  2  0  0  0  0  0  0
  -32.0190  -18.0720   19.8390 C   0  0  0  0  0  3  0  0  0  0  0  0
  -27.8870  -22.1250   17.6020 C   0  0  0  0  0  2  0  0  0  0  0  0
  -28.6110  -23.4990   17.6180 C   0  0  0  0  0  2  0  0  0  0  0  0
  -27.6200  -24.6950   17.5170 C   0  0  0  0  0  3  0  0  0  0  0  0
  -26.9200  -24.8990   18.8110 N   0  0  0  0  0  4  0  0  0  0  0  0
  -27.4800  -25.4470   19.4410 H   0  0  0  0  0  0  0  0  0  0  0  0
  -26.7320  -24.0140   19.2740 H   0  0  0  0  0  0  0  0  0  0  0  0
  -26.0440  -25.3820   18.6790 H   0  0  0  0  0  0  0  0  0  0  0  0
  -28.2750  -26.0260   17.0460 C   0  0  0  0  0  2  0  0  0  0  0  0
  -27.3510  -26.9020   16.3970 O   0  0  0  0  0  0  0  0  0  0  0  0
  -24.7360  -29.0940   22.6750 C   0  0  0  0  0  0  0  0  0  0  0  0
  -26.2740  -27.3150   17.1400 C   0  0  0  0  0  0  0  0  0  0  0  0
  -23.0750  -28.6030   20.9100 C   0  0  0  0  0  3  0  0  0  0  0  0
  -24.0240  -28.2280   18.5740 C   0  0  0  0  0  0  0  0  0  0  0  0
  -25.4460  -29.3400   20.3020 C   0  0  0  0  0  2  0  0  0  0  0  0
  -25.3140  -28.5180   19.0370 C   0  0  0  0  0  0  0  0  0  0  0  0
  -26.4440  -28.0610   18.3240 C   0  0  0  0  0  3  0  0  0  0  0  0
  -24.9690  -27.0450   16.6730 C   0  0  0  0  0  3  0  0  0  0  0  0
  -23.8440  -27.4820   17.3970 C   0  0  0  0  0  3  0  0  0  0  0  0
  -22.8670  -28.7730   19.3830 C   0  0  0  0  0  2  0  0  0  0  0  0
  -24.4530  -28.9960   21.3460 N   0  0  0  0  0  0  0  0  0  0  0  0
  -23.8630  -28.9020   23.5330 O   0  0  0  0  0  0  0  0  0  0  0  0
  -22.7020  -27.1560   21.2980 C   0  0  0  0  0  0  0  0  0  0  0  0
  -21.4330  -26.7820   21.0590 N   0  0  0  0  0  0  0  0  0  0  0  0
  -23.5440  -26.3900   21.7730 O   0  0  0  0  0  0  0  0  0  0  0  0
  -20.8000  -27.4700   20.6770 H   0  0  0  0  0  0  0  0  0  0  0  0
  -18.5610  -24.6850   20.4320 C   0  0  0  0  0  0  0  0  0  0  0  0
  -20.8650  -25.4590   21.3120 C   0  0  0  0  0  3  0  0  0  0  0  0
  -21.4680  -24.4000   20.3590 C   0  0  0  0  0  2  0  0  0  0  0  0
  -20.6440  -24.1970   19.0830 C   0  0  0  0  0  2  0  0  0  0  0  0
  -19.2200  -23.7540   19.4290 C   0  0  0  0  0  2  0  0  0  0  0  0
  -19.3330  -25.4970   21.3040 C   0  0  0  0  0  0  0  0  0  0  0  0
  -18.6670  -26.3750   22.1890 C   0  0  0  0  0  3  0  0  0  0  0  0
  -17.2610  -26.4440   22.2140 C   0  0  0  0  0  3  0  0  0  0  0  0
  -16.5030  -25.6250   21.3600 C   0  0  0  0  0  3  0  0  0  0  0  0
  -17.1520  -24.7460   20.4750 C   0  0  0  0  0  3  0  0  0  0  0  0
  -26.1630  -29.4750   23.1820 C   0  0  0  0  0  3  0  0  0  0  0  0
  -26.7760  -28.4070   24.1700 C   0  0  1  0  0  0  0  0  0  0  0  0
  -25.8540  -28.0630   25.3630 C   0  0  0  0  0  1  0  0  0  0  0  0
  -27.0900  -27.0920   23.4200 C   0  0  0  0  0  1  0  0  0  0  0  0
  -28.1170  -28.9270   24.7390 C   0  0  0  0  0  1  0  0  0  0  0  0
  -26.0670  -30.7880   23.8310 N   0  0  0  0  0  0  0  0  0  0  0  0
  -26.6010  -31.9160   23.3450 C   0  0  0  0  0  0  0  0  0  0  0  0
  -27.2990  -31.9410   22.3270 O   0  0  0  0  0  0  0  0  0  0  0  0
  -25.4660  -30.8490   24.6410 H   0  0  0  0  0  0  0  0  0  0  0  0
  -25.2960  -34.0640   23.3200 C   0  0  0  0  0  1  0  0  0  0  0  0
  -26.3130  -33.2230   24.1070 C   0  0  0  0  0  3  0  0  0  0  0  0
  -28.4320  -33.4030   25.3380 C   0  0  0  0  0  1  0  0  0  0  0  0
  -27.5280  -34.0260   24.3750 N   0  0  0  0  0  0  0  0  0  0  0  0
  -27.2790  -34.9470   24.7250 H   0  0  0  0  0  0  0  0  0  0  0  0
  2  1  1  0
  3  6  2  0
  3  5  1  0
  4  7  1  0
  4  1  2  0
  5  2  2  0
  6  4  1  0
  7  8  1  0
  8 10  1  0
  8 11  1  0
  9  7  2  0
 12  5  1  0
 13 12  1  0
 13 22  1  0
 13 53  1  0
 14 20  1  0
 14 22  1  0
 15 20  1  0
 16 17  1  0
 16 15  1  0
 18 17  1  0
 18 27  1  0
 18 19  1  0
 20 19  1  0
 21 14  2  0
 22 23  1  0
 24 25  2  0
 25 44  1  0
 26 25  1  0
 26 29  1  0
 27 28  1  0
 27 24  1  0
 28 26  2  0
 29 30  1  0
 30 31  2  0
 32 35  1  0
 32 31  1  0
 33 32  2  0
 34 33  1  0
 34 29  2  0
 35 36  1  0
 36 41  2  0
 36 37  1  0
 37 38  2  0
 38 39  1  0
 39 43  1  0
 40 39  2  0
 41 40  1  0
 42 41  1  0
 44 45  1  0
 45 48  1  0
 45 47  1  0
 46 44  2  0
 49 24  1  0
 49 50  1  0
 51 49  1  0
 52 53  2  0
 54 55  1  0
 54  6  1  0
 56 61  1  0
 56 55  1  0
 56 57  1  0
 57 59  1  0
 57 58  1  0
 60 57  1  0
 62 61  1  0
 62 64  1  0
 63 74  2  0
 64 69  1  0
 65 75  1  0
 65 73  1  0
 66 68  1  0
 66 72  1  0
 67 73  1  0
 68 67  1  0
 69 68  2  0
 70 64  2  0
 70 71  1  0
 71 66  2  0
 72 65  1  0
 73 63  1  0
 75 77  2  0
 76 75  1  0
 78 76  1  0
 79 88  2  0
 79 84  1  0
 80 76  1  0
 81 80  1  0
 82 83  1  0
 82 81  1  0
 83 79  1  0
 84 80  1  0
 84 85  2  0
 85 86  1  0
 87 86  2  0
 88 87  1  0
 89 63  1  0
 89 94  1  0
 89 90  1  0
 90 93  1  1
 90 91  1  0
 92 90  1  0
 94 97  1  0
 95 94  1  0
 95 99  1  0
 96 95  2  0
 99 98  1  0
 99101  1  0
101102  1  0
101100  1  0
M  ISO  4  14 100  22 100  61 101  62 101
M  END
>  <TORSDO>  (35) 
F 25

>  <SCORE>  (35) 
-8.535

>  <name>  (35) 
34

>  <ligand_id>  (35) 
34

>  <original_smiles>  (35) 
[H]C([H])=C([H])C([H])(N([H])C(=O)N1C([H])([H])C([H])([H])C([H])([H])C([H])(n2nc(-c3c([H])c([H])c(Oc4c([H])c([H])c(F)c([H])c4F)c([H])c3[H])c(C(=O)N([H])[H])c2N([H])[H])C1([H])[H])C([H])([H])c1c([H])c([H])c(C(=O)N([H])[H])c(C([H])([H])C([H])([H])C([H])(C([H])([H])Oc2c([H])c([H])c3c(c2[H])C([H])([H])N(C(=O)C([H])(N([H])C(=O)C([H])(N([H])C([H])([H])[H])C([H])([H])[H])C(C([H])([H])[H])(C([H])([H])[H])C([H])([H])[H])C([H])(C(=O)N([H])C2([H])c4c([H])c([H])c([H])c([H])c4C([H])([H])C([H])([H])C2([H])[H])C3([H])[H])[N+]([H])([H])[H])c1[H]

>  <smiles>  (35) 
[H]C([H])=C([H])C([H])(N([H])C(=O)N1C([H])([H])C([H])([H])C([H])([H])C([H])(n2nc(-c3c([H])c([H])c(Oc4c([H])c([H])c(F)c([H])c4F)c([H])c3[H])c(C(=O)N([H])[H])c2N([H])[H])C1([H])[H])C([H])([H])c1c([H])c([H])c(C(=O)N([H])[H])c(C([H])([H])C([H])([H])C([H])(C([H])([H])Oc2c([H])c([H])c3c(c2[H])C([H])([H])N(C(=O)C([H])(N([H])C(=O)C([H])(N([H])C([H])([H])[H])C([H])([H])[H])C(C([H])([H])[H])(C([H])([H])[H])C([H])([H])[H])C([H])(C(=O)N([H])C2([H])c4c([H])c([H])c([H])c([H])c4C([H])([H])C([H])([H])C2([H])[H])C3([H])[H])[N+]([H])([H])[H])c1[H]

$$$$
35:0:0
     RDKit          3D

 92 99  0  0  1  0  0  0  0  0999 V2000
  -30.7880  -21.3420   19.9370 C   0  0  0  0  0  3  0  0  0  0  0  0
  -32.1750  -21.3600   20.4430 N   0  0  0  0  0  4  0  0  0  0  0  0
  -32.2080  -21.5940   21.4200 H   0  0  0  0  0  0  0  0  0  0  0  0
  -32.7240  -22.0350   19.9400 H   0  0  0  0  0  0  0  0  0  0  0  0
  -32.6080  -20.4630   20.3120 H   0  0  0  0  0  0  0  0  0  0  0  0
  -29.9490  -20.2200   20.6100 C   0  0  0  0  0  2  0  0  0  0  0  0
  -30.7100  -18.8820   20.7670 C   0  0  0  0  0  2  0  0  0  0  0  0
  -29.8490  -17.6760   21.1810 C   0  0  0  0  0  2  0  0  0  0  0  0
  -30.7200  -16.5300   21.7390 C   0  0  0  0  0  2  0  0  0  0  0  0
  -30.7010  -14.3780   20.4910 C   0  0  0  0  0  0  0  0  0  0  0  0
  -30.3350  -12.3170   19.1910 C   0  0  0  0  0  2  0  0  0  0  0  0
  -29.3720  -12.5950   18.0220 C   0  0  0  0  0  2  0  0  0  0  0  0
  -27.9080  -12.4480   18.4760 C   0  0  0  0  0  2  0  0  0  0  0  0
  -27.6060  -13.2370   19.7780 C   0  0  0  0  0  3  0  0  0  0  0  0
  -28.6700  -12.9320   20.8550 C   0  0  0  0  0  2  0  0  0  0  0  0
  -29.9950  -13.2370   20.2860 N   0  0  0  0  0  0  0  0  0  0  0  0
  -31.7350  -14.6530   19.8720 O   0  0  0  0  0  0  0  0  0  0  0  0
  -30.1830  -15.2140   21.4010 N   0  0  0  0  0  0  0  0  0  0  0  0
  -29.3370  -14.9160   21.8660 H   0  0  0  0  0  0  0  0  0  0  0  0
  -25.2140  -13.8470   20.5070 C   0  0  0  0  0  0  0  0  0  0  0  0
  -24.1490  -13.0740   20.8870 C   0  0  0  0  0  0  0  0  0  0  0  0
  -24.6090  -11.7220   20.8480 C   0  0  0  0  0  0  0  0  0  0  0  0
  -26.2550  -12.9640   20.2660 N   0  0  0  0  0  0  0  0  0  0  0  0
  -25.8950  -11.6810   20.5230 N   0  0  0  0  0  0  0  0  0  0  0  0
  -23.8860  -10.4600   21.0470 C   0  0  0  0  0  0  0  0  0  0  0  0
  -24.3400   -9.4890   21.9670 C   0  0  0  0  0  3  0  0  0  0  0  0
  -23.6220   -8.2890   22.1530 C   0  0  0  0  0  3  0  0  0  0  0  0
  -22.4350   -8.0520   21.4200 C   0  0  0  0  0  0  0  0  0  0  0  0
  -21.9990   -9.0130   20.4890 C   0  0  0  0  0  3  0  0  0  0  0  0
  -22.7180  -10.2040   20.3020 C   0  0  0  0  0  3  0  0  0  0  0  0
  -21.6840   -6.9060   21.5170 O   0  0  0  0  0  0  0  0  0  0  0  0
  -21.6690   -6.1500   22.6620 C   0  0  0  0  0  0  0  0  0  0  0  0
  -21.2780   -6.6890   23.9070 C   0  0  0  0  0  3  0  0  0  0  0  0
  -21.2090   -5.8570   25.0430 C   0  0  0  0  0  3  0  0  0  0  0  0
  -21.5220   -4.4890   24.9350 C   0  0  0  0  0  0  0  0  0  0  0  0
  -21.9060   -3.9490   23.6960 C   0  0  0  0  0  3  0  0  0  0  0  0
  -21.9770   -4.7780   22.5620 C   0  0  0  0  0  0  0  0  0  0  0  0
  -22.3260   -4.2470   21.3650 F   0  0  0  0  0  0  0  0  0  0  0  0
  -21.4490   -3.6880   26.0240 F   0  0  0  0  0  0  0  0  0  0  0  0
  -22.7550  -13.5500   21.1790 C   0  0  0  0  0  0  0  0  0  0  0  0
  -22.0430  -12.8520   22.0570 N   0  0  0  0  0  0  0  0  0  0  0  0
  -22.3090  -14.5750   20.6660 O   0  0  0  0  0  0  0  0  0  0  0  0
  -22.4190  -12.0250   22.4940 H   0  0  0  0  0  0  0  0  0  0  0  0
  -21.1050  -13.1480   22.2900 H   0  0  0  0  0  0  0  0  0  0  0  0
  -25.3780  -15.2180   20.3310 N   0  0  0  0  0  0  0  0  0  0  0  0
  -24.6160  -15.8780   20.4420 H   0  0  0  0  0  0  0  0  0  0  0  0
  -26.2330  -15.6550   20.0100 H   0  0  0  0  0  0  0  0  0  0  0  0
  -30.1750  -22.7580   20.0900 C   0  0  0  0  0  2  0  0  0  0  0  0
  -28.8380  -23.0130   19.3620 C   0  0  0  0  0  2  0  0  0  0  0  0
  -28.5500  -24.5160   19.1290 C   0  0  0  0  0  2  0  0  0  0  0  0
  -28.3350  -25.3380   20.4170 C   0  0  0  0  0  2  0  0  0  0  0  0
  -28.3970  -26.7470   20.1730 O   0  0  0  0  0  0  0  0  0  0  0  0
  -24.5770  -31.8820   23.2630 C   0  0  0  0  0  0  0  0  0  0  0  0
  -27.2120  -27.4490   20.1780 C   0  0  0  0  0  0  0  0  0  0  0  0
  -23.3700  -30.4840   21.6180 C   0  0  0  0  0  3  0  0  0  0  0  0
  -24.8190  -28.9480   20.1940 C   0  0  0  0  0  0  0  0  0  0  0  0
  -25.8950  -30.8440   21.4210 C   0  0  0  0  0  2  0  0  0  0  0  0
  -25.9780  -29.4750   20.7770 C   0  0  0  0  0  0  0  0  0  0  0  0
  -27.1800  -28.7350   20.7590 C   0  0  0  0  0  3  0  0  0  0  0  0
  -26.0350  -26.9280   19.5990 C   0  0  0  0  0  3  0  0  0  0  0  0
  -24.8420  -27.6740   19.6010 C   0  0  0  0  0  3  0  0  0  0  0  0
  -23.5780  -29.8050   20.2380 C   0  0  0  0  0  2  0  0  0  0  0  0
  -24.6320  -31.0850   22.1590 N   0  0  0  0  0  0  0  0  0  0  0  0
  -23.4960  -32.1540   23.8040 O   0  0  0  0  0  0  0  0  0  0  0  0
  -22.7180  -29.4610   22.5780 C   0  0  0  0  0  0  0  0  0  0  0  0
  -21.3940  -29.2800   22.4480 N   0  0  0  0  0  0  0  0  0  0  0  0
  -23.4010  -28.8340   23.3920 O   0  0  0  0  0  0  0  0  0  0  0  0
  -20.9070  -29.8370   21.7590 H   0  0  0  0  0  0  0  0  0  0  0  0
  -18.0180  -28.0960   22.9390 C   0  0  0  0  0  0  0  0  0  0  0  0
  -20.5760  -28.3430   23.2140 C   0  0  0  0  0  3  0  0  0  0  0  0
  -20.6740  -26.9140   22.6320 C   0  0  0  0  0  2  0  0  0  0  0  0
  -19.5710  -26.5980   21.6170 C   0  0  0  0  0  2  0  0  0  0  0  0
  -18.1890  -26.7470   22.2610 C   0  0  0  0  0  2  0  0  0  0  0  0
  -19.1380  -28.8510   23.3720 C   0  0  0  0  0  0  0  0  0  0  0  0
  -18.9230  -30.1150   23.9660 C   0  0  0  0  0  3  0  0  0  0  0  0
  -17.6200  -30.6210   24.1320 C   0  0  0  0  0  3  0  0  0  0  0  0
  -16.5130  -29.8600   23.7150 C   0  0  0  0  0  3  0  0  0  0  0  0
  -16.7130  -28.6000   23.1240 C   0  0  0  0  0  3  0  0  0  0  0  0
  -25.8640  -32.5090   23.8860 C   0  0  0  0  0  3  0  0  0  0  0  0
  -26.3790  -31.7390   25.1630 C   0  0  1  0  0  0  0  0  0  0  0  0
  -25.2830  -31.5060   26.2280 C   0  0  0  0  0  1  0  0  0  0  0  0
  -26.9580  -30.3590   24.7700 C   0  0  0  0  0  1  0  0  0  0  0  0
  -27.5310  -32.5310   25.8240 C   0  0  0  0  0  1  0  0  0  0  0  0
  -25.5600  -33.9090   24.2110 N   0  0  0  0  0  0  0  0  0  0  0  0
  -25.9010  -34.9570   23.4510 C   0  0  0  0  0  0  0  0  0  0  0  0
  -26.5770  -34.8490   22.4240 O   0  0  0  0  0  0  0  0  0  0  0  0
  -24.9620  -34.0690   25.0090 H   0  0  0  0  0  0  0  0  0  0  0  0
  -24.1850  -36.7570   23.0780 C   0  0  0  0  0  1  0  0  0  0  0  0
  -25.4160  -36.3490   23.9020 C   0  0  0  0  0  3  0  0  0  0  0  0
  -27.5470  -37.2230   24.7530 C   0  0  0  0  0  1  0  0  0  0  0  0
  -26.4560  -37.3960   23.7980 N   0  0  0  0  0  0  0  0  0  0  0  0
  -26.0530  -38.3180   23.9410 H   0  0  0  0  0  0  0  0  0  0  0  0
  1 48  1  0
  1  2  1  0
  1  6  1  0
  2  3  1  0
  4  2  1  0
  5  2  1  0
  6  7  1  0
  7  8  1  0
  8  9  1  0
 10 18  1  0
 11 16  1  0
 12 13  1  0
 12 11  1  0
 14 13  1  0
 14 23  1  0
 14 15  1  0
 16 10  1  0
 16 15  1  0
 17 10  2  0
 18  9  1  0
 18 19  1  0
 20 21  2  0
 21 40  1  0
 22 21  1  0
 22 25  1  0
 23 20  1  0
 23 24  1  0
 24 22  2  0
 25 26  1  0
 26 27  2  0
 28 31  1  0
 28 27  1  0
 29 28  2  0
 30 29  1  0
 30 25  2  0
 31 32  1  0
 32 33  1  0
 33 34  2  0
 35 34  1  0
 35 39  1  0
 36 35  2  0
 37 32  2  0
 37 36  1  0
 38 37  1  0
 40 41  1  0
 41 44  1  0
 41 43  1  0
 42 40  2  0
 45 46  1  0
 45 20  1  0
 47 45  1  0
 49 48  1  0
 50 49  1  0
 50 51  1  0
 52 54  1  0
 52 51  1  0
 53 64  2  0
 54 59  1  0
 55 63  1  0
 55 65  1  0
 56 62  1  0
 56 58  1  0
 57 63  1  0
 58 57  1  0
 59 58  2  0
 60 61  1  0
 60 54  2  0
 61 56  2  0
 62 55  1  0
 63 53  1  0
 65 67  2  0
 66 65  1  0
 68 66  1  0
 69 78  2  0
 69 74  1  0
 70 66  1  0
 70 74  1  0
 71 70  1  0
 72 73  1  0
 72 71  1  0
 73 69  1  0
 74 75  2  0
 75 76  1  0
 77 76  2  0
 78 77  1  0
 79 53  1  0
 79 84  1  0
 79 80  1  0
 80 83  1  1
 80 81  1  0
 82 80  1  0
 84 87  1  0
 85 89  1  0
 85 84  1  0
 86 85  2  0
 89 88  1  0
 91 89  1  0
 91 92  1  0
 91 90  1  0
M  ISO  4  10 100  18 100  51 101  52 101
M  END
>  <TORSDO>  (36) 
F 25

>  <SCORE>  (36) 
-12.314

>  <name>  (36) 
35

>  <ligand_id>  (36) 
35

>  <original_smiles>  (36) 
[H]c1c([H])c([H])c2c(c1[H])C([H])([H])C([H])([H])C([H])([H])C2([H])N([H])C(=O)C1([H])N(C(=O)C([H])(N([H])C(=O)C([H])(N([H])C([H])([H])[H])C([H])([H])[H])C(C([H])([H])[H])(C([H])([H])[H])C([H])([H])[H])C([H])([H])c2c([H])c(OC([H])([H])C([H])([H])C([H])([H])C([H])([H])C([H])(C([H])([H])C([H])([H])C([H])([H])C([H])([H])N([H])C(=O)N3C([H])([H])C([H])([H])C([H])([H])C([H])(n4nc(-c5c([H])c([H])c(Oc6c([H])c([H])c(F)c([H])c6F)c([H])c5[H])c(C(=O)N([H])[H])c4N([H])[H])C3([H])[H])[N+]([H])([H])[H])c([H])c([H])c2C1([H])[H]

>  <smiles>  (36) 
[H]c1c([H])c([H])c2c(c1[H])C([H])([H])C([H])([H])C([H])([H])C2([H])N([H])C(=O)C1([H])N(C(=O)C([H])(N([H])C(=O)C([H])(N([H])C([H])([H])[H])C([H])([H])[H])C(C([H])([H])[H])(C([H])([H])[H])C([H])([H])[H])C([H])([H])c2c([H])c(OC([H])([H])C([H])([H])C([H])([H])C([H])([H])C([H])(C([H])([H])C([H])([H])C([H])([H])C([H])([H])N([H])C(=O)N3C([H])([H])C([H])([H])C([H])([H])C([H])(n4nc(-c5c([H])c([H])c(Oc6c([H])c([H])c(F)c([H])c6F)c([H])c5[H])c(C(=O)N([H])[H])c4N([H])[H])C3([H])[H])[N+]([H])([H])[H])c([H])c([H])c2C1([H])[H]

$$$$
36:0:0
     RDKit          3D

 96105  0  0  1  0  0  0  0  0999 V2000
  -28.0120  -21.7260   21.8810 C   0  0  0  0  0  3  0  0  0  0  0  0
  -27.9410  -23.1060   21.6360 C   0  0  0  0  0  3  0  0  0  0  0  0
  -29.6870  -21.6000   20.1460 C   0  0  0  0  0  3  0  0  0  0  0  0
  -28.9020  -20.9490   21.1160 C   0  0  0  0  0  0  0  0  0  0  0  0
  -28.7550  -23.6700   20.6380 C   0  0  0  0  0  0  0  0  0  0  0  0
  -29.6030  -22.9230   19.8980 N   0  0  0  0  0  0  0  0  0  0  0  0
  -28.6160  -25.0930   20.3130 C   0  0  0  0  0  3  0  0  0  0  0  0
  -29.0880  -25.6680   19.1910 C   0  0  0  0  0  3  0  0  0  0  0  0
  -28.9140  -27.1020   18.9460 C   0  0  0  0  0  0  0  0  0  0  0  0
  -28.8810  -27.9390   19.8530 O   0  0  0  0  0  0  0  0  0  0  0  0
  -28.7500  -27.5570   17.4880 C   0  0  0  0  0  2  0  0  0  0  0  0
  -27.4400  -27.2360   17.0080 O   0  0  0  0  0  0  0  0  0  0  0  0
  -24.7290  -30.2400   22.8840 C   0  0  0  0  0  0  0  0  0  0  0  0
  -26.3490  -27.7300   17.6900 C   0  0  0  0  0  0  0  0  0  0  0  0
  -23.0870  -29.2950   21.2870 C   0  0  0  0  0  3  0  0  0  0  0  0
  -24.0180  -28.6380   19.0030 C   0  0  0  0  0  0  0  0  0  0  0  0
  -25.3370  -30.1780   20.4700 C   0  0  0  0  0  2  0  0  0  0  0  0
  -25.2710  -29.1440   19.3690 C   0  0  0  0  0  0  0  0  0  0  0  0
  -26.4360  -28.6950   18.7200 C   0  0  0  0  0  3  0  0  0  0  0  0
  -25.0810  -27.2340   17.3240 C   0  0  0  0  0  3  0  0  0  0  0  0
  -23.9150  -27.6800   17.9790 C   0  0  0  0  0  3  0  0  0  0  0  0
  -22.8250  -29.1770   19.7590 C   0  0  0  0  0  2  0  0  0  0  0  0
  -24.4230  -29.8990   21.6000 N   0  0  0  0  0  0  0  0  0  0  0  0
  -23.9010  -30.1070   23.7950 O   0  0  0  0  0  0  0  0  0  0  0  0
  -22.8770  -27.9060   21.9310 C   0  0  0  0  0  0  0  0  0  0  0  0
  -21.6800  -27.3340   21.7320 N   0  0  0  0  0  0  0  0  0  0  0  0
  -23.7840  -27.3580   22.5660 O   0  0  0  0  0  0  0  0  0  0  0  0
  -20.9910  -27.8530   21.2060 H   0  0  0  0  0  0  0  0  0  0  0  0
  -19.1740  -24.7630   21.3420 C   0  0  0  0  0  0  0  0  0  0  0  0
  -21.2620  -26.0170   22.2070 C   0  0  0  0  0  3  0  0  0  0  0  0
  -22.0890  -24.8960   21.5370 C   0  0  0  0  0  2  0  0  0  0  0  0
  -21.4310  -24.3400   20.2710 C   0  0  0  0  0  2  0  0  0  0  0  0
  -20.0440  -23.7720   20.5850 C   0  0  0  0  0  2  0  0  0  0  0  0
  -19.7470  -25.8290   22.0860 C   0  0  0  0  0  0  0  0  0  0  0  0
  -18.8940  -26.7470   22.7350 C   0  0  0  0  0  3  0  0  0  0  0  0
  -17.4950  -26.6140   22.6520 C   0  0  0  0  0  3  0  0  0  0  0  0
  -16.9350  -25.5470   21.9300 C   0  0  0  0  0  3  0  0  0  0  0  0
  -17.7730  -24.6220   21.2820 C   0  0  0  0  0  3  0  0  0  0  0  0
  -26.1200  -30.8380   23.2650 C   0  0  0  0  0  3  0  0  0  0  0  0
  -25.8820  -32.1300   23.9210 N   0  0  0  0  0  0  0  0  0  0  0  0
  -26.1980  -33.3190   23.3910 C   0  0  0  0  0  0  0  0  0  0  0  0
  -26.7900  -33.4380   22.3150 O   0  0  0  0  0  0  0  0  0  0  0  0
  -25.3520  -32.1140   24.7810 H   0  0  0  0  0  0  0  0  0  0  0  0
  -24.5570  -35.2200   23.5160 C   0  0  0  0  0  1  0  0  0  0  0  0
  -25.7870  -34.5790   24.1770 C   0  0  0  0  0  3  0  0  0  0  0  0
  -27.9810  -35.1320   25.1280 C   0  0  0  0  0  1  0  0  0  0  0  0
  -26.8680  -35.5810   24.2930 N   0  0  0  0  0  0  0  0  0  0  0  0
  -26.5140  -36.4500   24.6800 H   0  0  0  0  0  0  0  0  0  0  0  0
  -26.9730  -29.8870   24.1920 C   0  0  1  0  0  0  0  0  0  0  0  0
  -26.2080  -29.3760   25.4350 C   0  0  0  0  0  1  0  0  0  0  0  0
  -27.4610  -28.6540   23.3960 C   0  0  0  0  0  1  0  0  0  0  0  0
  -28.2410  -30.6270   24.6800 C   0  0  0  0  0  1  0  0  0  0  0  0
  -28.9920  -19.4450   21.3260 C   0  0  0  0  0  2  0  0  0  0  0  0
  -29.0880  -18.6600   20.0020 C   0  0  0  0  0  2  0  0  0  0  0  0
  -32.4780  -14.2380   19.1890 C   0  0  0  0  0  0  0  0  0  0  0  0
  -31.9930  -11.8380   18.9110 C   0  0  0  0  0  2  0  0  0  0  0  0
  -30.9580  -11.6470   17.7830 C   0  0  0  0  0  2  0  0  0  0  0  0
  -29.5210  -11.7710   18.3280 C   0  0  0  0  0  2  0  0  0  0  0  0
  -29.3200  -13.0330   19.2080 C   0  0  0  0  0  3  0  0  0  0  0  0
  -30.4540  -13.1560   20.2490 C   0  0  0  0  0  2  0  0  0  0  0  0
  -31.7420  -13.1460   19.5310 N   0  0  0  0  0  0  0  0  0  0  0  0
  -33.5080  -14.1700   18.5090 O   0  0  0  0  0  0  0  0  0  0  0  0
  -30.4320  -17.1500   18.4560 C   0  0  0  0  0  2  0  0  0  0  0  0
  -30.7760  -16.9830   20.9640 C   0  0  0  0  0  2  0  0  0  0  0  0
  -31.7370  -16.3620   18.2820 C   0  0  0  0  0  2  0  0  0  0  0  0
  -32.0270  -16.1280   20.6800 C   0  0  0  0  0  2  0  0  0  0  0  0
  -30.4300  -17.9260   19.7870 C   0  0  0  0  0  3  0  0  0  0  0  0
  -31.8770  -15.4270   19.4000 N   0  0  0  0  0  0  0  0  0  0  0  0
  -27.2420  -14.1100   20.2880 C   0  0  0  0  0  0  0  0  0  0  0  0
  -26.0610  -13.5760   20.7300 C   0  0  0  0  0  0  0  0  0  0  0  0
  -26.1600  -12.1680   20.5100 C   0  0  0  0  0  0  0  0  0  0  0  0
  -28.0000  -13.0390   19.8390 N   0  0  0  0  0  0  0  0  0  0  0  0
  -27.3550  -11.8590   20.0240 N   0  0  0  0  0  0  0  0  0  0  0  0
  -25.1640  -11.1020   20.6830 C   0  0  0  0  0  0  0  0  0  0  0  0
  -25.4310   -9.9680   21.4810 C   0  0  0  0  0  3  0  0  0  0  0  0
  -24.4520   -8.9650   21.6480 C   0  0  0  0  0  3  0  0  0  0  0  0
  -23.1920   -9.0900   21.0180 C   0  0  0  0  0  0  0  0  0  0  0  0
  -22.9390  -10.2110   20.2070 C   0  0  0  0  0  3  0  0  0  0  0  0
  -23.9160  -11.2070   20.0370 C   0  0  0  0  0  3  0  0  0  0  0  0
  -22.1900   -8.1540   21.1020 O   0  0  0  0  0  0  0  0  0  0  0  0
  -21.9880   -7.4150   22.2410 C   0  0  0  0  0  0  0  0  0  0  0  0
  -21.7210   -8.0250   23.4860 C   0  0  0  0  0  3  0  0  0  0  0  0
  -21.4510   -7.2280   24.6160 C   0  0  0  0  0  3  0  0  0  0  0  0
  -21.4380   -5.8250   24.5030 C   0  0  0  0  0  0  0  0  0  0  0  0
  -21.6980   -5.2170   23.2620 C   0  0  0  0  0  3  0  0  0  0  0  0
  -21.9690   -6.0100   22.1330 C   0  0  0  0  0  0  0  0  0  0  0  0
  -22.1990   -5.4190   20.9360 F   0  0  0  0  0  0  0  0  0  0  0  0
  -21.1720   -5.0590   25.5860 F   0  0  0  0  0  0  0  0  0  0  0  0
  -24.8690  -14.3350   21.2380 C   0  0  0  0  0  0  0  0  0  0  0  0
  -24.1330  -13.7600   22.1810 N   0  0  0  0  0  0  0  0  0  0  0  0
  -24.6120  -15.4680   20.8330 O   0  0  0  0  0  0  0  0  0  0  0  0
  -24.3560  -12.8390   22.5280 H   0  0  0  0  0  0  0  0  0  0  0  0
  -23.3350  -14.2470   22.5620 H   0  0  0  0  0  0  0  0  0  0  0  0
  -27.7230  -15.4130   20.2150 N   0  0  0  0  0  0  0  0  0  0  0  0
  -27.1710  -16.2130   20.5020 H   0  0  0  0  0  0  0  0  0  0  0  0
  -28.6280  -15.6650   19.8430 H   0  0  0  0  0  0  0  0  0  0  0  0
  2  1  1  0
  3  4  1  0
  4 53  1  0
  4  1  2  0
  5  2  2  0
  6  3  2  0
  6  5  1  0
  7  5  1  0
  8  7  2  0
  9  8  1  0
  9 10  2  0
 11  9  1  0
 12 11  1  0
 12 14  1  0
 13 24  2  0
 14 19  1  0
 15 23  1  0
 15 25  1  0
 16 18  1  0
 16 22  1  0
 17 23  1  0
 18 17  1  0
 19 18  2  0
 20 14  2  0
 20 21  1  0
 21 16  2  0
 22 15  1  0
 23 13  1  0
 25 27  2  0
 26 25  1  0
 28 26  1  0
 29 34  1  0
 30 26  1  0
 31 30  1  0
 32 33  1  0
 32 31  1  0
 33 29  1  0
 34 30  1  0
 34 35  2  0
 36 35  1  0
 37 36  2  0
 38 29  2  0
 38 37  1  0
 39 13  1  0
 39 40  1  0
 39 49  1  0
 40 43  1  0
 41 40  1  0
 41 45  1  0
 42 41  2  0
 45 44  1  0
 45 47  1  0
 47 48  1  0
 47 46  1  0
 49 52  1  1
 49 50  1  0
 51 49  1  0
 54 53  1  0
 55 68  1  0
 55 61  1  0
 56 61  1  0
 57 58  1  0
 57 56  1  0
 59 58  1  0
 59 72  1  0
 59 60  1  0
 61 60  1  0
 62 55  2  0
 63 67  1  0
 65 63  1  0
 65 68  1  0
 66 64  1  0
 67 54  1  0
 67 64  1  0
 68 66  1  0
 69 70  2  0
 70 89  1  0
 71 74  1  0
 71 70  1  0
 72 73  1  0
 72 69  1  0
 73 71  2  0
 74 75  1  0
 75 76  2  0
 77 80  1  0
 77 76  1  0
 78 77  2  0
 79 78  1  0
 79 74  2  0
 80 81  1  0
 81 82  1  0
 82 83  2  0
 84 83  1  0
 84 88  1  0
 85 84  2  0
 86 81  2  0
 86 85  1  0
 87 86  1  0
 89 90  1  0
 90 92  1  0
 90 93  1  0
 91 89  2  0
 94 69  1  0
 94 95  1  0
 96 94  1  0
M  ISO  4  11 101  12 101  55 100  68 100
M  END
>  <TORSDO>  (37) 
F 21

>  <SCORE>  (37) 
-8.442

>  <name>  (37) 
36

>  <ligand_id>  (37) 
36

>  <original_smiles>  (37) 
[H]C(C(=O)C([H])([H])Oc1c([H])c([H])c2c(c1[H])C([H])([H])N(C(=O)C([H])(N([H])C(=O)C([H])(N([H])C([H])([H])[H])C([H])([H])[H])C(C([H])([H])[H])(C([H])([H])[H])C([H])([H])[H])C([H])(C(=O)N([H])C1([H])c3c([H])c([H])c([H])c([H])c3C([H])([H])C([H])([H])C1([H])[H])C2([H])[H])=C([H])c1nc([H])c(C([H])([H])C([H])([H])C2([H])C([H])([H])C([H])([H])N(C(=O)N3C([H])([H])C([H])([H])C([H])([H])C([H])(n4nc(-c5c([H])c([H])c(Oc6c([H])c([H])c(F)c([H])c6F)c([H])c5[H])c(C(=O)N([H])[H])c4N([H])[H])C3([H])[H])C([H])([H])C2([H])[H])c([H])c1[H]

>  <smiles>  (37) 
[H]C(C(=O)C([H])([H])Oc1c([H])c([H])c2c(c1[H])C([H])([H])N(C(=O)C([H])(N([H])C(=O)C([H])(N([H])C([H])([H])[H])C([H])([H])[H])C(C([H])([H])[H])(C([H])([H])[H])C([H])([H])[H])C([H])(C(=O)N([H])C1([H])c3c([H])c([H])c([H])c([H])c3C([H])([H])C([H])([H])C1([H])[H])C2([H])[H])=C([H])c1nc([H])c(C([H])([H])C([H])([H])C2([H])C([H])([H])C([H])([H])N(C(=O)N3C([H])([H])C([H])([H])C([H])([H])C([H])(n4nc(-c5c([H])c([H])c(Oc6c([H])c([H])c(F)c([H])c6F)c([H])c5[H])c(C(=O)N([H])[H])c4N([H])[H])C3([H])[H])C([H])([H])C2([H])[H])c([H])c1[H]

$$$$
37:0:0
     RDKit          3D

 97105  0  0  1  0  0  0  0  0999 V2000
  -30.7720  -22.5570   21.2840 C   0  0  0  0  0  3  0  0  0  0  0  0
  -30.6400  -22.4320   23.7030 C   0  0  0  0  0  3  0  0  0  0  0  0
  -30.2880  -23.0870   22.5020 C   0  0  0  0  0  0  0  0  0  0  0  0
  -31.5980  -21.4090   21.2630 C   0  0  0  0  0  0  0  0  0  0  0  0
  -31.4660  -21.2850   23.6990 C   0  0  0  0  0  0  0  0  0  0  0  0
  -31.9690  -20.7720   22.4770 C   0  0  0  0  0  0  0  0  0  0  0  0
  -31.8030  -20.6190   25.0240 C   0  0  0  0  0  1  0  0  0  0  0  0
  -32.8530  -19.5250   22.4940 C   0  0  0  0  0  1  0  0  0  0  0  0
  -32.0530  -20.9300   19.9350 C   0  0  0  0  0  0  0  0  0  0  0  0
  -33.1930  -21.1010   19.4950 O   0  0  0  0  0  0  0  0  0  0  0  0
  -31.0130  -20.1630   19.1240 C   0  0  0  0  0  2  0  0  0  0  0  0
  -30.9950  -18.6570   19.4510 C   0  0  0  0  0  2  0  0  0  0  0  0
  -29.6070  -18.0480   19.2220 C   0  0  0  0  0  2  0  0  0  0  0  0
  -29.6360  -16.5420   18.9340 C   0  0  0  0  0  2  0  0  0  0  0  0
  -30.7060  -14.6270   19.9830 C   0  0  0  0  0  0  0  0  0  0  0  0
  -30.3910  -12.4300   18.9630 C   0  0  0  0  0  2  0  0  0  0  0  0
  -29.4260  -12.6410   17.7750 C   0  0  0  0  0  2  0  0  0  0  0  0
  -27.9560  -12.5380   18.2370 C   0  0  0  0  0  2  0  0  0  0  0  0
  -27.6590  -13.3780   19.5100 C   0  0  0  0  0  3  0  0  0  0  0  0
  -28.7460  -13.1700   20.5920 C   0  0  0  0  0  2  0  0  0  0  0  0
  -30.0610  -13.4300   19.9840 N   0  0  0  0  0  0  0  0  0  0  0  0
  -31.8540  -14.7870   19.5660 O   0  0  0  0  0  0  0  0  0  0  0  0
  -29.8730  -15.6720   20.0990 N   0  0  0  0  0  0  0  0  0  0  0  0
  -29.0500  -15.4810   20.6510 H   0  0  0  0  0  0  0  0  0  0  0  0
  -25.2880  -14.0050   20.2900 C   0  0  0  0  0  0  0  0  0  0  0  0
  -24.2260  -13.2420   20.6950 C   0  0  0  0  0  0  0  0  0  0  0  0
  -24.6810  -11.8890   20.6590 C   0  0  0  0  0  0  0  0  0  0  0  0
  -26.3200  -13.1150   20.0300 N   0  0  0  0  0  0  0  0  0  0  0  0
  -25.9610  -11.8380   20.3130 N   0  0  0  0  0  0  0  0  0  0  0  0
  -23.9600  -10.6300   20.8770 C   0  0  0  0  0  0  0  0  0  0  0  0
  -24.4190   -9.6690   21.8040 C   0  0  0  0  0  3  0  0  0  0  0  0
  -23.6980   -8.4730   22.0130 C   0  0  0  0  0  3  0  0  0  0  0  0
  -22.5040   -8.2310   21.2920 C   0  0  0  0  0  0  0  0  0  0  0  0
  -22.0640   -9.1810   20.3540 C   0  0  0  0  0  3  0  0  0  0  0  0
  -22.7850  -10.3690   20.1450 C   0  0  0  0  0  3  0  0  0  0  0  0
  -21.7520   -7.0860   21.4080 O   0  0  0  0  0  0  0  0  0  0  0  0
  -21.7370   -6.3510   22.5670 C   0  0  0  0  0  0  0  0  0  0  0  0
  -21.3530   -6.9160   23.8020 C   0  0  0  0  0  3  0  0  0  0  0  0
  -21.2820   -6.1070   24.9540 C   0  0  0  0  0  3  0  0  0  0  0  0
  -21.5840   -4.7340   24.8720 C   0  0  0  0  0  0  0  0  0  0  0  0
  -21.9610   -4.1690   23.6390 C   0  0  0  0  0  3  0  0  0  0  0  0
  -22.0340   -4.9760   22.4910 C   0  0  0  0  0  0  0  0  0  0  0  0
  -22.3750   -4.4230   21.3020 F   0  0  0  0  0  0  0  0  0  0  0  0
  -21.5120   -3.9570   25.9750 F   0  0  0  0  0  0  0  0  0  0  0  0
  -22.8380  -13.7270   21.0030 C   0  0  0  0  0  0  0  0  0  0  0  0
  -22.1390  -13.0450   21.9040 N   0  0  0  0  0  0  0  0  0  0  0  0
  -22.3880  -14.7480   20.4870 O   0  0  0  0  0  0  0  0  0  0  0  0
  -22.5220  -12.2280   22.3540 H   0  0  0  0  0  0  0  0  0  0  0  0
  -21.2090  -13.3510   22.1560 H   0  0  0  0  0  0  0  0  0  0  0  0
  -25.4540  -15.3730   20.1020 N   0  0  0  0  0  0  0  0  0  0  0  0
  -24.7090  -16.0440   20.2560 H   0  0  0  0  0  0  0  0  0  0  0  0
  -26.3060  -15.8030   19.7660 H   0  0  0  0  0  0  0  0  0  0  0  0
  -29.4200  -24.3080   22.5490 C   0  0  0  0  0  0  0  0  0  0  0  0
  -28.8700  -24.6480   23.6040 O   0  0  0  0  0  0  0  0  0  0  0  0
  -29.2550  -25.1110   21.3140 C   0  0  0  0  0  3  0  0  0  0  0  0
  -28.2220  -25.9590   21.1690 C   0  0  0  0  0  3  0  0  0  0  0  0
  -28.0290  -26.7060   20.0350 O   0  0  0  0  0  0  0  0  0  0  0  0
  -24.4060  -31.9060   23.2150 C   0  0  0  0  0  0  0  0  0  0  0  0
  -26.9010  -27.4830   20.0350 C   0  0  0  0  0  0  0  0  0  0  0  0
  -23.1410  -30.5660   21.5610 C   0  0  0  0  0  3  0  0  0  0  0  0
  -24.5400  -29.0180   20.0920 C   0  0  0  0  0  0  0  0  0  0  0  0
  -25.6680  -30.8740   21.3370 C   0  0  0  0  0  2  0  0  0  0  0  0
  -25.7140  -29.5150   20.6750 C   0  0  0  0  0  0  0  0  0  0  0  0
  -26.8990  -28.7530   20.6480 C   0  0  0  0  0  3  0  0  0  0  0  0
  -25.7210  -26.9900   19.4440 C   0  0  0  0  0  3  0  0  0  0  0  0
  -24.5380  -27.7560   19.4710 C   0  0  0  0  0  3  0  0  0  0  0  0
  -23.3140  -29.9000   20.1680 C   0  0  0  0  0  2  0  0  0  0  0  0
  -24.4250  -31.1280   22.0970 N   0  0  0  0  0  0  0  0  0  0  0  0
  -23.3410  -32.1970   23.7750 O   0  0  0  0  0  0  0  0  0  0  0  0
  -22.4750  -29.5470   22.5120 C   0  0  0  0  0  0  0  0  0  0  0  0
  -21.1460  -29.4030   22.3960 N   0  0  0  0  0  0  0  0  0  0  0  0
  -23.1500  -28.8890   23.3070 O   0  0  0  0  0  0  0  0  0  0  0  0
  -20.6630  -29.9810   21.7210 H   0  0  0  0  0  0  0  0  0  0  0  0
  -17.7430  -28.3080   22.9170 C   0  0  0  0  0  0  0  0  0  0  0  0
  -20.3110  -28.4750   23.1600 C   0  0  0  0  0  3  0  0  0  0  0  0
  -20.3590  -27.0550   22.5520 C   0  0  0  0  0  2  0  0  0  0  0  0
  -19.2340  -26.7910   21.5460 C   0  0  0  0  0  2  0  0  0  0  0  0
  -17.8660  -26.9680   22.2130 C   0  0  0  0  0  2  0  0  0  0  0  0
  -18.8920  -29.0240   23.3480 C   0  0  0  0  0  0  0  0  0  0  0  0
  -18.7230  -30.2820   23.9650 C   0  0  0  0  0  3  0  0  0  0  0  0
  -17.4390  -30.8240   24.1570 C   0  0  0  0  0  3  0  0  0  0  0  0
  -16.3050  -30.1050   23.7450 C   0  0  0  0  0  3  0  0  0  0  0  0
  -16.4580  -28.8480   23.1300 C   0  0  0  0  0  3  0  0  0  0  0  0
  -25.7190  -32.4870   23.8270 C   0  0  0  0  0  3  0  0  0  0  0  0
  -25.4660  -33.8940   24.1610 N   0  0  0  0  0  0  0  0  0  0  0  0
  -25.8400  -34.9330   23.4040 C   0  0  0  0  0  0  0  0  0  0  0  0
  -26.5070  -34.8080   22.3740 O   0  0  0  0  0  0  0  0  0  0  0  0
  -24.8760  -34.0690   24.9620 H   0  0  0  0  0  0  0  0  0  0  0  0
  -24.1780  -36.7860   23.0490 C   0  0  0  0  0  1  0  0  0  0  0  0
  -25.4010  -36.3370   23.8630 C   0  0  0  0  0  3  0  0  0  0  0  0
  -27.5690  -37.1370   24.6960 C   0  0  0  0  0  1  0  0  0  0  0  0
  -26.4700  -37.3540   23.7570 N   0  0  0  0  0  0  0  0  0  0  0  0
  -26.0970  -38.2850   23.9180 H   0  0  0  0  0  0  0  0  0  0  0  0
  -26.2190  -31.6920   25.0960 C   0  0  1  0  0  0  0  0  0  0  0  0
  -25.1260  -31.4890   26.1700 C   0  0  0  0  0  1  0  0  0  0  0  0
  -26.7490  -30.2960   24.6920 C   0  0  0  0  0  1  0  0  0  0  0  0
  -27.4010  -32.4420   25.7530 C   0  0  0  0  0  1  0  0  0  0  0  0
  1  3  1  0
  3 53  1  0
  3  2  2  0
  4  1  2  0
  4  6  1  0
  5  2  1  0
  5  7  1  0
  6  8  1  0
  6  5  2  0
  9  4  1  0
 10  9  2  0
 11 12  1  0
 11  9  1  0
 13 12  1  0
 14 13  1  0
 14 23  1  0
 15 21  1  0
 15 23  1  0
 16 21  1  0
 17 18  1  0
 17 16  1  0
 19 18  1  0
 19 28  1  0
 19 20  1  0
 21 20  1  0
 22 15  2  0
 23 24  1  0
 25 26  2  0
 26 45  1  0
 27 26  1  0
 27 30  1  0
 28 25  1  0
 28 29  1  0
 29 27  2  0
 30 31  1  0
 31 32  2  0
 33 36  1  0
 33 32  1  0
 34 33  2  0
 35 34  1  0
 35 30  2  0
 36 37  1  0
 37 38  1  0
 38 39  2  0
 40 39  1  0
 40 44  1  0
 41 40  2  0
 42 37  2  0
 42 41  1  0
 43 42  1  0
 45 46  1  0
 46 49  1  0
 46 48  1  0
 47 45  2  0
 50 51  1  0
 50 25  1  0
 52 50  1  0
 53 54  2  0
 55 53  1  0
 56 55  2  0
 57 59  1  0
 57 56  1  0
 58 69  2  0
 59 64  1  0
 60 68  1  0
 60 70  1  0
 61 67  1  0
 61 63  1  0
 62 68  1  0
 63 62  1  0
 64 63  2  0
 65 66  1  0
 65 59  2  0
 66 61  2  0
 67 60  1  0
 68 58  1  0
 70 72  2  0
 71 70  1  0
 73 71  1  0
 74 83  2  0
 74 79  1  0
 75 71  1  0
 75 79  1  0
 76 75  1  0
 77 78  1  0
 77 76  1  0
 78 74  1  0
 79 80  2  0
 80 81  1  0
 82 81  2  0
 83 82  1  0
 84 58  1  0
 84 85  1  0
 84 94  1  0
 85 88  1  0
 86 90  1  0
 86 85  1  0
 87 86  2  0
 90 89  1  0
 92 90  1  0
 92 93  1  0
 92 91  1  0
 94 97  1  1
 94 95  1  0
 96 94  1  0
M  ISO  4  15 100  23 100  56 101  57 101
M  END
>  <TORSDO>  (38) 
F 23

>  <SCORE>  (38) 
-11.621

>  <name>  (38) 
37

>  <ligand_id>  (38) 
37

>  <original_smiles>  (38) 
[H]C(Oc1c([H])c([H])c2c(c1[H])C([H])([H])N(C(=O)C([H])(N([H])C(=O)C([H])(N([H])C([H])([H])[H])C([H])([H])[H])C(C([H])([H])[H])(C([H])([H])[H])C([H])([H])[H])C([H])(C(=O)N([H])C1([H])c3c([H])c([H])c([H])c([H])c3C([H])([H])C([H])([H])C1([H])[H])C2([H])[H])=C([H])C(=O)c1c([H])c(C(=O)C([H])([H])C([H])([H])C([H])([H])C([H])([H])N([H])C(=O)N2C([H])([H])C([H])([H])C([H])([H])C([H])(n3nc(-c4c([H])c([H])c(Oc5c([H])c([H])c(F)c([H])c5F)c([H])c4[H])c(C(=O)N([H])[H])c3N([H])[H])C2([H])[H])c(C([H])([H])[H])c(C([H])([H])[H])c1[H]

>  <smiles>  (38) 
[H]C(Oc1c([H])c([H])c2c(c1[H])C([H])([H])N(C(=O)C([H])(N([H])C(=O)C([H])(N([H])C([H])([H])[H])C([H])([H])[H])C(C([H])([H])[H])(C([H])([H])[H])C([H])([H])[H])C([H])(C(=O)N([H])C1([H])c3c([H])c([H])c([H])c([H])c3C([H])([H])C([H])([H])C1([H])[H])C2([H])[H])=C([H])C(=O)c1c([H])c(C(=O)C([H])([H])C([H])([H])C([H])([H])C([H])([H])N([H])C(=O)N2C([H])([H])C([H])([H])C([H])([H])C([H])(n3nc(-c4c([H])c([H])c(Oc5c([H])c([H])c(F)c([H])c5F)c([H])c4[H])c(C(=O)N([H])[H])c3N([H])[H])C2([H])[H])c(C([H])([H])[H])c(C([H])([H])[H])c1[H]

$$$$
38:0:0
     RDKit          3D

 93101  0  0  1  0  0  0  0  0999 V2000
  -28.1800  -20.7260   20.4830 C   0  0  0  0  0  3  0  0  0  0  0  0
  -29.8770  -21.3950   22.0950 C   0  0  0  0  0  3  0  0  0  0  0  0
  -27.6260  -22.0200   20.5300 C   0  0  0  0  0  3  0  0  0  0  0  0
  -29.3260  -22.6900   22.1390 C   0  0  0  0  0  3  0  0  0  0  0  0
  -29.3170  -20.4010   21.2610 C   0  0  0  0  0  0  0  0  0  0  0  0
  -28.1940  -23.0070   21.3620 C   0  0  0  0  0  0  0  0  0  0  0  0
  -29.8980  -19.0260   21.2930 C   0  0  0  0  0  0  0  0  0  0  0  0
  -30.3580  -18.5250   22.3230 O   0  0  0  0  0  0  0  0  0  0  0  0
  -29.9750  -18.2330   19.9820 C   0  0  0  0  0  2  0  0  0  0  0  0
  -31.4100  -17.7920   19.6210 C   0  0  0  0  0  2  0  0  0  0  0  0
  -32.0310  -16.7270   20.5490 C   0  0  0  0  0  2  0  0  0  0  0  0
  -31.7580  -14.4240   19.6410 C   0  0  0  0  0  0  0  0  0  0  0  0
  -31.3090  -12.1150   18.9010 C   0  0  0  0  0  2  0  0  0  0  0  0
  -30.3140  -12.0850   17.7270 C   0  0  0  0  0  2  0  0  0  0  0  0
  -28.8630  -12.0780   18.2430 C   0  0  0  0  0  2  0  0  0  0  0  0
  -28.6010  -13.1830   19.2990 C   0  0  0  0  0  3  0  0  0  0  0  0
  -29.6960  -13.1700   20.3880 C   0  0  0  0  0  2  0  0  0  0  0  0
  -31.0120  -13.2920   19.7290 N   0  0  0  0  0  0  0  0  0  0  0  0
  -32.7470  -14.5310   18.9110 O   0  0  0  0  0  0  0  0  0  0  0  0
  -31.3660  -15.4300   20.4330 N   0  0  0  0  0  0  0  0  0  0  0  0
  -30.5680  -15.2590   21.0260 H   0  0  0  0  0  0  0  0  0  0  0  0
  -26.3540  -14.0500   20.2130 C   0  0  0  0  0  0  0  0  0  0  0  0
  -25.2330  -13.3980   20.6510 C   0  0  0  0  0  0  0  0  0  0  0  0
  -25.5210  -12.0030   20.5480 C   0  0  0  0  0  0  0  0  0  0  0  0
  -27.2640  -13.0590   19.8780 N   0  0  0  0  0  0  0  0  0  0  0  0
  -26.7680  -11.8210   20.1320 N   0  0  0  0  0  0  0  0  0  0  0  0
  -24.6650  -10.8310   20.7660 C   0  0  0  0  0  0  0  0  0  0  0  0
  -24.9990   -9.8370   21.7140 C   0  0  0  0  0  3  0  0  0  0  0  0
  -24.1510   -8.7290   21.9180 C   0  0  0  0  0  3  0  0  0  0  0  0
  -22.9530   -8.6050   21.1750 C   0  0  0  0  0  0  0  0  0  0  0  0
  -22.6360   -9.5840   20.2180 C   0  0  0  0  0  3  0  0  0  0  0  0
  -23.4840  -10.6850   20.0110 C   0  0  0  0  0  3  0  0  0  0  0  0
  -22.0810   -7.5490   21.2880 O   0  0  0  0  0  0  0  0  0  0  0  0
  -21.8870   -6.9010   22.4820 C   0  0  0  0  0  0  0  0  0  0  0  0
  -21.4390   -7.5800   23.6350 C   0  0  0  0  0  3  0  0  0  0  0  0
  -21.1870   -6.8620   24.8210 C   0  0  0  0  0  3  0  0  0  0  0  0
  -21.3710   -5.4660   24.8540 C   0  0  0  0  0  0  0  0  0  0  0  0
  -21.8110   -4.7880   23.7050 C   0  0  0  0  0  3  0  0  0  0  0  0
  -22.0650   -5.5020   22.5210 C   0  0  0  0  0  0  0  0  0  0  0  0
  -22.4690   -4.8400   21.4100 F   0  0  0  0  0  0  0  0  0  0  0  0
  -21.1210   -4.7760   25.9910 F   0  0  0  0  0  0  0  0  0  0  0  0
  -23.9300  -14.0290   21.0520 C   0  0  0  0  0  0  0  0  0  0  0  0
  -23.2040  -13.4030   21.9730 N   0  0  0  0  0  0  0  0  0  0  0  0
  -23.5710  -15.1080   20.5840 O   0  0  0  0  0  0  0  0  0  0  0  0
  -23.5090  -12.5280   22.3730 H   0  0  0  0  0  0  0  0  0  0  0  0
  -22.3320  -13.8080   22.2840 H   0  0  0  0  0  0  0  0  0  0  0  0
  -26.6700  -15.3960   20.0540 N   0  0  0  0  0  0  0  0  0  0  0  0
  -25.9980  -16.1340   20.2340 H   0  0  0  0  0  0  0  0  0  0  0  0
  -27.5360  -15.7360   19.6570 H   0  0  0  0  0  0  0  0  0  0  0  0
  -27.5670  -24.3860   21.4700 C   0  0  0  0  0  2  0  0  0  0  0  0
  -28.4000  -25.5040   20.8200 C   0  0  0  0  0  2  0  0  0  0  0  0
  -28.2770  -25.5760   19.2800 C   0  0  0  0  0  2  0  0  0  0  0  0
  -28.2270  -26.9310   18.8190 O   0  0  0  0  0  0  0  0  0  0  0  0
  -24.6080  -31.5030   22.8570 C   0  0  0  0  0  0  0  0  0  0  0  0
  -27.0330  -27.5950   18.9950 C   0  0  0  0  0  0  0  0  0  0  0  0
  -23.2740  -30.2700   21.1780 C   0  0  0  0  0  3  0  0  0  0  0  0
  -24.6110  -28.9770   19.4350 C   0  0  0  0  0  0  0  0  0  0  0  0
  -25.7540  -30.7510   20.7760 C   0  0  0  0  0  2  0  0  0  0  0  0
  -25.8070  -29.4760   19.9630 C   0  0  0  0  0  0  0  0  0  0  0  0
  -27.0220  -28.7950   19.7370 C   0  0  0  0  0  3  0  0  0  0  0  0
  -25.8180  -27.1030   18.4660 C   0  0  0  0  0  3  0  0  0  0  0  0
  -24.6100  -27.7890   18.6850 C   0  0  0  0  0  3  0  0  0  0  0  0
  -23.3560  -29.7730   19.7100 C   0  0  0  0  0  2  0  0  0  0  0  0
  -24.5690  -30.8490   21.6610 N   0  0  0  0  0  0  0  0  0  0  0  0
  -23.5820  -31.6670   23.5310 O   0  0  0  0  0  0  0  0  0  0  0  0
  -22.7510  -29.1140   22.0610 C   0  0  0  0  0  0  0  0  0  0  0  0
  -21.4330  -28.8680   22.0010 N   0  0  0  0  0  0  0  0  0  0  0  0
  -23.5240  -28.4480   22.7530 O   0  0  0  0  0  0  0  0  0  0  0  0
  -20.8660  -29.4650   21.4150 H   0  0  0  0  0  0  0  0  0  0  0  0
  -18.1830  -27.3730   22.5070 C   0  0  0  0  0  0  0  0  0  0  0  0
  -20.7230  -27.8070   22.7140 C   0  0  0  0  0  3  0  0  0  0  0  0
  -20.9100  -26.4420   22.0130 C   0  0  0  0  0  2  0  0  0  0  0  0
  -19.7950  -26.1200   21.0120 C   0  0  0  0  0  2  0  0  0  0  0  0
  -18.4340  -26.1020   21.7130 C   0  0  0  0  0  2  0  0  0  0  0  0
  -19.2580  -28.1820   22.9640 C   0  0  0  0  0  0  0  0  0  0  0  0
  -18.9690  -29.3720   23.6670 C   0  0  0  0  0  3  0  0  0  0  0  0
  -17.6370  -29.7550   23.9170 C   0  0  0  0  0  3  0  0  0  0  0  0
  -16.5780  -28.9420   23.4770 C   0  0  0  0  0  3  0  0  0  0  0  0
  -16.8520  -27.7530   22.7780 C   0  0  0  0  0  3  0  0  0  0  0  0
  -25.9370  -32.0980   23.4210 C   0  0  0  0  0  3  0  0  0  0  0  0
  -25.6260  -33.4180   23.9850 N   0  0  0  0  0  0  0  0  0  0  0  0
  -25.8640  -34.5830   23.3670 C   0  0  0  0  0  0  0  0  0  0  0  0
  -26.4430  -34.6600   22.2800 O   0  0  0  0  0  0  0  0  0  0  0  0
  -25.1000  -33.4300   24.8460 H   0  0  0  0  0  0  0  0  0  0  0  0
  -24.0680  -36.3420   23.4290 C   0  0  0  0  0  1  0  0  0  0  0  0
  -25.3820  -35.8680   24.0680 C   0  0  0  0  0  3  0  0  0  0  0  0
  -27.5580  -36.6960   24.8490 C   0  0  0  0  0  1  0  0  0  0  0  0
  -26.3770  -36.9640   24.0350 N   0  0  0  0  0  0  0  0  0  0  0  0
  -25.9620  -37.8350   24.3530 H   0  0  0  0  0  0  0  0  0  0  0  0
  -26.6220  -31.1760   24.5030 C   0  0  1  0  0  0  0  0  0  0  0  0
  -25.6700  -30.7380   25.6400 C   0  0  0  0  0  1  0  0  0  0  0  0
  -27.1910  -29.8970   23.8450 C   0  0  0  0  0  1  0  0  0  0  0  0
  -27.8200  -31.9180   25.1410 C   0  0  0  0  0  1  0  0  0  0  0  0
  1  3  2  0
  1  5  1  0
  2  4  1  0
  3  6  1  0
  5  7  1  0
  5  2  2  0
  6 50  1  0
  6  4  2  0
  7  8  2  0
  9  7  1  0
 10  9  1  0
 10 11  1  0
 12 18  1  0
 12 20  1  0
 13 18  1  0
 14 15  1  0
 14 13  1  0
 16 15  1  0
 16 25  1  0
 16 17  1  0
 18 17  1  0
 19 12  2  0
 20 11  1  0
 20 21  1  0
 22 23  2  0
 23 42  1  0
 24 23  1  0
 24 27  1  0
 25 26  1  0
 25 22  1  0
 26 24  2  0
 27 28  1  0
 28 29  2  0
 30 33  1  0
 30 29  1  0
 31 30  2  0
 32 31  1  0
 32 27  2  0
 33 34  1  0
 34 39  2  0
 34 35  1  0
 35 36  2  0
 36 37  1  0
 37 41  1  0
 38 37  2  0
 39 38  1  0
 40 39  1  0
 42 43  1  0
 43 46  1  0
 43 45  1  0
 44 42  2  0
 47 22  1  0
 47 48  1  0
 49 47  1  0
 51 50  1  0
 52 51  1  0
 53 55  1  0
 53 52  1  0
 54 65  2  0
 55 60  1  0
 56 64  1  0
 56 66  1  0
 57 63  1  0
 57 59  1  0
 58 64  1  0
 59 58  1  0
 60 59  2  0
 61 62  1  0
 61 55  2  0
 62 57  2  0
 63 56  1  0
 64 54  1  0
 66 68  2  0
 67 66  1  0
 69 67  1  0
 70 79  2  0
 70 75  1  0
 71 67  1  0
 71 75  1  0
 72 71  1  0
 73 74  1  0
 73 72  1  0
 74 70  1  0
 75 76  2  0
 76 77  1  0
 78 77  2  0
 79 78  1  0
 80 54  1  0
 80 81  1  0
 80 90  1  0
 81 84  1  0
 82 81  1  0
 82 86  1  0
 83 82  2  0
 86 85  1  0
 88 86  1  0
 88 89  1  0
 88 87  1  0
 90 93  1  1
 90 91  1  0
 92 90  1  0
M  ISO  4  12 100  20 100  52 101  53 101
M  END
>  <TORSDO>  (39) 
F 23

>  <SCORE>  (39) 
-10.278

>  <name>  (39) 
38

>  <ligand_id>  (39) 
38

>  <original_smiles>  (39) 
[H]c1c([H])c([H])c2c(c1[H])C([H])([H])C([H])([H])C([H])([H])C2([H])N([H])C(=O)C1([H])N(C(=O)C([H])(N([H])C(=O)C([H])(N([H])C([H])([H])[H])C([H])([H])[H])C(C([H])([H])[H])(C([H])([H])[H])C([H])([H])[H])C([H])([H])c2c([H])c(OC([H])([H])C([H])([H])C([H])([H])c3c([H])c([H])c(C(=O)C([H])([H])C([H])([H])C([H])([H])N([H])C(=O)N4C([H])([H])C([H])([H])C([H])([H])C([H])(n5nc(-c6c([H])c([H])c(Oc7c([H])c([H])c(F)c([H])c7F)c([H])c6[H])c(C(=O)N([H])[H])c5N([H])[H])C4([H])[H])c([H])c3[H])c([H])c([H])c2C1([H])[H]

>  <smiles>  (39) 
[H]c1c([H])c([H])c2c(c1[H])C([H])([H])C([H])([H])C([H])([H])C2([H])N([H])C(=O)C1([H])N(C(=O)C([H])(N([H])C(=O)C([H])(N([H])C([H])([H])[H])C([H])([H])[H])C(C([H])([H])[H])(C([H])([H])[H])C([H])([H])[H])C([H])([H])c2c([H])c(OC([H])([H])C([H])([H])C([H])([H])c3c([H])c([H])c(C(=O)C([H])([H])C([H])([H])C([H])([H])N([H])C(=O)N4C([H])([H])C([H])([H])C([H])([H])C([H])(n5nc(-c6c([H])c([H])c(Oc7c([H])c([H])c(F)c([H])c7F)c([H])c6[H])c(C(=O)N([H])[H])c5N([H])[H])C4([H])[H])c([H])c3[H])c([H])c([H])c2C1([H])[H]

$$$$
39:0:0
     RDKit          3D

101109  0  0  1  0  0  0  0  0999 V2000
  -26.7540  -24.5660   22.2320 C   0  0  0  0  0  3  0  0  0  0  0  0
  -28.5290  -22.9980   21.6260 C   0  0  0  0  0  3  0  0  0  0  0  0
  -25.8590  -23.8880   21.3750 C   0  0  0  0  0  3  0  0  0  0  0  0
  -27.6380  -22.3210   20.7780 C   0  0  0  0  0  3  0  0  0  0  0  0
  -28.0970  -24.1420   22.3360 C   0  0  0  0  0  0  0  0  0  0  0  0
  -26.3130  -22.7790   20.6200 C   0  0  0  0  0  0  0  0  0  0  0  0
  -29.0900  -24.9900   23.0650 C   0  0  0  0  0  0  0  0  0  0  0  0
  -30.3370  -24.7480   22.6550 N   0  0  0  0  0  0  0  0  0  0  0  0
  -28.7610  -25.9220   23.8010 O   0  0  0  0  0  0  0  0  0  0  0  0
  -30.4390  -23.8980   22.1180 H   0  0  0  0  0  0  0  0  0  0  0  0
  -31.2830  -25.8080   22.3320 C   0  0  0  0  0  2  0  0  0  0  0  0
  -31.3150  -26.0600   20.8100 C   0  0  0  0  0  2  0  0  0  0  0  0
  -30.9830  -27.4270   20.6390 O   0  0  0  0  0  0  0  0  0  0  0  0
  -25.8480  -30.8650   24.1760 C   0  0  0  0  0  0  0  0  0  0  0  0
  -29.6570  -27.7760   20.7120 C   0  0  0  0  0  0  0  0  0  0  0  0
  -25.1160  -29.5930   22.1860 C   0  0  0  0  0  3  0  0  0  0  0  0
  -26.9870  -28.6830   20.7080 C   0  0  0  0  0  0  0  0  0  0  0  0
  -27.5010  -30.5060   22.3450 C   0  0  0  0  0  2  0  0  0  0  0  0
  -27.9410  -29.3260   21.5040 C   0  0  0  0  0  0  0  0  0  0  0  0
  -29.2830  -28.8820   21.5030 C   0  0  0  0  0  3  0  0  0  0  0  0
  -28.6850  -27.1240   19.9280 C   0  0  0  0  0  3  0  0  0  0  0  0
  -27.3510  -27.5780   19.9190 C   0  0  0  0  0  3  0  0  0  0  0  0
  -25.5830  -29.2390   20.7460 C   0  0  0  0  0  2  0  0  0  0  0  0
  -26.1660  -30.3270   22.9660 N   0  0  0  0  0  0  0  0  0  0  0  0
  -24.6930  -30.7990   24.6210 O   0  0  0  0  0  0  0  0  0  0  0  0
  -24.6300  -28.2960   22.8740 C   0  0  0  0  0  0  0  0  0  0  0  0
  -23.4730  -27.7760   22.4280 N   0  0  0  0  0  0  0  0  0  0  0  0
  -25.3000  -27.7640   23.7620 O   0  0  0  0  0  0  0  0  0  0  0  0
  -22.9720  -28.2860   21.7130 H   0  0  0  0  0  0  0  0  0  0  0  0
  -20.6510  -25.5810   21.9170 C   0  0  0  0  0  0  0  0  0  0  0  0
  -22.8470  -26.5370   22.8890 C   0  0  0  0  0  3  0  0  0  0  0  0
  -23.5380  -25.2950   22.2790 C   0  0  0  0  0  2  0  0  0  0  0  0
  -22.8730  -24.8060   20.9880 C   0  0  0  0  0  2  0  0  0  0  0  0
  -21.4040  -24.4530   21.2360 C   0  0  0  0  0  2  0  0  0  0  0  0
  -21.3290  -26.5670   22.6810 C   0  0  0  0  0  0  0  0  0  0  0  0
  -20.5820  -27.6170   23.2590 C   0  0  0  0  0  3  0  0  0  0  0  0
  -19.1850  -27.6870   23.0930 C   0  0  0  0  0  3  0  0  0  0  0  0
  -18.5180  -26.6990   22.3490 C   0  0  0  0  0  3  0  0  0  0  0  0
  -19.2510  -25.6490   21.7620 C   0  0  0  0  0  3  0  0  0  0  0  0
  -26.9090  -31.6060   25.0510 C   0  0  0  0  0  3  0  0  0  0  0  0
  -26.4360  -32.9830   25.2440 N   0  0  0  0  0  0  0  0  0  0  0  0
  -26.8760  -34.0400   24.5450 C   0  0  0  0  0  0  0  0  0  0  0  0
  -27.7840  -33.9640   23.7130 O   0  0  0  0  0  0  0  0  0  0  0  0
  -25.6550  -33.1140   25.8690 H   0  0  0  0  0  0  0  0  0  0  0  0
  -25.1780  -35.6960   23.7120 C   0  0  0  0  0  1  0  0  0  0  0  0
  -26.2010  -35.3980   24.8190 C   0  0  0  0  0  3  0  0  0  0  0  0
  -28.0690  -36.3960   26.0610 C   0  0  0  0  0  1  0  0  0  0  0  0
  -27.1590  -36.5210   24.9250 N   0  0  0  0  0  0  0  0  0  0  0  0
  -26.6680  -37.4070   25.0080 H   0  0  0  0  0  0  0  0  0  0  0  0
  -27.1760  -30.9050   26.4380 C   0  0  1  0  0  0  0  0  0  0  0  0
  -25.8880  -30.5060   27.1920 C   0  0  0  0  0  1  0  0  0  0  0  0
  -28.0220  -29.6260   26.2400 C   0  0  0  0  0  1  0  0  0  0  0  0
  -28.0030  -31.8470   27.3490 C   0  0  0  0  0  1  0  0  0  0  0  0
  -25.4200  -22.1050   19.5860 C   0  0  0  0  0  2  0  0  0  0  0  0
  -25.9370  -22.3120   18.1460 C   0  0  0  0  0  2  0  0  0  0  0  0
  -27.2580  -21.6860   17.9120 N   0  0  0  0  0  4  0  0  0  0  0  0
  -27.5110  -21.8500   16.9480 H   0  0  0  0  0  0  0  0  0  0  0  0
  -27.9290  -22.1730   18.4820 H   0  0  0  0  0  0  0  0  0  0  0  0
  -27.3590  -20.2310   18.1770 C   0  0  0  0  0  2  0  0  0  0  0  0
  -28.8270  -19.7850   18.1360 C   0  0  0  0  0  2  0  0  0  0  0  0
  -29.1240  -18.4210   18.8040 C   0  0  0  0  0  2  0  0  0  0  0  0
  -29.9920  -18.5500   20.0680 C   0  0  0  0  0  2  0  0  0  0  0  0
  -31.1410  -17.5350   20.1720 C   0  0  0  0  0  2  0  0  0  0  0  0
  -31.4250  -15.0850   20.4030 C   0  0  0  0  0  0  0  0  0  0  0  0
  -31.2740  -12.6560   20.0550 C   0  0  0  0  0  2  0  0  0  0  0  0
  -30.5130  -12.3850   18.7410 C   0  0  0  0  0  2  0  0  0  0  0  0
  -28.9970  -12.3090   18.9950 C   0  0  0  0  0  2  0  0  0  0  0  0
  -28.4840  -13.5250   19.8120 C   0  0  0  0  0  3  0  0  0  0  0  0
  -29.3670  -13.7820   21.0550 C   0  0  0  0  0  2  0  0  0  0  0  0
  -30.7650  -13.9170   20.6150 N   0  0  0  0  0  0  0  0  0  0  0  0
  -32.5620  -15.1400   19.9260 O   0  0  0  0  0  0  0  0  0  0  0  0
  -30.7290  -16.2080   20.6450 N   0  0  0  0  0  0  0  0  0  0  0  0
  -29.8470  -16.1180   21.1220 H   0  0  0  0  0  0  0  0  0  0  0  0
  -26.0650  -14.3040   20.2130 C   0  0  0  0  0  0  0  0  0  0  0  0
  -24.9240  -13.6150   20.5370 C   0  0  0  0  0  0  0  0  0  0  0  0
  -25.3120  -12.2500   20.6670 C   0  0  0  0  0  0  0  0  0  0  0  0
  -27.0790  -13.3600   20.1710 N   0  0  0  0  0  0  0  0  0  0  0  0
  -26.6190  -12.1240   20.4960 N   0  0  0  0  0  0  0  0  0  0  0  0
  -24.5050  -11.0420   20.8810 C   0  0  0  0  0  0  0  0  0  0  0  0
  -24.8590  -10.0700   21.8410 C   0  0  0  0  0  3  0  0  0  0  0  0
  -24.0490   -8.9320   22.0390 C   0  0  0  0  0  3  0  0  0  0  0  0
  -22.8720   -8.7590   21.2770 C   0  0  0  0  0  0  0  0  0  0  0  0
  -22.5420   -9.7120   20.2980 C   0  0  0  0  0  3  0  0  0  0  0  0
  -23.3520  -10.8420   20.0960 C   0  0  0  0  0  3  0  0  0  0  0  0
  -22.0360   -7.6730   21.3810 O   0  0  0  0  0  0  0  0  0  0  0  0
  -21.9170   -6.9760   22.5560 C   0  0  0  0  0  0  0  0  0  0  0  0
  -21.5910   -7.6150   23.7730 C   0  0  0  0  0  3  0  0  0  0  0  0
  -21.4120   -6.8510   24.9430 C   0  0  0  0  0  3  0  0  0  0  0  0
  -21.5430   -5.4490   24.8970 C   0  0  0  0  0  0  0  0  0  0  0  0
  -21.8600   -4.8110   23.6860 C   0  0  0  0  0  3  0  0  0  0  0  0
  -22.0430   -5.5730   22.5160 C   0  0  0  0  0  0  0  0  0  0  0  0
  -22.3310   -4.9520   21.3480 F   0  0  0  0  0  0  0  0  0  0  0  0
  -21.3630   -4.7110   26.0180 F   0  0  0  0  0  0  0  0  0  0  0  0
  -23.5390  -14.1850   20.6250 C   0  0  0  0  0  0  0  0  0  0  0  0
  -22.6950  -13.5970   21.4710 N   0  0  0  0  0  0  0  0  0  0  0  0
  -23.2100  -15.1840   19.9880 O   0  0  0  0  0  0  0  0  0  0  0  0
  -22.9710  -12.7880   22.0040 H   0  0  0  0  0  0  0  0  0  0  0  0
  -21.7570  -13.9600   21.5750 H   0  0  0  0  0  0  0  0  0  0  0  0
  -26.3190  -15.6410   19.9350 N   0  0  0  0  0  0  0  0  0  0  0  0
  -25.5620  -16.3070   19.8320 H   0  0  0  0  0  0  0  0  0  0  0  0
  -27.2120  -15.9980   19.6250 H   0  0  0  0  0  0  0  0  0  0  0  0
  1  5  1  0
  2  5  2  0
  3  1  2  0
  4  2  1  0
  5  7  1  0
  6  4  2  0
  6  3  1  0
  7  9  2  0
  8  7  1  0
 10  8  1  0
 11  8  1  0
 12 11  1  0
 13 15  1  0
 13 12  1  0
 14 25  2  0
 15 20  1  0
 16 26  1  0
 16 24  1  0
 17 23  1  0
 17 19  1  0
 18 24  1  0
 19 18  1  0
 20 19  2  0
 21 15  2  0
 22 21  1  0
 22 17  2  0
 23 16  1  0
 24 14  1  0
 26 28  2  0
 27 26  1  0
 29 27  1  0
 30 35  1  0
 31 27  1  0
 32 31  1  0
 33 34  1  0
 33 32  1  0
 34 30  1  0
 35 31  1  0
 35 36  2  0
 37 36  1  0
 38 37  2  0
 39 30  2  0
 39 38  1  0
 40 14  1  0
 40 41  1  0
 40 50  1  0
 41 44  1  0
 42 46  1  0
 42 41  1  0
 43 42  2  0
 46 45  1  0
 46 48  1  0
 48 49  1  0
 48 47  1  0
 50 51  1  1
 50 53  1  0
 52 50  1  0
 54  6  1  0
 55 54  1  0
 56 55  1  0
 56 59  1  0
 56 58  1  0
 57 56  1  0
 60 59  1  0
 60 61  1  0
 61 62  1  0
 62 63  1  0
 63 72  1  0
 64 70  1  0
 64 72  1  0
 65 70  1  0
 66 67  1  0
 66 65  1  0
 68 67  1  0
 68 77  1  0
 68 69  1  0
 70 69  1  0
 71 64  2  0
 72 73  1  0
 74 75  2  0
 75 94  1  0
 75 76  1  0
 76 79  1  0
 77 74  1  0
 77 78  1  0
 78 76  2  0
 79 80  1  0
 80 81  2  0
 82 85  1  0
 82 81  1  0
 83 82  2  0
 84 83  1  0
 84 79  2  0
 85 86  1  0
 86 87  1  0
 87 88  2  0
 89 88  1  0
 89 93  1  0
 90 89  2  0
 91 86  2  0
 91 90  1  0
 92 91  1  0
 94 95  1  0
 95 98  1  0
 95 97  1  0
 96 94  2  0
 99 74  1  0
100 99  1  0
101 99  1  0
M  ISO  4  12 101  13 101  64 100  72 100
M  END
>  <TORSDO>  (40) 
F 27

>  <SCORE>  (40) 
-7.582

>  <name>  (40) 
39

>  <ligand_id>  (40) 
39

>  <original_smiles>  (40) 
[H]c1c([H])c([H])c2c(c1[H])C([H])([H])C([H])([H])C([H])([H])C2([H])N([H])C(=O)C1([H])N(C(=O)C([H])(N([H])C(=O)C([H])(N([H])C([H])([H])[H])C([H])([H])[H])C(C([H])([H])[H])(C([H])([H])[H])C([H])([H])[H])C([H])([H])c2c([H])c(OC([H])([H])C([H])([H])N([H])C(=O)c3c([H])c([H])c(C([H])([H])C([H])([H])[N+]([H])([H])C([H])([H])C([H])([H])C([H])([H])C([H])([H])C([H])([H])N([H])C(=O)N4C([H])([H])C([H])([H])C([H])([H])C([H])(n5nc(-c6c([H])c([H])c(Oc7c([H])c([H])c(F)c([H])c7F)c([H])c6[H])c(C(=O)N([H])[H])c5N([H])[H])C4([H])[H])c([H])c3[H])c([H])c([H])c2C1([H])[H]

>  <smiles>  (40) 
[H]c1c([H])c([H])c2c(c1[H])C([H])([H])C([H])([H])C([H])([H])C2([H])N([H])C(=O)C1([H])N(C(=O)C([H])(N([H])C(=O)C([H])(N([H])C([H])([H])[H])C([H])([H])[H])C(C([H])([H])[H])(C([H])([H])[H])C([H])([H])[H])C([H])([H])c2c([H])c(OC([H])([H])C([H])([H])N([H])C(=O)c3c([H])c([H])c(C([H])([H])C([H])([H])[N+]([H])([H])C([H])([H])C([H])([H])C([H])([H])C([H])([H])C([H])([H])N([H])C(=O)N4C([H])([H])C([H])([H])C([H])([H])C([H])(n5nc(-c6c([H])c([H])c(Oc7c([H])c([H])c(F)c([H])c7F)c([H])c6[H])c(C(=O)N([H])[H])c5N([H])[H])C4([H])[H])c([H])c3[H])c([H])c([H])c2C1([H])[H]

$$$$
40:0:0
     RDKit          3D

 88 95  0  0  1  0  0  0  0  0999 V2000
  -28.8960  -23.0140   19.8720 C   0  0  0  0  0  3  0  0  0  0  0  0
  -28.5050  -24.2480   20.2710 C   0  0  0  0  0  3  0  0  0  0  0  0
  -28.8630  -21.8210   20.7550 C   0  0  0  0  0  0  0  0  0  0  0  0
  -28.6850  -21.9100   21.9740 O   0  0  0  0  0  0  0  0  0  0  0  0
  -29.0380  -20.4230   20.1170 C   0  0  0  0  0  2  0  0  0  0  0  0
  -29.7300  -19.3490   21.0100 C   0  0  0  0  0  2  0  0  0  0  0  0
  -29.5610  -17.8850   20.5170 C   0  0  0  0  0  2  0  0  0  0  0  0
  -30.3540  -16.8420   21.3530 C   0  0  0  0  0  2  0  0  0  0  0  0
  -30.6590  -14.4720   20.4940 C   0  0  0  0  0  0  0  0  0  0  0  0
  -30.3780  -12.3210   19.3090 C   0  0  0  0  0  2  0  0  0  0  0  0
  -29.4350  -12.5250   18.1040 C   0  0  0  0  0  2  0  0  0  0  0  0
  -27.9590  -12.3930   18.5280 C   0  0  0  0  0  2  0  0  0  0  0  0
  -27.6210  -13.2260   19.7920 C   0  0  0  0  0  3  0  0  0  0  0  0
  -28.6680  -12.9800   20.9020 C   0  0  0  0  0  2  0  0  0  0  0  0
  -29.9950  -13.2930   20.3430 N   0  0  0  0  0  0  0  0  0  0  0  0
  -31.7790  -14.6790   20.0190 O   0  0  0  0  0  0  0  0  0  0  0  0
  -29.9520  -15.4490   21.0930 N   0  0  0  0  0  0  0  0  0  0  0  0
  -29.0380  -15.1780   21.4250 H   0  0  0  0  0  0  0  0  0  0  0  0
  -25.2170  -13.8520   20.4690 C   0  0  0  0  0  0  0  0  0  0  0  0
  -24.1430  -13.0880   20.8370 C   0  0  0  0  0  0  0  0  0  0  0  0
  -24.6000  -11.7340   20.8270 C   0  0  0  0  0  0  0  0  0  0  0  0
  -26.2620  -12.9640   20.2600 N   0  0  0  0  0  0  0  0  0  0  0  0
  -25.8930  -11.6860   20.5320 N   0  0  0  0  0  0  0  0  0  0  0  0
  -23.8690  -10.4760   21.0250 C   0  0  0  0  0  0  0  0  0  0  0  0
  -24.3000   -9.5110   21.9620 C   0  0  0  0  0  3  0  0  0  0  0  0
  -23.5700   -8.3170   22.1470 C   0  0  0  0  0  3  0  0  0  0  0  0
  -22.3950   -8.0810   21.3960 C   0  0  0  0  0  0  0  0  0  0  0  0
  -21.9830   -9.0340   20.4480 C   0  0  0  0  0  3  0  0  0  0  0  0
  -22.7130  -10.2190   20.2610 C   0  0  0  0  0  3  0  0  0  0  0  0
  -21.6370   -6.9380   21.4890 O   0  0  0  0  0  0  0  0  0  0  0  0
  -21.5980   -6.1930   22.6400 C   0  0  0  0  0  0  0  0  0  0  0  0
  -21.1960   -6.7480   23.8750 C   0  0  0  0  0  3  0  0  0  0  0  0
  -21.1040   -5.9300   25.0190 C   0  0  0  0  0  3  0  0  0  0  0  0
  -21.4050   -4.5580   24.9290 C   0  0  0  0  0  0  0  0  0  0  0  0
  -21.8010   -4.0010   23.6990 C   0  0  0  0  0  3  0  0  0  0  0  0
  -21.8940   -4.8170   22.5580 C   0  0  0  0  0  0  0  0  0  0  0  0
  -22.2550   -4.2730   21.3710 F   0  0  0  0  0  0  0  0  0  0  0  0
  -21.3090   -3.7690   26.0250 F   0  0  0  0  0  0  0  0  0  0  0  0
  -22.7440  -13.5720   21.0910 C   0  0  0  0  0  0  0  0  0  0  0  0
  -22.0070  -12.8880   21.9590 N   0  0  0  0  0  0  0  0  0  0  0  0
  -22.3140  -14.5920   20.5550 O   0  0  0  0  0  0  0  0  0  0  0  0
  -22.3670  -12.0630   22.4150 H   0  0  0  0  0  0  0  0  0  0  0  0
  -21.0690  -13.1950   22.1730 H   0  0  0  0  0  0  0  0  0  0  0  0
  -25.3900  -15.2200   20.2760 N   0  0  0  0  0  0  0  0  0  0  0  0
  -24.6260  -15.8800   20.3710 H   0  0  0  0  0  0  0  0  0  0  0  0
  -26.2450  -15.6490   19.9480 H   0  0  0  0  0  0  0  0  0  0  0  0
  -28.5800  -25.4970   19.3950 C   0  0  0  0  0  2  0  0  0  0  0  0
  -28.4240  -26.7280   20.1250 O   0  0  0  0  0  0  0  0  0  0  0  0
  -24.5850  -31.8740   23.2220 C   0  0  0  0  0  0  0  0  0  0  0  0
  -27.2240  -27.4200   20.1210 C   0  0  0  0  0  0  0  0  0  0  0  0
  -23.3760  -30.4780   21.5780 C   0  0  0  0  0  3  0  0  0  0  0  0
  -24.8240  -28.9370   20.1520 C   0  0  0  0  0  0  0  0  0  0  0  0
  -25.9030  -30.8280   21.3790 C   0  0  0  0  0  2  0  0  0  0  0  0
  -25.9850  -29.4570   20.7360 C   0  0  0  0  0  0  0  0  0  0  0  0
  -27.1830  -28.7040   20.7180 C   0  0  0  0  0  3  0  0  0  0  0  0
  -26.0310  -26.9080   19.5570 C   0  0  0  0  0  3  0  0  0  0  0  0
  -24.8420  -27.6610   19.5650 C   0  0  0  0  0  3  0  0  0  0  0  0
  -23.5820  -29.7980   20.1990 C   0  0  0  0  0  2  0  0  0  0  0  0
  -24.6400  -31.0750   22.1180 N   0  0  0  0  0  0  0  0  0  0  0  0
  -23.5050  -32.1470   23.7630 O   0  0  0  0  0  0  0  0  0  0  0  0
  -22.7230  -29.4560   22.5380 C   0  0  0  0  0  0  0  0  0  0  0  0
  -21.3990  -29.2740   22.4080 N   0  0  0  0  0  0  0  0  0  0  0  0
  -23.4060  -28.8300   23.3530 O   0  0  0  0  0  0  0  0  0  0  0  0
  -20.9090  -29.8310   21.7230 H   0  0  0  0  0  0  0  0  0  0  0  0
  -18.0250  -28.0730   22.8930 C   0  0  0  0  0  0  0  0  0  0  0  0
  -20.5820  -28.3350   23.1760 C   0  0  0  0  0  3  0  0  0  0  0  0
  -20.6890  -26.9040   22.6010 C   0  0  0  0  0  2  0  0  0  0  0  0
  -19.5920  -26.5790   21.5820 C   0  0  0  0  0  2  0  0  0  0  0  0
  -18.2070  -26.7240   22.2200 C   0  0  0  0  0  2  0  0  0  0  0  0
  -19.1410  -28.8370   23.3280 C   0  0  0  0  0  0  0  0  0  0  0  0
  -18.9190  -30.1010   23.9150 C   0  0  0  0  0  3  0  0  0  0  0  0
  -17.6130  -30.6030   24.0730 C   0  0  0  0  0  3  0  0  0  0  0  0
  -16.5120  -29.8350   23.6560 C   0  0  0  0  0  3  0  0  0  0  0  0
  -16.7190  -28.5720   23.0710 C   0  0  0  0  0  3  0  0  0  0  0  0
  -25.8730  -32.5020   23.8410 C   0  0  0  0  0  3  0  0  0  0  0  0
  -26.3930  -31.7270   25.1130 C   0  0  1  0  0  0  0  0  0  0  0  0
  -25.3030  -31.4870   26.1840 C   0  0  0  0  0  1  0  0  0  0  0  0
  -26.9720  -30.3490   24.7140 C   0  0  0  0  0  1  0  0  0  0  0  0
  -27.5450  -32.5190   25.7750 C   0  0  0  0  0  1  0  0  0  0  0  0
  -25.5650  -33.8990   24.1750 N   0  0  0  0  0  0  0  0  0  0  0  0
  -25.9040  -34.9530   23.4200 C   0  0  0  0  0  0  0  0  0  0  0  0
  -26.5780  -34.8520   22.3910 O   0  0  0  0  0  0  0  0  0  0  0  0
  -24.9650  -34.0520   24.9720 H   0  0  0  0  0  0  0  0  0  0  0  0
  -24.1820  -36.7510   23.0620 C   0  0  0  0  0  1  0  0  0  0  0  0
  -25.4170  -36.3410   23.8790 C   0  0  0  0  0  3  0  0  0  0  0  0
  -27.5510  -37.2150   24.7240 C   0  0  0  0  0  1  0  0  0  0  0  0
  -26.4530  -37.3910   23.7770 N   0  0  0  0  0  0  0  0  0  0  0  0
  -26.0490  -38.3120   23.9270 H   0  0  0  0  0  0  0  0  0  0  0  0
  1  2  2  0
  1  3  1  0
  3  4  2  0
  5  3  1  0
  5  6  1  0
  7  6  1  0
  7  8  1  0
  9 17  1  0
 10 15  1  0
 11 12  1  0
 11 10  1  0
 13 12  1  0
 13 22  1  0
 13 14  1  0
 15  9  1  0
 15 14  1  0
 16  9  2  0
 17  8  1  0
 17 18  1  0
 19 20  2  0
 20 39  1  0
 21 20  1  0
 21 24  1  0
 22 19  1  0
 22 23  1  0
 23 21  2  0
 24 25  1  0
 25 26  2  0
 27 30  1  0
 27 26  1  0
 28 27  2  0
 29 28  1  0
 29 24  2  0
 30 31  1  0
 31 32  1  0
 32 33  2  0
 34 33  1  0
 34 38  1  0
 35 34  2  0
 36 31  2  0
 36 35  1  0
 37 36  1  0
 39 40  1  0
 40 43  1  0
 40 42  1  0
 41 39  2  0
 44 45  1  0
 44 19  1  0
 46 44  1  0
 47 48  1  0
 47  2  1  0
 49 60  2  0
 50 48  1  0
 50 55  1  0
 51 59  1  0
 51 61  1  0
 52 58  1  0
 52 54  1  0
 53 59  1  0
 54 53  1  0
 55 54  2  0
 56 57  1  0
 56 50  2  0
 57 52  2  0
 58 51  1  0
 59 49  1  0
 61 63  2  0
 62 61  1  0
 64 62  1  0
 65 74  2  0
 65 70  1  0
 66 62  1  0
 66 70  1  0
 67 66  1  0
 68 69  1  0
 68 67  1  0
 69 65  1  0
 70 71  2  0
 71 72  1  0
 73 72  2  0
 74 73  1  0
 75 49  1  0
 75 80  1  0
 75 76  1  0
 76 79  1  1
 76 77  1  0
 78 76  1  0
 80 83  1  0
 81 85  1  0
 81 80  1  0
 82 81  2  0
 85 84  1  0
 87 85  1  0
 87 88  1  0
 87 86  1  0
M  ISO  4   9 100  17 100  47 101  48 101
M  END
>  <TORSDO>  (41) 
F 22

>  <SCORE>  (41) 
-13.073

>  <name>  (41) 
40

>  <ligand_id>  (41) 
40

>  <original_smiles>  (41) 
[H]C(C(=O)C([H])([H])C([H])([H])C([H])([H])C([H])([H])N([H])C(=O)N1C([H])([H])C([H])([H])C([H])([H])C([H])(n2nc(-c3c([H])c([H])c(Oc4c([H])c([H])c(F)c([H])c4F)c([H])c3[H])c(C(=O)N([H])[H])c2N([H])[H])C1([H])[H])=C([H])C([H])([H])Oc1c([H])c([H])c2c(c1[H])C([H])([H])N(C(=O)C([H])(N([H])C(=O)C([H])(N([H])C([H])([H])[H])C([H])([H])[H])C(C([H])([H])[H])(C([H])([H])[H])C([H])([H])[H])C([H])(C(=O)N([H])C1([H])c3c([H])c([H])c([H])c([H])c3C([H])([H])C([H])([H])C1([H])[H])C2([H])[H]

>  <smiles>  (41) 
[H]C(C(=O)C([H])([H])C([H])([H])C([H])([H])C([H])([H])N([H])C(=O)N1C([H])([H])C([H])([H])C([H])([H])C([H])(n2nc(-c3c([H])c([H])c(Oc4c([H])c([H])c(F)c([H])c4F)c([H])c3[H])c(C(=O)N([H])[H])c2N([H])[H])C1([H])[H])=C([H])C([H])([H])Oc1c([H])c([H])c2c(c1[H])C([H])([H])N(C(=O)C([H])(N([H])C(=O)C([H])(N([H])C([H])([H])[H])C([H])([H])[H])C(C([H])([H])[H])(C([H])([H])[H])C([H])([H])[H])C([H])(C(=O)N([H])C1([H])c3c([H])c([H])c([H])c([H])c3C([H])([H])C([H])([H])C1([H])[H])C2([H])[H]

$$$$
41:0:0
     RDKit          3D

 91 98  0  0  1  0  0  0  0  0999 V2000
  -28.2840  -23.6910   17.9810 N   0  0  0  0  0  4  0  0  0  0  0  0
  -27.4210  -23.4270   18.4330 H   0  0  0  0  0  0  0  0  0  0  0  0
  -28.0890  -23.7030   16.9910 H   0  0  0  0  0  0  0  0  0  0  0  0
  -28.6640  -25.0760   18.3710 C   0  0  0  0  0  2  0  0  0  0  0  0
  -28.3730  -25.3970   19.8540 C   0  0  0  0  0  2  0  0  0  0  0  0
  -28.3950  -26.8010   20.0810 O   0  0  0  0  0  0  0  0  0  0  0  0
  -24.5960  -31.8860   23.2330 C   0  0  0  0  0  0  0  0  0  0  0  0
  -27.1980  -27.4760   20.0900 C   0  0  0  0  0  0  0  0  0  0  0  0
  -23.3680  -30.4870   21.6040 C   0  0  0  0  0  3  0  0  0  0  0  0
  -24.7990  -28.9610   20.1550 C   0  0  0  0  0  0  0  0  0  0  0  0
  -25.8900  -30.8530   21.3730 C   0  0  0  0  0  2  0  0  0  0  0  0
  -25.9640  -29.4870   20.7270 C   0  0  0  0  0  0  0  0  0  0  0  0
  -27.1640  -28.7500   20.6950 C   0  0  0  0  0  3  0  0  0  0  0  0
  -26.0130  -26.9610   19.5100 C   0  0  0  0  0  3  0  0  0  0  0  0
  -24.8160  -27.6960   19.5470 C   0  0  0  0  0  3  0  0  0  0  0  0
  -23.5570  -29.8170   20.2180 C   0  0  0  0  0  2  0  0  0  0  0  0
  -24.6380  -31.0890   22.1280 N   0  0  0  0  0  0  0  0  0  0  0  0
  -23.5230  -32.1560   23.7870 O   0  0  0  0  0  0  0  0  0  0  0  0
  -22.7350  -29.4580   22.5660 C   0  0  0  0  0  0  0  0  0  0  0  0
  -21.4100  -29.2730   22.4540 N   0  0  0  0  0  0  0  0  0  0  0  0
  -23.4300  -28.8310   23.3700 O   0  0  0  0  0  0  0  0  0  0  0  0
  -20.9120  -29.8350   21.7780 H   0  0  0  0  0  0  0  0  0  0  0  0
  -18.0420  -28.0720   22.9670 C   0  0  0  0  0  0  0  0  0  0  0  0
  -20.6000  -28.3330   23.2270 C   0  0  0  0  0  3  0  0  0  0  0  0
  -20.7020  -26.9010   22.6500 C   0  0  0  0  0  2  0  0  0  0  0  0
  -19.5950  -26.5770   21.6420 C   0  0  0  0  0  2  0  0  0  0  0  0
  -18.2170  -26.7220   22.2940 C   0  0  0  0  0  2  0  0  0  0  0  0
  -19.1620  -28.8370   23.3900 C   0  0  0  0  0  0  0  0  0  0  0  0
  -18.9450  -30.1030   23.9770 C   0  0  0  0  0  3  0  0  0  0  0  0
  -17.6400  -30.6040   24.1460 C   0  0  0  0  0  3  0  0  0  0  0  0
  -16.5350  -29.8360   23.7410 C   0  0  0  0  0  3  0  0  0  0  0  0
  -16.7370  -28.5720   23.1570 C   0  0  0  0  0  3  0  0  0  0  0  0
  -25.8920  -32.5130   23.8370 C   0  0  0  0  0  3  0  0  0  0  0  0
  -26.4300  -31.7340   25.0990 C   0  0  1  0  0  0  0  0  0  0  0  0
  -25.3580  -31.4870   26.1860 C   0  0  0  0  0  1  0  0  0  0  0  0
  -27.0060  -30.3600   24.6840 C   0  0  0  0  0  1  0  0  0  0  0  0
  -27.5920  -32.5230   25.7480 C   0  0  0  0  0  1  0  0  0  0  0  0
  -25.5900  -33.9090   24.1770 N   0  0  0  0  0  0  0  0  0  0  0  0
  -25.9160  -34.9620   23.4160 C   0  0  0  0  0  0  0  0  0  0  0  0
  -26.5760  -34.8610   22.3780 O   0  0  0  0  0  0  0  0  0  0  0  0
  -25.0030  -34.0620   24.9840 H   0  0  0  0  0  0  0  0  0  0  0  0
  -24.1850  -36.7550   23.0790 C   0  0  0  0  0  1  0  0  0  0  0  0
  -25.4310  -36.3480   23.8810 C   0  0  0  0  0  3  0  0  0  0  0  0
  -27.5740  -37.2240   24.7000 C   0  0  0  0  0  1  0  0  0  0  0  0
  -26.4630  -37.4000   23.7670 N   0  0  0  0  0  0  0  0  0  0  0  0
  -26.0600  -38.3200   23.9240 H   0  0  0  0  0  0  0  0  0  0  0  0
  -29.3040  -22.6350   18.1860 C   0  0  0  0  0  2  0  0  0  0  0  0
  -29.7560  -22.5010   19.6520 C   0  0  0  0  0  2  0  0  0  0  0  0
  -30.6600  -21.3080   19.9680 C   0  0  0  0  0  2  0  0  0  0  0  0
  -29.9660  -19.9410   19.9210 C   0  0  0  0  0  2  0  0  0  0  0  0
  -30.7430  -18.9090   20.7440 C   0  0  0  0  0  2  0  0  0  0  0  0
  -30.1150  -17.5160   20.6840 C   0  0  0  0  0  2  0  0  0  0  0  0
  -30.7320  -16.5610   21.7200 C   0  0  0  0  0  2  0  0  0  0  0  0
  -30.7240  -14.3540   20.6090 C   0  0  0  0  0  0  0  0  0  0  0  0
  -30.3330  -12.2760   19.3490 C   0  0  0  0  0  2  0  0  0  0  0  0
  -29.3990  -12.5510   18.1580 C   0  0  0  0  0  2  0  0  0  0  0  0
  -27.9250  -12.4170   18.5850 C   0  0  0  0  0  2  0  0  0  0  0  0
  -27.6030  -13.2320   19.8650 C   0  0  0  0  0  3  0  0  0  0  0  0
  -28.6530  -12.9580   20.9680 C   0  0  0  0  0  2  0  0  0  0  0  0
  -29.9950  -13.2250   20.4190 N   0  0  0  0  0  0  0  0  0  0  0  0
  -31.7520  -14.6140   19.9760 O   0  0  0  0  0  0  0  0  0  0  0  0
  -30.2400  -15.2030   21.5200 N   0  0  0  0  0  0  0  0  0  0  0  0
  -29.4200  -14.9160   22.0330 H   0  0  0  0  0  0  0  0  0  0  0  0
  -25.1980  -13.8560   20.5550 C   0  0  0  0  0  0  0  0  0  0  0  0
  -24.1240  -13.0870   20.9260 C   0  0  0  0  0  0  0  0  0  0  0  0
  -24.5810  -11.7340   20.9010 C   0  0  0  0  0  0  0  0  0  0  0  0
  -26.2420  -12.9700   20.3350 N   0  0  0  0  0  0  0  0  0  0  0  0
  -25.8720  -11.6890   20.5970 N   0  0  0  0  0  0  0  0  0  0  0  0
  -23.8500  -10.4750   21.0930 C   0  0  0  0  0  0  0  0  0  0  0  0
  -24.2940   -9.4960   22.0100 C   0  0  0  0  0  3  0  0  0  0  0  0
  -23.5630   -8.3030   22.1910 C   0  0  0  0  0  3  0  0  0  0  0  0
  -22.3750   -8.0780   21.4560 C   0  0  0  0  0  0  0  0  0  0  0  0
  -21.9510   -9.0450   20.5290 C   0  0  0  0  0  3  0  0  0  0  0  0
  -22.6820  -10.2300   20.3450 C   0  0  0  0  0  3  0  0  0  0  0  0
  -21.6150   -6.9360   21.5470 O   0  0  0  0  0  0  0  0  0  0  0  0
  -21.6020   -6.1690   22.6840 C   0  0  0  0  0  0  0  0  0  0  0  0
  -21.2380   -6.7030   23.9390 C   0  0  0  0  0  3  0  0  0  0  0  0
  -21.1710   -5.8620   25.0670 C   0  0  0  0  0  3  0  0  0  0  0  0
  -21.4580   -4.4900   24.9420 C   0  0  0  0  0  0  0  0  0  0  0  0
  -21.8160   -3.9570   23.6920 C   0  0  0  0  0  3  0  0  0  0  0  0
  -21.8840   -4.7930   22.5650 C   0  0  0  0  0  0  0  0  0  0  0  0
  -22.2080   -4.2720   21.3580 F   0  0  0  0  0  0  0  0  0  0  0  0
  -21.3860   -3.6800   26.0250 F   0  0  0  0  0  0  0  0  0  0  0  0
  -22.7280  -13.5710   21.1920 C   0  0  0  0  0  0  0  0  0  0  0  0
  -21.9960  -12.8790   22.0600 N   0  0  0  0  0  0  0  0  0  0  0  0
  -22.2940  -14.5940   20.6660 O   0  0  0  0  0  0  0  0  0  0  0  0
  -22.3580  -12.0510   22.5090 H   0  0  0  0  0  0  0  0  0  0  0  0
  -21.0600  -13.1880   22.2790 H   0  0  0  0  0  0  0  0  0  0  0  0
  -25.3690  -15.2240   20.3730 N   0  0  0  0  0  0  0  0  0  0  0  0
  -24.6080  -15.8870   20.4730 H   0  0  0  0  0  0  0  0  0  0  0  0
  -26.2330  -15.6590   20.0700 H   0  0  0  0  0  0  0  0  0  0  0  0
  1 47  1  0
  1  4  1  0
  1  2  1  0
  3  1  1  0
  4  5  1  0
  5  6  1  0
  6  8  1  0
  7 18  2  0
  8 13  1  0
  9 17  1  0
  9 19  1  0
 10 16  1  0
 10 12  1  0
 11 17  1  0
 12 11  1  0
 13 12  2  0
 14 15  1  0
 14  8  2  0
 15 10  2  0
 16  9  1  0
 17  7  1  0
 19 21  2  0
 20 19  1  0
 22 20  1  0
 23 32  2  0
 23 28  1  0
 24 20  1  0
 24 28  1  0
 25 24  1  0
 26 27  1  0
 26 25  1  0
 27 23  1  0
 28 29  2  0
 29 30  1  0
 31 30  2  0
 32 31  1  0
 33  7  1  0
 33 38  1  0
 33 34  1  0
 34 37  1  1
 34 35  1  0
 36 34  1  0
 38 41  1  0
 39 43  1  0
 39 38  1  0
 40 39  2  0
 43 42  1  0
 45 43  1  0
 45 46  1  0
 45 44  1  0
 47 48  1  0
 48 49  1  0
 50 49  1  0
 50 51  1  0
 52 51  1  0
 52 53  1  0
 54 62  1  0
 55 60  1  0
 56 57  1  0
 56 55  1  0
 58 57  1  0
 58 67  1  0
 58 59  1  0
 60 54  1  0
 60 59  1  0
 61 54  2  0
 62 53  1  0
 62 63  1  0
 64 65  2  0
 65 84  1  0
 66 65  1  0
 66 69  1  0
 67 64  1  0
 67 68  1  0
 68 66  2  0
 69 70  1  0
 70 71  2  0
 72 75  1  0
 72 71  1  0
 73 72  2  0
 74 73  1  0
 74 69  2  0
 75 76  1  0
 76 77  1  0
 77 78  2  0
 79 78  1  0
 79 83  1  0
 80 79  2  0
 81 76  2  0
 81 80  1  0
 82 81  1  0
 84 85  1  0
 85 88  1  0
 85 87  1  0
 86 84  2  0
 89 90  1  0
 89 64  1  0
 91 89  1  0
M  ISO  4   5 101   6 101  54 100  62 100
M  END
>  <TORSDO>  (42) 
F 25

>  <SCORE>  (42) 
-12.038

>  <name>  (42) 
41

>  <ligand_id>  (42) 
41

>  <original_smiles>  (42) 
[H]c1c([H])c([H])c2c(c1[H])C([H])([H])C([H])([H])C([H])([H])C2([H])N([H])C(=O)C1([H])N(C(=O)C([H])(N([H])C(=O)C([H])(N([H])C([H])([H])[H])C([H])([H])[H])C(C([H])([H])[H])(C([H])([H])[H])C([H])([H])[H])C([H])([H])c2c([H])c(OC([H])([H])C([H])([H])[N+]([H])([H])C([H])([H])C([H])([H])C([H])([H])C([H])([H])C([H])([H])C([H])([H])C([H])([H])N([H])C(=O)N3C([H])([H])C([H])([H])C([H])([H])C([H])(n4nc(-c5c([H])c([H])c(Oc6c([H])c([H])c(F)c([H])c6F)c([H])c5[H])c(C(=O)N([H])[H])c4N([H])[H])C3([H])[H])c([H])c([H])c2C1([H])[H]

>  <smiles>  (42) 
[H]c1c([H])c([H])c2c(c1[H])C([H])([H])C([H])([H])C([H])([H])C2([H])N([H])C(=O)C1([H])N(C(=O)C([H])(N([H])C(=O)C([H])(N([H])C([H])([H])[H])C([H])([H])[H])C(C([H])([H])[H])(C([H])([H])[H])C([H])([H])[H])C([H])([H])c2c([H])c(OC([H])([H])C([H])([H])[N+]([H])([H])C([H])([H])C([H])([H])C([H])([H])C([H])([H])C([H])([H])C([H])([H])C([H])([H])N([H])C(=O)N3C([H])([H])C([H])([H])C([H])([H])C([H])(n4nc(-c5c([H])c([H])c(Oc6c([H])c([H])c(F)c([H])c6F)c([H])c5[H])c(C(=O)N([H])[H])c4N([H])[H])C3([H])[H])c([H])c([H])c2C1([H])[H]

$$$$
42:0:0
     RDKit          3D

 98105  0  0  1  0  0  0  0  0999 V2000
  -26.6470  -23.1310   23.3370 C   0  0  0  0  0  2  0  0  0  0  0  0
  -28.1150  -23.5410   23.2830 C   0  0  0  0  0  0  0  0  0  0  0  0
  -28.9320  -22.7660   22.5640 N   0  0  0  0  0  0  0  0  0  0  0  0
  -28.4940  -24.5550   23.8690 O   0  0  0  0  0  0  0  0  0  0  0  0
  -28.5410  -21.9480   22.1110 H   0  0  0  0  0  0  0  0  0  0  0  0
  -30.3410  -23.0450   22.3140 C   0  0  0  0  0  2  0  0  0  0  0  0
  -30.5180  -24.0420   21.1560 C   0  0  0  0  0  2  0  0  0  0  0  0
  -29.7020  -23.6610   19.9130 C   0  0  0  0  0  2  0  0  0  0  0  0
  -29.5830  -24.8160   18.9120 C   0  0  0  0  0  2  0  0  0  0  0  0
  -28.9300  -24.3550   17.6080 C   0  0  0  0  0  2  0  0  0  0  0  0
  -28.9180  -25.4520   16.5300 C   0  0  0  0  0  2  0  0  0  0  0  0
  -29.1300  -24.5640   14.1980 C   0  0  0  0  0  0  0  0  0  0  0  0
  -29.6840  -23.4010   12.1000 C   0  0  0  0  0  2  0  0  0  0  0  0
  -29.3100  -21.9080   12.1600 C   0  0  0  0  0  2  0  0  0  0  0  0
  -30.4280  -21.0720   12.8160 C   0  0  0  0  0  2  0  0  0  0  0  0
  -30.9220  -21.6840   14.1530 C   0  0  0  0  0  3  0  0  0  0  0  0
  -31.2290  -23.1850   13.9680 C   0  0  0  0  0  2  0  0  0  0  0  0
  -30.0130  -23.8550   13.4540 N   0  0  0  0  0  0  0  0  0  0  0  0
  -27.9910  -24.8680   13.8340 O   0  0  0  0  0  0  0  0  0  0  0  0
  -29.6290  -24.9470   15.3710 N   0  0  0  0  0  0  0  0  0  0  0  0
  -30.6050  -24.7360   15.5050 H   0  0  0  0  0  0  0  0  0  0  0  0
  -32.1420  -19.9980   15.6850 C   0  0  0  0  0  0  0  0  0  0  0  0
  -33.4480  -19.5910   15.7310 C   0  0  0  0  0  0  0  0  0  0  0  0
  -34.1320  -20.3380   14.7220 C   0  0  0  0  0  0  0  0  0  0  0  0
  -32.0760  -20.9560   14.6800 N   0  0  0  0  0  0  0  0  0  0  0  0
  -33.2990  -21.1870   14.1350 N   0  0  0  0  0  0  0  0  0  0  0  0
  -35.5150  -20.2510   14.2370 C   0  0  0  0  0  0  0  0  0  0  0  0
  -36.3610  -21.3810   14.2190 C   0  0  0  0  0  3  0  0  0  0  0  0
  -37.6920  -21.2720   13.7630 C   0  0  0  0  0  3  0  0  0  0  0  0
  -38.1900  -20.0220   13.3240 C   0  0  0  0  0  0  0  0  0  0  0  0
  -37.3370  -18.9040   13.3230 C   0  0  0  0  0  3  0  0  0  0  0  0
  -36.0110  -19.0160   13.7730 C   0  0  0  0  0  3  0  0  0  0  0  0
  -39.4610  -19.8260   12.8410 O   0  0  0  0  0  0  0  0  0  0  0  0
  -40.5220  -20.5760   13.2800 C   0  0  0  0  0  0  0  0  0  0  0  0
  -40.8810  -20.6340   14.6440 C   0  0  0  0  0  3  0  0  0  0  0  0
  -42.0210  -21.3620   15.0420 C   0  0  0  0  0  3  0  0  0  0  0  0
  -42.8040  -22.0250   14.0780 C   0  0  0  0  0  0  0  0  0  0  0  0
  -42.4520  -21.9620   12.7180 C   0  0  0  0  0  3  0  0  0  0  0  0
  -41.3140  -21.2380   12.3200 C   0  0  0  0  0  0  0  0  0  0  0  0
  -40.9900  -21.1650   11.0060 F   0  0  0  0  0  0  0  0  0  0  0  0
  -43.9040  -22.7160   14.4570 F   0  0  0  0  0  0  0  0  0  0  0  0
  -34.0190  -18.5050   16.6000 C   0  0  0  0  0  0  0  0  0  0  0  0
  -35.2830  -18.6280   16.9880 N   0  0  0  0  0  0  0  0  0  0  0  0
  -33.3290  -17.5590   16.9770 O   0  0  0  0  0  0  0  0  0  0  0  0
  -35.8470  -19.4130   16.6960 H   0  0  0  0  0  0  0  0  0  0  0  0
  -35.6920  -17.9250   17.5860 H   0  0  0  0  0  0  0  0  0  0  0  0
  -31.0040  -19.6230   16.3960 N   0  0  0  0  0  0  0  0  0  0  0  0
  -31.0230  -18.9080   17.1140 H   0  0  0  0  0  0  0  0  0  0  0  0
  -30.0750  -19.9830   16.2240 H   0  0  0  0  0  0  0  0  0  0  0  0
  -25.8470  -23.7400   22.1680 C   0  0  0  0  0  2  0  0  0  0  0  0
  -24.3470  -23.3940   22.2200 C   0  0  0  0  0  3  0  0  0  0  0  0
  -23.5980  -24.3460   23.0710 N   0  0  0  0  0  4  0  0  0  0  0  0
  -23.7710  -25.3020   22.8030 H   0  0  0  0  0  0  0  0  0  0  0  0
  -23.8640  -24.2410   24.0350 H   0  0  0  0  0  0  0  0  0  0  0  0
  -22.6070  -24.1740   23.0180 H   0  0  0  0  0  0  0  0  0  0  0  0
  -23.7370  -23.2130   20.8030 C   0  0  0  0  0  2  0  0  0  0  0  0
  -24.5110  -23.8430   19.6180 C   0  0  0  0  0  2  0  0  0  0  0  0
  -23.6640  -24.5100   18.6750 O   0  0  0  0  0  0  0  0  0  0  0  0
  -24.2800  -29.7380   23.4480 C   0  0  0  0  0  0  0  0  0  0  0  0
  -23.1940  -25.7160   19.1260 C   0  0  0  0  0  0  0  0  0  0  0  0
  -22.1910  -29.7160   22.1230 C   0  0  0  0  0  3  0  0  0  0  0  0
  -22.1710  -28.1460   20.1170 C   0  0  0  0  0  0  0  0  0  0  0  0
  -24.3550  -28.7500   21.1660 C   0  0  0  0  0  2  0  0  0  0  0  0
  -23.5020  -27.7920   20.3680 C   0  0  0  0  0  0  0  0  0  0  0  0
  -24.0210  -26.5730   19.8810 C   0  0  0  0  0  3  0  0  0  0  0  0
  -21.8700  -26.1070   18.8370 C   0  0  0  0  0  3  0  0  0  0  0  0
  -21.3460  -27.3070   19.3500 C   0  0  0  0  0  3  0  0  0  0  0  0
  -21.6970  -29.4670   20.6740 C   0  0  0  0  0  2  0  0  0  0  0  0
  -23.6440  -29.3870   22.2960 N   0  0  0  0  0  0  0  0  0  0  0  0
  -23.6890  -30.3600   24.3400 O   0  0  0  0  0  0  0  0  0  0  0  0
  -21.2730  -28.9480   23.1000 C   0  0  0  0  0  0  0  0  0  0  0  0
  -19.9580  -29.2050   23.0110 N   0  0  0  0  0  0  0  0  0  0  0  0
  -21.7390  -28.1220   23.8900 O   0  0  0  0  0  0  0  0  0  0  0  0
  -19.6590  -29.9180   22.3600 H   0  0  0  0  0  0  0  0  0  0  0  0
  -16.3920  -28.6640   23.2160 C   0  0  0  0  0  0  0  0  0  0  0  0
  -18.9060  -28.5660   23.7990 C   0  0  0  0  0  3  0  0  0  0  0  0
  -18.8190  -27.0560   23.4860 C   0  0  0  0  0  2  0  0  0  0  0  0
  -17.7940  -26.7270   22.3980 C   0  0  0  0  0  2  0  0  0  0  0  0
  -16.3980  -27.1970   22.8200 C   0  0  0  0  0  2  0  0  0  0  0  0
  -17.5730  -29.3110   23.6610 C   0  0  0  0  0  0  0  0  0  0  0  0
  -17.5240  -30.6860   23.9790 C   0  0  0  0  0  3  0  0  0  0  0  0
  -16.3210  -31.4070   23.8640 C   0  0  0  0  0  3  0  0  0  0  0  0
  -15.1490  -30.7570   23.4370 C   0  0  0  0  0  3  0  0  0  0  0  0
  -15.1860  -29.3890   23.1180 C   0  0  0  0  0  3  0  0  0  0  0  0
  -25.7840  -29.4000   23.6860 C   0  0  0  0  0  3  0  0  0  0  0  0
  -26.0030  -28.0140   24.4120 C   0  0  1  0  0  0  0  0  0  0  0  0
  -25.1740  -27.8520   25.7060 C   0  0  0  0  0  1  0  0  0  0  0  0
  -25.6430  -26.8410   23.4690 C   0  0  0  0  0  1  0  0  0  0  0  0
  -27.4970  -27.8450   24.7780 C   0  0  0  0  0  1  0  0  0  0  0  0
  -26.3670  -30.4970   24.4680 N   0  0  0  0  0  0  0  0  0  0  0  0
  -27.2090  -31.4170   23.9770 C   0  0  0  0  0  0  0  0  0  0  0  0
  -27.6390  -31.3810   22.8200 O   0  0  0  0  0  0  0  0  0  0  0  0
  -26.0180  -30.6180   25.4080 H   0  0  0  0  0  0  0  0  0  0  0  0
  -26.8690  -33.8380   24.5660 C   0  0  0  0  0  1  0  0  0  0  0  0
  -27.6420  -32.5560   24.9190 C   0  0  0  0  0  3  0  0  0  0  0  0
  -29.8960  -31.7500   25.4620 C   0  0  0  0  0  1  0  0  0  0  0  0
  -29.0970  -32.8270   24.8850 N   0  0  0  0  0  0  0  0  0  0  0  0
  -29.3150  -33.6870   25.3820 H   0  0  0  0  0  0  0  0  0  0  0  0
  2  1  1  0
  2  4  2  0
  3  2  1  0
  5  3  1  0
  6  3  1  0
  7  6  1  0
  8  7  1  0
  9  8  1  0
 10  9  1  0
 11 10  1  0
 12 20  1  0
 13 14  1  0
 13 18  1  0
 14 15  1  0
 16 15  1  0
 16 25  1  0
 17 16  1  0
 18 17  1  0
 18 12  1  0
 19 12  2  0
 20 21  1  0
 20 11  1  0
 22 23  2  0
 22 47  1  0
 23 42  1  0
 24 23  1  0
 25 22  1  0
 26 25  1  0
 26 24  2  0
 27 24  1  0
 28 27  1  0
 29 28  2  0
 30 29  1  0
 31 30  2  0
 31 32  1  0
 32 27  2  0
 33 34  1  0
 33 30  1  0
 34 35  1  0
 35 36  2  0
 37 41  1  0
 37 36  1  0
 38 37  2  0
 39 38  1  0
 39 34  2  0
 40 39  1  0
 42 44  2  0
 42 43  1  0
 43 46  1  0
 45 43  1  0
 47 48  1  0
 49 47  1  0
 50 51  1  0
 50  1  1  0
 51 56  1  0
 51 52  1  0
 52 54  1  0
 53 52  1  0
 55 52  1  0
 57 56  1  0
 58 60  1  0
 58 57  1  0
 59 70  2  0
 60 65  1  0
 61 69  1  0
 61 71  1  0
 62 64  1  0
 62 68  1  0
 63 69  1  0
 64 63  1  0
 65 64  2  0
 66 60  2  0
 66 67  1  0
 67 62  2  0
 68 61  1  0
 69 59  1  0
 71 73  2  0
 72 71  1  0
 74 72  1  0
 75 80  1  0
 76 72  1  0
 77 76  1  0
 78 79  1  0
 78 77  1  0
 79 75  1  0
 80 76  1  0
 80 81  2  0
 82 81  1  0
 83 82  2  0
 84 75  2  0
 84 83  1  0
 85 59  1  0
 85 86  1  0
 85 90  1  0
 86 89  1  1
 86 87  1  0
 88 86  1  0
 90 93  1  0
 91 90  1  0
 91 95  1  0
 92 91  2  0
 95 94  1  0
 97 95  1  0
 97 98  1  0
 97 96  1  0
M  ISO  4  12 100  20 100  57 101  58 101
M  END
>  <TORSDO>  (43) 
F 28

>  <SCORE>  (43) 
1.964

>  <name>  (43) 
42

>  <ligand_id>  (43) 
42

>  <original_smiles>  (43) 
[H]c1c([H])c([H])c2c(c1[H])C([H])([H])C([H])([H])C([H])([H])C2([H])N([H])C(=O)C1([H])N(C(=O)C([H])(N([H])C(=O)C([H])(N([H])C([H])([H])[H])C([H])([H])[H])C(C([H])([H])[H])(C([H])([H])[H])C([H])([H])[H])C([H])([H])c2c([H])c(OC([H])([H])C([H])([H])C([H])(C([H])([H])C([H])([H])C(=O)N([H])C([H])([H])C([H])([H])C([H])([H])C([H])([H])C([H])([H])C([H])([H])N([H])C(=O)N3C([H])([H])C([H])([H])C([H])([H])C([H])(n4nc(-c5c([H])c([H])c(Oc6c([H])c([H])c(F)c([H])c6F)c([H])c5[H])c(C(=O)N([H])[H])c4N([H])[H])C3([H])[H])[N+]([H])([H])[H])c([H])c([H])c2C1([H])[H]

>  <smiles>  (43) 
[H]c1c([H])c([H])c2c(c1[H])C([H])([H])C([H])([H])C([H])([H])C2([H])N([H])C(=O)C1([H])N(C(=O)C([H])(N([H])C(=O)C([H])(N([H])C([H])([H])[H])C([H])([H])[H])C(C([H])([H])[H])(C([H])([H])[H])C([H])([H])[H])C([H])([H])c2c([H])c(OC([H])([H])C([H])([H])C([H])(C([H])([H])C([H])([H])C(=O)N([H])C([H])([H])C([H])([H])C([H])([H])C([H])([H])C([H])([H])C([H])([H])N([H])C(=O)N3C([H])([H])C([H])([H])C([H])([H])C([H])(n4nc(-c5c([H])c([H])c(Oc6c([H])c([H])c(F)c([H])c6F)c([H])c5[H])c(C(=O)N([H])[H])c4N([H])[H])C3([H])[H])[N+]([H])([H])[H])c([H])c([H])c2C1([H])[H]

$$$$
43:0:0
     RDKit          3D

101110  0  0  1  0  0  0  0  0999 V2000
  -28.3980  -21.1760   20.0880 C   0  0  0  0  0  3  0  0  0  0  0  0
  -30.4270  -23.0170   21.1660 C   0  0  0  0  0  3  0  0  0  0  0  0
  -28.0440  -22.4750   20.5640 C   0  0  0  0  0  0  0  0  0  0  0  0
  -29.7520  -20.8540   20.1660 C   0  0  0  0  0  0  0  0  0  0  0  0
  -30.7230  -21.7400   20.7010 C   0  0  0  0  0  0  0  0  0  0  0  0
  -29.0520  -23.3820   21.0860 C   0  0  0  0  0  0  0  0  0  0  0  0
  -31.8280  -20.7260   20.6000 C   0  0  0  0  0  2  0  0  0  0  0  0
  -30.7260  -19.7050   20.0030 C   0  0  1  0  0  0  0  0  0  0  0  0
  -26.5840  -22.8460   20.5080 C   0  0  0  0  0  0  0  0  0  0  0  0
  -25.7430  -21.9130   20.9340 N   0  0  0  0  0  0  0  0  0  0  0  0
  -26.1850  -23.9400   20.1160 O   0  0  0  0  0  0  0  0  0  0  0  0
  -26.1050  -21.0320   21.2680 H   0  0  0  0  0  0  0  0  0  0  0  0
  -24.7490  -22.0850   20.9420 H   0  0  0  0  0  0  0  0  0  0  0  0
  -28.7030  -24.7730   21.6030 C   0  0  0  0  0  2  0  0  0  0  0  0
  -28.2730  -25.7070   20.4660 C   0  0  0  0  0  2  0  0  0  0  0  0
  -29.3520  -26.6980   19.9780 C   0  0  0  0  0  2  0  0  0  0  0  0
  -28.8910  -27.5270   18.9110 O   0  0  0  0  0  0  0  0  0  0  0  0
  -24.4170  -31.3560   22.9030 C   0  0  0  0  0  0  0  0  0  0  0  0
  -27.6300  -28.0360   19.0820 C   0  0  0  0  0  0  0  0  0  0  0  0
  -23.3860  -30.0260   21.0880 C   0  0  0  0  0  3  0  0  0  0  0  0
  -25.0100  -29.0190   19.4020 C   0  0  0  0  0  0  0  0  0  0  0  0
  -25.7890  -30.8740   20.8860 C   0  0  0  0  0  2  0  0  0  0  0  0
  -26.0820  -29.6550   20.0420 C   0  0  0  0  0  0  0  0  0  0  0  0
  -27.3980  -29.1660   19.8910 C   0  0  0  0  0  3  0  0  0  0  0  0
  -26.5480  -27.4170   18.4250 C   0  0  0  0  0  3  0  0  0  0  0  0
  -25.2350  -27.8900   18.5960 C   0  0  0  0  0  3  0  0  0  0  0  0
  -23.6380  -29.6130   19.6120 C   0  0  0  0  0  2  0  0  0  0  0  0
  -24.5490  -30.7610   21.6840 N   0  0  0  0  0  0  0  0  0  0  0  0
  -23.3360  -31.3410   23.5070 O   0  0  0  0  0  0  0  0  0  0  0  0
  -22.9810  -28.7690   21.8900 C   0  0  0  0  0  0  0  0  0  0  0  0
  -21.7220  -28.3350   21.7210 N   0  0  0  0  0  0  0  0  0  0  0  0
  -23.7930  -28.1930   22.6190 O   0  0  0  0  0  0  0  0  0  0  0  0
  -21.1170  -28.8700   21.1120 H   0  0  0  0  0  0  0  0  0  0  0  0
  -18.7090  -26.3500   21.9110 C   0  0  0  0  0  0  0  0  0  0  0  0
  -21.1270  -27.1510   22.3410 C   0  0  0  0  0  3  0  0  0  0  0  0
  -21.5760  -25.8580   21.6190 C   0  0  0  0  0  2  0  0  0  0  0  0
  -20.6050  -25.4120   20.5220 C   0  0  0  0  0  2  0  0  0  0  0  0
  -19.2100  -25.1630   21.1040 C   0  0  0  0  0  2  0  0  0  0  0  0
  -19.6080  -27.2900   22.4790 C   0  0  0  0  0  0  0  0  0  0  0  0
  -19.0870  -28.3930   23.1890 C   0  0  0  0  0  3  0  0  0  0  0  0
  -17.6980  -28.5610   23.3400 C   0  0  0  0  0  3  0  0  0  0  0  0
  -16.8130  -27.6190   22.7910 C   0  0  0  0  0  3  0  0  0  0  0  0
  -17.3170  -26.5140   22.0810 C   0  0  0  0  0  3  0  0  0  0  0  0
  -25.6060  -32.1060   23.5810 C   0  0  0  0  0  3  0  0  0  0  0  0
  -26.2050  -31.3330   24.8190 C   0  0  1  0  0  0  0  0  0  0  0  0
  -25.1460  -30.9110   25.8640 C   0  0  0  0  0  1  0  0  0  0  0  0
  -26.9470  -30.0560   24.3590 C   0  0  0  0  0  1  0  0  0  0  0  0
  -27.2490  -32.2210   25.5370 C   0  0  0  0  0  1  0  0  0  0  0  0
  -25.1240  -33.4350   23.9800 N   0  0  0  0  0  0  0  0  0  0  0  0
  -25.3470  -34.5630   23.2910 C   0  0  0  0  0  0  0  0  0  0  0  0
  -26.0590  -34.6010   22.2830 O   0  0  0  0  0  0  0  0  0  0  0  0
  -24.4990  -33.4690   24.7720 H   0  0  0  0  0  0  0  0  0  0  0  0
  -23.4270  -36.1510   22.9650 C   0  0  0  0  0  1  0  0  0  0  0  0
  -24.6790  -35.8520   23.8030 C   0  0  0  0  0  3  0  0  0  0  0  0
  -26.6600  -36.9370   24.7680 C   0  0  0  0  0  1  0  0  0  0  0  0
  -25.5780  -37.0270   23.7900 N   0  0  0  0  0  0  0  0  0  0  0  0
  -25.0560  -37.8790   23.9740 H   0  0  0  0  0  0  0  0  0  0  0  0
  -30.2910  -18.5210   20.8880 C   0  0  0  0  0  2  0  0  0  0  0  0
  -31.4480  -17.6340   21.3710 C   0  0  0  0  0  2  0  0  0  0  0  0
  -31.0000  -16.5200   22.3420 C   0  0  0  0  0  2  0  0  0  0  0  0
  -30.5760  -14.7470   20.6370 C   0  0  0  0  0  0  0  0  0  0  0  0
  -30.2790  -12.6600   19.3610 C   0  0  0  0  0  2  0  0  0  0  0  0
  -29.3230  -12.8320   18.1700 C   0  0  0  0  0  2  0  0  0  0  0  0
  -27.8680  -12.5990   18.6110 C   0  0  0  0  0  2  0  0  0  0  0  0
  -27.4920  -13.4220   19.8700 C   0  0  0  0  0  3  0  0  0  0  0  0
  -28.5570  -13.2630   20.9790 C   0  0  0  0  0  2  0  0  0  0  0  0
  -29.8790  -13.6020   20.4180 N   0  0  0  0  0  0  0  0  0  0  0  0
  -31.5420  -15.0880   19.9520 O   0  0  0  0  0  0  0  0  0  0  0  0
  -30.2190  -15.4440   21.7220 N   0  0  0  0  0  0  0  0  0  0  0  0
  -29.4320  -15.0880   22.2450 H   0  0  0  0  0  0  0  0  0  0  0  0
  -25.0830  -13.8990   20.6510 C   0  0  0  0  0  0  0  0  0  0  0  0
  -24.0470  -13.0670   20.9810 C   0  0  0  0  0  0  0  0  0  0  0  0
  -24.5520  -11.7370   20.8520 C   0  0  0  0  0  0  0  0  0  0  0  0
  -26.1540  -13.0720   20.3490 N   0  0  0  0  0  0  0  0  0  0  0  0
  -25.8370  -11.7630   20.5250 N   0  0  0  0  0  0  0  0  0  0  0  0
  -23.8690  -10.4410   20.9680 C   0  0  0  0  0  0  0  0  0  0  0  0
  -24.2950   -9.4610   21.8930 C   0  0  0  0  0  3  0  0  0  0  0  0
  -23.6100   -8.2320   21.9970 C   0  0  0  0  0  3  0  0  0  0  0  0
  -22.4880   -7.9710   21.1760 C   0  0  0  0  0  0  0  0  0  0  0  0
  -22.0840   -8.9400   20.2410 C   0  0  0  0  0  3  0  0  0  0  0  0
  -22.7690  -10.1620   20.1340 C   0  0  0  0  0  3  0  0  0  0  0  0
  -21.7790   -6.7940   21.1900 O   0  0  0  0  0  0  0  0  0  0  0  0
  -21.6660   -6.0350   22.3270 C   0  0  0  0  0  0  0  0  0  0  0  0
  -21.0770   -6.5410   23.5060 C   0  0  0  0  0  3  0  0  0  0  0  0
  -20.9190   -5.7040   24.6300 C   0  0  0  0  0  3  0  0  0  0  0  0
  -21.3400   -4.3630   24.5730 C   0  0  0  0  0  0  0  0  0  0  0  0
  -21.9230   -3.8550   23.3980 C   0  0  0  0  0  3  0  0  0  0  0  0
  -22.0830   -4.6890   22.2780 C   0  0  0  0  0  0  0  0  0  0  0  0
  -22.6250   -4.1890   21.1400 F   0  0  0  0  0  0  0  0  0  0  0  0
  -21.1830   -3.5570   25.6490 F   0  0  0  0  0  0  0  0  0  0  0  0
  -22.6390  -13.4780   21.3080 C   0  0  0  0  0  0  0  0  0  0  0  0
  -21.9550  -12.7080   22.1470 N   0  0  0  0  0  0  0  0  0  0  0  0
  -22.1540  -14.5150   20.8570 O   0  0  0  0  0  0  0  0  0  0  0  0
  -22.3590  -11.8670   22.5320 H   0  0  0  0  0  0  0  0  0  0  0  0
  -21.0130  -12.9630   22.4070 H   0  0  0  0  0  0  0  0  0  0  0  0
  -25.2010  -15.2830   20.5640 N   0  0  0  0  0  0  0  0  0  0  0  0
  -24.4200  -15.9070   20.7360 H   0  0  0  0  0  0  0  0  0  0  0  0
  -26.0430  -15.7690   20.2810 H   0  0  0  0  0  0  0  0  0  0  0  0
  -30.9360  -19.2990   18.5310 C   0  0  0  0  0  2  0  0  0  0  0  0
  -29.8060  -18.6440   17.9770 O   0  0  0  0  0  0  0  0  0  0  0  0
  -29.6670  -17.8470   18.4760 H   0  0  0  0  0  0  0  0  0  0  0  0
  1  4  2  0
  1  3  1  0
  3  6  2  0
  4  5  1  0
  5  2  2  0
  6  2  1  0
  6 14  1  0
  7  5  1  0
  8 99  1  6
  8  4  1  0
  8  7  1  0
  8 58  1  0
  9  3  1  0
  9 10  1  0
 10 13  1  0
 10 12  1  0
 11  9  2  0
 15 14  1  0
 16 15  1  0
 17 19  1  0
 17 16  1  0
 18 29  2  0
 19 24  1  0
 20 28  1  0
 20 30  1  0
 21 27  1  0
 21 23  1  0
 22 28  1  0
 23 22  1  0
 24 23  2  0
 25 26  1  0
 25 19  2  0
 26 21  2  0
 27 20  1  0
 28 18  1  0
 30 32  2  0
 31 30  1  0
 33 31  1  0
 34 43  2  0
 34 39  1  0
 35 31  1  0
 35 39  1  0
 36 35  1  0
 37 38  1  0
 37 36  1  0
 38 34  1  0
 39 40  2  0
 40 41  1  0
 42 41  2  0
 43 42  1  0
 44 18  1  0
 44 49  1  0
 44 45  1  0
 45 48  1  1
 45 46  1  0
 47 45  1  0
 49 52  1  0
 50 54  1  0
 50 49  1  0
 51 50  2  0
 54 53  1  0
 56 54  1  0
 56 57  1  0
 56 55  1  0
 58 59  1  0
 59 60  1  0
 61 69  1  0
 62 67  1  0
 63 64  1  0
 63 62  1  0
 65 64  1  0
 65 74  1  0
 65 66  1  0
 67 61  1  0
 67 66  1  0
 68 61  2  0
 69 70  1  0
 69 60  1  0
 71 72  2  0
 72 91  1  0
 73 76  1  0
 73 72  1  0
 74 75  1  0
 74 71  1  0
 75 73  2  0
 76 77  1  0
 77 78  2  0
 79 82  1  0
 79 78  1  0
 80 79  2  0
 81 80  1  0
 81 76  2  0
 82 83  1  0
 83 84  1  0
 84 85  2  0
 86 85  1  0
 86 90  1  0
 87 86  2  0
 88 83  2  0
 88 87  1  0
 89 88  1  0
 91 92  1  0
 92 95  1  0
 92 94  1  0
 93 91  2  0
 96 71  1  0
 96 97  1  0
 98 96  1  0
100101  1  0
100 99  1  0
M  ISO  4  16 101  17 101  61 100  69 100
M  END
>  <TORSDO>  (44) 
F 25

>  <SCORE>  (44) 
-8.675

>  <name>  (44) 
43

>  <ligand_id>  (44) 
43

>  <original_smiles>  (44) 
[H]OC([H])([H])C1(C([H])([H])C([H])([H])C([H])([H])N([H])C(=O)N2C([H])([H])C([H])([H])C([H])([H])C([H])(n3nc(-c4c([H])c([H])c(Oc5c([H])c([H])c(F)c([H])c5F)c([H])c4[H])c(C(=O)N([H])[H])c3N([H])[H])C2([H])[H])c2c([H])c(C(=O)N([H])[H])c(C([H])([H])C([H])([H])C([H])([H])Oc3c([H])c([H])c4c(c3[H])C([H])([H])N(C(=O)C([H])(N([H])C(=O)C([H])(N([H])C([H])([H])[H])C([H])([H])[H])C(C([H])([H])[H])(C([H])([H])[H])C([H])([H])[H])C([H])(C(=O)N([H])C3([H])c5c([H])c([H])c([H])c([H])c5C([H])([H])C([H])([H])C3([H])[H])C4([H])[H])c([H])c2C1([H])[H]

>  <smiles>  (44) 
[H]OC([H])([H])C1(C([H])([H])C([H])([H])C([H])([H])N([H])C(=O)N2C([H])([H])C([H])([H])C([H])([H])C([H])(n3nc(-c4c([H])c([H])c(Oc5c([H])c([H])c(F)c([H])c5F)c([H])c4[H])c(C(=O)N([H])[H])c3N([H])[H])C2([H])[H])c2c([H])c(C(=O)N([H])[H])c(C([H])([H])C([H])([H])C([H])([H])Oc3c([H])c([H])c4c(c3[H])C([H])([H])N(C(=O)C([H])(N([H])C(=O)C([H])(N([H])C([H])([H])[H])C([H])([H])[H])C(C([H])([H])[H])(C([H])([H])[H])C([H])([H])[H])C([H])(C(=O)N([H])C3([H])c5c([H])c([H])c([H])c([H])c5C([H])([H])C([H])([H])C3([H])[H])C4([H])[H])c([H])c2C1([H])[H]

$$$$
44:0:0
     RDKit          3D

 94102  0  0  1  0  0  0  0  0999 V2000
  -31.8170  -22.2820   18.2280 C   0  0  0  0  0  3  0  0  0  0  0  0
  -31.4280  -23.5000   18.8120 C   0  0  0  0  0  3  0  0  0  0  0  0
  -29.8700  -21.2740   19.2360 C   0  0  0  0  0  3  0  0  0  0  0  0
  -31.0340  -21.1360   18.4550 C   0  0  0  0  0  0  0  0  0  0  0  0
  -30.2490  -23.5410   19.5820 C   0  0  0  0  0  0  0  0  0  0  0  0
  -29.4850  -22.4460   19.7980 N   0  0  0  0  0  0  0  0  0  0  0  0
  -31.3950  -19.8420   17.7900 C   0  0  0  0  0  0  0  0  0  0  0  0
  -31.5350  -18.7280   18.5200 N   0  0  0  0  0  0  0  0  0  0  0  0
  -31.5870  -19.8180   16.5750 O   0  0  0  0  0  0  0  0  0  0  0  0
  -31.7810  -17.9090   17.9780 H   0  0  0  0  0  0  0  0  0  0  0  0
  -31.5270  -18.5190   19.9670 C   0  0  0  0  0  2  0  0  0  0  0  0
  -30.4000  -17.5370   20.3500 C   0  0  0  0  0  2  0  0  0  0  0  0
  -30.7260  -16.6500   21.5770 C   0  0  0  0  0  2  0  0  0  0  0  0
  -30.7210  -14.3830   20.5840 C   0  0  0  0  0  0  0  0  0  0  0  0
  -30.3430  -12.3040   19.3270 C   0  0  0  0  0  2  0  0  0  0  0  0
  -29.4060  -12.5650   18.1310 C   0  0  0  0  0  2  0  0  0  0  0  0
  -27.9290  -12.4500   18.5520 C   0  0  0  0  0  2  0  0  0  0  0  0
  -27.6090  -13.2610   19.8360 C   0  0  0  0  0  3  0  0  0  0  0  0
  -28.6530  -12.9820   20.9420 C   0  0  0  0  0  2  0  0  0  0  0  0
  -29.9940  -13.2550   20.3940 N   0  0  0  0  0  0  0  0  0  0  0  0
  -31.7810  -14.6100   19.9930 O   0  0  0  0  0  0  0  0  0  0  0  0
  -30.1900  -15.2950   21.4110 N   0  0  0  0  0  0  0  0  0  0  0  0
  -29.3320  -15.0610   21.8880 H   0  0  0  0  0  0  0  0  0  0  0  0
  -25.2110  -13.8970   20.5270 C   0  0  0  0  0  0  0  0  0  0  0  0
  -24.1300  -13.1380   20.8880 C   0  0  0  0  0  0  0  0  0  0  0  0
  -24.5740  -11.7800   20.8540 C   0  0  0  0  0  0  0  0  0  0  0  0
  -26.2470  -13.0040   20.2990 N   0  0  0  0  0  0  0  0  0  0  0  0
  -25.8650  -11.7250   20.5530 N   0  0  0  0  0  0  0  0  0  0  0  0
  -23.8340  -10.5260   21.0360 C   0  0  0  0  0  0  0  0  0  0  0  0
  -24.2720   -9.5370   21.9440 C   0  0  0  0  0  3  0  0  0  0  0  0
  -23.5350   -8.3460   22.1180 C   0  0  0  0  0  3  0  0  0  0  0  0
  -22.3450   -8.1350   21.3810 C   0  0  0  0  0  0  0  0  0  0  0  0
  -21.9250   -9.1130   20.4620 C   0  0  0  0  0  3  0  0  0  0  0  0
  -22.6620  -10.2960   20.2870 C   0  0  0  0  0  3  0  0  0  0  0  0
  -21.5790   -6.9970   21.4630 O   0  0  0  0  0  0  0  0  0  0  0  0
  -21.5630   -6.2190   22.5930 C   0  0  0  0  0  0  0  0  0  0  0  0
  -21.2170   -6.7480   23.8560 C   0  0  0  0  0  3  0  0  0  0  0  0
  -21.1440   -5.8980   24.9790 C   0  0  0  0  0  3  0  0  0  0  0  0
  -21.4090   -4.5230   24.8390 C   0  0  0  0  0  0  0  0  0  0  0  0
  -21.7480   -3.9940   23.5810 C   0  0  0  0  0  3  0  0  0  0  0  0
  -21.8220   -4.8400   22.4600 C   0  0  0  0  0  0  0  0  0  0  0  0
  -22.1280   -4.3220   21.2470 F   0  0  0  0  0  0  0  0  0  0  0  0
  -21.3320   -3.7050   25.9160 F   0  0  0  0  0  0  0  0  0  0  0  0
  -22.7370  -13.6310   21.1570 C   0  0  0  0  0  0  0  0  0  0  0  0
  -21.9980  -12.9430   22.0190 N   0  0  0  0  0  0  0  0  0  0  0  0
  -22.3120  -14.6600   20.6340 O   0  0  0  0  0  0  0  0  0  0  0  0
  -22.3560  -12.1100   22.4650 H   0  0  0  0  0  0  0  0  0  0  0  0
  -21.0610  -13.2500   22.2380 H   0  0  0  0  0  0  0  0  0  0  0  0
  -25.3990  -15.2640   20.3530 N   0  0  0  0  0  0  0  0  0  0  0  0
  -24.6520  -15.9400   20.4650 H   0  0  0  0  0  0  0  0  0  0  0  0
  -26.2650  -15.6830   20.0350 H   0  0  0  0  0  0  0  0  0  0  0  0
  -29.8070  -24.8360   20.2390 C   0  0  0  0  0  2  0  0  0  0  0  0
  -28.5200  -25.4370   19.6450 C   0  0  0  0  0  2  0  0  0  0  0  0
  -28.4210  -26.7790   20.1230 O   0  0  0  0  0  0  0  0  0  0  0  0
  -24.5980  -31.8710   23.2210 C   0  0  0  0  0  0  0  0  0  0  0  0
  -27.2130  -27.4400   20.1110 C   0  0  0  0  0  0  0  0  0  0  0  0
  -23.3710  -30.4720   21.5890 C   0  0  0  0  0  3  0  0  0  0  0  0
  -24.8080  -28.9280   20.1550 C   0  0  0  0  0  0  0  0  0  0  0  0
  -25.8930  -30.8300   21.3650 C   0  0  0  0  0  2  0  0  0  0  0  0
  -25.9690  -29.4580   20.7280 C   0  0  0  0  0  0  0  0  0  0  0  0
  -27.1690  -28.7180   20.7090 C   0  0  0  0  0  3  0  0  0  0  0  0
  -26.0310  -26.9150   19.5350 C   0  0  0  0  0  3  0  0  0  0  0  0
  -24.8320  -27.6540   19.5620 C   0  0  0  0  0  3  0  0  0  0  0  0
  -23.5670  -29.7900   20.2070 C   0  0  0  0  0  2  0  0  0  0  0  0
  -24.6390  -31.0710   22.1180 N   0  0  0  0  0  0  0  0  0  0  0  0
  -23.5230  -32.1460   23.7730 O   0  0  0  0  0  0  0  0  0  0  0  0
  -22.7280  -29.4520   22.5550 C   0  0  0  0  0  0  0  0  0  0  0  0
  -21.4040  -29.2680   22.4370 N   0  0  0  0  0  0  0  0  0  0  0  0
  -23.4190  -28.8270   23.3670 O   0  0  0  0  0  0  0  0  0  0  0  0
  -20.9080  -29.8220   21.7520 H   0  0  0  0  0  0  0  0  0  0  0  0
  -18.0380  -28.0680   22.9450 C   0  0  0  0  0  0  0  0  0  0  0  0
  -20.5930  -28.3350   23.2170 C   0  0  0  0  0  3  0  0  0  0  0  0
  -20.7010  -26.8990   22.6510 C   0  0  0  0  0  2  0  0  0  0  0  0
  -19.6010  -26.5660   21.6390 C   0  0  0  0  0  2  0  0  0  0  0  0
  -18.2190  -26.7140   22.2810 C   0  0  0  0  0  2  0  0  0  0  0  0
  -19.1530  -28.8350   23.3710 C   0  0  0  0  0  0  0  0  0  0  0  0
  -18.9310  -30.1040   23.9480 C   0  0  0  0  0  3  0  0  0  0  0  0
  -17.6250  -30.6050   24.1080 C   0  0  0  0  0  3  0  0  0  0  0  0
  -16.5230  -29.8320   23.7000 C   0  0  0  0  0  3  0  0  0  0  0  0
  -16.7310  -28.5670   23.1250 C   0  0  0  0  0  3  0  0  0  0  0  0
  -25.8940  -32.4990   23.8260 C   0  0  0  0  0  3  0  0  0  0  0  0
  -25.5900  -33.8950   24.1700 N   0  0  0  0  0  0  0  0  0  0  0  0
  -25.9100  -34.9520   23.4120 C   0  0  0  0  0  0  0  0  0  0  0  0
  -26.5640  -34.8560   22.3690 O   0  0  0  0  0  0  0  0  0  0  0  0
  -25.0110  -34.0450   24.9830 H   0  0  0  0  0  0  0  0  0  0  0  0
  -24.1700  -36.7390   23.0920 C   0  0  0  0  0  1  0  0  0  0  0  0
  -25.4250  -36.3350   23.8840 C   0  0  0  0  0  3  0  0  0  0  0  0
  -27.5710  -37.2180   24.6830 C   0  0  0  0  0  1  0  0  0  0  0  0
  -26.4530  -37.3910   23.7600 N   0  0  0  0  0  0  0  0  0  0  0  0
  -26.0460  -38.3090   23.9240 H   0  0  0  0  0  0  0  0  0  0  0  0
  -26.4350  -31.7190   25.0850 C   0  0  1  0  0  0  0  0  0  0  0  0
  -25.3640  -31.4680   26.1700 C   0  0  0  0  0  1  0  0  0  0  0  0
  -27.0100  -30.3440   24.6670 C   0  0  0  0  0  1  0  0  0  0  0  0
  -27.5960  -32.5080   25.7350 C   0  0  0  0  0  1  0  0  0  0  0  0
  1  4  2  0
  1  2  1  0
  2  5  2  0
  3  6  2  0
  4  3  1  0
  5  6  1  0
  5 52  1  0
  7  4  1  0
  7  8  1  0
  8 11  1  0
  9  7  2  0
 10  8  1  0
 11 12  1  0
 12 13  1  0
 14 22  1  0
 15 20  1  0
 16 17  1  0
 16 15  1  0
 18 17  1  0
 18 27  1  0
 18 19  1  0
 20 14  1  0
 20 19  1  0
 21 14  2  0
 22 13  1  0
 22 23  1  0
 24 25  2  0
 25 44  1  0
 26 25  1  0
 26 29  1  0
 27 24  1  0
 27 28  1  0
 28 26  2  0
 29 30  1  0
 30 31  2  0
 32 35  1  0
 32 31  1  0
 33 32  2  0
 34 33  1  0
 34 29  2  0
 35 36  1  0
 36 37  1  0
 37 38  2  0
 39 38  1  0
 39 43  1  0
 40 39  2  0
 41 36  2  0
 41 40  1  0
 42 41  1  0
 44 45  1  0
 45 48  1  0
 45 47  1  0
 46 44  2  0
 49 50  1  0
 49 24  1  0
 51 49  1  0
 53 54  1  0
 53 52  1  0
 55 66  2  0
 56 54  1  0
 56 61  1  0
 57 65  1  0
 57 67  1  0
 58 64  1  0
 58 60  1  0
 59 65  1  0
 60 59  1  0
 61 60  2  0
 62 63  1  0
 62 56  2  0
 63 58  2  0
 64 57  1  0
 65 55  1  0
 67 69  2  0
 68 67  1  0
 70 68  1  0
 71 80  2  0
 71 76  1  0
 72 68  1  0
 72 76  1  0
 73 72  1  0
 74 75  1  0
 74 73  1  0
 75 71  1  0
 76 77  2  0
 77 78  1  0
 79 78  2  0
 80 79  1  0
 81 55  1  0
 81 82  1  0
 81 91  1  0
 82 85  1  0
 83 87  1  0
 83 82  1  0
 84 83  2  0
 87 86  1  0
 89 87  1  0
 89 90  1  0
 89 88  1  0
 91 94  1  1
 91 92  1  0
 93 91  1  0
M  ISO  4  14 100  22 100  53 101  54 101
M  END
>  <TORSDO>  (45) 
F 22

>  <SCORE>  (45) 
-13.061

>  <name>  (45) 
44

>  <ligand_id>  (45) 
44

>  <original_smiles>  (45) 
[H]c1nc(C([H])([H])C([H])([H])Oc2c([H])c([H])c3c(c2[H])C([H])([H])N(C(=O)C([H])(N([H])C(=O)C([H])(N([H])C([H])([H])[H])C([H])([H])[H])C(C([H])([H])[H])(C([H])([H])[H])C([H])([H])[H])C([H])(C(=O)N([H])C2([H])c4c([H])c([H])c([H])c([H])c4C([H])([H])C([H])([H])C2([H])[H])C3([H])[H])c([H])c([H])c1C(=O)N([H])C([H])([H])C([H])([H])C([H])([H])N([H])C(=O)N1C([H])([H])C([H])([H])C([H])([H])C([H])(n2nc(-c3c([H])c([H])c(Oc4c([H])c([H])c(F)c([H])c4F)c([H])c3[H])c(C(=O)N([H])[H])c2N([H])[H])C1([H])[H]

>  <smiles>  (45) 
[H]c1nc(C([H])([H])C([H])([H])Oc2c([H])c([H])c3c(c2[H])C([H])([H])N(C(=O)C([H])(N([H])C(=O)C([H])(N([H])C([H])([H])[H])C([H])([H])[H])C(C([H])([H])[H])(C([H])([H])[H])C([H])([H])[H])C([H])(C(=O)N([H])C2([H])c4c([H])c([H])c([H])c([H])c4C([H])([H])C([H])([H])C2([H])[H])C3([H])[H])c([H])c([H])c1C(=O)N([H])C([H])([H])C([H])([H])C([H])([H])N([H])C(=O)N1C([H])([H])C([H])([H])C([H])([H])C([H])(n2nc(-c3c([H])c([H])c(Oc4c([H])c([H])c(F)c([H])c4F)c([H])c3[H])c(C(=O)N([H])[H])c2N([H])[H])C1([H])[H]

$$$$
45:0:0
     RDKit          3D

 93100  0  0  1  0  0  0  0  0999 V2000
  -27.1200  -22.3440   18.6030 C   0  0  0  0  0  2  0  0  0  0  0  0
  -27.6170  -23.1280   19.7580 N   0  0  0  0  0  4  0  0  0  0  0  0
  -28.2310  -22.5610   20.3260 H   0  0  0  0  0  0  0  0  0  0  0  0
  -26.8010  -23.3300   20.3180 H   0  0  0  0  0  0  0  0  0  0  0  0
  -28.2720  -24.4140   19.4190 C   0  0  0  0  0  2  0  0  0  0  0  0
  -28.2990  -25.3850   20.6170 C   0  0  0  0  0  2  0  0  0  0  0  0
  -28.3850  -26.7460   20.1870 O   0  0  0  0  0  0  0  0  0  0  0  0
  -24.5630  -31.8760   23.2460 C   0  0  0  0  0  0  0  0  0  0  0  0
  -27.2010  -27.4470   20.1780 C   0  0  0  0  0  0  0  0  0  0  0  0
  -23.3540  -30.4800   21.6010 C   0  0  0  0  0  3  0  0  0  0  0  0
  -24.8030  -28.9430   20.1860 C   0  0  0  0  0  0  0  0  0  0  0  0
  -25.8790  -30.8400   21.4050 C   0  0  0  0  0  2  0  0  0  0  0  0
  -25.9610  -29.4720   20.7640 C   0  0  0  0  0  0  0  0  0  0  0  0
  -27.1660  -28.7360   20.7520 C   0  0  0  0  0  3  0  0  0  0  0  0
  -26.0190  -26.9210   19.6070 C   0  0  0  0  0  3  0  0  0  0  0  0
  -24.8260  -27.6650   19.6050 C   0  0  0  0  0  3  0  0  0  0  0  0
  -23.5610  -29.8000   20.2220 C   0  0  0  0  0  2  0  0  0  0  0  0
  -24.6170  -31.0790   22.1410 N   0  0  0  0  0  0  0  0  0  0  0  0
  -23.4830  -32.1510   23.7860 O   0  0  0  0  0  0  0  0  0  0  0  0
  -22.7000  -29.4590   22.5570 C   0  0  0  0  0  0  0  0  0  0  0  0
  -21.3730  -29.2890   22.4300 N   0  0  0  0  0  0  0  0  0  0  0  0
  -23.3800  -28.8260   23.3690 O   0  0  0  0  0  0  0  0  0  0  0  0
  -20.8840  -29.8520   21.7460 H   0  0  0  0  0  0  0  0  0  0  0  0
  -17.9860  -28.1430   22.9360 C   0  0  0  0  0  0  0  0  0  0  0  0
  -20.5490  -28.3580   23.2000 C   0  0  0  0  0  3  0  0  0  0  0  0
  -20.6270  -26.9320   22.6120 C   0  0  0  0  0  2  0  0  0  0  0  0
  -19.5160  -26.6330   21.5990 C   0  0  0  0  0  2  0  0  0  0  0  0
  -18.1390  -26.7970   22.2500 C   0  0  0  0  0  2  0  0  0  0  0  0
  -19.1190  -28.8840   23.3670 C   0  0  0  0  0  0  0  0  0  0  0  0
  -18.9230  -30.1480   23.9640 C   0  0  0  0  0  3  0  0  0  0  0  0
  -17.6280  -30.6720   24.1390 C   0  0  0  0  0  3  0  0  0  0  0  0
  -16.5100  -29.9250   23.7260 C   0  0  0  0  0  3  0  0  0  0  0  0
  -16.6900  -28.6640   23.1310 C   0  0  0  0  0  3  0  0  0  0  0  0
  -25.8510  -32.4990   23.8700 C   0  0  0  0  0  3  0  0  0  0  0  0
  -26.3610  -31.7290   25.1490 C   0  0  1  0  0  0  0  0  0  0  0  0
  -25.2650  -31.5040   26.2160 C   0  0  0  0  0  1  0  0  0  0  0  0
  -26.9350  -30.3470   24.7600 C   0  0  0  0  0  1  0  0  0  0  0  0
  -27.5100  -32.5190   25.8170 C   0  0  0  0  0  1  0  0  0  0  0  0
  -25.5530  -33.9010   24.1890 N   0  0  0  0  0  0  0  0  0  0  0  0
  -25.9020  -34.9450   23.4260 C   0  0  0  0  0  0  0  0  0  0  0  0
  -26.5800  -34.8310   22.4020 O   0  0  0  0  0  0  0  0  0  0  0  0
  -24.9600  -34.0680   24.9900 H   0  0  0  0  0  0  0  0  0  0  0  0
  -24.1910  -36.7480   23.0390 C   0  0  0  0  0  1  0  0  0  0  0  0
  -25.4180  -36.3400   23.8690 C   0  0  0  0  0  3  0  0  0  0  0  0
  -27.5490  -37.2110   24.7270 C   0  0  0  0  0  1  0  0  0  0  0  0
  -26.4610  -37.3850   23.7660 N   0  0  0  0  0  0  0  0  0  0  0  0
  -26.0590  -38.3080   23.9020 H   0  0  0  0  0  0  0  0  0  0  0  0
  -28.2120  -21.9290   17.5890 C   0  0  0  0  0  2  0  0  0  0  0  0
  -29.3410  -21.0390   18.1450 C   0  0  0  0  0  2  0  0  0  0  0  0
  -28.8470  -19.7080   18.7440 C   0  0  0  0  0  2  0  0  0  0  0  0
  -29.9660  -18.8980   19.4170 C   0  0  0  0  0  2  0  0  0  0  0  0
  -29.4080  -17.6740   20.1740 C   0  0  0  0  0  2  0  0  0  0  0  0
  -30.4740  -16.8450   20.9270 C   0  0  0  0  0  3  0  0  0  0  0  0
  -30.7380  -14.4140   20.4220 C   0  0  0  0  0  0  0  0  0  0  0  0
  -30.3950  -12.2700   19.2750 C   0  0  0  0  0  2  0  0  0  0  0  0
  -29.4640  -12.5050   18.0680 C   0  0  0  0  0  2  0  0  0  0  0  0
  -27.9890  -12.3820   18.5010 C   0  0  0  0  0  2  0  0  0  0  0  0
  -27.6590  -13.2280   19.7610 C   0  0  0  0  0  3  0  0  0  0  0  0
  -28.7060  -12.9910   20.8720 C   0  0  0  0  0  2  0  0  0  0  0  0
  -30.0390  -13.2550   20.3040 N   0  0  0  0  0  0  0  0  0  0  0  0
  -31.8640  -14.5740   19.9480 O   0  0  0  0  0  0  0  0  0  0  0  0
  -30.0540  -15.4390   20.9470 N   0  0  0  0  0  0  0  0  0  0  0  0
  -29.1200  -15.2350   21.2680 H   0  0  0  0  0  0  0  0  0  0  0  0
  -25.2600  -13.8610   20.4510 C   0  0  0  0  0  0  0  0  0  0  0  0
  -24.1840  -13.0990   20.8240 C   0  0  0  0  0  0  0  0  0  0  0  0
  -24.6350  -11.7450   20.8050 C   0  0  0  0  0  0  0  0  0  0  0  0
  -26.3000  -12.9700   20.2350 N   0  0  0  0  0  0  0  0  0  0  0  0
  -25.9270  -11.6930   20.5050 N   0  0  0  0  0  0  0  0  0  0  0  0
  -23.9000  -10.4890   21.0040 C   0  0  0  0  0  0  0  0  0  0  0  0
  -24.3290   -9.5210   21.9390 C   0  0  0  0  0  3  0  0  0  0  0  0
  -23.5950   -8.3300   22.1230 C   0  0  0  0  0  3  0  0  0  0  0  0
  -22.4180   -8.0970   21.3710 C   0  0  0  0  0  0  0  0  0  0  0  0
  -22.0100   -9.0540   20.4250 C   0  0  0  0  0  3  0  0  0  0  0  0
  -22.7450  -10.2370   20.2400 C   0  0  0  0  0  3  0  0  0  0  0  0
  -21.6570   -6.9570   21.4650 O   0  0  0  0  0  0  0  0  0  0  0  0
  -21.6130   -6.2140   22.6170 C   0  0  0  0  0  0  0  0  0  0  0  0
  -21.1960   -6.7680   23.8480 C   0  0  0  0  0  3  0  0  0  0  0  0
  -21.0980   -5.9510   24.9920 C   0  0  0  0  0  3  0  0  0  0  0  0
  -21.4080   -4.5800   24.9070 C   0  0  0  0  0  0  0  0  0  0  0  0
  -21.8160   -4.0250   23.6820 C   0  0  0  0  0  3  0  0  0  0  0  0
  -21.9160   -4.8400   22.5410 C   0  0  0  0  0  0  0  0  0  0  0  0
  -22.2920   -4.2940   21.3580 F   0  0  0  0  0  0  0  0  0  0  0  0
  -21.3050   -3.7940   26.0040 F   0  0  0  0  0  0  0  0  0  0  0  0
  -22.7900  -13.5900   21.0860 C   0  0  0  0  0  0  0  0  0  0  0  0
  -22.0490  -12.9050   21.9520 N   0  0  0  0  0  0  0  0  0  0  0  0
  -22.3620  -14.6140   20.5570 O   0  0  0  0  0  0  0  0  0  0  0  0
  -22.4030  -12.0760   22.4050 H   0  0  0  0  0  0  0  0  0  0  0  0
  -21.1130  -13.2180   22.1660 H   0  0  0  0  0  0  0  0  0  0  0  0
  -25.4310  -15.2280   20.2590 N   0  0  0  0  0  0  0  0  0  0  0  0
  -24.6600  -15.8810   20.3490 H   0  0  0  0  0  0  0  0  0  0  0  0
  -26.2810  -15.6640   19.9180 H   0  0  0  0  0  0  0  0  0  0  0  0
  -31.2870  -18.7130   22.5510 C   0  0  0  0  0  1  0  0  0  0  0  0
  -30.7280  -17.2930   22.3850 C   0  0  0  0  0  2  0  0  0  0  0  0
  1  2  1  0
  2  4  1  0
  2  3  1  0
  5  2  1  0
  5  6  1  0
  7  6  1  0
  8 19  2  0
  9  7  1  0
  9 14  1  0
 10 18  1  0
 10 20  1  0
 11 17  1  0
 11 13  1  0
 12 18  1  0
 13 12  1  0
 14 13  2  0
 15  9  2  0
 16 15  1  0
 16 11  2  0
 17 10  1  0
 18  8  1  0
 20 22  2  0
 21 20  1  0
 23 21  1  0
 24 33  2  0
 24 29  1  0
 25 21  1  0
 25 29  1  0
 26 25  1  0
 27 28  1  0
 27 26  1  0
 28 24  1  0
 29 30  2  0
 30 31  1  0
 32 31  2  0
 33 32  1  0
 34  8  1  0
 34 39  1  0
 34 35  1  0
 35 38  1  1
 35 36  1  0
 37 35  1  0
 39 42  1  0
 40 44  1  0
 40 39  1  0
 41 40  2  0
 44 43  1  0
 46 44  1  0
 46 47  1  0
 46 45  1  0
 48 49  1  0
 48  1  1  0
 49 50  1  0
 50 51  1  0
 51 52  1  0
 53 52  1  0
 53 62  1  0
 53 93  1  0
 54 62  1  0
 55 60  1  0
 56 57  1  0
 56 55  1  0
 58 57  1  0
 58 67  1  0
 58 59  1  0
 60 54  1  0
 60 59  1  0
 61 54  2  0
 62 63  1  0
 64 65  2  0
 65 84  1  0
 66 65  1  0
 66 69  1  0
 67 64  1  0
 67 68  1  0
 68 66  2  0
 69 70  1  0
 70 71  2  0
 72 75  1  0
 72 71  1  0
 73 72  2  0
 74 73  1  0
 74 69  2  0
 75 76  1  0
 76 77  1  0
 77 78  2  0
 79 78  1  0
 79 83  1  0
 80 79  2  0
 81 76  2  0
 81 80  1  0
 82 81  1  0
 84 85  1  0
 85 88  1  0
 85 87  1  0
 86 84  2  0
 89 90  1  0
 89 64  1  0
 91 89  1  0
 93 92  1  0
M  ISO  4   6 101   7 101  54 100  62 100
M  END
>  <TORSDO>  (46) 
F 26

>  <SCORE>  (46) 
-11.790

>  <name>  (46) 
45

>  <ligand_id>  (46) 
45

>  <original_smiles>  (46) 
[H]c1c([H])c([H])c2c(c1[H])C([H])([H])C([H])([H])C([H])([H])C2([H])N([H])C(=O)C1([H])N(C(=O)C([H])(N([H])C(=O)C([H])(N([H])C([H])([H])[H])C([H])([H])[H])C(C([H])([H])[H])(C([H])([H])[H])C([H])([H])[H])C([H])([H])c2c([H])c(OC([H])([H])C([H])([H])[N+]([H])([H])C([H])([H])C([H])([H])C([H])([H])C([H])([H])C([H])([H])C([H])([H])C([H])(N([H])C(=O)N3C([H])([H])C([H])([H])C([H])([H])C([H])(n4nc(-c5c([H])c([H])c(Oc6c([H])c([H])c(F)c([H])c6F)c([H])c5[H])c(C(=O)N([H])[H])c4N([H])[H])C3([H])[H])C([H])([H])C([H])([H])[H])c([H])c([H])c2C1([H])[H]

>  <smiles>  (46) 
[H]c1c([H])c([H])c2c(c1[H])C([H])([H])C([H])([H])C([H])([H])C2([H])N([H])C(=O)C1([H])N(C(=O)C([H])(N([H])C(=O)C([H])(N([H])C([H])([H])[H])C([H])([H])[H])C(C([H])([H])[H])(C([H])([H])[H])C([H])([H])[H])C([H])([H])c2c([H])c(OC([H])([H])C([H])([H])[N+]([H])([H])C([H])([H])C([H])([H])C([H])([H])C([H])([H])C([H])([H])C([H])([H])C([H])(N([H])C(=O)N3C([H])([H])C([H])([H])C([H])([H])C([H])(n4nc(-c5c([H])c([H])c(Oc6c([H])c([H])c(F)c([H])c6F)c([H])c5[H])c(C(=O)N([H])[H])c4N([H])[H])C3([H])[H])C([H])([H])C([H])([H])[H])c([H])c([H])c2C1([H])[H]

$$$$
46:0:0
     RDKit          3D

 92 99  0  0  1  0  0  0  0  0999 V2000
  -31.0870  -22.8680   16.4710 N   0  0  0  0  0  4  0  0  0  0  0  0
  -31.8940  -23.3900   16.1650 H   0  0  0  0  0  0  0  0  0  0  0  0
  -30.5790  -22.5840   15.6440 H   0  0  0  0  0  0  0  0  0  0  0  0
  -30.7850  -20.4160   16.7380 C   0  0  0  0  0  1  0  0  0  0  0  0
  -31.5590  -21.6660   17.2090 C   0  0  0  0  0  3  0  0  0  0  0  0
  -33.1170  -21.5440   17.2430 C   0  0  0  0  0  2  0  0  0  0  0  0
  -33.8950  -21.6520   15.9030 C   0  0  0  0  0  2  0  0  0  0  0  0
  -33.8280  -20.4610   15.1100 O   0  0  0  0  0  0  0  0  0  0  0  0
  -33.5210  -17.5190    8.6310 C   0  0  0  0  0  0  0  0  0  0  0  0
  -33.6190  -20.6450   13.7630 C   0  0  0  0  0  0  0  0  0  0  0  0
  -33.4430  -19.9970    8.6990 C   0  0  0  0  0  3  0  0  0  0  0  0
  -33.1090  -21.0360   11.0090 C   0  0  0  0  0  0  0  0  0  0  0  0
  -32.5870  -18.6110   10.6680 C   0  0  0  0  0  2  0  0  0  0  0  0
  -32.9910  -19.7560   11.5720 C   0  0  0  0  0  0  0  0  0  0  0  0
  -33.2400  -19.5570   12.9480 C   0  0  0  0  0  3  0  0  0  0  0  0
  -33.7030  -21.9340   13.1870 C   0  0  0  0  0  3  0  0  0  0  0  0
  -33.4650  -22.1350   11.8150 C   0  0  0  0  0  3  0  0  0  0  0  0
  -32.8420  -21.1650    9.5240 C   0  0  0  0  0  2  0  0  0  0  0  0
  -33.2210  -18.6530    9.3290 N   0  0  0  0  0  0  0  0  0  0  0  0
  -33.9470  -17.5820    7.4690 O   0  0  0  0  0  0  0  0  0  0  0  0
  -34.9340  -20.3090    8.4400 C   0  0  0  0  0  0  0  0  0  0  0  0
  -35.2140  -21.0070    7.3280 N   0  0  0  0  0  0  0  0  0  0  0  0
  -35.8010  -19.9520    9.2400 O   0  0  0  0  0  0  0  0  0  0  0  0
  -34.4460  -21.2220    6.7040 H   0  0  0  0  0  0  0  0  0  0  0  0
  -37.1670  -22.0640    4.4760 C   0  0  0  0  0  0  0  0  0  0  0  0
  -36.5360  -21.4760    6.9130 C   0  0  0  0  0  3  0  0  0  0  0  0
  -36.7110  -22.9840    7.2150 C   0  0  0  0  0  2  0  0  0  0  0  0
  -36.3430  -23.8870    6.0320 C   0  0  0  0  0  2  0  0  0  0  0  0
  -37.1930  -23.5480    4.8050 C   0  0  0  0  0  2  0  0  0  0  0  0
  -36.8370  -21.0960    5.4590 C   0  0  0  0  0  0  0  0  0  0  0  0
  -36.7730  -19.7380    5.0850 C   0  0  0  0  0  3  0  0  0  0  0  0
  -37.0400  -19.3380    3.7650 C   0  0  0  0  0  3  0  0  0  0  0  0
  -37.3930  -20.2960    2.7990 C   0  0  0  0  0  3  0  0  0  0  0  0
  -37.4500  -21.6570    3.1540 C   0  0  0  0  0  3  0  0  0  0  0  0
  -33.3380  -16.0990    9.2530 C   0  0  0  0  0  3  0  0  0  0  0  0
  -34.6910  -15.4610    9.7540 C   0  0  1  0  0  0  0  0  0  0  0  0
  -35.4700  -14.7090    8.6520 C   0  0  0  0  0  1  0  0  0  0  0  0
  -35.6210  -16.5490   10.3340 C   0  0  0  0  0  1  0  0  0  0  0  0
  -34.4090  -14.4660   10.9070 C   0  0  0  0  0  1  0  0  0  0  0  0
  -32.7130  -15.2450    8.2340 N   0  0  0  0  0  0  0  0  0  0  0  0
  -31.3930  -15.0410    8.1100 C   0  0  0  0  0  0  0  0  0  0  0  0
  -30.5680  -15.5020    8.9070 O   0  0  0  0  0  0  0  0  0  0  0  0
  -33.3280  -14.8550    7.5360 H   0  0  0  0  0  0  0  0  0  0  0  0
  -29.7180  -14.9040    6.2410 C   0  0  0  0  0  1  0  0  0  0  0  0
  -30.9040  -14.1990    6.9170 C   0  0  0  0  0  3  0  0  0  0  0  0
  -31.6350  -11.8800    7.2600 C   0  0  0  0  0  1  0  0  0  0  0  0
  -30.5170  -12.8200    7.2890 N   0  0  0  0  0  0  0  0  0  0  0  0
  -29.7870  -12.4700    6.6750 H   0  0  0  0  0  0  0  0  0  0  0  0
  -30.2470  -23.7770   17.2940 C   0  0  0  0  0  2  0  0  0  0  0  0
  -30.7980  -24.0350   18.7190 C   0  0  0  0  0  2  0  0  0  0  0  0
  -31.4460  -25.4400   18.7830 C   0  0  0  0  0  2  0  0  0  0  0  0
  -31.1750  -26.3980   17.6060 C   0  0  0  0  0  2  0  0  0  0  0  0
  -32.1990  -27.5480   17.4650 C   0  0  0  0  0  2  0  0  0  0  0  0
  -31.5990  -28.9400   17.7640 C   0  0  0  0  0  2  0  0  0  0  0  0
  -33.1000  -30.8070   16.6300 C   0  0  0  0  0  0  0  0  0  0  0  0
  -33.5060  -31.3650   14.2520 C   0  0  0  0  0  2  0  0  0  0  0  0
  -32.3030  -32.1410   13.6710 C   0  0  0  0  0  2  0  0  0  0  0  0
  -31.1730  -31.1890   13.2160 C   0  0  0  0  0  2  0  0  0  0  0  0
  -30.8590  -30.0910   14.2740 C   0  0  0  0  0  3  0  0  0  0  0  0
  -32.1930  -29.4280   14.6760 C   0  0  0  0  0  2  0  0  0  0  0  0
  -33.0150  -30.4610   15.3120 N   0  0  0  0  0  0  0  0  0  0  0  0
  -33.7200  -31.8180   16.9810 O   0  0  0  0  0  0  0  0  0  0  0  0
  -32.6070  -30.0140   17.6140 N   0  0  0  0  0  0  0  0  0  0  0  0
  -32.8830  -30.3840   18.5130 H   0  0  0  0  0  0  0  0  0  0  0  0
  -28.5360  -29.2690   13.5270 C   0  0  0  0  0  0  0  0  0  0  0  0
  -28.1130  -28.0630   13.0270 C   0  0  0  0  0  0  0  0  0  0  0  0
  -29.2690  -27.2300   12.9790 C   0  0  0  0  0  0  0  0  0  0  0  0
  -29.8910  -29.1160   13.7790 N   0  0  0  0  0  0  0  0  0  0  0  0
  -30.3210  -27.8670   13.4780 N   0  0  0  0  0  0  0  0  0  0  0  0
  -29.4580  -25.8820   12.4280 C   0  0  0  0  0  0  0  0  0  0  0  0
  -29.3300  -24.7360   13.2390 C   0  0  0  0  0  3  0  0  0  0  0  0
  -29.5030  -23.4470   12.6920 C   0  0  0  0  0  3  0  0  0  0  0  0
  -29.8000  -23.2940   11.3170 C   0  0  0  0  0  0  0  0  0  0  0  0
  -29.9450  -24.4400   10.5170 C   0  0  0  0  0  3  0  0  0  0  0  0
  -29.7770  -25.7250   11.0640 C   0  0  0  0  0  3  0  0  0  0  0  0
  -30.0030  -22.0860   10.6990 O   0  0  0  0  0  0  0  0  0  0  0  0
  -28.9580  -21.3340   10.2230 C   0  0  0  0  0  0  0  0  0  0  0  0
  -28.0970  -21.8140    9.2120 C   0  0  0  0  0  3  0  0  0  0  0  0
  -27.0770  -20.9830    8.7080 C   0  0  0  0  0  3  0  0  0  0  0  0
  -26.9270  -19.6730    9.1970 C   0  0  0  0  0  0  0  0  0  0  0  0
  -27.7850  -19.1950   10.2020 C   0  0  0  0  0  3  0  0  0  0  0  0
  -28.8000  -20.0200   10.7100 C   0  0  0  0  0  0  0  0  0  0  0  0
  -29.6420  -19.5500   11.6630 F   0  0  0  0  0  0  0  0  0  0  0  0
  -25.9520  -18.8700    8.7080 F   0  0  0  0  0  0  0  0  0  0  0  0
  -26.7330  -27.7340   12.5360 C   0  0  0  0  0  0  0  0  0  0  0  0
  -26.1680  -26.6130   12.9810 N   0  0  0  0  0  0  0  0  0  0  0  0
  -26.1250  -28.4890   11.7800 O   0  0  0  0  0  0  0  0  0  0  0  0
  -26.6480  -26.0000   13.6230 H   0  0  0  0  0  0  0  0  0  0  0  0
  -25.2390  -26.3710   12.6680 H   0  0  0  0  0  0  0  0  0  0  0  0
  -27.8960  -30.4770   13.7680 N   0  0  0  0  0  0  0  0  0  0  0  0
  -26.9270  -30.6460   13.5300 H   0  0  0  0  0  0  0  0  0  0  0  0
  -28.3770  -31.3190   14.0590 H   0  0  0  0  0  0  0  0  0  0  0  0
  1  5  1  0
  1 49  1  0
  2  1  1  0
  3  1  1  0
  5  4  1  0
  5  6  1  0
  7  6  1  0
  8  7  1  0
  9 19  1  0
 10  8  1  0
 11 21  1  0
 11 19  1  0
 11 18  1  0
 12 14  2  0
 12 17  1  0
 13 14  1  0
 14 15  1  0
 15 10  2  0
 16 10  1  0
 17 16  2  0
 18 12  1  0
 19 13  1  0
 20  9  2  0
 21 23  2  0
 22 21  1  0
 24 22  1  0
 25 29  1  0
 25 30  1  0
 26 27  1  0
 26 22  1  0
 28 27  1  0
 29 28  1  0
 30 26  1  0
 31 30  2  0
 32 31  1  0
 33 34  1  0
 33 32  2  0
 34 25  2  0
 35  9  1  0
 35 36  1  0
 36 38  1  1
 36 39  1  0
 37 36  1  0
 40 35  1  0
 41 40  1  0
 41 42  2  0
 43 40  1  0
 45 44  1  0
 45 47  1  0
 45 41  1  0
 46 47  1  0
 48 47  1  0
 49 50  1  0
 50 51  1  0
 52 51  1  0
 53 52  1  0
 53 54  1  0
 55 62  2  0
 55 63  1  0
 56 61  1  0
 57 56  1  0
 58 57  1  0
 59 58  1  0
 59 60  1  0
 60 61  1  0
 61 55  1  0
 63 54  1  0
 63 64  1  0
 65 90  1  0
 65 68  1  0
 66 65  2  0
 67 66  1  0
 67 69  2  0
 68 59  1  0
 69 68  1  0
 70 67  1  0
 70 71  1  0
 72 71  2  0
 73 72  1  0
 74 75  1  0
 74 73  2  0
 75 70  2  0
 76 73  1  0
 77 76  1  0
 77 82  1  0
 78 77  2  0
 79 80  2  0
 79 78  1  0
 80 81  1  0
 81 82  2  0
 82 83  1  0
 84 80  1  0
 85 86  1  0
 85 66  1  0
 86 88  1  0
 87 85  2  0
 89 86  1  0
 90 92  1  0
 91 90  1  0
M  ISO  4   7 101   8 101  55 100  63 100
M  END
>  <TORSDO>  (47) 
F 25

>  <SCORE>  (47) 
-2.915

>  <name>  (47) 
46

>  <ligand_id>  (47) 
46

>  <original_smiles>  (47) 
[H]c1c([H])c([H])c2c(c1[H])C([H])([H])C([H])([H])C([H])([H])C2([H])N([H])C(=O)C1([H])N(C(=O)C([H])(N([H])C(=O)C([H])(N([H])C([H])([H])[H])C([H])([H])[H])C(C([H])([H])[H])(C([H])([H])[H])C([H])([H])[H])C([H])([H])c2c([H])c(OC([H])([H])C([H])([H])C([H])(C([H])([H])[H])[N+]([H])([H])C([H])([H])C([H])([H])C([H])([H])C([H])([H])C([H])([H])C([H])([H])N([H])C(=O)N3C([H])([H])C([H])([H])C([H])([H])C([H])(n4nc(-c5c([H])c([H])c(Oc6c([H])c([H])c(F)c([H])c6F)c([H])c5[H])c(C(=O)N([H])[H])c4N([H])[H])C3([H])[H])c([H])c([H])c2C1([H])[H]

>  <smiles>  (47) 
[H]c1c([H])c([H])c2c(c1[H])C([H])([H])C([H])([H])C([H])([H])C2([H])N([H])C(=O)C1([H])N(C(=O)C([H])(N([H])C(=O)C([H])(N([H])C([H])([H])[H])C([H])([H])[H])C(C([H])([H])[H])(C([H])([H])[H])C([H])([H])[H])C([H])([H])c2c([H])c(OC([H])([H])C([H])([H])C([H])(C([H])([H])[H])[N+]([H])([H])C([H])([H])C([H])([H])C([H])([H])C([H])([H])C([H])([H])C([H])([H])N([H])C(=O)N3C([H])([H])C([H])([H])C([H])([H])C([H])(n4nc(-c5c([H])c([H])c(Oc6c([H])c([H])c(F)c([H])c6F)c([H])c5[H])c(C(=O)N([H])[H])c4N([H])[H])C3([H])[H])c([H])c([H])c2C1([H])[H]

$$$$
47:0:0
     RDKit          3D

 98106  0  0  1  0  0  0  0  0999 V2000
  -30.9240  -22.8330   15.8960 C   0  0  0  0  0  2  0  0  0  0  0  0
  -28.9580  -23.1750   17.3760 C   0  0  0  0  0  0  0  0  0  0  0  0
  -30.1830  -23.5090   16.9600 N   0  0  0  0  0  0  0  0  0  0  0  0
  -28.3480  -22.1940   16.9550 O   0  0  0  0  0  0  0  0  0  0  0  0
  -30.6080  -24.3270   17.3860 H   0  0  0  0  0  0  0  0  0  0  0  0
  -28.3180  -24.0950   18.4100 C   0  0  0  0  0  2  0  0  0  0  0  0
  -28.3390  -23.5010   19.8230 C   0  0  0  0  0  2  0  0  0  0  0  0
  -27.6820  -24.4470   20.8390 C   0  0  0  0  0  2  0  0  0  0  0  0
  -28.5440  -25.6890   21.2070 C   0  0  0  0  0  2  0  0  0  0  0  0
  -28.6150  -26.7670   20.2590 O   0  0  0  0  0  0  0  0  0  0  0  0
  -24.6610  -31.9120   23.2130 C   0  0  0  0  0  0  0  0  0  0  0  0
  -27.4750  -27.5280   20.2070 C   0  0  0  0  0  0  0  0  0  0  0  0
  -23.5310  -30.4780   21.5350 C   0  0  0  0  0  3  0  0  0  0  0  0
  -25.0680  -28.9820   20.1460 C   0  0  0  0  0  0  0  0  0  0  0  0
  -26.0500  -30.8980   21.4100 C   0  0  0  0  0  2  0  0  0  0  0  0
  -26.1870  -29.5170   20.7950 C   0  0  0  0  0  0  0  0  0  0  0  0
  -27.3920  -28.7780   20.8560 C   0  0  0  0  0  3  0  0  0  0  0  0
  -26.3630  -27.0480   19.4920 C   0  0  0  0  0  3  0  0  0  0  0  0
  -25.1430  -27.7390   19.5000 C   0  0  0  0  0  3  0  0  0  0  0  0
  -23.7990  -29.8080   20.1620 C   0  0  0  0  0  2  0  0  0  0  0  0
  -24.7650  -31.1130   22.1120 N   0  0  0  0  0  0  0  0  0  0  0  0
  -23.5570  -32.1550   23.7220 O   0  0  0  0  0  0  0  0  0  0  0  0
  -22.8870  -29.4370   22.4830 C   0  0  0  0  0  0  0  0  0  0  0  0
  -21.5690  -29.2220   22.3270 N   0  0  0  0  0  0  0  0  0  0  0  0
  -23.5660  -28.8220   23.3100 O   0  0  0  0  0  0  0  0  0  0  0  0
  -21.0700  -29.7880   21.6560 H   0  0  0  0  0  0  0  0  0  0  0  0
  -18.2170  -27.9470   22.7520 C   0  0  0  0  0  0  0  0  0  0  0  0
  -20.7600  -28.2630   23.0810 C   0  0  0  0  0  3  0  0  0  0  0  0
  -20.9100  -26.8280   22.5160 C   0  0  0  0  0  2  0  0  0  0  0  0
  -19.8460  -26.4810   21.4750 C   0  0  0  0  0  2  0  0  0  0  0  0
  -18.4420  -26.6010   22.0840 C   0  0  0  0  0  2  0  0  0  0  0  0
  -19.3060  -28.7310   23.2100 C   0  0  0  0  0  0  0  0  0  0  0  0
  -19.0400  -29.9870   23.7990 C   0  0  0  0  0  3  0  0  0  0  0  0
  -17.7250  -30.4710   23.9060 C   0  0  0  0  0  3  0  0  0  0  0  0
  -16.6500  -29.6830   23.4620 C   0  0  0  0  0  3  0  0  0  0  0  0
  -16.8960  -28.4180   22.9000 C   0  0  0  0  0  3  0  0  0  0  0  0
  -25.9130  -32.5770   23.8680 C   0  0  0  0  0  3  0  0  0  0  0  0
  -26.4280  -31.8140   25.1530 C   0  0  1  0  0  0  0  0  0  0  0  0
  -25.3250  -31.5420   26.2070 C   0  0  0  0  0  1  0  0  0  0  0  0
  -27.0660  -30.4570   24.7700 C   0  0  0  0  0  1  0  0  0  0  0  0
  -27.5520  -32.6300   25.8400 C   0  0  0  0  0  1  0  0  0  0  0  0
  -25.5620  -33.9670   24.1900 N   0  0  0  0  0  0  0  0  0  0  0  0
  -25.8880  -35.0230   23.4340 C   0  0  0  0  0  0  0  0  0  0  0  0
  -26.5850  -34.9370   22.4200 O   0  0  0  0  0  0  0  0  0  0  0  0
  -24.9530  -34.1020   24.9860 H   0  0  0  0  0  0  0  0  0  0  0  0
  -24.1360  -36.7630   23.0000 C   0  0  0  0  0  1  0  0  0  0  0  0
  -25.3510  -36.4010   23.8690 C   0  0  0  0  0  3  0  0  0  0  0  0
  -27.4390  -37.3430   24.7600 C   0  0  0  0  0  1  0  0  0  0  0  0
  -26.3600  -37.4790   23.7810 N   0  0  0  0  0  0  0  0  0  0  0  0
  -25.9310  -38.3880   23.9280 H   0  0  0  0  0  0  0  0  0  0  0  0
  -31.9240  -21.7720   16.4180 C   0  0  0  0  0  2  0  0  0  0  0  0
  -30.8520  -19.9880   19.7080 C   0  0  0  0  0  3  0  0  0  0  0  0
  -30.1970  -18.6350   17.7890 C   0  0  0  0  0  3  0  0  0  0  0  0
  -31.3850  -20.9610   18.8190 C   0  0  0  0  0  3  0  0  0  0  0  0
  -30.7370  -19.5920   16.9130 C   0  0  0  0  0  3  0  0  0  0  0  0
  -30.2620  -18.8020   19.1910 C   0  0  0  0  0  0  0  0  0  0  0  0
  -31.3410  -20.7590   17.4140 C   0  0  0  0  0  0  0  0  0  0  0  0
  -29.5890  -17.7550   20.0240 C   0  0  0  0  0  0  0  0  0  0  0  0
  -28.4120  -17.4260   19.8290 O   0  0  0  0  0  0  0  0  0  0  0  0
  -30.3900  -16.9780   21.0860 C   0  0  0  0  0  2  0  0  0  0  0  0
  -30.6870  -14.5380   20.5360 C   0  0  0  0  0  0  0  0  0  0  0  0
  -30.4020  -12.3820   19.3760 C   0  0  0  0  0  2  0  0  0  0  0  0
  -29.4870  -12.6160   18.1570 C   0  0  0  0  0  2  0  0  0  0  0  0
  -28.0020  -12.4680   18.5630 C   0  0  0  0  0  2  0  0  0  0  0  0
  -27.6360  -13.2830   19.8380 C   0  0  0  0  0  3  0  0  0  0  0  0
  -28.6830  -13.0460   20.9540 C   0  0  0  0  0  2  0  0  0  0  0  0
  -30.0120  -13.3640   20.3970 N   0  0  0  0  0  0  0  0  0  0  0  0
  -31.8080  -14.7250   20.0590 O   0  0  0  0  0  0  0  0  0  0  0  0
  -30.0050  -15.5460   21.1020 N   0  0  0  0  0  0  0  0  0  0  0  0
  -29.0630  -15.3480   21.3980 H   0  0  0  0  0  0  0  0  0  0  0  0
  -25.2070  -13.8870   20.4590 C   0  0  0  0  0  0  0  0  0  0  0  0
  -24.1300  -13.1090   20.8130 C   0  0  0  0  0  0  0  0  0  0  0  0
  -24.6030  -11.7640   20.8180 C   0  0  0  0  0  0  0  0  0  0  0  0
  -26.2660  -13.0060   20.2780 N   0  0  0  0  0  0  0  0  0  0  0  0
  -25.9010  -11.7270   20.5420 N   0  0  0  0  0  0  0  0  0  0  0  0
  -23.8750  -10.4980   21.0020 C   0  0  0  0  0  0  0  0  0  0  0  0
  -24.2860   -9.5430   21.9590 C   0  0  0  0  0  3  0  0  0  0  0  0
  -23.5550   -8.3470   22.1370 C   0  0  0  0  0  3  0  0  0  0  0  0
  -22.4010   -8.0980   21.3580 C   0  0  0  0  0  0  0  0  0  0  0  0
  -22.0090   -9.0400   20.3920 C   0  0  0  0  0  3  0  0  0  0  0  0
  -22.7390  -10.2280   20.2120 C   0  0  0  0  0  3  0  0  0  0  0  0
  -21.6500   -6.9490   21.4420 O   0  0  0  0  0  0  0  0  0  0  0  0
  -21.5790   -6.2170   22.6020 C   0  0  0  0  0  0  0  0  0  0  0  0
  -21.1190   -6.7840   23.8110 C   0  0  0  0  0  3  0  0  0  0  0  0
  -21.0000   -5.9830   24.9650 C   0  0  0  0  0  3  0  0  0  0  0  0
  -21.3270   -4.6140   24.9070 C   0  0  0  0  0  0  0  0  0  0  0  0
  -21.7770   -4.0460   23.7030 C   0  0  0  0  0  3  0  0  0  0  0  0
  -21.9000   -4.8450   22.5530 C   0  0  0  0  0  0  0  0  0  0  0  0
  -22.3170   -4.2900   21.3900 F   0  0  0  0  0  0  0  0  0  0  0  0
  -21.2040   -3.8410   26.0110 F   0  0  0  0  0  0  0  0  0  0  0  0
  -22.7250  -13.5890   21.0390 C   0  0  0  0  0  0  0  0  0  0  0  0
  -21.9690  -12.9080   21.8970 N   0  0  0  0  0  0  0  0  0  0  0  0
  -22.3030  -14.6060   20.4950 O   0  0  0  0  0  0  0  0  0  0  0  0
  -22.3170  -12.0890   22.3700 H   0  0  0  0  0  0  0  0  0  0  0  0
  -21.0280  -13.2260   22.0850 H   0  0  0  0  0  0  0  0  0  0  0  0
  -25.3570  -15.2530   20.2670 N   0  0  0  0  0  0  0  0  0  0  0  0
  -24.5660  -15.8850   20.3710 H   0  0  0  0  0  0  0  0  0  0  0  0
  -26.1970  -15.7170   19.9360 H   0  0  0  0  0  0  0  0  0  0  0  0
  1 51  1  0
  1  3  1  0
  2  6  1  0
  3  2  1  0
  3  5  1  0
  4  2  2  0
  6  7  1  0
  7  8  1  0
  8  9  1  0
 10  9  1  0
 11 22  2  0
 12 10  1  0
 12 17  1  0
 13 21  1  0
 13 23  1  0
 14 20  1  0
 14 16  1  0
 15 21  1  0
 16 17  2  0
 16 15  1  0
 18 19  1  0
 18 12  2  0
 19 14  2  0
 20 13  1  0
 21 11  1  0
 23 25  2  0
 24 23  1  0
 26 24  1  0
 27 36  2  0
 27 32  1  0
 28 24  1  0
 28 32  1  0
 29 28  1  0
 30 31  1  0
 30 29  1  0
 31 27  1  0
 32 33  2  0
 33 34  1  0
 35 34  2  0
 36 35  1  0
 37 11  1  0
 37 42  1  0
 37 38  1  0
 38 41  1  1
 38 39  1  0
 40 38  1  0
 42 45  1  0
 43 47  1  0
 43 42  1  0
 44 43  2  0
 47 46  1  0
 49 47  1  0
 49 50  1  0
 49 48  1  0
 51 57  1  0
 53 56  2  0
 54 52  2  0
 55 57  2  0
 55 53  1  0
 56 52  1  0
 56 58  1  0
 57 54  1  0
 58 60  1  0
 59 58  2  0
 60 69  1  0
 61 69  1  0
 62 67  1  0
 63 64  1  0
 63 62  1  0
 65 64  1  0
 65 74  1  0
 65 66  1  0
 67 61  1  0
 67 66  1  0
 68 61  2  0
 69 70  1  0
 71 72  2  0
 72 73  1  0
 72 91  1  0
 73 76  1  0
 74 71  1  0
 74 75  1  0
 75 73  2  0
 76 77  1  0
 77 78  2  0
 79 82  1  0
 79 78  1  0
 80 79  2  0
 81 80  1  0
 81 76  2  0
 82 83  1  0
 83 84  1  0
 84 85  2  0
 86 85  1  0
 86 90  1  0
 87 86  2  0
 88 83  2  0
 88 87  1  0
 89 88  1  0
 91 92  1  0
 92 95  1  0
 92 94  1  0
 93 91  2  0
 96 97  1  0
 96 71  1  0
 98 96  1  0
M  ISO  4   9 101  10 101  61 100  69 100
M  END
>  <TORSDO>  (48) 
F 25

>  <SCORE>  (48) 
-12.347

>  <name>  (48) 
47

>  <ligand_id>  (48) 
47

>  <original_smiles>  (48) 
[H]c1c([H])c([H])c2c(c1[H])C([H])([H])C([H])([H])C([H])([H])C2([H])N([H])C(=O)C1([H])N(C(=O)C([H])(N([H])C(=O)C([H])(N([H])C([H])([H])[H])C([H])([H])[H])C(C([H])([H])[H])(C([H])([H])[H])C([H])([H])[H])C([H])([H])c2c([H])c(OC([H])([H])C([H])([H])C([H])([H])C([H])([H])C(=O)N([H])C([H])([H])C([H])([H])c3c([H])c([H])c(C(=O)C([H])([H])N([H])C(=O)N4C([H])([H])C([H])([H])C([H])([H])C([H])(n5nc(-c6c([H])c([H])c(Oc7c([H])c([H])c(F)c([H])c7F)c([H])c6[H])c(C(=O)N([H])[H])c5N([H])[H])C4([H])[H])c([H])c3[H])c([H])c([H])c2C1([H])[H]

>  <smiles>  (48) 
[H]c1c([H])c([H])c2c(c1[H])C([H])([H])C([H])([H])C([H])([H])C2([H])N([H])C(=O)C1([H])N(C(=O)C([H])(N([H])C(=O)C([H])(N([H])C([H])([H])[H])C([H])([H])[H])C(C([H])([H])[H])(C([H])([H])[H])C([H])([H])[H])C([H])([H])c2c([H])c(OC([H])([H])C([H])([H])C([H])([H])C([H])([H])C(=O)N([H])C([H])([H])C([H])([H])c3c([H])c([H])c(C(=O)C([H])([H])N([H])C(=O)N4C([H])([H])C([H])([H])C([H])([H])C([H])(n5nc(-c6c([H])c([H])c(Oc7c([H])c([H])c(F)c([H])c7F)c([H])c6[H])c(C(=O)N([H])[H])c5N([H])[H])C4([H])[H])c([H])c3[H])c([H])c([H])c2C1([H])[H]

$$$$
48:0:0
     RDKit          3D

 93100  0  0  1  0  0  0  0  0999 V2000
  -29.0810  -22.0950   20.6850 C   0  0  0  0  0  3  0  0  0  0  0  0
  -29.4330  -23.2930   19.8530 N   0  0  0  0  0  4  0  0  0  0  0  0
  -30.4350  -23.4020   19.9350 H   0  0  0  0  0  0  0  0  0  0  0  0
  -29.2490  -23.0930   18.8820 H   0  0  0  0  0  0  0  0  0  0  0  0
  -28.8080  -24.6030   20.2250 C   0  0  0  0  0  2  0  0  0  0  0  0
  -29.3600  -25.8080   19.4150 C   0  0  0  0  0  2  0  0  0  0  0  0
  -29.0810  -27.0850   20.0170 O   0  0  0  0  0  0  0  0  0  0  0  0
  -24.6900  -31.7570   23.1010 C   0  0  0  0  0  0  0  0  0  0  0  0
  -27.8210  -27.6550   19.9780 C   0  0  0  0  0  0  0  0  0  0  0  0
  -23.6660  -30.3070   21.3770 C   0  0  0  0  0  3  0  0  0  0  0  0
  -25.2940  -28.9440   19.9600 C   0  0  0  0  0  0  0  0  0  0  0  0
  -26.1530  -30.8900   21.2740 C   0  0  0  0  0  2  0  0  0  0  0  0
  -26.3800  -29.5500   20.6030 C   0  0  0  0  0  0  0  0  0  0  0  0
  -27.6390  -28.9080   20.6140 C   0  0  0  0  0  3  0  0  0  0  0  0
  -26.7070  -27.0550   19.3450 C   0  0  0  0  0  3  0  0  0  0  0  0
  -25.4500  -27.6940   19.3360 C   0  0  0  0  0  3  0  0  0  0  0  0
  -23.9770  -29.6920   19.9860 C   0  0  0  0  0  2  0  0  0  0  0  0
  -24.8510  -30.9990   21.9780 N   0  0  0  0  0  0  0  0  0  0  0  0
  -23.5730  -31.9150   23.6110 O   0  0  0  0  0  0  0  0  0  0  0  0
  -23.0780  -29.2010   22.2840 C   0  0  0  0  0  0  0  0  0  0  0  0
  -21.7720  -28.9300   22.1280 N   0  0  0  0  0  0  0  0  0  0  0  0
  -23.7960  -28.5890   23.0790 O   0  0  0  0  0  0  0  0  0  0  0  0
  -21.2540  -29.4830   21.4600 H   0  0  0  0  0  0  0  0  0  0  0  0
  -18.4780  -27.5140   22.5600 C   0  0  0  0  0  0  0  0  0  0  0  0
  -21.0170  -27.9040   22.8430 C   0  0  0  0  0  3  0  0  0  0  0  0
  -21.2000  -26.5190   22.1810 C   0  0  0  0  0  2  0  0  0  0  0  0
  -20.1130  -26.1920   21.1520 C   0  0  0  0  0  2  0  0  0  0  0  0
  -18.7280  -26.2190   21.8070 C   0  0  0  0  0  2  0  0  0  0  0  0
  -19.5520  -28.3130   23.0310 C   0  0  0  0  0  0  0  0  0  0  0  0
  -19.2670  -29.5250   23.6950 C   0  0  0  0  0  3  0  0  0  0  0  0
  -17.9370  -29.9430   23.8910 C   0  0  0  0  0  3  0  0  0  0  0  0
  -16.8750  -29.1400   23.4390 C   0  0  0  0  0  3  0  0  0  0  0  0
  -17.1470  -27.9280   22.7800 C   0  0  0  0  0  3  0  0  0  0  0  0
  -25.8950  -32.4770   23.7850 C   0  0  0  0  0  3  0  0  0  0  0  0
  -26.4230  -31.7260   25.0700 C   0  0  1  0  0  0  0  0  0  0  0  0
  -25.3130  -31.3760   26.0880 C   0  0  0  0  0  1  0  0  0  0  0  0
  -27.1360  -30.4110   24.6770 C   0  0  0  0  0  1  0  0  0  0  0  0
  -27.4770  -32.6000   25.7930 C   0  0  0  0  0  1  0  0  0  0  0  0
  -25.4620  -33.8380   24.1230 N   0  0  0  0  0  0  0  0  0  0  0  0
  -25.7360  -34.9270   23.3900 C   0  0  0  0  0  0  0  0  0  0  0  0
  -26.4530  -34.8960   22.3860 O   0  0  0  0  0  0  0  0  0  0  0  0
  -24.8280  -33.9310   24.9030 H   0  0  0  0  0  0  0  0  0  0  0  0
  -23.8760  -36.5710   22.9910 C   0  0  0  0  0  1  0  0  0  0  0  0
  -25.1170  -36.2630   23.8430 C   0  0  0  0  0  3  0  0  0  0  0  0
  -27.1400  -37.3090   24.7590 C   0  0  0  0  0  1  0  0  0  0  0  0
  -26.0610  -37.4000   23.7780 N   0  0  0  0  0  0  0  0  0  0  0  0
  -25.5750  -38.2800   23.9260 H   0  0  0  0  0  0  0  0  0  0  0  0
  -29.5560  -20.7570   20.0250 C   0  0  0  0  0  2  0  0  0  0  0  0
  -29.9920  -19.6330   21.0090 C   0  0  0  0  0  2  0  0  0  0  0  0
  -29.9130  -18.2010   20.4190 C   0  0  0  0  0  2  0  0  0  0  0  0
  -30.5860  -17.1250   21.3100 C   0  0  0  0  0  2  0  0  0  0  0  0
  -30.8400  -14.7690   20.4220 C   0  0  0  0  0  0  0  0  0  0  0  0
  -30.5510  -12.6220   19.2330 C   0  0  0  0  0  2  0  0  0  0  0  0
  -29.5840  -12.8030   18.0450 C   0  0  0  0  0  2  0  0  0  0  0  0
  -28.1210  -12.6430   18.5020 C   0  0  0  0  0  2  0  0  0  0  0  0
  -27.7880  -13.4760   19.7670 C   0  0  0  0  0  3  0  0  0  0  0  0
  -28.8620  -13.2650   20.8580 C   0  0  0  0  0  2  0  0  0  0  0  0
  -30.1740  -13.5930   20.2700 N   0  0  0  0  0  0  0  0  0  0  0  0
  -31.9610  -14.9730   19.9510 O   0  0  0  0  0  0  0  0  0  0  0  0
  -30.1400  -15.7550   21.0100 N   0  0  0  0  0  0  0  0  0  0  0  0
  -29.2020  -15.5130   21.2980 H   0  0  0  0  0  0  0  0  0  0  0  0
  -25.3990  -14.0460   20.5430 C   0  0  0  0  0  0  0  0  0  0  0  0
  -24.3430  -13.2530   20.9040 C   0  0  0  0  0  0  0  0  0  0  0  0
  -24.8110  -11.9080   20.8180 C   0  0  0  0  0  0  0  0  0  0  0  0
  -26.4450  -13.1790   20.2640 N   0  0  0  0  0  0  0  0  0  0  0  0
  -26.0960  -11.8860   20.4880 N   0  0  0  0  0  0  0  0  0  0  0  0
  -24.0960  -10.6340   20.9730 C   0  0  0  0  0  0  0  0  0  0  0  0
  -24.5260   -9.6520   21.8930 C   0  0  0  0  0  3  0  0  0  0  0  0
  -23.8110   -8.4450   22.0380 C   0  0  0  0  0  3  0  0  0  0  0  0
  -22.6510   -8.2100   21.2630 C   0  0  0  0  0  0  0  0  0  0  0  0
  -22.2390   -9.1800   20.3320 C   0  0  0  0  0  3  0  0  0  0  0  0
  -22.9560  -10.3800   20.1850 C   0  0  0  0  0  3  0  0  0  0  0  0
  -21.9080   -7.0540   21.3160 O   0  0  0  0  0  0  0  0  0  0  0  0
  -21.8230   -6.3060   22.4630 C   0  0  0  0  0  0  0  0  0  0  0  0
  -21.3440   -6.8500   23.6750 C   0  0  0  0  0  3  0  0  0  0  0  0
  -21.2090   -6.0280   24.8110 C   0  0  0  0  0  3  0  0  0  0  0  0
  -21.5440   -4.6620   24.7370 C   0  0  0  0  0  0  0  0  0  0  0  0
  -22.0190   -4.1180   23.5310 C   0  0  0  0  0  3  0  0  0  0  0  0
  -22.1540   -4.9380   22.3960 C   0  0  0  0  0  0  0  0  0  0  0  0
  -22.5910   -4.4030   21.2300 F   0  0  0  0  0  0  0  0  0  0  0  0
  -21.4080   -3.8710   25.8270 F   0  0  0  0  0  0  0  0  0  0  0  0
  -22.9470  -13.7120   21.2160 C   0  0  0  0  0  0  0  0  0  0  0  0
  -22.2400  -12.9820   22.0730 N   0  0  0  0  0  0  0  0  0  0  0  0
  -22.4920  -14.7500   20.7370 O   0  0  0  0  0  0  0  0  0  0  0  0
  -22.6200  -12.1390   22.4770 H   0  0  0  0  0  0  0  0  0  0  0  0
  -21.3060  -13.2690   22.3260 H   0  0  0  0  0  0  0  0  0  0  0  0
  -25.5570  -15.4220   20.4100 N   0  0  0  0  0  0  0  0  0  0  0  0
  -24.7910  -16.0710   20.5540 H   0  0  0  0  0  0  0  0  0  0  0  0
  -26.4010  -15.8730   20.0770 H   0  0  0  0  0  0  0  0  0  0  0  0
  -27.5790  -22.0490   21.1000 C   0  0  0  0  0  2  0  0  0  0  0  0
  -26.5530  -22.3690   19.9940 C   0  0  0  0  0  2  0  0  0  0  0  0
  -25.2800  -22.5960   20.5710 O   0  0  0  0  0  0  0  0  0  0  0  0
  -24.6710  -22.8030   19.8650 H   0  0  0  0  0  0  0  0  0  0  0  0
  1 48  1  0
  1 90  1  0
  2  3  1  0
  2  5  1  0
  2  1  1  0
  4  2  1  0
  6  7  1  0
  6  5  1  0
  8 19  2  0
  9  7  1  0
  9 14  1  0
 10 18  1  0
 10 20  1  0
 11 17  1  0
 11 13  1  0
 12 18  1  0
 13 14  2  0
 13 12  1  0
 15  9  2  0
 16 15  1  0
 16 11  2  0
 17 10  1  0
 18  8  1  0
 20 22  2  0
 21 20  1  0
 23 21  1  0
 24 33  2  0
 24 29  1  0
 25 21  1  0
 25 29  1  0
 26 25  1  0
 27 28  1  0
 27 26  1  0
 28 24  1  0
 29 30  2  0
 30 31  1  0
 32 31  2  0
 33 32  1  0
 34  8  1  0
 34 39  1  0
 34 35  1  0
 35 38  1  1
 35 36  1  0
 37 35  1  0
 39 42  1  0
 40 44  1  0
 40 39  1  0
 41 40  2  0
 44 43  1  0
 46 44  1  0
 46 47  1  0
 46 45  1  0
 48 49  1  0
 50 49  1  0
 50 51  1  0
 52 60  1  0
 53 58  1  0
 54 55  1  0
 54 53  1  0
 56 55  1  0
 56 65  1  0
 56 57  1  0
 58 52  1  0
 58 57  1  0
 59 52  2  0
 60 61  1  0
 60 51  1  0
 62 63  2  0
 63 82  1  0
 64 63  1  0
 64 67  1  0
 65 66  1  0
 65 62  1  0
 66 64  2  0
 67 68  1  0
 68 69  2  0
 70 73  1  0
 70 69  1  0
 71 70  2  0
 72 71  1  0
 72 67  2  0
 73 74  1  0
 74 75  1  0
 75 76  2  0
 77 76  1  0
 77 81  1  0
 78 77  2  0
 79 74  2  0
 79 78  1  0
 80 79  1  0
 82 83  1  0
 83 86  1  0
 83 85  1  0
 84 82  2  0
 87 62  1  0
 87 88  1  0
 89 87  1  0
 91 92  1  0
 91 90  1  0
 93 92  1  0
M  ISO  4   6 101   7 101  52 100  60 100
M  END
>  <TORSDO>  (49) 
F 26

>  <SCORE>  (49) 
-11.103

>  <name>  (49) 
48

>  <ligand_id>  (49) 
48

>  <original_smiles>  (49) 
[H]OC([H])([H])C([H])([H])C([H])(C([H])([H])C([H])([H])C([H])([H])C([H])([H])N([H])C(=O)N1C([H])([H])C([H])([H])C([H])([H])C([H])(n2nc(-c3c([H])c([H])c(Oc4c([H])c([H])c(F)c([H])c4F)c([H])c3[H])c(C(=O)N([H])[H])c2N([H])[H])C1([H])[H])[N+]([H])([H])C([H])([H])C([H])([H])Oc1c([H])c([H])c2c(c1[H])C([H])([H])N(C(=O)C([H])(N([H])C(=O)C([H])(N([H])C([H])([H])[H])C([H])([H])[H])C(C([H])([H])[H])(C([H])([H])[H])C([H])([H])[H])C([H])(C(=O)N([H])C1([H])c3c([H])c([H])c([H])c([H])c3C([H])([H])C([H])([H])C1([H])[H])C2([H])[H]

>  <smiles>  (49) 
[H]OC([H])([H])C([H])([H])C([H])(C([H])([H])C([H])([H])C([H])([H])C([H])([H])N([H])C(=O)N1C([H])([H])C([H])([H])C([H])([H])C([H])(n2nc(-c3c([H])c([H])c(Oc4c([H])c([H])c(F)c([H])c4F)c([H])c3[H])c(C(=O)N([H])[H])c2N([H])[H])C1([H])[H])[N+]([H])([H])C([H])([H])C([H])([H])Oc1c([H])c([H])c2c(c1[H])C([H])([H])N(C(=O)C([H])(N([H])C(=O)C([H])(N([H])C([H])([H])[H])C([H])([H])[H])C(C([H])([H])[H])(C([H])([H])[H])C([H])([H])[H])C([H])(C(=O)N([H])C1([H])c3c([H])c([H])c([H])c([H])c3C([H])([H])C([H])([H])C1([H])[H])C2([H])[H]

$$$$
49:0:0
     RDKit          3D

 97104  0  0  1  0  0  0  0  0999 V2000
  -26.2520  -23.6960   23.1250 C   0  0  0  0  0  0  0  0  0  0  0  0
  -25.3760  -23.4010   22.1660 N   0  0  0  0  0  0  0  0  0  0  0  0
  -25.9300  -24.0330   24.2660 O   0  0  0  0  0  0  0  0  0  0  0  0
  -25.7640  -23.0840   21.2880 H   0  0  0  0  0  0  0  0  0  0  0  0
  -27.6000  -23.6270   22.5990 C   0  0  0  0  0  3  0  0  0  0  0  0
  -28.1110  -24.6210   21.8390 C   0  0  0  0  0  0  0  0  0  0  0  0
  -27.4550  -25.7510   21.5330 O   0  0  0  0  0  0  0  0  0  0  0  0
  -28.0390  -26.2960   21.0210 H   0  0  0  0  0  0  0  0  0  0  0  0
  -29.4820  -24.6230   21.1870 C   0  0  0  0  0  2  0  0  0  0  0  0
  -29.6110  -23.5370   20.1080 C   0  0  0  0  0  2  0  0  0  0  0  0
  -31.0420  -22.9830   20.0030 C   0  0  0  0  0  2  0  0  0  0  0  0
  -31.0830  -21.4980   19.6140 C   0  0  0  0  0  2  0  0  0  0  0  0
  -32.3830  -20.7850   20.0430 C   0  0  0  0  0  2  0  0  0  0  0  0
  -32.9360  -18.3170   19.9900 C   0  0  0  0  0  0  0  0  0  0  0  0
  -33.0510  -15.8430   19.9330 C   0  0  0  0  0  2  0  0  0  0  0  0
  -32.3810  -15.2820   18.6660 C   0  0  0  0  0  2  0  0  0  0  0  0
  -30.8630  -15.1200   18.8730 C   0  0  0  0  0  2  0  0  0  0  0  0
  -30.1980  -16.3950   19.4590 C   0  0  0  0  0  3  0  0  0  0  0  0
  -30.9860  -16.8820   20.6940 C   0  0  0  0  0  2  0  0  0  0  0  0
  -32.3900  -17.1080   20.2860 N   0  0  0  0  0  0  0  0  0  0  0  0
  -34.0630  -18.4580   19.5020 O   0  0  0  0  0  0  0  0  0  0  0  0
  -32.1380  -19.3590   20.2600 N   0  0  0  0  0  0  0  0  0  0  0  0
  -31.2600  -19.1140   20.6940 H   0  0  0  0  0  0  0  0  0  0  0  0
  -27.7530  -17.0820   19.9060 C   0  0  0  0  0  0  0  0  0  0  0  0
  -26.6240  -16.3450   20.1390 C   0  0  0  0  0  0  0  0  0  0  0  0
  -27.0380  -14.9780   20.1340 C   0  0  0  0  0  0  0  0  0  0  0  0
  -28.7870  -16.1680   19.7750 N   0  0  0  0  0  0  0  0  0  0  0  0
  -28.3520  -14.8960   19.9650 N   0  0  0  0  0  0  0  0  0  0  0  0
  -26.2540  -13.7420   20.2210 C   0  0  0  0  0  0  0  0  0  0  0  0
  -26.4590  -12.8070   21.2580 C   0  0  0  0  0  3  0  0  0  0  0  0
  -25.6780  -11.6330   21.3280 C   0  0  0  0  0  3  0  0  0  0  0  0
  -24.6790  -11.3840   20.3570 C   0  0  0  0  0  0  0  0  0  0  0  0
  -24.4960  -12.3090   19.3140 C   0  0  0  0  0  3  0  0  0  0  0  0
  -25.2770  -13.4740   19.2420 C   0  0  0  0  0  3  0  0  0  0  0  0
  -23.8920  -10.2590   20.3300 O   0  0  0  0  0  0  0  0  0  0  0  0
  -23.4060   -9.6930   21.4830 C   0  0  0  0  0  0  0  0  0  0  0  0
  -22.5970  -10.4170   22.3840 C   0  0  0  0  0  3  0  0  0  0  0  0
  -22.0610   -9.7770   23.5200 C   0  0  0  0  0  3  0  0  0  0  0  0
  -22.3270   -8.4140   23.7510 C   0  0  0  0  0  0  0  0  0  0  0  0
  -23.1270   -7.6890   22.8520 C   0  0  0  0  0  3  0  0  0  0  0  0
  -23.6650   -8.3280   21.7190 C   0  0  0  0  0  0  0  0  0  0  0  0
  -24.4170   -7.6190   20.8430 F   0  0  0  0  0  0  0  0  0  0  0  0
  -21.8070   -7.7960   24.8370 F   0  0  0  0  0  0  0  0  0  0  0  0
  -25.2210  -16.8690   20.2690 C   0  0  0  0  0  0  0  0  0  0  0  0
  -24.3750  -16.1760   21.0210 N   0  0  0  0  0  0  0  0  0  0  0  0
  -24.8810  -17.9270   19.7400 O   0  0  0  0  0  0  0  0  0  0  0  0
  -24.6540  -15.3170   21.4730 H   0  0  0  0  0  0  0  0  0  0  0  0
  -23.4280  -16.5070   21.1470 H   0  0  0  0  0  0  0  0  0  0  0  0
  -27.9880  -18.4490   19.7800 N   0  0  0  0  0  0  0  0  0  0  0  0
  -27.2450  -19.1390   19.8360 H   0  0  0  0  0  0  0  0  0  0  0  0
  -28.8900  -18.8620   19.5860 H   0  0  0  0  0  0  0  0  0  0  0  0
  -23.9790  -23.8000   22.1460 C   0  0  0  0  0  2  0  0  0  0  0  0
  -23.4420  -23.7330   20.7040 C   0  0  0  0  0  2  0  0  0  0  0  0
  -24.4920  -23.4140   19.6040 C   0  0  0  0  0  2  0  0  0  0  0  0
  -25.8020  -24.2390   19.6690 C   0  0  0  0  0  2  0  0  0  0  0  0
  -26.2190  -24.9190   18.3350 C   0  0  0  0  0  2  0  0  0  0  0  0
  -26.7240  -26.2470   18.5290 O   0  0  0  0  0  0  0  0  0  0  0  0
  -25.1560  -30.8990   23.6480 C   0  0  0  0  0  0  0  0  0  0  0  0
  -25.8350  -27.2110   18.9580 C   0  0  0  0  0  0  0  0  0  0  0  0
  -23.3450  -30.4350   22.0290 C   0  0  0  0  0  3  0  0  0  0  0  0
  -24.0330  -29.1490   19.9440 C   0  0  0  0  0  0  0  0  0  0  0  0
  -25.7990  -30.2280   21.3400 C   0  0  0  0  0  2  0  0  0  0  0  0
  -25.3690  -29.1570   20.3630 C   0  0  0  0  0  0  0  0  0  0  0  0
  -26.2730  -28.1850   19.8790 C   0  0  0  0  0  3  0  0  0  0  0  0
  -24.4930  -27.2480   18.5150 C   0  0  0  0  0  3  0  0  0  0  0  0
  -23.5870  -28.1920   19.0200 C   0  0  0  0  0  3  0  0  0  0  0  0
  -23.1240  -30.2110   20.5110 C   0  0  0  0  0  2  0  0  0  0  0  0
  -24.7980  -30.5110   22.3930 N   0  0  0  0  0  0  0  0  0  0  0  0
  -24.3040  -31.2340   24.4820 O   0  0  0  0  0  0  0  0  0  0  0  0
  -22.5750  -29.3440   22.8070 C   0  0  0  0  0  0  0  0  0  0  0  0
  -21.2380  -29.3490   22.6770 N   0  0  0  0  0  0  0  0  0  0  0  0
  -23.1770  -28.5060   23.4820 O   0  0  0  0  0  0  0  0  0  0  0  0
  -20.8180  -30.0770   22.1150 H   0  0  0  0  0  0  0  0  0  0  0  0
  -17.7900  -28.2740   22.7360 C   0  0  0  0  0  0  0  0  0  0  0  0
  -20.3130  -28.3930   23.2840 C   0  0  0  0  0  3  0  0  0  0  0  0
  -20.4210  -27.0050   22.6090 C   0  0  0  0  0  2  0  0  0  0  0  0
  -19.4210  -26.8180   21.4650 C   0  0  0  0  0  2  0  0  0  0  0  0
  -17.9850  -26.9740   21.9750 C   0  0  0  0  0  2  0  0  0  0  0  0
  -18.8860  -28.9490   23.3370 C   0  0  0  0  0  0  0  0  0  0  0  0
  -18.6560  -30.1760   24.0000 C   0  0  0  0  0  3  0  0  0  0  0  0
  -17.3620  -30.7240   24.0680 C   0  0  0  0  0  3  0  0  0  0  0  0
  -16.2800  -30.0430   23.4850 C   0  0  0  0  0  3  0  0  0  0  0  0
  -16.4940  -28.8200   22.8250 C   0  0  0  0  0  3  0  0  0  0  0  0
  -26.6530  -30.9670   24.0880 C   0  0  0  0  0  3  0  0  0  0  0  0
  -27.0800  -29.7790   25.0330 C   0  0  1  0  0  0  0  0  0  0  0  0
  -26.1380  -29.5770   26.2410 C   0  0  0  0  0  1  0  0  0  0  0  0
  -27.1330  -28.4470   24.2500 C   0  0  0  0  0  1  0  0  0  0  0  0
  -28.5080  -30.0280   25.5740 C   0  0  0  0  0  1  0  0  0  0  0  0
  -26.8580  -32.2610   24.7530 N   0  0  0  0  0  0  0  0  0  0  0  0
  -27.4330  -33.3280   24.1800 C   0  0  0  0  0  0  0  0  0  0  0  0
  -27.9160  -33.2970   23.0450 O   0  0  0  0  0  0  0  0  0  0  0  0
  -26.4330  -32.3750   25.6610 H   0  0  0  0  0  0  0  0  0  0  0  0
  -26.3680  -35.5820   24.5090 C   0  0  0  0  0  1  0  0  0  0  0  0
  -27.4760  -34.6340   24.9960 C   0  0  0  0  0  3  0  0  0  0  0  0
  -29.8520  -34.5950   25.6130 C   0  0  0  0  0  1  0  0  0  0  0  0
  -28.7840  -35.3210   24.9310 N   0  0  0  0  0  0  0  0  0  0  0  0
  -28.7220  -36.2520   25.3360 H   0  0  0  0  0  0  0  0  0  0  0  0
  1  3  2  0
  2  1  1  0
  4  2  1  0
  5  1  1  0
  6  5  2  0
  7  6  1  0
  8  7  1  0
  9  6  1  0
 10  9  1  0
 11 10  1  0
 12 11  1  0
 12 13  1  0
 13 22  1  0
 14 22  1  0
 14 20  1  0
 15 20  1  0
 16 17  1  0
 16 15  1  0
 18 17  1  0
 18 27  1  0
 18 19  1  0
 20 19  1  0
 21 14  2  0
 22 23  1  0
 24 25  2  0
 25 44  1  0
 26 25  1  0
 26 29  1  0
 27 24  1  0
 27 28  1  0
 28 26  2  0
 29 30  1  0
 30 31  2  0
 32 31  1  0
 33 32  2  0
 34 33  1  0
 34 29  2  0
 35 32  1  0
 35 36  1  0
 36 41  2  0
 36 37  1  0
 37 38  2  0
 38 39  1  0
 39 43  1  0
 40 39  2  0
 41 40  1  0
 42 41  1  0
 44 45  1  0
 45 48  1  0
 45 47  1  0
 46 44  2  0
 49 50  1  0
 49 24  1  0
 51 49  1  0
 52  2  1  0
 53 52  1  0
 54 55  1  0
 54 53  1  0
 56 57  1  0
 56 55  1  0
 57 59  1  0
 58 69  2  0
 59 64  1  0
 60 68  1  0
 60 70  1  0
 61 63  1  0
 61 67  1  0
 62 68  1  0
 63 62  1  0
 64 63  2  0
 65 59  2  0
 65 66  1  0
 66 61  2  0
 67 60  1  0
 68 58  1  0
 70 72  2  0
 71 70  1  0
 73 71  1  0
 74 83  2  0
 74 79  1  0
 75 71  1  0
 75 79  1  0
 76 75  1  0
 77 78  1  0
 77 76  1  0
 78 74  1  0
 79 80  2  0
 80 81  1  0
 82 81  2  0
 83 82  1  0
 84 58  1  0
 84 89  1  0
 84 85  1  0
 85 88  1  1
 85 86  1  0
 87 85  1  0
 89 92  1  0
 90 89  1  0
 90 94  1  0
 91 90  2  0
 94 93  1  0
 96 94  1  0
 96 97  1  0
 96 95  1  0
M  ISO  4  14 100  22 100  56 101  57 101
M  END
>  <TORSDO>  (50) 
F 28

>  <SCORE>  (50) 
-1.224

>  <name>  (50) 
49

>  <ligand_id>  (50) 
49

>  <original_smiles>  (50) 
[H]OC(=C([H])C(=O)N([H])C([H])([H])C([H])([H])C([H])([H])C([H])([H])C([H])([H])Oc1c([H])c([H])c2c(c1[H])C([H])([H])N(C(=O)C([H])(N([H])C(=O)C([H])(N([H])C([H])([H])[H])C([H])([H])[H])C(C([H])([H])[H])(C([H])([H])[H])C([H])([H])[H])C([H])(C(=O)N([H])C1([H])c3c([H])c([H])c([H])c([H])c3C([H])([H])C([H])([H])C1([H])[H])C2([H])[H])C([H])([H])C([H])([H])C([H])([H])C([H])([H])C([H])([H])N([H])C(=O)N1C([H])([H])C([H])([H])C([H])([H])C([H])(n2nc(-c3c([H])c([H])c(Oc4c([H])c([H])c(F)c([H])c4F)c([H])c3[H])c(C(=O)N([H])[H])c2N([H])[H])C1([H])[H]

>  <smiles>  (50) 
[H]OC(=C([H])C(=O)N([H])C([H])([H])C([H])([H])C([H])([H])C([H])([H])C([H])([H])Oc1c([H])c([H])c2c(c1[H])C([H])([H])N(C(=O)C([H])(N([H])C(=O)C([H])(N([H])C([H])([H])[H])C([H])([H])[H])C(C([H])([H])[H])(C([H])([H])[H])C([H])([H])[H])C([H])(C(=O)N([H])C1([H])c3c([H])c([H])c([H])c([H])c3C([H])([H])C([H])([H])C1([H])[H])C2([H])[H])C([H])([H])C([H])([H])C([H])([H])C([H])([H])C([H])([H])N([H])C(=O)N1C([H])([H])C([H])([H])C([H])([H])C([H])(n2nc(-c3c([H])c([H])c(Oc4c([H])c([H])c(F)c([H])c4F)c([H])c3[H])c(C(=O)N([H])[H])c2N([H])[H])C1([H])[H]

$$$$
50:0:0
     RDKit          3D

 98106  0  0  1  0  0  0  0  0999 V2000
  -27.1810  -23.3760   21.3230 C   0  0  0  0  0  3  0  0  0  0  0  0
  -26.2790  -22.7330   20.4630 C   0  0  0  0  0  3  0  0  0  0  0  0
  -28.9010  -23.2830   19.6000 C   0  0  0  0  0  3  0  0  0  0  0  0
  -28.0120  -22.5900   18.7430 C   0  0  0  0  0  0  0  0  0  0  0  0
  -28.4770  -23.7040   20.8820 C   0  0  0  0  0  0  0  0  0  0  0  0
  -26.6660  -22.3810   19.1550 C   0  0  0  0  0  0  0  0  0  0  0  0
  -28.4800  -22.1540   17.3850 C   0  0  0  0  0  0  0  0  0  0  0  0
  -28.5350  -20.8360   17.1480 N   0  0  0  0  0  0  0  0  0  0  0  0
  -28.6710  -22.9850   16.4960 O   0  0  0  0  0  0  0  0  0  0  0  0
  -28.4480  -20.6090   16.1670 H   0  0  0  0  0  0  0  0  0  0  0  0
  -29.3580  -19.8700   17.8800 C   0  0  0  0  0  2  0  0  0  0  0  0
  -28.7920  -19.3150   19.2060 C   0  0  0  0  0  2  0  0  0  0  0  0
  -29.6010  -18.0870   19.7010 C   0  0  0  0  0  2  0  0  0  0  0  0
  -29.7510  -18.0100   21.2320 C   0  0  0  0  0  2  0  0  0  0  0  0
  -30.5880  -16.8220   21.7780 C   0  0  0  0  0  2  0  0  0  0  0  0
  -30.7530  -14.5610   20.7110 C   0  0  0  0  0  0  0  0  0  0  0  0
  -30.4570  -12.4970   19.3860 C   0  0  0  0  0  2  0  0  0  0  0  0
  -29.5450  -12.8020   18.1820 C   0  0  0  0  0  2  0  0  0  0  0  0
  -28.0580  -12.6850   18.5660 C   0  0  0  0  0  2  0  0  0  0  0  0
  -27.7100  -13.4320   19.8840 C   0  0  0  0  0  3  0  0  0  0  0  0
  -28.7360  -13.0810   20.9880 C   0  0  0  0  0  2  0  0  0  0  0  0
  -30.0790  -13.4070   20.4780 N   0  0  0  0  0  0  0  0  0  0  0  0
  -31.8770  -14.7880   20.2460 O   0  0  0  0  0  0  0  0  0  0  0  0
  -30.0820  -15.4940   21.4140 N   0  0  0  0  0  0  0  0  0  0  0  0
  -29.1640  -15.2340   21.7520 H   0  0  0  0  0  0  0  0  0  0  0  0
  -25.3020  -14.0540   20.5470 C   0  0  0  0  0  0  0  0  0  0  0  0
  -24.2060  -13.2890   20.8510 C   0  0  0  0  0  0  0  0  0  0  0  0
  -24.6450  -11.9300   20.7790 C   0  0  0  0  0  0  0  0  0  0  0  0
  -26.3360  -13.1620   20.3070 N   0  0  0  0  0  0  0  0  0  0  0  0
  -25.9410  -11.8770   20.5000 N   0  0  0  0  0  0  0  0  0  0  0  0
  -23.8940  -10.6740   20.8970 C   0  0  0  0  0  0  0  0  0  0  0  0
  -24.3010   -9.6590   21.7890 C   0  0  0  0  0  3  0  0  0  0  0  0
  -23.5610   -8.4610   21.8960 C   0  0  0  0  0  3  0  0  0  0  0  0
  -22.3970   -8.2750   21.1110 C   0  0  0  0  0  0  0  0  0  0  0  0
  -22.0090   -9.2820   20.2110 C   0  0  0  0  0  3  0  0  0  0  0  0
  -22.7510  -10.4690   20.1010 C   0  0  0  0  0  3  0  0  0  0  0  0
  -21.6250   -7.1390   21.1350 O   0  0  0  0  0  0  0  0  0  0  0  0
  -21.5540   -6.3390   22.2460 C   0  0  0  0  0  0  0  0  0  0  0  0
  -21.1140   -6.8360   23.4930 C   0  0  0  0  0  3  0  0  0  0  0  0
  -20.9750   -5.9610   24.5900 C   0  0  0  0  0  3  0  0  0  0  0  0
  -21.2770   -4.5930   24.4430 C   0  0  0  0  0  0  0  0  0  0  0  0
  -21.7100   -4.0970   23.2020 C   0  0  0  0  0  3  0  0  0  0  0  0
  -21.8420   -4.9660   22.1060 C   0  0  0  0  0  0  0  0  0  0  0  0
  -22.2360   -4.4740   20.9080 F   0  0  0  0  0  0  0  0  0  0  0  0
  -21.1390   -3.7560   25.4980 F   0  0  0  0  0  0  0  0  0  0  0  0
  -22.8090  -13.7770   21.1020 C   0  0  0  0  0  0  0  0  0  0  0  0
  -22.0500  -13.0580   21.9210 N   0  0  0  0  0  0  0  0  0  0  0  0
  -22.3960  -14.8280   20.6120 O   0  0  0  0  0  0  0  0  0  0  0  0
  -22.3950  -12.2090   22.3410 H   0  0  0  0  0  0  0  0  0  0  0  0
  -21.1080  -13.3640   22.1300 H   0  0  0  0  0  0  0  0  0  0  0  0
  -25.5080  -15.4270   20.4340 N   0  0  0  0  0  0  0  0  0  0  0  0
  -24.7680  -16.1070   20.5700 H   0  0  0  0  0  0  0  0  0  0  0  0
  -26.3720  -15.8540   20.1270 H   0  0  0  0  0  0  0  0  0  0  0  0
  -24.5890  -23.0370   17.8830 C   0  0  0  0  0  1  0  0  0  0  0  0
  -25.5610  -21.8940   18.2200 C   0  0  0  0  0  2  0  0  0  0  0  0
  -29.3850  -24.5050   21.8070 C   0  0  0  0  0  2  0  0  0  0  0  0
  -28.8500  -25.9260   22.0930 C   0  0  0  0  0  2  0  0  0  0  0  0
  -28.7610  -26.7000   20.8960 O   0  0  0  0  0  0  0  0  0  0  0  0
  -24.6540  -31.9340   23.4350 C   0  0  0  0  0  0  0  0  0  0  0  0
  -27.5990  -27.4200   20.7960 C   0  0  0  0  0  0  0  0  0  0  0  0
  -23.5920  -30.4090   21.8010 C   0  0  0  0  0  3  0  0  0  0  0  0
  -25.1730  -28.8300   20.5700 C   0  0  0  0  0  0  0  0  0  0  0  0
  -26.1100  -30.8310   21.7400 C   0  0  0  0  0  2  0  0  0  0  0  0
  -26.2720  -29.4260   21.1980 C   0  0  0  0  0  0  0  0  0  0  0  0
  -27.4930  -28.7280   21.3150 C   0  0  0  0  0  3  0  0  0  0  0  0
  -26.4880  -26.8250   20.1670 C   0  0  0  0  0  3  0  0  0  0  0  0
  -25.2710  -27.5270   20.0520 C   0  0  0  0  0  3  0  0  0  0  0  0
  -23.9050  -29.6490   20.4830 C   0  0  0  0  0  2  0  0  0  0  0  0
  -24.7990  -31.0730   22.3870 N   0  0  0  0  0  0  0  0  0  0  0  0
  -23.5320  -32.2010   23.8880 O   0  0  0  0  0  0  0  0  0  0  0  0
  -22.9030  -29.4260   22.7750 C   0  0  0  0  0  0  0  0  0  0  0  0
  -21.5960  -29.2030   22.5720 N   0  0  0  0  0  0  0  0  0  0  0  0
  -23.5470  -28.8680   23.6690 O   0  0  0  0  0  0  0  0  0  0  0  0
  -21.1370  -29.7100   21.8260 H   0  0  0  0  0  0  0  0  0  0  0  0
  -18.2110  -27.9990   22.9450 C   0  0  0  0  0  0  0  0  0  0  0  0
  -20.7500  -28.2910   23.3360 C   0  0  0  0  0  3  0  0  0  0  0  0
  -20.8950  -26.8400   22.8240 C   0  0  0  0  0  2  0  0  0  0  0  0
  -19.8470  -26.4630   21.7720 C   0  0  0  0  0  2  0  0  0  0  0  0
  -18.4320  -26.6250   22.3340 C   0  0  0  0  0  2  0  0  0  0  0  0
  -19.3020  -28.7880   23.4000 C   0  0  0  0  0  0  0  0  0  0  0  0
  -19.0430  -30.0760   23.9180 C   0  0  0  0  0  3  0  0  0  0  0  0
  -17.7280  -30.5720   23.9920 C   0  0  0  0  0  3  0  0  0  0  0  0
  -16.6530  -29.7780   23.5570 C   0  0  0  0  0  3  0  0  0  0  0  0
  -16.8940  -28.4940   23.0380 C   0  0  0  0  0  3  0  0  0  0  0  0
  -25.8810  -32.6320   24.1050 C   0  0  0  0  0  3  0  0  0  0  0  0
  -26.3210  -31.9550   25.4600 C   0  0  1  0  0  0  0  0  0  0  0  0
  -25.1550  -31.7330   26.4490 C   0  0  0  0  0  1  0  0  0  0  0  0
  -26.9810  -30.5820   25.1890 C   0  0  0  0  0  1  0  0  0  0  0  0
  -27.3810  -32.8310   26.1670 C   0  0  0  0  0  1  0  0  0  0  0  0
  -25.5250  -34.0420   24.3210 N   0  0  0  0  0  0  0  0  0  0  0  0
  -25.8820  -35.0480   23.5120 C   0  0  0  0  0  0  0  0  0  0  0  0
  -26.6120  -34.8900   22.5310 O   0  0  0  0  0  0  0  0  0  0  0  0
  -24.9050  -34.2430   25.0910 H   0  0  0  0  0  0  0  0  0  0  0  0
  -24.1290  -36.7560   22.9410 C   0  0  0  0  0  1  0  0  0  0  0  0
  -25.3380  -36.4520   23.8430 C   0  0  0  0  0  3  0  0  0  0  0  0
  -27.4070  -37.4490   24.7090 C   0  0  0  0  0  1  0  0  0  0  0  0
  -26.3480  -37.5230   23.7060 N   0  0  0  0  0  0  0  0  0  0  0  0
  -25.9130  -38.4400   23.7680 H   0  0  0  0  0  0  0  0  0  0  0  0
  2  1  2  0
  3  5  2  0
  4  6  2  0
  4  3  1  0
  5  1  1  0
  5 56  1  0
  6  2  1  0
  7  4  1  0
  8  7  1  0
  8 11  1  0
  9  7  2  0
 10  8  1  0
 11 12  1  0
 12 13  1  0
 13 14  1  0
 14 15  1  0
 16 24  1  0
 17 22  1  0
 18 19  1  0
 18 17  1  0
 20 19  1  0
 20 29  1  0
 20 21  1  0
 22 16  1  0
 22 21  1  0
 23 16  2  0
 24 25  1  0
 24 15  1  0
 26 27  2  0
 27 46  1  0
 28 27  1  0
 28 31  1  0
 29 30  1  0
 29 26  1  0
 30 28  2  0
 31 32  1  0
 32 33  2  0
 34 37  1  0
 34 33  1  0
 35 34  2  0
 36 35  1  0
 36 31  2  0
 37 38  1  0
 38 39  1  0
 39 40  2  0
 41 40  1  0
 41 45  1  0
 42 41  2  0
 43 38  2  0
 43 42  1  0
 44 43  1  0
 46 47  1  0
 47 50  1  0
 47 49  1  0
 48 46  2  0
 51 26  1  0
 51 52  1  0
 53 51  1  0
 54 55  1  0
 55  6  1  0
 56 57  1  0
 58 57  1  0
 59 70  2  0
 60 58  1  0
 60 65  1  0
 61 69  1  0
 61 71  1  0
 62 64  1  0
 63 69  1  0
 64 65  2  0
 64 63  1  0
 66 60  2  0
 67 66  1  0
 67 62  2  0
 68 62  1  0
 68 61  1  0
 69 59  1  0
 71 73  2  0
 72 71  1  0
 74 72  1  0
 75 84  2  0
 75 80  1  0
 76 72  1  0
 76 80  1  0
 77 76  1  0
 78 79  1  0
 78 77  1  0
 79 75  1  0
 80 81  2  0
 81 82  1  0
 83 82  2  0
 84 83  1  0
 85 59  1  0
 85 90  1  0
 85 86  1  0
 86 89  1  1
 86 87  1  0
 88 86  1  0
 90 93  1  0
 91 95  1  0
 91 90  1  0
 92 91  2  0
 95 94  1  0
 97 98  1  0
 97 95  1  0
 97 96  1  0
M  ISO  4  16 100  24 100  57 101  58 101
M  END
>  <TORSDO>  (51) 
F 25

>  <SCORE>  (51) 
-12.050

>  <name>  (51) 
50

>  <ligand_id>  (51) 
50

>  <original_smiles>  (51) 
[H]c1c([H])c([H])c2c(c1[H])C([H])([H])C([H])([H])C([H])([H])C2([H])N([H])C(=O)C1([H])N(C(=O)C([H])(N([H])C(=O)C([H])(N([H])C([H])([H])[H])C([H])([H])[H])C(C([H])([H])[H])(C([H])([H])[H])C([H])([H])[H])C([H])([H])c2c([H])c(OC([H])([H])C([H])([H])c3c([H])c([H])c(C([H])([H])C([H])([H])[H])c(C(=O)N([H])C([H])([H])C([H])([H])C([H])([H])C([H])([H])C([H])([H])N([H])C(=O)N4C([H])([H])C([H])([H])C([H])([H])C([H])(n5nc(-c6c([H])c([H])c(Oc7c([H])c([H])c(F)c([H])c7F)c([H])c6[H])c(C(=O)N([H])[H])c5N([H])[H])C4([H])[H])c3[H])c([H])c([H])c2C1([H])[H]

>  <smiles>  (51) 
[H]c1c([H])c([H])c2c(c1[H])C([H])([H])C([H])([H])C([H])([H])C2([H])N([H])C(=O)C1([H])N(C(=O)C([H])(N([H])C(=O)C([H])(N([H])C([H])([H])[H])C([H])([H])[H])C(C([H])([H])[H])(C([H])([H])[H])C([H])([H])[H])C([H])([H])c2c([H])c(OC([H])([H])C([H])([H])c3c([H])c([H])c(C([H])([H])C([H])([H])[H])c(C(=O)N([H])C([H])([H])C([H])([H])C([H])([H])C([H])([H])C([H])([H])N([H])C(=O)N4C([H])([H])C([H])([H])C([H])([H])C([H])(n5nc(-c6c([H])c([H])c(Oc7c([H])c([H])c(F)c([H])c7F)c([H])c6[H])c(C(=O)N([H])[H])c5N([H])[H])C4([H])[H])c3[H])c([H])c([H])c2C1([H])[H]

$$$$
51:0:0
     RDKit          3D

105113  0  0  1  0  0  0  0  0999 V2000
  -25.7990  -22.0460   18.3710 C   0  0  0  0  0  3  0  0  0  0  0  0
  -25.7940  -24.4100   17.7870 C   0  0  0  0  0  3  0  0  0  0  0  0
  -27.7710  -23.0490   17.3570 C   0  0  0  0  0  3  0  0  0  0  0  0
  -25.1340  -23.2850   18.3210 C   0  0  0  0  0  0  0  0  0  0  0  0
  -27.1150  -21.9090   17.8830 C   0  0  0  0  0  0  0  0  0  0  0  0
  -27.1280  -24.3110   17.3270 C   0  0  0  0  0  0  0  0  0  0  0  0
  -28.2810  -20.0780   16.5400 C   0  0  0  0  0  1  0  0  0  0  0  0
  -27.7800  -20.5280   17.9230 C   0  0  0  0  0  3  0  0  0  0  0  0
  -28.8370  -20.4740   18.9620 N   0  0  0  0  0  4  0  0  0  0  0  0
  -29.6360  -21.0200   18.6830 H   0  0  0  0  0  0  0  0  0  0  0  0
  -28.4550  -20.9120   19.7870 H   0  0  0  0  0  0  0  0  0  0  0  0
  -29.3140  -19.1220   19.3460 C   0  0  0  0  0  2  0  0  0  0  0  0
  -29.3030  -18.9280   20.8820 C   0  0  0  0  0  2  0  0  0  0  0  0
  -30.0460  -17.6810   21.4200 C   0  0  0  0  0  2  0  0  0  0  0  0
  -29.5190  -16.3070   20.9440 C   0  0  0  0  0  2  0  0  0  0  0  0
  -30.9490  -14.3190   20.6450 C   0  0  0  0  0  0  0  0  0  0  0  0
  -30.5740  -12.2710   19.3140 C   0  0  0  0  0  2  0  0  0  0  0  0
  -29.6170  -12.5480   18.1360 C   0  0  0  0  0  2  0  0  0  0  0  0
  -28.1470  -12.4120   18.5800 C   0  0  0  0  0  2  0  0  0  0  0  0
  -27.8440  -13.1940   19.8840 C   0  0  0  0  0  3  0  0  0  0  0  0
  -28.8980  -12.8870   20.9720 C   0  0  0  0  0  2  0  0  0  0  0  0
  -30.2240  -13.1910   20.4030 N   0  0  0  0  0  0  0  0  0  0  0  0
  -32.0600  -14.5300   20.1570 O   0  0  0  0  0  0  0  0  0  0  0  0
  -30.3780  -15.2290   21.4510 N   0  0  0  0  0  0  0  0  0  0  0  0
  -31.0660  -15.6210   22.0800 H   0  0  0  0  0  0  0  0  0  0  0  0
  -25.4510  -13.8260   20.5830 C   0  0  0  0  0  0  0  0  0  0  0  0
  -24.3740  -13.0640   20.9370 C   0  0  0  0  0  0  0  0  0  0  0  0
  -24.8210  -11.7060   20.9080 C   0  0  0  0  0  0  0  0  0  0  0  0
  -26.4880  -12.9330   20.3600 N   0  0  0  0  0  0  0  0  0  0  0  0
  -26.1130  -11.6540   20.6130 N   0  0  0  0  0  0  0  0  0  0  0  0
  -24.0800  -10.4510   21.0900 C   0  0  0  0  0  0  0  0  0  0  0  0
  -24.4740   -9.4910   22.0470 C   0  0  0  0  0  3  0  0  0  0  0  0
  -23.7370   -8.2990   22.2180 C   0  0  0  0  0  3  0  0  0  0  0  0
  -22.5900   -8.0570   21.4250 C   0  0  0  0  0  0  0  0  0  0  0  0
  -22.2130   -9.0060   20.4590 C   0  0  0  0  0  3  0  0  0  0  0  0
  -22.9520  -10.1880   20.2880 C   0  0  0  0  0  3  0  0  0  0  0  0
  -21.8260   -6.9180   21.5000 O   0  0  0  0  0  0  0  0  0  0  0  0
  -21.7160   -6.1980   22.6630 C   0  0  0  0  0  0  0  0  0  0  0  0
  -21.1910   -6.7680   23.8430 C   0  0  0  0  0  3  0  0  0  0  0  0
  -21.0350   -5.9770   24.9980 C   0  0  0  0  0  3  0  0  0  0  0  0
  -21.3920   -4.6150   24.9700 C   0  0  0  0  0  0  0  0  0  0  0  0
  -21.9110   -4.0450   23.7950 C   0  0  0  0  0  3  0  0  0  0  0  0
  -22.0700   -4.8340   22.6430 C   0  0  0  0  0  0  0  0  0  0  0  0
  -22.5500   -4.2780   21.5040 F   0  0  0  0  0  0  0  0  0  0  0  0
  -21.2340   -3.8490   26.0750 F   0  0  0  0  0  0  0  0  0  0  0  0
  -22.9810  -13.5560   21.2000 C   0  0  0  0  0  0  0  0  0  0  0  0
  -22.2430  -12.8630   22.0560 N   0  0  0  0  0  0  0  0  0  0  0  0
  -22.5570  -14.5890   20.6830 O   0  0  0  0  0  0  0  0  0  0  0  0
  -22.6110  -12.0290   22.4900 H   0  0  0  0  0  0  0  0  0  0  0  0
  -21.3080  -13.1690   22.2820 H   0  0  0  0  0  0  0  0  0  0  0  0
  -25.6340  -15.1960   20.4100 N   0  0  0  0  0  0  0  0  0  0  0  0
  -24.8760  -15.8650   20.5010 H   0  0  0  0  0  0  0  0  0  0  0  0
  -26.4930  -15.6150   20.0850 H   0  0  0  0  0  0  0  0  0  0  0  0
  -26.9670  -26.5520   16.0760 C   0  0  0  0  0  1  0  0  0  0  0  0
  -27.8860  -25.5420   16.7950 C   0  0  0  0  0  3  0  0  0  0  0  0
  -28.6660  -26.2390   17.8520 N   0  0  0  0  0  4  0  0  0  0  0  0
  -29.1570  -26.9970   17.4090 H   0  0  0  0  0  0  0  0  0  0  0  0
  -28.0140  -26.6310   18.5120 H   0  0  0  0  0  0  0  0  0  0  0  0
  -29.6520  -25.4180   18.5990 C   0  0  0  0  0  2  0  0  0  0  0  0
  -30.5640  -26.2240   19.5570 C   0  0  0  0  0  2  0  0  0  0  0  0
  -29.8550  -27.1330   20.5780 C   0  0  0  0  0  2  0  0  0  0  0  0
  -28.7050  -26.4720   21.0890 O   0  0  0  0  0  0  0  0  0  0  0  0
  -24.6370  -31.8380   23.4050 C   0  0  0  0  0  0  0  0  0  0  0  0
  -27.5460  -27.1950   20.9980 C   0  0  0  0  0  0  0  0  0  0  0  0
  -23.5660  -30.2670   21.8180 C   0  0  0  0  0  3  0  0  0  0  0  0
  -25.1380  -28.6200   20.6730 C   0  0  0  0  0  0  0  0  0  0  0  0
  -26.0920  -30.6610   21.7660 C   0  0  0  0  0  2  0  0  0  0  0  0
  -26.2410  -29.2380   21.2790 C   0  0  0  0  0  0  0  0  0  0  0  0
  -27.4530  -28.5340   21.4370 C   0  0  0  0  0  3  0  0  0  0  0  0
  -26.4180  -26.5720   20.4360 C   0  0  0  0  0  3  0  0  0  0  0  0
  -25.2200  -27.2830   20.2470 C   0  0  0  0  0  3  0  0  0  0  0  0
  -23.8860  -29.4560   20.5330 C   0  0  0  0  0  2  0  0  0  0  0  0
  -24.7770  -30.9400   22.3900 N   0  0  0  0  0  0  0  0  0  0  0  0
  -23.5170  -32.1490   23.8350 O   0  0  0  0  0  0  0  0  0  0  0  0
  -22.8520  -29.3350   22.8230 C   0  0  0  0  0  0  0  0  0  0  0  0
  -21.5490  -29.0990   22.5940 N   0  0  0  0  0  0  0  0  0  0  0  0
  -23.4700  -28.8200   23.7580 O   0  0  0  0  0  0  0  0  0  0  0  0
  -21.1140  -29.5660   21.8120 H   0  0  0  0  0  0  0  0  0  0  0  0
  -18.1700  -27.8710   22.9010 C   0  0  0  0  0  0  0  0  0  0  0  0
  -20.6840  -28.2250   23.3830 C   0  0  0  0  0  3  0  0  0  0  0  0
  -20.8680  -26.7460   22.9740 C   0  0  0  0  0  2  0  0  0  0  0  0
  -19.8740  -26.2860   21.9030 C   0  0  0  0  0  2  0  0  0  0  0  0
  -18.4340  -26.4620   22.3930 C   0  0  0  0  0  2  0  0  0  0  0  0
  -19.2290  -28.7040   23.3500 C   0  0  0  0  0  0  0  0  0  0  0  0
  -18.9340  -30.0170   23.7770 C   0  0  0  0  0  3  0  0  0  0  0  0
  -17.6110  -30.4990   23.7660 C   0  0  0  0  0  3  0  0  0  0  0  0
  -16.5640  -29.6640   23.3360 C   0  0  0  0  0  3  0  0  0  0  0  0
  -16.8440  -28.3540   22.9090 C   0  0  0  0  0  3  0  0  0  0  0  0
  -25.8730  -32.5400   24.0540 C   0  0  0  0  0  3  0  0  0  0  0  0
  -25.5090  -33.9420   24.2960 N   0  0  0  0  0  0  0  0  0  0  0  0
  -25.8430  -34.9620   23.4950 C   0  0  0  0  0  0  0  0  0  0  0  0
  -26.5610  -34.8260   22.5000 O   0  0  0  0  0  0  0  0  0  0  0  0
  -24.8750  -34.1200   25.0610 H   0  0  0  0  0  0  0  0  0  0  0  0
  -24.0700  -36.6660   22.9740 C   0  0  0  0  0  1  0  0  0  0  0  0
  -25.2910  -36.3540   23.8550 C   0  0  0  0  0  3  0  0  0  0  0  0
  -27.3520  -37.3610   24.7240 C   0  0  0  0  0  1  0  0  0  0  0  0
  -26.2900  -37.4350   23.7240 N   0  0  0  0  0  0  0  0  0  0  0  0
  -25.8460  -38.3460   23.8000 H   0  0  0  0  0  0  0  0  0  0  0  0
  -26.3510  -31.8480   25.3890 C   0  0  1  0  0  0  0  0  0  0  0  0
  -25.2040  -31.5880   26.3930 C   0  0  0  0  0  1  0  0  0  0  0  0
  -27.0330  -30.4920   25.0880 C   0  0  0  0  0  1  0  0  0  0  0  0
  -27.4090  -32.7300   26.0900 C   0  0  0  0  0  1  0  0  0  0  0  0
  -23.7210  -23.4110   18.8610 C   0  0  0  0  0  2  0  0  0  0  0  0
  -21.2870  -23.9310   18.3660 C   0  0  0  0  0  1  0  0  0  0  0  0
  -22.7040  -23.8310   17.7920 C   0  0  0  0  0  2  0  0  0  0  0  0
  2  4  2  0
  3  5  1  0
  4  1  1  0
  4103  1  0
  5  8  1  0
  5  1  2  0
  6  3  2  0
  6  2  1  0
  8  7  1  0
  8  9  1  0
  9 12  1  0
  9 11  1  0
 10  9  1  0
 12 13  1  0
 13 14  1  0
 15 14  1  0
 15 24  1  0
 16 24  1  0
 17 22  1  0
 18 19  1  0
 18 17  1  0
 20 19  1  0
 20 29  1  0
 20 21  1  0
 22 16  1  0
 22 21  1  0
 23 16  2  0
 24 25  1  0
 26 27  2  0
 27 46  1  0
 28 27  1  0
 28 31  1  0
 29 26  1  0
 29 30  1  0
 30 28  2  0
 31 32  1  0
 32 33  2  0
 34 37  1  0
 34 33  1  0
 35 34  2  0
 36 35  1  0
 36 31  2  0
 37 38  1  0
 38 39  1  0
 39 40  2  0
 41 40  1  0
 41 45  1  0
 42 41  2  0
 43 38  2  0
 43 42  1  0
 44 43  1  0
 46 47  1  0
 47 50  1  0
 47 49  1  0
 48 46  2  0
 51 52  1  0
 51 26  1  0
 53 51  1  0
 55 54  1  0
 55  6  1  0
 55 56  1  0
 56 58  1  0
 56 59  1  0
 57 56  1  0
 59 60  1  0
 60 61  1  0
 61 62  1  0
 63 74  2  0
 64 62  1  0
 64 69  1  0
 65 73  1  0
 65 75  1  0
 66 68  1  0
 67 73  1  0
 68 69  2  0
 68 67  1  0
 70 64  2  0
 71 70  1  0
 71 66  2  0
 72 66  1  0
 72 65  1  0
 73 63  1  0
 75 77  2  0
 76 75  1  0
 78 76  1  0
 79 88  2  0
 79 84  1  0
 80 76  1  0
 81 80  1  0
 82 83  1  0
 82 81  1  0
 83 79  1  0
 84 80  1  0
 84 85  2  0
 86 85  1  0
 87 86  2  0
 88 87  1  0
 89 63  1  0
 89 90  1  0
 89 99  1  0
 90 93  1  0
 91 95  1  0
 91 90  1  0
 92 91  2  0
 95 94  1  0
 97 98  1  0
 97 95  1  0
 97 96  1  0
 99102  1  1
 99100  1  0
101 99  1  0
105104  1  0
105103  1  0
M  ISO  4  16 100  24 100  61 101  62 101
M  END
>  <TORSDO>  (52) 
F 29

>  <SCORE>  (52) 
-10.827

>  <name>  (52) 
51

>  <ligand_id>  (52) 
51

>  <original_smiles>  (52) 
[H]c1c([H])c([H])c2c(c1[H])C([H])([H])C([H])([H])C([H])([H])C2([H])N([H])C(=O)C1([H])N(C(=O)C([H])(N([H])C(=O)C([H])(N([H])C([H])([H])[H])C([H])([H])[H])C(C([H])([H])[H])(C([H])([H])[H])C([H])([H])[H])C([H])([H])c2c([H])c(OC([H])([H])C([H])([H])C([H])([H])[N+]([H])([H])C([H])(c3c([H])c(C([H])([H])C([H])([H])C([H])([H])[H])c([H])c(C([H])(C([H])([H])[H])[N+]([H])([H])C([H])([H])C([H])([H])C([H])([H])C([H])([H])N([H])C(=O)N4C([H])([H])C([H])([H])C([H])([H])C([H])(n5nc(-c6c([H])c([H])c(Oc7c([H])c([H])c(F)c([H])c7F)c([H])c6[H])c(C(=O)N([H])[H])c5N([H])[H])C4([H])[H])c3[H])C([H])([H])[H])c([H])c([H])c2C1([H])[H]

>  <smiles>  (52) 
[H]c1c([H])c([H])c2c(c1[H])C([H])([H])C([H])([H])C([H])([H])C2([H])N([H])C(=O)C1([H])N(C(=O)C([H])(N([H])C(=O)C([H])(N([H])C([H])([H])[H])C([H])([H])[H])C(C([H])([H])[H])(C([H])([H])[H])C([H])([H])[H])C([H])([H])c2c([H])c(OC([H])([H])C([H])([H])C([H])([H])[N+]([H])([H])C([H])(c3c([H])c(C([H])([H])C([H])([H])C([H])([H])[H])c([H])c(C([H])(C([H])([H])[H])[N+]([H])([H])C([H])([H])C([H])([H])C([H])([H])C([H])([H])N([H])C(=O)N4C([H])([H])C([H])([H])C([H])([H])C([H])(n5nc(-c6c([H])c([H])c(Oc7c([H])c([H])c(F)c([H])c7F)c([H])c6[H])c(C(=O)N([H])[H])c5N([H])[H])C4([H])[H])c3[H])C([H])([H])[H])c([H])c([H])c2C1([H])[H]

$$$$
52:0:0
     RDKit          3D

100108  0  0  1  0  0  0  0  0999 V2000
  -27.3510  -20.8310   17.7890 C   0  0  0  0  0  3  0  0  0  0  0  0
  -27.5990  -21.7920   18.7870 C   0  0  0  0  0  3  0  0  0  0  0  0
  -27.8280  -19.5140   17.9320 C   0  0  0  0  0  3  0  0  0  0  0  0
  -28.7870  -20.1150   20.0860 C   0  0  0  0  0  3  0  0  0  0  0  0
  -28.3020  -21.4340   19.9590 C   0  0  0  0  0  0  0  0  0  0  0  0
  -28.5710  -19.1420   19.0790 C   0  0  0  0  0  0  0  0  0  0  0  0
  -28.5820  -22.4100   21.0230 C   0  0  0  0  0  3  0  0  0  0  0  0
  -29.0220  -23.6670   20.8270 C   0  0  0  0  0  3  0  0  0  0  0  0
  -29.2480  -24.6920   21.9320 C   0  0  0  0  0  3  0  0  0  0  0  0
  -30.2860  -24.1890   22.8610 N   0  0  0  0  0  4  0  0  0  0  0  0
  -31.1480  -23.9980   22.3790 H   0  0  0  0  0  0  0  0  0  0  0  0
  -29.9840  -23.3350   23.3020 H   0  0  0  0  0  0  0  0  0  0  0  0
  -30.4790  -24.8540   23.5900 H   0  0  0  0  0  0  0  0  0  0  0  0
  -29.6440  -26.0710   21.3490 C   0  0  0  0  0  2  0  0  0  0  0  0
  -28.9320  -26.3360   20.1420 O   0  0  0  0  0  0  0  0  0  0  0  0
  -24.9380  -31.4760   23.1380 C   0  0  0  0  0  0  0  0  0  0  0  0
  -27.7770  -27.0830   20.1940 C   0  0  0  0  0  0  0  0  0  0  0  0
  -23.8180  -30.0590   21.4450 C   0  0  0  0  0  3  0  0  0  0  0  0
  -25.3500  -28.5280   20.1000 C   0  0  0  0  0  0  0  0  0  0  0  0
  -26.3410  -30.4480   21.3590 C   0  0  0  0  0  2  0  0  0  0  0  0
  -26.4700  -29.0730   20.7410 C   0  0  0  0  0  0  0  0  0  0  0  0
  -27.6830  -28.3600   20.7950 C   0  0  0  0  0  3  0  0  0  0  0  0
  -26.6440  -26.5480   19.5450 C   0  0  0  0  0  3  0  0  0  0  0  0
  -25.4300  -27.2590   19.5010 C   0  0  0  0  0  3  0  0  0  0  0  0
  -24.0970  -29.3730   20.0810 C   0  0  0  0  0  2  0  0  0  0  0  0
  -25.0470  -30.6740   22.0420 N   0  0  0  0  0  0  0  0  0  0  0  0
  -23.8330  -31.7410   23.6290 O   0  0  0  0  0  0  0  0  0  0  0  0
  -23.1330  -29.0350   22.3770 C   0  0  0  0  0  0  0  0  0  0  0  0
  -21.8170  -28.8480   22.1940 N   0  0  0  0  0  0  0  0  0  0  0  0
  -23.7850  -28.4130   23.2200 O   0  0  0  0  0  0  0  0  0  0  0  0
  -21.3550  -29.4020   21.4870 H   0  0  0  0  0  0  0  0  0  0  0  0
  -18.4110  -27.7220   22.6180 C   0  0  0  0  0  0  0  0  0  0  0  0
  -20.9700  -27.9090   22.9270 C   0  0  0  0  0  3  0  0  0  0  0  0
  -21.0470  -26.4930   22.3090 C   0  0  0  0  0  2  0  0  0  0  0  0
  -19.9500  -26.2260   21.2740 C   0  0  0  0  0  2  0  0  0  0  0  0
  -18.5650  -26.3880   21.9070 C   0  0  0  0  0  2  0  0  0  0  0  0
  -19.5430  -28.4440   23.0820 C   0  0  0  0  0  0  0  0  0  0  0  0
  -19.3490  -29.6960   23.7040 C   0  0  0  0  0  3  0  0  0  0  0  0
  -18.0540  -30.2240   23.8700 C   0  0  0  0  0  3  0  0  0  0  0  0
  -16.9370  -29.4980   23.4230 C   0  0  0  0  0  3  0  0  0  0  0  0
  -17.1160  -28.2490   22.8010 C   0  0  0  0  0  3  0  0  0  0  0  0
  -26.1910  -32.1160   23.8130 C   0  0  0  0  0  3  0  0  0  0  0  0
  -26.6990  -31.3100   25.0690 C   0  0  1  0  0  0  0  0  0  0  0  0
  -25.5800  -30.9490   26.0730 C   0  0  0  0  0  1  0  0  0  0  0  0
  -27.3810  -29.9920   24.6300 C   0  0  0  0  0  1  0  0  0  0  0  0
  -27.7710  -32.1320   25.8220 C   0  0  0  0  0  1  0  0  0  0  0  0
  -25.8380  -33.4930   24.1850 N   0  0  0  0  0  0  0  0  0  0  0  0
  -26.2010  -34.5820   23.4940 C   0  0  0  0  0  0  0  0  0  0  0  0
  -26.9380  -34.5360   22.5060 O   0  0  0  0  0  0  0  0  0  0  0  0
  -25.1910  -33.6040   24.9520 H   0  0  0  0  0  0  0  0  0  0  0  0
  -24.4980  -36.3840   23.0700 C   0  0  0  0  0  1  0  0  0  0  0  0
  -25.6580  -35.9410   23.9760 C   0  0  0  0  0  3  0  0  0  0  0  0
  -27.6970  -36.7830   25.0540 C   0  0  0  0  0  1  0  0  0  0  0  0
  -26.6880  -37.0030   24.0220 N   0  0  0  0  0  0  0  0  0  0  0  0
  -26.2620  -37.9110   24.1850 H   0  0  0  0  0  0  0  0  0  0  0  0
  -29.1140  -17.7640   19.2920 C   0  0  0  0  0  0  0  0  0  0  0  0
  -28.8950  -17.1240   20.3260 O   0  0  0  0  0  0  0  0  0  0  0  0
  -29.9970  -17.1090   18.2190 C   0  0  0  0  0  2  0  0  0  0  0  0
  -30.7260  -15.8420   18.7160 C   0  0  0  0  0  2  0  0  0  0  0  0
  -32.2480  -16.0180   18.8560 C   0  0  0  0  0  2  0  0  0  0  0  0
  -32.7830  -15.4670   20.1930 C   0  0  0  0  0  2  0  0  0  0  0  0
  -34.1680  -14.7880   20.1100 C   0  0  0  0  0  2  0  0  0  0  0  0
  -34.6290  -12.3720   20.2640 C   0  0  0  0  0  0  0  0  0  0  0  0
  -34.1230  -10.4310   21.6990 C   0  0  0  0  0  2  0  0  0  0  0  0
  -33.2820   -9.3970   20.9260 C   0  0  0  0  0  2  0  0  0  0  0  0
  -31.7800   -9.7310   21.0150 C   0  0  0  0  0  2  0  0  0  0  0  0
  -31.4740  -11.2150   20.6820 C   0  0  0  0  0  3  0  0  0  0  0  0
  -32.4200  -12.1430   21.4680 C   0  0  0  0  0  2  0  0  0  0  0  0
  -33.8100  -11.7650   21.1650 N   0  0  0  0  0  0  0  0  0  0  0  0
  -35.7260  -11.9200   19.9290 O   0  0  0  0  0  0  0  0  0  0  0  0
  -34.1160  -13.4150   19.6040 N   0  0  0  0  0  0  0  0  0  0  0  0
  -34.4290  -13.3990   18.6440 H   0  0  0  0  0  0  0  0  0  0  0  0
  -29.4520  -12.7850   20.9950 C   0  0  0  0  0  0  0  0  0  0  0  0
  -28.1190  -12.5340   21.1810 C   0  0  0  0  0  0  0  0  0  0  0  0
  -27.9860  -11.1110   21.1970 C   0  0  0  0  0  0  0  0  0  0  0  0
  -30.0690  -11.5440   20.9280 N   0  0  0  0  0  0  0  0  0  0  0  0
  -29.1770  -10.5360   21.0980 N   0  0  0  0  0  0  0  0  0  0  0  0
  -26.7860  -10.2670   21.2450 C   0  0  0  0  0  0  0  0  0  0  0  0
  -26.5760   -9.3420   22.2910 C   0  0  0  0  0  3  0  0  0  0  0  0
  -25.4060   -8.5520   22.3200 C   0  0  0  0  0  3  0  0  0  0  0  0
  -24.4320   -8.6830   21.3010 C   0  0  0  0  0  0  0  0  0  0  0  0
  -24.6590   -9.5890   20.2480 C   0  0  0  0  0  3  0  0  0  0  0  0
  -25.8270  -10.3700   20.2180 C   0  0  0  0  0  3  0  0  0  0  0  0
  -23.2800   -7.9370   21.2350 O   0  0  0  0  0  0  0  0  0  0  0  0
  -22.6600   -7.4700   22.3670 C   0  0  0  0  0  0  0  0  0  0  0  0
  -22.1440   -8.3440   23.3500 C   0  0  0  0  0  3  0  0  0  0  0  0
  -21.4510   -7.8240   24.4600 C   0  0  0  0  0  3  0  0  0  0  0  0
  -21.2670   -6.4350   24.5890 C   0  0  0  0  0  0  0  0  0  0  0  0
  -21.7760   -5.5630   23.6110 C   0  0  0  0  0  3  0  0  0  0  0  0
  -22.4680   -6.0810   22.5020 C   0  0  0  0  0  0  0  0  0  0  0  0
  -22.9360   -5.2380   21.5500 F   0  0  0  0  0  0  0  0  0  0  0  0
  -20.5920   -5.9360   25.6510 F   0  0  0  0  0  0  0  0  0  0  0  0
  -27.0170  -13.5510   21.2390 C   0  0  0  0  0  0  0  0  0  0  0  0
  -25.9500  -13.2640   21.9790 N   0  0  0  0  0  0  0  0  0  0  0  0
  -27.1170  -14.6340   20.6630 O   0  0  0  0  0  0  0  0  0  0  0  0
  -25.8720  -12.3850   22.4700 H   0  0  0  0  0  0  0  0  0  0  0  0
  -25.2000  -13.9400   22.0570 H   0  0  0  0  0  0  0  0  0  0  0  0
  -30.1810  -13.9600   20.8540 N   0  0  0  0  0  0  0  0  0  0  0  0
  -29.7230  -14.8600   20.7870 H   0  0  0  0  0  0  0  0  0  0  0  0
  -31.1660  -13.9930   20.6250 H   0  0  0  0  0  0  0  0  0  0  0  0
  1  3  2  0
  1  2  1  0
  2  5  2  0
  3  6  1  0
  5  4  1  0
  5  7  1  0
  6 56  1  0
  6  4  2  0
  8  7  2  0
  9  8  1  0
  9 10  1  0
 10 12  1  0
 10 13  1  0
 11 10  1  0
 14  9  1  0
 15 17  1  0
 15 14  1  0
 16 27  2  0
 17 22  1  0
 18 26  1  0
 18 28  1  0
 19 21  1  0
 20 26  1  0
 21 22  2  0
 21 20  1  0
 23 17  2  0
 24 23  1  0
 24 19  2  0
 25 19  1  0
 25 18  1  0
 26 16  1  0
 28 30  2  0
 29 28  1  0
 31 29  1  0
 32 41  2  0
 32 37  1  0
 33 29  1  0
 33 37  1  0
 34 33  1  0
 35 36  1  0
 35 34  1  0
 36 32  1  0
 37 38  2  0
 38 39  1  0
 40 39  2  0
 41 40  1  0
 42 16  1  0
 42 47  1  0
 42 43  1  0
 43 46  1  1
 43 44  1  0
 45 43  1  0
 47 50  1  0
 48 52  1  0
 48 47  1  0
 49 48  2  0
 52 51  1  0
 52 54  1  0
 54 55  1  0
 54 53  1  0
 56 57  2  0
 58 59  1  0
 58 56  1  0
 59 60  1  0
 60 61  1  0
 62 61  1  0
 63 69  1  0
 65 66  1  0
 65 64  1  0
 67 76  1  0
 67 66  1  0
 67 68  1  0
 69 68  1  0
 69 64  1  0
 70 63  2  0
 71 62  1  0
 71 63  1  0
 72 71  1  0
 73 74  2  0
 74 75  1  0
 74 93  1  0
 75 78  1  0
 76 73  1  0
 76 77  1  0
 77 75  2  0
 78 79  1  0
 79 80  2  0
 81 80  1  0
 82 81  2  0
 83 82  1  0
 83 78  2  0
 84 81  1  0
 84 85  1  0
 85 90  2  0
 85 86  1  0
 86 87  2  0
 87 88  1  0
 88 92  1  0
 89 88  2  0
 90 89  1  0
 91 90  1  0
 93 94  1  0
 94 97  1  0
 94 96  1  0
 95 93  2  0
 98 73  1  0
 99 98  1  0
100 98  1  0
M  ISO  4  14 101  15 101  63 100  71 100
M  END
>  <TORSDO>  (53) 
F 26

>  <SCORE>  (53) 
-8.786

>  <name>  (53) 
52

>  <ligand_id>  (53) 
52

>  <original_smiles>  (53) 
[H]C(=C([H])C([H])(C([H])([H])Oc1c([H])c([H])c2c(c1[H])C([H])([H])N(C(=O)C([H])(N([H])C(=O)C([H])(N([H])C([H])([H])[H])C([H])([H])[H])C(C([H])([H])[H])(C([H])([H])[H])C([H])([H])[H])C([H])(C(=O)N([H])C1([H])c3c([H])c([H])c([H])c([H])c3C([H])([H])C([H])([H])C1([H])[H])C2([H])[H])[N+]([H])([H])[H])c1c([H])c([H])c([H])c(C(=O)C([H])([H])C([H])([H])C([H])([H])C([H])([H])C([H])([H])N([H])C(=O)N2C([H])([H])C([H])([H])C([H])([H])C([H])(n3nc(-c4c([H])c([H])c(Oc5c([H])c([H])c(F)c([H])c5F)c([H])c4[H])c(C(=O)N([H])[H])c3N([H])[H])C2([H])[H])c1[H]

>  <smiles>  (53) 
[H]C(=C([H])C([H])(C([H])([H])Oc1c([H])c([H])c2c(c1[H])C([H])([H])N(C(=O)C([H])(N([H])C(=O)C([H])(N([H])C([H])([H])[H])C([H])([H])[H])C(C([H])([H])[H])(C([H])([H])[H])C([H])([H])[H])C([H])(C(=O)N([H])C1([H])c3c([H])c([H])c([H])c([H])c3C([H])([H])C([H])([H])C1([H])[H])C2([H])[H])[N+]([H])([H])[H])c1c([H])c([H])c([H])c(C(=O)C([H])([H])C([H])([H])C([H])([H])C([H])([H])C([H])([H])N([H])C(=O)N2C([H])([H])C([H])([H])C([H])([H])C([H])(n3nc(-c4c([H])c([H])c(Oc5c([H])c([H])c(F)c([H])c5F)c([H])c4[H])c(C(=O)N([H])[H])c3N([H])[H])C2([H])[H])c1[H]

$$$$
53:0:0
     RDKit          3D

 92 93  0  0  1  0  0  0  0  0999 V2000
  -27.6210  -27.8830   18.4900 C   0  0  0  0  0  3  0  0  0  0  0  0
  -26.5140  -29.2290   18.6370 C   0  0  0  0  0  3  0  0  0  0  0  0
  -25.8310  -27.1080   21.7740 C   0  0  2  0  0  0  0  0  0  0  0  0
  -27.7210  -26.5330   19.6050 C   0  0  0  0  0  1  0  0  0  0  0  0
  -25.1700  -29.4270   19.7420 C   0  0  0  0  0  1  0  0  0  0  0  0
  -25.2990  -28.4350   21.6660 C   0  0  2  0  0  0  0  0  0  0  0  0
  -25.4210  -28.7810   22.9730 F   0  0  0  0  0  0  0  0  0  0  0  0
  -28.6910  -24.4910   19.4040 C   0  0  0  0  0  2  0  0  0  0  0  0
  -29.7470  -24.6760   18.7930 O   0  0  0  0  0  0  0  0  0  0  0  0
  -28.6430  -22.2800   19.7320 C   0  0  0  0  0 15  0  0  0  0  0  0
  -29.5300  -20.0780   19.6450 C   0  0  0  0  0 15  0  0  0  0  0  0
  -30.1210  -16.2920   19.8140 C   0  0  0  0  0  0  0  0  0  0  0  0
  -30.3800  -13.4990   19.1180 C   0  0  0  0  0  2  0  0  0  0  0  0
  -29.5460  -12.6270   18.0910 C   0  0  0  0  0  2  0  0  0  0  0  0
  -28.2610  -12.0570   18.6940 C   0  0  0  0  0  2  0  0  0  0  0  0
  -27.6580  -13.1010   19.6460 C   0  0  0  0  0  3  0  0  0  0  0  0
  -28.6860  -13.8660   20.5790 C   0  0  0  0  0  2  0  0  0  0  0  0
  -29.6450  -14.7670   19.7690 N   0  0  0  0  0  0  0  0  0  0  0  0
  -31.3590  -16.0250   19.7320 O   0  0  0  0  0  0  0  0  0  0  0  0
  -29.4600  -17.9580   19.7770 N   0  0  0  0  0  2  0  0  0  0  0  0
  -28.4680  -17.7540   19.8290 H   0  0  0  0  0  0  0  0  0  0  0  0
  -25.3650  -13.4780   20.6430 C   0  0  0  0  0  0  0  0  0  0  0  0
  -24.3430  -12.6610   21.0330 C   0  0  0  0  0  0  0  0  0  0  0  0
  -24.8250  -11.3220   20.8890 C   0  0  0  0  0  0  0  0  0  0  0  0
  -26.4130  -12.6550   20.2860 N   0  0  0  0  0  0  0  0  0  0  0  0
  -26.1000  -11.3370   20.4840 N   0  0  0  0  0  0  0  0  0  0  0  0
  -24.1060  -10.0420   21.0600 C   0  0  0  0  0  0  0  0  0  0  0  0
  -24.5480   -9.0560   21.9700 C   0  0  0  0  0  3  0  0  0  0  0  0
  -23.8220   -7.8560   22.1420 C   0  0  0  0  0  3  0  0  0  0  0  0
  -22.6350   -7.6290   21.4050 C   0  0  0  0  0  0  0  0  0  0  0  0
  -22.2070   -8.6050   20.4870 C   0  0  0  0  0  3  0  0  0  0  0  0
  -22.9340   -9.7950   20.3140 C   0  0  0  0  0  3  0  0  0  0  0  0
  -21.8820   -6.4820   21.4840 O   0  0  0  0  0  0  0  0  0  0  0  0
  -21.7870   -5.7570   22.6470 C   0  0  0  0  0  0  0  0  0  0  0  0
  -21.2890   -6.3260   23.8400 C   0  0  0  0  0  3  0  0  0  0  0  0
  -21.1440   -5.5290   24.9930 C   0  0  0  0  0  3  0  0  0  0  0  0
  -21.4890   -4.1650   24.9560 C   0  0  0  0  0  0  0  0  0  0  0  0
  -21.9790   -3.5950   23.7670 C   0  0  0  0  0  3  0  0  0  0  0  0
  -22.1250   -4.3880   22.6160 C   0  0  0  0  0  0  0  0  0  0  0  0
  -22.5780   -3.8290   21.4680 F   0  0  0  0  0  0  0  0  0  0  0  0
  -21.3440   -3.3970   26.0620 F   0  0  0  0  0  0  0  0  0  0  0  0
  -22.9610  -13.1080   21.4120 C   0  0  0  0  0  0  0  0  0  0  0  0
  -22.2970  -12.3720   22.2950 N   0  0  0  0  0  0  0  0  0  0  0  0
  -22.4850  -14.1500   20.9630 O   0  0  0  0  0  0  0  0  0  0  0  0
  -22.6970  -11.5290   22.6810 H   0  0  0  0  0  0  0  0  0  0  0  0
  -21.3750  -12.6560   22.5920 H   0  0  0  0  0  0  0  0  0  0  0  0
  -25.4830  -14.8590   20.5180 N   0  0  0  0  0  0  0  0  0  0  0  0
  -24.7120  -15.4880   20.7110 H   0  0  0  0  0  0  0  0  0  0  0  0
  -26.3050  -15.3300   20.1620 H   0  0  0  0  0  0  0  0  0  0  0  0
  -23.8760  -28.1890   18.5100 C   0  0  0  0  0 15  0  0  0  0  0  0
  -22.9690  -26.4980   19.8910 C   0  0  0  0  0 15  0  0  0  0  0  0
  -24.1660  -25.4240   21.1940 O   0  0  0  0  0  0  0  0  0  0  0  0
  -24.9570  -31.5810   23.7180 C   0  0  0  0  0  0  0  0  0  0  0  0
  -25.7340  -25.0260   21.7330 C   0  0  0  0  0  2  0  0  0  0  0  0
  -23.4190  -30.3060   22.0490 C   0  0  0  0  0  3  0  0  0  0  0  0
  -25.1850  -27.3320   20.2290 C   0  0  0  0  0  3  0  0  0  0  0  0
  -26.7440  -29.9540   22.2040 C   0  0  0  0  0  1  0  0  0  0  0  0
  -26.9950  -28.0290   21.5450 C   0  0  0  0  0  3  0  0  0  0  0  0
  -27.2180  -26.3530   22.5140 C   0  0  0  0  0  2  0  0  0  0  0  0
  -25.0700  -24.9840   20.2760 C   0  0  0  0  0  3  0  0  0  0  0  0
  -25.0820  -26.1350   19.2720 C   0  0  0  0  0  2  0  0  0  0  0  0
  -23.1020  -28.7090   21.0670 C   0  0  0  0  0  1  0  0  0  0  0  0
  -25.0890  -30.8420   22.5430 N   0  0  0  0  0  0  0  0  0  0  0  0
  -23.8730  -32.0270   24.1520 O   0  0  0  0  0  0  0  0  0  0  0  0
  -22.4060  -29.8120   23.1940 C   0  0  0  0  0  0  0  0  0  0  0  0
  -21.1420  -29.5160   22.8490 N   0  0  0  0  0  0  0  0  0  0  0  0
  -22.8040  -29.3790   24.2780 O   0  0  0  0  0  0  0  0  0  0  0  0
  -20.8050  -29.8120   21.9460 H   0  0  0  0  0  0  0  0  0  0  0  0
  -17.7590  -28.2840   23.0670 C   0  0  0  0  0  0  0  0  0  0  0  0
  -20.2430  -28.6500   23.6420 C   0  0  0  0  0  3  0  0  0  0  0  0
  -20.4250  -27.1430   23.3270 C   0  0  0  0  0  2  0  0  0  0  0  0
  -19.4910  -26.6400   22.2210 C   0  0  0  0  0  2  0  0  0  0  0  0
  -18.0270  -26.8560   22.6170 C   0  0  0  0  0  2  0  0  0  0  0  0
  -18.8010  -29.1220   23.5390 C   0  0  0  0  0  0  0  0  0  0  0  0
  -18.5100  -30.4470   23.9230 C   0  0  0  0  0  3  0  0  0  0  0  0
  -17.2000  -30.9440   23.8330 C   0  0  0  0  0  3  0  0  0  0  0  0
  -16.1660  -30.1120   23.3730 C   0  0  0  0  0  3  0  0  0  0  0  0
  -16.4430  -28.7850   22.9960 C   0  0  0  0  0  3  0  0  0  0  0  0
  -26.2010  -31.9350   24.5790 C   0  0  0  0  0  3  0  0  0  0  0  0
  -26.0870  -33.3690   24.9020 N   0  0  0  0  0  0  0  0  0  0  0  0
  -26.5810  -34.3550   24.1470 C   0  0  0  0  0  0  0  0  0  0  0  0
  -27.2140  -34.1360   23.1130 O   0  0  0  0  0  0  0  0  0  0  0  0
  -25.5370  -33.6080   25.7120 H   0  0  0  0  0  0  0  0  0  0  0  0
  -25.1950  -36.4300   23.8230 C   0  0  0  0  0  1  0  0  0  0  0  0
  -26.3530  -35.8060   24.6150 C   0  0  0  0  0  3  0  0  0  0  0  0
  -28.6240  -36.2990   25.4140 C   0  0  0  0  0  1  0  0  0  0  0  0
  -27.5550  -36.6570   24.4850 N   0  0  0  0  0  0  0  0  0  0  0  0
  -27.3210  -37.6350   24.6300 H   0  0  0  0  0  0  0  0  0  0  0  0
  -26.3910  -31.1240   25.9330 C   0  0  1  0  0  0  0  0  0  0  0  0
  -25.1270  -31.0730   26.8220 C   0  0  0  0  0  1  0  0  0  0  0  0
  -26.8670  -29.6610   25.7700 C   0  0  0  0  0  1  0  0  0  0  0  0
  -27.5240  -31.8000   26.7420 C   0  0  0  0  0  1  0  0  0  0  0  0
  1  2  2  0
  1  4  1  0
  2  5  1  0
  3 59  1  6
  6  3  1  0
  6  7  1  1
  9  8  2  0
 13 18  1  0
 14 15  1  0
 14 13  1  0
 16 15  1  0
 16 25  1  0
 16 17  1  0
 18 12  1  0
 18 17  1  0
 19 12  2  0
 20 12  1  0
 20 21  1  0
 22 23  2  0
 23 42  1  0
 24 23  1  0
 24 27  1  0
 25 26  1  0
 25 22  1  0
 26 24  2  0
 27 28  1  0
 28 29  2  0
 30 33  1  0
 30 29  1  0
 31 30  2  0
 32 31  1  0
 32 27  2  0
 33 34  1  0
 34 35  1  0
 35 36  2  0
 37 36  1  0
 37 41  1  0
 38 37  2  0
 39 34  2  0
 39 38  1  0
 40 39  1  0
 42 43  1  0
 43 46  1  0
 43 45  1  0
 44 42  2  0
 47 22  1  0
 47 48  1  0
 49 47  1  0
 52 54  1  0
 53 64  2  0
 55 62  1  0
 55 63  1  0
 55 65  1  0
 56 61  1  0
 56  6  1  0
 56  3  1  0
 57 63  1  0
 58  6  1  0
 58  3  1  0
 58 59  1  0
 60 61  1  0
 60 52  1  0
 60 54  1  0
 63 53  1  0
 65 67  2  0
 66 65  1  0
 68 66  1  0
 69 74  1  0
 70 66  1  0
 71 70  1  0
 72 73  1  0
 72 71  1  0
 73 69  1  0
 74 70  1  0
 74 75  2  0
 76 75  1  0
 77 76  2  0
 78 69  2  0
 78 77  1  0
 79 53  1  0
 79 80  1  0
 79 89  1  0
 80 83  1  0
 81 85  1  0
 81 80  1  0
 82 81  2  0
 85 84  1  0
 87 85  1  0
 87 88  1  0
 87 86  1  0
 89 92  1  1
 89 90  1  0
 91 89  1  0
M  ISO  4  12 100  20 100  51 101  52 101
M  END
>  <TORSDO>  (54) 
F 21

>  <SCORE>  (54) 
-13.911

>  <name>  (54) 
53

>  <ligand_id>  (54) 
53

>  <original_smiles>  (54) 
[H]c1c([H])c([H])c2c(c1[H])C([H])([H])C([H])([H])C([H])([H])C2([H])N([H])C(=O)C1([H])N(C(=O)C([H])(N([H])C(=O)C([H])(N([H])C([H])([H])[H])C([H])([H])[H])C(C([H])([H])[H])(C([H])([H])[H])C([H])([H])[H])C([H])([H])c2c([H])c(OC([H])([H])C([H])([H])c3c([H])c([H])c(C(=O)C([H])([H])C([H])([H])N([H])C(=O)N4C([H])([H])C([H])([H])C([H])([H])C([H])(n5nc(-c6c([H])c([H])c(Oc7c([H])c([H])c(F)c([H])c7F)c([H])c6[H])c(C(=O)N([H])[H])c5N([H])[H])C4([H])[H])c([H])c3F)c([H])c([H])c2C1([H])[H]

>  <smiles>  (54) 
[H]c1c([H])c([H])c2c(c1[H])C([H])([H])C([H])([H])C([H])([H])C2([H])N([H])C(=O)C1([H])N(C(=O)C([H])(N([H])C(=O)C([H])(N([H])C([H])([H])[H])C([H])([H])[H])C(C([H])([H])[H])(C([H])([H])[H])C([H])([H])[H])C([H])([H])c2c([H])c(OC([H])([H])C([H])([H])c3c([H])c([H])c(C(=O)C([H])([H])C([H])([H])N([H])C(=O)N4C([H])([H])C([H])([H])C([H])([H])C([H])(n5nc(-c6c([H])c([H])c(Oc7c([H])c([H])c(F)c([H])c7F)c([H])c6[H])c(C(=O)N([H])[H])c5N([H])[H])C4([H])[H])c([H])c3F)c([H])c([H])c2C1([H])[H]

$$$$
54:0:0
     RDKit          3D

 95102  0  0  1  0  0  0  0  0999 V2000
  -28.3280  -24.2310   25.0900 C   0  0  0  0  0  1  0  0  0  0  0  0
  -29.5260  -24.1580   24.1320 C   0  0  0  0  0  3  0  0  0  0  0  0
  -29.0450  -24.3470   22.7690 N   0  0  0  0  0  0  0  0  0  0  0  0
  -28.0290  -24.3930   22.7840 H   0  0  0  0  0  0  0  0  0  0  0  0
  -29.5690  -25.5830   22.2050 C   0  0  0  0  0  2  0  0  0  0  0  0
  -29.0940  -25.6980   20.7580 C   0  0  0  0  0  2  0  0  0  0  0  0
  -29.8820  -26.7640   19.9860 C   0  0  0  0  0  2  0  0  0  0  0  0
  -29.1590  -27.1390   18.8240 O   0  0  0  0  0  0  0  0  0  0  0  0
  -24.8330  -30.7770   23.1680 C   0  0  0  0  0  0  0  0  0  0  0  0
  -27.9060  -27.6320   19.0790 C   0  0  0  0  0  0  0  0  0  0  0  0
  -23.7390  -29.5360   21.3250 C   0  0  0  0  0  3  0  0  0  0  0  0
  -25.3020  -28.6030   19.5380 C   0  0  0  0  0  0  0  0  0  0  0  0
  -26.1410  -30.3810   21.0900 C   0  0  0  0  0  2  0  0  0  0  0  0
  -26.3980  -29.2050   20.1720 C   0  0  0  0  0  0  0  0  0  0  0  0
  -27.7030  -28.7220   19.9510 C   0  0  0  0  0  3  0  0  0  0  0  0
  -26.8040  -27.0380   18.4360 C   0  0  0  0  0  3  0  0  0  0  0  0
  -25.4980  -27.5110   18.6720 C   0  0  0  0  0  3  0  0  0  0  0  0
  -23.9390  -29.1910   19.8250 C   0  0  0  0  0  2  0  0  0  0  0  0
  -24.9250  -30.2350   21.9210 N   0  0  0  0  0  0  0  0  0  0  0  0
  -23.7710  -30.7440   23.8040 O   0  0  0  0  0  0  0  0  0  0  0  0
  -23.3500  -28.2440   22.0780 C   0  0  0  0  0  0  0  0  0  0  0  0
  -22.1490  -27.7240   21.7840 N   0  0  0  0  0  0  0  0  0  0  0  0
  -24.1270  -27.7200   22.8800 O   0  0  0  0  0  0  0  0  0  0  0  0
  -21.5720  -28.2190   21.1170 H   0  0  0  0  0  0  0  0  0  0  0  0
  -19.3460  -25.4550   21.5590 C   0  0  0  0  0  0  0  0  0  0  0  0
  -21.5810  -26.4930   22.3370 C   0  0  0  0  0  3  0  0  0  0  0  0
  -22.2590  -25.2470   21.7250 C   0  0  0  0  0  2  0  0  0  0  0  0
  -21.5190  -24.6960   20.5030 C   0  0  0  0  0  2  0  0  0  0  0  0
  -20.0800  -24.3140   20.8700 C   0  0  0  0  0  2  0  0  0  0  0  0
  -20.0530  -26.4860   22.2310 C   0  0  0  0  0  0  0  0  0  0  0  0
  -19.3260  -27.5400   22.8240 C   0  0  0  0  0  3  0  0  0  0  0  0
  -17.9200  -27.5760   22.7530 C   0  0  0  0  0  3  0  0  0  0  0  0
  -17.2250  -26.5440   22.1010 C   0  0  0  0  0  3  0  0  0  0  0  0
  -17.9360  -25.4840   21.5100 C   0  0  0  0  0  3  0  0  0  0  0  0
  -26.0480  -31.4870   23.8440 C   0  0  0  0  0  3  0  0  0  0  0  0
  -26.5460  -30.7560   25.1490 C   0  0  1  0  0  0  0  0  0  0  0  0
  -25.4130  -30.4290   26.1510 C   0  0  0  0  0  1  0  0  0  0  0  0
  -27.2570  -29.4320   24.7890 C   0  0  0  0  0  1  0  0  0  0  0  0
  -27.5910  -31.6370   25.8750 C   0  0  0  0  0  1  0  0  0  0  0  0
  -25.6410  -32.8650   24.1420 N   0  0  0  0  0  0  0  0  0  0  0  0
  -25.9850  -33.9350   23.4120 C   0  0  0  0  0  0  0  0  0  0  0  0
  -26.7510  -33.8700   22.4450 O   0  0  0  0  0  0  0  0  0  0  0  0
  -24.9670  -32.9860   24.8850 H   0  0  0  0  0  0  0  0  0  0  0  0
  -24.2040  -35.6330   22.8960 C   0  0  0  0  0  1  0  0  0  0  0  0
  -25.3860  -35.2960   23.8180 C   0  0  0  0  0  3  0  0  0  0  0  0
  -27.3920  -36.2840   24.8290 C   0  0  0  0  0  1  0  0  0  0  0  0
  -26.3680  -36.4010   23.7930 N   0  0  0  0  0  0  0  0  0  0  0  0
  -25.9080  -37.2990   23.9070 H   0  0  0  0  0  0  0  0  0  0  0  0
  -30.2130  -22.7880   24.1940 C   0  0  0  0  0  2  0  0  0  0  0  0
  -30.6640  -22.3790   22.8510 N   0  0  0  0  0  4  0  0  0  0  0  0
  -30.0920  -22.9050   22.2070 H   0  0  0  0  0  0  0  0  0  0  0  0
  -31.6160  -22.6760   22.7300 H   0  0  0  0  0  0  0  0  0  0  0  0
  -30.5300  -20.9290   22.6110 C   0  0  0  0  0  2  0  0  0  0  0  0
  -30.8260  -20.5130   21.1590 C   0  0  0  0  0  2  0  0  0  0  0  0
  -30.5790  -19.0090   20.9590 C   0  0  0  0  0  2  0  0  0  0  0  0
  -31.3380  -18.4230   19.7620 C   0  0  0  0  0  2  0  0  0  0  0  0
  -32.0530  -17.1110   20.1130 C   0  0  0  0  0  2  0  0  0  0  0  0
  -31.3490  -14.9260   19.2220 C   0  0  0  0  0  0  0  0  0  0  0  0
  -31.1630  -12.4790   19.1570 C   0  0  0  0  0  2  0  0  0  0  0  0
  -30.1940  -11.9720   18.0790 C   0  0  0  0  0  2  0  0  0  0  0  0
  -28.7680  -11.9050   18.6450 C   0  0  0  0  0  2  0  0  0  0  0  0
  -28.3360  -13.2360   19.3130 C   0  0  0  0  0  3  0  0  0  0  0  0
  -29.4080  -13.7450   20.3010 C   0  0  0  0  0  2  0  0  0  0  0  0
  -30.7100  -13.8000   19.6120 N   0  0  0  0  0  0  0  0  0  0  0  0
  -32.2040  -14.9660   18.3330 O   0  0  0  0  0  0  0  0  0  0  0  0
  -31.1600  -15.9600   20.0410 N   0  0  0  0  0  0  0  0  0  0  0  0
  -30.4640  -15.8480   20.7630 H   0  0  0  0  0  0  0  0  0  0  0  0
  -26.2030  -14.0790   20.4880 C   0  0  0  0  0  0  0  0  0  0  0  0
  -25.0700  -13.4290   20.9020 C   0  0  0  0  0  0  0  0  0  0  0  0
  -25.2700  -12.0490   20.5900 C   0  0  0  0  0  0  0  0  0  0  0  0
  -27.0320  -13.1000   19.9610 N   0  0  0  0  0  0  0  0  0  0  0  0
  -26.4790  -11.8660   20.0750 N   0  0  0  0  0  0  0  0  0  0  0  0
  -24.3590  -10.9020   20.6960 C   0  0  0  0  0  0  0  0  0  0  0  0
  -24.6530   -9.7990   21.5260 C   0  0  0  0  0  3  0  0  0  0  0  0
  -23.7500   -8.7170   21.6230 C   0  0  0  0  0  3  0  0  0  0  0  0
  -22.5380   -8.7340   20.8910 C   0  0  0  0  0  0  0  0  0  0  0  0
  -22.2630   -9.8260   20.0500 C   0  0  0  0  0  3  0  0  0  0  0  0
  -23.1640  -10.8990   19.9480 C   0  0  0  0  0  3  0  0  0  0  0  0
  -21.6140   -7.7170   20.9060 O   0  0  0  0  0  0  0  0  0  0  0  0
  -21.2920   -7.0560   22.0620 C   0  0  0  0  0  0  0  0  0  0  0  0
  -20.8120   -7.7360   23.2030 C   0  0  0  0  0  3  0  0  0  0  0  0
  -20.4260   -7.0090   24.3460 C   0  0  0  0  0  3  0  0  0  0  0  0
  -20.5100   -5.6030   24.3490 C   0  0  0  0  0  0  0  0  0  0  0  0
  -20.9830   -4.9250   23.2130 C   0  0  0  0  0  3  0  0  0  0  0  0
  -21.3700   -5.6480   22.0720 C   0  0  0  0  0  0  0  0  0  0  0  0
  -21.8050   -4.9860   20.9730 F   0  0  0  0  0  0  0  0  0  0  0  0
  -20.1320   -4.9050   25.4460 F   0  0  0  0  0  0  0  0  0  0  0  0
  -23.8320  -14.0630   21.4650 C   0  0  0  0  0  0  0  0  0  0  0  0
  -23.1390  -13.3650   22.3590 N   0  0  0  0  0  0  0  0  0  0  0  0
  -23.4970  -15.2040   21.1490 O   0  0  0  0  0  0  0  0  0  0  0  0
  -23.4210  -12.4350   22.6300 H   0  0  0  0  0  0  0  0  0  0  0  0
  -22.3160  -13.7700   22.7810 H   0  0  0  0  0  0  0  0  0  0  0  0
  -26.5910  -15.4140   20.5030 N   0  0  0  0  0  0  0  0  0  0  0  0
  -25.9780  -16.1540   20.8300 H   0  0  0  0  0  0  0  0  0  0  0  0
  -27.4690  -15.7640   20.1390 H   0  0  0  0  0  0  0  0  0  0  0  0
  2 49  1  0
  2  1  1  0
  3  4  1  0
  3  2  1  0
  5  3  1  0
  6  5  1  0
  7  6  1  0
  8 10  1  0
  8  7  1  0
  9 20  2  0
 10 15  1  0
 11 19  1  0
 11 21  1  0
 12 18  1  0
 12 14  1  0
 13 19  1  0
 14 13  1  0
 15 14  2  0
 16 17  1  0
 16 10  2  0
 17 12  2  0
 18 11  1  0
 19  9  1  0
 21 23  2  0
 22 21  1  0
 24 22  1  0
 25 30  1  0
 26 22  1  0
 27 26  1  0
 28 29  1  0
 28 27  1  0
 29 25  1  0
 30 26  1  0
 30 31  2  0
 32 31  1  0
 33 32  2  0
 34 25  2  0
 34 33  1  0
 35  9  1  0
 35 40  1  0
 35 36  1  0
 36 39  1  1
 36 37  1  0
 38 36  1  0
 40 43  1  0
 41 45  1  0
 41 40  1  0
 42 41  2  0
 45 44  1  0
 47 45  1  0
 47 48  1  0
 47 46  1  0
 50 49  1  0
 51 50  1  0
 52 50  1  0
 53 50  1  0
 54 53  1  0
 55 54  1  0
 56 57  1  0
 56 55  1  0
 58 64  1  0
 58 66  1  0
 59 64  1  0
 60 61  1  0
 60 59  1  0
 62 61  1  0
 62 71  1  0
 62 63  1  0
 64 63  1  0
 65 58  2  0
 66 57  1  0
 66 67  1  0
 68 93  1  0
 68 69  2  0
 69 88  1  0
 70 73  1  0
 70 69  1  0
 71 72  1  0
 71 68  1  0
 72 70  2  0
 73 74  1  0
 74 75  2  0
 76 79  1  0
 76 75  1  0
 77 76  2  0
 78 77  1  0
 78 73  2  0
 79 80  1  0
 80 85  2  0
 80 81  1  0
 81 82  2  0
 82 83  1  0
 83 87  1  0
 84 83  2  0
 85 84  1  0
 86 85  1  0
 88 89  1  0
 89 91  1  0
 89 92  1  0
 90 88  2  0
 93 94  1  0
 95 93  1  0
M  ISO  4   7 101   8 101  58 100  66 100
M  END
>  <TORSDO>  (55) 
F 27

>  <SCORE>  (55) 
-5.981

>  <name>  (55) 
54

>  <ligand_id>  (55) 
54

>  <original_smiles>  (55) 
[H]c1c([H])c([H])c2c(c1[H])C([H])([H])C([H])([H])C([H])([H])C2([H])N([H])C(=O)C1([H])N(C(=O)C([H])(N([H])C(=O)C([H])(N([H])C([H])([H])[H])C([H])([H])[H])C(C([H])([H])[H])(C([H])([H])[H])C([H])([H])[H])C([H])([H])c2c([H])c(OC([H])([H])C([H])([H])C([H])([H])N([H])C([H])(C([H])([H])[H])C([H])([H])[N+]([H])([H])C([H])([H])C([H])([H])C([H])([H])C([H])([H])C([H])([H])N([H])C(=O)N3C([H])([H])C([H])([H])C([H])([H])C([H])(n4nc(-c5c([H])c([H])c(Oc6c([H])c([H])c(F)c([H])c6F)c([H])c5[H])c(C(=O)N([H])[H])c4N([H])[H])C3([H])[H])c([H])c([H])c2C1([H])[H]

>  <smiles>  (55) 
[H]c1c([H])c([H])c2c(c1[H])C([H])([H])C([H])([H])C([H])([H])C2([H])N([H])C(=O)C1([H])N(C(=O)C([H])(N([H])C(=O)C([H])(N([H])C([H])([H])[H])C([H])([H])[H])C(C([H])([H])[H])(C([H])([H])[H])C([H])([H])[H])C([H])([H])c2c([H])c(OC([H])([H])C([H])([H])C([H])([H])N([H])C([H])(C([H])([H])[H])C([H])([H])[N+]([H])([H])C([H])([H])C([H])([H])C([H])([H])C([H])([H])C([H])([H])N([H])C(=O)N3C([H])([H])C([H])([H])C([H])([H])C([H])(n4nc(-c5c([H])c([H])c(Oc6c([H])c([H])c(F)c([H])c6F)c([H])c5[H])c(C(=O)N([H])[H])c4N([H])[H])C3([H])[H])c([H])c([H])c2C1([H])[H]

$$$$
55:0:0
     RDKit          3D

 94102  0  0  1  0  0  0  0  0999 V2000
  -26.8080  -21.8740   17.5350 C   0  0  0  0  0  3  0  0  0  0  0  0
  -29.2300  -21.5860   17.5780 C   0  0  0  0  0  3  0  0  0  0  0  0
  -26.9760  -23.2670   17.4270 C   0  0  0  0  0  3  0  0  0  0  0  0
  -29.3970  -22.9800   17.4640 C   0  0  0  0  0  3  0  0  0  0  0  0
  -27.9350  -21.0290   17.6350 C   0  0  0  0  0  0  0  0  0  0  0  0
  -28.2700  -23.8270   17.4120 C   0  0  0  0  0  0  0  0  0  0  0  0
  -27.7520  -19.5320   17.8120 C   0  0  0  0  0  2  0  0  0  0  0  0
  -27.6450  -19.1410   19.2890 C   0  0  0  0  0  0  0  0  0  0  0  0
  -26.5650  -19.1670   19.8850 O   0  0  0  0  0  0  0  0  0  0  0  0
  -28.9220  -18.6980   20.0030 C   0  0  0  0  0  2  0  0  0  0  0  0
  -28.8530  -17.2120   20.3850 C   0  0  0  0  0  2  0  0  0  0  0  0
  -30.1720  -16.6620   20.9550 C   0  0  0  0  0  2  0  0  0  0  0  0
  -30.7340  -14.2640   20.5800 C   0  0  0  0  0  0  0  0  0  0  0  0
  -30.3750  -12.1920   19.3070 C   0  0  0  0  0  2  0  0  0  0  0  0
  -29.4150  -12.5260   18.1460 C   0  0  0  0  0  2  0  0  0  0  0  0
  -27.9410  -12.4180   18.5890 C   0  0  0  0  0  2  0  0  0  0  0  0
  -27.6600  -13.1460   19.9280 C   0  0  0  0  0  3  0  0  0  0  0  0
  -28.7320  -12.7940   20.9870 C   0  0  0  0  0  2  0  0  0  0  0  0
  -30.0580  -13.0990   20.4170 N   0  0  0  0  0  0  0  0  0  0  0  0
  -31.8330  -14.5020   20.0710 O   0  0  0  0  0  0  0  0  0  0  0  0
  -30.0210  -15.2270   21.1780 N   0  0  0  0  0  0  0  0  0  0  0  0
  -29.1580  -14.9300   21.6050 H   0  0  0  0  0  0  0  0  0  0  0  0
  -25.2670  -13.7460   20.6720 C   0  0  0  0  0  0  0  0  0  0  0  0
  -24.1990  -12.9690   21.0300 C   0  0  0  0  0  0  0  0  0  0  0  0
  -24.6520  -11.6170   20.9520 C   0  0  0  0  0  0  0  0  0  0  0  0
  -26.3070  -12.8660   20.4070 N   0  0  0  0  0  0  0  0  0  0  0  0
  -25.9390  -11.5790   20.6290 N   0  0  0  0  0  0  0  0  0  0  0  0
  -23.9200  -10.3530   21.1120 C   0  0  0  0  0  0  0  0  0  0  0  0
  -24.3390   -9.3690   22.0360 C   0  0  0  0  0  3  0  0  0  0  0  0
  -23.6080   -8.1700   22.1850 C   0  0  0  0  0  3  0  0  0  0  0  0
  -22.4430   -7.9490   21.4120 C   0  0  0  0  0  0  0  0  0  0  0  0
  -22.0460   -8.9220   20.4770 C   0  0  0  0  0  3  0  0  0  0  0  0
  -22.7780  -10.1110   20.3250 C   0  0  0  0  0  3  0  0  0  0  0  0
  -21.6850   -6.8050   21.4700 O   0  0  0  0  0  0  0  0  0  0  0  0
  -21.6060   -6.0540   22.6150 C   0  0  0  0  0  0  0  0  0  0  0  0
  -21.0820   -6.5810   23.8170 C   0  0  0  0  0  3  0  0  0  0  0  0
  -20.9510   -5.7540   24.9510 C   0  0  0  0  0  3  0  0  0  0  0  0
  -21.3400   -4.4010   24.8830 C   0  0  0  0  0  0  0  0  0  0  0  0
  -21.8580   -3.8750   23.6880 C   0  0  0  0  0  3  0  0  0  0  0  0
  -21.9890   -4.6990   22.5570 C   0  0  0  0  0  0  0  0  0  0  0  0
  -22.4700   -4.1820   21.4000 F   0  0  0  0  0  0  0  0  0  0  0  0
  -21.2100   -3.6030   25.9690 F   0  0  0  0  0  0  0  0  0  0  0  0
  -22.8090  -13.4450   21.3390 C   0  0  0  0  0  0  0  0  0  0  0  0
  -22.0970  -12.7260   22.2000 N   0  0  0  0  0  0  0  0  0  0  0  0
  -22.3650  -14.4870   20.8560 O   0  0  0  0  0  0  0  0  0  0  0  0
  -22.4750  -11.8840   22.6080 H   0  0  0  0  0  0  0  0  0  0  0  0
  -21.1660  -13.0190   22.4560 H   0  0  0  0  0  0  0  0  0  0  0  0
  -25.4410  -15.1200   20.5310 N   0  0  0  0  0  0  0  0  0  0  0  0
  -24.6850  -15.7800   20.6760 H   0  0  0  0  0  0  0  0  0  0  0  0
  -26.2950  -15.5580   20.2140 H   0  0  0  0  0  0  0  0  0  0  0  0
  -28.4360  -25.3380   17.3440 C   0  0  0  0  0  2  0  0  0  0  0  0
  -29.2880  -25.9410   18.4800 C   0  0  0  0  0  2  0  0  0  0  0  0
  -28.8500  -25.5630   19.9140 C   0  0  0  0  0  2  0  0  0  0  0  0
  -28.6100  -26.7230   20.7100 O   0  0  0  0  0  0  0  0  0  0  0  0
  -24.6370  -31.9710   23.3840 C   0  0  0  0  0  0  0  0  0  0  0  0
  -27.4020  -27.3840   20.6230 C   0  0  0  0  0  0  0  0  0  0  0  0
  -23.4900  -30.4800   21.7780 C   0  0  0  0  0  3  0  0  0  0  0  0
  -24.9910  -28.8660   20.4980 C   0  0  0  0  0  0  0  0  0  0  0  0
  -26.0220  -30.8220   21.6620 C   0  0  0  0  0  2  0  0  0  0  0  0
  -26.1250  -29.4220   21.1030 C   0  0  0  0  0  0  0  0  0  0  0  0
  -27.3250  -28.6840   21.1720 C   0  0  0  0  0  3  0  0  0  0  0  0
  -26.2440  -26.8340   20.0210 C   0  0  0  0  0  3  0  0  0  0  0  0
  -25.0450  -27.5680   19.9630 C   0  0  0  0  0  3  0  0  0  0  0  0
  -23.7490  -29.7230   20.4470 C   0  0  0  0  0  2  0  0  0  0  0  0
  -24.7330  -31.1100   22.3320 N   0  0  0  0  0  0  0  0  0  0  0  0
  -23.5380  -32.2760   23.8650 O   0  0  0  0  0  0  0  0  0  0  0  0
  -22.8020  -29.5150   22.7700 C   0  0  0  0  0  0  0  0  0  0  0  0
  -21.4910  -29.2950   22.5800 N   0  0  0  0  0  0  0  0  0  0  0  0
  -23.4500  -28.9640   23.6640 O   0  0  0  0  0  0  0  0  0  0  0  0
  -21.0350  -29.7930   21.8280 H   0  0  0  0  0  0  0  0  0  0  0  0
  -18.1110  -28.0840   22.9750 C   0  0  0  0  0  0  0  0  0  0  0  0
  -20.6460  -28.3950   23.3630 C   0  0  0  0  0  3  0  0  0  0  0  0
  -20.7960  -26.9310   22.8850 C   0  0  0  0  0  2  0  0  0  0  0  0
  -19.7520  -26.5310   21.8370 C   0  0  0  0  0  2  0  0  0  0  0  0
  -18.3370  -26.6960   22.3980 C   0  0  0  0  0  2  0  0  0  0  0  0
  -19.1960  -28.8880   23.4130 C   0  0  0  0  0  0  0  0  0  0  0  0
  -18.9350  -30.1830   23.9070 C   0  0  0  0  0  3  0  0  0  0  0  0
  -17.6180  -30.6760   23.9720 C   0  0  0  0  0  3  0  0  0  0  0  0
  -16.5450  -29.8720   23.5500 C   0  0  0  0  0  3  0  0  0  0  0  0
  -16.7920  -28.5790   23.0570 C   0  0  0  0  0  3  0  0  0  0  0  0
  -25.9030  -32.6320   24.0150 C   0  0  0  0  0  3  0  0  0  0  0  0
  -25.5770  -34.0370   24.2820 N   0  0  0  0  0  0  0  0  0  0  0  0
  -25.9220  -35.0640   23.4930 C   0  0  0  0  0  0  0  0  0  0  0  0
  -26.6230  -34.9270   22.4850 O   0  0  0  0  0  0  0  0  0  0  0  0
  -24.9590  -34.2170   25.0590 H   0  0  0  0  0  0  0  0  0  0  0  0
  -24.1970  -36.8290   23.0170 C   0  0  0  0  0  1  0  0  0  0  0  0
  -25.4120  -36.4620   23.8840 C   0  0  0  0  0  3  0  0  0  0  0  0
  -27.5050  -37.3950   24.7670 C   0  0  0  0  0  1  0  0  0  0  0  0
  -26.4410  -37.5180   23.7720 N   0  0  0  0  0  0  0  0  0  0  0  0
  -26.0240  -38.4410   23.8670 H   0  0  0  0  0  0  0  0  0  0  0  0
  -26.3960  -31.9100   25.3300 C   0  0  1  0  0  0  0  0  0  0  0  0
  -25.2690  -31.6520   26.3570 C   0  0  0  0  0  1  0  0  0  0  0  0
  -27.0500  -30.5490   24.9980 C   0  0  0  0  0  1  0  0  0  0  0  0
  -27.4800  -32.7690   26.0230 C   0  0  0  0  0  1  0  0  0  0  0  0
  1  5  1  0
  2  5  2  0
  3  1  2  0
  4  2  1  0
  5  7  1  0
  6  3  1  0
  6  4  2  0
  7  8  1  0
  8  9  2  0
  8 10  1  0
 10 11  1  0
 11 12  1  0
 12 21  1  0
 13 21  1  0
 14 19  1  0
 15 16  1  0
 15 14  1  0
 17 16  1  0
 17 26  1  0
 17 18  1  0
 19 13  1  0
 19 18  1  0
 20 13  2  0
 21 22  1  0
 23 24  2  0
 24 43  1  0
 25 24  1  0
 25 28  1  0
 26 27  1  0
 26 23  1  0
 27 25  2  0
 28 29  1  0
 29 30  2  0
 31 34  1  0
 31 30  1  0
 32 31  2  0
 33 32  1  0
 33 28  2  0
 34 35  1  0
 35 36  1  0
 36 37  2  0
 38 37  1  0
 38 42  1  0
 39 38  2  0
 40 35  2  0
 40 39  1  0
 41 40  1  0
 43 44  1  0
 44 47  1  0
 44 46  1  0
 45 43  2  0
 48 23  1  0
 48 49  1  0
 50 48  1  0
 51  6  1  0
 51 52  1  0
 52 53  1  0
 53 54  1  0
 55 66  2  0
 56 54  1  0
 56 61  1  0
 57 65  1  0
 57 67  1  0
 58 60  1  0
 59 65  1  0
 60 61  2  0
 60 59  1  0
 62 56  2  0
 63 62  1  0
 63 58  2  0
 64 58  1  0
 64 57  1  0
 65 55  1  0
 67 69  2  0
 68 67  1  0
 70 68  1  0
 71 80  2  0
 71 76  1  0
 72 68  1  0
 72 76  1  0
 73 72  1  0
 74 75  1  0
 74 73  1  0
 75 71  1  0
 76 77  2  0
 77 78  1  0
 79 78  2  0
 80 79  1  0
 81 55  1  0
 81 82  1  0
 81 91  1  0
 82 85  1  0
 83 87  1  0
 83 82  1  0
 84 83  2  0
 87 86  1  0
 89 90  1  0
 89 87  1  0
 89 88  1  0
 91 94  1  1
 91 92  1  0
 93 91  1  0
M  ISO  4  13 100  21 100  53 101  54 101
M  END
>  <TORSDO>  (56) 
F 24

>  <SCORE>  (56) 
-11.645

>  <name>  (56) 
55

>  <ligand_id>  (56) 
55

>  <original_smiles>  (56) 
[H]c1c([H])c([H])c2c(c1[H])C([H])([H])C([H])([H])C([H])([H])C2([H])N([H])C(=O)C1([H])N(C(=O)C([H])(N([H])C(=O)C([H])(N([H])C([H])([H])[H])C([H])([H])[H])C(C([H])([H])[H])(C([H])([H])[H])C([H])([H])[H])C([H])([H])c2c([H])c(OC([H])([H])C([H])([H])C([H])([H])c3c([H])c([H])c(C([H])([H])C(=O)C([H])([H])C([H])([H])C([H])([H])N([H])C(=O)N4C([H])([H])C([H])([H])C([H])([H])C([H])(n5nc(-c6c([H])c([H])c(Oc7c([H])c([H])c(F)c([H])c7F)c([H])c6[H])c(C(=O)N([H])[H])c5N([H])[H])C4([H])[H])c([H])c3[H])c([H])c([H])c2C1([H])[H]

>  <smiles>  (56) 
[H]c1c([H])c([H])c2c(c1[H])C([H])([H])C([H])([H])C([H])([H])C2([H])N([H])C(=O)C1([H])N(C(=O)C([H])(N([H])C(=O)C([H])(N([H])C([H])([H])[H])C([H])([H])[H])C(C([H])([H])[H])(C([H])([H])[H])C([H])([H])[H])C([H])([H])c2c([H])c(OC([H])([H])C([H])([H])C([H])([H])c3c([H])c([H])c(C([H])([H])C(=O)C([H])([H])C([H])([H])C([H])([H])N([H])C(=O)N4C([H])([H])C([H])([H])C([H])([H])C([H])(n5nc(-c6c([H])c([H])c(Oc7c([H])c([H])c(F)c([H])c7F)c([H])c6[H])c(C(=O)N([H])[H])c5N([H])[H])C4([H])[H])c([H])c3[H])c([H])c([H])c2C1([H])[H]

$$$$
56:0:0
     RDKit          3D

 92 99  0  0  1  0  0  0  0  0999 V2000
  -28.0440  -21.6580   21.6850 C   0  0  0  0  0  0  0  0  0  0  0  0
  -28.0240  -20.7140   20.7340 N   0  0  0  0  0  0  0  0  0  0  0  0
  -29.0700  -21.9400   22.3080 O   0  0  0  0  0  0  0  0  0  0  0  0
  -27.1420  -20.5320   20.2660 H   0  0  0  0  0  0  0  0  0  0  0  0
  -26.7260  -22.3620   22.0260 C   0  0  0  0  0  2  0  0  0  0  0  0
  -26.4270  -23.6590   21.2330 C   0  0  0  0  0  2  0  0  0  0  0  0
  -27.2840  -24.9050   21.5550 C   0  0  0  0  0  2  0  0  0  0  0  0
  -28.5800  -25.0380   20.7320 C   0  0  0  0  0  2  0  0  0  0  0  0
  -29.2120  -26.4480   20.7700 C   0  0  0  0  0  2  0  0  0  0  0  0
  -28.7850  -27.2370   19.6630 O   0  0  0  0  0  0  0  0  0  0  0  0
  -24.6790  -31.8360   23.2470 C   0  0  0  0  0  0  0  0  0  0  0  0
  -27.5790  -27.8730   19.8030 C   0  0  0  0  0  0  0  0  0  0  0  0
  -23.5570  -30.5190   21.4750 C   0  0  0  0  0  3  0  0  0  0  0  0
  -25.0980  -29.1990   19.9320 C   0  0  0  0  0  0  0  0  0  0  0  0
  -26.0500  -31.0480   21.3220 C   0  0  0  0  0  2  0  0  0  0  0  0
  -26.2180  -29.7410   20.5780 C   0  0  0  0  0  0  0  0  0  0  0  0
  -27.4630  -29.0810   20.5230 C   0  0  0  0  0  3  0  0  0  0  0  0
  -26.4520  -27.3390   19.1490 C   0  0  0  0  0  3  0  0  0  0  0  0
  -25.2070  -27.9920   19.2180 C   0  0  0  0  0  3  0  0  0  0  0  0
  -23.8060  -29.9740   20.0440 C   0  0  0  0  0  2  0  0  0  0  0  0
  -24.7790  -31.1470   22.0750 N   0  0  0  0  0  0  0  0  0  0  0  0
  -23.5840  -31.9940   23.8050 O   0  0  0  0  0  0  0  0  0  0  0  0
  -22.9670  -29.3820   22.3400 C   0  0  0  0  0  0  0  0  0  0  0  0
  -21.6540  -29.1370   22.1890 N   0  0  0  0  0  0  0  0  0  0  0  0
  -23.6850  -28.7260   23.0990 O   0  0  0  0  0  0  0  0  0  0  0  0
  -21.1330  -29.7210   21.5490 H   0  0  0  0  0  0  0  0  0  0  0  0
  -18.3550  -27.7130   22.5640 C   0  0  0  0  0  0  0  0  0  0  0  0
  -20.8950  -28.0870   22.8660 C   0  0  0  0  0  3  0  0  0  0  0  0
  -21.0750  -26.7220   22.1610 C   0  0  0  0  0  2  0  0  0  0  0  0
  -19.9890  -26.4370   21.1160 C   0  0  0  0  0  2  0  0  0  0  0  0
  -18.6030  -26.4440   21.7660 C   0  0  0  0  0  2  0  0  0  0  0  0
  -19.4300  -28.4920   23.0660 C   0  0  0  0  0  0  0  0  0  0  0  0
  -19.1450  -29.6830   23.7690 C   0  0  0  0  0  3  0  0  0  0  0  0
  -17.8160  -30.0990   23.9720 C   0  0  0  0  0  3  0  0  0  0  0  0
  -16.7540  -29.3170   23.4870 C   0  0  0  0  0  3  0  0  0  0  0  0
  -17.0240  -28.1250   22.7920 C   0  0  0  0  0  3  0  0  0  0  0  0
  -25.9270  -32.4790   23.9270 C   0  0  0  0  0  3  0  0  0  0  0  0
  -26.4380  -31.6710   25.1820 C   0  0  1  0  0  0  0  0  0  0  0  0
  -25.3270  -31.3480   26.2070 C   0  0  0  0  0  1  0  0  0  0  0  0
  -27.0800  -30.3330   24.7430 C   0  0  0  0  0  1  0  0  0  0  0  0
  -27.5440  -32.4720   25.9080 C   0  0  0  0  0  1  0  0  0  0  0  0
  -25.5680  -33.8540   24.3010 N   0  0  0  0  0  0  0  0  0  0  0  0
  -25.8870  -34.9420   23.5870 C   0  0  0  0  0  0  0  0  0  0  0  0
  -26.5840  -34.8960   22.5700 O   0  0  0  0  0  0  0  0  0  0  0  0
  -24.9460  -33.9600   25.0880 H   0  0  0  0  0  0  0  0  0  0  0  0
  -24.1040  -36.6840   23.2560 C   0  0  0  0  0  1  0  0  0  0  0  0
  -25.3430  -36.2970   24.0790 C   0  0  0  0  0  3  0  0  0  0  0  0
  -27.4310  -37.2260   24.9760 C   0  0  0  0  0  1  0  0  0  0  0  0
  -26.3420  -37.3870   24.0160 N   0  0  0  0  0  0  0  0  0  0  0  0
  -25.9000  -38.2890   24.1820 H   0  0  0  0  0  0  0  0  0  0  0  0
  -29.1970  -19.9790   20.2670 C   0  0  0  0  0  2  0  0  0  0  0  0
  -29.5260  -18.7620   21.1590 C   0  0  0  0  0  2  0  0  0  0  0  0
  -30.8840  -18.1380   20.7850 C   0  0  0  0  0  2  0  0  0  0  0  0
  -31.3100  -16.9360   21.6510 C   0  0  0  0  0  2  0  0  0  0  0  0
  -31.1990  -14.7640   20.4140 C   0  0  0  0  0  0  0  0  0  0  0  0
  -30.8500  -12.6000   19.2760 C   0  0  0  0  0  2  0  0  0  0  0  0
  -29.9250  -12.7670   18.0560 C   0  0  0  0  0  2  0  0  0  0  0  0
  -28.4480  -12.6480   18.4730 C   0  0  0  0  0  2  0  0  0  0  0  0
  -28.1040  -13.5520   19.6860 C   0  0  0  0  0  3  0  0  0  0  0  0
  -29.1360  -13.3680   20.8180 C   0  0  0  0  0  2  0  0  0  0  0  0
  -30.4790  -13.6210   20.2690 N   0  0  0  0  0  0  0  0  0  0  0  0
  -32.2650  -14.9690   19.8270 O   0  0  0  0  0  0  0  0  0  0  0  0
  -30.6720  -15.6780   21.2440 N   0  0  0  0  0  0  0  0  0  0  0  0
  -29.7820  -15.4520   21.6640 H   0  0  0  0  0  0  0  0  0  0  0  0
  -25.7330  -14.2310   20.4210 C   0  0  0  0  0  0  0  0  0  0  0  0
  -24.6350  -13.4910   20.7660 C   0  0  0  0  0  0  0  0  0  0  0  0
  -25.0400  -12.1230   20.6880 C   0  0  0  0  0  0  0  0  0  0  0  0
  -26.7410  -13.3170   20.1570 N   0  0  0  0  0  0  0  0  0  0  0  0
  -26.3270  -12.0430   20.3730 N   0  0  0  0  0  0  0  0  0  0  0  0
  -24.2640  -10.8840   20.8360 C   0  0  0  0  0  0  0  0  0  0  0  0
  -24.6330   -9.8890   21.7670 C   0  0  0  0  0  3  0  0  0  0  0  0
  -23.8600   -8.7150   21.9050 C   0  0  0  0  0  3  0  0  0  0  0  0
  -22.7030   -8.5300   21.1090 C   0  0  0  0  0  0  0  0  0  0  0  0
  -22.3540   -9.5140   20.1680 C   0  0  0  0  0  3  0  0  0  0  0  0
  -23.1270  -10.6780   20.0280 C   0  0  0  0  0  3  0  0  0  0  0  0
  -21.9080   -7.4120   21.1570 O   0  0  0  0  0  0  0  0  0  0  0  0
  -21.7560   -6.6840   22.3110 C   0  0  0  0  0  0  0  0  0  0  0  0
  -21.2630   -7.2650   23.4980 C   0  0  0  0  0  3  0  0  0  0  0  0
  -21.0560   -6.4650   24.6410 C   0  0  0  0  0  3  0  0  0  0  0  0
  -21.3320   -5.0870   24.5950 C   0  0  0  0  0  0  0  0  0  0  0  0
  -21.8190   -4.5040   23.4100 C   0  0  0  0  0  3  0  0  0  0  0  0
  -22.0260   -5.3000   22.2710 C   0  0  0  0  0  0  0  0  0  0  0  0
  -22.4760   -4.7320   21.1260 F   0  0  0  0  0  0  0  0  0  0  0  0
  -21.1270   -4.3150   25.6880 F   0  0  0  0  0  0  0  0  0  0  0  0
  -23.2580  -14.0130   21.0600 C   0  0  0  0  0  0  0  0  0  0  0  0
  -22.5100  -13.3200   21.9100 N   0  0  0  0  0  0  0  0  0  0  0  0
  -22.8580  -15.0690   20.5730 O   0  0  0  0  0  0  0  0  0  0  0  0
  -22.8470  -12.4640   22.3280 H   0  0  0  0  0  0  0  0  0  0  0  0
  -21.5830  -13.6460   22.1500 H   0  0  0  0  0  0  0  0  0  0  0  0
  -25.9540  -15.6000   20.2910 N   0  0  0  0  0  0  0  0  0  0  0  0
  -25.2140  -16.2810   20.4200 H   0  0  0  0  0  0  0  0  0  0  0  0
  -26.8290  -16.0130   19.9980 H   0  0  0  0  0  0  0  0  0  0  0  0
  1  5  1  0
  1  3  2  0
  2  1  1  0
  4  2  1  0
  6  7  1  0
  6  5  1  0
  8  9  1  0
  8  7  1  0
 10 12  1  0
 10  9  1  0
 11 22  2  0
 12 17  1  0
 13 21  1  0
 13 23  1  0
 14 20  1  0
 14 16  1  0
 15 21  1  0
 16 15  1  0
 17 16  2  0
 18 19  1  0
 18 12  2  0
 19 14  2  0
 20 13  1  0
 21 11  1  0
 23 25  2  0
 24 23  1  0
 26 24  1  0
 27 36  2  0
 27 32  1  0
 28 24  1  0
 28 32  1  0
 29 28  1  0
 30 31  1  0
 30 29  1  0
 31 27  1  0
 32 33  2  0
 33 34  1  0
 35 34  2  0
 36 35  1  0
 37 11  1  0
 37 42  1  0
 37 38  1  0
 38 41  1  1
 38 39  1  0
 40 38  1  0
 42 45  1  0
 43 47  1  0
 43 42  1  0
 44 43  2  0
 47 46  1  0
 49 47  1  0
 49 50  1  0
 49 48  1  0
 51  2  1  0
 51 52  1  0
 53 52  1  0
 53 54  1  0
 55 63  1  0
 56 61  1  0
 57 58  1  0
 57 56  1  0
 59 58  1  0
 59 68  1  0
 59 60  1  0
 61 55  1  0
 61 60  1  0
 62 55  2  0
 63 54  1  0
 63 64  1  0
 65 66  2  0
 66 85  1  0
 67 66  1  0
 67 70  1  0
 68 69  1  0
 68 65  1  0
 69 67  2  0
 70 71  1  0
 71 72  2  0
 73 76  1  0
 73 72  1  0
 74 73  2  0
 75 74  1  0
 75 70  2  0
 76 77  1  0
 77 78  1  0
 78 79  2  0
 80 79  1  0
 80 84  1  0
 81 80  2  0
 82 77  2  0
 82 81  1  0
 83 82  1  0
 85 86  1  0
 86 89  1  0
 86 88  1  0
 87 85  2  0
 90 91  1  0
 90 65  1  0
 92 90  1  0
M  ISO  4   9 101  10 101  55 100  63 100
M  END
>  <TORSDO>  (57) 
F 25

>  <SCORE>  (57) 
-10.457

>  <name>  (57) 
56

>  <ligand_id>  (57) 
56

>  <original_smiles>  (57) 
[H]c1c([H])c([H])c2c(c1[H])C([H])([H])C([H])([H])C([H])([H])C2([H])N([H])C(=O)C1([H])N(C(=O)C([H])(N([H])C(=O)C([H])(N([H])C([H])([H])[H])C([H])([H])[H])C(C([H])([H])[H])(C([H])([H])[H])C([H])([H])[H])C([H])([H])c2c([H])c(OC([H])([H])C([H])([H])C([H])([H])C([H])([H])C([H])([H])C(=O)N([H])C([H])([H])C([H])([H])C([H])([H])C([H])([H])N([H])C(=O)N3C([H])([H])C([H])([H])C([H])([H])C([H])(n4nc(-c5c([H])c([H])c(Oc6c([H])c([H])c(F)c([H])c6F)c([H])c5[H])c(C(=O)N([H])[H])c4N([H])[H])C3([H])[H])c([H])c([H])c2C1([H])[H]

>  <smiles>  (57) 
[H]c1c([H])c([H])c2c(c1[H])C([H])([H])C([H])([H])C([H])([H])C2([H])N([H])C(=O)C1([H])N(C(=O)C([H])(N([H])C(=O)C([H])(N([H])C([H])([H])[H])C([H])([H])[H])C(C([H])([H])[H])(C([H])([H])[H])C([H])([H])[H])C([H])([H])c2c([H])c(OC([H])([H])C([H])([H])C([H])([H])C([H])([H])C([H])([H])C(=O)N([H])C([H])([H])C([H])([H])C([H])([H])C([H])([H])N([H])C(=O)N3C([H])([H])C([H])([H])C([H])([H])C([H])(n4nc(-c5c([H])c([H])c(Oc6c([H])c([H])c(F)c([H])c6F)c([H])c5[H])c(C(=O)N([H])[H])c4N([H])[H])C3([H])[H])c([H])c([H])c2C1([H])[H]

$$$$
57:0:0
     RDKit          3D

 96104  0  0  1  0  0  0  0  0999 V2000
  -29.1600  -24.9230   20.6300 C   0  0  0  0  0  3  0  0  0  0  0  0
  -27.1320  -25.7670   19.5500 C   0  0  0  0  0  3  0  0  0  0  0  0
  -28.9580  -23.6680   20.0360 C   0  0  0  0  0  3  0  0  0  0  0  0
  -26.9500  -24.5190   18.9240 C   0  0  0  0  0  3  0  0  0  0  0  0
  -28.2310  -25.9620   20.4140 C   0  0  0  0  0  0  0  0  0  0  0  0
  -27.8520  -23.4660   19.1790 C   0  0  0  0  0  0  0  0  0  0  0  0
  -28.4040  -27.2360   21.1650 C   0  0  0  0  0  0  0  0  0  0  0  0
  -27.6030  -28.2200   20.7530 N   0  0  0  0  0  0  0  0  0  0  0  0
  -29.1020  -27.2950   22.1790 O   0  0  0  0  0  0  0  0  0  0  0  0
  -27.0720  -28.0550   19.9080 H   0  0  0  0  0  0  0  0  0  0  0  0
  -27.1820  -29.3260   21.6030 C   0  0  0  0  0  2  0  0  0  0  0  0
  -26.0080  -30.0960   20.9520 C   0  0  0  0  0  2  0  0  0  0  0  0
  -24.6270  -29.4010   21.0550 C   0  0  0  0  0  2  0  0  0  0  0  0
  -23.4980  -30.4220   21.2480 C   0  0  0  0  0  2  0  0  0  0  0  0
  -23.0140  -30.7100   22.6800 C   0  0  0  0  0  2  0  0  0  0  0  0
  -23.8830  -29.2660   24.5780 C   0  0  0  0  0  0  0  0  0  0  0  0
  -25.2010  -28.4100   26.4880 C   0  0  0  0  0  2  0  0  0  0  0  0
  -25.0470  -29.3110   27.7250 C   0  0  0  0  0  2  0  0  0  0  0  0
  -26.0240  -30.5040   27.6810 C   0  0  0  0  0  2  0  0  0  0  0  0
  -25.9780  -31.2540   26.3250 C   0  0  0  0  0  3  0  0  0  0  0  0
  -26.1270  -30.2350   25.1760 C   0  0  0  0  0  2  0  0  0  0  0  0
  -25.0370  -29.2380   25.2900 N   0  0  0  0  0  0  0  0  0  0  0  0
  -22.8600  -28.6310   24.8610 O   0  0  0  0  0  0  0  0  0  0  0  0
  -23.9980  -30.0430   23.5070 N   0  0  0  0  0  0  0  0  0  0  0  0
  -24.9380  -30.3830   23.3820 H   0  0  0  0  0  0  0  0  0  0  0  0
  -27.0220  -33.4650   25.5050 C   0  0  0  0  0  0  0  0  0  0  0  0
  -28.1740  -34.1170   25.8570 C   0  0  0  0  0  0  0  0  0  0  0  0
  -28.8100  -33.2930   26.8360 C   0  0  0  0  0  0  0  0  0  0  0  0
  -27.0010  -32.2980   26.2540 N   0  0  0  0  0  0  0  0  0  0  0  0
  -28.1140  -32.1790   27.0220 N   0  0  0  0  0  0  0  0  0  0  0  0
  -30.0080  -33.5280   27.6500 C   0  0  0  0  0  0  0  0  0  0  0  0
  -31.2320  -32.8910   27.3540 C   0  0  0  0  0  3  0  0  0  0  0  0
  -32.3770  -33.1390   28.1410 C   0  0  0  0  0  3  0  0  0  0  0  0
  -32.3050  -34.0340   29.2340 C   0  0  0  0  0  0  0  0  0  0  0  0
  -31.0780  -34.6490   29.5380 C   0  0  0  0  0  3  0  0  0  0  0  0
  -29.9400  -34.3970   28.7570 C   0  0  0  0  0  3  0  0  0  0  0  0
  -33.3580  -34.3140   30.0710 O   0  0  0  0  0  0  0  0  0  0  0  0
  -34.5880  -34.6760   29.5830 C   0  0  0  0  0  0  0  0  0  0  0  0
  -34.7800  -35.8740   28.8600 C   0  0  0  0  0  3  0  0  0  0  0  0
  -36.0730  -36.2420   28.4390 C   0  0  0  0  0  3  0  0  0  0  0  0
  -37.1740  -35.4200   28.7450 C   0  0  0  0  0  0  0  0  0  0  0  0
  -36.9860  -34.2320   29.4720 C   0  0  0  0  0  3  0  0  0  0  0  0
  -35.6960  -33.8610   29.8910 C   0  0  0  0  0  0  0  0  0  0  0  0
  -35.5220  -32.7250   30.6080 F   0  0  0  0  0  0  0  0  0  0  0  0
  -38.4190  -35.7770   28.3490 F   0  0  0  0  0  0  0  0  0  0  0  0
  -28.6170  -35.4720   25.3850 C   0  0  0  0  0  0  0  0  0  0  0  0
  -29.8580  -35.5870   24.9260 N   0  0  0  0  0  0  0  0  0  0  0  0
  -27.8460  -36.4300   25.3690 O   0  0  0  0  0  0  0  0  0  0  0  0
  -30.4860  -34.7970   24.9190 H   0  0  0  0  0  0  0  0  0  0  0  0
  -30.1830  -36.4770   24.5760 H   0  0  0  0  0  0  0  0  0  0  0  0
  -25.9840  -33.7680   24.6280 N   0  0  0  0  0  0  0  0  0  0  0  0
  -25.9490  -34.6410   24.1130 H   0  0  0  0  0  0  0  0  0  0  0  0
  -25.1590  -33.1950   24.5050 H   0  0  0  0  0  0  0  0  0  0  0  0
  -27.6320  -22.1270   18.5110 C   0  0  0  0  0  2  0  0  0  0  0  0
  -28.8700  -21.2340   18.5910 C   0  0  0  0  0  2  0  0  0  0  0  0
  -29.6250  -21.3560   17.3940 O   0  0  0  0  0  0  0  0  0  0  0  0
  -34.6230  -16.5290   18.7180 C   0  0  0  0  0  0  0  0  0  0  0  0
  -30.9560  -21.1330   17.6030 C   0  0  0  0  0  0  0  0  0  0  0  0
  -35.3180  -18.8880   18.9880 C   0  0  0  0  0  3  0  0  0  0  0  0
  -33.6810  -20.6310   18.0930 C   0  0  0  0  0  0  0  0  0  0  0  0
  -33.4610  -18.2520   17.3460 C   0  0  0  0  0  2  0  0  0  0  0  0
  -32.8560  -19.6120   17.5990 C   0  0  0  0  0  0  0  0  0  0  0  0
  -31.4920  -19.8590   17.3460 C   0  0  0  0  0  3  0  0  0  0  0  0
  -31.7810  -22.1550   18.1130 C   0  0  0  0  0  3  0  0  0  0  0  0
  -33.1460  -21.9100   18.3560 C   0  0  0  0  0  3  0  0  0  0  0  0
  -35.1330  -20.2790   18.3230 C   0  0  0  0  0  2  0  0  0  0  0  0
  -34.4440  -17.8350   18.3760 N   0  0  0  0  0  0  0  0  0  0  0  0
  -35.5300  -16.1910   19.4920 O   0  0  0  0  0  0  0  0  0  0  0  0
  -35.1130  -19.0470   20.5090 C   0  0  0  0  0  0  0  0  0  0  0  0
  -36.1860  -19.4270   21.2180 N   0  0  0  0  0  0  0  0  0  0  0  0
  -34.0050  -18.8620   21.0210 O   0  0  0  0  0  0  0  0  0  0  0  0
  -37.0580  -19.5480   20.7200 H   0  0  0  0  0  0  0  0  0  0  0  0
  -38.3390  -20.4100   23.9430 C   0  0  0  0  0  0  0  0  0  0  0  0
  -36.2220  -19.6780   22.6570 C   0  0  0  0  0  3  0  0  0  0  0  0
  -35.6540  -21.0760   22.9980 C   0  0  0  0  0  2  0  0  0  0  0  0
  -36.7310  -22.1640   23.0690 C   0  0  0  0  0  2  0  0  0  0  0  0
  -37.7830  -21.8110   24.1250 C   0  0  0  0  0  2  0  0  0  0  0  0
  -37.6140  -19.4120   23.2370 C   0  0  0  0  0  0  0  0  0  0  0  0
  -38.1950  -18.1380   23.0600 C   0  0  0  0  0  3  0  0  0  0  0  0
  -39.4710  -17.8490   23.5790 C   0  0  0  0  0  3  0  0  0  0  0  0
  -40.1730  -18.8310   24.2960 C   0  0  0  0  0  3  0  0  0  0  0  0
  -39.6070  -20.1040   24.4810 C   0  0  0  0  0  3  0  0  0  0  0  0
  -33.7210  -15.3940   18.1370 C   0  0  0  0  0  3  0  0  0  0  0  0
  -34.5980  -14.2800   17.7530 N   0  0  0  0  0  0  0  0  0  0  0  0
  -35.2550  -14.1940   16.5890 C   0  0  0  0  0  0  0  0  0  0  0  0
  -35.1220  -15.0210   15.6820 O   0  0  0  0  0  0  0  0  0  0  0  0
  -34.7890  -13.5900   18.4660 H   0  0  0  0  0  0  0  0  0  0  0  0
  -37.6300  -13.4130   16.7970 C   0  0  0  0  0  1  0  0  0  0  0  0
  -36.2060  -12.9990   16.4000 C   0  0  0  0  0  3  0  0  0  0  0  0
  -35.0440  -11.6370   14.7210 C   0  0  0  0  0  1  0  0  0  0  0  0
  -36.2100  -12.4650   15.0210 N   0  0  0  0  0  0  0  0  0  0  0  0
  -37.0450  -11.9110   14.8470 H   0  0  0  0  0  0  0  0  0  0  0  0
  -32.6070  -14.9050   19.1410 C   0  0  1  0  0  0  0  0  0  0  0  0
  -33.1110  -13.8740   20.1770 C   0  0  0  0  0  1  0  0  0  0  0  0
  -32.0170  -16.1020   19.9180 C   0  0  0  0  0  1  0  0  0  0  0  0
  -31.4340  -14.2680   18.3590 C   0  0  0  0  0  1  0  0  0  0  0  0
  2  5  2  0
  3  1  2  0
  4  6  2  0
  4  2  1  0
  5  1  1  0
  5  7  1  0
  6  3  1  0
  7  9  2  0
  8  7  1  0
  8 11  1  0
 10  8  1  0
 12 13  1  0
 12 11  1  0
 13 14  1  0
 14 15  1  0
 15 24  1  0
 16 23  2  0
 16 22  1  0
 17 18  1  0
 19 18  1  0
 20 21  1  0
 20 19  1  0
 21 22  1  0
 22 17  1  0
 24 16  1  0
 25 24  1  0
 26 27  2  0
 26 29  1  0
 27 28  1  0
 28 30  2  0
 28 31  1  0
 29 20  1  0
 29 30  1  0
 31 36  1  0
 32 31  2  0
 32 33  1  0
 33 34  2  0
 34 35  1  0
 34 37  1  0
 36 35  2  0
 38 43  1  0
 38 37  1  0
 39 38  2  0
 40 41  2  0
 40 39  1  0
 41 42  1  0
 42 43  2  0
 43 44  1  0
 45 41  1  0
 46 27  1  0
 47 46  1  0
 48 46  2  0
 49 47  1  0
 50 47  1  0
 51 26  1  0
 52 51  1  0
 53 51  1  0
 54 55  1  0
 54  6  1  0
 56 58  1  0
 56 55  1  0
 57 68  2  0
 58 64  1  0
 59 69  1  0
 60 66  1  0
 60 65  1  0
 61 62  1  0
 61 67  1  0
 62 60  2  0
 63 62  1  0
 63 58  2  0
 64 65  2  0
 66 59  1  0
 67 57  1  0
 67 59  1  0
 69 71  2  0
 69 70  1  0
 72 70  1  0
 73 77  1  0
 73 82  1  0
 74 70  1  0
 74 75  1  0
 74 78  1  0
 75 76  1  0
 76 77  1  0
 78 73  2  0
 79 78  1  0
 79 80  2  0
 80 81  1  0
 81 82  2  0
 83 57  1  0
 83 93  1  0
 84 83  1  0
 84 87  1  0
 85 84  1  0
 86 85  2  0
 89 85  1  0
 89 88  1  0
 90 91  1  0
 91 89  1  0
 92 91  1  0
 93 95  1  1
 93 94  1  0
 96 93  1  0
M  ISO  4  16 100  24 100  55 101  56 101
M  END
>  <TORSDO>  (58) 
F 24

>  <SCORE>  (58) 
-6.296

>  <name>  (58) 
57

>  <ligand_id>  (58) 
57

>  <original_smiles>  (58) 
[H]c1c([H])c([H])c2c(c1[H])C([H])([H])C([H])([H])C([H])([H])C2([H])N([H])C(=O)C1([H])N(C(=O)C([H])(N([H])C(=O)C([H])(N([H])C([H])([H])[H])C([H])([H])[H])C(C([H])([H])[H])(C([H])([H])[H])C([H])([H])[H])C([H])([H])c2c([H])c(OC([H])([H])C([H])([H])c3c([H])c([H])c(C(=O)N([H])C([H])([H])C([H])([H])C([H])([H])C([H])([H])C([H])([H])N([H])C(=O)N4C([H])([H])C([H])([H])C([H])([H])C([H])(n5nc(-c6c([H])c([H])c(Oc7c([H])c([H])c(F)c([H])c7F)c([H])c6[H])c(C(=O)N([H])[H])c5N([H])[H])C4([H])[H])c([H])c3[H])c([H])c([H])c2C1([H])[H]

>  <smiles>  (58) 
[H]c1c([H])c([H])c2c(c1[H])C([H])([H])C([H])([H])C([H])([H])C2([H])N([H])C(=O)C1([H])N(C(=O)C([H])(N([H])C(=O)C([H])(N([H])C([H])([H])[H])C([H])([H])[H])C(C([H])([H])[H])(C([H])([H])[H])C([H])([H])[H])C([H])([H])c2c([H])c(OC([H])([H])C([H])([H])c3c([H])c([H])c(C(=O)N([H])C([H])([H])C([H])([H])C([H])([H])C([H])([H])C([H])([H])N([H])C(=O)N4C([H])([H])C([H])([H])C([H])([H])C([H])(n5nc(-c6c([H])c([H])c(Oc7c([H])c([H])c(F)c([H])c7F)c([H])c6[H])c(C(=O)N([H])[H])c5N([H])[H])C4([H])[H])c([H])c3[H])c([H])c([H])c2C1([H])[H]

$$$$
58:0:0
     RDKit          3D

 97104  0  0  1  0  0  0  0  0999 V2000
  -25.0920  -17.3020   19.7460 C   0  0  0  0  0  0  0  0  0  0  0  0
  -24.5040  -17.7690   20.7280 O   0  0  0  0  0  0  0  0  0  0  0  0
  -24.6810  -15.6350   19.3690 C   0  0  0  0  0  2  0  0  0  0  0  0
  -24.4810  -13.1160   18.6790 C   0  0  0  0  0  1  0  0  0  0  0  0
  -25.0670  -13.9170   19.9240 C   0  0  0  0  0  3  0  0  0  0  0  0
  -26.4510  -14.4670   19.4640 N   0  0  0  0  0  4  0  0  0  0  0  0
  -26.3870  -15.4570   19.6150 H   0  0  0  0  0  0  0  0  0  0  0  0
  -27.0450  -14.1020   20.1940 H   0  0  0  0  0  0  0  0  0  0  0  0
  -27.3010  -14.2640   18.2700 C   0  0  0  0  0  2  0  0  0  0  0  0
  -28.8330  -14.6200   18.5700 C   0  0  0  0  0  2  0  0  0  0  0  0
  -29.4600  -14.8500   20.0310 C   0  0  0  0  0  2  0  0  0  0  0  0
  -30.9190  -13.1750   21.5450 C   0  0  0  0  0  0  0  0  0  0  0  0
  -30.7190  -11.0010   20.5180 C   0  0  0  0  0  2  0  0  0  0  0  0
  -29.8550  -11.2520   19.2710 C   0  0  0  0  0  2  0  0  0  0  0  0
  -28.4020  -11.2470   19.7010 C   0  0  0  0  0  2  0  0  0  0  0  0
  -28.1430  -12.0360   21.0330 C   0  0  0  0  0  3  0  0  0  0  0  0
  -29.0350  -11.6490   22.1520 C   0  0  0  0  0  2  0  0  0  0  0  0
  -30.3200  -11.9630   21.5490 N   0  0  0  0  0  0  0  0  0  0  0  0
  -32.0800  -13.2820   21.9120 O   0  0  0  0  0  0  0  0  0  0  0  0
  -30.6040  -13.9760   20.4680 N   0  0  0  0  0  0  0  0  0  0  0  0
  -31.4690  -14.3860   20.1490 H   0  0  0  0  0  0  0  0  0  0  0  0
  -25.5020  -13.1860   22.0320 C   0  0  0  0  0  0  0  0  0  0  0  0
  -23.9760  -12.3740   21.7360 C   0  0  0  0  0  0  0  0  0  0  0  0
  -24.2980  -10.7760   20.9820 C   0  0  0  0  0  3  0  0  0  0  0  0
  -26.8160  -12.0130   21.3670 N   0  0  0  0  0  0  0  0  0  0  0  0
  -25.9590  -10.6170   20.7110 N   0  0  0  0  0  2  0  0  0  0  0  0
  -23.7040   -9.4840   21.4630 C   0  0  0  0  0  0  0  0  0  0  0  0
  -24.2210   -8.5860   22.4640 C   0  0  0  0  0  3  0  0  0  0  0  0
  -23.5450   -7.3660   22.7720 C   0  0  0  0  0  3  0  0  0  0  0  0
  -22.3380   -7.0570   22.0930 C   0  0  0  0  0  0  0  0  0  0  0  0
  -21.8430   -7.9610   21.1460 C   0  0  0  0  0  3  0  0  0  0  0  0
  -22.5090   -9.1500   20.8420 C   0  0  0  0  0  3  0  0  0  0  0  0
  -21.6110   -5.8930   22.1880 O   0  0  0  0  0  0  0  0  0  0  0  0
  -21.6340   -5.0690   23.2790 C   0  0  0  0  0  0  0  0  0  0  0  0
  -21.2810   -5.5130   24.5690 C   0  0  0  0  0  3  0  0  0  0  0  0
  -21.2430   -4.5930   25.6410 C   0  0  0  0  0  3  0  0  0  0  0  0
  -21.5490   -3.2380   25.4170 C   0  0  0  0  0  0  0  0  0  0  0  0
  -21.8840   -2.7930   24.1250 C   0  0  0  0  0  3  0  0  0  0  0  0
  -21.9210   -3.7050   23.0600 C   0  0  0  0  0  0  0  0  0  0  0  0
  -22.2160   -3.2700   21.8110 F   0  0  0  0  0  0  0  0  0  0  0  0
  -21.5140   -2.3560   26.4430 F   0  0  0  0  0  0  0  0  0  0  0  0
  -22.5900  -12.7650   21.9100 C   0  0  0  0  0  0  0  0  0  0  0  0
  -21.8480  -11.9310   22.6200 N   0  0  0  0  0  0  0  0  0  0  0  0
  -22.1530  -13.7320   21.3150 O   0  0  0  0  0  0  0  0  0  0  0  0
  -22.2540  -11.1240   23.0740 H   0  0  0  0  0  0  0  0  0  0  0  0
  -20.8650  -12.1190   22.7460 H   0  0  0  0  0  0  0  0  0  0  0  0
  -25.9410  -14.4180   22.2940 N   0  0  0  0  0  0  0  0  0  0  0  0
  -25.2750  -15.1040   22.6410 H   0  0  0  0  0  0  0  0  0  0  0  0
  -26.8490  -14.5370   22.7290 H   0  0  0  0  0  0  0  0  0  0  0  0
  -25.9380  -18.5250   18.9270 C   0  0  0  0  0  2  0  0  0  0  0  0
  -26.5760  -19.8350   19.6560 N   0  0  0  0  0  4  0  0  0  0  0  0
  -27.5660  -19.6490   19.6800 H   0  0  0  0  0  0  0  0  0  0  0  0
  -26.2840  -19.7700   20.6190 H   0  0  0  0  0  0  0  0  0  0  0  0
  -26.4410  -21.4070   19.2550 C   0  0  0  0  0  2  0  0  0  0  0  0
  -27.5300  -22.7370   19.5840 C   0  0  0  0  0  2  0  0  0  0  0  0
  -27.1640  -24.4000   19.9570 C   0  0  0  0  0  2  0  0  0  0  0  0
  -27.9290  -25.8350   19.9080 O   0  0  0  0  0  0  0  0  0  0  0  0
  -24.5850  -31.7480   23.0030 C   0  0  0  0  0  0  0  0  0  0  0  0
  -27.1320  -27.0440   19.8540 C   0  0  0  0  0  0  0  0  0  0  0  0
  -23.4520  -30.3810   21.3140 C   0  0  0  0  0  3  0  0  0  0  0  0
  -24.9310  -28.9050   19.8410 C   0  0  0  0  0  0  0  0  0  0  0  0
  -26.0170  -30.6420   21.2300 C   0  0  0  0  0  2  0  0  0  0  0  0
  -26.0990  -29.2700   20.5240 C   0  0  0  0  0  0  0  0  0  0  0  0
  -27.2210  -28.3400   20.5370 C   0  0  0  0  0  3  0  0  0  0  0  0
  -26.0130  -26.8940   19.0330 C   0  0  0  0  0  3  0  0  0  0  0  0
  -24.9070  -27.7410   19.0770 C   0  0  0  0  0  3  0  0  0  0  0  0
  -23.7090  -29.7960   19.9090 C   0  0  0  0  0  2  0  0  0  0  0  0
  -24.7070  -30.9480   21.9010 N   0  0  0  0  0  0  0  0  0  0  0  0
  -23.4770  -31.9960   23.5070 O   0  0  0  0  0  0  0  0  0  0  0  0
  -22.7870  -29.3100   22.2180 C   0  0  0  0  0  0  0  0  0  0  0  0
  -21.4550  -29.1600   22.1160 N   0  0  0  0  0  0  0  0  0  0  0  0
  -23.4710  -28.6280   22.9840 O   0  0  0  0  0  0  0  0  0  0  0  0
  -20.9580  -29.7660   21.4770 H   0  0  0  0  0  0  0  0  0  0  0  0
  -18.0650  -28.0080   22.6850 C   0  0  0  0  0  0  0  0  0  0  0  0
  -20.6400  -28.1910   22.8540 C   0  0  0  0  0  3  0  0  0  0  0  0
  -20.6780  -26.7990   22.1800 C   0  0  0  0  0  2  0  0  0  0  0  0
  -19.5250  -26.5740   21.1970 C   0  0  0  0  0  2  0  0  0  0  0  0
  -18.1770  -26.7060   21.9100 C   0  0  0  0  0  2  0  0  0  0  0  0
  -19.2220  -28.7130   23.1150 C   0  0  0  0  0  0  0  0  0  0  0  0
  -19.0600  -29.9340   23.8060 C   0  0  0  0  0  3  0  0  0  0  0  0
  -17.7770  -30.4510   24.0650 C   0  0  0  0  0  3  0  0  0  0  0  0
  -16.6370  -29.7440   23.6490 C   0  0  0  0  0  3  0  0  0  0  0  0
  -16.7810  -28.5230   22.9650 C   0  0  0  0  0  3  0  0  0  0  0  0
  -25.8280  -32.4070   23.6700 C   0  0  0  0  0  3  0  0  0  0  0  0
  -25.4660  -33.7940   24.0110 N   0  0  0  0  0  0  0  0  0  0  0  0
  -25.7830  -34.8720   23.2810 C   0  0  0  0  0  0  0  0  0  0  0  0
  -26.4800  -34.8050   22.2660 O   0  0  0  0  0  0  0  0  0  0  0  0
  -24.8500  -33.9160   24.8020 H   0  0  0  0  0  0  0  0  0  0  0  0
  -24.0090  -36.6220   22.9270 C   0  0  0  0  0  1  0  0  0  0  0  0
  -25.2480  -36.2390   23.7530 C   0  0  0  0  0  3  0  0  0  0  0  0
  -27.3400  -37.1750   24.6360 C   0  0  0  0  0  1  0  0  0  0  0  0
  -26.2510  -37.3240   23.6750 N   0  0  0  0  0  0  0  0  0  0  0  0
  -25.8160  -38.2300   23.8260 H   0  0  0  0  0  0  0  0  0  0  0  0
  -26.3140  -31.6380   24.9600 C   0  0  1  0  0  0  0  0  0  0  0  0
  -25.1940  -31.3830   25.9960 C   0  0  0  0  0  1  0  0  0  0  0  0
  -26.9280  -30.2680   24.5900 C   0  0  0  0  0  1  0  0  0  0  0  0
  -27.4350  -32.4450   25.6570 C   0  0  0  0  0  1  0  0  0  0  0  0
  1  2  2  0
  3  1  1  0
  3  5  1  0
  5  4  1  0
  6  7  1  0
  6  5  1  0
  6  8  1  0
  9 10  1  0
  9  6  1  0
 10 11  1  0
 11 20  1  0
 12 18  1  0
 12 19  2  0
 13 18  1  0
 14 15  1  0
 14 13  1  0
 16 15  1  0
 16 25  1  0
 16 17  1  0
 18 17  1  0
 20 12  1  0
 21 20  1  0
 22 47  1  0
 23 42  1  0
 23 22  2  0
 24 27  1  0
 24 23  1  0
 25 22  1  0
 26 24  1  0
 26 25  1  0
 27 28  1  0
 28 29  2  0
 30 33  1  0
 30 29  1  0
 31 30  2  0
 32 31  1  0
 32 27  2  0
 33 34  1  0
 34 35  1  0
 35 36  2  0
 37 36  1  0
 37 41  1  0
 38 37  2  0
 39 34  2  0
 39 38  1  0
 40 39  1  0
 42 43  1  0
 43 46  1  0
 43 45  1  0
 44 42  2  0
 47 48  1  0
 47 49  1  0
 50 51  1  0
 50  1  1  0
 51 52  1  0
 51 53  1  0
 54 55  1  0
 54 51  1  0
 55 56  1  0
 57 56  1  0
 58 69  2  0
 59 57  1  0
 59 64  1  0
 60 68  1  0
 60 70  1  0
 61 67  1  0
 61 63  1  0
 62 68  1  0
 63 64  2  0
 63 62  1  0
 65 66  1  0
 65 59  2  0
 66 61  2  0
 67 60  1  0
 68 58  1  0
 70 72  2  0
 71 70  1  0
 73 71  1  0
 74 83  2  0
 74 79  1  0
 75 71  1  0
 75 79  1  0
 76 75  1  0
 77 78  1  0
 77 76  1  0
 78 74  1  0
 79 80  2  0
 80 81  1  0
 82 81  2  0
 83 82  1  0
 84 58  1  0
 84 85  1  0
 84 94  1  0
 85 88  1  0
 86 90  1  0
 86 85  1  0
 87 86  2  0
 90 89  1  0
 92 90  1  0
 92 93  1  0
 92 91  1  0
 94 97  1  1
 94 95  1  0
 96 94  1  0
M  ISO  4  12 100  20 100  56 101  57 101
M  END
>  <TORSDO>  (59) 
F 27

>  <SCORE>  (59) 
-2.334

>  <name>  (59) 
58

>  <ligand_id>  (59) 
58

>  <original_smiles>  (59) 
[H]c1c([H])c([H])c2c(c1[H])C([H])([H])C([H])([H])C([H])([H])C2([H])N([H])C(=O)C1([H])N(C(=O)C([H])(N([H])C(=O)C([H])(N([H])C([H])([H])[H])C([H])([H])[H])C(C([H])([H])[H])(C([H])([H])[H])C([H])([H])[H])C([H])([H])c2c([H])c(OC([H])([H])C([H])([H])C([H])([H])[N+]([H])([H])C([H])([H])C(=O)C([H])([H])C([H])(C([H])([H])[H])[N+]([H])([H])C([H])([H])C([H])([H])C([H])([H])N([H])C(=O)N3C([H])([H])C([H])([H])C([H])([H])C([H])(n4nc(-c5c([H])c([H])c(Oc6c([H])c([H])c(F)c([H])c6F)c([H])c5[H])c(C(=O)N([H])[H])c4N([H])[H])C3([H])[H])c([H])c([H])c2C1([H])[H]

>  <smiles>  (59) 
[H]c1c([H])c([H])c2c(c1[H])C([H])([H])C([H])([H])C([H])([H])C2([H])N([H])C(=O)C1([H])N(C(=O)C([H])(N([H])C(=O)C([H])(N([H])C([H])([H])[H])C([H])([H])[H])C(C([H])([H])[H])(C([H])([H])[H])C([H])([H])[H])C([H])([H])c2c([H])c(OC([H])([H])C([H])([H])C([H])([H])[N+]([H])([H])C([H])([H])C(=O)C([H])([H])C([H])(C([H])([H])[H])[N+]([H])([H])C([H])([H])C([H])([H])C([H])([H])N([H])C(=O)N3C([H])([H])C([H])([H])C([H])([H])C([H])(n4nc(-c5c([H])c([H])c(Oc6c([H])c([H])c(F)c([H])c6F)c([H])c5[H])c(C(=O)N([H])[H])c4N([H])[H])C3([H])[H])c([H])c([H])c2C1([H])[H]

$$$$
59:0:0
     RDKit          3D

 91 98  0  0  1  0  0  0  0  0999 V2000
  -29.5240  -23.2740   21.0090 N   0  0  0  0  0  4  0  0  0  0  0  0
  -29.5730  -22.8340   20.1030 H   0  0  0  0  0  0  0  0  0  0  0  0
  -28.6450  -23.0050   21.4260 H   0  0  0  0  0  0  0  0  0  0  0  0
  -31.9970  -22.8830   21.2340 C   0  0  0  0  0  1  0  0  0  0  0  0
  -30.6050  -22.7470   21.8800 C   0  0  0  0  0  3  0  0  0  0  0  0
  -30.3270  -21.3170   22.3980 C   0  0  0  0  0  2  0  0  0  0  0  0
  -30.3950  -20.1590   21.3760 C   0  0  0  0  0  2  0  0  0  0  0  0
  -30.6080  -18.8100   22.0920 C   0  0  0  0  0  2  0  0  0  0  0  0
  -30.4350  -17.5660   21.2030 C   0  0  0  0  0  2  0  0  0  0  0  0
  -30.9570  -16.2940   21.9040 C   0  0  0  0  0  2  0  0  0  0  0  0
  -30.8080  -14.3520   20.3060 C   0  0  0  0  0  0  0  0  0  0  0  0
  -30.3710  -12.3140   18.9750 C   0  0  0  0  0  2  0  0  0  0  0  0
  -29.3770  -12.5870   17.8300 C   0  0  0  0  0  2  0  0  0  0  0  0
  -27.9210  -12.4710   18.3220 C   0  0  0  0  0  2  0  0  0  0  0  0
  -27.6650  -13.2760   19.6210 C   0  0  0  0  0  3  0  0  0  0  0  0
  -28.7470  -12.9480   20.6700 C   0  0  0  0  0  2  0  0  0  0  0  0
  -30.0690  -13.2360   20.0780 N   0  0  0  0  0  0  0  0  0  0  0  0
  -31.8030  -14.6670   19.6460 O   0  0  0  0  0  0  0  0  0  0  0  0
  -30.3810  -15.0740   21.3490 N   0  0  0  0  0  0  0  0  0  0  0  0
  -29.5830  -14.6900   21.8340 H   0  0  0  0  0  0  0  0  0  0  0  0
  -25.3070  -13.9470   20.4140 C   0  0  0  0  0  0  0  0  0  0  0  0
  -24.2320  -13.2000   20.8190 C   0  0  0  0  0  0  0  0  0  0  0  0
  -24.6580  -11.8360   20.7640 C   0  0  0  0  0  0  0  0  0  0  0  0
  -26.3200  -13.0400   20.1440 N   0  0  0  0  0  0  0  0  0  0  0  0
  -25.9330  -11.7660   20.4060 N   0  0  0  0  0  0  0  0  0  0  0  0
  -23.9090  -10.5910   20.9780 C   0  0  0  0  0  0  0  0  0  0  0  0
  -24.3550   -9.6070   21.8860 C   0  0  0  0  0  3  0  0  0  0  0  0
  -23.6090   -8.4260   22.0860 C   0  0  0  0  0  3  0  0  0  0  0  0
  -22.4010   -8.2210   21.3790 C   0  0  0  0  0  0  0  0  0  0  0  0
  -21.9720   -9.1950   20.4590 C   0  0  0  0  0  3  0  0  0  0  0  0
  -22.7180  -10.3670   20.2570 C   0  0  0  0  0  3  0  0  0  0  0  0
  -21.6240   -7.0930   21.4880 O   0  0  0  0  0  0  0  0  0  0  0  0
  -21.6070   -6.3420   22.6350 C   0  0  0  0  0  0  0  0  0  0  0  0
  -21.2720   -6.9020   23.8880 C   0  0  0  0  0  3  0  0  0  0  0  0
  -21.1970   -6.0790   25.0290 C   0  0  0  0  0  3  0  0  0  0  0  0
  -21.4470   -4.6980   24.9210 C   0  0  0  0  0  0  0  0  0  0  0  0
  -21.7740   -4.1370   23.6740 C   0  0  0  0  0  3  0  0  0  0  0  0
  -21.8510   -4.9580   22.5340 C   0  0  0  0  0  0  0  0  0  0  0  0
  -22.1460   -4.4090   21.3300 F   0  0  0  0  0  0  0  0  0  0  0  0
  -21.3670   -3.9060   26.0150 F   0  0  0  0  0  0  0  0  0  0  0  0
  -22.8600  -13.7100   21.1460 C   0  0  0  0  0  0  0  0  0  0  0  0
  -22.1510  -13.0300   22.0420 N   0  0  0  0  0  0  0  0  0  0  0  0
  -22.4240  -14.7460   20.6440 O   0  0  0  0  0  0  0  0  0  0  0  0
  -22.5140  -12.1900   22.4670 H   0  0  0  0  0  0  0  0  0  0  0  0
  -21.2320  -13.3540   22.3040 H   0  0  0  0  0  0  0  0  0  0  0  0
  -25.5030  -15.3130   20.2380 N   0  0  0  0  0  0  0  0  0  0  0  0
  -24.7660  -15.9940   20.3860 H   0  0  0  0  0  0  0  0  0  0  0  0
  -26.3620  -15.7260   19.8930 H   0  0  0  0  0  0  0  0  0  0  0  0
  -29.5310  -24.7570   20.8650 C   0  0  0  0  0  2  0  0  0  0  0  0
  -28.3010  -25.3040   20.1180 C   0  0  0  0  0  2  0  0  0  0  0  0
  -28.3590  -26.7350   20.1440 O   0  0  0  0  0  0  0  0  0  0  0  0
  -24.5520  -31.8760   23.2180 C   0  0  0  0  0  0  0  0  0  0  0  0
  -27.1700  -27.4320   20.1330 C   0  0  0  0  0  0  0  0  0  0  0  0
  -23.3300  -30.4740   21.5870 C   0  0  0  0  0  3  0  0  0  0  0  0
  -24.7710  -28.9310   20.1560 C   0  0  0  0  0  0  0  0  0  0  0  0
  -25.8520  -30.8320   21.3650 C   0  0  0  0  0  2  0  0  0  0  0  0
  -25.9320  -29.4600   20.7330 C   0  0  0  0  0  0  0  0  0  0  0  0
  -27.1330  -28.7170   20.7180 C   0  0  0  0  0  3  0  0  0  0  0  0
  -25.9910  -26.9150   19.5460 C   0  0  0  0  0  3  0  0  0  0  0  0
  -24.7950  -27.6570   19.5600 C   0  0  0  0  0  3  0  0  0  0  0  0
  -23.5280  -29.7900   20.2070 C   0  0  0  0  0  2  0  0  0  0  0  0
  -24.5980  -31.0740   22.1150 N   0  0  0  0  0  0  0  0  0  0  0  0
  -23.4750  -32.1490   23.7660 O   0  0  0  0  0  0  0  0  0  0  0  0
  -22.6870  -29.4550   22.5560 C   0  0  0  0  0  0  0  0  0  0  0  0
  -21.3610  -29.2690   22.4390 N   0  0  0  0  0  0  0  0  0  0  0  0
  -23.3780  -28.8330   23.3660 O   0  0  0  0  0  0  0  0  0  0  0  0
  -20.8650  -29.8280   21.7600 H   0  0  0  0  0  0  0  0  0  0  0  0
  -17.9940  -28.0710   22.9440 C   0  0  0  0  0  0  0  0  0  0  0  0
  -20.5500  -28.3330   23.2150 C   0  0  0  0  0  3  0  0  0  0  0  0
  -20.6560  -26.8990   22.6470 C   0  0  0  0  0  2  0  0  0  0  0  0
  -19.5540  -26.5700   21.6360 C   0  0  0  0  0  2  0  0  0  0  0  0
  -18.1730  -26.7180   22.2780 C   0  0  0  0  0  2  0  0  0  0  0  0
  -19.1110  -28.8370   23.3710 C   0  0  0  0  0  0  0  0  0  0  0  0
  -18.8910  -30.1060   23.9470 C   0  0  0  0  0  3  0  0  0  0  0  0
  -17.5850  -30.6070   24.1070 C   0  0  0  0  0  3  0  0  0  0  0  0
  -16.4830  -29.8360   23.6990 C   0  0  0  0  0  3  0  0  0  0  0  0
  -16.6880  -28.5710   23.1220 C   0  0  0  0  0  3  0  0  0  0  0  0
  -25.8430  -32.5060   23.8260 C   0  0  0  0  0  3  0  0  0  0  0  0
  -26.3820  -31.7230   25.0860 C   0  0  1  0  0  0  0  0  0  0  0  0
  -25.3080  -31.4710   26.1690 C   0  0  0  0  0  1  0  0  0  0  0  0
  -26.9620  -30.3520   24.6630 C   0  0  0  0  0  1  0  0  0  0  0  0
  -27.5410  -32.5120   25.7380 C   0  0  0  0  0  1  0  0  0  0  0  0
  -25.5340  -33.9000   24.1740 N   0  0  0  0  0  0  0  0  0  0  0  0
  -25.8540  -34.9590   23.4190 C   0  0  0  0  0  0  0  0  0  0  0  0
  -26.5110  -34.8650   22.3770 O   0  0  0  0  0  0  0  0  0  0  0  0
  -24.9520  -34.0470   24.9860 H   0  0  0  0  0  0  0  0  0  0  0  0
  -24.1110  -36.7400   23.1050 C   0  0  0  0  0  1  0  0  0  0  0  0
  -25.3680  -36.3410   23.8920 C   0  0  0  0  0  3  0  0  0  0  0  0
  -27.5150  -37.2290   24.6860 C   0  0  0  0  0  1  0  0  0  0  0  0
  -26.3920  -37.4010   23.7660 N   0  0  0  0  0  0  0  0  0  0  0  0
  -25.9850  -38.3170   23.9290 H   0  0  0  0  0  0  0  0  0  0  0  0
  1  3  1  0
  1  5  1  0
  2  1  1  0
  5  4  1  0
  5  6  1  0
  7  8  1  0
  7  6  1  0
  9 10  1  0
  9  8  1  0
 11 19  1  0
 12 17  1  0
 13 14  1  0
 13 12  1  0
 15 14  1  0
 15 24  1  0
 15 16  1  0
 17 11  1  0
 17 16  1  0
 18 11  2  0
 19 20  1  0
 19 10  1  0
 21 22  2  0
 22 41  1  0
 23 22  1  0
 23 26  1  0
 24 25  1  0
 24 21  1  0
 25 23  2  0
 26 27  1  0
 27 28  2  0
 29 32  1  0
 29 28  1  0
 30 29  2  0
 31 30  1  0
 31 26  2  0
 32 33  1  0
 33 34  1  0
 34 35  2  0
 36 35  1  0
 36 40  1  0
 37 36  2  0
 38 33  2  0
 38 37  1  0
 39 38  1  0
 41 42  1  0
 42 45  1  0
 42 44  1  0
 43 41  2  0
 46 47  1  0
 46 21  1  0
 48 46  1  0
 49  1  1  0
 50 51  1  0
 50 49  1  0
 52 63  2  0
 53 51  1  0
 53 58  1  0
 54 62  1  0
 54 64  1  0
 55 61  1  0
 55 57  1  0
 56 62  1  0
 57 56  1  0
 58 57  2  0
 59 60  1  0
 59 53  2  0
 60 55  2  0
 61 54  1  0
 62 52  1  0
 64 66  2  0
 65 64  1  0
 67 65  1  0
 68 77  2  0
 68 73  1  0
 69 65  1  0
 69 73  1  0
 70 69  1  0
 71 72  1  0
 71 70  1  0
 72 68  1  0
 73 74  2  0
 74 75  1  0
 76 75  2  0
 77 76  1  0
 78 52  1  0
 78 83  1  0
 78 79  1  0
 79 82  1  1
 79 80  1  0
 81 79  1  0
 83 86  1  0
 84 88  1  0
 84 83  1  0
 85 84  2  0
 88 87  1  0
 90 88  1  0
 90 91  1  0
 90 89  1  0
M  ISO  4  11 100  19 100  50 101  51 101
M  END
>  <TORSDO>  (60) 
F 24

>  <SCORE>  (60) 
-11.962

>  <name>  (60) 
59

>  <ligand_id>  (60) 
59

>  <original_smiles>  (60) 
[H]c1c([H])c([H])c2c(c1[H])C([H])([H])C([H])([H])C([H])([H])C2([H])N([H])C(=O)C1([H])N(C(=O)C([H])(N([H])C(=O)C([H])(N([H])C([H])([H])[H])C([H])([H])[H])C(C([H])([H])[H])(C([H])([H])[H])C([H])([H])[H])C([H])([H])c2c([H])c(OC([H])([H])C([H])([H])[N+]([H])([H])C([H])(C([H])([H])[H])C([H])([H])C([H])([H])C([H])([H])C([H])([H])C([H])([H])N([H])C(=O)N3C([H])([H])C([H])([H])C([H])([H])C([H])(n4nc(-c5c([H])c([H])c(Oc6c([H])c([H])c(F)c([H])c6F)c([H])c5[H])c(C(=O)N([H])[H])c4N([H])[H])C3([H])[H])c([H])c([H])c2C1([H])[H]

>  <smiles>  (60) 
[H]c1c([H])c([H])c2c(c1[H])C([H])([H])C([H])([H])C([H])([H])C2([H])N([H])C(=O)C1([H])N(C(=O)C([H])(N([H])C(=O)C([H])(N([H])C([H])([H])[H])C([H])([H])[H])C(C([H])([H])[H])(C([H])([H])[H])C([H])([H])[H])C([H])([H])c2c([H])c(OC([H])([H])C([H])([H])[N+]([H])([H])C([H])(C([H])([H])[H])C([H])([H])C([H])([H])C([H])([H])C([H])([H])C([H])([H])N([H])C(=O)N3C([H])([H])C([H])([H])C([H])([H])C([H])(n4nc(-c5c([H])c([H])c(Oc6c([H])c([H])c(F)c([H])c6F)c([H])c5[H])c(C(=O)N([H])[H])c4N([H])[H])C3([H])[H])c([H])c([H])c2C1([H])[H]

$$$$
60:0:0
     RDKit          3D

 94101  0  0  1  0  0  0  0  0999 V2000
  -29.7690  -23.1060   21.6990 C   0  0  0  0  0  3  0  0  0  0  0  0
  -31.0210  -23.2690   21.2070 C   0  0  0  0  0  0  0  0  0  0  0  0
  -32.2450  -22.5570   21.7620 C   0  0  0  0  0  1  0  0  0  0  0  0
  -31.2290  -24.1410   20.0540 C   0  0  0  0  0  0  0  0  0  0  0  0
  -30.4170  -25.2010   20.0470 N   0  0  0  0  0  0  0  0  0  0  0  0
  -32.0540  -23.9420   19.1610 O   0  0  0  0  0  0  0  0  0  0  0  0
  -29.8040  -25.3140   20.8440 H   0  0  0  0  0  0  0  0  0  0  0  0
  -30.1850  -26.1120   18.9350 C   0  0  0  0  0  2  0  0  0  0  0  0
  -28.6780  -26.3520   18.8150 C   0  0  0  0  0  2  0  0  0  0  0  0
  -28.2630  -26.8980   20.0620 O   0  0  0  0  0  0  0  0  0  0  0  0
  -24.5110  -31.9440   23.3030 C   0  0  0  0  0  0  0  0  0  0  0  0
  -27.0800  -27.5860   20.0630 C   0  0  0  0  0  0  0  0  0  0  0  0
  -23.4240  -30.3150   21.7850 C   0  0  0  0  0  3  0  0  0  0  0  0
  -24.7070  -29.0860   20.0700 C   0  0  0  0  0  0  0  0  0  0  0  0
  -25.7980  -30.9850   21.3660 C   0  0  0  0  0  2  0  0  0  0  0  0
  -25.8790  -29.6290   20.6460 C   0  0  0  0  0  0  0  0  0  0  0  0
  -27.0570  -28.8600   20.6610 C   0  0  0  0  0  3  0  0  0  0  0  0
  -25.9010  -27.0510   19.5020 C   0  0  0  0  0  3  0  0  0  0  0  0
  -24.7070  -27.7950   19.5170 C   0  0  0  0  0  3  0  0  0  0  0  0
  -23.4230  -29.8570   20.3070 C   0  0  0  0  0  2  0  0  0  0  0  0
  -24.5470  -31.2100   22.1560 N   0  0  0  0  0  0  0  0  0  0  0  0
  -23.4420  -32.1780   23.8810 O   0  0  0  0  0  0  0  0  0  0  0  0
  -22.5600  -29.5330   22.7910 C   0  0  0  0  0  0  0  0  0  0  0  0
  -21.2640  -29.3570   22.5270 N   0  0  0  0  0  0  0  0  0  0  0  0
  -23.0910  -28.9620   23.7600 O   0  0  0  0  0  0  0  0  0  0  0  0
  -20.8510  -29.8120   21.7260 H   0  0  0  0  0  0  0  0  0  0  0  0
  -17.9120  -28.0880   22.9870 C   0  0  0  0  0  0  0  0  0  0  0  0
  -20.4420  -28.4100   23.2820 C   0  0  0  0  0  3  0  0  0  0  0  0
  -20.6030  -26.9760   22.7280 C   0  0  0  0  0  2  0  0  0  0  0  0
  -19.5230  -26.6040   21.7100 C   0  0  0  0  0  2  0  0  0  0  0  0
  -18.1310  -26.7300   22.3400 C   0  0  0  0  0  2  0  0  0  0  0  0
  -19.0030  -28.8860   23.4120 C   0  0  0  0  0  0  0  0  0  0  0  0
  -18.7590  -30.1530   23.9830 C   0  0  0  0  0  3  0  0  0  0  0  0
  -17.4440  -30.6290   24.1270 C   0  0  0  0  0  3  0  0  0  0  0  0
  -16.3620  -29.8320   23.7160 C   0  0  0  0  0  3  0  0  0  0  0  0
  -16.5950  -28.5630   23.1550 C   0  0  0  0  0  3  0  0  0  0  0  0
  -25.8060  -32.5620   23.9110 C   0  0  0  0  0  3  0  0  0  0  0  0
  -26.3040  -31.8020   25.2010 C   0  0  1  0  0  0  0  0  0  0  0  0
  -25.2070  -31.6020   26.2730 C   0  0  0  0  0  1  0  0  0  0  0  0
  -26.8560  -30.4080   24.8230 C   0  0  0  0  0  1  0  0  0  0  0  0
  -27.4710  -32.5800   25.8500 C   0  0  0  0  0  1  0  0  0  0  0  0
  -25.5270  -33.9710   24.2140 N   0  0  0  0  0  0  0  0  0  0  0  0
  -25.8900  -34.9970   23.4330 C   0  0  0  0  0  0  0  0  0  0  0  0
  -26.5640  -34.8550   22.4090 O   0  0  0  0  0  0  0  0  0  0  0  0
  -24.9350  -34.1560   25.0100 H   0  0  0  0  0  0  0  0  0  0  0  0
  -24.2130  -36.8220   23.0250 C   0  0  0  0  0  1  0  0  0  0  0  0
  -25.4350  -36.4050   23.8580 C   0  0  0  0  0  3  0  0  0  0  0  0
  -27.5880  -37.2530   24.6850 C   0  0  0  0  0  1  0  0  0  0  0  0
  -26.4980  -37.4270   23.7280 N   0  0  0  0  0  0  0  0  0  0  0  0
  -26.1170  -38.3610   23.8490 H   0  0  0  0  0  0  0  0  0  0  0  0
  -29.3490  -22.1630   22.8170 C   0  0  0  0  0  2  0  0  0  0  0  0
  -29.7400  -20.6950   22.5420 C   0  0  0  0  0  2  0  0  0  0  0  0
  -29.5340  -20.2200   21.0840 C   0  0  0  0  0  2  0  0  0  0  0  0
  -30.4920  -19.0940   20.6590 C   0  0  0  0  0  2  0  0  0  0  0  0
  -30.1050  -17.6840   21.1390 C   0  0  0  0  0  2  0  0  0  0  0  0
  -31.2210  -16.6670   20.8360 C   0  0  0  0  0  2  0  0  0  0  0  0
  -31.2510  -14.3080   20.1040 C   0  0  0  0  0  0  0  0  0  0  0  0
  -30.7840  -12.1700   18.9770 C   0  0  0  0  0  2  0  0  0  0  0  0
  -29.8300  -12.4110   17.7880 C   0  0  0  0  0  2  0  0  0  0  0  0
  -28.3600  -12.3680   18.2480 C   0  0  0  0  0  2  0  0  0  0  0  0
  -28.0980  -13.2460   19.5010 C   0  0  0  0  0  3  0  0  0  0  0  0
  -29.1600  -12.9820   20.5950 C   0  0  0  0  0  2  0  0  0  0  0  0
  -30.4950  -13.1850   20.0010 N   0  0  0  0  0  0  0  0  0  0  0  0
  -32.3110  -14.4730   19.4910 O   0  0  0  0  0  0  0  0  0  0  0  0
  -30.7310  -15.2890   20.8510 N   0  0  0  0  0  0  0  0  0  0  0  0
  -29.8840  -15.0850   21.3600 H   0  0  0  0  0  0  0  0  0  0  0  0
  -25.7540  -14.0000   20.2530 C   0  0  0  0  0  0  0  0  0  0  0  0
  -24.6490  -13.2920   20.6470 C   0  0  0  0  0  0  0  0  0  0  0  0
  -25.0290  -11.9160   20.6130 C   0  0  0  0  0  0  0  0  0  0  0  0
  -26.7400  -13.0560   20.0060 N   0  0  0  0  0  0  0  0  0  0  0  0
  -26.3060  -11.7970   20.2770 N   0  0  0  0  0  0  0  0  0  0  0  0
  -24.2340  -10.6990   20.8260 C   0  0  0  0  0  0  0  0  0  0  0  0
  -24.5910   -9.7460   21.8050 C   0  0  0  0  0  3  0  0  0  0  0  0
  -23.7990   -8.5940   22.0030 C   0  0  0  0  0  3  0  0  0  0  0  0
  -22.6380   -8.3880   21.2210 C   0  0  0  0  0  0  0  0  0  0  0  0
  -22.3000   -9.3290   20.2340 C   0  0  0  0  0  3  0  0  0  0  0  0
  -23.0910  -10.4730   20.0340 C   0  0  0  0  0  3  0  0  0  0  0  0
  -21.8230   -7.2870   21.3250 O   0  0  0  0  0  0  0  0  0  0  0  0
  -21.6530   -6.6290   22.5160 C   0  0  0  0  0  0  0  0  0  0  0  0
  -21.1490   -7.2830   23.6630 C   0  0  0  0  0  3  0  0  0  0  0  0
  -20.9220   -6.5540   24.8470 C   0  0  0  0  0  3  0  0  0  0  0  0
  -21.1870   -5.1720   24.8850 C   0  0  0  0  0  0  0  0  0  0  0  0
  -21.6820   -4.5170   23.7420 C   0  0  0  0  0  3  0  0  0  0  0  0
  -21.9110   -5.2450   22.5610 C   0  0  0  0  0  0  0  0  0  0  0  0
  -22.3680   -4.6060   21.4570 F   0  0  0  0  0  0  0  0  0  0  0  0
  -20.9620   -4.4670   26.0190 F   0  0  0  0  0  0  0  0  0  0  0  0
  -23.2900  -13.8540   20.9470 C   0  0  0  0  0  0  0  0  0  0  0  0
  -22.5460  -13.2130   21.8410 N   0  0  0  0  0  0  0  0  0  0  0  0
  -22.8990  -14.8980   20.4260 O   0  0  0  0  0  0  0  0  0  0  0  0
  -22.8750  -12.3690   22.2840 H   0  0  0  0  0  0  0  0  0  0  0  0
  -21.6350  -13.5770   22.0840 H   0  0  0  0  0  0  0  0  0  0  0  0
  -25.9960  -15.3550   20.0660 N   0  0  0  0  0  0  0  0  0  0  0  0
  -25.2740  -16.0570   20.1890 H   0  0  0  0  0  0  0  0  0  0  0  0
  -26.8650  -15.7420   19.7180 H   0  0  0  0  0  0  0  0  0  0  0  0
  1 51  1  0
  2  1  2  0
  2  3  1  0
  4  2  1  0
  5  4  1  0
  5  7  1  0
  6  4  2  0
  8  5  1  0
  9  8  1  0
  9 10  1  0
 10 12  1  0
 11 22  2  0
 12 17  1  0
 13 21  1  0
 13 23  1  0
 14 20  1  0
 14 16  1  0
 15 21  1  0
 16 17  2  0
 16 15  1  0
 18 19  1  0
 18 12  2  0
 19 14  2  0
 20 13  1  0
 21 11  1  0
 23 25  2  0
 24 23  1  0
 26 24  1  0
 27 36  2  0
 27 32  1  0
 28 24  1  0
 28 32  1  0
 29 28  1  0
 30 31  1  0
 30 29  1  0
 31 27  1  0
 32 33  2  0
 33 34  1  0
 35 34  2  0
 36 35  1  0
 37 11  1  0
 37 42  1  0
 37 38  1  0
 38 41  1  1
 38 39  1  0
 40 38  1  0
 42 45  1  0
 43 47  1  0
 43 42  1  0
 44 43  2  0
 47 46  1  0
 49 50  1  0
 49 47  1  0
 49 48  1  0
 52 51  1  0
 53 52  1  0
 54 53  1  0
 54 55  1  0
 56 65  1  0
 56 55  1  0
 57 65  1  0
 58 63  1  0
 59 60  1  0
 59 58  1  0
 61 60  1  0
 61 70  1  0
 61 62  1  0
 63 57  1  0
 63 62  1  0
 64 57  2  0
 65 66  1  0
 67 68  2  0
 68 87  1  0
 69 68  1  0
 69 72  1  0
 70 67  1  0
 70 71  1  0
 71 69  2  0
 72 73  1  0
 73 74  2  0
 75 78  1  0
 75 74  1  0
 76 75  2  0
 77 76  1  0
 77 72  2  0
 78 79  1  0
 79 84  2  0
 79 80  1  0
 80 81  2  0
 81 82  1  0
 82 86  1  0
 83 82  2  0
 84 83  1  0
 85 84  1  0
 87 88  1  0
 88 91  1  0
 88 90  1  0
 89 87  2  0
 92 93  1  0
 92 67  1  0
 94 92  1  0
M  ISO  4   9 101  10 101  57 100  65 100
M  END
>  <TORSDO>  (61) 
F 25

>  <SCORE>  (61) 
-10.833

>  <name>  (61) 
60

>  <ligand_id>  (61) 
60

>  <original_smiles>  (61) 
[H]C(=C(C(=O)N([H])C([H])([H])C([H])([H])Oc1c([H])c([H])c2c(c1[H])C([H])([H])N(C(=O)C([H])(N([H])C(=O)C([H])(N([H])C([H])([H])[H])C([H])([H])[H])C(C([H])([H])[H])(C([H])([H])[H])C([H])([H])[H])C([H])(C(=O)N([H])C1([H])c3c([H])c([H])c([H])c([H])c3C([H])([H])C([H])([H])C1([H])[H])C2([H])[H])C([H])([H])[H])C([H])([H])C([H])([H])C([H])([H])C([H])([H])C([H])([H])C([H])([H])N([H])C(=O)N1C([H])([H])C([H])([H])C([H])([H])C([H])(n2nc(-c3c([H])c([H])c(Oc4c([H])c([H])c(F)c([H])c4F)c([H])c3[H])c(C(=O)N([H])[H])c2N([H])[H])C1([H])[H]

>  <smiles>  (61) 
[H]C(=C(C(=O)N([H])C([H])([H])C([H])([H])Oc1c([H])c([H])c2c(c1[H])C([H])([H])N(C(=O)C([H])(N([H])C(=O)C([H])(N([H])C([H])([H])[H])C([H])([H])[H])C(C([H])([H])[H])(C([H])([H])[H])C([H])([H])[H])C([H])(C(=O)N([H])C1([H])c3c([H])c([H])c([H])c([H])c3C([H])([H])C([H])([H])C1([H])[H])C2([H])[H])C([H])([H])[H])C([H])([H])C([H])([H])C([H])([H])C([H])([H])C([H])([H])C([H])([H])N([H])C(=O)N1C([H])([H])C([H])([H])C([H])([H])C([H])(n2nc(-c3c([H])c([H])c(Oc4c([H])c([H])c(F)c([H])c4F)c([H])c3[H])c(C(=O)N([H])[H])c2N([H])[H])C1([H])[H]

$$$$
61:0:0
     RDKit          3D

100109  0  0  1  0  0  0  0  0999 V2000
  -30.1850  -22.5670   23.5290 C   0  0  0  0  0  3  0  0  0  0  0  0
  -30.4950  -23.6590   22.6990 C   0  0  0  0  0  3  0  0  0  0  0  0
  -28.7200  -21.6770   21.8000 C   0  0  0  0  0  3  0  0  0  0  0  0
  -29.3490  -21.5400   23.0520 C   0  0  0  0  0  0  0  0  0  0  0  0
  -29.9610  -23.7440   21.3960 C   0  0  0  0  0  0  0  0  0  0  0  0
  -29.0060  -22.7790   20.9650 C   0  0  0  0  0  0  0  0  0  0  0  0
  -28.3020  -22.8370   19.6030 C   0  0  0  0  0  2  0  0  0  0  0  0
  -26.8970  -23.4590   19.6580 C   0  0  0  0  0  0  0  0  0  0  0  0
  -26.5010  -24.0500   20.7810 N   0  0  0  0  0  0  0  0  0  0  0  0
  -26.1580  -23.4070   18.6760 O   0  0  0  0  0  0  0  0  0  0  0  0
  -27.1210  -24.0400   21.5790 H   0  0  0  0  0  0  0  0  0  0  0  0
  -25.5940  -24.4910   20.8450 H   0  0  0  0  0  0  0  0  0  0  0  0
  -29.3300  -20.1970   23.7600 C   0  0  0  0  0  2  0  0  0  0  0  0
  -30.2730  -19.3030   22.9480 C   0  0  0  0  0  2  0  0  0  0  0  0
  -30.5710  -17.8720   23.4180 C   0  0  0  0  0  2  0  0  0  0  0  0
  -31.6490  -14.4480   18.9720 C   0  0  0  0  0  0  0  0  0  0  0  0
  -30.7980  -12.4820   17.7580 C   0  0  0  0  0  2  0  0  0  0  0  0
  -29.5640  -12.8380   16.9080 C   0  0  0  0  0  2  0  0  0  0  0  0
  -28.2760  -12.7180   17.7440 C   0  0  0  0  0  2  0  0  0  0  0  0
  -28.3750  -13.4700   19.0960 C   0  0  0  0  0  3  0  0  0  0  0  0
  -29.6840  -13.1070   19.8300 C   0  0  0  0  0  2  0  0  0  0  0  0
  -30.8250  -13.3700   18.9290 N   0  0  0  0  0  0  0  0  0  0  0  0
  -32.4050  -14.7540   18.0410 O   0  0  0  0  0  0  0  0  0  0  0  0
  -30.7580  -17.4140   20.8830 C   0  0  0  0  0  2  0  0  0  0  0  0
  -31.3110  -15.5710   22.5020 C   0  0  0  0  0  2  0  0  0  0  0  0
  -31.5800  -16.6950   19.8170 C   0  0  0  0  0  2  0  0  0  0  0  0
  -32.0600  -14.8570   21.3540 C   0  0  0  0  0  2  0  0  0  0  0  0
  -31.3020  -17.0970   22.2950 C   0  0  0  0  0  3  0  0  0  0  0  0
  -31.5160  -15.2530   20.0440 N   0  0  0  0  0  0  0  0  0  0  0  0
  -26.4470  -14.1010   20.6870 C   0  0  0  0  0  0  0  0  0  0  0  0
  -25.4270  -13.3610   21.2240 C   0  0  0  0  0  0  0  0  0  0  0  0
  -25.6170  -12.0270   20.7530 C   0  0  0  0  0  0  0  0  0  0  0  0
  -27.2040  -13.2150   19.9350 N   0  0  0  0  0  0  0  0  0  0  0  0
  -26.7220  -11.9490   20.0220 N   0  0  0  0  0  0  0  0  0  0  0  0
  -24.7800  -10.8300   20.9050 C   0  0  0  0  0  0  0  0  0  0  0  0
  -25.2270   -9.7000   21.6270 C   0  0  0  0  0  3  0  0  0  0  0  0
  -24.3960   -8.5690   21.7750 C   0  0  0  0  0  3  0  0  0  0  0  0
  -23.1020   -8.5600   21.2020 C   0  0  0  0  0  0  0  0  0  0  0  0
  -22.6700   -9.6770   20.4650 C   0  0  0  0  0  3  0  0  0  0  0  0
  -23.5010  -10.8000   20.3140 C   0  0  0  0  0  3  0  0  0  0  0  0
  -22.2360   -7.4960   21.2720 O   0  0  0  0  0  0  0  0  0  0  0  0
  -22.0650   -6.7820   22.4300 C   0  0  0  0  0  0  0  0  0  0  0  0
  -21.7770   -7.4130   23.6600 C   0  0  0  0  0  3  0  0  0  0  0  0
  -21.5400   -6.6370   24.8120 C   0  0  0  0  0  3  0  0  0  0  0  0
  -21.5820   -5.2320   24.7360 C   0  0  0  0  0  0  0  0  0  0  0  0
  -21.8630   -4.6010   23.5110 C   0  0  0  0  0  3  0  0  0  0  0  0
  -22.1010   -5.3740   22.3610 C   0  0  0  0  0  0  0  0  0  0  0  0
  -22.3500   -4.7610   21.1790 F   0  0  0  0  0  0  0  0  0  0  0  0
  -21.3470   -4.4850   25.8400 F   0  0  0  0  0  0  0  0  0  0  0  0
  -24.2860  -13.8780   22.0520 C   0  0  0  0  0  0  0  0  0  0  0  0
  -23.7630  -13.0560   22.9550 N   0  0  0  0  0  0  0  0  0  0  0  0
  -23.8840  -15.0350   21.9350 O   0  0  0  0  0  0  0  0  0  0  0  0
  -24.1070  -12.1140   23.0650 H   0  0  0  0  0  0  0  0  0  0  0  0
  -23.0080  -13.3750   23.5460 H   0  0  0  0  0  0  0  0  0  0  0  0
  -26.7830  -15.4490   20.7610 N   0  0  0  0  0  0  0  0  0  0  0  0
  -26.2210  -16.1220   21.2680 H   0  0  0  0  0  0  0  0  0  0  0  0
  -27.5720  -15.8710   20.2850 H   0  0  0  0  0  0  0  0  0  0  0  0
  -30.4810  -24.8460   20.4870 C   0  0  0  0  0  2  0  0  0  0  0  0
  -29.9440  -26.2250   20.8570 C   0  0  0  0  0  2  0  0  0  0  0  0
  -29.7310  -26.9510   19.6520 O   0  0  0  0  0  0  0  0  0  0  0  0
  -25.3110  -31.2250   23.1590 C   0  0  0  0  0  0  0  0  0  0  0  0
  -28.5190  -27.5790   19.6520 C   0  0  0  0  0  0  0  0  0  0  0  0
  -24.3280  -29.9890   21.2520 C   0  0  0  0  0  3  0  0  0  0  0  0
  -25.9930  -28.8090   19.7230 C   0  0  0  0  0  0  0  0  0  0  0  0
  -26.8090  -30.5930   21.2790 C   0  0  0  0  0  2  0  0  0  0  0  0
  -27.0560  -29.3480   20.4580 C   0  0  0  0  0  0  0  0  0  0  0  0
  -28.3230  -28.7360   20.4290 C   0  0  0  0  0  3  0  0  0  0  0  0
  -27.4500  -27.0390   18.9090 C   0  0  0  0  0  3  0  0  0  0  0  0
  -26.1820  -27.6490   18.9470 C   0  0  0  0  0  3  0  0  0  0  0  0
  -24.6730  -29.5370   19.8070 C   0  0  0  0  0  2  0  0  0  0  0  0
  -25.4960  -30.6080   21.9580 N   0  0  0  0  0  0  0  0  0  0  0  0
  -24.1820  -31.3260   23.6600 O   0  0  0  0  0  0  0  0  0  0  0  0
  -23.7220  -28.7870   22.0100 C   0  0  0  0  0  0  0  0  0  0  0  0
  -22.4090  -28.5690   21.8250 N   0  0  0  0  0  0  0  0  0  0  0  0
  -24.4260  -28.0650   22.7200 O   0  0  0  0  0  0  0  0  0  0  0  0
  -21.9020  -29.2130   21.2350 H   0  0  0  0  0  0  0  0  0  0  0  0
  -19.0780  -27.2050   22.1030 C   0  0  0  0  0  0  0  0  0  0  0  0
  -21.6300  -27.4770   22.4030 C   0  0  0  0  0  3  0  0  0  0  0  0
  -21.7650  -26.1900   21.5580 C   0  0  0  0  0  2  0  0  0  0  0  0
  -20.6590  -26.0370   20.5090 C   0  0  0  0  0  2  0  0  0  0  0  0
  -19.2830  -26.0150   21.1790 C   0  0  0  0  0  2  0  0  0  0  0  0
  -20.1810  -27.9000   22.6650 C   0  0  0  0  0  0  0  0  0  0  0  0
  -19.9370  -29.0180   23.4910 C   0  0  0  0  0  3  0  0  0  0  0  0
  -18.6230  -29.4440   23.7590 C   0  0  0  0  0  3  0  0  0  0  0  0
  -17.5340  -28.7420   23.2130 C   0  0  0  0  0  3  0  0  0  0  0  0
  -17.7620  -27.6230   22.3930 C   0  0  0  0  0  3  0  0  0  0  0  0
  -26.5010  -31.8560   23.9480 C   0  0  0  0  0  3  0  0  0  0  0  0
  -26.0470  -33.1500   24.4720 N   0  0  0  0  0  0  0  0  0  0  0  0
  -26.3290  -34.3360   23.9150 C   0  0  0  0  0  0  0  0  0  0  0  0
  -27.0680  -34.4570   22.9340 O   0  0  0  0  0  0  0  0  0  0  0  0
  -25.3890  -33.1230   25.2360 H   0  0  0  0  0  0  0  0  0  0  0  0
  -24.4630  -36.0090   23.7200 C   0  0  0  0  0  1  0  0  0  0  0  0
  -25.6880  -35.5850   24.5470 C   0  0  0  0  0  3  0  0  0  0  0  0
  -27.6890  -36.4930   25.6440 C   0  0  0  0  0  1  0  0  0  0  0  0
  -26.6220  -36.7260   24.6750 N   0  0  0  0  0  0  0  0  0  0  0  0
  -26.1260  -37.5710   24.9470 H   0  0  0  0  0  0  0  0  0  0  0  0
  -27.0330  -30.9340   25.1120 C   0  0  1  0  0  0  0  0  0  0  0  0
  -25.9210  -30.4260   26.0580 C   0  0  0  0  0  1  0  0  0  0  0  0
  -27.7660  -29.6990   24.5380 C   0  0  0  0  0  1  0  0  0  0  0  0
  -28.0680  -31.7070   25.9640 C   0  0  0  0  0  1  0  0  0  0  0  0
  2  1  2  0
  3  4  2  0
  4  1  1  0
  4 13  1  0
  5  2  1  0
  6  5  2  0
  6  3  1  0
  7  8  1  0
  7  6  1  0
  8  9  1  0
  9 12  1  0
  9 11  1  0
 10  8  2  0
 14 15  1  0
 14 13  1  0
 16 29  1  0
 17 22  1  0
 18 19  1  0
 18 17  1  0
 20 19  1  0
 20 21  1  0
 20 33  1  0
 22 16  1  0
 22 21  1  0
 23 16  2  0
 24 28  1  0
 26 29  1  0
 26 24  1  0
 27 25  1  0
 28 25  1  0
 28 15  1  0
 29 27  1  0
 30 55  1  0
 30 31  2  0
 31 50  1  0
 32 35  1  0
 32 31  1  0
 33 34  1  0
 33 30  1  0
 34 32  2  0
 35 36  1  0
 36 37  2  0
 38 41  1  0
 38 37  1  0
 39 38  2  0
 40 39  1  0
 40 35  2  0
 41 42  1  0
 42 43  1  0
 43 44  2  0
 45 44  1  0
 45 49  1  0
 46 45  2  0
 47 42  2  0
 47 46  1  0
 48 47  1  0
 50 51  1  0
 51 53  1  0
 51 54  1  0
 52 50  2  0
 55 56  1  0
 57 55  1  0
 58 59  1  0
 58  5  1  0
 60 62  1  0
 60 59  1  0
 61 72  2  0
 62 67  1  0
 63 71  1  0
 63 73  1  0
 64 70  1  0
 64 66  1  0
 65 71  1  0
 66 65  1  0
 67 66  2  0
 68 69  1  0
 68 62  2  0
 69 64  2  0
 70 63  1  0
 71 61  1  0
 73 75  2  0
 74 73  1  0
 76 74  1  0
 77 86  2  0
 77 82  1  0
 78 74  1  0
 78 82  1  0
 79 78  1  0
 80 81  1  0
 80 79  1  0
 81 77  1  0
 82 83  2  0
 83 84  1  0
 85 84  2  0
 86 85  1  0
 87 61  1  0
 87 88  1  0
 87 97  1  0
 88 91  1  0
 89 88  1  0
 89 93  1  0
 90 89  2  0
 93 92  1  0
 93 95  1  0
 95 96  1  0
 95 94  1  0
 97100  1  1
 97 98  1  0
 99 97  1  0
M  ISO  4  16 100  29 100  59 101  60 101
M  END
>  <TORSDO>  (62) 
F 23

>  <SCORE>  (62) 
-0.842

>  <name>  (62) 
61

>  <ligand_id>  (62) 
61

>  <original_smiles>  (62) 
[H]c1c([H])c([H])c2c(c1[H])C([H])([H])C([H])([H])C([H])([H])C2([H])N([H])C(=O)C1([H])N(C(=O)C([H])(N([H])C(=O)C([H])(N([H])C([H])([H])[H])C([H])([H])[H])C(C([H])([H])[H])(C([H])([H])[H])C([H])([H])[H])C([H])([H])c2c([H])c(OC([H])([H])C([H])([H])c3c([H])c([H])c(C([H])([H])C([H])([H])C([H])([H])C4([H])C([H])([H])C([H])([H])N(C(=O)N5C([H])([H])C([H])([H])C([H])([H])C([H])(n6nc(-c7c([H])c([H])c(Oc8c([H])c([H])c(F)c([H])c8F)c([H])c7[H])c(C(=O)N([H])[H])c6N([H])[H])C5([H])[H])C([H])([H])C4([H])[H])c([H])c3C([H])([H])C(=O)N([H])[H])c([H])c([H])c2C1([H])[H]

>  <smiles>  (62) 
[H]c1c([H])c([H])c2c(c1[H])C([H])([H])C([H])([H])C([H])([H])C2([H])N([H])C(=O)C1([H])N(C(=O)C([H])(N([H])C(=O)C([H])(N([H])C([H])([H])[H])C([H])([H])[H])C(C([H])([H])[H])(C([H])([H])[H])C([H])([H])[H])C([H])([H])c2c([H])c(OC([H])([H])C([H])([H])c3c([H])c([H])c(C([H])([H])C([H])([H])C([H])([H])C4([H])C([H])([H])C([H])([H])N(C(=O)N5C([H])([H])C([H])([H])C([H])([H])C([H])(n6nc(-c7c([H])c([H])c(Oc8c([H])c([H])c(F)c([H])c8F)c([H])c7[H])c(C(=O)N([H])[H])c6N([H])[H])C5([H])[H])C([H])([H])C4([H])[H])c([H])c3C([H])([H])C(=O)N([H])[H])c([H])c([H])c2C1([H])[H]

$$$$
62:0:0
     RDKit          3D

 94102  0  0  1  0  0  0  0  0999 V2000
  -28.5400  -21.5270   21.6030 C   0  0  0  0  0  3  0  0  0  0  0  0
  -28.6250  -22.3820   19.3210 C   0  0  0  0  0  3  0  0  0  0  0  0
  -28.6670  -22.8380   22.1020 C   0  0  0  0  0  3  0  0  0  0  0  0
  -28.7430  -23.6910   19.8180 C   0  0  0  0  0  3  0  0  0  0  0  0
  -28.4950  -21.2930   20.2090 C   0  0  0  0  0  0  0  0  0  0  0  0
  -28.7530  -23.9220   21.2080 C   0  0  0  0  0  0  0  0  0  0  0  0
  -28.3520  -19.9260   19.6450 C   0  0  0  0  0  0  0  0  0  0  0  0
  -28.5840  -19.6570   18.4630 O   0  0  0  0  0  0  0  0  0  0  0  0
  -27.8260  -18.8300   20.5730 C   0  0  0  0  0  2  0  0  0  0  0  0
  -28.4670  -17.4590   20.3100 C   0  0  0  0  0  2  0  0  0  0  0  0
  -29.9810  -17.3880   20.5880 C   0  0  0  0  0  2  0  0  0  0  0  0
  -30.4020  -15.9300   20.7710 C   0  0  0  0  0  2  0  0  0  0  0  0
  -31.8920  -15.6940   21.0650 C   0  0  0  0  0  2  0  0  0  0  0  0
  -32.3590  -13.2710   20.7910 C   0  0  0  0  0  0  0  0  0  0  0  0
  -31.8990  -10.8680   20.4720 C   0  0  0  0  0  2  0  0  0  0  0  0
  -31.0800  -10.6140   19.1950 C   0  0  0  0  0  2  0  0  0  0  0  0
  -29.5700  -10.7630   19.4660 C   0  0  0  0  0  2  0  0  0  0  0  0
  -29.2320  -12.0870   20.1950 C   0  0  0  0  0  3  0  0  0  0  0  0
  -30.1460  -12.2680   21.4260 C   0  0  0  0  0  2  0  0  0  0  0  0
  -31.5610  -12.1950   20.9960 N   0  0  0  0  0  0  0  0  0  0  0  0
  -33.3640  -13.2760   20.0720 O   0  0  0  0  0  0  0  0  0  0  0  0
  -31.9930  -14.3210   21.5250 N   0  0  0  0  0  0  0  0  0  0  0  0
  -31.3350  -14.0800   22.2520 H   0  0  0  0  0  0  0  0  0  0  0  0
  -26.9870  -13.2580   20.6980 C   0  0  0  0  0  0  0  0  0  0  0  0
  -25.7450  -12.7640   20.9910 C   0  0  0  0  0  0  0  0  0  0  0  0
  -25.8800  -11.3420   21.0060 C   0  0  0  0  0  0  0  0  0  0  0  0
  -27.8160  -12.1530   20.5600 N   0  0  0  0  0  0  0  0  0  0  0  0
  -27.1440  -10.9970   20.7970 N   0  0  0  0  0  0  0  0  0  0  0  0
  -24.8700  -10.2860   21.1510 C   0  0  0  0  0  0  0  0  0  0  0  0
  -24.9940   -9.2800   22.1350 C   0  0  0  0  0  3  0  0  0  0  0  0
  -24.0020   -8.2860   22.2680 C   0  0  0  0  0  3  0  0  0  0  0  0
  -22.8720   -8.2900   21.4160 C   0  0  0  0  0  0  0  0  0  0  0  0
  -22.7650   -9.2820   20.4250 C   0  0  0  0  0  3  0  0  0  0  0  0
  -23.7550  -10.2680   20.2900 C   0  0  0  0  0  3  0  0  0  0  0  0
  -21.8750   -7.3460   21.4530 O   0  0  0  0  0  0  0  0  0  0  0  0
  -21.5640   -6.6730   22.6070 C   0  0  0  0  0  0  0  0  0  0  0  0
  -21.1960   -7.3530   23.7890 C   0  0  0  0  0  3  0  0  0  0  0  0
  -20.8170   -6.6220   24.9330 C   0  0  0  0  0  3  0  0  0  0  0  0
  -20.7950   -5.2150   24.8940 C   0  0  0  0  0  0  0  0  0  0  0  0
  -21.1540   -4.5360   23.7160 C   0  0  0  0  0  3  0  0  0  0  0  0
  -21.5340   -5.2630   22.5750 C   0  0  0  0  0  0  0  0  0  0  0  0
  -21.8580   -4.6060   21.4360 F   0  0  0  0  0  0  0  0  0  0  0  0
  -20.4240   -4.5130   25.9900 F   0  0  0  0  0  0  0  0  0  0  0  0
  -24.4800  -13.5560   21.1520 C   0  0  0  0  0  0  0  0  0  0  0  0
  -23.5630  -13.0850   21.9910 N   0  0  0  0  0  0  0  0  0  0  0  0
  -24.3160  -14.6270   20.5690 O   0  0  0  0  0  0  0  0  0  0  0  0
  -23.7170  -12.2280   22.5010 H   0  0  0  0  0  0  0  0  0  0  0  0
  -22.7120  -13.6050   22.1480 H   0  0  0  0  0  0  0  0  0  0  0  0
  -27.4790  -14.5480   20.5210 N   0  0  0  0  0  0  0  0  0  0  0  0
  -26.8830  -15.3670   20.5660 H   0  0  0  0  0  0  0  0  0  0  0  0
  -28.4330  -14.7620   20.2610 H   0  0  0  0  0  0  0  0  0  0  0  0
  -28.8440  -25.3430   21.7160 C   0  0  0  0  0  2  0  0  0  0  0  0
  -30.1220  -26.0550   21.2340 C   0  0  0  0  0  2  0  0  0  0  0  0
  -29.9830  -27.4680   21.3690 O   0  0  0  0  0  0  0  0  0  0  0  0
  -25.0540  -32.0100   23.6840 C   0  0  0  0  0  0  0  0  0  0  0  0
  -28.7290  -27.9910   21.1510 C   0  0  0  0  0  0  0  0  0  0  0  0
  -24.3280  -30.4730   21.8860 C   0  0  0  0  0  3  0  0  0  0  0  0
  -26.1820  -29.1420   20.7540 C   0  0  0  0  0  0  0  0  0  0  0  0
  -26.7810  -31.1610   22.1030 C   0  0  0  0  0  2  0  0  0  0  0  0
  -27.1460  -29.8180   21.5110 C   0  0  0  0  0  0  0  0  0  0  0  0
  -28.4230  -29.2510   21.7060 C   0  0  0  0  0  3  0  0  0  0  0  0
  -27.7430  -27.3150   20.3960 C   0  0  0  0  0  3  0  0  0  0  0  0
  -26.4730  -27.8850   20.1970 C   0  0  0  0  0  3  0  0  0  0  0  0
  -24.8490  -29.8300   20.5740 C   0  0  0  0  0  2  0  0  0  0  0  0
  -25.3940  -31.2300   22.6190 N   0  0  0  0  0  0  0  0  0  0  0  0
  -23.8710  -32.1410   24.0290 O   0  0  0  0  0  0  0  0  0  0  0  0
  -23.6590  -29.3740   22.7400 C   0  0  0  0  0  0  0  0  0  0  0  0
  -22.3880  -29.0690   22.4300 N   0  0  0  0  0  0  0  0  0  0  0  0
  -24.2840  -28.7980   23.6340 O   0  0  0  0  0  0  0  0  0  0  0  0
  -21.9430  -29.5910   21.6880 H   0  0  0  0  0  0  0  0  0  0  0  0
  -19.0670  -27.6560   22.5550 C   0  0  0  0  0  0  0  0  0  0  0  0
  -21.5700  -28.0410   23.0710 C   0  0  0  0  0  3  0  0  0  0  0  0
  -21.8110  -26.6560   22.4280 C   0  0  0  0  0  2  0  0  0  0  0  0
  -20.8240  -26.3320   21.3030 C   0  0  0  0  0  2  0  0  0  0  0  0
  -19.3840  -26.3610   21.8270 C   0  0  0  0  0  2  0  0  0  0  0  0
  -20.0950  -28.4530   23.1260 C   0  0  0  0  0  0  0  0  0  0  0  0
  -19.7490  -29.6660   23.7610 C   0  0  0  0  0  3  0  0  0  0  0  0
  -18.4070  -30.0830   23.8330 C   0  0  0  0  0  3  0  0  0  0  0  0
  -17.3910  -29.2830   23.2820 C   0  0  0  0  0  3  0  0  0  0  0  0
  -17.7220  -28.0710   22.6490 C   0  0  0  0  0  3  0  0  0  0  0  0
  -26.1290  -32.7940   24.5000 C   0  0  0  0  0  3  0  0  0  0  0  0
  -25.6570  -34.1780   24.6370 N   0  0  0  0  0  0  0  0  0  0  0  0
  -26.0530  -35.1960   23.8600 C   0  0  0  0  0  0  0  0  0  0  0  0
  -26.9190  -35.0760   22.9890 O   0  0  0  0  0  0  0  0  0  0  0  0
  -24.9080  -34.3390   25.2950 H   0  0  0  0  0  0  0  0  0  0  0  0
  -24.2850  -36.7780   23.0280 C   0  0  0  0  0  1  0  0  0  0  0  0
  -25.3800  -36.5620   24.0850 C   0  0  0  0  0  3  0  0  0  0  0  0
  -27.2630  -37.6950   25.1780 C   0  0  0  0  0  1  0  0  0  0  0  0
  -26.3290  -37.6970   24.0570 N   0  0  0  0  0  0  0  0  0  0  0  0
  -25.8320  -38.5840   24.0600 H   0  0  0  0  0  0  0  0  0  0  0  0
  -26.4190  -32.1590   25.9150 C   0  0  1  0  0  0  0  0  0  0  0  0
  -25.1440  -31.8400   26.7270 C   0  0  0  0  0  1  0  0  0  0  0  0
  -27.2270  -30.8480   25.7670 C   0  0  0  0  0  1  0  0  0  0  0  0
  -27.2910  -33.1240   26.7540 C   0  0  0  0  0  1  0  0  0  0  0  0
  1  3  1  0
  2  4  2  0
  2  5  1  0
  4  6  1  0
  5  1  2  0
  6 52  1  0
  6  3  2  0
  7  5  1  0
  7  9  1  0
  8  7  2  0
 10  9  1  0
 10 11  1  0
 11 12  1  0
 12 13  1  0
 13 22  1  0
 14 20  1  0
 14 22  1  0
 15 20  1  0
 16 17  1  0
 16 15  1  0
 18 17  1  0
 18 27  1  0
 18 19  1  0
 20 19  1  0
 21 14  2  0
 22 23  1  0
 24 25  2  0
 25 26  1  0
 25 44  1  0
 26 29  1  0
 27 24  1  0
 27 28  1  0
 28 26  2  0
 29 30  1  0
 30 31  2  0
 32 35  1  0
 32 31  1  0
 33 32  2  0
 34 33  1  0
 34 29  2  0
 35 36  1  0
 36 37  1  0
 37 38  2  0
 39 38  1  0
 39 43  1  0
 40 39  2  0
 41 36  2  0
 41 40  1  0
 42 41  1  0
 44 45  1  0
 45 48  1  0
 45 47  1  0
 46 44  2  0
 49 50  1  0
 49 24  1  0
 51 49  1  0
 53 54  1  0
 53 52  1  0
 55 66  2  0
 56 54  1  0
 56 61  1  0
 57 65  1  0
 57 67  1  0
 58 60  1  0
 59 65  1  0
 60 61  2  0
 60 59  1  0
 62 56  2  0
 63 62  1  0
 63 58  2  0
 64 58  1  0
 64 57  1  0
 65 55  1  0
 67 69  2  0
 68 67  1  0
 70 68  1  0
 71 80  2  0
 71 76  1  0
 72 68  1  0
 72 76  1  0
 73 72  1  0
 74 75  1  0
 74 73  1  0
 75 71  1  0
 76 77  2  0
 77 78  1  0
 79 78  2  0
 80 79  1  0
 81 55  1  0
 81 82  1  0
 81 91  1  0
 82 85  1  0
 83 87  1  0
 83 82  1  0
 84 83  2  0
 87 86  1  0
 89 90  1  0
 89 87  1  0
 89 88  1  0
 91 92  1  1
 91 94  1  0
 93 91  1  0
M  ISO  4  14 100  22 100  53 101  54 101
M  END
>  <TORSDO>  (63) 
F 24

>  <SCORE>  (63) 
-10.103

>  <name>  (63) 
62

>  <ligand_id>  (63) 
62

>  <original_smiles>  (63) 
[H]c1c([H])c([H])c2c(c1[H])C([H])([H])C([H])([H])C([H])([H])C2([H])N([H])C(=O)C1([H])N(C(=O)C([H])(N([H])C(=O)C([H])(N([H])C([H])([H])[H])C([H])([H])[H])C(C([H])([H])[H])(C([H])([H])[H])C([H])([H])[H])C([H])([H])c2c([H])c(OC([H])([H])C([H])([H])c3c([H])c([H])c(C(=O)C([H])([H])C([H])([H])C([H])([H])C([H])([H])C([H])([H])N([H])C(=O)N4C([H])([H])C([H])([H])C([H])([H])C([H])(n5nc(-c6c([H])c([H])c(Oc7c([H])c([H])c(F)c([H])c7F)c([H])c6[H])c(C(=O)N([H])[H])c5N([H])[H])C4([H])[H])c([H])c3[H])c([H])c([H])c2C1([H])[H]

>  <smiles>  (63) 
[H]c1c([H])c([H])c2c(c1[H])C([H])([H])C([H])([H])C([H])([H])C2([H])N([H])C(=O)C1([H])N(C(=O)C([H])(N([H])C(=O)C([H])(N([H])C([H])([H])[H])C([H])([H])[H])C(C([H])([H])[H])(C([H])([H])[H])C([H])([H])[H])C([H])([H])c2c([H])c(OC([H])([H])C([H])([H])c3c([H])c([H])c(C(=O)C([H])([H])C([H])([H])C([H])([H])C([H])([H])C([H])([H])N([H])C(=O)N4C([H])([H])C([H])([H])C([H])([H])C([H])(n5nc(-c6c([H])c([H])c(Oc7c([H])c([H])c(F)c([H])c7F)c([H])c6[H])c(C(=O)N([H])[H])c5N([H])[H])C4([H])[H])c([H])c3[H])c([H])c([H])c2C1([H])[H]

$$$$
63:0:0
     RDKit          3D

 99107  0  0  1  0  0  0  0  0999 V2000
  -27.8160  -21.2790   21.3540 C   0  0  0  0  0  2  0  0  0  0  0  0
  -27.8800  -22.3180   20.2120 C   0  0  0  0  0  2  0  0  0  0  0  0
  -27.1380  -24.2850   21.7150 C   0  0  0  0  0  1  0  0  0  0  0  0
  -26.8930  -23.4890   20.4170 C   0  0  0  0  0  3  0  0  0  0  0  0
  -26.8400  -24.3660   19.2220 N   0  0  0  0  0  4  0  0  0  0  0  0
  -26.4640  -23.8250   18.4560 H   0  0  0  0  0  0  0  0  0  0  0  0
  -26.1750  -25.1040   19.3940 H   0  0  0  0  0  0  0  0  0  0  0  0
  -28.1070  -25.0000   18.7810 C   0  0  0  0  0  2  0  0  0  0  0  0
  -28.0840  -26.5200   19.0060 C   0  0  0  0  0  2  0  0  0  0  0  0
  -27.2330  -27.1050   18.0210 O   0  0  0  0  0  0  0  0  0  0  0  0
  -24.4830  -31.3620   23.0480 C   0  0  0  0  0  0  0  0  0  0  0  0
  -26.1620  -27.8020   18.5150 C   0  0  0  0  0  0  0  0  0  0  0  0
  -22.8820  -30.3980   21.4290 C   0  0  0  0  0  3  0  0  0  0  0  0
  -23.9130  -29.2410   19.4060 C   0  0  0  0  0  0  0  0  0  0  0  0
  -25.3250  -30.7880   20.7770 C   0  0  0  0  0  2  0  0  0  0  0  0
  -25.1960  -29.6070   19.8380 C   0  0  0  0  0  0  0  0  0  0  0  0
  -26.3250  -28.8830   19.4040 C   0  0  0  0  0  3  0  0  0  0  0  0
  -24.8710  -27.4500   18.0740 C   0  0  0  0  0  3  0  0  0  0  0  0
  -23.7420  -28.1560   18.5300 C   0  0  0  0  0  3  0  0  0  0  0  0
  -22.7580  -30.0680   19.9190 C   0  0  0  0  0  2  0  0  0  0  0  0
  -24.2600  -30.8510   21.8050 N   0  0  0  0  0  0  0  0  0  0  0  0
  -23.5560  -31.5010   23.8570 O   0  0  0  0  0  0  0  0  0  0  0  0
  -22.3920  -29.1760   22.2380 C   0  0  0  0  0  0  0  0  0  0  0  0
  -21.0800  -28.8980   22.1670 N   0  0  0  0  0  0  0  0  0  0  0  0
  -23.1850  -28.4860   22.8830 O   0  0  0  0  0  0  0  0  0  0  0  0
  -20.4980  -29.5150   21.6190 H   0  0  0  0  0  0  0  0  0  0  0  0
  -17.9090  -27.1850   22.4380 C   0  0  0  0  0  0  0  0  0  0  0  0
  -20.3980  -27.7810   22.8170 C   0  0  0  0  0  3  0  0  0  0  0  0
  -20.7220  -26.4410   22.1130 C   0  0  0  0  0  2  0  0  0  0  0  0
  -19.6980  -26.0690   21.0380 C   0  0  0  0  0  2  0  0  0  0  0  0
  -18.2960  -25.9490   21.6440 C   0  0  0  0  0  2  0  0  0  0  0  0
  -18.8970  -28.0550   22.9750 C   0  0  0  0  0  0  0  0  0  0  0  0
  -18.4800  -29.2090   23.6720 C   0  0  0  0  0  3  0  0  0  0  0  0
  -17.1130  -29.4970   23.8400 C   0  0  0  0  0  3  0  0  0  0  0  0
  -16.1410  -28.6210   23.3260 C   0  0  0  0  0  3  0  0  0  0  0  0
  -16.5410  -27.4680   22.6290 C   0  0  0  0  0  3  0  0  0  0  0  0
  -25.9040  -31.8160   23.5020 C   0  0  0  0  0  3  0  0  0  0  0  0
  -26.5530  -30.8610   24.5790 C   0  0  1  0  0  0  0  0  0  0  0  0
  -25.6340  -30.5730   25.7890 C   0  0  0  0  0  1  0  0  0  0  0  0
  -26.9370  -29.5050   23.9420 C   0  0  0  0  0  1  0  0  0  0  0  0
  -27.8640  -31.4850   25.1140 C   0  0  0  0  0  1  0  0  0  0  0  0
  -25.7830  -33.1810   24.0280 N   0  0  0  0  0  0  0  0  0  0  0  0
  -26.1790  -34.2820   23.3750 C   0  0  0  0  0  0  0  0  0  0  0  0
  -26.7580  -34.2440   22.2850 O   0  0  0  0  0  0  0  0  0  0  0  0
  -25.2670  -33.2900   24.8880 H   0  0  0  0  0  0  0  0  0  0  0  0
  -24.6810  -36.3020   23.3550 C   0  0  0  0  0  1  0  0  0  0  0  0
  -25.8870  -35.6410   24.0390 C   0  0  0  0  0  3  0  0  0  0  0  0
  -28.1410  -36.1330   24.8710 C   0  0  0  0  0  1  0  0  0  0  0  0
  -27.0400  -36.5670   24.0180 N   0  0  0  0  0  0  0  0  0  0  0  0
  -26.7590  -37.4950   24.3200 H   0  0  0  0  0  0  0  0  0  0  0  0
  -28.6320  -19.9870   21.1260 C   0  0  0  0  0  2  0  0  0  0  0  0
  -32.7080  -19.9290   19.5530 C   0  0  0  0  0  3  0  0  0  0  0  0
  -32.0190  -21.1540   19.5750 C   0  0  0  0  0  3  0  0  0  0  0  0
  -30.7660  -18.8350   20.5230 C   0  0  0  0  0  3  0  0  0  0  0  0
  -32.0890  -18.7620   20.0390 C   0  0  0  0  0  0  0  0  0  0  0  0
  -30.0530  -20.0580   20.5460 C   0  0  0  0  0  0  0  0  0  0  0  0
  -30.7070  -21.2350   20.0840 C   0  0  0  0  0  0  0  0  0  0  0  0
  -30.1330  -22.4710   20.1270 O   0  0  0  0  0  0  0  0  0  0  0  0
  -30.7150  -23.1620   19.8310 H   0  0  0  0  0  0  0  0  0  0  0  0
  -32.8700  -17.4560   20.0630 C   0  0  0  0  0  2  0  0  0  0  0  0
  -32.6710  -16.5740   18.8180 C   0  0  0  0  0  2  0  0  0  0  0  0
  -31.9510  -14.2520   18.4720 C   0  0  0  0  0  0  0  0  0  0  0  0
  -31.6780  -11.8250   18.7710 C   0  0  0  0  0  2  0  0  0  0  0  0
  -30.6300  -11.2220   17.8220 C   0  0  0  0  0  2  0  0  0  0  0  0
  -29.2250  -11.3160   18.4400 C   0  0  0  0  0  2  0  0  0  0  0  0
  -28.8970  -12.7410   18.9550 C   0  0  0  0  0  3  0  0  0  0  0  0
  -30.0450  -13.3060   19.8210 C   0  0  0  0  0  2  0  0  0  0  0  0
  -31.3060  -13.2160   19.0640 N   0  0  0  0  0  0  0  0  0  0  0  0
  -32.7880  -14.1130   17.5740 O   0  0  0  0  0  0  0  0  0  0  0  0
  -31.7690  -15.4450   19.0480 N   0  0  0  0  0  0  0  0  0  0  0  0
  -31.1030  -15.5040   19.8040 H   0  0  0  0  0  0  0  0  0  0  0  0
  -26.9180  -13.8450   20.1770 C   0  0  0  0  0  0  0  0  0  0  0  0
  -25.7540  -13.3330   20.6820 C   0  0  0  0  0  0  0  0  0  0  0  0
  -25.8060  -11.9240   20.4470 C   0  0  0  0  0  0  0  0  0  0  0  0
  -27.6220  -12.7640   19.6690 N   0  0  0  0  0  0  0  0  0  0  0  0
  -26.9620  -11.5950   19.8850 N   0  0  0  0  0  0  0  0  0  0  0  0
  -24.8000  -10.8780   20.6700 C   0  0  0  0  0  0  0  0  0  0  0  0
  -25.0520   -9.7800   21.5220 C   0  0  0  0  0  3  0  0  0  0  0  0
  -24.0600   -8.7980   21.7350 C   0  0  0  0  0  3  0  0  0  0  0  0
  -22.8020   -8.9090   21.0970 C   0  0  0  0  0  0  0  0  0  0  0  0
  -22.5650   -9.9920   20.2320 C   0  0  0  0  0  3  0  0  0  0  0  0
  -23.5550  -10.9660   20.0170 C   0  0  0  0  0  3  0  0  0  0  0  0
  -21.7890   -7.9900   21.2240 O   0  0  0  0  0  0  0  0  0  0  0  0
  -21.6040   -7.2790   22.3830 C   0  0  0  0  0  0  0  0  0  0  0  0
  -21.3350   -7.9160   23.6140 C   0  0  0  0  0  3  0  0  0  0  0  0
  -21.0820   -7.1450   24.7650 C   0  0  0  0  0  3  0  0  0  0  0  0
  -21.0870   -5.7390   24.6870 C   0  0  0  0  0  0  0  0  0  0  0  0
  -21.3520   -5.1030   23.4620 C   0  0  0  0  0  3  0  0  0  0  0  0
  -21.6040   -5.8710   22.3120 C   0  0  0  0  0  0  0  0  0  0  0  0
  -21.8350   -5.2520   21.1290 F   0  0  0  0  0  0  0  0  0  0  0  0
  -20.8370   -4.9970   25.7930 F   0  0  0  0  0  0  0  0  0  0  0  0
  -24.6140  -14.1120   21.2720 C   0  0  0  0  0  0  0  0  0  0  0  0
  -23.9040  -13.5300   22.2310 N   0  0  0  0  0  0  0  0  0  0  0  0
  -24.3760  -15.2650   20.9140 O   0  0  0  0  0  0  0  0  0  0  0  0
  -24.1130  -12.5910   22.5370 H   0  0  0  0  0  0  0  0  0  0  0  0
  -23.1420  -14.0300   22.6670 H   0  0  0  0  0  0  0  0  0  0  0  0
  -27.4260  -15.1380   20.0850 N   0  0  0  0  0  0  0  0  0  0  0  0
  -26.9090  -15.9490   20.4020 H   0  0  0  0  0  0  0  0  0  0  0  0
  -28.3080  -15.3750   19.6460 H   0  0  0  0  0  0  0  0  0  0  0  0
  2  4  1  0
  2  1  1  0
  4  3  1  0
  5  7  1  0
  5  4  1  0
  6  5  1  0
  8  9  1  0
  8  5  1  0
 10 12  1  0
 10  9  1  0
 11 22  2  0
 12 17  1  0
 13 21  1  0
 13 23  1  0
 14 16  1  0
 14 20  1  0
 15 21  1  0
 16 15  1  0
 17 16  2  0
 18 12  2  0
 18 19  1  0
 19 14  2  0
 20 13  1  0
 21 11  1  0
 23 25  2  0
 24 23  1  0
 26 24  1  0
 27 36  2  0
 27 32  1  0
 28 24  1  0
 28 32  1  0
 29 28  1  0
 30 31  1  0
 30 29  1  0
 31 27  1  0
 32 33  2  0
 33 34  1  0
 35 34  2  0
 36 35  1  0
 37 11  1  0
 37 42  1  0
 37 38  1  0
 38 41  1  1
 38 39  1  0
 40 38  1  0
 42 45  1  0
 43 42  1  0
 43 47  1  0
 44 43  2  0
 47 46  1  0
 49 47  1  0
 49 50  1  0
 49 48  1  0
 51  1  1  0
 52 53  2  0
 52 55  1  0
 53 57  1  0
 54 56  1  0
 55 60  1  0
 55 54  2  0
 56 51  1  0
 57 58  1  0
 57 56  2  0
 59 58  1  0
 61 70  1  0
 61 60  1  0
 62 70  1  0
 62 68  1  0
 63 68  1  0
 64 65  1  0
 64 63  1  0
 66 65  1  0
 66 75  1  0
 66 67  1  0
 68 67  1  0
 69 62  2  0
 70 71  1  0
 72 73  2  0
 73 92  1  0
 74 77  1  0
 74 73  1  0
 75 76  1  0
 75 72  1  0
 76 74  2  0
 77 78  1  0
 78 79  2  0
 80 83  1  0
 80 79  1  0
 81 80  2  0
 82 81  1  0
 82 77  2  0
 83 84  1  0
 84 85  1  0
 85 86  2  0
 87 86  1  0
 87 91  1  0
 88 87  2  0
 89 84  2  0
 89 88  1  0
 90 89  1  0
 92 93  1  0
 93 95  1  0
 93 96  1  0
 94 92  2  0
 97 72  1  0
 97 98  1  0
 99 97  1  0
M  ISO  4   9 101  10 101  62 100  70 100
M  END
>  <TORSDO>  (64) 
F 26

>  <SCORE>  (64) 
-8.330

>  <name>  (64) 
63

>  <ligand_id>  (64) 
63

>  <original_smiles>  (64) 
[H]Oc1c([H])c([H])c(C([H])([H])C([H])([H])N([H])C(=O)N2C([H])([H])C([H])([H])C([H])([H])C([H])(n3nc(-c4c([H])c([H])c(Oc5c([H])c([H])c(F)c([H])c5F)c([H])c4[H])c(C(=O)N([H])[H])c3N([H])[H])C2([H])[H])c([H])c1C([H])([H])C([H])([H])C([H])([H])C([H])(C([H])([H])[H])[N+]([H])([H])C([H])([H])C([H])([H])Oc1c([H])c([H])c2c(c1[H])C([H])([H])N(C(=O)C([H])(N([H])C(=O)C([H])(N([H])C([H])([H])[H])C([H])([H])[H])C(C([H])([H])[H])(C([H])([H])[H])C([H])([H])[H])C([H])(C(=O)N([H])C1([H])c3c([H])c([H])c([H])c([H])c3C([H])([H])C([H])([H])C1([H])[H])C2([H])[H]

>  <smiles>  (64) 
[H]Oc1c([H])c([H])c(C([H])([H])C([H])([H])N([H])C(=O)N2C([H])([H])C([H])([H])C([H])([H])C([H])(n3nc(-c4c([H])c([H])c(Oc5c([H])c([H])c(F)c([H])c5F)c([H])c4[H])c(C(=O)N([H])[H])c3N([H])[H])C2([H])[H])c([H])c1C([H])([H])C([H])([H])C([H])([H])C([H])(C([H])([H])[H])[N+]([H])([H])C([H])([H])C([H])([H])Oc1c([H])c([H])c2c(c1[H])C([H])([H])N(C(=O)C([H])(N([H])C(=O)C([H])(N([H])C([H])([H])[H])C([H])([H])[H])C(C([H])([H])[H])(C([H])([H])[H])C([H])([H])[H])C([H])(C(=O)N([H])C1([H])c3c([H])c([H])c([H])c([H])c3C([H])([H])C([H])([H])C1([H])[H])C2([H])[H]

$$$$
64:0:0
     RDKit          3D

 94102  0  0  1  0  0  0  0  0999 V2000
  -27.8530  -22.6100   22.6910 C   0  0  0  0  0  3  0  0  0  0  0  0
  -26.9290  -23.6510   22.4960 C   0  0  0  0  0  3  0  0  0  0  0  0
  -29.0360  -23.2680   20.6640 C   0  0  0  0  0  3  0  0  0  0  0  0
  -28.9020  -22.4000   21.7740 C   0  0  0  0  0  0  0  0  0  0  0  0
  -28.1020  -24.3130   20.4540 C   0  0  0  0  0  0  0  0  0  0  0  0
  -27.0390  -24.4920   21.3730 C   0  0  0  0  0  0  0  0  0  0  0  0
  -26.0920  -25.4520   21.1690 O   0  0  0  0  0  0  0  0  0  0  0  0
  -25.3920  -25.4310   21.8120 H   0  0  0  0  0  0  0  0  0  0  0  0
  -29.8050  -21.1950   22.0150 C   0  0  0  0  0  2  0  0  0  0  0  0
  -30.8720  -20.8630   20.9560 C   0  0  0  0  0  2  0  0  0  0  0  0
  -31.3900  -19.4250   21.1590 C   0  0  0  0  0  2  0  0  0  0  0  0
  -32.5070  -19.0080   20.1910 C   0  0  0  0  0  2  0  0  0  0  0  0
  -33.2060  -17.6950   20.6030 C   0  0  0  0  0  2  0  0  0  0  0  0
  -32.6600  -15.5100   19.5550 C   0  0  0  0  0  0  0  0  0  0  0  0
  -32.2230  -13.1690   18.9120 C   0  0  0  0  0  2  0  0  0  0  0  0
  -31.2200  -13.0660   17.7490 C   0  0  0  0  0  2  0  0  0  0  0  0
  -29.7760  -13.0470   18.2790 C   0  0  0  0  0  2  0  0  0  0  0  0
  -29.5010  -14.1970   19.2830 C   0  0  0  0  0  3  0  0  0  0  0  0
  -30.6070  -14.2720   20.3600 C   0  0  0  0  0  2  0  0  0  0  0  0
  -31.9160  -14.3810   19.6880 N   0  0  0  0  0  0  0  0  0  0  0  0
  -33.6040  -15.6040   18.7640 O   0  0  0  0  0  0  0  0  0  0  0  0
  -32.3770  -16.5020   20.4110 N   0  0  0  0  0  0  0  0  0  0  0  0
  -31.6190  -16.3460   21.0580 H   0  0  0  0  0  0  0  0  0  0  0  0
  -27.3060  -15.0640   20.3130 C   0  0  0  0  0  0  0  0  0  0  0  0
  -26.1660  -14.4190   20.7160 C   0  0  0  0  0  0  0  0  0  0  0  0
  -26.4020  -13.0280   20.4930 C   0  0  0  0  0  0  0  0  0  0  0  0
  -28.1720  -14.0730   19.8790 N   0  0  0  0  0  0  0  0  0  0  0  0
  -27.6340  -12.8360   20.0410 N   0  0  0  0  0  0  0  0  0  0  0  0
  -25.5040  -11.8740   20.6330 C   0  0  0  0  0  0  0  0  0  0  0  0
  -25.7860  -10.8260   21.5370 C   0  0  0  0  0  3  0  0  0  0  0  0
  -24.9020   -9.7340   21.6680 C   0  0  0  0  0  3  0  0  0  0  0  0
  -23.7190   -9.6830   20.8930 C   0  0  0  0  0  0  0  0  0  0  0  0
  -23.4530  -10.7180   19.9780 C   0  0  0  0  0  3  0  0  0  0  0  0
  -24.3380  -11.8010   19.8460 C   0  0  0  0  0  3  0  0  0  0  0  0
  -22.8130   -8.6510   20.9350 O   0  0  0  0  0  0  0  0  0  0  0  0
  -22.4760   -8.0360   22.1130 C   0  0  0  0  0  0  0  0  0  0  0  0
  -21.9300   -8.7550   23.1990 C   0  0  0  0  0  3  0  0  0  0  0  0
  -21.5340   -8.0720   24.3670 C   0  0  0  0  0  3  0  0  0  0  0  0
  -21.6730   -6.6740   24.4480 C   0  0  0  0  0  0  0  0  0  0  0  0
  -22.2110   -5.9560   23.3650 C   0  0  0  0  0  3  0  0  0  0  0  0
  -22.6090   -6.6350   22.2000 C   0  0  0  0  0  0  0  0  0  0  0  0
  -23.1070   -5.9380   21.1510 F   0  0  0  0  0  0  0  0  0  0  0  0
  -21.2850   -6.0150   25.5650 F   0  0  0  0  0  0  0  0  0  0  0  0
  -24.8960  -15.0600   21.1940 C   0  0  0  0  0  0  0  0  0  0  0  0
  -24.1680  -14.3900   22.0820 N   0  0  0  0  0  0  0  0  0  0  0  0
  -24.5670  -16.1840   20.8200 O   0  0  0  0  0  0  0  0  0  0  0  0
  -24.4520  -13.4760   22.4040 H   0  0  0  0  0  0  0  0  0  0  0  0
  -23.3190  -14.7980   22.4430 H   0  0  0  0  0  0  0  0  0  0  0  0
  -27.6690  -16.4070   20.2610 N   0  0  0  0  0  0  0  0  0  0  0  0
  -27.0380  -17.1540   20.5300 H   0  0  0  0  0  0  0  0  0  0  0  0
  -28.5580  -16.7460   19.9120 H   0  0  0  0  0  0  0  0  0  0  0  0
  -28.1740  -25.1640   19.1890 C   0  0  0  0  0  2  0  0  0  0  0  0
  -28.7930  -26.5720   19.3690 C   0  0  0  0  0  2  0  0  0  0  0  0
  -28.3500  -27.4970   18.3650 O   0  0  0  0  0  0  0  0  0  0  0  0
  -24.5090  -31.3050   22.9710 C   0  0  0  0  0  0  0  0  0  0  0  0
  -27.1320  -28.0600   18.6570 C   0  0  0  0  0  0  0  0  0  0  0  0
  -23.2300  -30.0780   21.2440 C   0  0  0  0  0  3  0  0  0  0  0  0
  -24.6040  -29.1160   19.3230 C   0  0  0  0  0  0  0  0  0  0  0  0
  -25.6130  -30.8780   20.7800 C   0  0  0  0  0  2  0  0  0  0  0  0
  -25.7660  -29.6940   19.8520 C   0  0  0  0  0  0  0  0  0  0  0  0
  -27.0340  -29.1650   19.5280 C   0  0  0  0  0  3  0  0  0  0  0  0
  -25.9600  -27.5150   18.0980 C   0  0  0  0  0  3  0  0  0  0  0  0
  -24.6950  -28.0210   18.4480 C   0  0  0  0  0  3  0  0  0  0  0  0
  -23.2840  -29.7280   19.7330 C   0  0  0  0  0  2  0  0  0  0  0  0
  -24.4760  -30.7600   21.7220 N   0  0  0  0  0  0  0  0  0  0  0  0
  -23.5110  -31.2860   23.7050 O   0  0  0  0  0  0  0  0  0  0  0  0
  -22.8930  -28.7960   22.0360 C   0  0  0  0  0  0  0  0  0  0  0  0
  -21.6360  -28.3380   21.9220 N   0  0  0  0  0  0  0  0  0  0  0  0
  -23.7530  -28.2230   22.7090 O   0  0  0  0  0  0  0  0  0  0  0  0
  -20.9880  -28.8700   21.3590 H   0  0  0  0  0  0  0  0  0  0  0  0
  -18.6980  -26.2530   22.1890 C   0  0  0  0  0  0  0  0  0  0  0  0
  -21.1040  -27.1270   22.5450 C   0  0  0  0  0  3  0  0  0  0  0  0
  -21.5700  -25.8630   21.7880 C   0  0  0  0  0  2  0  0  0  0  0  0
  -20.5730  -25.3920   20.7240 C   0  0  0  0  0  2  0  0  0  0  0  0
  -19.2140  -25.0880   21.3600 C   0  0  0  0  0  2  0  0  0  0  0  0
  -19.5850  -27.2160   22.7360 C   0  0  0  0  0  0  0  0  0  0  0  0
  -19.0530  -28.2950   23.4760 C   0  0  0  0  0  3  0  0  0  0  0  0
  -17.6650  -28.4140   23.6760 C   0  0  0  0  0  3  0  0  0  0  0  0
  -16.7930  -27.4490   23.1440 C   0  0  0  0  0  3  0  0  0  0  0  0
  -17.3090  -26.3710   22.4050 C   0  0  0  0  0  3  0  0  0  0  0  0
  -25.7930  -32.0000   23.5260 C   0  0  0  0  0  3  0  0  0  0  0  0
  -25.4080  -33.3470   23.9710 N   0  0  0  0  0  0  0  0  0  0  0  0
  -25.6270  -34.4690   23.2730 C   0  0  0  0  0  0  0  0  0  0  0  0
  -26.2480  -34.4850   22.2060 O   0  0  0  0  0  0  0  0  0  0  0  0
  -24.8460  -33.4040   24.8080 H   0  0  0  0  0  0  0  0  0  0  0  0
  -23.7660  -36.1540   23.1230 C   0  0  0  0  0  1  0  0  0  0  0  0
  -25.0680  -35.7830   23.8500 C   0  0  0  0  0  3  0  0  0  0  0  0
  -27.1780  -36.7520   24.6490 C   0  0  0  0  0  1  0  0  0  0  0  0
  -26.0210  -36.9110   23.7710 N   0  0  0  0  0  0  0  0  0  0  0  0
  -25.5630  -37.7880   24.0070 H   0  0  0  0  0  0  0  0  0  0  0  0
  -26.4800  -31.1960   24.6970 C   0  0  1  0  0  0  0  0  0  0  0  0
  -25.5030  -30.7800   25.8210 C   0  0  0  0  0  1  0  0  0  0  0  0
  -27.1540  -29.9120   24.1590 C   0  0  0  0  0  1  0  0  0  0  0  0
  -27.6030  -32.0500   25.3320 C   0  0  0  0  0  1  0  0  0  0  0  0
  2  1  1  0
  3  4  1  0
  4  9  1  0
  4  1  2  0
  5  3  2  0
  5  6  1  0
  6  2  2  0
  7  6  1  0
  7  8  1  0
 10 11  1  0
 10  9  1  0
 12 13  1  0
 12 11  1  0
 14 20  1  0
 14 22  1  0
 15 20  1  0
 16 17  1  0
 16 15  1  0
 18 17  1  0
 18 27  1  0
 18 19  1  0
 20 19  1  0
 21 14  2  0
 22 13  1  0
 22 23  1  0
 24 25  2  0
 25 44  1  0
 26 29  1  0
 26 25  1  0
 27 28  1  0
 27 24  1  0
 28 26  2  0
 29 30  1  0
 30 31  2  0
 32 35  1  0
 32 31  1  0
 33 32  2  0
 34 33  1  0
 34 29  2  0
 35 36  1  0
 36 41  2  0
 36 37  1  0
 37 38  2  0
 38 39  1  0
 39 43  1  0
 40 39  2  0
 41 40  1  0
 42 41  1  0
 44 45  1  0
 45 47  1  0
 45 48  1  0
 46 44  2  0
 49 24  1  0
 49 50  1  0
 51 49  1  0
 52 53  1  0
 52  5  1  0
 54 56  1  0
 54 53  1  0
 55 66  2  0
 56 61  1  0
 57 65  1  0
 57 67  1  0
 58 64  1  0
 58 60  1  0
 59 65  1  0
 60 59  1  0
 61 60  2  0
 62 63  1  0
 62 56  2  0
 63 58  2  0
 64 57  1  0
 65 55  1  0
 67 69  2  0
 68 67  1  0
 70 68  1  0
 71 80  2  0
 71 76  1  0
 72 68  1  0
 72 76  1  0
 73 72  1  0
 74 75  1  0
 74 73  1  0
 75 71  1  0
 76 77  2  0
 77 78  1  0
 79 78  2  0
 80 79  1  0
 81 55  1  0
 81 82  1  0
 81 91  1  0
 82 85  1  0
 83 87  1  0
 83 82  1  0
 84 83  2  0
 87 86  1  0
 89 87  1  0
 89 90  1  0
 89 88  1  0
 91 94  1  1
 91 92  1  0
 93 91  1  0
M  ISO  4  14 100  22 100  53 101  54 101
M  END
>  <TORSDO>  (65) 
F 24

>  <SCORE>  (65) 
-5.124

>  <name>  (65) 
64

>  <ligand_id>  (65) 
64

>  <original_smiles>  (65) 
[H]Oc1c([H])c([H])c(C([H])([H])C([H])([H])C([H])([H])C([H])([H])C([H])([H])N([H])C(=O)N2C([H])([H])C([H])([H])C([H])([H])C([H])(n3nc(-c4c([H])c([H])c(Oc5c([H])c([H])c(F)c([H])c5F)c([H])c4[H])c(C(=O)N([H])[H])c3N([H])[H])C2([H])[H])c([H])c1C([H])([H])C([H])([H])Oc1c([H])c([H])c2c(c1[H])C([H])([H])N(C(=O)C([H])(N([H])C(=O)C([H])(N([H])C([H])([H])[H])C([H])([H])[H])C(C([H])([H])[H])(C([H])([H])[H])C([H])([H])[H])C([H])(C(=O)N([H])C1([H])c3c([H])c([H])c([H])c([H])c3C([H])([H])C([H])([H])C1([H])[H])C2([H])[H]

>  <smiles>  (65) 
[H]Oc1c([H])c([H])c(C([H])([H])C([H])([H])C([H])([H])C([H])([H])C([H])([H])N([H])C(=O)N2C([H])([H])C([H])([H])C([H])([H])C([H])(n3nc(-c4c([H])c([H])c(Oc5c([H])c([H])c(F)c([H])c5F)c([H])c4[H])c(C(=O)N([H])[H])c3N([H])[H])C2([H])[H])c([H])c1C([H])([H])C([H])([H])Oc1c([H])c([H])c2c(c1[H])C([H])([H])N(C(=O)C([H])(N([H])C(=O)C([H])(N([H])C([H])([H])[H])C([H])([H])[H])C(C([H])([H])[H])(C([H])([H])[H])C([H])([H])[H])C([H])(C(=O)N([H])C1([H])c3c([H])c([H])c([H])c([H])c3C([H])([H])C([H])([H])C1([H])[H])C2([H])[H]

$$$$
65:0:0
     RDKit          3D

 98105  0  0  1  0  0  0  0  0999 V2000
  -28.1450  -24.0210   14.9010 C   0  0  0  0  0  0  0  0  0  0  0  0
  -28.0370  -25.2400   15.4360 N   0  0  0  0  0  0  0  0  0  0  0  0
  -28.8590  -23.7710   13.9280 O   0  0  0  0  0  0  0  0  0  0  0  0
  -27.3960  -25.3380   16.2110 H   0  0  0  0  0  0  0  0  0  0  0  0
  -28.8030  -26.4330   15.0790 C   0  0  0  0  0  2  0  0  0  0  0  0
  -29.5740  -26.9810   16.2980 C   0  0  0  0  0  2  0  0  0  0  0  0
  -28.7260  -27.0210   17.5820 C   0  0  0  0  0  2  0  0  0  0  0  0
  -29.4420  -27.6200   18.8040 C   0  0  0  0  0  2  0  0  0  0  0  0
  -28.7080  -27.3700   20.0040 O   0  0  0  0  0  0  0  0  0  0  0  0
  -24.7380  -32.1880   23.4250 C   0  0  0  0  0  0  0  0  0  0  0  0
  -27.5110  -28.0300   20.1020 C   0  0  0  0  0  0  0  0  0  0  0  0
  -23.5540  -30.7960   21.7550 C   0  0  0  0  0  3  0  0  0  0  0  0
  -25.0410  -29.3800   20.2460 C   0  0  0  0  0  0  0  0  0  0  0  0
  -26.0520  -31.2880   21.5100 C   0  0  0  0  0  2  0  0  0  0  0  0
  -26.1860  -29.9480   20.8210 C   0  0  0  0  0  0  0  0  0  0  0  0
  -27.4270  -29.2800   20.7490 C   0  0  0  0  0  3  0  0  0  0  0  0
  -26.3460  -27.4490   19.5580 C   0  0  0  0  0  3  0  0  0  0  0  0
  -25.1130  -28.1250   19.6160 C   0  0  0  0  0  3  0  0  0  0  0  0
  -23.7580  -30.1720   20.3490 C   0  0  0  0  0  2  0  0  0  0  0  0
  -24.8000  -31.4380   22.2890 N   0  0  0  0  0  0  0  0  0  0  0  0
  -23.6610  -32.3890   24.0020 O   0  0  0  0  0  0  0  0  0  0  0  0
  -22.9750  -29.7110   22.6910 C   0  0  0  0  0  0  0  0  0  0  0  0
  -21.6670  -29.4400   22.5510 N   0  0  0  0  0  0  0  0  0  0  0  0
  -23.6980  -29.1150   23.4920 O   0  0  0  0  0  0  0  0  0  0  0  0
  -21.1420  -29.9780   21.8760 H   0  0  0  0  0  0  0  0  0  0  0  0
  -18.3990  -27.9480   22.9410 C   0  0  0  0  0  0  0  0  0  0  0  0
  -20.9130  -28.4300   23.2950 C   0  0  0  0  0  3  0  0  0  0  0  0
  -21.1610  -27.0160   22.7210 C   0  0  0  0  0  2  0  0  0  0  0  0
  -20.1250  -26.5990   21.6730 C   0  0  0  0  0  2  0  0  0  0  0  0
  -18.7150  -26.6200   22.2730 C   0  0  0  0  0  2  0  0  0  0  0  0
  -19.4310  -28.8060   23.4050 C   0  0  0  0  0  0  0  0  0  0  0  0
  -19.0840  -30.0440   23.9870 C   0  0  0  0  0  3  0  0  0  0  0  0
  -17.7360  -30.4290   24.1100 C   0  0  0  0  0  3  0  0  0  0  0  0
  -16.7170  -29.5710   23.6620 C   0  0  0  0  0  3  0  0  0  0  0  0
  -17.0480  -28.3320   23.0840 C   0  0  0  0  0  3  0  0  0  0  0  0
  -26.0120  -32.8490   24.0410 C   0  0  0  0  0  3  0  0  0  0  0  0
  -25.6640  -34.2300   24.4020 N   0  0  0  0  0  0  0  0  0  0  0  0
  -25.9600  -35.3070   23.6610 C   0  0  0  0  0  0  0  0  0  0  0  0
  -26.6290  -35.2430   22.6260 O   0  0  0  0  0  0  0  0  0  0  0  0
  -25.0700  -34.3490   25.2090 H   0  0  0  0  0  0  0  0  0  0  0  0
  -24.1720  -37.0470   23.3450 C   0  0  0  0  0  1  0  0  0  0  0  0
  -25.4300  -36.6700   24.1450 C   0  0  0  0  0  3  0  0  0  0  0  0
  -27.5410  -37.6020   24.9810 C   0  0  0  0  0  1  0  0  0  0  0  0
  -26.4260  -37.7600   24.0520 N   0  0  0  0  0  0  0  0  0  0  0  0
  -25.9910  -38.6610   24.2310 H   0  0  0  0  0  0  0  0  0  0  0  0
  -26.5770  -32.0690   25.2900 C   0  0  1  0  0  0  0  0  0  0  0  0
  -25.5080  -31.7570   26.3630 C   0  0  0  0  0  1  0  0  0  0  0  0
  -27.2160  -30.7310   24.8520 C   0  0  0  0  0  1  0  0  0  0  0  0
  -27.7040  -32.8930   25.9580 C   0  0  0  0  0  1  0  0  0  0  0  0
  -27.3550  -22.9060   15.5910 C   0  0  0  0  0  2  0  0  0  0  0  0
  -28.2570  -21.7140   15.9670 C   0  0  0  0  0  2  0  0  0  0  0  0
  -27.7500  -20.9180   17.1840 C   0  0  0  0  0  2  0  0  0  0  0  0
  -28.2730  -18.6180   16.4480 C   0  0  0  0  0  1  0  0  0  0  0  0
  -28.5800  -19.7060   17.4090 N   0  0  2  0  0  4  0  0  0  0  0  0
  -29.5250  -20.0020   17.2140 H   0  0  0  0  0  0  0  0  0  0  0  0
  -28.6150  -19.2260   18.8150 C   0  0  0  0  0  2  0  0  0  0  0  0
  -30.0130  -18.6810   19.1700 C   0  0  0  0  0  2  0  0  0  0  0  0
  -30.0550  -17.8580   20.4690 C   0  0  0  0  0  2  0  0  0  0  0  0
  -31.4910  -17.4260   20.8290 C   0  0  0  0  0  2  0  0  0  0  0  0
  -31.5820  -16.2520   21.8260 C   0  0  0  0  0  2  0  0  0  0  0  0
  -31.4040  -14.2500   20.3300 C   0  0  0  0  0  0  0  0  0  0  0  0
  -30.8110  -12.4080   18.7990 C   0  0  0  0  0  2  0  0  0  0  0  0
  -29.8580  -12.9130   17.6980 C   0  0  0  0  0  2  0  0  0  0  0  0
  -28.3930  -12.8680   18.1730 C   0  0  0  0  0  2  0  0  0  0  0  0
  -28.1970  -13.5180   19.5670 C   0  0  0  0  0  3  0  0  0  0  0  0
  -29.2410  -12.9770   20.5670 C   0  0  0  0  0  2  0  0  0  0  0  0
  -30.5840  -13.2190   20.0030 N   0  0  0  0  0  0  0  0  0  0  0  0
  -32.4670  -14.4850   19.7460 O   0  0  0  0  0  0  0  0  0  0  0  0
  -30.9530  -15.0330   21.3210 N   0  0  0  0  0  0  0  0  0  0  0  0
  -30.0860  -14.7490   21.7540 H   0  0  0  0  0  0  0  0  0  0  0  0
  -25.8610  -14.2720   20.3450 C   0  0  0  0  0  0  0  0  0  0  0  0
  -24.7440  -13.5660   20.7020 C   0  0  0  0  0  0  0  0  0  0  0  0
  -25.1020  -12.1870   20.6020 C   0  0  0  0  0  0  0  0  0  0  0  0
  -26.8340  -13.3280   20.0550 N   0  0  0  0  0  0  0  0  0  0  0  0
  -26.3790  -12.0650   20.2620 N   0  0  0  0  0  0  0  0  0  0  0  0
  -24.2880  -10.9730   20.7530 C   0  0  0  0  0  0  0  0  0  0  0  0
  -24.6660   -9.9360   21.6330 C   0  0  0  0  0  3  0  0  0  0  0  0
  -23.8570   -8.7880   21.7730 C   0  0  0  0  0  3  0  0  0  0  0  0
  -22.6580   -8.6690   21.0330 C   0  0  0  0  0  0  0  0  0  0  0  0
  -22.3000   -9.6940   20.1410 C   0  0  0  0  0  3  0  0  0  0  0  0
  -23.1070  -10.8350   19.9980 C   0  0  0  0  0  3  0  0  0  0  0  0
  -21.8240   -7.5790   21.0860 O   0  0  0  0  0  0  0  0  0  0  0  0
  -21.7160   -6.8090   22.2160 C   0  0  0  0  0  0  0  0  0  0  0  0
  -21.3500   -7.3620   23.4620 C   0  0  0  0  0  3  0  0  0  0  0  0
  -21.1830   -6.5250   24.5820 C   0  0  0  0  0  3  0  0  0  0  0  0
  -21.3710   -5.1340   24.4580 C   0  0  0  0  0  0  0  0  0  0  0  0
  -21.7310   -4.5810   23.2160 C   0  0  0  0  0  3  0  0  0  0  0  0
  -21.9000   -5.4170   22.0980 C   0  0  0  0  0  0  0  0  0  0  0  0
  -22.2250   -4.8750   20.8990 F   0  0  0  0  0  0  0  0  0  0  0  0
  -21.2030   -4.3280   25.5320 F   0  0  0  0  0  0  0  0  0  0  0  0
  -23.3920  -14.1320   21.0280 C   0  0  0  0  0  0  0  0  0  0  0  0
  -22.6370  -13.4570   21.8880 N   0  0  0  0  0  0  0  0  0  0  0  0
  -23.0180  -15.2040   20.5560 O   0  0  0  0  0  0  0  0  0  0  0  0
  -22.9550  -12.5860   22.2900 H   0  0  0  0  0  0  0  0  0  0  0  0
  -21.7310  -13.8160   22.1500 H   0  0  0  0  0  0  0  0  0  0  0  0
  -26.1260  -15.6340   20.2270 N   0  0  0  0  0  0  0  0  0  0  0  0
  -25.4160  -16.3370   20.3940 H   0  0  0  0  0  0  0  0  0  0  0  0
  -27.0110  -16.0210   19.9260 H   0  0  0  0  0  0  0  0  0  0  0  0
  1  2  1  0
  1 50  1  0
  2  4  1  0
  3  1  2  0
  5  2  1  0
  5  6  1  0
  6  7  1  0
  7  8  1  0
  8  9  1  0
  9 11  1  0
 10 21  2  0
 11 16  1  0
 12 20  1  0
 12 22  1  0
 13 19  1  0
 13 15  1  0
 14 20  1  0
 15 14  1  0
 16 15  2  0
 17 18  1  0
 17 11  2  0
 18 13  2  0
 19 12  1  0
 20 10  1  0
 22 24  2  0
 23 22  1  0
 25 23  1  0
 26 35  2  0
 26 31  1  0
 27 23  1  0
 27 31  1  0
 28 27  1  0
 29 30  1  0
 29 28  1  0
 30 26  1  0
 31 32  2  0
 32 33  1  0
 34 33  2  0
 35 34  1  0
 36 10  1  0
 36 37  1  0
 36 46  1  0
 37 40  1  0
 38 42  1  0
 38 37  1  0
 39 38  2  0
 42 41  1  0
 44 42  1  0
 44 45  1  0
 44 43  1  0
 46 49  1  1
 46 47  1  0
 48 46  1  0
 50 51  1  0
 51 52  1  0
 52 54  1  0
 53 54  1  0
 54 56  1  0
 54 55  1  6
 56 57  1  0
 57 58  1  0
 58 59  1  0
 59 60  1  0
 61 69  1  0
 62 67  1  0
 63 64  1  0
 63 62  1  0
 65 64  1  0
 65 74  1  0
 65 66  1  0
 67 61  1  0
 67 66  1  0
 68 61  2  0
 69 70  1  0
 69 60  1  0
 71 72  2  0
 72 91  1  0
 73 72  1  0
 73 76  1  0
 74 75  1  0
 74 71  1  0
 75 73  2  0
 76 77  1  0
 77 78  2  0
 79 82  1  0
 79 78  1  0
 80 79  2  0
 81 80  1  0
 81 76  2  0
 82 83  1  0
 83 84  1  0
 84 85  2  0
 86 85  1  0
 86 90  1  0
 87 86  2  0
 88 83  2  0
 88 87  1  0
 89 88  1  0
 91 92  1  0
 92 95  1  0
 92 94  1  0
 93 91  2  0
 96 71  1  0
 96 97  1  0
 98 96  1  0
M  ISO  4   8 101   9 101  61 100  69 100
M  END
>  <TORSDO>  (66) 
F 29

>  <SCORE>  (66) 
-5.071

>  <name>  (66) 
65

>  <ligand_id>  (66) 
65

>  <original_smiles>  (66) 
[H]c1c([H])c([H])c2c(c1[H])C([H])([H])C([H])([H])C([H])([H])C2([H])N([H])C(=O)C1([H])N(C(=O)C([H])(N([H])C(=O)C([H])(N([H])C([H])([H])[H])C([H])([H])[H])C(C([H])([H])[H])(C([H])([H])[H])C([H])([H])[H])C([H])([H])c2c([H])c(OC([H])([H])C([H])([H])C([H])([H])C([H])([H])N([H])C(=O)C([H])([H])C([H])([H])C([H])([H])[N+]([H])(C([H])([H])[H])C([H])([H])C([H])([H])C([H])([H])C([H])([H])C([H])([H])N([H])C(=O)N3C([H])([H])C([H])([H])C([H])([H])C([H])(n4nc(-c5c([H])c([H])c(Oc6c([H])c([H])c(F)c([H])c6F)c([H])c5[H])c(C(=O)N([H])[H])c4N([H])[H])C3([H])[H])c([H])c([H])c2C1([H])[H]

>  <smiles>  (66) 
[H]c1c([H])c([H])c2c(c1[H])C([H])([H])C([H])([H])C([H])([H])C2([H])N([H])C(=O)C1([H])N(C(=O)C([H])(N([H])C(=O)C([H])(N([H])C([H])([H])[H])C([H])([H])[H])C(C([H])([H])[H])(C([H])([H])[H])C([H])([H])[H])C([H])([H])c2c([H])c(OC([H])([H])C([H])([H])C([H])([H])C([H])([H])N([H])C(=O)C([H])([H])C([H])([H])C([H])([H])[N+]([H])(C([H])([H])[H])C([H])([H])C([H])([H])C([H])([H])C([H])([H])C([H])([H])N([H])C(=O)N3C([H])([H])C([H])([H])C([H])([H])C([H])(n4nc(-c5c([H])c([H])c(Oc6c([H])c([H])c(F)c([H])c6F)c([H])c5[H])c(C(=O)N([H])[H])c4N([H])[H])C3([H])[H])c([H])c([H])c2C1([H])[H]

$$$$
66:0:0
     RDKit          3D

106115  0  0  1  0  0  0  0  0999 V2000
  -26.5870  -24.3460   17.8950 C   0  0  0  0  0  3  0  0  0  0  0  0
  -27.9150  -23.1500   18.1290 C   0  0  0  0  0  3  0  0  0  0  0  0
  -27.9680  -21.3590   18.2480 C   0  0  0  0  0  2  0  0  0  0  0  0
  -30.7470  -15.3690   20.2550 C   0  0  0  0  0  0  0  0  0  0  0  0
  -30.7480  -12.8760   19.6460 C   0  0  0  0  0  2  0  0  0  0  0  0
  -29.8460  -12.5720   18.4320 C   0  0  0  0  0  2  0  0  0  0  0  0
  -28.4010  -12.3190   18.8950 C   0  0  0  0  0  2  0  0  0  0  0  0
  -27.9230  -13.3570   19.9430 C   0  0  0  0  0  3  0  0  0  0  0  0
  -28.9660  -13.6280   21.0420 C   0  0  0  0  0  2  0  0  0  0  0  0
  -30.1660  -14.0800   20.3270 N   0  0  0  0  0  0  0  0  0  0  0  0
  -31.9870  -15.3060   20.2150 O   0  0  0  0  0  0  0  0  0  0  0  0
  -28.1310  -18.6960   19.5240 C   0  0  0  0  0  2  0  0  0  0  0  0
  -30.0800  -19.1750   18.4930 C   0  0  0  0  0  2  0  0  0  0  0  0
  -28.7900  -17.3460   20.2830 C   0  0  0  0  0  2  0  0  0  0  0  0
  -30.8110  -17.8900   19.2860 C   0  0  0  0  0  2  0  0  0  0  0  0
  -28.9000  -20.0990   19.1440 C   0  0  1  0  0  0  0  0  0  0  0  0
  -30.0780  -16.6450   19.8420 N   0  0  0  0  0  0  0  0  0  0  0  0
  -28.5260  -20.9920   21.5160 C   0  0  0  0  0  3  0  0  0  0  0  0
  -30.7500  -21.2180   20.5710 C   0  0  0  0  0  3  0  0  0  0  0  0
  -28.9720  -21.5850   22.7140 C   0  0  0  0  0  3  0  0  0  0  0  0
  -31.1960  -21.8160   21.7690 C   0  0  0  0  0  3  0  0  0  0  0  0
  -29.4100  -20.7750   20.4330 C   0  0  0  0  0  0  0  0  0  0  0  0
  -30.3120  -21.9920   22.8480 C   0  0  0  0  0  0  0  0  0  0  0  0
  -30.7570  -22.5540   24.0080 O   0  0  0  0  0  0  0  0  0  0  0  0
  -30.1090  -22.5350   24.7080 H   0  0  0  0  0  0  0  0  0  0  0  0
  -25.5820  -13.9380   20.7610 C   0  0  0  0  0  0  0  0  0  0  0  0
  -24.5080  -13.1710   21.1030 C   0  0  0  0  0  0  0  0  0  0  0  0
  -24.9480  -11.8130   21.0190 C   0  0  0  0  0  0  0  0  0  0  0  0
  -26.6030  -13.0540   20.4740 N   0  0  0  0  0  0  0  0  0  0  0  0
  -26.2370  -11.7670   20.7040 N   0  0  0  0  0  0  0  0  0  0  0  0
  -24.1970  -10.5610   21.1580 C   0  0  0  0  0  0  0  0  0  0  0  0
  -24.5950   -9.5590   22.0710 C   0  0  0  0  0  3  0  0  0  0  0  0
  -23.8420   -8.3720   22.2020 C   0  0  0  0  0  3  0  0  0  0  0  0
  -22.6780   -8.1810   21.4210 C   0  0  0  0  0  0  0  0  0  0  0  0
  -22.3010   -9.1710   20.4970 C   0  0  0  0  0  3  0  0  0  0  0  0
  -23.0540  -10.3500   20.3640 C   0  0  0  0  0  3  0  0  0  0  0  0
  -21.8980   -7.0510   21.4640 O   0  0  0  0  0  0  0  0  0  0  0  0
  -21.8020   -6.2880   22.5980 C   0  0  0  0  0  0  0  0  0  0  0  0
  -21.3700   -6.8290   23.8280 C   0  0  0  0  0  3  0  0  0  0  0  0
  -21.2170   -5.9920   24.9510 C   0  0  0  0  0  3  0  0  0  0  0  0
  -21.4870   -4.6150   24.8470 C   0  0  0  0  0  0  0  0  0  0  0  0
  -21.9130   -4.0730   23.6200 C   0  0  0  0  0  3  0  0  0  0  0  0
  -22.0650   -4.9060   22.5000 C   0  0  0  0  0  0  0  0  0  0  0  0
  -22.4550   -4.3740   21.3150 F   0  0  0  0  0  0  0  0  0  0  0  0
  -21.3340   -3.8100   25.9230 F   0  0  0  0  0  0  0  0  0  0  0  0
  -23.1210  -13.6620   21.3890 C   0  0  0  0  0  0  0  0  0  0  0  0
  -22.3870  -12.9600   22.2400 N   0  0  0  0  0  0  0  0  0  0  0  0
  -22.6980  -14.7080   20.8920 O   0  0  0  0  0  0  0  0  0  0  0  0
  -22.7470  -12.1120   22.6600 H   0  0  0  0  0  0  0  0  0  0  0  0
  -21.4540  -13.2660   22.4790 H   0  0  0  0  0  0  0  0  0  0  0  0
  -25.7600  -15.3120   20.6310 N   0  0  0  0  0  0  0  0  0  0  0  0
  -25.0010  -15.9670   20.7760 H   0  0  0  0  0  0  0  0  0  0  0  0
  -26.6070  -15.7530   20.3030 H   0  0  0  0  0  0  0  0  0  0  0  0
  -26.4900  -26.1460   17.8610 C   0  0  0  0  0  2  0  0  0  0  0  0
  -25.2620  -27.3700   18.4040 C   0  0  0  0  0  2  0  0  0  0  0  0
  -25.3410  -28.9810   19.2420 C   0  0  0  0  0  2  0  0  0  0  0  0
  -24.4380  -29.8890   20.5640 C   0  0  0  0  0  2  0  0  0  0  0  0
  -24.6670  -30.7350   22.2240 C   0  0  0  0  0  2  0  0  0  0  0  0
  -24.6370  -30.7000   24.1110 C   0  0  0  0  0  2  0  0  0  0  0  0
  -25.4970  -29.9300   25.6240 C   0  0  0  0  0  2  0  0  0  0  0  0
  -27.1880  -29.6180   26.1110 N   0  0  0  0  0  4  0  0  0  0  0  0
  -27.1780  -29.2620   27.0540 H   0  0  0  0  0  0  0  0  0  0  0  0
  -27.3790  -30.6140   26.2290 H   0  0  0  0  0  0  0  0  0  0  0  0
  -28.7260  -29.0900   25.4020 C   0  0  0  0  0  2  0  0  0  0  0  0
  -29.4720  -28.5610   23.7230 C   0  0  0  0  0  2  0  0  0  0  0  0
  -29.9610  -27.4330   22.5700 O   0  0  0  0  0  0  0  0  0  0  0  0
  -27.5350  -31.3890   23.8800 C   0  0  0  0  0  0  0  0  0  0  0  0
  -29.5620  -27.2290   21.2420 C   0  0  0  0  0  3  0  0  0  0  0  0
  -26.6860  -28.4840   24.0810 C   0  0  0  0  0  3  0  0  0  0  0  0
  -27.1840  -27.3640   22.2070 C   0  0  0  0  0  0  0  0  0  0  0  0
  -27.4310  -29.9340   21.9950 C   0  0  0  0  0  2  0  0  0  0  0  0
  -27.7350  -28.5250   21.5890 C   0  0  0  0  0  3  0  0  0  0  0  0
  -28.8660  -28.3380   20.8120 C   0  0  0  0  0  2  0  0  0  0  0  0
  -28.8870  -26.0110   21.3070 C   0  0  0  0  0  2  0  0  0  0  0  0
  -27.7100  -26.0860   22.0160 C   0  0  0  0  0  3  0  0  0  0  0  0
  -26.2210  -27.4080   23.2340 C   0  0  0  0  0  2  0  0  0  0  0  0
  -27.2130  -30.0170   23.4280 N   0  0  0  0  0  0  0  0  0  0  0  0
  -26.9880  -31.9580   24.8420 O   0  0  0  0  0  0  0  0  0  0  0  0
  -27.0460  -27.5660   25.3350 C   0  0  0  0  0  0  0  0  0  0  0  0
  -26.3380  -27.6310   26.4760 N   0  0  0  0  0  0  0  0  0  0  0  0
  -28.0440  -26.8790   25.2830 O   0  0  0  0  0  0  0  0  0  0  0  0
  -25.4350  -28.0860   26.4810 H   0  0  0  0  0  0  0  0  0  0  0  0
  -25.2570  -27.0220   29.7590 C   0  0  0  0  0  0  0  0  0  0  0  0
  -26.8260  -27.1470   27.7400 C   0  0  0  0  0  3  0  0  0  0  0  0
  -26.6970  -25.6140   27.7070 C   0  0  0  0  0  2  0  0  0  0  0  0
  -25.2780  -25.1790   28.0120 C   0  0  0  0  0  2  0  0  0  0  0  0
  -24.9600  -25.5660   29.4510 C   0  0  0  0  0  2  0  0  0  0  0  0
  -26.1110  -27.7980   28.9350 C   0  0  0  0  0  0  0  0  0  0  0  0
  -26.3010  -29.1650   29.2530 C   0  0  0  0  0  3  0  0  0  0  0  0
  -25.6720  -29.7310   30.3830 C   0  0  0  0  0  3  0  0  0  0  0  0
  -24.8600  -28.9390   31.2130 C   0  0  0  0  0  3  0  0  0  0  0  0
  -24.6540  -27.5880   30.8960 C   0  0  0  0  0  3  0  0  0  0  0  0
  -28.6340  -32.4590   23.4370 C   0  0  0  0  0  3  0  0  0  0  0  0
  -28.2340  -33.7670   24.0460 N   0  0  0  0  0  0  0  0  0  0  0  0
  -27.3250  -34.6020   23.5630 C   0  0  0  0  0  0  0  0  0  0  0  0
  -26.8670  -34.4500   22.4340 O   0  0  0  0  0  0  0  0  0  0  0  0
  -28.5340  -33.9170   24.9970 H   0  0  0  0  0  0  0  0  0  0  0  0
  -25.4530  -35.5900   24.9310 C   0  0  0  0  0  1  0  0  0  0  0  0
  -26.8940  -35.7960   24.4370 C   0  0  0  0  0  3  0  0  0  0  0  0
  -28.4140  -37.4470   23.4620 C   0  0  0  0  0  1  0  0  0  0  0  0
  -27.0220  -37.0870   23.7330 N   0  0  0  0  0  0  0  0  0  0  0  0
  -26.6020  -37.8410   24.2700 H   0  0  0  0  0  0  0  0  0  0  0  0
  -30.1430  -32.2950   23.9610 C   0  0  1  0  0  0  0  0  0  0  0  0
  -30.3500  -32.1340   25.5010 C   0  0  0  0  0  1  0  0  0  0  0  0
  -30.9770  -31.2570   23.1770 C   0  0  0  0  0  1  0  0  0  0  0  0
  -30.9230  -33.5920   23.6030 C   0  0  0  0  0  1  0  0  0  0  0  0
  1  2  2  0
  2  3  1  0
  4 10  1  0
  5 10  1  0
  6  7  1  0
  6  5  1  0
  8  7  1  0
  8 29  1  0
  8  9  1  0
 10  9  1  0
 11  4  2  0
 12 14  1  0
 13 16  1  0
 13 15  1  0
 15 17  1  0
 16  3  1  6
 16 12  1  0
 16 22  1  0
 17  4  1  0
 17 14  1  0
 18 20  1  0
 19 21  2  0
 20 23  2  0
 21 23  1  0
 22 19  1  0
 22 18  2  0
 23 24  1  0
 24 25  1  0
 26 27  2  0
 27 46  1  0
 28 27  1  0
 28 31  1  0
 29 30  1  0
 29 26  1  0
 30 28  2  0
 31 32  1  0
 32 33  2  0
 34 37  1  0
 34 33  1  0
 35 34  2  0
 36 35  1  0
 36 31  2  0
 37 38  1  0
 38 39  1  0
 39 40  2  0
 41 40  1  0
 41 45  1  0
 42 41  2  0
 43 38  2  0
 43 42  1  0
 44 43  1  0
 46 47  1  0
 47 50  1  0
 47 49  1  0
 48 46  2  0
 51 26  1  0
 51 52  1  0
 53 51  1  0
 54  1  1  0
 54 55  1  0
 55 56  1  0
 56 57  1  0
 57 58  1  0
 58 59  1  0
 59 60  1  0
 60 61  1  0
 61 63  1  0
 61 62  1  0
 64 61  1  0
 65 64  1  0
 66 65  1  0
 67 78  2  0
 68 74  1  0
 68 66  1  0
 69 79  1  0
 70 76  1  0
 71 77  1  0
 72 73  1  0
 72 71  1  0
 72 70  1  0
 73 68  1  0
 74 75  1  0
 75 70  2  0
 76 69  1  0
 77 67  1  0
 77 69  1  0
 79 80  1  0
 80 82  1  0
 81 79  2  0
 83 92  1  0
 84 80  1  0
 84 88  1  0
 85 84  1  0
 85 86  1  0
 86 87  1  0
 87 83  1  0
 88 89  1  0
 88 83  2  0
 89 90  2  0
 90 91  1  0
 92 91  2  0
 93 67  1  0
 93103  1  0
 93 94  1  0
 94 97  1  0
 95 94  1  0
 95 99  1  0
 96 95  2  0
 99 98  1  0
100101  1  0
101102  1  0
101 99  1  0
103104  1  1
105103  1  0
106103  1  0
M  ISO  4   4 100  17 100  65 101  66 101
M  END
>  <TORSDO>  (67) 
F 30

>  <SCORE>  (67) 
-12.908

>  <name>  (67) 
66

>  <ligand_id>  (67) 
66

>  <original_smiles>  (67) 
[H]Oc1c([H])c([H])c(C2(C([H])([H])C([H])([H])C([H])([H])C([H])([H])C([H])([H])C([H])([H])C([H])([H])C([H])([H])C([H])([H])C([H])([H])[N+]([H])([H])C([H])([H])C([H])([H])Oc3c([H])c([H])c4c(c3[H])C([H])([H])N(C(=O)C([H])(N([H])C(=O)C([H])(N([H])C([H])([H])[H])C([H])([H])[H])C(C([H])([H])[H])(C([H])([H])[H])C([H])([H])[H])C([H])(C(=O)N([H])C3([H])c5c([H])c([H])c([H])c([H])c5C([H])([H])C([H])([H])C3([H])[H])C4([H])[H])C([H])([H])C([H])([H])N(C(=O)N3C([H])([H])C([H])([H])C([H])([H])C([H])(n4nc(-c5c([H])c([H])c(Oc6c([H])c([H])c(F)c([H])c6F)c([H])c5[H])c(C(=O)N([H])[H])c4N([H])[H])C3([H])[H])C([H])([H])C2([H])[H])c([H])c1[H]

>  <smiles>  (67) 
[H]Oc1c([H])c([H])c(C2(C([H])([H])C([H])([H])C([H])([H])C([H])([H])C([H])([H])C([H])([H])C([H])([H])C([H])([H])C([H])([H])C([H])([H])[N+]([H])([H])C([H])([H])C([H])([H])Oc3c([H])c([H])c4c(c3[H])C([H])([H])N(C(=O)C([H])(N([H])C(=O)C([H])(N([H])C([H])([H])[H])C([H])([H])[H])C(C([H])([H])[H])(C([H])([H])[H])C([H])([H])[H])C([H])(C(=O)N([H])C3([H])c5c([H])c([H])c([H])c([H])c5C([H])([H])C([H])([H])C3([H])[H])C4([H])[H])C([H])([H])C([H])([H])N(C(=O)N3C([H])([H])C([H])([H])C([H])([H])C([H])(n4nc(-c5c([H])c([H])c(Oc6c([H])c([H])c(F)c([H])c6F)c([H])c5[H])c(C(=O)N([H])[H])c4N([H])[H])C3([H])[H])C([H])([H])C2([H])[H])c([H])c1[H]

$$$$
67:0:0
     RDKit          3D

 96104  0  0  1  0  0  0  0  0999 V2000
  -28.9370  -20.7140   21.1870 C   0  0  0  0  0  3  0  0  0  0  0  0
  -31.3540  -20.9720   20.9710 C   0  0  0  0  0  3  0  0  0  0  0  0
  -28.7820  -22.0930   20.9950 C   0  0  0  0  0  3  0  0  0  0  0  0
  -31.1940  -22.3610   20.7630 C   0  0  0  0  0  3  0  0  0  0  0  0
  -30.2220  -20.1350   21.1130 C   0  0  0  0  0  0  0  0  0  0  0  0
  -29.8960  -22.9160   20.7140 C   0  0  0  0  0  0  0  0  0  0  0  0
  -29.6600  -24.3550   20.3800 C   0  0  0  0  0  0  0  0  0  0  0  0
  -28.8890  -24.4940   19.2990 N   0  0  0  0  0  0  0  0  0  0  0  0
  -30.1110  -25.2840   21.0570 O   0  0  0  0  0  0  0  0  0  0  0  0
  -28.7050  -23.6250   18.8140 H   0  0  0  0  0  0  0  0  0  0  0  0
  -27.9290  -25.5540   19.0570 C   0  0  0  0  0  2  0  0  0  0  0  0
  -28.3920  -26.5190   17.9390 C   0  0  0  0  0  2  0  0  0  0  0  0
  -27.2900  -27.0380   17.1930 O   0  0  0  0  0  0  0  0  0  0  0  0
  -25.6810  -30.1440   23.3900 C   0  0  0  0  0  0  0  0  0  0  0  0
  -26.4340  -27.8380   17.9040 C   0  0  0  0  0  0  0  0  0  0  0  0
  -23.8810  -30.1000   21.6900 C   0  0  0  0  0  3  0  0  0  0  0  0
  -24.5940  -29.4150   19.3360 C   0  0  0  0  0  0  0  0  0  0  0  0
  -26.3410  -30.1120   20.9880 C   0  0  0  0  0  2  0  0  0  0  0  0
  -25.9280  -29.3310   19.7630 C   0  0  0  0  0  0  0  0  0  0  0  0
  -26.8520  -28.5360   19.0550 C   0  0  0  0  0  3  0  0  0  0  0  0
  -25.0990  -27.9440   17.4680 C   0  0  0  0  0  3  0  0  0  0  0  0
  -24.1730  -28.7240   18.1850 C   0  0  0  0  0  3  0  0  0  0  0  0
  -23.6630  -30.2750   20.1630 C   0  0  0  0  0  2  0  0  0  0  0  0
  -25.3330  -30.0950   22.0720 N   0  0  0  0  0  0  0  0  0  0  0  0
  -24.8190  -30.2450   24.2770 O   0  0  0  0  0  0  0  0  0  0  0  0
  -23.1250  -28.8330   22.1500 C   0  0  0  0  0  0  0  0  0  0  0  0
  -21.7860  -28.8840   22.0780 N   0  0  0  0  0  0  0  0  0  0  0  0
  -23.7390  -27.8350   22.5300 O   0  0  0  0  0  0  0  0  0  0  0  0
  -21.3610  -29.7450   21.7640 H   0  0  0  0  0  0  0  0  0  0  0  0
  -18.3240  -27.8650   21.9560 C   0  0  0  0  0  0  0  0  0  0  0  0
  -20.8650  -27.8010   22.4210 C   0  0  0  0  0  3  0  0  0  0  0  0
  -20.9250  -26.6690   21.3720 C   0  0  0  0  0  2  0  0  0  0  0  0
  -19.8800  -26.8190   20.2620 C   0  0  0  0  0  2  0  0  0  0  0  0
  -18.4680  -26.8350   20.8510 C   0  0  0  0  0  2  0  0  0  0  0  0
  -19.4510  -28.3320   22.6830 C   0  0  0  0  0  0  0  0  0  0  0  0
  -19.2690  -29.3150   23.6780 C   0  0  0  0  0  3  0  0  0  0  0  0
  -17.9860  -29.8300   23.9540 C   0  0  0  0  0  3  0  0  0  0  0  0
  -16.8700  -29.3510   23.2460 C   0  0  0  0  0  3  0  0  0  0  0  0
  -17.0390  -28.3690   22.2540 C   0  0  0  0  0  3  0  0  0  0  0  0
  -27.1740  -30.1100   23.8430 C   0  0  0  0  0  3  0  0  0  0  0  0
  -27.3030  -31.0140   24.9950 N   0  0  0  0  0  0  0  0  0  0  0  0
  -27.8960  -32.2160   24.9570 C   0  0  0  0  0  0  0  0  0  0  0  0
  -28.4640  -32.6530   23.9520 O   0  0  0  0  0  0  0  0  0  0  0  0
  -26.8030  -30.7450   25.8290 H   0  0  0  0  0  0  0  0  0  0  0  0
  -26.8050  -34.1750   26.0940 C   0  0  0  0  0  1  0  0  0  0  0  0
  -27.8590  -33.0650   26.2410 C   0  0  0  0  0  3  0  0  0  0  0  0
  -30.1580  -32.6830   27.0080 C   0  0  0  0  0  1  0  0  0  0  0  0
  -29.1640  -33.6670   26.5860 N   0  0  0  0  0  0  0  0  0  0  0  0
  -29.0600  -34.3530   27.3300 H   0  0  0  0  0  0  0  0  0  0  0  0
  -27.6840  -28.6610   24.2040 C   0  0  1  0  0  0  0  0  0  0  0  0
  -26.7760  -27.9060   25.2000 C   0  0  0  0  0  1  0  0  0  0  0  0
  -27.8030  -27.7920   22.9300 C   0  0  0  0  0  1  0  0  0  0  0  0
  -29.0980  -28.7440   24.8240 C   0  0  0  0  0  1  0  0  0  0  0  0
  -30.3880  -18.6640   21.2110 C   0  0  0  0  0  0  0  0  0  0  0  0
  -31.0430  -18.1100   22.0970 O   0  0  0  0  0  0  0  0  0  0  0  0
  -29.7880  -17.8180   20.0780 C   0  0  0  0  0  2  0  0  0  0  0  0
  -30.8410  -17.3700   19.0390 C   0  0  0  0  0  2  0  0  0  0  0  0
  -32.0080  -16.5690   19.6430 C   0  0  0  0  0  2  0  0  0  0  0  0
  -31.9880  -14.0790   19.5210 C   0  0  0  0  0  0  0  0  0  0  0  0
  -31.5920  -11.6510   19.3230 C   0  0  0  0  0  2  0  0  0  0  0  0
  -30.6190  -11.3520   18.1680 C   0  0  0  0  0  2  0  0  0  0  0  0
  -29.1620  -11.4170   18.6650 C   0  0  0  0  0  2  0  0  0  0  0  0
  -28.8600  -12.7210   19.4520 C   0  0  0  0  0  3  0  0  0  0  0  0
  -29.9440  -12.9840   20.5210 C   0  0  0  0  0  2  0  0  0  0  0  0
  -31.2690  -12.9800   19.8680 N   0  0  0  0  0  0  0  0  0  0  0  0
  -32.9730  -14.0390   18.7760 O   0  0  0  0  0  0  0  0  0  0  0  0
  -31.5600  -15.2350   20.0420 N   0  0  0  0  0  0  0  0  0  0  0  0
  -30.7910  -15.1830   20.6970 H   0  0  0  0  0  0  0  0  0  0  0  0
  -26.7120  -13.7380   20.4410 C   0  0  0  0  0  0  0  0  0  0  0  0
  -25.5370  -13.1720   20.8570 C   0  0  0  0  0  0  0  0  0  0  0  0
  -25.6920  -11.7620   20.6700 C   0  0  0  0  0  0  0  0  0  0  0  0
  -27.5220  -12.6890   20.0360 N   0  0  0  0  0  0  0  0  0  0  0  0
  -26.9140  -11.4910   20.2280 N   0  0  0  0  0  0  0  0  0  0  0  0
  -24.7310  -10.6660   20.8340 C   0  0  0  0  0  0  0  0  0  0  0  0
  -24.9760   -9.5980   21.7260 C   0  0  0  0  0  3  0  0  0  0  0  0
  -24.0300   -8.5630   21.8820 C   0  0  0  0  0  3  0  0  0  0  0  0
  -22.8220   -8.5900   21.1460 C   0  0  0  0  0  0  0  0  0  0  0  0
  -22.5910   -9.6440   20.2460 C   0  0  0  0  0  3  0  0  0  0  0  0
  -23.5350  -10.6720   20.0880 C   0  0  0  0  0  3  0  0  0  0  0  0
  -21.8570   -7.6140   21.2150 O   0  0  0  0  0  0  0  0  0  0  0  0
  -21.6220   -6.9120   22.3690 C   0  0  0  0  0  0  0  0  0  0  0  0
  -21.2230   -7.5530   23.5630 C   0  0  0  0  0  3  0  0  0  0  0  0
  -20.9250   -6.7870   24.7070 C   0  0  0  0  0  3  0  0  0  0  0  0
  -21.0150   -5.3840   24.6580 C   0  0  0  0  0  0  0  0  0  0  0  0
  -21.4040   -4.7430   23.4680 C   0  0  0  0  0  3  0  0  0  0  0  0
  -21.7030   -5.5060   22.3270 C   0  0  0  0  0  0  0  0  0  0  0  0
  -22.0600   -4.8830   21.1770 F   0  0  0  0  0  0  0  0  0  0  0  0
  -20.7190   -4.6460   25.7550 F   0  0  0  0  0  0  0  0  0  0  0  0
  -24.3020  -13.8960   21.3100 C   0  0  0  0  0  0  0  0  0  0  0  0
  -23.5300  -13.2920   22.2030 N   0  0  0  0  0  0  0  0  0  0  0  0
  -24.0410  -15.0260   20.8980 O   0  0  0  0  0  0  0  0  0  0  0  0
  -23.7570  -12.3760   22.5570 H   0  0  0  0  0  0  0  0  0  0  0  0
  -22.7020  -13.7580   22.5470 H   0  0  0  0  0  0  0  0  0  0  0  0
  -27.1560  -15.0550   20.3590 N   0  0  0  0  0  0  0  0  0  0  0  0
  -26.5610  -15.8420   20.5950 H   0  0  0  0  0  0  0  0  0  0  0  0
  -28.0430  -15.3290   19.9550 H   0  0  0  0  0  0  0  0  0  0  0  0
  2  5  2  0
  3  1  2  0
  4  2  1  0
  5  1  1  0
  5 54  1  0
  6  4  2  0
  6  3  1  0
  7  6  1  0
  7  9  2  0
  8  7  1  0
 10  8  1  0
 11  8  1  0
 12 11  1  0
 13 15  1  0
 13 12  1  0
 14 25  2  0
 15 20  1  0
 16 24  1  0
 16 26  1  0
 17 19  1  0
 17 23  1  0
 18 24  1  0
 19 18  1  0
 20 19  2  0
 21 15  2  0
 21 22  1  0
 22 17  2  0
 23 16  1  0
 24 14  1  0
 26 28  2  0
 27 26  1  0
 29 27  1  0
 30 39  2  0
 30 35  1  0
 31 27  1  0
 31 35  1  0
 32 31  1  0
 33 34  1  0
 33 32  1  0
 34 30  1  0
 35 36  2  0
 36 37  1  0
 38 37  2  0
 39 38  1  0
 40 14  1  0
 40 50  1  0
 40 41  1  0
 41 44  1  0
 42 41  1  0
 42 46  1  0
 43 42  2  0
 46 45  1  0
 46 48  1  0
 48 47  1  0
 48 49  1  0
 50 53  1  1
 50 51  1  0
 52 50  1  0
 54 55  2  0
 56 54  1  0
 57 58  1  0
 57 56  1  0
 58 67  1  0
 59 65  1  0
 59 67  1  0
 60 65  1  0
 61 62  1  0
 61 60  1  0
 63 62  1  0
 63 72  1  0
 63 64  1  0
 65 64  1  0
 66 59  2  0
 67 68  1  0
 69 70  2  0
 70 89  1  0
 71 74  1  0
 71 70  1  0
 72 73  1  0
 72 69  1  0
 73 71  2  0
 74 75  1  0
 75 76  2  0
 77 80  1  0
 77 76  1  0
 78 77  2  0
 79 78  1  0
 79 74  2  0
 80 81  1  0
 81 82  1  0
 82 83  2  0
 84 83  1  0
 84 88  1  0
 85 84  2  0
 86 81  2  0
 86 85  1  0
 87 86  1  0
 89 90  1  0
 90 93  1  0
 90 92  1  0
 91 89  2  0
 94 69  1  0
 94 95  1  0
 96 94  1  0
M  ISO  4  12 101  13 101  59 100  67 100
M  END
>  <TORSDO>  (68) 
F 23

>  <SCORE>  (68) 
-9.777

>  <name>  (68) 
67

>  <ligand_id>  (68) 
67

>  <original_smiles>  (68) 
[H]c1c([H])c([H])c2c(c1[H])C([H])([H])C([H])([H])C([H])([H])C2([H])N([H])C(=O)C1([H])N(C(=O)C([H])(N([H])C(=O)C([H])(N([H])C([H])([H])[H])C([H])([H])[H])C(C([H])([H])[H])(C([H])([H])[H])C([H])([H])[H])C([H])([H])c2c([H])c(OC([H])([H])C([H])([H])N([H])C(=O)c3c([H])c([H])c(C(=O)C([H])([H])C([H])([H])C([H])([H])N([H])C(=O)N4C([H])([H])C([H])([H])C([H])([H])C([H])(n5nc(-c6c([H])c([H])c(Oc7c([H])c([H])c(F)c([H])c7F)c([H])c6[H])c(C(=O)N([H])[H])c5N([H])[H])C4([H])[H])c([H])c3[H])c([H])c([H])c2C1([H])[H]

>  <smiles>  (68) 
[H]c1c([H])c([H])c2c(c1[H])C([H])([H])C([H])([H])C([H])([H])C2([H])N([H])C(=O)C1([H])N(C(=O)C([H])(N([H])C(=O)C([H])(N([H])C([H])([H])[H])C([H])([H])[H])C(C([H])([H])[H])(C([H])([H])[H])C([H])([H])[H])C([H])([H])c2c([H])c(OC([H])([H])C([H])([H])N([H])C(=O)c3c([H])c([H])c(C(=O)C([H])([H])C([H])([H])C([H])([H])N([H])C(=O)N4C([H])([H])C([H])([H])C([H])([H])C([H])(n5nc(-c6c([H])c([H])c(Oc7c([H])c([H])c(F)c([H])c7F)c([H])c6[H])c(C(=O)N([H])[H])c5N([H])[H])C4([H])[H])c([H])c3[H])c([H])c([H])c2C1([H])[H]

$$$$
68:0:0
     RDKit          3D

 98106  0  0  1  0  0  0  0  0999 V2000
  -26.7620  -21.4000   21.2970 C   0  0  0  0  0  3  0  0  0  0  0  0
  -25.9540  -22.4790   21.7030 C   0  0  0  0  0  3  0  0  0  0  0  0
  -27.6870  -22.7820   19.5290 C   0  0  0  0  0  3  0  0  0  0  0  0
  -27.6250  -21.5460   20.1930 C   0  0  0  0  0  0  0  0  0  0  0  0
  -26.8760  -23.8700   19.9080 C   0  0  0  0  0  0  0  0  0  0  0  0
  -26.0010  -23.7170   21.0200 C   0  0  0  0  0  0  0  0  0  0  0  0
  -25.0850  -24.8370   21.4920 C   0  0  0  0  0  1  0  0  0  0  0  0
  -27.0270  -25.1450   19.1460 C   0  0  0  0  0  0  0  0  0  0  0  0
  -27.1260  -26.2500   19.6870 O   0  0  0  0  0  0  0  0  0  0  0  0
  -26.9700  -25.0190   17.6160 C   0  0  0  0  0  2  0  0  0  0  0  0
  -27.7980  -26.0540   16.8260 C   0  0  0  0  0  2  0  0  0  0  0  0
  -26.9250  -26.8810   16.0580 O   0  0  0  0  0  0  0  0  0  0  0  0
  -25.6140  -29.5790   22.4940 C   0  0  0  0  0  0  0  0  0  0  0  0
  -26.0950  -27.6370   16.8410 C   0  0  0  0  0  0  0  0  0  0  0  0
  -23.7530  -29.7050   20.8670 C   0  0  0  0  0  3  0  0  0  0  0  0
  -24.3580  -29.1610   18.4490 C   0  0  0  0  0  0  0  0  0  0  0  0
  -26.1830  -29.6880   20.0770 C   0  0  0  0  0  2  0  0  0  0  0  0
  -25.7010  -29.0100   18.8150 C   0  0  0  0  0  0  0  0  0  0  0  0
  -26.5730  -28.2400   18.0210 C   0  0  0  0  0  3  0  0  0  0  0  0
  -24.7480  -27.8090   16.4670 C   0  0  0  0  0  3  0  0  0  0  0  0
  -23.8700  -28.5570   17.2760 C   0  0  0  0  0  3  0  0  0  0  0  0
  -23.4900  -29.9940   19.3650 C   0  0  0  0  0  2  0  0  0  0  0  0
  -25.2150  -29.6290   21.1920 N   0  0  0  0  0  0  0  0  0  0  0  0
  -24.7930  -29.6370   23.4190 O   0  0  0  0  0  0  0  0  0  0  0  0
  -22.9730  -28.4320   21.2670 C   0  0  0  0  0  0  0  0  0  0  0  0
  -21.6360  -28.5460   21.3160 N   0  0  0  0  0  0  0  0  0  0  0  0
  -23.5630  -27.3750   21.5000 O   0  0  0  0  0  0  0  0  0  0  0  0
  -21.2310  -29.4500   21.1170 H   0  0  0  0  0  0  0  0  0  0  0  0
  -18.1220  -27.7300   21.5230 C   0  0  0  0  0  0  0  0  0  0  0  0
  -20.6910  -27.4750   21.6330 C   0  0  0  0  0  3  0  0  0  0  0  0
  -20.5450  -26.4960   20.4460 C   0  0  0  0  0  2  0  0  0  0  0  0
  -19.3830  -26.8500   19.5120 C   0  0  0  0  0  2  0  0  0  0  0  0
  -18.0570  -26.8570   20.2810 C   0  0  0  0  0  2  0  0  0  0  0  0
  -19.3600  -28.0330   22.1480 C   0  0  0  0  0  0  0  0  0  0  0  0
  -19.3700  -28.8780   23.2780 C   0  0  0  0  0  3  0  0  0  0  0  0
  -18.1710  -29.4150   23.7860 C   0  0  0  0  0  3  0  0  0  0  0  0
  -16.9460  -29.0980   23.1750 C   0  0  0  0  0  3  0  0  0  0  0  0
  -16.9230  -28.2540   22.0490 C   0  0  0  0  0  3  0  0  0  0  0  0
  -27.1240  -29.4720   22.8830 C   0  0  0  0  0  3  0  0  0  0  0  0
  -27.3230  -30.2750   24.0950 N   0  0  0  0  0  0  0  0  0  0  0  0
  -27.9340  -31.4660   24.1290 C   0  0  0  0  0  0  0  0  0  0  0  0
  -28.4590  -31.9780   23.1350 O   0  0  0  0  0  0  0  0  0  0  0  0
  -26.8710  -29.9410   24.9340 H   0  0  0  0  0  0  0  0  0  0  0  0
  -26.9110  -33.3240   25.4780 C   0  0  0  0  0  1  0  0  0  0  0  0
  -27.9670  -32.2080   25.4770 C   0  0  0  0  0  3  0  0  0  0  0  0
  -30.3010  -31.7590   26.0900 C   0  0  0  0  0  1  0  0  0  0  0  0
  -29.2930  -32.7770   25.8030 N   0  0  0  0  0  0  0  0  0  0  0  0
  -29.2310  -33.3930   26.6080 H   0  0  0  0  0  0  0  0  0  0  0  0
  -27.6020  -27.9860   23.1130 C   0  0  1  0  0  0  0  0  0  0  0  0
  -26.6970  -27.1850   24.0780 C   0  0  0  0  0  1  0  0  0  0  0  0
  -27.6620  -27.2180   21.7720 C   0  0  0  0  0  1  0  0  0  0  0  0
  -29.0370  -27.9820   23.6910 C   0  0  0  0  0  1  0  0  0  0  0  0
  -28.5440  -20.5040   19.7300 C   0  0  0  0  0  3  0  0  0  0  0  0
  -28.8670  -19.3710   20.3740 C   0  0  0  0  0  3  0  0  0  0  0  0
  -29.8370  -18.4970   19.7570 C   0  0  0  0  0  0  0  0  0  0  0  0
  -30.8340  -18.2190   20.6010 N   0  0  0  0  0  0  0  0  0  0  0  0
  -29.8030  -18.1030   18.5890 O   0  0  0  0  0  0  0  0  0  0  0  0
  -30.7690  -18.6020   21.5340 H   0  0  0  0  0  0  0  0  0  0  0  0
  -32.0770  -17.5370   20.2550 C   0  0  0  0  0  2  0  0  0  0  0  0
  -32.1710  -16.1640   20.9290 C   0  0  0  0  0  2  0  0  0  0  0  0
  -31.0590  -14.6310   19.3130 C   0  0  0  0  0  0  0  0  0  0  0  0
  -30.6850  -12.3280   18.5480 C   0  0  0  0  0  2  0  0  0  0  0  0
  -29.6130  -12.1460   17.4680 C   0  0  0  0  0  2  0  0  0  0  0  0
  -28.2240  -12.0000   18.1090 C   0  0  0  0  0  2  0  0  0  0  0  0
  -27.9220  -13.1310   19.1240 C   0  0  0  0  0  3  0  0  0  0  0  0
  -29.0840  -13.3120   20.1230 C   0  0  0  0  0  2  0  0  0  0  0  0
  -30.3410  -13.4890   19.3740 N   0  0  0  0  0  0  0  0  0  0  0  0
  -31.8150  -14.9280   18.3820 O   0  0  0  0  0  0  0  0  0  0  0  0
  -31.1230  -15.2430   20.4990 N   0  0  0  0  0  0  0  0  0  0  0  0
  -30.5140  -14.8810   21.2180 H   0  0  0  0  0  0  0  0  0  0  0  0
  -25.7250  -13.8140   20.2840 C   0  0  0  0  0  0  0  0  0  0  0  0
  -24.6830  -13.0740   20.7770 C   0  0  0  0  0  0  0  0  0  0  0  0
  -25.0370  -11.7060   20.5680 C   0  0  0  0  0  0  0  0  0  0  0  0
  -26.6520  -12.8980   19.8120 N   0  0  0  0  0  0  0  0  0  0  0  0
  -26.2490  -11.6200   20.0350 N   0  0  0  0  0  0  0  0  0  0  0  0
  -24.2660  -10.4750   20.7890 C   0  0  0  0  0  0  0  0  0  0  0  0
  -24.6860   -9.4970   21.7170 C   0  0  0  0  0  3  0  0  0  0  0  0
  -23.9190   -8.3310   21.9250 C   0  0  0  0  0  3  0  0  0  0  0  0
  -22.7170   -8.1340   21.2040 C   0  0  0  0  0  0  0  0  0  0  0  0
  -22.3170   -9.0990   20.2630 C   0  0  0  0  0  3  0  0  0  0  0  0
  -23.0850  -10.2570   20.0540 C   0  0  0  0  0  3  0  0  0  0  0  0
  -21.9220   -7.0210   21.3220 O   0  0  0  0  0  0  0  0  0  0  0  0
  -21.7650   -6.3710   22.5200 C   0  0  0  0  0  0  0  0  0  0  0  0
  -21.2270   -7.0180   23.6550 C   0  0  0  0  0  3  0  0  0  0  0  0
  -21.0180   -6.2940   24.8440 C   0  0  0  0  0  3  0  0  0  0  0  0
  -21.3380   -4.9230   24.9020 C   0  0  0  0  0  0  0  0  0  0  0  0
  -21.8690   -4.2770   23.7730 C   0  0  0  0  0  3  0  0  0  0  0  0
  -22.0790   -4.9980   22.5840 C   0  0  0  0  0  0  0  0  0  0  0  0
  -22.5710   -4.3650   21.4920 F   0  0  0  0  0  0  0  0  0  0  0  0
  -21.1290   -4.2250   26.0430 F   0  0  0  0  0  0  0  0  0  0  0  0
  -23.3900  -13.6040   21.3240 C   0  0  0  0  0  0  0  0  0  0  0  0
  -22.7880  -12.8950   22.2730 N   0  0  0  0  0  0  0  0  0  0  0  0
  -22.9280  -14.6800   20.9460 O   0  0  0  0  0  0  0  0  0  0  0  0
  -23.1760  -12.0210   22.5990 H   0  0  0  0  0  0  0  0  0  0  0  0
  -21.9260  -13.2300   22.6800 H   0  0  0  0  0  0  0  0  0  0  0  0
  -25.9540  -15.1820   20.1800 N   0  0  0  0  0  0  0  0  0  0  0  0
  -25.2700  -15.8730   20.4680 H   0  0  0  0  0  0  0  0  0  0  0  0
  -26.7730  -15.5920   19.7500 H   0  0  0  0  0  0  0  0  0  0  0  0
  1  2  1  0
  3  5  2  0
  3  4  1  0
  4  1  2  0
  5  6  1  0
  6  7  1  0
  6  2  2  0
  8  9  2  0
  8  5  1  0
 10  8  1  0
 11 10  1  0
 12 11  1  0
 12 14  1  0
 13 24  2  0
 14 19  1  0
 15 23  1  0
 15 25  1  0
 16 18  1  0
 16 22  1  0
 17 23  1  0
 18 17  1  0
 19 18  2  0
 20 14  2  0
 20 21  1  0
 21 16  2  0
 22 15  1  0
 23 13  1  0
 25 26  1  0
 25 27  2  0
 28 26  1  0
 29 38  2  0
 29 34  1  0
 30 26  1  0
 30 34  1  0
 31 30  1  0
 32 33  1  0
 32 31  1  0
 33 29  1  0
 34 35  2  0
 35 36  1  0
 37 36  2  0
 38 37  1  0
 39 13  1  0
 39 49  1  0
 39 40  1  0
 40 41  1  0
 40 43  1  0
 41 45  1  0
 42 41  2  0
 45 44  1  0
 45 47  1  0
 47 46  1  0
 47 48  1  0
 49 52  1  1
 49 50  1  0
 51 49  1  0
 53  4  1  0
 53 54  2  0
 55 54  1  0
 55 56  1  0
 56 58  1  0
 57 55  2  0
 59 56  1  0
 59 60  1  0
 61 67  1  0
 61 69  1  0
 62 67  1  0
 63 64  1  0
 63 62  1  0
 65 64  1  0
 65 74  1  0
 65 66  1  0
 67 66  1  0
 68 61  2  0
 69 60  1  0
 69 70  1  0
 71 72  2  0
 72 91  1  0
 73 72  1  0
 73 76  1  0
 74 75  1  0
 74 71  1  0
 75 73  2  0
 76 77  1  0
 77 78  2  0
 79 82  1  0
 79 78  1  0
 80 79  2  0
 81 80  1  0
 81 76  2  0
 82 83  1  0
 83 88  2  0
 83 84  1  0
 84 85  2  0
 85 86  1  0
 86 90  1  0
 87 86  2  0
 88 87  1  0
 89 88  1  0
 91 92  1  0
 92 94  1  0
 92 95  1  0
 93 91  2  0
 96 71  1  0
 96 97  1  0
 98 96  1  0
M  ISO  4  11 101  12 101  61 100  69 100
M  END
>  <TORSDO>  (69) 
F 23

>  <SCORE>  (69) 
-7.014

>  <name>  (69) 
68

>  <ligand_id>  (69) 
68

>  <original_smiles>  (69) 
[H]C(C(=O)N([H])C([H])([H])C([H])([H])N([H])C(=O)N1C([H])([H])C([H])([H])C([H])([H])C([H])(n2nc(-c3c([H])c([H])c(Oc4c([H])c([H])c(F)c([H])c4F)c([H])c3[H])c(C(=O)N([H])[H])c2N([H])[H])C1([H])[H])=C([H])c1c([H])c([H])c(C([H])([H])[H])c(C(=O)C([H])([H])C([H])([H])Oc2c([H])c([H])c3c(c2[H])C([H])([H])N(C(=O)C([H])(N([H])C(=O)C([H])(N([H])C([H])([H])[H])C([H])([H])[H])C(C([H])([H])[H])(C([H])([H])[H])C([H])([H])[H])C([H])(C(=O)N([H])C2([H])c4c([H])c([H])c([H])c([H])c4C([H])([H])C([H])([H])C2([H])[H])C3([H])[H])c1[H]

>  <smiles>  (69) 
[H]C(C(=O)N([H])C([H])([H])C([H])([H])N([H])C(=O)N1C([H])([H])C([H])([H])C([H])([H])C([H])(n2nc(-c3c([H])c([H])c(Oc4c([H])c([H])c(F)c([H])c4F)c([H])c3[H])c(C(=O)N([H])[H])c2N([H])[H])C1([H])[H])=C([H])c1c([H])c([H])c(C([H])([H])[H])c(C(=O)C([H])([H])C([H])([H])Oc2c([H])c([H])c3c(c2[H])C([H])([H])N(C(=O)C([H])(N([H])C(=O)C([H])(N([H])C([H])([H])[H])C([H])([H])[H])C(C([H])([H])[H])(C([H])([H])[H])C([H])([H])[H])C([H])(C(=O)N([H])C2([H])c4c([H])c([H])c([H])c([H])c4C([H])([H])C([H])([H])C2([H])[H])C3([H])[H])c1[H]

$$$$
69:0:0
     RDKit          3D

103114  0  0  1  0  0  0  0  0999 V2000
  -28.7920  -21.9900   24.5140 C   0  0  0  0  0  3  0  0  0  0  0  0
  -27.5420  -22.2330   23.9130 C   0  0  0  0  0  3  0  0  0  0  0  0
  -29.8410  -23.4840   22.9050 C   0  0  0  0  0  3  0  0  0  0  0  0
  -29.9460  -22.6250   24.0140 C   0  0  0  0  0  0  0  0  0  0  0  0
  -28.5930  -23.7520   22.3060 C   0  0  0  0  0  0  0  0  0  0  0  0
  -27.4350  -23.1150   22.8160 C   0  0  0  0  0  0  0  0  0  0  0  0
  -26.2080  -23.3380   22.2610 O   0  0  0  0  0  0  0  0  0  0  0  0
  -25.5110  -22.8490   22.6850 H   0  0  0  0  0  0  0  0  0  0  0  0
  -28.5370  -24.7230   21.1270 C   0  0  0  0  0  3  0  0  0  0  0  0
  -30.0030  -26.6030   20.1700 C   0  0  0  0  0  2  0  0  0  0  0  0
  -30.4180  -24.2610   19.4330 C   0  0  0  0  0  2  0  0  0  0  0  0
  -31.4160  -26.9870   19.6900 C   0  0  0  0  0  2  0  0  0  0  0  0
  -31.8350  -24.6570   18.9830 C   0  0  0  0  0  2  0  0  0  0  0  0
  -29.9420  -25.1300   20.6120 C   0  0  0  0  0  3  0  0  0  0  0  0
  -31.9010  -26.0920   18.6050 N   0  0  2  0  0  4  0  0  0  0  0  0
  -31.2660  -26.2170   17.8260 H   0  0  0  0  0  0  0  0  0  0  0  0
  -33.2340  -26.4970   18.0820 C   0  0  0  0  0  2  0  0  0  0  0  0
  -33.4510  -26.0500   16.6160 C   0  0  0  0  0  2  0  0  0  0  0  0
  -32.2150  -25.8670   15.9150 O   0  0  0  0  0  0  0  0  0  0  0  0
  -28.7020  -28.6920   21.4350 C   0  0  0  0  0  0  0  0  0  0  0  0
  -31.0840  -26.4860   16.3970 C   0  0  0  0  0  0  0  0  0  0  0  0
  -27.3490  -28.1860   19.4230 C   0  0  0  0  0  3  0  0  0  0  0  0
  -28.6690  -27.6170   17.3180 C   0  0  0  0  0  0  0  0  0  0  0  0
  -29.8290  -28.7580   19.2200 C   0  0  0  0  0  2  0  0  0  0  0  0
  -29.8670  -27.8760   17.9920 C   0  0  0  0  0  0  0  0  0  0  0  0
  -31.0770  -27.3240   17.5350 C   0  0  0  0  0  3  0  0  0  0  0  0
  -29.8740  -26.2400   15.7180 C   0  0  0  0  0  3  0  0  0  0  0  0
  -28.6640  -26.7970   16.1760 C   0  0  0  0  0  3  0  0  0  0  0  0
  -27.4210  -28.2630   17.8740 C   0  0  0  0  0  2  0  0  0  0  0  0
  -28.6510  -28.5280   20.0830 N   0  0  0  0  0  0  0  0  0  0  0  0
  -27.6790  -28.6090   22.1290 O   0  0  0  0  0  0  0  0  0  0  0  0
  -26.8120  -26.7940   19.8190 C   0  0  0  0  0  3  0  0  0  0  0  0
  -25.6770  -26.4000   19.2170 N   0  0  0  0  0  0  0  0  0  0  0  0
  -27.4250  -26.0830   20.6200 O   0  0  0  0  0  0  0  0  0  0  0  0
  -25.2350  -27.0450   18.5780 H   0  0  0  0  0  0  0  0  0  0  0  0
  -23.1070  -24.2450   17.8800 C   0  0  0  0  0  0  0  0  0  0  0  0
  -25.0050  -25.1150   19.4030 C   0  0  0  0  0  3  0  0  0  0  0  0
  -25.8560  -23.9560   18.8340 C   0  0  0  0  0  2  0  0  0  0  0  0
  -25.5050  -23.6050   17.3850 C   0  0  0  0  0  2  0  0  0  0  0  0
  -24.0310  -23.2040   17.2710 C   0  0  0  0  0  2  0  0  0  0  0  0
  -23.5690  -25.1530   18.8690 C   0  0  0  0  0  0  0  0  0  0  0  0
  -22.6790  -26.1260   19.3740 C   0  0  0  0  0  3  0  0  0  0  0  0
  -21.3500  -26.1950   18.9150 C   0  0  0  0  0  3  0  0  0  0  0  0
  -20.8940  -25.2820   17.9480 C   0  0  0  0  0  3  0  0  0  0  0  0
  -21.7710  -24.3090   17.4350 C   0  0  0  0  0  3  0  0  0  0  0  0
  -30.0420  -29.0170   22.1690 C   0  0  0  0  0  3  0  0  0  0  0  0
  -29.7870  -30.1460   23.0720 N   0  0  0  0  0  0  0  0  0  0  0  0
  -30.3070  -31.3730   22.9210 C   0  0  0  0  0  0  0  0  0  0  0  0
  -31.1180  -31.6510   22.0330 O   0  0  0  0  0  0  0  0  0  0  0  0
  -29.0870  -30.0050   23.7840 H   0  0  0  0  0  0  0  0  0  0  0  0
  -28.8610  -33.4080   23.2130 C   0  0  0  0  0  1  0  0  0  0  0  0
  -29.8530  -32.4620   23.9090 C   0  0  0  0  0  3  0  0  0  0  0  0
  -31.8070  -32.4760   25.3960 C   0  0  0  0  0  1  0  0  0  0  0  0
  -30.9730  -33.2450   24.4760 N   0  0  0  0  0  0  0  0  0  0  0  0
  -30.6290  -34.0650   24.9680 H   0  0  0  0  0  0  0  0  0  0  0  0
  -30.6300  -27.7860   22.9610 C   0  0  1  0  0  0  0  0  0  0  0  0
  -29.5720  -27.0180   23.7880 C   0  0  0  0  0  1  0  0  0  0  0  0
  -31.2950  -26.7800   21.9930 C   0  0  0  0  0  1  0  0  0  0  0  0
  -31.7370  -28.2680   23.9280 C   0  0  0  0  0  1  0  0  0  0  0  0
  -31.3030  -22.4060   24.6520 C   0  0  0  0  0  2  0  0  0  0  0  0
  -31.9990  -21.1350   24.1410 C   0  0  0  0  0  2  0  0  0  0  0  0
  -35.5020  -20.3670   19.8230 C   0  0  0  0  0  0  0  0  0  0  0  0
  -36.1880  -18.4390   18.4330 C   0  0  0  0  0  2  0  0  0  0  0  0
  -35.1390  -18.0830   17.3620 C   0  0  0  0  0  2  0  0  0  0  0  0
  -34.0650  -17.1400   17.9350 C   0  0  0  0  0  2  0  0  0  0  0  0
  -33.4820  -17.6570   19.2730 C   0  0  0  0  0  3  0  0  0  0  0  0
  -34.6210  -18.0320   20.2400 C   0  0  0  0  0  2  0  0  0  0  0  0
  -35.5010  -19.0250   19.5930 N   0  0  0  0  0  0  0  0  0  0  0  0
  -36.0030  -21.1780   19.0320 O   0  0  0  0  0  0  0  0  0  0  0  0
  -32.8730  -21.8760   21.8630 C   0  0  0  0  0  2  0  0  0  0  0  0
  -34.2010  -20.2230   23.2590 C   0  0  0  0  0  2  0  0  0  0  0  0
  -34.1100  -22.0360   20.9610 C   0  0  0  0  0  2  0  0  0  0  0  0
  -35.3710  -20.4350   22.2790 C   0  0  0  0  0  2  0  0  0  0  0  0
  -33.2530  -21.4350   23.2950 C   0  0  0  0  0  3  0  0  0  0  0  0
  -34.8620  -20.7790   20.9420 N   0  0  0  0  0  0  0  0  0  0  0  0
  -31.2870  -16.8660   20.3670 C   0  0  0  0  0  0  0  0  0  0  0  0
  -30.8550  -15.6250   20.7560 C   0  0  0  0  0  0  0  0  0  0  0  0
  -31.9270  -14.7270   20.4710 C   0  0  0  0  0  0  0  0  0  0  0  0
  -32.5720  -16.6850   19.8750 N   0  0  0  0  0  0  0  0  0  0  0  0
  -32.9700  -15.3920   19.9910 N   0  0  0  0  0  0  0  0  0  0  0  0
  -32.0020  -13.2630   20.5690 C   0  0  0  0  0  0  0  0  0  0  0  0
  -32.3390  -12.6210   21.7810 C   0  0  0  0  0  3  0  0  0  0  0  0
  -32.3880  -11.2120   21.8550 C   0  0  0  0  0  3  0  0  0  0  0  0
  -32.0930  -10.4310   20.7120 C   0  0  0  0  0  0  0  0  0  0  0  0
  -31.7790  -11.0760   19.5030 C   0  0  0  0  0  3  0  0  0  0  0  0
  -31.7370  -12.4780   19.4290 C   0  0  0  0  0  3  0  0  0  0  0  0
  -32.1410   -9.0580   20.6850 O   0  0  0  0  0  0  0  0  0  0  0  0
  -31.0730   -8.2920   21.0750 C   0  0  0  0  0  0  0  0  0  0  0  0
  -29.7510   -8.6020   20.6870 C   0  0  0  0  0  3  0  0  0  0  0  0
  -28.6910   -7.7500   21.0530 C   0  0  0  0  0  3  0  0  0  0  0  0
  -28.9490   -6.5830   21.7970 C   0  0  0  0  0  0  0  0  0  0  0  0
  -30.2650   -6.2690   22.1810 C   0  0  0  0  0  3  0  0  0  0  0  0
  -31.3240   -7.1210   21.8180 C   0  0  0  0  0  0  0  0  0  0  0  0
  -32.5920   -6.8020   22.1710 F   0  0  0  0  0  0  0  0  0  0  0  0
  -27.9320   -5.7590   22.1420 F   0  0  0  0  0  0  0  0  0  0  0  0
  -29.4900  -15.2740   21.2760 C   0  0  0  0  0  0  0  0  0  0  0  0
  -29.4130  -14.3280   22.2050 N   0  0  0  0  0  0  0  0  0  0  0  0
  -28.4860  -15.8710   20.8910 O   0  0  0  0  0  0  0  0  0  0  0  0
  -30.2390  -13.8500   22.5340 H   0  0  0  0  0  0  0  0  0  0  0  0
  -28.5140  -14.0770   22.5920 H   0  0  0  0  0  0  0  0  0  0  0  0
  -30.6910  -18.1230   20.3710 N   0  0  0  0  0  0  0  0  0  0  0  0
  -29.7370  -18.2700   20.6820 H   0  0  0  0  0  0  0  0  0  0  0  0
  -31.1320  -18.9660   20.0260 H   0  0  0  0  0  0  0  0  0  0  0  0
  2  1  2  0
  3  4  2  0
  4  1  1  0
  4 60  1  0
  5  6  2  0
  5  3  1  0
  6  2  1  0
  7  8  1  0
  7  6  1  0
  9  5  1  0
 10 14  1  0
 12 10  1  0
 13 11  1  0
 14 11  1  0
 14  9  1  0
 15 16  1  6
 15 13  1  0
 15 12  1  0
 17 15  1  0
 18 17  1  0
 19 21  1  0
 19 18  1  0
 20 31  2  0
 21 26  1  0
 22 29  1  0
 22 32  1  0
 22 30  1  0
 23 29  1  0
 23 25  1  0
 24 30  1  0
 25 24  1  0
 26 25  2  0
 27 28  1  0
 27 21  2  0
 28 23  2  0
 30 20  1  0
 32 33  1  0
 32 34  1  0
 34  9  1  0
 35 33  1  0
 36 41  1  0
 37 33  1  0
 38 37  1  0
 39 38  1  0
 40 39  1  0
 40 36  1  0
 41 42  2  0
 41 37  1  0
 43 42  1  0
 44 43  2  0
 45 36  2  0
 45 44  1  0
 46 20  1  0
 46 56  1  0
 46 47  1  0
 47 50  1  0
 48 47  1  0
 48 52  1  0
 49 48  2  0
 52 51  1  0
 52 54  1  0
 54 55  1  0
 54 53  1  0
 56 57  1  1
 56 59  1  0
 58 56  1  0
 61 60  1  0
 62 75  1  0
 63 68  1  0
 64 65  1  0
 64 63  1  0
 66 65  1  0
 66 79  1  0
 66 67  1  0
 68 62  1  0
 68 67  1  0
 69 62  2  0
 70 74  1  0
 71 74  1  0
 72 70  1  0
 73 71  1  0
 74 61  1  0
 75 72  1  0
 75 73  1  0
 76101  1  0
 76 77  2  0
 77 96  1  0
 78 81  1  0
 78 77  1  0
 79 80  1  0
 79 76  1  0
 80 78  2  0
 81 82  1  0
 82 83  2  0
 84 83  1  0
 85 84  2  0
 86 85  1  0
 86 81  2  0
 87 84  1  0
 87 88  1  0
 88 93  1  0
 89 90  1  0
 89 88  2  0
 90 91  2  0
 91 95  1  0
 91 92  1  0
 93 94  1  0
 93 92  2  0
 96 97  1  0
 97 99  1  0
 97100  1  0
 98 96  2  0
101102  1  0
103101  1  0
M  ISO  4  18 101  19 101  62 100  75 100
M  END
>  <TORSDO>  (70) 
F 23

>  <SCORE>  (70) 
8.288

>  <name>  (70) 
69

>  <ligand_id>  (70) 
69

>  <original_smiles>  (70) 
[H]Oc1c([H])c([H])c(C([H])([H])C([H])([H])C2([H])C([H])([H])C([H])([H])N(C(=O)N3C([H])([H])C([H])([H])C([H])([H])C([H])(n4nc(-c5c([H])c([H])c(Oc6c([H])c([H])c(F)c([H])c6F)c([H])c5[H])c(C(=O)N([H])[H])c4N([H])[H])C3([H])[H])C([H])([H])C2([H])[H])c([H])c1C([H])([H])C1([H])C([H])([H])C([H])([H])[N+]([H])(C([H])([H])C([H])([H])Oc2c([H])c([H])c3c(c2[H])C([H])([H])N(C(=O)C([H])(N([H])C(=O)C([H])(N([H])C([H])([H])[H])C([H])([H])[H])C(C([H])([H])[H])(C([H])([H])[H])C([H])([H])[H])C([H])(C(=O)N([H])C2([H])c4c([H])c([H])c([H])c([H])c4C([H])([H])C([H])([H])C2([H])[H])C3([H])[H])C([H])([H])C1([H])[H]

>  <smiles>  (70) 
[H]Oc1c([H])c([H])c(C([H])([H])C([H])([H])C2([H])C([H])([H])C([H])([H])N(C(=O)N3C([H])([H])C([H])([H])C([H])([H])C([H])(n4nc(-c5c([H])c([H])c(Oc6c([H])c([H])c(F)c([H])c6F)c([H])c5[H])c(C(=O)N([H])[H])c4N([H])[H])C3([H])[H])C([H])([H])C2([H])[H])c([H])c1C([H])([H])C1([H])C([H])([H])C([H])([H])[N+]([H])(C([H])([H])C([H])([H])Oc2c([H])c([H])c3c(c2[H])C([H])([H])N(C(=O)C([H])(N([H])C(=O)C([H])(N([H])C([H])([H])[H])C([H])([H])[H])C(C([H])([H])[H])(C([H])([H])[H])C([H])([H])[H])C([H])(C(=O)N([H])C2([H])c4c([H])c([H])c([H])c([H])c4C([H])([H])C([H])([H])C2([H])[H])C3([H])[H])C([H])([H])C1([H])[H]

$$$$
70:0:0
     RDKit          3D

 91 98  0  0  1  0  0  0  0  0999 V2000
  -28.3750  -22.6060   19.7720 C   0  0  0  0  0  0  0  0  0  0  0  0
  -28.7830  -23.8850   19.7210 N   0  0  0  0  0  0  0  0  0  0  0  0
  -27.8860  -22.0790   18.7750 O   0  0  0  0  0  0  0  0  0  0  0  0
  -28.6420  -24.3630   18.8410 H   0  0  0  0  0  0  0  0  0  0  0  0
  -28.5390  -21.8150   21.0840 C   0  0  0  0  0  2  0  0  0  0  0  0
  -27.8500  -20.4290   21.1420 C   0  0  0  0  0  2  0  0  0  0  0  0
  -28.5450  -19.3020   20.3560 C   0  0  0  0  0  2  0  0  0  0  0  0
  -29.8350  -18.7800   21.0140 C   0  0  0  0  0  2  0  0  0  0  0  0
  -30.4810  -17.6510   20.1920 C   0  0  0  0  0  2  0  0  0  0  0  0
  -31.3820  -16.7100   21.0220 C   0  0  0  0  0  2  0  0  0  0  0  0
  -31.3710  -14.3950   20.0820 C   0  0  0  0  0  0  0  0  0  0  0  0
  -30.8950  -12.2330   18.9910 C   0  0  0  0  0  2  0  0  0  0  0  0
  -29.9360  -12.4260   17.7970 C   0  0  0  0  0  2  0  0  0  0  0  0
  -28.4700  -12.3880   18.2650 C   0  0  0  0  0  2  0  0  0  0  0  0
  -28.2040  -13.3140   19.4810 C   0  0  0  0  0  3  0  0  0  0  0  0
  -29.2670  -13.0920   20.5800 C   0  0  0  0  0  2  0  0  0  0  0  0
  -30.6070  -13.2760   19.9880 N   0  0  0  0  0  0  0  0  0  0  0  0
  -32.4040  -14.5730   19.4270 O   0  0  0  0  0  0  0  0  0  0  0  0
  -30.9070  -15.3300   20.9150 N   0  0  0  0  0  0  0  0  0  0  0  0
  -30.0710  -15.0890   21.4280 H   0  0  0  0  0  0  0  0  0  0  0  0
  -25.8700  -14.0870   20.2560 C   0  0  0  0  0  0  0  0  0  0  0  0
  -24.7620  -13.3920   20.6610 C   0  0  0  0  0  0  0  0  0  0  0  0
  -25.1290  -12.0120   20.6210 C   0  0  0  0  0  0  0  0  0  0  0  0
  -26.8460  -13.1350   19.9960 N   0  0  0  0  0  0  0  0  0  0  0  0
  -26.4040  -11.8810   20.2730 N   0  0  0  0  0  0  0  0  0  0  0  0
  -24.3240  -10.8000   20.8460 C   0  0  0  0  0  0  0  0  0  0  0  0
  -24.7040   -9.8230   21.7920 C   0  0  0  0  0  3  0  0  0  0  0  0
  -23.9050   -8.6770   21.9980 C   0  0  0  0  0  3  0  0  0  0  0  0
  -22.7140   -8.4970   21.2560 C   0  0  0  0  0  0  0  0  0  0  0  0
  -22.3550   -9.4600   20.2960 C   0  0  0  0  0  3  0  0  0  0  0  0
  -23.1540  -10.5980   20.0870 C   0  0  0  0  0  3  0  0  0  0  0  0
  -21.8970   -7.4000   21.3650 O   0  0  0  0  0  0  0  0  0  0  0  0
  -21.7810   -6.7030   22.5430 C   0  0  0  0  0  0  0  0  0  0  0  0
  -21.3800   -7.3290   23.7420 C   0  0  0  0  0  3  0  0  0  0  0  0
  -21.2030   -6.5640   24.9110 C   0  0  0  0  0  3  0  0  0  0  0  0
  -21.4280   -5.1730   24.8850 C   0  0  0  0  0  0  0  0  0  0  0  0
  -21.8230   -4.5480   23.6890 C   0  0  0  0  0  3  0  0  0  0  0  0
  -21.9980   -5.3110   22.5230 C   0  0  0  0  0  0  0  0  0  0  0  0
  -22.3600   -4.7010   21.3690 F   0  0  0  0  0  0  0  0  0  0  0  0
  -21.2540   -4.4360   26.0060 F   0  0  0  0  0  0  0  0  0  0  0  0
  -23.4090  -13.9630   20.9730 C   0  0  0  0  0  0  0  0  0  0  0  0
  -22.6610  -13.3250   21.8670 N   0  0  0  0  0  0  0  0  0  0  0  0
  -23.0260  -15.0110   20.4590 O   0  0  0  0  0  0  0  0  0  0  0  0
  -22.9850  -12.4790   22.3110 H   0  0  0  0  0  0  0  0  0  0  0  0
  -21.7560  -13.6960   22.1150 H   0  0  0  0  0  0  0  0  0  0  0  0
  -26.1320  -15.4410   20.0760 N   0  0  0  0  0  0  0  0  0  0  0  0
  -25.4350  -16.1600   20.2270 H   0  0  0  0  0  0  0  0  0  0  0  0
  -27.0120  -15.8080   19.7370 H   0  0  0  0  0  0  0  0  0  0  0  0
  -29.4310  -24.6730   20.7740 C   0  0  0  0  0  2  0  0  0  0  0  0
  -28.5510  -25.8580   21.2220 C   0  0  0  0  0  2  0  0  0  0  0  0
  -28.4590  -26.8020   20.1570 O   0  0  0  0  0  0  0  0  0  0  0  0
  -24.6630  -31.9210   23.3210 C   0  0  0  0  0  0  0  0  0  0  0  0
  -27.3030  -27.5330   20.1880 C   0  0  0  0  0  0  0  0  0  0  0  0
  -23.4500  -30.5310   21.6700 C   0  0  0  0  0  3  0  0  0  0  0  0
  -24.9040  -29.0040   20.2280 C   0  0  0  0  0  0  0  0  0  0  0  0
  -25.9710  -30.8990   21.4650 C   0  0  0  0  0  2  0  0  0  0  0  0
  -26.0580  -29.5320   20.8180 C   0  0  0  0  0  0  0  0  0  0  0  0
  -27.2640  -28.8030   20.8020 C   0  0  0  0  0  3  0  0  0  0  0  0
  -26.1410  -27.0100   19.5870 C   0  0  0  0  0  3  0  0  0  0  0  0
  -24.9360  -27.7400   19.6100 C   0  0  0  0  0  3  0  0  0  0  0  0
  -23.6570  -29.8570   20.2840 C   0  0  0  0  0  2  0  0  0  0  0  0
  -24.7120  -31.1320   22.2120 N   0  0  0  0  0  0  0  0  0  0  0  0
  -23.5840  -32.1930   23.8660 O   0  0  0  0  0  0  0  0  0  0  0  0
  -22.8030  -29.5030   22.6260 C   0  0  0  0  0  0  0  0  0  0  0  0
  -21.4810  -29.3120   22.4900 N   0  0  0  0  0  0  0  0  0  0  0  0
  -23.4890  -28.8810   23.4410 O   0  0  0  0  0  0  0  0  0  0  0  0
  -20.9920  -29.8800   21.8140 H   0  0  0  0  0  0  0  0  0  0  0  0
  -18.1210  -28.0500   22.9170 C   0  0  0  0  0  0  0  0  0  0  0  0
  -20.6640  -28.3610   23.2460 C   0  0  0  0  0  3  0  0  0  0  0  0
  -20.8100  -26.9280   22.6840 C   0  0  0  0  0  2  0  0  0  0  0  0
  -19.7380  -26.5810   21.6470 C   0  0  0  0  0  2  0  0  0  0  0  0
  -18.3400  -26.7000   22.2590 C   0  0  0  0  0  2  0  0  0  0  0  0
  -19.2140  -28.8370   23.3660 C   0  0  0  0  0  0  0  0  0  0  0  0
  -18.9610  -30.1030   23.9370 C   0  0  0  0  0  3  0  0  0  0  0  0
  -17.6430  -30.5810   24.0680 C   0  0  0  0  0  3  0  0  0  0  0  0
  -16.5620  -29.7920   23.6380 C   0  0  0  0  0  3  0  0  0  0  0  0
  -16.8030  -28.5280   23.0710 C   0  0  0  0  0  3  0  0  0  0  0  0
  -25.9550  -32.5380   23.9440 C   0  0  0  0  0  3  0  0  0  0  0  0
  -25.6570  -33.9370   24.2740 N   0  0  0  0  0  0  0  0  0  0  0  0
  -25.9930  -34.9840   23.5090 C   0  0  0  0  0  0  0  0  0  0  0  0
  -26.6640  -34.8750   22.4800 O   0  0  0  0  0  0  0  0  0  0  0  0
  -25.0640  -34.0950   25.0760 H   0  0  0  0  0  0  0  0  0  0  0  0
  -24.2730  -36.7820   23.1460 C   0  0  0  0  0  1  0  0  0  0  0  0
  -25.5110  -36.3760   23.9610 C   0  0  0  0  0  3  0  0  0  0  0  0
  -27.6490  -37.2530   24.7870 C   0  0  0  0  0  1  0  0  0  0  0  0
  -26.5470  -37.4230   23.8440 N   0  0  0  0  0  0  0  0  0  0  0  0
  -26.1460  -38.3470   23.9900 H   0  0  0  0  0  0  0  0  0  0  0  0
  -26.4650  -31.7610   25.2190 C   0  0  1  0  0  0  0  0  0  0  0  0
  -25.3670  -31.5330   26.2850 C   0  0  0  0  0  1  0  0  0  0  0  0
  -27.0390  -30.3810   24.8230 C   0  0  0  0  0  1  0  0  0  0  0  0
  -27.6220  -32.5470   25.8800 C   0  0  0  0  0  1  0  0  0  0  0  0
  1  5  1  0
  2  1  1  0
  2 49  1  0
  3  1  2  0
  4  2  1  0
  5  6  1  0
  7  8  1  0
  7  6  1  0
  9  8  1  0
  9 10  1  0
 11 19  1  0
 12 17  1  0
 13 14  1  0
 13 12  1  0
 15 14  1  0
 15 24  1  0
 15 16  1  0
 17 11  1  0
 17 16  1  0
 18 11  2  0
 19 10  1  0
 19 20  1  0
 21 22  2  0
 22 41  1  0
 23 22  1  0
 23 26  1  0
 24 21  1  0
 24 25  1  0
 25 23  2  0
 26 27  1  0
 27 28  2  0
 29 32  1  0
 29 28  1  0
 30 29  2  0
 31 30  1  0
 31 26  2  0
 32 33  1  0
 33 34  1  0
 34 35  2  0
 36 35  1  0
 36 40  1  0
 37 36  2  0
 38 33  2  0
 38 37  1  0
 39 38  1  0
 41 42  1  0
 42 45  1  0
 42 44  1  0
 43 41  2  0
 46 47  1  0
 46 21  1  0
 48 46  1  0
 49 50  1  0
 51 53  1  0
 51 50  1  0
 52 63  2  0
 53 58  1  0
 54 62  1  0
 54 64  1  0
 55 61  1  0
 55 57  1  0
 56 62  1  0
 57 56  1  0
 58 57  2  0
 59 60  1  0
 59 53  2  0
 60 55  2  0
 61 54  1  0
 62 52  1  0
 64 66  2  0
 65 64  1  0
 67 65  1  0
 68 77  2  0
 68 73  1  0
 69 65  1  0
 69 73  1  0
 70 69  1  0
 71 72  1  0
 71 70  1  0
 72 68  1  0
 73 74  2  0
 74 75  1  0
 76 75  2  0
 77 76  1  0
 78 52  1  0
 78 79  1  0
 78 88  1  0
 79 82  1  0
 80 84  1  0
 80 79  1  0
 81 80  2  0
 84 83  1  0
 86 84  1  0
 86 87  1  0
 86 85  1  0
 88 91  1  1
 88 89  1  0
 90 88  1  0
M  ISO  4  11 100  19 100  50 101  51 101
M  END
>  <TORSDO>  (71) 
F 24

>  <SCORE>  (71) 
-11.535

>  <name>  (71) 
70

>  <ligand_id>  (71) 
70

>  <original_smiles>  (71) 
[H]c1c([H])c([H])c2c(c1[H])C([H])([H])C([H])([H])C([H])([H])C2([H])N([H])C(=O)C1([H])N(C(=O)C([H])(N([H])C(=O)C([H])(N([H])C([H])([H])[H])C([H])([H])[H])C(C([H])([H])[H])(C([H])([H])[H])C([H])([H])[H])C([H])([H])c2c([H])c(OC([H])([H])C([H])([H])N([H])C(=O)C([H])([H])C([H])([H])C([H])([H])C([H])([H])C([H])([H])C([H])([H])N([H])C(=O)N3C([H])([H])C([H])([H])C([H])([H])C([H])(n4nc(-c5c([H])c([H])c(Oc6c([H])c([H])c(F)c([H])c6F)c([H])c5[H])c(C(=O)N([H])[H])c4N([H])[H])C3([H])[H])c([H])c([H])c2C1([H])[H]

>  <smiles>  (71) 
[H]c1c([H])c([H])c2c(c1[H])C([H])([H])C([H])([H])C([H])([H])C2([H])N([H])C(=O)C1([H])N(C(=O)C([H])(N([H])C(=O)C([H])(N([H])C([H])([H])[H])C([H])([H])[H])C(C([H])([H])[H])(C([H])([H])[H])C([H])([H])[H])C([H])([H])c2c([H])c(OC([H])([H])C([H])([H])N([H])C(=O)C([H])([H])C([H])([H])C([H])([H])C([H])([H])C([H])([H])C([H])([H])N([H])C(=O)N3C([H])([H])C([H])([H])C([H])([H])C([H])(n4nc(-c5c([H])c([H])c(Oc6c([H])c([H])c(F)c([H])c6F)c([H])c5[H])c(C(=O)N([H])[H])c4N([H])[H])C3([H])[H])c([H])c([H])c2C1([H])[H]

$$$$
71:0:0
     RDKit          3D

102110  0  0  1  0  0  0  0  0999 V2000
  -34.3610  -27.0480   18.8230 C   0  0  0  0  0  3  0  0  0  0  0  0
  -34.3900  -25.7510   19.1780 C   0  0  0  0  0  3  0  0  0  0  0  0
  -33.9570  -24.5870   18.3130 C   0  0  0  0  0  2  0  0  0  0  0  0
  -35.0440  -23.6020   18.1330 N   0  0  0  0  0  4  0  0  0  0  0  0
  -35.6160  -23.5570   18.9580 H   0  0  0  0  0  0  0  0  0  0  0  0
  -35.6240  -23.9320   17.3780 H   0  0  0  0  0  0  0  0  0  0  0  0
  -34.5690  -22.2420   17.8050 C   0  0  0  0  0  2  0  0  0  0  0  0
  -34.3010  -21.3860   19.0620 C   0  0  0  0  0  2  0  0  0  0  0  0
  -33.3270  -20.2320   18.7760 C   0  0  0  0  0  2  0  0  0  0  0  0
  -33.2060  -19.2160   19.9260 C   0  0  0  0  0  2  0  0  0  0  0  0
  -31.9130  -18.3880   19.8370 C   0  0  0  0  0  2  0  0  0  0  0  0
  -31.9320  -17.2240   20.7440 N   0  0  0  0  0  4  0  0  0  0  0  0
  -32.3940  -16.4610   20.2640 H   0  0  0  0  0  0  0  0  0  0  0  0
  -32.4630  -17.4380   21.5730 H   0  0  0  0  0  0  0  0  0  0  0  0
  -30.5910  -16.7350   21.1390 C   0  0  0  0  0  2  0  0  0  0  0  0
  -30.5910  -15.2430   21.5200 C   0  0  0  0  0  2  0  0  0  0  0  0
  -30.8370  -14.3320   20.3000 C   0  0  0  0  0  0  0  0  0  0  0  0
  -30.3700  -12.3250   18.9460 C   0  0  0  0  0  2  0  0  0  0  0  0
  -29.3790  -12.6200   17.8060 C   0  0  0  0  0  2  0  0  0  0  0  0
  -27.9230  -12.4900   18.2930 C   0  0  0  0  0  2  0  0  0  0  0  0
  -27.6690  -13.2600   19.6170 C   0  0  0  0  0  3  0  0  0  0  0  0
  -28.7630  -12.9310   20.6580 C   0  0  0  0  0  2  0  0  0  0  0  0
  -30.0740  -13.2350   20.0620 N   0  0  0  0  0  0  0  0  0  0  0  0
  -31.7910  -14.6370   19.5740 O   0  0  0  0  0  0  0  0  0  0  0  0
  -25.3020  -13.8810   20.4240 C   0  0  0  0  0  0  0  0  0  0  0  0
  -24.2430  -13.1110   20.8320 C   0  0  0  0  0  0  0  0  0  0  0  0
  -24.6900  -11.7590   20.7610 C   0  0  0  0  0  0  0  0  0  0  0  0
  -26.3290  -12.9940   20.1390 N   0  0  0  0  0  0  0  0  0  0  0  0
  -25.9650  -11.7100   20.3970 N   0  0  0  0  0  0  0  0  0  0  0  0
  -23.9610  -10.4990   20.9680 C   0  0  0  0  0  0  0  0  0  0  0  0
  -24.4100   -9.5290   21.8910 C   0  0  0  0  0  3  0  0  0  0  0  0
  -23.6830   -8.3360   22.0870 C   0  0  0  0  0  3  0  0  0  0  0  0
  -22.4910   -8.1040   21.3600 C   0  0  0  0  0  0  0  0  0  0  0  0
  -22.0600   -9.0630   20.4260 C   0  0  0  0  0  3  0  0  0  0  0  0
  -22.7880  -10.2480   20.2290 C   0  0  0  0  0  3  0  0  0  0  0  0
  -21.7330   -6.9620   21.4640 O   0  0  0  0  0  0  0  0  0  0  0  0
  -21.6940   -6.2270   22.6220 C   0  0  0  0  0  0  0  0  0  0  0  0
  -21.2720   -6.7870   23.8480 C   0  0  0  0  0  3  0  0  0  0  0  0
  -21.1820   -5.9780   24.9980 C   0  0  0  0  0  3  0  0  0  0  0  0
  -21.5030   -4.6090   24.9230 C   0  0  0  0  0  0  0  0  0  0  0  0
  -21.9170   -4.0480   23.7020 C   0  0  0  0  0  3  0  0  0  0  0  0
  -22.0090   -4.8550   22.5540 C   0  0  0  0  0  0  0  0  0  0  0  0
  -22.3890   -4.3060   21.3760 F   0  0  0  0  0  0  0  0  0  0  0  0
  -21.4080   -3.8300   26.0250 F   0  0  0  0  0  0  0  0  0  0  0  0
  -22.8620  -13.5980   21.1720 C   0  0  0  0  0  0  0  0  0  0  0  0
  -22.1650  -12.8940   22.0580 N   0  0  0  0  0  0  0  0  0  0  0  0
  -22.4140  -14.6370   20.6910 O   0  0  0  0  0  0  0  0  0  0  0  0
  -22.5380  -12.0510   22.4700 H   0  0  0  0  0  0  0  0  0  0  0  0
  -21.2410  -13.2010   22.3270 H   0  0  0  0  0  0  0  0  0  0  0  0
  -25.4680  -15.2520   20.2560 N   0  0  0  0  0  0  0  0  0  0  0  0
  -24.7080  -15.9060   20.4060 H   0  0  0  0  0  0  0  0  0  0  0  0
  -26.3040  -15.6890   19.8890 H   0  0  0  0  0  0  0  0  0  0  0  0
  -34.6710  -28.1860   19.7820 C   0  0  0  0  0  2  0  0  0  0  0  0
  -32.0300  -30.6040   21.2080 C   0  0  0  0  0  3  0  0  0  0  0  0
  -33.2210  -30.1160   20.6280 C   0  0  0  0  0  3  0  0  0  0  0  0
  -31.0320  -29.7130   21.6440 C   0  0  0  0  0  3  0  0  0  0  0  0
  -32.4340  -27.8400   20.9570 C   0  0  0  0  0  3  0  0  0  0  0  0
  -33.4210  -28.7270   20.4740 C   0  0  0  0  0  0  0  0  0  0  0  0
  -31.2380  -28.3230   21.5230 C   0  0  0  0  0  0  0  0  0  0  0  0
  -30.1550  -27.3310   21.9180 C   0  0  0  0  0  2  0  0  0  0  0  0
  -29.5960  -26.6250   20.6500 C   0  0  0  0  0  2  0  0  0  0  0  0
  -28.2970  -26.2500   20.1500 O   0  0  0  0  0  0  0  0  0  0  0  0
  -24.6000  -31.6120   23.0850 C   0  0  0  0  0  0  0  0  0  0  0  0
  -27.1960  -27.0910   20.1430 C   0  0  0  0  0  0  0  0  0  0  0  0
  -23.3800  -30.2180   21.4370 C   0  0  0  0  0  3  0  0  0  0  0  0
  -24.8180  -28.6210   20.0680 C   0  0  0  0  0  0  0  0  0  0  0  0
  -25.9080  -30.5300   21.2670 C   0  0  0  0  0  2  0  0  0  0  0  0
  -25.9710  -29.1450   20.6620 C   0  0  0  0  0  0  0  0  0  0  0  0
  -27.1600  -28.3950   20.6910 C   0  0  0  0  0  3  0  0  0  0  0  0
  -26.0230  -26.5710   19.5530 C   0  0  0  0  0  3  0  0  0  0  0  0
  -24.8370  -27.3300   19.5060 C   0  0  0  0  0  3  0  0  0  0  0  0
  -23.5940  -29.5080   20.0730 C   0  0  0  0  0  2  0  0  0  0  0  0
  -24.6470  -30.8040   21.9890 N   0  0  0  0  0  0  0  0  0  0  0  0
  -23.5210  -31.9130   23.6120 O   0  0  0  0  0  0  0  0  0  0  0  0
  -22.6900  -29.2300   22.4050 C   0  0  0  0  0  0  0  0  0  0  0  0
  -21.3540  -29.1320   22.3050 N   0  0  0  0  0  0  0  0  0  0  0  0
  -23.3500  -28.5580   23.2010 O   0  0  0  0  0  0  0  0  0  0  0  0
  -20.8850  -29.7250   21.6340 H   0  0  0  0  0  0  0  0  0  0  0  0
  -17.9190  -28.1870   22.8910 C   0  0  0  0  0  0  0  0  0  0  0  0
  -20.4950  -28.2370   23.0810 C   0  0  0  0  0  3  0  0  0  0  0  0
  -20.4650  -26.8170   22.4690 C   0  0  0  0  0  2  0  0  0  0  0  0
  -19.3090  -26.6090   21.4850 C   0  0  0  0  0  2  0  0  0  0  0  0
  -17.9650  -26.8450   22.1810 C   0  0  0  0  0  2  0  0  0  0  0  0
  -19.1080  -28.8480   23.2990 C   0  0  0  0  0  0  0  0  0  0  0  0
  -19.0100  -30.1080   23.9260 C   0  0  0  0  0  3  0  0  0  0  0  0
  -17.7560  -30.7100   24.1420 C   0  0  0  0  0  3  0  0  0  0  0  0
  -16.5810  -30.0460   23.7510 C   0  0  0  0  0  3  0  0  0  0  0  0
  -16.6640  -28.7860   23.1340 C   0  0  0  0  0  3  0  0  0  0  0  0
  -25.8950  -32.2140   23.7170 C   0  0  0  0  0  3  0  0  0  0  0  0
  -25.6030  -33.6060   24.0780 N   0  0  0  0  0  0  0  0  0  0  0  0
  -25.9580  -34.6700   23.3450 C   0  0  0  0  0  0  0  0  0  0  0  0
  -26.6340  -34.5790   22.3170 O   0  0  0  0  0  0  0  0  0  0  0  0
  -25.0080  -33.7510   24.8810 H   0  0  0  0  0  0  0  0  0  0  0  0
  -24.2700  -36.4990   23.0040 C   0  0  0  0  0  1  0  0  0  0  0  0
  -25.4840  -36.0520   23.8320 C   0  0  0  0  0  3  0  0  0  0  0  0
  -27.6140  -36.8800   24.7260 C   0  0  0  0  0  1  0  0  0  0  0  0
  -26.5350  -37.0900   23.7680 N   0  0  0  0  0  0  0  0  0  0  0  0
  -26.1390  -38.0140   23.9260 H   0  0  0  0  0  0  0  0  0  0  0  0
  -26.4080  -31.4060   24.9710 C   0  0  1  0  0  0  0  0  0  0  0  0
  -25.3180  -31.1500   26.0370 C   0  0  0  0  0  1  0  0  0  0  0  0
  -26.9890  -30.0410   24.5310 C   0  0  0  0  0  1  0  0  0  0  0  0
  -27.5580  -32.1800   25.6560 C   0  0  0  0  0  1  0  0  0  0  0  0
  1  2  2  0
  1 53  1  0
  3  2  1  0
  4  3  1  0
  4  5  1  0
  6  4  1  0
  7  4  1  0
  7  8  1  0
  9  8  1  0
  9 10  1  0
 11 10  1  0
 11 12  1  0
 12 15  1  0
 12 14  1  0
 13 12  1  0
 15 16  1  0
 17 16  1  0
 18 23  1  0
 19 20  1  0
 19 18  1  0
 21 20  1  0
 21 28  1  0
 21 22  1  0
 23 17  1  0
 23 22  1  0
 24 17  2  0
 25 26  2  0
 26 45  1  0
 27 26  1  0
 27 30  1  0
 28 29  1  0
 28 25  1  0
 29 27  2  0
 30 31  1  0
 31 32  2  0
 33 36  1  0
 33 32  1  0
 34 33  2  0
 35 34  1  0
 35 30  2  0
 36 37  1  0
 37 38  1  0
 38 39  2  0
 40 39  1  0
 40 44  1  0
 41 40  2  0
 42 37  2  0
 42 41  1  0
 43 42  1  0
 45 46  1  0
 46 49  1  0
 46 48  1  0
 47 45  2  0
 50 51  1  0
 50 25  1  0
 52 50  1  0
 53 58  1  0
 54 56  1  0
 55 54  2  0
 57 59  1  0
 58 55  1  0
 58 57  2  0
 59 56  2  0
 59 60  1  0
 61 60  1  0
 62 61  1  0
 63 74  2  0
 64 62  1  0
 64 69  1  0
 65 73  1  0
 65 75  1  0
 66 72  1  0
 66 68  1  0
 67 73  1  0
 68 69  2  0
 68 67  1  0
 70 64  2  0
 71 70  1  0
 71 66  2  0
 72 65  1  0
 73 63  1  0
 75 77  2  0
 76 75  1  0
 78 76  1  0
 79 88  2  0
 79 84  1  0
 80 76  1  0
 80 84  1  0
 81 80  1  0
 82 83  1  0
 82 81  1  0
 83 79  1  0
 84 85  2  0
 85 86  1  0
 87 86  2  0
 88 87  1  0
 89 63  1  0
 89 90  1  0
 89 99  1  0
 90 93  1  0
 91 95  1  0
 91 90  1  0
 92 91  2  0
 95 94  1  0
 97 95  1  0
 97 98  1  0
 97 96  1  0
 99102  1  1
 99100  1  0
101 99  1  0
M  ISO  4  16 100  17 100  61 101  62 101
M  END
>  <TORSDO>  (72) 
F 30

>  <SCORE>  (72) 
-10.090

>  <name>  (72) 
71

>  <ligand_id>  (72) 
71

>  <original_smiles>  (72) 
[H]C(=C([H])C([H])([H])[N+]([H])([H])C([H])([H])C([H])([H])C([H])([H])C([H])([H])C([H])([H])[N+]([H])([H])C([H])([H])C([H])([H])C(=O)N1C([H])([H])C([H])([H])C([H])([H])C([H])(n2nc(-c3c([H])c([H])c(Oc4c([H])c([H])c(F)c([H])c4F)c([H])c3[H])c(C(=O)N([H])[H])c2N([H])[H])C1([H])[H])C([H])([H])c1c([H])c([H])c([H])c(C([H])([H])C([H])([H])Oc2c([H])c([H])c3c(c2[H])C([H])([H])N(C(=O)C([H])(N([H])C(=O)C([H])(N([H])C([H])([H])[H])C([H])([H])[H])C(C([H])([H])[H])(C([H])([H])[H])C([H])([H])[H])C([H])(C(=O)N([H])C2([H])c4c([H])c([H])c([H])c([H])c4C([H])([H])C([H])([H])C2([H])[H])C3([H])[H])c1[H]

>  <smiles>  (72) 
[H]C(=C([H])C([H])([H])[N+]([H])([H])C([H])([H])C([H])([H])C([H])([H])C([H])([H])C([H])([H])[N+]([H])([H])C([H])([H])C([H])([H])C(=O)N1C([H])([H])C([H])([H])C([H])([H])C([H])(n2nc(-c3c([H])c([H])c(Oc4c([H])c([H])c(F)c([H])c4F)c([H])c3[H])c(C(=O)N([H])[H])c2N([H])[H])C1([H])[H])C([H])([H])c1c([H])c([H])c([H])c(C([H])([H])C([H])([H])Oc2c([H])c([H])c3c(c2[H])C([H])([H])N(C(=O)C([H])(N([H])C(=O)C([H])(N([H])C([H])([H])[H])C([H])([H])[H])C(C([H])([H])[H])(C([H])([H])[H])C([H])([H])[H])C([H])(C(=O)N([H])C2([H])c4c([H])c([H])c([H])c([H])c4C([H])([H])C([H])([H])C2([H])[H])C3([H])[H])c1[H]

$$$$
72:0:0
     RDKit          3D

100108  0  0  1  0  0  0  0  0999 V2000
  -26.5040  -23.7090   19.8480 C   0  0  0  0  0  3  0  0  0  0  0  0
  -26.5370  -22.6860   18.8810 C   0  0  0  0  0  3  0  0  0  0  0  0
  -24.2250  -23.0960   20.4070 C   0  0  0  0  0  3  0  0  0  0  0  0
  -25.3510  -23.9180   20.6350 C   0  0  0  0  0  0  0  0  0  0  0  0
  -25.4050  -21.8720   18.6490 C   0  0  0  0  0  0  0  0  0  0  0  0
  -24.2350  -22.0860   19.4220 C   0  0  0  0  0  0  0  0  0  0  0  0
  -22.9470  -21.3050   19.1860 C   0  0  0  0  0  1  0  0  0  0  0  0
  -25.2230  -25.0750   21.5960 C   0  0  0  0  0  0  0  0  0  0  0  0
  -26.3060  -25.7510   22.0180 N   0  0  0  0  0  0  0  0  0  0  0  0
  -24.1090  -25.3620   22.0400 O   0  0  0  0  0  0  0  0  0  0  0  0
  -26.1050  -26.5000   22.6630 H   0  0  0  0  0  0  0  0  0  0  0  0
  -27.7150  -25.5770   21.6590 C   0  0  0  0  0  2  0  0  0  0  0  0
  -28.5600  -26.8540   21.8780 C   0  0  0  0  0  2  0  0  0  0  0  0
  -28.4900  -27.7490   20.7610 O   0  0  0  0  0  0  0  0  0  0  0  0
  -24.8480  -32.7440   24.1810 C   0  0  0  0  0  0  0  0  0  0  0  0
  -27.3690  -28.5280   20.7760 C   0  0  0  0  0  0  0  0  0  0  0  0
  -23.5860  -31.4650   22.4740 C   0  0  0  0  0  3  0  0  0  0  0  0
  -24.9930  -30.0190   20.9140 C   0  0  0  0  0  0  0  0  0  0  0  0
  -26.1000  -31.8320   22.2340 C   0  0  0  0  0  2  0  0  0  0  0  0
  -26.1620  -30.5100   21.5130 C   0  0  0  0  0  0  0  0  0  0  0  0
  -27.3560  -29.7690   21.4430 C   0  0  0  0  0  3  0  0  0  0  0  0
  -26.1970  -28.0500   20.1570 C   0  0  0  0  0  3  0  0  0  0  0  0
  -25.0030  -28.7880   20.2350 C   0  0  0  0  0  3  0  0  0  0  0  0
  -23.7580  -30.8780   21.0470 C   0  0  0  0  0  2  0  0  0  0  0  0
  -24.8630  -32.0230   23.0250 N   0  0  0  0  0  0  0  0  0  0  0  0
  -23.7840  -32.9930   24.7630 O   0  0  0  0  0  0  0  0  0  0  0  0
  -22.9470  -30.3870   23.3800 C   0  0  0  0  0  0  0  0  0  0  0  0
  -21.6920  -30.0170   23.0730 N   0  0  0  0  0  0  0  0  0  0  0  0
  -23.5760  -29.8980   24.3170 O   0  0  0  0  0  0  0  0  0  0  0  0
  -21.2430  -30.4870   22.2980 H   0  0  0  0  0  0  0  0  0  0  0  0
  -18.5430  -28.2500   23.0160 C   0  0  0  0  0  0  0  0  0  0  0  0
  -20.9020  -28.9990   23.7610 C   0  0  0  0  0  3  0  0  0  0  0  0
  -21.3660  -27.5760   23.3730 C   0  0  0  0  0  2  0  0  0  0  0  0
  -20.5830  -26.9870   22.1970 C   0  0  0  0  0  2  0  0  0  0  0  0
  -19.0870  -26.9170   22.5360 C   0  0  0  0  0  2  0  0  0  0  0  0
  -19.3980  -29.2340   23.5770 C   0  0  0  0  0  0  0  0  0  0  0  0
  -18.8490  -30.4700   23.9820 C   0  0  0  0  0  3  0  0  0  0  0  0
  -17.4740  -30.7300   23.8300 C   0  0  0  0  0  3  0  0  0  0  0  0
  -16.6290  -29.7470   23.2870 C   0  0  0  0  0  3  0  0  0  0  0  0
  -17.1620  -28.5110   22.8870 C   0  0  0  0  0  3  0  0  0  0  0  0
  -26.1580  -33.3140   24.8110 C   0  0  0  0  0  3  0  0  0  0  0  0
  -25.9990  -34.7710   24.9230 N   0  0  0  0  0  0  0  0  0  0  0  0
  -26.5280  -35.6570   24.0700 C   0  0  0  0  0  0  0  0  0  0  0  0
  -27.2740  -35.3330   23.1410 O   0  0  0  0  0  0  0  0  0  0  0  0
  -25.3560  -35.1070   25.6270 H   0  0  0  0  0  0  0  0  0  0  0  0
  -25.0890  -37.5660   23.2810 C   0  0  0  0  0  1  0  0  0  0  0  0
  -26.1750  -37.1430   24.2800 C   0  0  0  0  0  3  0  0  0  0  0  0
  -28.3190  -37.8720   25.2240 C   0  0  0  0  0  1  0  0  0  0  0  0
  -27.3370  -38.0460   24.1570 N   0  0  0  0  0  0  0  0  0  0  0  0
  -27.0400  -39.0160   24.1610 H   0  0  0  0  0  0  0  0  0  0  0  0
  -26.5020  -32.6820   26.2140 C   0  0  1  0  0  0  0  0  0  0  0  0
  -25.2890  -32.6090   27.1710 C   0  0  0  0  0  1  0  0  0  0  0  0
  -27.0610  -31.2490   26.0450 C   0  0  0  0  0  1  0  0  0  0  0  0
  -27.6080  -33.5100   26.9110 C   0  0  0  0  0  1  0  0  0  0  0  0
  -25.4860  -20.8200   17.5430 C   0  0  0  0  0  2  0  0  0  0  0  0
  -27.5120  -19.5300   16.8660 C   0  0  0  0  0  0  0  0  0  0  0  0
  -26.5510  -19.8410   17.7420 N   0  0  0  0  0  0  0  0  0  0  0  0
  -27.5800  -20.0400   15.7450 O   0  0  0  0  0  0  0  0  0  0  0  0
  -26.5380  -19.3330   18.6180 H   0  0  0  0  0  0  0  0  0  0  0  0
  -28.5540  -18.4950   17.3170 C   0  0  0  0  0  2  0  0  0  0  0  0
  -29.5590  -18.0750   16.2160 C   0  0  0  0  0  2  0  0  0  0  0  0
  -30.0140  -16.5980   16.2310 C   0  0  0  0  0  2  0  0  0  0  0  0
  -31.4480  -15.2010   17.6350 C   0  0  0  0  0  0  0  0  0  0  0  0
  -31.8700  -13.0320   18.7270 C   0  0  0  0  0  2  0  0  0  0  0  0
  -31.0390  -11.9400   18.0240 C   0  0  0  0  0  2  0  0  0  0  0  0
  -29.6380  -11.8380   18.6560 C   0  0  0  0  0  2  0  0  0  0  0  0
  -28.9450  -13.2200   18.7870 C   0  0  0  0  0  3  0  0  0  0  0  0
  -29.8920  -14.2810   19.4000 C   0  0  0  0  0  2  0  0  0  0  0  0
  -31.1410  -14.3070   18.6160 N   0  0  0  0  0  0  0  0  0  0  0  0
  -32.3990  -15.0610   16.8670 O   0  0  0  0  0  0  0  0  0  0  0  0
  -30.6260  -16.2530   17.5190 N   0  0  0  0  0  0  0  0  0  0  0  0
  -30.9640  -17.0440   18.0580 H   0  0  0  0  0  0  0  0  0  0  0  0
  -26.9180  -14.1210   20.0900 C   0  0  0  0  0  0  0  0  0  0  0  0
  -25.8210  -13.5030   20.6230 C   0  0  0  0  0  0  0  0  0  0  0  0
  -25.9810  -12.1100   20.3480 C   0  0  0  0  0  0  0  0  0  0  0  0
  -27.6920  -13.1150   19.5370 N   0  0  0  0  0  0  0  0  0  0  0  0
  -27.1380  -11.8920   19.7350 N   0  0  0  0  0  0  0  0  0  0  0  0
  -25.0670  -10.9820   20.5790 C   0  0  0  0  0  0  0  0  0  0  0  0
  -25.3700   -9.9620   21.5050 C   0  0  0  0  0  3  0  0  0  0  0  0
  -24.4700   -8.8980   21.7220 C   0  0  0  0  0  3  0  0  0  0  0  0
  -23.2500   -8.8460   21.0080 C   0  0  0  0  0  0  0  0  0  0  0  0
  -22.9580   -9.8540   20.0690 C   0  0  0  0  0  3  0  0  0  0  0  0
  -23.8610  -10.9100   19.8510 C   0  0  0  0  0  3  0  0  0  0  0  0
  -22.3330   -7.8310   21.1300 O   0  0  0  0  0  0  0  0  0  0  0  0
  -22.0720   -7.2370   22.3400 C   0  0  0  0  0  0  0  0  0  0  0  0
  -21.5490   -7.9640   23.4310 C   0  0  0  0  0  3  0  0  0  0  0  0
  -21.2290   -7.3000   24.6310 C   0  0  0  0  0  3  0  0  0  0  0  0
  -21.4230   -5.9100   24.7410 C   0  0  0  0  0  0  0  0  0  0  0  0
  -21.9380   -5.1820   23.6550 C   0  0  0  0  0  3  0  0  0  0  0  0
  -22.2590   -5.8440   22.4550 C   0  0  0  0  0  0  0  0  0  0  0  0
  -22.7360   -5.1320   21.4050 F   0  0  0  0  0  0  0  0  0  0  0  0
  -21.1070   -5.2710   25.8930 F   0  0  0  0  0  0  0  0  0  0  0  0
  -24.6490  -14.1780   21.2800 C   0  0  0  0  0  0  0  0  0  0  0  0
  -24.0240  -13.5160   22.2490 N   0  0  0  0  0  0  0  0  0  0  0  0
  -24.3170  -15.3230   20.9780 O   0  0  0  0  0  0  0  0  0  0  0  0
  -24.3180  -12.5930   22.5270 H   0  0  0  0  0  0  0  0  0  0  0  0
  -23.2430  -13.9450   22.7220 H   0  0  0  0  0  0  0  0  0  0  0  0
  -27.3150  -15.4520   20.0190 N   0  0  0  0  0  0  0  0  0  0  0  0
  -26.7080  -16.2050   20.3170 H   0  0  0  0  0  0  0  0  0  0  0  0
  -28.1940  -15.7860   19.6420 H   0  0  0  0  0  0  0  0  0  0  0  0
  1  4  1  0
  2  1  2  0
  3  4  2  0
  4  8  1  0
  5  2  1  0
  5  6  2  0
  6  3  1  0
  7  6  1  0
  8  9  1  0
  8 10  2  0
  9 11  1  0
 12 13  1  0
 12  9  1  0
 14 16  1  0
 14 13  1  0
 15 26  2  0
 16 21  1  0
 17 25  1  0
 17 27  1  0
 18 24  1  0
 18 20  1  0
 19 25  1  0
 20 19  1  0
 21 20  2  0
 22 23  1  0
 22 16  2  0
 23 18  2  0
 24 17  1  0
 25 15  1  0
 27 29  2  0
 28 27  1  0
 30 28  1  0
 31 36  1  0
 32 28  1  0
 33 32  1  0
 34 35  1  0
 34 33  1  0
 35 31  1  0
 36 32  1  0
 36 37  2  0
 38 37  1  0
 39 38  2  0
 40 31  2  0
 40 39  1  0
 41 15  1  0
 41 42  1  0
 41 51  1  0
 42 45  1  0
 43 47  1  0
 43 42  1  0
 44 43  2  0
 47 46  1  0
 49 50  1  0
 49 47  1  0
 49 48  1  0
 51 54  1  1
 51 52  1  0
 53 51  1  0
 55 57  1  0
 55  5  1  0
 56 60  1  0
 56 57  1  0
 57 59  1  0
 58 56  2  0
 61 62  1  0
 61 60  1  0
 62 71  1  0
 63 69  1  0
 65 66  1  0
 65 64  1  0
 67 66  1  0
 67 68  1  0
 67 76  1  0
 69 64  1  0
 69 68  1  0
 70 63  2  0
 71 63  1  0
 71 72  1  0
 73 74  2  0
 74 93  1  0
 75 78  1  0
 75 74  1  0
 76 77  1  0
 76 73  1  0
 77 75  2  0
 78 79  1  0
 79 80  2  0
 81 84  1  0
 81 80  1  0
 82 81  2  0
 83 82  1  0
 83 78  2  0
 84 85  1  0
 85 90  2  0
 85 86  1  0
 86 87  2  0
 87 88  1  0
 88 92  1  0
 89 88  2  0
 90 89  1  0
 91 90  1  0
 93 94  1  0
 94 96  1  0
 94 97  1  0
 95 93  2  0
 98 73  1  0
 98 99  1  0
100 98  1  0
M  ISO  4  13 101  14 101  63 100  71 100
M  END
>  <TORSDO>  (73) 
F 24

>  <SCORE>  (73) 
-1.297

>  <name>  (73) 
72

>  <ligand_id>  (73) 
72

>  <original_smiles>  (73) 
[H]c1c([H])c([H])c2c(c1[H])C([H])([H])C([H])([H])C([H])([H])C2([H])N([H])C(=O)C1([H])N(C(=O)C([H])(N([H])C(=O)C([H])(N([H])C([H])([H])[H])C([H])([H])[H])C(C([H])([H])[H])(C([H])([H])[H])C([H])([H])[H])C([H])([H])c2c([H])c(OC([H])([H])C([H])([H])N([H])C(=O)c3c([H])c([H])c(C([H])([H])N([H])C(=O)C([H])([H])C([H])([H])C([H])([H])N([H])C(=O)N4C([H])([H])C([H])([H])C([H])([H])C([H])(n5nc(-c6c([H])c([H])c(Oc7c([H])c([H])c(F)c([H])c7F)c([H])c6[H])c(C(=O)N([H])[H])c5N([H])[H])C4([H])[H])c(C([H])([H])[H])c3[H])c([H])c([H])c2C1([H])[H]

>  <smiles>  (73) 
[H]c1c([H])c([H])c2c(c1[H])C([H])([H])C([H])([H])C([H])([H])C2([H])N([H])C(=O)C1([H])N(C(=O)C([H])(N([H])C(=O)C([H])(N([H])C([H])([H])[H])C([H])([H])[H])C(C([H])([H])[H])(C([H])([H])[H])C([H])([H])[H])C([H])([H])c2c([H])c(OC([H])([H])C([H])([H])N([H])C(=O)c3c([H])c([H])c(C([H])([H])N([H])C(=O)C([H])([H])C([H])([H])C([H])([H])N([H])C(=O)N4C([H])([H])C([H])([H])C([H])([H])C([H])(n5nc(-c6c([H])c([H])c(Oc7c([H])c([H])c(F)c([H])c7F)c([H])c6[H])c(C(=O)N([H])[H])c5N([H])[H])C4([H])[H])c(C([H])([H])[H])c3[H])c([H])c([H])c2C1([H])[H]

$$$$
73:0:0
     RDKit          3D

101110  0  0  1  0  0  0  0  0999 V2000
  -31.1620  -19.8790   19.5420 C   0  0  0  0  0  2  0  0  0  0  0  0
  -31.7490  -17.6750   18.3390 C   0  0  0  0  0  0  0  0  0  0  0  0
  -31.2730  -17.6460   20.8330 C   0  0  0  0  0  2  0  0  0  0  0  0
  -29.4970  -16.9820   19.0430 C   0  0  0  0  0  2  0  0  0  0  0  0
  -29.9300  -16.9050   20.5300 C   0  0  0  0  0  3  0  0  0  0  0  0
  -31.8670  -18.4840   19.6510 C   0  0  2  0  0  0  0  0  0  0  0  0
  -30.6470  -16.9460   18.1510 N   0  0  0  0  0  0  0  0  0  0  0  0
  -32.6710  -17.6650   17.5190 O   0  0  0  0  0  0  0  0  0  0  0  0
  -30.6210  -16.3140   17.3610 H   0  0  0  0  0  0  0  0  0  0  0  0
  -30.6450  -14.4840   20.5340 C   0  0  0  0  0  0  0  0  0  0  0  0
  -30.3690  -12.3480   19.3560 C   0  0  0  0  0  2  0  0  0  0  0  0
  -29.4230  -12.5750   18.1580 C   0  0  0  0  0  2  0  0  0  0  0  0
  -27.9490  -12.4280   18.5860 C   0  0  0  0  0  2  0  0  0  0  0  0
  -27.6140  -13.2560   19.8540 C   0  0  0  0  0  3  0  0  0  0  0  0
  -28.6630  -12.9950   20.9650 C   0  0  0  0  0  2  0  0  0  0  0  0
  -29.9900  -13.3020   20.4080 N   0  0  0  0  0  0  0  0  0  0  0  0
  -31.7720  -14.6810   20.0740 O   0  0  0  0  0  0  0  0  0  0  0  0
  -29.8770  -15.4980   20.9750 N   0  0  0  0  0  0  0  0  0  0  0  0
  -28.9970  -15.2090   21.3750 H   0  0  0  0  0  0  0  0  0  0  0  0
  -25.2100  -13.8900   20.5280 C   0  0  0  0  0  0  0  0  0  0  0  0
  -24.1310  -13.1250   20.8890 C   0  0  0  0  0  0  0  0  0  0  0  0
  -24.5850  -11.7730   20.8660 C   0  0  0  0  0  0  0  0  0  0  0  0
  -26.2520  -12.9990   20.3180 N   0  0  0  0  0  0  0  0  0  0  0  0
  -25.8800  -11.7220   20.5800 N   0  0  0  0  0  0  0  0  0  0  0  0
  -23.8510  -10.5140   21.0490 C   0  0  0  0  0  0  0  0  0  0  0  0
  -24.2680   -9.5470   21.9880 C   0  0  0  0  0  3  0  0  0  0  0  0
  -23.5370   -8.3530   22.1590 C   0  0  0  0  0  3  0  0  0  0  0  0
  -22.3730   -8.1170   21.3900 C   0  0  0  0  0  0  0  0  0  0  0  0
  -21.9760   -9.0710   20.4360 C   0  0  0  0  0  3  0  0  0  0  0  0
  -22.7090  -10.2580   20.2650 C   0  0  0  0  0  3  0  0  0  0  0  0
  -21.6160   -6.9740   21.4710 O   0  0  0  0  0  0  0  0  0  0  0  0
  -21.5490   -6.2360   22.6250 C   0  0  0  0  0  0  0  0  0  0  0  0
  -21.1050   -6.7940   23.8440 C   0  0  0  0  0  3  0  0  0  0  0  0
  -20.9900   -5.9820   24.9900 C   0  0  0  0  0  3  0  0  0  0  0  0
  -21.3070   -4.6110   24.9200 C   0  0  0  0  0  0  0  0  0  0  0  0
  -21.7380   -4.0530   23.7040 C   0  0  0  0  0  3  0  0  0  0  0  0
  -21.8580   -4.8640   22.5600 C   0  0  0  0  0  0  0  0  0  0  0  0
  -22.2590   -4.3170   21.3870 F   0  0  0  0  0  0  0  0  0  0  0  0
  -21.1900   -3.8270   26.0160 F   0  0  0  0  0  0  0  0  0  0  0  0
  -22.7310  -13.6100   21.1470 C   0  0  0  0  0  0  0  0  0  0  0  0
  -21.9880  -12.9080   21.9960 N   0  0  0  0  0  0  0  0  0  0  0  0
  -22.3030  -14.6410   20.6290 O   0  0  0  0  0  0  0  0  0  0  0  0
  -22.3440  -12.0670   22.4260 H   0  0  0  0  0  0  0  0  0  0  0  0
  -21.0500  -13.2140   22.2170 H   0  0  0  0  0  0  0  0  0  0  0  0
  -25.3930  -15.2560   20.3460 N   0  0  0  0  0  0  0  0  0  0  0  0
  -24.6410  -15.9320   20.4350 H   0  0  0  0  0  0  0  0  0  0  0  0
  -26.2710  -15.6680   20.0570 H   0  0  0  0  0  0  0  0  0  0  0  0
  -33.3110  -18.6760   19.8890 N   0  0  0  0  0  4  0  0  0  0  0  0
  -33.7460  -17.7770   20.0050 H   0  0  0  0  0  0  0  0  0  0  0  0
  -33.4980  -19.2450   20.6940 H   0  0  0  0  0  0  0  0  0  0  0  0
  -33.7280  -19.0840   19.0700 H   0  0  0  0  0  0  0  0  0  0  0  0
  -31.5750  -20.8160   18.3750 C   0  0  0  0  0  2  0  0  0  0  0  0
  -32.0980  -24.6000   18.7980 C   0  0  0  0  0  3  0  0  0  0  0  0
  -29.8030  -24.0990   19.3910 C   0  0  0  0  0  3  0  0  0  0  0  0
  -32.3190  -23.2450   18.4870 C   0  0  0  0  0  3  0  0  0  0  0  0
  -30.0220  -22.7360   19.0860 C   0  0  0  0  0  3  0  0  0  0  0  0
  -30.8440  -25.0500   19.2640 C   0  0  0  0  0  0  0  0  0  0  0  0
  -31.2890  -22.2940   18.6490 C   0  0  0  0  0  0  0  0  0  0  0  0
  -30.7150  -26.4940   19.5850 C   0  0  0  0  0  3  0  0  0  0  0  0
  -29.6400  -27.2060   19.9900 C   0  0  0  0  0  3  0  0  0  0  0  0
  -28.3920  -26.6790   20.1900 O   0  0  0  0  0  0  0  0  0  0  0  0
  -24.5700  -31.9250   23.2400 C   0  0  0  0  0  0  0  0  0  0  0  0
  -27.2720  -27.4830   20.2010 C   0  0  0  0  0  0  0  0  0  0  0  0
  -23.3790  -30.5000   21.6030 C   0  0  0  0  0  3  0  0  0  0  0  0
  -24.8520  -28.9520   20.2060 C   0  0  0  0  0  0  0  0  0  0  0  0
  -25.9070  -30.8590   21.4320 C   0  0  0  0  0  2  0  0  0  0  0  0
  -26.0010  -29.4890   20.8000 C   0  0  0  0  0  0  0  0  0  0  0  0
  -27.2120  -28.7610   20.8070 C   0  0  0  0  0  3  0  0  0  0  0  0
  -26.1030  -26.9520   19.6190 C   0  0  0  0  0  3  0  0  0  0  0  0
  -24.8960  -27.6760   19.6180 C   0  0  0  0  0  3  0  0  0  0  0  0
  -23.5980  -29.7950   20.2380 C   0  0  0  0  0  2  0  0  0  0  0  0
  -24.6340  -31.1100   22.1470 N   0  0  0  0  0  0  0  0  0  0  0  0
  -23.4840  -32.2040   23.7680 O   0  0  0  0  0  0  0  0  0  0  0  0
  -22.7160  -29.4950   22.5710 C   0  0  0  0  0  0  0  0  0  0  0  0
  -21.3920  -29.3120   22.4320 N   0  0  0  0  0  0  0  0  0  0  0  0
  -23.3900  -28.8740   23.3970 O   0  0  0  0  0  0  0  0  0  0  0  0
  -20.9070  -29.8630   21.7370 H   0  0  0  0  0  0  0  0  0  0  0  0
  -18.0080  -28.1500   22.9160 C   0  0  0  0  0  0  0  0  0  0  0  0
  -20.5670  -28.3860   23.2000 C   0  0  0  0  0  3  0  0  0  0  0  0
  -20.6580  -26.9530   22.6270 C   0  0  0  0  0  2  0  0  0  0  0  0
  -19.5590  -26.6400   21.6070 C   0  0  0  0  0  2  0  0  0  0  0  0
  -18.1750  -26.7990   22.2440 C   0  0  0  0  0  2  0  0  0  0  0  0
  -19.1310  -28.9040   23.3480 C   0  0  0  0  0  0  0  0  0  0  0  0
  -18.9200  -30.1750   23.9310 C   0  0  0  0  0  3  0  0  0  0  0  0
  -17.6190  -30.6870   24.0900 C   0  0  0  0  0  3  0  0  0  0  0  0
  -16.5100  -29.9260   23.6810 C   0  0  0  0  0  3  0  0  0  0  0  0
  -16.7050  -28.6610   23.0980 C   0  0  0  0  0  3  0  0  0  0  0  0
  -25.8520  -32.5630   23.8630 C   0  0  0  0  0  3  0  0  0  0  0  0
  -25.5420  -33.9620   24.1800 N   0  0  0  0  0  0  0  0  0  0  0  0
  -25.8880  -35.0110   23.4200 C   0  0  0  0  0  0  0  0  0  0  0  0
  -26.5720  -34.9000   22.3990 O   0  0  0  0  0  0  0  0  0  0  0  0
  -24.9440  -34.1220   24.9770 H   0  0  0  0  0  0  0  0  0  0  0  0
  -24.1760  -36.8060   23.0190 C   0  0  0  0  0  1  0  0  0  0  0  0
  -25.3970  -36.4020   23.8600 C   0  0  0  0  0  3  0  0  0  0  0  0
  -27.5120  -37.2810   24.7450 C   0  0  0  0  0  1  0  0  0  0  0  0
  -26.4360  -37.4510   23.7710 N   0  0  0  0  0  0  0  0  0  0  0  0
  -26.0310  -38.3740   23.9090 H   0  0  0  0  0  0  0  0  0  0  0  0
  -26.3670  -31.7980   25.1420 C   0  0  1  0  0  0  0  0  0  0  0  0
  -25.2700  -31.5610   26.2050 C   0  0  0  0  0  1  0  0  0  0  0  0
  -26.9570  -30.4210   24.7640 C   0  0  0  0  0  1  0  0  0  0  0  0
  -27.5090  -32.6030   25.8080 C   0  0  0  0  0  1  0  0  0  0  0  0
  2  6  1  0
  4  5  1  0
  5  3  1  0
  5 18  1  0
  6  1  1  6
  6 48  1  0
  6  3  1  0
  7  2  1  0
  7  4  1  0
  8  2  2  0
  9  7  1  0
 10 18  1  0
 11 16  1  0
 12 13  1  0
 12 11  1  0
 14 13  1  0
 14 23  1  0
 14 15  1  0
 16 10  1  0
 16 15  1  0
 17 10  2  0
 18 19  1  0
 20 21  2  0
 21 40  1  0
 22 21  1  0
 22 25  1  0
 23 20  1  0
 23 24  1  0
 24 22  2  0
 25 26  1  0
 26 27  2  0
 28 31  1  0
 28 27  1  0
 29 28  2  0
 30 29  1  0
 30 25  2  0
 31 32  1  0
 32 33  1  0
 33 34  2  0
 35 34  1  0
 35 39  1  0
 36 35  2  0
 37 32  2  0
 37 36  1  0
 38 37  1  0
 40 41  1  0
 41 44  1  0
 41 43  1  0
 42 40  2  0
 45 46  1  0
 45 20  1  0
 47 45  1  0
 48 49  1  0
 48 50  1  0
 51 48  1  0
 52 58  1  0
 52  1  1  0
 53 57  1  0
 55 58  1  0
 55 53  2  0
 56 54  1  0
 57 54  2  0
 57 59  1  0
 58 56  2  0
 59 60  2  0
 60 61  1  0
 61 63  1  0
 62 73  2  0
 63 68  1  0
 64 72  1  0
 64 74  1  0
 65 71  1  0
 65 67  1  0
 66 72  1  0
 67 68  2  0
 67 66  1  0
 69 63  2  0
 70 69  1  0
 70 65  2  0
 71 64  1  0
 72 62  1  0
 74 76  2  0
 75 74  1  0
 77 75  1  0
 78 87  2  0
 78 83  1  0
 79 75  1  0
 79 83  1  0
 80 79  1  0
 81 82  1  0
 81 80  1  0
 82 78  1  0
 83 84  2  0
 84 85  1  0
 86 85  2  0
 87 86  1  0
 88 62  1  0
 88 89  1  0
 88 98  1  0
 89 92  1  0
 90 94  1  0
 90 89  1  0
 91 90  2  0
 94 93  1  0
 96 94  1  0
 96 97  1  0
 96 95  1  0
 98101  1  1
 98 99  1  0
100 98  1  0
M  ISO  4  10 100  18 100  60 101  61 101
M  END
>  <TORSDO>  (74) 
F 21

>  <SCORE>  (74) 
-13.923

>  <name>  (74) 
73

>  <ligand_id>  (74) 
73

>  <original_smiles>  (74) 
[H]C(Oc1c([H])c([H])c2c(c1[H])C([H])([H])N(C(=O)C([H])(N([H])C(=O)C([H])(N([H])C([H])([H])[H])C([H])([H])[H])C(C([H])([H])[H])(C([H])([H])[H])C([H])([H])[H])C([H])(C(=O)N([H])C1([H])c3c([H])c([H])c([H])c([H])c3C([H])([H])C([H])([H])C1([H])[H])C2([H])[H])=C([H])c1c([H])c([H])c(C([H])([H])C([H])([H])C2([N+]([H])([H])[H])C(=O)N([H])C([H])([H])C([H])(N([H])C(=O)N3C([H])([H])C([H])([H])C([H])([H])C([H])(n4nc(-c5c([H])c([H])c(Oc6c([H])c([H])c(F)c([H])c6F)c([H])c5[H])c(C(=O)N([H])[H])c4N([H])[H])C3([H])[H])C2([H])[H])c([H])c1[H]

>  <smiles>  (74) 
[H]C(Oc1c([H])c([H])c2c(c1[H])C([H])([H])N(C(=O)C([H])(N([H])C(=O)C([H])(N([H])C([H])([H])[H])C([H])([H])[H])C(C([H])([H])[H])(C([H])([H])[H])C([H])([H])[H])C([H])(C(=O)N([H])C1([H])c3c([H])c([H])c([H])c([H])c3C([H])([H])C([H])([H])C1([H])[H])C2([H])[H])=C([H])c1c([H])c([H])c(C([H])([H])C([H])([H])C2([N+]([H])([H])[H])C(=O)N([H])C([H])([H])C([H])(N([H])C(=O)N3C([H])([H])C([H])([H])C([H])([H])C([H])(n4nc(-c5c([H])c([H])c(Oc6c([H])c([H])c(F)c([H])c6F)c([H])c5[H])c(C(=O)N([H])[H])c4N([H])[H])C3([H])[H])C2([H])[H])c([H])c1[H]

$$$$
74:0:0
     RDKit          3D

103111  0  0  1  0  0  0  0  0999 V2000
  -34.9760  -16.8560    7.3520 C   0  0  0  0  0  3  0  0  0  0  0  0
  -34.0530  -16.2960    6.4520 C   0  0  0  0  0  3  0  0  0  0  0  0
  -35.9790  -18.1130    5.5330 C   0  0  0  0  0  3  0  0  0  0  0  0
  -35.9640  -17.7490    6.8980 C   0  0  0  0  0  0  0  0  0  0  0  0
  -34.0830  -16.6210    5.0760 C   0  0  0  0  0  0  0  0  0  0  0  0
  -35.0470  -17.5690    4.6120 C   0  0  0  0  0  0  0  0  0  0  0  0
  -36.9390  -18.3500    7.8700 C   0  0  0  0  0  0  0  0  0  0  0  0
  -36.8950  -17.8660    9.1180 N   0  0  0  0  0  0  0  0  0  0  0  0
  -37.6940  -19.2600    7.5270 O   0  0  0  0  0  0  0  0  0  0  0  0
  -36.2040  -17.1560    9.3200 H   0  0  0  0  0  0  0  0  0  0  0  0
  -37.8100  -18.2450   10.1910 C   0  0  0  0  0  2  0  0  0  0  0  0
  -37.3150  -19.4570   11.0090 C   0  0  0  0  0  2  0  0  0  0  0  0
  -38.3950  -20.2000   11.5800 O   0  0  0  0  0  0  0  0  0  0  0  0
  -36.3870  -16.6870   17.4300 C   0  0  0  0  0  0  0  0  0  0  0  0
  -38.6180  -19.9400   12.9080 C   0  0  0  0  0  0  0  0  0  0  0  0
  -38.0620  -18.4790   17.7610 C   0  0  0  0  0  3  0  0  0  0  0  0
  -39.1040  -19.4250   15.6360 C   0  0  0  0  0  0  0  0  0  0  0  0
  -37.9070  -17.2310   15.5350 C   0  0  0  0  0  2  0  0  0  0  0  0
  -38.3920  -18.4970   14.8630 C   0  0  0  0  0  0  0  0  0  0  0  0
  -38.1440  -18.7510   13.4970 C   0  0  0  0  0  3  0  0  0  0  0  0
  -39.3560  -20.8550   13.6850 C   0  0  0  0  0  3  0  0  0  0  0  0
  -39.5880  -20.6090   15.0510 C   0  0  0  0  0  3  0  0  0  0  0  0
  -39.3260  -19.0780   17.0890 C   0  0  0  0  0  2  0  0  0  0  0  0
  -37.3930  -17.4440   16.9080 N   0  0  0  0  0  0  0  0  0  0  0  0
  -36.0410  -16.8110   18.6130 O   0  0  0  0  0  0  0  0  0  0  0  0
  -37.1210  -19.6380   18.1660 C   0  0  0  0  0  0  0  0  0  0  0  0
  -37.4940  -20.3630   19.2330 N   0  0  0  0  0  0  0  0  0  0  0  0
  -36.1030  -19.8850   17.5150 O   0  0  0  0  0  0  0  0  0  0  0  0
  -38.3400  -20.0930   19.7160 H   0  0  0  0  0  0  0  0  0  0  0  0
  -37.7430  -23.0720   21.6090 C   0  0  0  0  0  0  0  0  0  0  0  0
  -36.7860  -21.5230   19.7740 C   0  0  0  0  0  3  0  0  0  0  0  0
  -36.9040  -22.7390   18.8270 C   0  0  0  0  0  2  0  0  0  0  0  0
  -38.0810  -23.6570   19.1710 C   0  0  0  0  0  2  0  0  0  0  0  0
  -37.9490  -24.1900   20.6010 C   0  0  0  0  0  2  0  0  0  0  0  0
  -37.2110  -21.8150   21.2170 C   0  0  0  0  0  0  0  0  0  0  0  0
  -37.0690  -20.8000   22.1870 C   0  0  0  0  0  3  0  0  0  0  0  0
  -37.4450  -21.0230   23.5250 C   0  0  0  0  0  3  0  0  0  0  0  0
  -37.9540  -22.2740   23.9120 C   0  0  0  0  0  3  0  0  0  0  0  0
  -38.0980  -23.2960   22.9560 C   0  0  0  0  0  3  0  0  0  0  0  0
  -35.6410  -15.6160   16.5750 C   0  0  0  0  0  3  0  0  0  0  0  0
  -35.5570  -14.3880   17.3770 N   0  0  0  0  0  0  0  0  0  0  0  0
  -36.5230  -13.4610   17.4530 C   0  0  0  0  0  0  0  0  0  0  0  0
  -37.5590  -13.5220   16.7880 O   0  0  0  0  0  0  0  0  0  0  0  0
  -34.7600  -14.3040   17.9900 H   0  0  0  0  0  0  0  0  0  0  0  0
  -35.6070  -12.7890   19.6960 C   0  0  0  0  0  1  0  0  0  0  0  0
  -36.3020  -12.2830   18.4210 C   0  0  0  0  0  3  0  0  0  0  0  0
  -37.6360  -10.2350   18.2050 C   0  0  0  0  0  1  0  0  0  0  0  0
  -37.5500  -11.5750   18.7800 N   0  0  0  0  0  0  0  0  0  0  0  0
  -37.6410  -11.4930   19.7890 H   0  0  0  0  0  0  0  0  0  0  0  0
  -34.2050  -16.0800   16.1120 C   0  0  1  0  0  0  0  0  0  0  0  0
  -34.1520  -17.5510   15.6400 C   0  0  0  0  0  1  0  0  0  0  0  0
  -33.6920  -15.1930   14.9540 C   0  0  0  0  0  1  0  0  0  0  0  0
  -33.1980  -15.9140   17.2740 C   0  0  0  0  0  1  0  0  0  0  0  0
  -35.1500  -18.0040    3.1860 C   0  0  0  0  0  3  0  0  0  0  0  0
  -34.8840  -19.1420    2.7900 O   0  0  0  0  0  0  0  0  0  0  0  0
  -33.0530  -15.9830    4.1970 C   0  0  0  0  0  0  0  0  0  0  0  0
  -32.6580  -16.4710    3.1350 O   0  0  0  0  0  0  0  0  0  0  0  0
  -32.5020  -14.6240    4.6500 C   0  0  0  0  0  2  0  0  0  0  0  0
  -32.8340  -14.2700    6.1160 C   0  0  0  0  0  2  0  0  0  0  0  0
  -31.9390  -13.1680    6.7180 C   0  0  0  0  0  2  0  0  0  0  0  0
  -30.4500  -13.3320    6.3500 C   0  0  0  0  0  2  0  0  0  0  0  0
  -30.1690  -14.5370    5.4290 C   0  0  0  0  0  2  0  0  0  0  0  0
  -29.4200  -15.5810    6.1600 N   0  0  0  0  0  4  0  0  0  0  0  0
  -28.5070  -15.6530    5.7380 H   0  0  0  0  0  0  0  0  0  0  0  0
  -29.2980  -15.2700    7.1090 H   0  0  0  0  0  0  0  0  0  0  0  0
  -30.0310  -16.9280    6.1890 C   0  0  0  0  0  2  0  0  0  0  0  0
  -30.0230  -17.4860    7.6290 C   0  0  0  0  0  2  0  0  0  0  0  0
  -30.6090  -16.5300    8.6790 C   0  0  0  0  0  0  0  0  0  0  0  0
  -32.5490  -15.9120   10.0820 C   0  0  0  0  0  2  0  0  0  0  0  0
  -32.3830  -16.2550   11.5710 C   0  0  0  0  0  2  0  0  0  0  0  0
  -32.8160  -17.7070   11.8430 C   0  0  0  0  0  2  0  0  0  0  0  0
  -32.1500  -18.7110   10.8680 C   0  0  0  0  0  3  0  0  0  0  0  0
  -32.3000  -18.2450    9.4050 C   0  0  0  0  0  2  0  0  0  0  0  0
  -31.7720  -16.8730    9.2880 N   0  0  0  0  0  0  0  0  0  0  0  0
  -30.0510  -15.4440    8.8720 O   0  0  0  0  0  0  0  0  0  0  0  0
  -32.2950  -21.0350   11.9730 C   0  0  0  0  0  0  0  0  0  0  0  0
  -33.1450  -22.0890   11.7750 C   0  0  0  0  0  0  0  0  0  0  0  0
  -34.0240  -21.6940   10.7200 C   0  0  0  0  0  0  0  0  0  0  0  0
  -32.6720  -20.0640   11.0570 N   0  0  0  0  0  0  0  0  0  0  0  0
  -33.6870  -20.4940   10.2650 N   0  0  0  0  0  0  0  0  0  0  0  0
  -35.2040  -22.3630   10.1570 C   0  0  0  0  0  0  0  0  0  0  0  0
  -35.9460  -23.3040   10.9050 C   0  0  0  0  0  3  0  0  0  0  0  0
  -37.0870  -23.9200   10.3480 C   0  0  0  0  0  3  0  0  0  0  0  0
  -37.4980  -23.5970    9.0330 C   0  0  0  0  0  0  0  0  0  0  0  0
  -36.7430  -22.6760    8.2850 C   0  0  0  0  0  3  0  0  0  0  0  0
  -35.6050  -22.0670    8.8390 C   0  0  0  0  0  3  0  0  0  0  0  0
  -38.5770  -24.1650    8.4010 O   0  0  0  0  0  0  0  0  0  0  0  0
  -39.1770  -23.5660    7.3220 C   0  0  0  0  0  0  0  0  0  0  0  0
  -38.8280  -23.8990    5.9950 C   0  0  0  0  0  3  0  0  0  0  0  0
  -39.5180  -23.3100    4.9170 C   0  0  0  0  0  3  0  0  0  0  0  0
  -40.5620  -22.3980    5.1610 C   0  0  0  0  0  0  0  0  0  0  0  0
  -40.9140  -22.0690    6.4810 C   0  0  0  0  0  3  0  0  0  0  0  0
  -40.2260  -22.6540    7.5590 C   0  0  0  0  0  0  0  0  0  0  0  0
  -40.5840  -22.3510    8.8300 F   0  0  0  0  0  0  0  0  0  0  0  0
  -41.2290  -21.8380    4.1260 F   0  0  0  0  0  0  0  0  0  0  0  0
  -33.2050  -23.3570   12.5790 C   0  0  0  0  0  0  0  0  0  0  0  0
  -32.7740  -24.4720   11.9990 N   0  0  0  0  0  0  0  0  0  0  0  0
  -33.5910  -23.3550   13.7470 O   0  0  0  0  0  0  0  0  0  0  0  0
  -32.4380  -24.4690   11.0480 H   0  0  0  0  0  0  0  0  0  0  0  0
  -32.7800  -25.3400   12.5160 H   0  0  0  0  0  0  0  0  0  0  0  0
  -31.2480  -20.8130   12.8640 N   0  0  0  0  0  0  0  0  0  0  0  0
  -30.9830  -21.4910   13.5700 H   0  0  0  0  0  0  0  0  0  0  0  0
  -30.7070  -19.9570   12.9140 H   0  0  0  0  0  0  0  0  0  0  0  0
  2  1  2  0
  3  4  2  0
  4  1  1  0
  4  7  1  0
  5  2  1  0
  6  5  2  0
  6  3  1  0
  7  8  1  0
  8 10  1  0
  8 11  1  0
  9  7  2  0
 11 12  1  0
 12 13  1  0
 13 15  1  0
 14 25  2  0
 15 20  2  0
 15 21  1  0
 16 26  1  0
 17 23  1  0
 18 24  1  0
 19 18  1  0
 19 17  2  0
 20 19  1  0
 21 22  2  0
 22 17  1  0
 23 16  1  0
 24 14  1  0
 24 16  1  0
 26 27  1  0
 27 29  1  0
 28 26  2  0
 30 39  1  0
 31 27  1  0
 31 35  1  0
 32 33  1  0
 32 31  1  0
 33 34  1  0
 34 30  1  0
 35 30  2  0
 35 36  1  0
 36 37  2  0
 37 38  1  0
 39 38  2  0
 40 41  1  0
 40 14  1  0
 41 42  1  0
 41 44  1  0
 42 46  1  0
 43 42  2  0
 46 48  1  0
 46 45  1  0
 47 48  1  0
 48 49  1  0
 50 40  1  0
 50 53  1  1
 51 50  1  0
 52 50  1  0
 54  6  1  0
 55 54  2  0
 56 58  1  0
 56  5  1  0
 57 56  2  0
 58 59  1  0
 59 60  1  0
 61 60  1  0
 62 63  1  0
 62 61  1  0
 63 66  1  0
 63 65  1  0
 64 63  1  0
 66 67  1  0
 67 68  1  0
 68 75  2  0
 68 74  1  0
 69 70  1  0
 70 71  1  0
 72 73  1  0
 72 79  1  0
 72 71  1  0
 74 73  1  0
 74 69  1  0
 76101  1  0
 77 76  2  0
 77 96  1  0
 78 77  1  0
 79 76  1  0
 80 78  2  0
 80 79  1  0
 81 78  1  0
 81 82  1  0
 83 82  2  0
 84 83  1  0
 85 86  1  0
 85 84  2  0
 86 81  2  0
 87 84  1  0
 88 93  1  0
 88 87  1  0
 89 88  2  0
 90 91  2  0
 90 89  1  0
 91 92  1  0
 92 93  2  0
 93 94  1  0
 95 91  1  0
 96 98  2  0
 97100  1  0
 97 96  1  0
 99 97  1  0
101103  1  0
101102  1  0
M  ISO  4  12 101  13 101  67 100  68 100
M  END
>  <TORSDO>  (75) 
F 29

>  <SCORE>  (75) 
-1.387

>  <name>  (75) 
74

>  <ligand_id>  (75) 
74

>  <original_smiles>  (75) 
[H]C(=O)c1c([H])c(C(=O)N([H])C([H])([H])C([H])([H])Oc2c([H])c([H])c3c(c2[H])C([H])([H])N(C(=O)C([H])(N([H])C(=O)C([H])(N([H])C([H])([H])[H])C([H])([H])[H])C(C([H])([H])[H])(C([H])([H])[H])C([H])([H])[H])C([H])(C(=O)N([H])C2([H])c4c([H])c([H])c([H])c([H])c4C([H])([H])C([H])([H])C2([H])[H])C3([H])[H])c([H])c([H])c1C(=O)C([H])([H])C([H])([H])C([H])([H])C([H])([H])C([H])([H])[N+]([H])([H])C([H])([H])C([H])([H])C(=O)N1C([H])([H])C([H])([H])C([H])([H])C([H])(n2nc(-c3c([H])c([H])c(Oc4c([H])c([H])c(F)c([H])c4F)c([H])c3[H])c(C(=O)N([H])[H])c2N([H])[H])C1([H])[H]

>  <smiles>  (75) 
[H]C(=O)c1c([H])c(C(=O)N([H])C([H])([H])C([H])([H])Oc2c([H])c([H])c3c(c2[H])C([H])([H])N(C(=O)C([H])(N([H])C(=O)C([H])(N([H])C([H])([H])[H])C([H])([H])[H])C(C([H])([H])[H])(C([H])([H])[H])C([H])([H])[H])C([H])(C(=O)N([H])C2([H])c4c([H])c([H])c([H])c([H])c4C([H])([H])C([H])([H])C2([H])[H])C3([H])[H])c([H])c([H])c1C(=O)C([H])([H])C([H])([H])C([H])([H])C([H])([H])C([H])([H])[N+]([H])([H])C([H])([H])C([H])([H])C(=O)N1C([H])([H])C([H])([H])C([H])([H])C([H])(n2nc(-c3c([H])c([H])c(Oc4c([H])c([H])c(F)c([H])c4F)c([H])c3[H])c(C(=O)N([H])[H])c2N([H])[H])C1([H])[H]

$$$$
75:0:0
     RDKit          3D

 99106  0  0  1  0  0  0  0  0999 V2000
  -25.3580  -21.0260   19.4100 N   0  0  0  0  0  4  0  0  0  0  0  0
  -24.4520  -20.9460   19.8420 H   0  0  0  0  0  0  0  0  0  0  0  0
  -25.9800  -20.4030   19.8940 H   0  0  0  0  0  0  0  0  0  0  0  0
  -25.2470  -20.5770   18.0040 C   0  0  0  0  0  2  0  0  0  0  0  0
  -26.1570  -19.3600   17.7260 C   0  0  0  0  0  2  0  0  0  0  0  0
  -27.5350  -19.4040   18.4370 C   0  0  0  0  0  2  0  0  0  0  0  0
  -28.0580  -18.0440   18.9780 C   0  0  0  0  0  2  0  0  0  0  0  0
  -29.1220  -18.2200   20.0890 C   0  0  0  0  0  2  0  0  0  0  0  0
  -30.3680  -17.4330   19.9080 N   0  0  0  0  0  4  0  0  0  0  0  0
  -31.1160  -18.0440   20.2030 H   0  0  0  0  0  0  0  0  0  0  0  0
  -30.5190  -17.2480   18.9290 H   0  0  0  0  0  0  0  0  0  0  0  0
  -30.5030  -16.1820   20.7010 C   0  0  0  0  0  2  0  0  0  0  0  0
  -32.9910  -16.2130   20.2400 C   0  0  0  0  0  1  0  0  0  0  0  0
  -31.7200  -15.3380   20.2370 C   0  0  0  0  0  3  0  0  0  0  0  0
  -32.3400  -12.9820   20.5160 C   0  0  0  0  0  0  0  0  0  0  0  0
  -31.4540  -11.5730   18.7190 C   0  0  0  0  0  2  0  0  0  0  0  0
  -30.6510  -12.4750   17.7640 C   0  0  0  0  0  2  0  0  0  0  0  0
  -29.1950  -12.6190   18.2530 C   0  0  0  0  0  2  0  0  0  0  0  0
  -29.0720  -12.9550   19.7660 C   0  0  0  0  0  3  0  0  0  0  0  0
  -30.0040  -12.0660   20.6150 C   0  0  0  0  0  2  0  0  0  0  0  0
  -31.3550  -12.1740   20.0520 N   0  0  0  0  0  0  0  0  0  0  0  0
  -33.5250  -12.8600   20.2040 O   0  0  0  0  0  0  0  0  0  0  0  0
  -31.9220  -14.1340   21.0720 N   0  0  0  0  0  0  0  0  0  0  0  0
  -32.5110  -14.3590   21.8640 H   0  0  0  0  0  0  0  0  0  0  0  0
  -26.7890  -13.9240   20.4690 C   0  0  0  0  0  0  0  0  0  0  0  0
  -25.6000  -13.3330   20.7770 C   0  0  0  0  0  0  0  0  0  0  0  0
  -25.8390  -11.9280   20.7130 C   0  0  0  0  0  0  0  0  0  0  0  0
  -27.6880  -12.8970   20.2270 N   0  0  0  0  0  0  0  0  0  0  0  0
  -27.1140  -11.6860   20.4390 N   0  0  0  0  0  0  0  0  0  0  0  0
  -24.9120  -10.8000   20.8470 C   0  0  0  0  0  0  0  0  0  0  0  0
  -25.1940   -9.7140   21.7010 C   0  0  0  0  0  3  0  0  0  0  0  0
  -24.2800   -8.6500   21.8260 C   0  0  0  0  0  3  0  0  0  0  0  0
  -23.0690   -8.6630   21.0950 C   0  0  0  0  0  0  0  0  0  0  0  0
  -22.8030   -9.7360   20.2260 C   0  0  0  0  0  3  0  0  0  0  0  0
  -23.7170  -10.7950   20.0980 C   0  0  0  0  0  3  0  0  0  0  0  0
  -22.1350   -7.6570   21.1360 O   0  0  0  0  0  0  0  0  0  0  0  0
  -21.8790   -6.9630   22.2900 C   0  0  0  0  0  0  0  0  0  0  0  0
  -21.5230   -7.6140   23.4920 C   0  0  0  0  0  3  0  0  0  0  0  0
  -21.1880   -6.8530   24.6300 C   0  0  0  0  0  3  0  0  0  0  0  0
  -21.2150   -5.4490   24.5720 C   0  0  0  0  0  0  0  0  0  0  0  0
  -21.5720   -4.7980   23.3770 C   0  0  0  0  0  3  0  0  0  0  0  0
  -21.9000   -5.5550   22.2380 C   0  0  0  0  0  0  0  0  0  0  0  0
  -22.2170   -4.9240   21.0810 F   0  0  0  0  0  0  0  0  0  0  0  0
  -20.8930   -4.7160   25.6650 F   0  0  0  0  0  0  0  0  0  0  0  0
  -24.2970  -14.0380   21.0360 C   0  0  0  0  0  0  0  0  0  0  0  0
  -23.4390  -13.4620   21.8720 N   0  0  0  0  0  0  0  0  0  0  0  0
  -24.0560  -15.1300   20.5310 O   0  0  0  0  0  0  0  0  0  0  0  0
  -23.6330  -12.5750   22.3080 H   0  0  0  0  0  0  0  0  0  0  0  0
  -22.5560  -13.9160   22.0660 H   0  0  0  0  0  0  0  0  0  0  0  0
  -27.1690  -15.2560   20.3730 N   0  0  0  0  0  0  0  0  0  0  0  0
  -26.4620  -15.9010   20.7100 H   0  0  0  0  0  0  0  0  0  0  0  0
  -28.0710  -15.4570   20.7790 H   0  0  0  0  0  0  0  0  0  0  0  0
  -25.8550  -22.4060   19.6080 C   0  0  0  0  0  2  0  0  0  0  0  0
  -27.1470  -22.6750   18.8130 C   0  0  0  0  0  2  0  0  0  0  0  0
  -28.3000  -23.2330   19.6640 C   0  0  0  0  0  2  0  0  0  0  0  0
  -29.2760  -24.0280   18.7810 C   0  0  0  0  0  2  0  0  0  0  0  0
  -30.7290  -24.0620   19.2800 C   0  0  0  0  0  2  0  0  0  0  0  0
  -31.5620  -25.2420   18.7250 C   0  0  0  0  0  2  0  0  0  0  0  0
  -31.3420  -26.4990   19.3690 O   0  0  0  0  0  0  0  0  0  0  0  0
  -27.0080  -29.5410   24.0580 C   0  0  0  0  0  0  0  0  0  0  0  0
  -30.0790  -27.0150   19.5530 C   0  0  0  0  0  0  0  0  0  0  0  0
  -25.9360  -28.8210   21.9420 C   0  0  0  0  0  3  0  0  0  0  0  0
  -27.5340  -28.1460   20.0670 C   0  0  0  0  0  0  0  0  0  0  0  0
  -28.4080  -29.4690   22.0010 C   0  0  0  0  0  2  0  0  0  0  0  0
  -28.6280  -28.4890   20.8690 C   0  0  0  0  0  0  0  0  0  0  0  0
  -29.8940  -27.9210   20.6210 C   0  0  0  0  0  3  0  0  0  0  0  0
  -28.9710  -26.7100   18.7260 C   0  0  0  0  0  3  0  0  0  0  0  0
  -27.7000  -27.2520   18.9960 C   0  0  0  0  0  3  0  0  0  0  0  0
  -26.2070  -28.7860   20.4110 C   0  0  0  0  0  2  0  0  0  0  0  0
  -27.1330  -29.2710   22.7270 N   0  0  0  0  0  0  0  0  0  0  0  0
  -25.9110  -29.4650   24.6260 O   0  0  0  0  0  0  0  0  0  0  0  0
  -25.3980  -27.4420   22.3820 C   0  0  0  0  0  0  0  0  0  0  0  0
  -24.1640  -27.1210   21.9620 N   0  0  0  0  0  0  0  0  0  0  0  0
  -26.0920  -26.6780   23.0580 O   0  0  0  0  0  0  0  0  0  0  0  0
  -23.6550  -27.8070   21.4200 H   0  0  0  0  0  0  0  0  0  0  0  0
  -21.1010  -25.3210   21.3270 C   0  0  0  0  0  0  0  0  0  0  0  0
  -23.4660  -25.8640   22.2190 C   0  0  0  0  0  3  0  0  0  0  0  0
  -23.9690  -24.7470   21.2720 C   0  0  0  0  0  2  0  0  0  0  0  0
  -23.1340  -24.6230   19.9940 C   0  0  0  0  0  2  0  0  0  0  0  0
  -21.6720  -24.3230   20.3340 C   0  0  0  0  0  2  0  0  0  0  0  0
  -21.9430  -26.0570   22.2020 C   0  0  0  0  0  0  0  0  0  0  0  0
  -21.3640  -27.0030   23.0750 C   0  0  0  0  0  3  0  0  0  0  0  0
  -19.9710  -27.2070   23.0940 C   0  0  0  0  0  3  0  0  0  0  0  0
  -19.1410  -26.4600   22.2420 C   0  0  0  0  0  3  0  0  0  0  0  0
  -19.7050  -25.5230   21.3610 C   0  0  0  0  0  3  0  0  0  0  0  0
  -28.2310  -29.9780   24.9270 C   0  0  0  0  0  3  0  0  0  0  0  0
  -27.9260  -31.3010   25.4860 N   0  0  0  0  0  0  0  0  0  0  0  0
  -28.3800  -32.4580   24.9870 C   0  0  0  0  0  0  0  0  0  0  0  0
  -29.1700  -32.5190   24.0420 O   0  0  0  0  0  0  0  0  0  0  0  0
  -27.2400  -31.3300   26.2260 H   0  0  0  0  0  0  0  0  0  0  0  0
  -26.7510  -34.3650   24.7940 C   0  0  0  0  0  1  0  0  0  0  0  0
  -27.8790  -33.7580   25.6450 C   0  0  0  0  0  3  0  0  0  0  0  0
  -29.9240  -34.3710   26.8590 C   0  0  0  0  0  1  0  0  0  0  0  0
  -28.9430  -34.7650   25.8490 N   0  0  0  0  0  0  0  0  0  0  0  0
  -28.5440  -35.6570   26.1310 H   0  0  0  0  0  0  0  0  0  0  0  0
  -28.5720  -28.9540   26.0810 C   0  0  1  0  0  0  0  0  0  0  0  0
  -27.3500  -28.5480   26.9400 C   0  0  0  0  0  1  0  0  0  0  0  0
  -29.1930  -27.6650   25.4980 C   0  0  0  0  0  1  0  0  0  0  0  0
  -29.6280  -29.5640   27.0310 C   0  0  0  0  0  1  0  0  0  0  0  0
  1 53  1  0
  1  2  1  0
  1  3  1  0
  4  1  1  0
  5  4  1  0
  5  6  1  0
  6  7  1  0
  7  8  1  0
  9  8  1  0
  9 10  1  0
  9 12  1  0
 11  9  1  0
 14 13  1  0
 14 12  1  0
 14 23  1  0
 15 23  1  0
 16 21  1  0
 17 18  1  0
 17 16  1  0
 19 18  1  0
 19 28  1  0
 19 20  1  0
 21 15  1  0
 21 20  1  0
 22 15  2  0
 23 24  1  0
 25 26  2  0
 26 45  1  0
 27 26  1  0
 27 30  1  0
 28 29  1  0
 28 25  1  0
 29 27  2  0
 30 31  1  0
 31 32  2  0
 33 36  1  0
 33 32  1  0
 34 33  2  0
 35 34  1  0
 35 30  2  0
 36 37  1  0
 37 38  1  0
 38 39  2  0
 40 39  1  0
 40 44  1  0
 41 40  2  0
 42 37  2  0
 42 41  1  0
 43 42  1  0
 45 46  1  0
 46 49  1  0
 46 48  1  0
 47 45  2  0
 50 25  1  0
 50 51  1  0
 50 52  1  0
 54 53  1  0
 54 55  1  0
 56 57  1  0
 56 55  1  0
 58 57  1  0
 58 59  1  0
 59 61  1  0
 60 71  2  0
 61 66  1  0
 62 72  1  0
 62 70  1  0
 63 69  1  0
 63 65  1  0
 64 70  1  0
 65 64  1  0
 66 65  2  0
 67 68  1  0
 67 61  2  0
 68 63  2  0
 69 62  1  0
 70 60  1  0
 72 74  2  0
 73 72  1  0
 75 73  1  0
 76 85  2  0
 76 81  1  0
 77 73  1  0
 78 77  1  0
 79 80  1  0
 79 78  1  0
 80 76  1  0
 81 77  1  0
 81 82  2  0
 82 83  1  0
 84 83  2  0
 85 84  1  0
 86 60  1  0
 86 87  1  0
 86 96  1  0
 87 90  1  0
 88 87  1  0
 88 92  1  0
 89 88  2  0
 92 91  1  0
 92 94  1  0
 94 95  1  0
 94 93  1  0
 96 97  1  1
 96 99  1  0
 98 96  1  0
M  ISO  4  15 100  23 100  58 101  59 101
M  END
>  <TORSDO>  (76) 
F 30

>  <SCORE>  (76) 
-6.649

>  <name>  (76) 
75

>  <ligand_id>  (76) 
75

>  <original_smiles>  (76) 
[H]c1c([H])c([H])c2c(c1[H])C([H])([H])C([H])([H])C([H])([H])C2([H])N([H])C(=O)C1([H])N(C(=O)C([H])(N([H])C(=O)C([H])(N([H])C([H])([H])[H])C([H])([H])[H])C(C([H])([H])[H])(C([H])([H])[H])C([H])([H])[H])C([H])([H])c2c([H])c(OC([H])([H])C([H])([H])C([H])([H])C([H])([H])C([H])([H])C([H])([H])[N+]([H])([H])C([H])([H])C([H])([H])C([H])([H])C([H])([H])C([H])([H])[N+]([H])([H])C([H])([H])C([H])(N([H])C(=O)N3C([H])([H])C([H])([H])C([H])([H])C([H])(n4nc(-c5c([H])c([H])c(Oc6c([H])c([H])c(F)c([H])c6F)c([H])c5[H])c(C(=O)N([H])[H])c4N([H])[H])C3([H])[H])C([H])([H])[H])c([H])c([H])c2C1([H])[H]

>  <smiles>  (76) 
[H]c1c([H])c([H])c2c(c1[H])C([H])([H])C([H])([H])C([H])([H])C2([H])N([H])C(=O)C1([H])N(C(=O)C([H])(N([H])C(=O)C([H])(N([H])C([H])([H])[H])C([H])([H])[H])C(C([H])([H])[H])(C([H])([H])[H])C([H])([H])[H])C([H])([H])c2c([H])c(OC([H])([H])C([H])([H])C([H])([H])C([H])([H])C([H])([H])C([H])([H])[N+]([H])([H])C([H])([H])C([H])([H])C([H])([H])C([H])([H])C([H])([H])[N+]([H])([H])C([H])([H])C([H])(N([H])C(=O)N3C([H])([H])C([H])([H])C([H])([H])C([H])(n4nc(-c5c([H])c([H])c(Oc6c([H])c([H])c(F)c([H])c6F)c([H])c5[H])c(C(=O)N([H])[H])c4N([H])[H])C3([H])[H])C([H])([H])[H])c([H])c([H])c2C1([H])[H]

$$$$
76:0:0
     RDKit          3D

 93100  0  0  1  0  0  0  0  0999 V2000
  -27.9860  -24.5990   21.2580 C   0  0  0  0  0  3  0  0  0  0  0  0
  -27.9900  -24.0450   22.6330 N   0  0  0  0  0  4  0  0  0  0  0  0
  -28.9290  -23.8790   22.9580 H   0  0  0  0  0  0  0  0  0  0  0  0
  -27.4920  -23.1730   22.6650 H   0  0  0  0  0  0  0  0  0  0  0  0
  -27.5440  -24.6730   23.2820 H   0  0  0  0  0  0  0  0  0  0  0  0
  -28.6290  -23.5790   20.2760 C   0  0  0  0  0  2  0  0  0  0  0  0
  -27.7250  -22.3700   19.9290 C   0  0  0  0  0  2  0  0  0  0  0  0
  -28.4430  -21.2540   19.1250 C   0  0  0  0  0  2  0  0  0  0  0  0
  -28.9360  -20.0360   19.9280 C   0  0  0  0  0  0  0  0  0  0  0  0
  -28.9300  -20.0170   21.1620 O   0  0  0  0  0  0  0  0  0  0  0  0
  -29.4640  -18.8510   19.1100 C   0  0  0  0  0  2  0  0  0  0  0  0
  -29.1790  -17.4370   19.6750 C   0  0  0  0  0  2  0  0  0  0  0  0
  -30.1590  -16.9210   20.7560 C   0  0  0  0  0  2  0  0  0  0  0  0
  -30.6650  -14.4860   20.4520 C   0  0  0  0  0  0  0  0  0  0  0  0
  -30.3650  -12.3200   19.3130 C   0  0  0  0  0  2  0  0  0  0  0  0
  -29.4440  -12.5540   18.0980 C   0  0  0  0  0  2  0  0  0  0  0  0
  -27.9620  -12.4320   18.5130 C   0  0  0  0  0  2  0  0  0  0  0  0
  -27.6220  -13.2740   19.7700 C   0  0  0  0  0  3  0  0  0  0  0  0
  -28.6590  -13.0270   20.8890 C   0  0  0  0  0  2  0  0  0  0  0  0
  -30.0000  -13.3060   20.3420 N   0  0  0  0  0  0  0  0  0  0  0  0
  -31.7770  -14.6860   19.9490 O   0  0  0  0  0  0  0  0  0  0  0  0
  -29.9470  -15.4860   20.9870 N   0  0  0  0  0  0  0  0  0  0  0  0
  -29.0690  -15.2090   21.4090 H   0  0  0  0  0  0  0  0  0  0  0  0
  -25.2170  -13.9120   20.4340 C   0  0  0  0  0  0  0  0  0  0  0  0
  -24.1380  -13.1560   20.8030 C   0  0  0  0  0  0  0  0  0  0  0  0
  -24.5870  -11.7980   20.7940 C   0  0  0  0  0  0  0  0  0  0  0  0
  -26.2590  -13.0190   20.2300 N   0  0  0  0  0  0  0  0  0  0  0  0
  -25.8810  -11.7440   20.5030 N   0  0  0  0  0  0  0  0  0  0  0  0
  -23.8520  -10.5460   20.9940 C   0  0  0  0  0  0  0  0  0  0  0  0
  -24.2820   -9.5780   21.9290 C   0  0  0  0  0  3  0  0  0  0  0  0
  -23.5460   -8.3890   22.1180 C   0  0  0  0  0  3  0  0  0  0  0  0
  -22.3680   -8.1560   21.3700 C   0  0  0  0  0  0  0  0  0  0  0  0
  -21.9580   -9.1100   20.4220 C   0  0  0  0  0  3  0  0  0  0  0  0
  -22.6930  -10.2920   20.2310 C   0  0  0  0  0  3  0  0  0  0  0  0
  -21.6020   -7.0190   21.4680 O   0  0  0  0  0  0  0  0  0  0  0  0
  -21.5650   -6.2760   22.6190 C   0  0  0  0  0  0  0  0  0  0  0  0
  -21.1820   -6.8360   23.8590 C   0  0  0  0  0  3  0  0  0  0  0  0
  -21.0880   -6.0170   25.0010 C   0  0  0  0  0  3  0  0  0  0  0  0
  -21.3680   -4.6420   24.9070 C   0  0  0  0  0  0  0  0  0  0  0  0
  -21.7460   -4.0800   23.6740 C   0  0  0  0  0  3  0  0  0  0  0  0
  -21.8410   -4.8970   22.5330 C   0  0  0  0  0  0  0  0  0  0  0  0
  -22.1860   -4.3490   21.3420 F   0  0  0  0  0  0  0  0  0  0  0  0
  -21.2700   -3.8520   26.0020 F   0  0  0  0  0  0  0  0  0  0  0  0
  -22.7420  -13.6500   21.0610 C   0  0  0  0  0  0  0  0  0  0  0  0
  -22.0020  -12.9680   21.9300 N   0  0  0  0  0  0  0  0  0  0  0  0
  -22.3190  -14.6760   20.5290 O   0  0  0  0  0  0  0  0  0  0  0  0
  -22.3610  -12.1410   22.3810 H   0  0  0  0  0  0  0  0  0  0  0  0
  -21.0670  -13.2790   22.1530 H   0  0  0  0  0  0  0  0  0  0  0  0
  -25.3980  -15.2760   20.2410 N   0  0  0  0  0  0  0  0  0  0  0  0
  -24.6320  -15.9340   20.3320 H   0  0  0  0  0  0  0  0  0  0  0  0
  -26.2630  -15.7060   19.9350 H   0  0  0  0  0  0  0  0  0  0  0  0
  -28.6800  -25.9940   21.2370 C   0  0  0  0  0  2  0  0  0  0  0  0
  -28.3830  -26.7370   20.0480 O   0  0  0  0  0  0  0  0  0  0  0  0
  -24.6110  -31.9050   23.2070 C   0  0  0  0  0  0  0  0  0  0  0  0
  -27.2280  -27.4780   20.0990 C   0  0  0  0  0  0  0  0  0  0  0  0
  -23.3860  -30.5010   21.5740 C   0  0  0  0  0  3  0  0  0  0  0  0
  -24.8300  -28.9670   20.1330 C   0  0  0  0  0  0  0  0  0  0  0  0
  -25.9030  -30.8680   21.3480 C   0  0  0  0  0  2  0  0  0  0  0  0
  -25.9880  -29.4940   20.7190 C   0  0  0  0  0  0  0  0  0  0  0  0
  -27.1880  -28.7490   20.7150 C   0  0  0  0  0  3  0  0  0  0  0  0
  -26.0620  -26.9650   19.4950 C   0  0  0  0  0  3  0  0  0  0  0  0
  -24.8610  -27.7000   19.5200 C   0  0  0  0  0  3  0  0  0  0  0  0
  -23.5830  -29.8220   20.1910 C   0  0  0  0  0  2  0  0  0  0  0  0
  -24.6530  -31.1030   22.1040 N   0  0  0  0  0  0  0  0  0  0  0  0
  -23.5370  -32.1820   23.7580 O   0  0  0  0  0  0  0  0  0  0  0  0
  -22.7460  -29.4810   22.5400 C   0  0  0  0  0  0  0  0  0  0  0  0
  -21.4220  -29.2950   22.4230 N   0  0  0  0  0  0  0  0  0  0  0  0
  -23.4390  -28.8550   23.3470 O   0  0  0  0  0  0  0  0  0  0  0  0
  -20.9280  -29.8530   21.7410 H   0  0  0  0  0  0  0  0  0  0  0  0
  -18.0550  -28.0910   22.9340 C   0  0  0  0  0  0  0  0  0  0  0  0
  -20.6120  -28.3560   23.1990 C   0  0  0  0  0  3  0  0  0  0  0  0
  -20.7170  -26.9260   22.6230 C   0  0  0  0  0  2  0  0  0  0  0  0
  -19.6160  -26.6000   21.6100 C   0  0  0  0  0  2  0  0  0  0  0  0
  -18.2360  -26.7400   22.2600 C   0  0  0  0  0  2  0  0  0  0  0  0
  -19.1730  -28.8580   23.3600 C   0  0  0  0  0  0  0  0  0  0  0  0
  -18.9550  -30.1220   23.9480 C   0  0  0  0  0  3  0  0  0  0  0  0
  -17.6500  -30.6220   24.1140 C   0  0  0  0  0  3  0  0  0  0  0  0
  -16.5460  -29.8530   23.7070 C   0  0  0  0  0  3  0  0  0  0  0  0
  -16.7490  -28.5890   23.1250 C   0  0  0  0  0  3  0  0  0  0  0  0
  -25.9070  -32.5300   23.8130 C   0  0  0  0  0  3  0  0  0  0  0  0
  -26.4480  -31.7430   25.0690 C   0  0  1  0  0  0  0  0  0  0  0  0
  -25.3720  -31.4910   26.1500 C   0  0  0  0  0  1  0  0  0  0  0  0
  -27.0240  -30.3690   24.6480 C   0  0  0  0  0  1  0  0  0  0  0  0
  -27.6060  -32.5320   25.7260 C   0  0  0  0  0  1  0  0  0  0  0  0
  -25.6000  -33.9240   24.1610 N   0  0  0  0  0  0  0  0  0  0  0  0
  -25.9220  -34.9830   23.4060 C   0  0  0  0  0  0  0  0  0  0  0  0
  -26.5820  -34.8900   22.3670 O   0  0  0  0  0  0  0  0  0  0  0  0
  -25.0090  -34.0690   24.9670 H   0  0  0  0  0  0  0  0  0  0  0  0
  -24.1820  -36.7700   23.0880 C   0  0  0  0  0  1  0  0  0  0  0  0
  -25.4350  -36.3640   23.8800 C   0  0  0  0  0  3  0  0  0  0  0  0
  -27.5800  -37.2470   24.6880 C   0  0  0  0  0  1  0  0  0  0  0  0
  -26.4620  -37.4220   23.7640 N   0  0  0  0  0  0  0  0  0  0  0  0
  -26.0560  -38.3390   23.9300 H   0  0  0  0  0  0  0  0  0  0  0  0
  1  6  1  0
  1  2  1  0
  2  4  1  0
  2  3  1  0
  2  5  1  0
  7  6  1  0
  8  9  1  0
  8  7  1  0
  9 10  2  0
 11 12  1  0
 11  9  1  0
 12 13  1  0
 13 22  1  0
 14 22  1  0
 15 20  1  0
 16 17  1  0
 16 15  1  0
 18 17  1  0
 18 27  1  0
 18 19  1  0
 20 14  1  0
 20 19  1  0
 21 14  2  0
 22 23  1  0
 24 25  2  0
 25 44  1  0
 26 25  1  0
 26 29  1  0
 27 24  1  0
 27 28  1  0
 28 26  2  0
 29 30  1  0
 30 31  2  0
 32 35  1  0
 32 31  1  0
 33 32  2  0
 34 33  1  0
 34 29  2  0
 35 36  1  0
 36 37  1  0
 37 38  2  0
 39 38  1  0
 39 43  1  0
 40 39  2  0
 41 36  2  0
 41 40  1  0
 42 41  1  0
 44 45  1  0
 45 48  1  0
 45 47  1  0
 46 44  2  0
 49 50  1  0
 49 24  1  0
 51 49  1  0
 52  1  1  0
 53 55  1  0
 53 52  1  0
 54 65  2  0
 55 60  1  0
 56 64  1  0
 56 66  1  0
 57 63  1  0
 57 59  1  0
 58 64  1  0
 59 58  1  0
 60 59  2  0
 61 62  1  0
 61 55  2  0
 62 57  2  0
 63 56  1  0
 64 54  1  0
 66 68  2  0
 67 66  1  0
 69 67  1  0
 70 79  2  0
 70 75  1  0
 71 67  1  0
 71 75  1  0
 72 71  1  0
 73 74  1  0
 73 72  1  0
 74 70  1  0
 75 76  2  0
 76 77  1  0
 78 77  2  0
 79 78  1  0
 80 54  1  0
 80 85  1  0
 80 81  1  0
 81 84  1  1
 81 82  1  0
 83 81  1  0
 85 88  1  0
 86 90  1  0
 86 85  1  0
 87 86  2  0
 90 89  1  0
 92 90  1  0
 92 93  1  0
 92 91  1  0
M  ISO  4  14 100  22 100  52 101  53 101
M  END
>  <TORSDO>  (77) 
F 25

>  <SCORE>  (77) 
-12.214

>  <name>  (77) 
76

>  <ligand_id>  (77) 
76

>  <original_smiles>  (77) 
[H]c1c([H])c([H])c2c(c1[H])C([H])([H])C([H])([H])C([H])([H])C2([H])N([H])C(=O)C1([H])N(C(=O)C([H])(N([H])C(=O)C([H])(N([H])C([H])([H])[H])C([H])([H])[H])C(C([H])([H])[H])(C([H])([H])[H])C([H])([H])[H])C([H])([H])c2c([H])c(OC([H])([H])C([H])(C([H])([H])C([H])([H])C([H])([H])C(=O)C([H])([H])C([H])([H])C([H])([H])N([H])C(=O)N3C([H])([H])C([H])([H])C([H])([H])C([H])(n4nc(-c5c([H])c([H])c(Oc6c([H])c([H])c(F)c([H])c6F)c([H])c5[H])c(C(=O)N([H])[H])c4N([H])[H])C3([H])[H])[N+]([H])([H])[H])c([H])c([H])c2C1([H])[H]

>  <smiles>  (77) 
[H]c1c([H])c([H])c2c(c1[H])C([H])([H])C([H])([H])C([H])([H])C2([H])N([H])C(=O)C1([H])N(C(=O)C([H])(N([H])C(=O)C([H])(N([H])C([H])([H])[H])C([H])([H])[H])C(C([H])([H])[H])(C([H])([H])[H])C([H])([H])[H])C([H])([H])c2c([H])c(OC([H])([H])C([H])(C([H])([H])C([H])([H])C([H])([H])C(=O)C([H])([H])C([H])([H])C([H])([H])N([H])C(=O)N3C([H])([H])C([H])([H])C([H])([H])C([H])(n4nc(-c5c([H])c([H])c(Oc6c([H])c([H])c(F)c([H])c6F)c([H])c5[H])c(C(=O)N([H])[H])c4N([H])[H])C3([H])[H])[N+]([H])([H])[H])c([H])c([H])c2C1([H])[H]

$$$$
77:0:0
     RDKit          3D

 97105  0  0  1  0  0  0  0  0999 V2000
  -29.6760  -21.2800   20.6630 C   0  0  0  0  0  3  0  0  0  0  0  0
  -30.2800  -23.4080   21.6840 C   0  0  0  0  0  3  0  0  0  0  0  0
  -29.2660  -21.9550   19.5010 C   0  0  0  0  0  3  0  0  0  0  0  0
  -29.8570  -24.0860   20.5200 C   0  0  0  0  0  3  0  0  0  0  0  0
  -30.2060  -21.9990   21.7560 C   0  0  0  0  0  0  0  0  0  0  0  0
  -29.3640  -23.3580   19.4100 C   0  0  0  0  0  0  0  0  0  0  0  0
  -30.6670  -21.2550   23.0060 C   0  0  0  0  0  2  0  0  0  0  0  0
  -31.6810  -20.1490   22.6810 C   0  0  0  0  0  0  0  0  0  0  0  0
  -31.2590  -18.8800   22.7930 N   0  0  0  0  0  0  0  0  0  0  0  0
  -32.8230  -20.4400   22.3180 O   0  0  0  0  0  0  0  0  0  0  0  0
  -30.3090  -18.7270   23.1060 H   0  0  0  0  0  0  0  0  0  0  0  0
  -32.0430  -17.6960   22.4460 C   0  0  0  0  0  2  0  0  0  0  0  0
  -31.1940  -16.5920   21.7850 C   0  0  0  0  0  2  0  0  0  0  0  0
  -30.6690  -16.9020   20.3670 C   0  0  0  0  0  2  0  0  0  0  0  0
  -31.0830  -15.8200   19.3540 C   0  0  0  0  0  2  0  0  0  0  0  0
  -30.3310  -13.5720   18.6130 C   0  0  0  0  0  0  0  0  0  0  0  0
  -30.3890  -11.1330   18.9560 C   0  0  0  0  0  2  0  0  0  0  0  0
  -29.3850  -10.3310   18.1150 C   0  0  0  0  0  2  0  0  0  0  0  0
  -28.0270  -10.2530   18.8290 C   0  0  0  0  0  2  0  0  0  0  0  0
  -27.5190  -11.6460   19.2810 C   0  0  0  0  0  3  0  0  0  0  0  0
  -28.6160  -12.4170   20.0480 C   0  0  0  0  0  2  0  0  0  0  0  0
  -29.8340  -12.4670   19.2190 N   0  0  0  0  0  0  0  0  0  0  0  0
  -31.0880  -13.5350   17.6380 O   0  0  0  0  0  0  0  0  0  0  0  0
  -30.1580  -14.6890   19.3310 N   0  0  0  0  0  0  0  0  0  0  0  0
  -29.5410  -14.5940   20.1250 H   0  0  0  0  0  0  0  0  0  0  0  0
  -25.4810  -12.5300   20.5860 C   0  0  0  0  0  0  0  0  0  0  0  0
  -24.4200  -11.8900   21.1690 C   0  0  0  0  0  0  0  0  0  0  0  0
  -24.6400  -10.4940   20.9610 C   0  0  0  0  0  0  0  0  0  0  0  0
  -26.2890  -11.5310   20.0650 N   0  0  0  0  0  0  0  0  0  0  0  0
  -25.7960  -10.2970   20.3430 N   0  0  0  0  0  0  0  0  0  0  0  0
  -23.7880   -9.3370   21.2650 C   0  0  0  0  0  0  0  0  0  0  0  0
  -23.8860   -8.6490   22.4950 C   0  0  0  0  0  3  0  0  0  0  0  0
  -23.0430   -7.5510   22.7700 C   0  0  0  0  0  3  0  0  0  0  0  0
  -22.0880   -7.1310   21.8140 C   0  0  0  0  0  0  0  0  0  0  0  0
  -22.0120   -7.8050   20.5820 C   0  0  0  0  0  3  0  0  0  0  0  0
  -22.8540   -8.8950   20.3070 C   0  0  0  0  0  3  0  0  0  0  0  0
  -21.2470   -6.0580   21.9830 O   0  0  0  0  0  0  0  0  0  0  0  0
  -20.4610   -5.9310   23.1000 C   0  0  0  0  0  0  0  0  0  0  0  0
  -19.4630   -6.8770   23.4210 C   0  0  0  0  0  3  0  0  0  0  0  0
  -18.6300   -6.6710   24.5400 C   0  0  0  0  0  3  0  0  0  0  0  0
  -18.7870   -5.5170   25.3310 C   0  0  0  0  0  0  0  0  0  0  0  0
  -19.7750   -4.5710   25.0090 C   0  0  0  0  0  3  0  0  0  0  0  0
  -20.6080   -4.7760   23.8940 C   0  0  0  0  0  0  0  0  0  0  0  0
  -21.5450   -3.8500   23.5760 F   0  0  0  0  0  0  0  0  0  0  0  0
  -17.9820   -5.3140   26.4000 F   0  0  0  0  0  0  0  0  0  0  0  0
  -23.2230  -12.5380   21.8020 C   0  0  0  0  0  0  0  0  0  0  0  0
  -22.6610  -11.9140   22.8320 N   0  0  0  0  0  0  0  0  0  0  0  0
  -22.8060  -13.6280   21.4150 O   0  0  0  0  0  0  0  0  0  0  0  0
  -23.0160  -11.0290   23.1620 H   0  0  0  0  0  0  0  0  0  0  0  0
  -21.8660  -12.3270   23.2980 H   0  0  0  0  0  0  0  0  0  0  0  0
  -25.8170  -13.8730   20.4390 N   0  0  0  0  0  0  0  0  0  0  0  0
  -25.2200  -14.6240   20.7700 H   0  0  0  0  0  0  0  0  0  0  0  0
  -26.6380  -14.2060   19.9500 H   0  0  0  0  0  0  0  0  0  0  0  0
  -28.9520  -24.0090   18.0940 C   0  0  0  0  0  2  0  0  0  0  0  0
  -28.5280  -25.4850   18.1550 C   0  0  0  0  0  2  0  0  0  0  0  0
  -28.2470  -26.0520   16.7570 C   0  0  0  0  0  2  0  0  0  0  0  0
  -27.9260  -27.4330   16.8700 O   0  0  0  0  0  0  0  0  0  0  0  0
  -24.6180  -30.4220   22.3820 C   0  0  0  0  0  0  0  0  0  0  0  0
  -26.7100  -27.8200   17.3880 C   0  0  0  0  0  0  0  0  0  0  0  0
  -23.1340  -29.5050   20.6210 C   0  0  0  0  0  3  0  0  0  0  0  0
  -24.2900  -28.7990   18.4670 C   0  0  0  0  0  0  0  0  0  0  0  0
  -25.4920  -30.3130   20.0510 C   0  0  0  0  0  2  0  0  0  0  0  0
  -25.5140  -29.2700   18.9550 C   0  0  0  0  0  0  0  0  0  0  0  0
  -26.7220  -28.7850   18.4170 C   0  0  0  0  0  3  0  0  0  0  0  0
  -25.4630  -27.3460   16.9130 C   0  0  0  0  0  3  0  0  0  0  0  0
  -24.2580  -27.8330   17.4490 C   0  0  0  0  0  3  0  0  0  0  0  0
  -23.0390  -29.3840   19.0770 C   0  0  0  0  0  2  0  0  0  0  0  0
  -24.4460  -30.0780   21.0740 N   0  0  0  0  0  0  0  0  0  0  0  0
  -23.6900  -30.3190   23.1970 O   0  0  0  0  0  0  0  0  0  0  0  0
  -22.8240  -28.1250   21.2440 C   0  0  0  0  0  0  0  0  0  0  0  0
  -21.5460  -27.7190   21.1830 N   0  0  0  0  0  0  0  0  0  0  0  0
  -23.7180  -27.4380   21.7410 O   0  0  0  0  0  0  0  0  0  0  0  0
  -20.8700  -28.3510   20.7780 H   0  0  0  0  0  0  0  0  0  0  0  0
  -18.5680  -25.6870   21.3890 C   0  0  0  0  0  0  0  0  0  0  0  0
  -21.0240  -26.4410   21.6660 C   0  0  0  0  0  3  0  0  0  0  0  0
  -21.3790  -25.2890   20.6970 C   0  0  0  0  0  2  0  0  0  0  0  0
  -20.2870  -25.0140   19.6580 C   0  0  0  0  0  2  0  0  0  0  0  0
  -18.9680  -24.6540   20.3480 C   0  0  0  0  0  2  0  0  0  0  0  0
  -19.5310  -26.5370   21.9950 C   0  0  0  0  0  0  0  0  0  0  0  0
  -19.1000  -27.5030   22.9300 C   0  0  0  0  0  3  0  0  0  0  0  0
  -17.7390  -27.6270   23.2620 C   0  0  0  0  0  3  0  0  0  0  0  0
  -16.7900  -26.7760   22.6690 C   0  0  0  0  0  3  0  0  0  0  0  0
  -17.2060  -25.8050   21.7410 C   0  0  0  0  0  3  0  0  0  0  0  0
  -25.9720  -30.9920   22.9080 C   0  0  0  0  0  3  0  0  0  0  0  0
  -26.8000  -29.9490   23.7530 C   0  0  1  0  0  0  0  0  0  0  0  0
  -25.9760  -29.2570   24.8630 C   0  0  0  0  0  1  0  0  0  0  0  0
  -27.3820  -28.8480   22.8370 C   0  0  0  0  0  1  0  0  0  0  0  0
  -28.0020  -30.6520   24.4260 C   0  0  0  0  0  1  0  0  0  0  0  0
  -25.6670  -32.1850   23.7070 N   0  0  0  0  0  0  0  0  0  0  0  0
  -25.8880  -33.4460   23.3080 C   0  0  0  0  0  0  0  0  0  0  0  0
  -26.4430  -33.7230   22.2410 O   0  0  0  0  0  0  0  0  0  0  0  0
  -25.1620  -32.0350   24.5670 H   0  0  0  0  0  0  0  0  0  0  0  0
  -24.1130  -35.1870   23.6960 C   0  0  0  0  0  1  0  0  0  0  0  0
  -25.4130  -34.5760   24.2410 C   0  0  0  0  0  3  0  0  0  0  0  0
  -27.5860  -35.2060   25.1940 C   0  0  0  0  0  1  0  0  0  0  0  0
  -26.4210  -35.6410   24.4310 N   0  0  0  0  0  0  0  0  0  0  0  0
  -26.0110  -36.4420   24.9040 H   0  0  0  0  0  0  0  0  0  0  0  0
  1  5  1  0
  2  5  2  0
  3  1  2  0
  4  2  1  0
  5  7  1  0
  6  3  1  0
  6  4  2  0
  8  9  1  0
  8  7  1  0
  9 11  1  0
 10  8  2  0
 12  9  1  0
 13 12  1  0
 14 13  1  0
 15 14  1  0
 16 22  1  0
 16 24  1  0
 17 22  1  0
 18 19  1  0
 18 17  1  0
 20 19  1  0
 20 21  1  0
 20 29  1  0
 22 21  1  0
 23 16  2  0
 24 15  1  0
 24 25  1  0
 26 27  2  0
 27 46  1  0
 28 27  1  0
 28 31  1  0
 29 30  1  0
 29 26  1  0
 30 28  2  0
 31 32  1  0
 32 33  2  0
 34 37  1  0
 34 33  1  0
 35 34  2  0
 36 35  1  0
 36 31  2  0
 37 38  1  0
 38 39  2  0
 38 43  1  0
 39 40  1  0
 40 41  2  0
 41 45  1  0
 42 41  1  0
 43 42  2  0
 44 43  1  0
 46 47  1  0
 47 49  1  0
 47 50  1  0
 48 46  2  0
 51 26  1  0
 51 52  1  0
 53 51  1  0
 54 55  1  0
 54  6  1  0
 56 57  1  0
 56 55  1  0
 57 59  1  0
 58 69  2  0
 59 64  1  0
 60 68  1  0
 60 70  1  0
 61 63  1  0
 61 67  1  0
 62 68  1  0
 63 62  1  0
 64 63  2  0
 65 59  2  0
 65 66  1  0
 66 61  2  0
 67 60  1  0
 68 58  1  0
 70 72  2  0
 71 70  1  0
 73 71  1  0
 74 83  2  0
 74 79  1  0
 75 71  1  0
 75 79  1  0
 76 75  1  0
 77 78  1  0
 77 76  1  0
 78 74  1  0
 79 80  2  0
 80 81  1  0
 82 81  2  0
 83 82  1  0
 84 58  1  0
 84 89  1  0
 84 85  1  0
 85 88  1  1
 85 86  1  0
 87 85  1  0
 89 92  1  0
 90 89  1  0
 90 94  1  0
 91 90  2  0
 94 93  1  0
 94 96  1  0
 96 97  1  0
 96 95  1  0
M  ISO  4  16 100  24 100  56 101  57 101
M  END
>  <TORSDO>  (78) 
F 25

>  <SCORE>  (78) 
-4.423

>  <name>  (78) 
77

>  <ligand_id>  (78) 
77

>  <original_smiles>  (78) 
[H]c1c([H])c([H])c2c(c1[H])C([H])([H])C([H])([H])C([H])([H])C2([H])N([H])C(=O)C1([H])N(C(=O)C([H])(N([H])C(=O)C([H])(N([H])C([H])([H])[H])C([H])([H])[H])C(C([H])([H])[H])(C([H])([H])[H])C([H])([H])[H])C([H])([H])c2c([H])c(OC([H])([H])C([H])([H])C([H])([H])c3c([H])c([H])c(C([H])([H])C(=O)N([H])C([H])([H])C([H])([H])C([H])([H])C([H])([H])N([H])C(=O)N4C([H])([H])C([H])([H])C([H])([H])C([H])(n5nc(-c6c([H])c([H])c(Oc7c([H])c([H])c(F)c([H])c7F)c([H])c6[H])c(C(=O)N([H])[H])c5N([H])[H])C4([H])[H])c([H])c3[H])c([H])c([H])c2C1([H])[H]

>  <smiles>  (78) 
[H]c1c([H])c([H])c2c(c1[H])C([H])([H])C([H])([H])C([H])([H])C2([H])N([H])C(=O)C1([H])N(C(=O)C([H])(N([H])C(=O)C([H])(N([H])C([H])([H])[H])C([H])([H])[H])C(C([H])([H])[H])(C([H])([H])[H])C([H])([H])[H])C([H])([H])c2c([H])c(OC([H])([H])C([H])([H])C([H])([H])c3c([H])c([H])c(C([H])([H])C(=O)N([H])C([H])([H])C([H])([H])C([H])([H])C([H])([H])N([H])C(=O)N4C([H])([H])C([H])([H])C([H])([H])C([H])(n5nc(-c6c([H])c([H])c(Oc7c([H])c([H])c(F)c([H])c7F)c([H])c6[H])c(C(=O)N([H])[H])c5N([H])[H])C4([H])[H])c([H])c3[H])c([H])c([H])c2C1([H])[H]

$$$$
78:0:0
     RDKit          3D

104113  0  0  1  0  0  0  0  0999 V2000
  -32.5620  -26.0870   17.3350 C   0  0  0  0  0  3  0  0  0  0  0  0
  -32.1870  -25.3290   18.4820 C   0  0  0  0  0  3  0  0  0  0  0  0
  -33.8610  -25.9960   16.7390 C   0  0  0  0  0  3  0  0  0  0  0  0
  -33.1870  -24.4810   18.9660 C   0  0  0  0  0  0  0  0  0  0  0  0
  -34.4770  -24.3840   18.3610 C   0  0  0  0  0  0  0  0  0  0  0  0
  -34.8700  -25.1330   17.2450 C   0  0  0  0  0  0  0  0  0  0  0  0
  -34.9440  -23.3410   19.3410 C   0  0  0  0  0  2  0  0  0  0  0  0
  -33.4800  -23.4280   20.0200 C   0  0  2  0  0  0  0  0  0  0  0  0
  -36.2460  -25.0360   16.6150 C   0  0  0  0  0  1  0  0  0  0  0  0
  -32.6580  -22.2130   19.7610 N   0  0  0  0  0  4  0  0  0  0  0  0
  -32.8170  -21.9170   18.8120 H   0  0  0  0  0  0  0  0  0  0  0  0
  -31.6900  -22.4840   19.8160 H   0  0  0  0  0  0  0  0  0  0  0  0
  -32.8680  -21.0670   20.6800 C   0  0  0  0  0  2  0  0  0  0  0  0
  -31.9840  -19.8570   20.3190 C   0  0  0  0  0  2  0  0  0  0  0  0
  -32.0410  -18.7280   21.3640 C   0  0  0  0  0  2  0  0  0  0  0  0
  -31.1270  -17.5490   20.9920 C   0  0  0  0  0  2  0  0  0  0  0  0
  -31.1360  -16.4110   22.0380 C   0  0  0  0  0  2  0  0  0  0  0  0
  -30.8060  -14.3730   20.6600 C   0  0  0  0  0  0  0  0  0  0  0  0
  -30.4060  -12.2870   19.4150 C   0  0  0  0  0  2  0  0  0  0  0  0
  -29.4840  -12.5240   18.2050 C   0  0  0  0  0  2  0  0  0  0  0  0
  -28.0100  -12.3770   18.6240 C   0  0  0  0  0  2  0  0  0  0  0  0
  -27.6650  -13.2150   19.8830 C   0  0  0  0  0  3  0  0  0  0  0  0
  -28.7070  -13.0000   21.0060 C   0  0  0  0  0  2  0  0  0  0  0  0
  -30.0510  -13.2620   20.4590 N   0  0  0  0  0  0  0  0  0  0  0  0
  -31.8470  -14.5950   20.0390 O   0  0  0  0  0  0  0  0  0  0  0  0
  -30.3820  -15.2330   21.5960 N   0  0  0  0  0  0  0  0  0  0  0  0
  -29.5220  -15.0120   22.0750 H   0  0  0  0  0  0  0  0  0  0  0  0
  -25.2580  -13.8170   20.5720 C   0  0  0  0  0  0  0  0  0  0  0  0
  -24.1850  -13.0460   20.9170 C   0  0  0  0  0  0  0  0  0  0  0  0
  -24.6410  -11.6910   20.8750 C   0  0  0  0  0  0  0  0  0  0  0  0
  -26.3060  -12.9390   20.3450 N   0  0  0  0  0  0  0  0  0  0  0  0
  -25.9350  -11.6530   20.5820 N   0  0  0  0  0  0  0  0  0  0  0  0
  -23.9070  -10.4300   21.0400 C   0  0  0  0  0  0  0  0  0  0  0  0
  -24.3620   -9.4210   21.9190 C   0  0  0  0  0  3  0  0  0  0  0  0
  -23.6300   -8.2250   22.0760 C   0  0  0  0  0  3  0  0  0  0  0  0
  -22.4280   -8.0280   21.3540 C   0  0  0  0  0  0  0  0  0  0  0  0
  -21.9920   -9.0250   20.4650 C   0  0  0  0  0  3  0  0  0  0  0  0
  -22.7240  -10.2130   20.3050 C   0  0  0  0  0  3  0  0  0  0  0  0
  -21.6640   -6.8890   21.4240 O   0  0  0  0  0  0  0  0  0  0  0  0
  -21.6850   -6.0740   22.5290 C   0  0  0  0  0  0  0  0  0  0  0  0
  -21.4010   -6.5640   23.8210 C   0  0  0  0  0  3  0  0  0  0  0  0
  -21.3660   -5.6790   24.9180 C   0  0  0  0  0  3  0  0  0  0  0  0
  -21.6050   -4.3050   24.7220 C   0  0  0  0  0  0  0  0  0  0  0  0
  -21.8820   -3.8150   23.4340 C   0  0  0  0  0  3  0  0  0  0  0  0
  -21.9190   -4.6970   22.3400 C   0  0  0  0  0  0  0  0  0  0  0  0
  -22.1660   -4.2160   21.0980 F   0  0  0  0  0  0  0  0  0  0  0  0
  -21.5630   -3.4540   25.7730 F   0  0  0  0  0  0  0  0  0  0  0  0
  -22.7850  -13.5230   21.1850 C   0  0  0  0  0  0  0  0  0  0  0  0
  -22.0500  -12.8210   22.0390 N   0  0  0  0  0  0  0  0  0  0  0  0
  -22.3540  -14.5550   20.6710 O   0  0  0  0  0  0  0  0  0  0  0  0
  -22.4100  -11.9830   22.4730 H   0  0  0  0  0  0  0  0  0  0  0  0
  -21.1120  -13.1230   22.2610 H   0  0  0  0  0  0  0  0  0  0  0  0
  -25.4330  -15.1900   20.4110 N   0  0  0  0  0  0  0  0  0  0  0  0
  -24.6740  -15.8540   20.5170 H   0  0  0  0  0  0  0  0  0  0  0  0
  -26.2980  -15.6230   20.1130 H   0  0  0  0  0  0  0  0  0  0  0  0
  -33.4240  -23.9310   21.4790 C   0  0  0  0  0  2  0  0  0  0  0  0
  -32.0230  -24.0340   22.1240 C   0  0  0  0  0  2  0  0  0  0  0  0
  -32.1010  -24.2500   23.6510 C   0  0  0  0  0  2  0  0  0  0  0  0
  -30.8580  -23.7960   24.4470 C   0  0  0  0  0  2  0  0  0  0  0  0
  -29.5910  -24.6780   24.3380 C   0  0  0  0  0  2  0  0  0  0  0  0
  -28.8200  -24.5760   23.0060 C   0  0  0  0  0  2  0  0  0  0  0  0
  -28.9230  -25.8370   22.1270 C   0  0  0  0  0  2  0  0  0  0  0  0
  -28.4360  -25.5770   20.6950 C   0  0  0  0  0  2  0  0  0  0  0  0
  -28.4250  -26.8140   20.0010 O   0  0  0  0  0  0  0  0  0  0  0  0
  -24.6090  -31.8650   23.2100 C   0  0  0  0  0  0  0  0  0  0  0  0
  -27.2410  -27.5010   20.0630 C   0  0  0  0  0  0  0  0  0  0  0  0
  -23.3900  -30.4910   21.5520 C   0  0  0  0  0  3  0  0  0  0  0  0
  -24.8390  -28.9720   20.0960 C   0  0  0  0  0  0  0  0  0  0  0  0
  -25.9060  -30.8610   21.3360 C   0  0  0  0  0  2  0  0  0  0  0  0
  -25.9920  -29.4950   20.6970 C   0  0  0  0  0  0  0  0  0  0  0  0
  -27.1960  -28.7630   20.6890 C   0  0  0  0  0  3  0  0  0  0  0  0
  -26.0820  -26.9870   19.4450 C   0  0  0  0  0  3  0  0  0  0  0  0
  -24.8780  -27.7140   19.4650 C   0  0  0  0  0  3  0  0  0  0  0  0
  -23.5870  -29.8170   20.1630 C   0  0  0  0  0  2  0  0  0  0  0  0
  -24.6560  -31.0830   22.0970 N   0  0  0  0  0  0  0  0  0  0  0  0
  -23.5330  -32.1370   23.7590 O   0  0  0  0  0  0  0  0  0  0  0  0
  -22.7410  -29.4640   22.5040 C   0  0  0  0  0  0  0  0  0  0  0  0
  -21.4130  -29.3060   22.3850 N   0  0  0  0  0  0  0  0  0  0  0  0
  -23.4250  -28.8110   23.2970 O   0  0  0  0  0  0  0  0  0  0  0  0
  -20.9330  -29.8810   21.7070 H   0  0  0  0  0  0  0  0  0  0  0  0
  -18.0290  -28.1420   22.8470 C   0  0  0  0  0  0  0  0  0  0  0  0
  -20.5870  -28.3650   23.1390 C   0  0  0  0  0  3  0  0  0  0  0  0
  -20.6850  -26.9360   22.5520 C   0  0  0  0  0  2  0  0  0  0  0  0
  -19.5840  -26.6350   21.5310 C   0  0  0  0  0  2  0  0  0  0  0  0
  -18.1990  -26.7940   22.1660 C   0  0  0  0  0  2  0  0  0  0  0  0
  -19.1540  -28.8840   23.2930 C   0  0  0  0  0  0  0  0  0  0  0  0
  -18.9490  -30.1470   23.8920 C   0  0  0  0  0  3  0  0  0  0  0  0
  -17.6480  -30.6600   24.0600 C   0  0  0  0  0  3  0  0  0  0  0  0
  -16.5370  -29.9150   23.6290 C   0  0  0  0  0  3  0  0  0  0  0  0
  -16.7270  -28.6590   23.0240 C   0  0  0  0  0  3  0  0  0  0  0  0
  -25.9030  -32.4780   23.8340 C   0  0  0  0  0  3  0  0  0  0  0  0
  -25.5860  -33.8590   24.2250 N   0  0  0  0  0  0  0  0  0  0  0  0
  -25.8980  -34.9490   23.5090 C   0  0  0  0  0  0  0  0  0  0  0  0
  -26.5640  -34.8980   22.4710 O   0  0  0  0  0  0  0  0  0  0  0  0
  -24.9760  -33.9680   25.0220 H   0  0  0  0  0  0  0  0  0  0  0  0
  -24.1440  -36.7410   23.2620 C   0  0  0  0  0  1  0  0  0  0  0  0
  -25.4040  -36.3150   24.0320 C   0  0  0  0  0  3  0  0  0  0  0  0
  -27.5540  -37.1830   24.8410 C   0  0  0  0  0  1  0  0  0  0  0  0
  -26.4230  -37.3850   23.9400 N   0  0  0  0  0  0  0  0  0  0  0  0
  -26.0160  -38.2910   24.1520 H   0  0  0  0  0  0  0  0  0  0  0  0
  -26.4450  -31.6520   25.0640 C   0  0  1  0  0  0  0  0  0  0  0  0
  -25.3720  -31.3690   26.1390 C   0  0  0  0  0  1  0  0  0  0  0  0
  -27.0180  -30.2930   24.5920 C   0  0  0  0  0  1  0  0  0  0  0  0
  -27.6030  -32.4160   25.7440 C   0  0  0  0  0  1  0  0  0  0  0  0
  1  2  1  0
  2  4  2  0
  3  6  1  0
  3  1  2  0
  4  8  1  0
  5  4  1  0
  5  7  1  0
  6  5  2  0
  7  8  1  0
  8 56  1  1
  9  6  1  0
 10 12  1  0
 10  8  1  0
 10 13  1  0
 11 10  1  0
 14 13  1  0
 14 15  1  0
 16 15  1  0
 16 17  1  0
 18 26  1  0
 19 24  1  0
 20 21  1  0
 20 19  1  0
 22 21  1  0
 22 31  1  0
 22 23  1  0
 24 18  1  0
 24 23  1  0
 25 18  2  0
 26 17  1  0
 26 27  1  0
 28 29  2  0
 29 48  1  0
 30 29  1  0
 30 33  1  0
 31 28  1  0
 31 32  1  0
 32 30  2  0
 33 34  1  0
 34 35  2  0
 36 39  1  0
 36 35  1  0
 37 36  2  0
 38 37  1  0
 38 33  2  0
 39 40  1  0
 40 41  1  0
 41 42  2  0
 43 42  1  0
 43 47  1  0
 44 43  2  0
 45 40  2  0
 45 44  1  0
 46 45  1  0
 48 49  1  0
 49 52  1  0
 49 51  1  0
 50 48  2  0
 53 54  1  0
 53 28  1  0
 55 53  1  0
 56 57  1  0
 57 58  1  0
 58 59  1  0
 60 59  1  0
 61 60  1  0
 62 61  1  0
 63 62  1  0
 64 66  1  0
 64 63  1  0
 65 76  2  0
 66 71  1  0
 67 75  1  0
 67 77  1  0
 68 74  1  0
 68 70  1  0
 69 75  1  0
 70 69  1  0
 71 70  2  0
 72 73  1  0
 72 66  2  0
 73 68  2  0
 74 67  1  0
 75 65  1  0
 77 79  2  0
 78 77  1  0
 80 78  1  0
 81 90  2  0
 81 86  1  0
 82 78  1  0
 82 86  1  0
 83 82  1  0
 84 85  1  0
 84 83  1  0
 85 81  1  0
 86 87  2  0
 87 88  1  0
 89 88  2  0
 90 89  1  0
 91 65  1  0
 91 92  1  0
 91101  1  0
 92 95  1  0
 93 97  1  0
 93 92  1  0
 94 93  2  0
 97 96  1  0
 99 97  1  0
 99100  1  0
 99 98  1  0
101104  1  1
101102  1  0
103101  1  0
M  ISO  4  18 100  26 100  63 101  64 101
M  END
>  <TORSDO>  (79) 
F 30

>  <SCORE>  (79) 
0.451

>  <name>  (79) 
78

>  <ligand_id>  (79) 
78

>  <original_smiles>  (79) 
[H]c1c([H])c([H])c2c(c1[H])C([H])([H])C([H])([H])C([H])([H])C2([H])N([H])C(=O)C1([H])N(C(=O)C([H])(N([H])C(=O)C([H])(N([H])C([H])([H])[H])C([H])([H])[H])C(C([H])([H])[H])(C([H])([H])[H])C([H])([H])[H])C([H])([H])c2c([H])c(OC([H])([H])C([H])([H])C([H])([H])C([H])([H])C([H])([H])C([H])([H])C([H])([H])C([H])([H])C3([N+]([H])([H])C([H])([H])C([H])([H])C([H])([H])C([H])([H])C([H])([H])N([H])C(=O)N4C([H])([H])C([H])([H])C([H])([H])C([H])(n5nc(-c6c([H])c([H])c(Oc7c([H])c([H])c(F)c([H])c7F)c([H])c6[H])c(C(=O)N([H])[H])c5N([H])[H])C4([H])[H])c4c([H])c([H])c([H])c(C([H])([H])[H])c4C3([H])[H])c([H])c([H])c2C1([H])[H]

>  <smiles>  (79) 
[H]c1c([H])c([H])c2c(c1[H])C([H])([H])C([H])([H])C([H])([H])C2([H])N([H])C(=O)C1([H])N(C(=O)C([H])(N([H])C(=O)C([H])(N([H])C([H])([H])[H])C([H])([H])[H])C(C([H])([H])[H])(C([H])([H])[H])C([H])([H])[H])C([H])([H])c2c([H])c(OC([H])([H])C([H])([H])C([H])([H])C([H])([H])C([H])([H])C([H])([H])C([H])([H])C([H])([H])C3([N+]([H])([H])C([H])([H])C([H])([H])C([H])([H])C([H])([H])C([H])([H])N([H])C(=O)N4C([H])([H])C([H])([H])C([H])([H])C([H])(n5nc(-c6c([H])c([H])c(Oc7c([H])c([H])c(F)c([H])c7F)c([H])c6[H])c(C(=O)N([H])[H])c5N([H])[H])C4([H])[H])c4c([H])c([H])c([H])c(C([H])([H])[H])c4C3([H])[H])c([H])c([H])c2C1([H])[H]

$$$$
79:0:0
     RDKit          3D

101109  0  0  1  0  0  0  0  0999 V2000
  -29.2430  -22.2400   21.3960 C   0  0  0  0  0  0  0  0  0  0  0  0
  -29.6450  -21.6130   22.4400 N   0  0  0  0  0  0  0  0  0  0  0  0
  -25.8070  -22.3280   19.7160 C   0  0  0  0  0  3  0  0  0  0  0  0
  -26.9420  -22.7150   20.4510 C   0  0  0  0  0  3  0  0  0  0  0  0
  -25.7250  -21.0320   19.1740 C   0  0  0  0  0  3  0  0  0  0  0  0
  -27.9080  -20.5080   20.1340 C   0  0  0  0  0  3  0  0  0  0  0  0
  -28.0170  -21.8170   20.6600 C   0  0  0  0  0  0  0  0  0  0  0  0
  -26.7760  -20.1190   19.3830 C   0  0  0  0  0  0  0  0  0  0  0  0
  -26.6870  -18.7260   18.7890 C   0  0  0  0  0  1  0  0  0  0  0  0
  -30.8800  -22.0120   23.1010 C   0  0  0  0  0  2  0  0  0  0  0  0
  -31.2780  -20.9970   24.1930 C   0  0  0  0  0  2  0  0  0  0  0  0
  -31.3730  -19.5340   23.7100 C   0  0  0  0  0  2  0  0  0  0  0  0
  -32.4150  -19.3090   22.5910 C   0  0  0  0  0  2  0  0  0  0  0  0
  -32.0400  -18.2150   21.5690 C   0  0  0  0  0  2  0  0  0  0  0  0
  -30.9570  -18.6680   20.5770 C   0  0  0  0  0  2  0  0  0  0  0  0
  -30.8480  -17.8250   19.2930 C   0  0  0  0  0  2  0  0  0  0  0  0
  -29.6790  -16.8220   19.2630 C   0  0  0  0  0  2  0  0  0  0  0  0
  -30.6720  -14.6010   19.6500 C   0  0  0  0  0  0  0  0  0  0  0  0
  -30.5390  -12.2460   18.9580 C   0  0  0  0  0  2  0  0  0  0  0  0
  -29.5010  -12.1230   17.8220 C   0  0  0  0  0  2  0  0  0  0  0  0
  -28.0820  -11.9530   18.3970 C   0  0  0  0  0  2  0  0  0  0  0  0
  -27.7430  -13.0100   19.4790 C   0  0  0  0  0  3  0  0  0  0  0  0
  -28.8750  -13.0780   20.5310 C   0  0  0  0  0  2  0  0  0  0  0  0
  -30.1370  -13.3660   19.8240 N   0  0  0  0  0  0  0  0  0  0  0  0
  -31.7010  -14.8080   18.9960 O   0  0  0  0  0  0  0  0  0  0  0  0
  -29.8840  -15.6050   20.0530 N   0  0  0  0  0  0  0  0  0  0  0  0
  -29.1330  -15.3500   20.6820 H   0  0  0  0  0  0  0  0  0  0  0  0
  -25.4680  -13.6290   20.5160 C   0  0  0  0  0  0  0  0  0  0  0  0
  -24.4320  -12.8530   20.9630 C   0  0  0  0  0  0  0  0  0  0  0  0
  -24.8440  -11.4970   20.7790 C   0  0  0  0  0  0  0  0  0  0  0  0
  -26.4470  -12.7410   20.0990 N   0  0  0  0  0  0  0  0  0  0  0  0
  -26.0810  -11.4520   20.3080 N   0  0  0  0  0  0  0  0  0  0  0  0
  -24.1090  -10.2410   20.9760 C   0  0  0  0  0  0  0  0  0  0  0  0
  -24.5750   -9.2470   21.8640 C   0  0  0  0  0  3  0  0  0  0  0  0
  -23.8410   -8.0550   22.0490 C   0  0  0  0  0  3  0  0  0  0  0  0
  -22.6300   -7.8520   21.3440 C   0  0  0  0  0  0  0  0  0  0  0  0
  -22.1820   -8.8370   20.4450 C   0  0  0  0  0  3  0  0  0  0  0  0
  -22.9160  -10.0210   20.2580 C   0  0  0  0  0  3  0  0  0  0  0  0
  -21.8680   -6.7120   21.4350 O   0  0  0  0  0  0  0  0  0  0  0  0
  -21.7630   -6.0080   22.6070 C   0  0  0  0  0  0  0  0  0  0  0  0
  -21.2820   -6.6010   23.7930 C   0  0  0  0  0  3  0  0  0  0  0  0
  -21.1360   -5.8250   24.9610 C   0  0  0  0  0  3  0  0  0  0  0  0
  -21.4530   -4.4530   24.9410 C   0  0  0  0  0  0  0  0  0  0  0  0
  -21.9190   -3.8570   23.7560 C   0  0  0  0  0  3  0  0  0  0  0  0
  -22.0750   -4.6330   22.5920 C   0  0  0  0  0  0  0  0  0  0  0  0
  -22.5080   -4.0510   21.4490 F   0  0  0  0  0  0  0  0  0  0  0  0
  -21.3020   -3.7010   26.0580 F   0  0  0  0  0  0  0  0  0  0  0  0
  -23.0920  -13.3370   21.4410 C   0  0  0  0  0  0  0  0  0  0  0  0
  -22.4630  -12.6100   22.3590 N   0  0  0  0  0  0  0  0  0  0  0  0
  -22.6170  -14.3960   21.0340 O   0  0  0  0  0  0  0  0  0  0  0  0
  -22.8540  -11.7520   22.7230 H   0  0  0  0  0  0  0  0  0  0  0  0
  -21.5620  -12.9130   22.6970 H   0  0  0  0  0  0  0  0  0  0  0  0
  -25.6540  -15.0070   20.4160 N   0  0  0  0  0  0  0  0  0  0  0  0
  -24.9430  -15.6720   20.6960 H   0  0  0  0  0  0  0  0  0  0  0  0
  -26.4820  -15.4480   20.0300 H   0  0  0  0  0  0  0  0  0  0  0  0
  -30.0090  -23.4020   20.7430 C   0  0  0  0  0  2  0  0  0  0  0  0
  -29.5460  -24.7980   21.1830 C   0  0  0  0  0  0  0  0  0  0  0  0
  -28.7400  -24.9720   22.1040 O   0  0  0  0  0  0  0  0  0  0  0  0
  -30.1640  -25.9810   20.4310 C   0  0  0  0  0  2  0  0  0  0  0  0
  -29.2670  -27.2280   20.4100 C   0  0  0  0  0  2  0  0  0  0  0  0
  -28.1900  -26.9830   19.5100 O   0  0  0  0  0  0  0  0  0  0  0  0
  -24.4860  -31.8800   23.1570 C   0  0  0  0  0  0  0  0  0  0  0  0
  -27.0420  -27.7210   19.6730 C   0  0  0  0  0  0  0  0  0  0  0  0
  -23.2080  -30.5490   21.5030 C   0  0  0  0  0  3  0  0  0  0  0  0
  -24.6070  -29.1300   19.9120 C   0  0  0  0  0  0  0  0  0  0  0  0
  -25.7020  -30.9910   21.1760 C   0  0  0  0  0  2  0  0  0  0  0  0
  -25.7810  -29.6590   20.4620 C   0  0  0  0  0  0  0  0  0  0  0  0
  -27.0010  -28.9660   20.3420 C   0  0  0  0  0  3  0  0  0  0  0  0
  -25.8540  -27.2000   19.1200 C   0  0  0  0  0  3  0  0  0  0  0  0
  -24.6370  -27.8950   19.2400 C   0  0  0  0  0  3  0  0  0  0  0  0
  -23.3490  -29.9500   20.0780 C   0  0  0  0  0  2  0  0  0  0  0  0
  -24.4870  -31.1490   22.0060 N   0  0  0  0  0  0  0  0  0  0  0  0
  -23.4340  -32.0960   23.7740 O   0  0  0  0  0  0  0  0  0  0  0  0
  -22.6350  -29.4630   22.4390 C   0  0  0  0  0  0  0  0  0  0  0  0
  -21.3220  -29.2110   22.3250 N   0  0  0  0  0  0  0  0  0  0  0  0
  -23.3660  -28.8480   23.2210 O   0  0  0  0  0  0  0  0  0  0  0  0
  -20.7890  -29.7650   21.6670 H   0  0  0  0  0  0  0  0  0  0  0  0
  -18.0430  -27.7620   22.7590 C   0  0  0  0  0  0  0  0  0  0  0  0
  -20.5700  -28.2050   23.0720 C   0  0  0  0  0  3  0  0  0  0  0  0
  -20.7860  -26.7920   22.4810 C   0  0  0  0  0  2  0  0  0  0  0  0
  -19.7260  -26.4040   21.4460 C   0  0  0  0  0  2  0  0  0  0  0  0
  -18.3280  -26.4390   22.0690 C   0  0  0  0  0  2  0  0  0  0  0  0
  -19.0960  -28.5990   23.2150 C   0  0  0  0  0  0  0  0  0  0  0  0
  -18.7780  -29.8360   23.8160 C   0  0  0  0  0  3  0  0  0  0  0  0
  -17.4370  -30.2370   23.9690 C   0  0  0  0  0  3  0  0  0  0  0  0
  -16.3980  -29.3980   23.5320 C   0  0  0  0  0  3  0  0  0  0  0  0
  -16.7020  -28.1620   22.9310 C   0  0  0  0  0  3  0  0  0  0  0  0
  -25.7960  -32.4990   23.7380 C   0  0  0  0  0  3  0  0  0  0  0  0
  -25.5090  -33.8950   24.0860 N   0  0  0  0  0  0  0  0  0  0  0  0
  -25.8780  -34.9540   23.3500 C   0  0  0  0  0  0  0  0  0  0  0  0
  -26.5650  -34.8530   22.3300 O   0  0  0  0  0  0  0  0  0  0  0  0
  -24.9060  -34.0490   24.8800 H   0  0  0  0  0  0  0  0  0  0  0  0
  -24.2000  -36.7890   22.9770 C   0  0  0  0  0  1  0  0  0  0  0  0
  -25.4040  -36.3420   23.8210 C   0  0  0  0  0  3  0  0  0  0  0  0
  -27.5350  -37.1560   24.7340 C   0  0  0  0  0  1  0  0  0  0  0  0
  -26.4620  -37.3750   23.7680 N   0  0  0  0  0  0  0  0  0  0  0  0
  -26.0690  -38.2970   23.9370 H   0  0  0  0  0  0  0  0  0  0  0  0
  -26.3560  -31.7110   24.9860 C   0  0  1  0  0  0  0  0  0  0  0  0
  -25.3050  -31.4690   26.0930 C   0  0  0  0  0  1  0  0  0  0  0  0
  -26.9140  -30.3340   24.5530 C   0  0  0  0  0  1  0  0  0  0  0  0
  -27.5360  -32.4920   25.6120 C   0  0  0  0  0  1  0  0  0  0  0  0
  1  2  2  0
  2 10  1  0
  3  4  1  0
  4  7  2  0
  5  8  1  0
  5  3  2  0
  6  7  1  0
  7  1  1  0
  8  6  2  0
  9  8  1  0
 10 11  1  0
 12 11  1  0
 13 12  1  0
 14 13  1  0
 15 14  1  0
 16 15  1  0
 17 16  1  0
 17 26  1  0
 18 24  1  0
 18 26  1  0
 19 24  1  0
 20 21  1  0
 20 19  1  0
 22 21  1  0
 22 31  1  0
 22 23  1  0
 24 23  1  0
 25 18  2  0
 26 27  1  0
 28 29  2  0
 29 48  1  0
 30 29  1  0
 30 33  1  0
 31 32  1  0
 31 28  1  0
 32 30  2  0
 33 34  1  0
 34 35  2  0
 36 39  1  0
 36 35  1  0
 37 36  2  0
 38 37  1  0
 38 33  2  0
 39 40  1  0
 40 41  1  0
 41 42  2  0
 43 42  1  0
 43 47  1  0
 44 43  2  0
 45 40  2  0
 45 44  1  0
 46 45  1  0
 48 49  1  0
 49 52  1  0
 49 51  1  0
 50 48  2  0
 53 28  1  0
 53 54  1  0
 55 53  1  0
 56 57  1  0
 56  1  1  0
 57 58  2  0
 59 57  1  0
 60 59  1  0
 61 63  1  0
 61 60  1  0
 62 73  2  0
 63 68  1  0
 64 72  1  0
 64 74  1  0
 65 71  1  0
 65 67  1  0
 66 72  1  0
 67 66  1  0
 68 67  2  0
 69 70  1  0
 69 63  2  0
 70 65  2  0
 71 64  1  0
 72 62  1  0
 74 76  2  0
 75 74  1  0
 77 75  1  0
 78 87  2  0
 78 83  1  0
 79 75  1  0
 79 83  1  0
 80 79  1  0
 81 82  1  0
 81 80  1  0
 82 78  1  0
 83 84  2  0
 84 85  1  0
 86 85  2  0
 87 86  1  0
 88 62  1  0
 88 89  1  0
 88 98  1  0
 89 92  1  0
 90 94  1  0
 90 89  1  0
 91 90  2  0
 94 93  1  0
 96 94  1  0
 96 97  1  0
 96 95  1  0
 98101  1  1
 98 99  1  0
100 98  1  0
M  ISO  4  18 100  26 100  60 101  61 101
M  END
>  <TORSDO>  (80) 
F 29

>  <SCORE>  (80) 
-9.782

>  <name>  (80) 
79

>  <ligand_id>  (80) 
79

>  <original_smiles>  (80) 
[H]c1c([H])c(C(=NC([H])([H])C([H])([H])C([H])([H])C([H])([H])C([H])([H])C([H])([H])C([H])([H])C([H])([H])N([H])C(=O)N2C([H])([H])C([H])([H])C([H])([H])C([H])(n3nc(-c4c([H])c([H])c(Oc5c([H])c([H])c(F)c([H])c5F)c([H])c4[H])c(C(=O)N([H])[H])c3N([H])[H])C2([H])[H])C([H])([H])C(=O)C([H])([H])C([H])([H])Oc2c([H])c([H])c3c(c2[H])C([H])([H])N(C(=O)C([H])(N([H])C(=O)C([H])(N([H])C([H])([H])[H])C([H])([H])[H])C(C([H])([H])[H])(C([H])([H])[H])C([H])([H])[H])C([H])(C(=O)N([H])C2([H])c4c([H])c([H])c([H])c([H])c4C([H])([H])C([H])([H])C2([H])[H])C3([H])[H])c([H])c(C([H])([H])[H])c1[H]

>  <smiles>  (80) 
[H]c1c([H])c(C(=NC([H])([H])C([H])([H])C([H])([H])C([H])([H])C([H])([H])C([H])([H])C([H])([H])C([H])([H])N([H])C(=O)N2C([H])([H])C([H])([H])C([H])([H])C([H])(n3nc(-c4c([H])c([H])c(Oc5c([H])c([H])c(F)c([H])c5F)c([H])c4[H])c(C(=O)N([H])[H])c3N([H])[H])C2([H])[H])C([H])([H])C(=O)C([H])([H])C([H])([H])Oc2c([H])c([H])c3c(c2[H])C([H])([H])N(C(=O)C([H])(N([H])C(=O)C([H])(N([H])C([H])([H])[H])C([H])([H])[H])C(C([H])([H])[H])(C([H])([H])[H])C([H])([H])[H])C([H])(C(=O)N([H])C2([H])c4c([H])c([H])c([H])c([H])c4C([H])([H])C([H])([H])C2([H])[H])C3([H])[H])c([H])c(C([H])([H])[H])c1[H]

$$$$
80:0:0
     RDKit          3D

104112  0  0  1  0  0  0  0  0999 V2000
  -25.7210  -22.3690   22.0110 C   0  0  0  0  0  3  0  0  0  0  0  0
  -26.7420  -22.7490   21.1330 C   0  0  0  0  0  3  0  0  0  0  0  0
  -27.3910  -21.8120   23.6850 C   0  0  0  0  0  3  0  0  0  0  0  0
  -26.0340  -21.9940   23.3270 C   0  0  0  0  0  0  0  0  0  0  0  0
  -28.0990  -22.6890   21.5190 C   0  0  0  0  0  0  0  0  0  0  0  0
  -28.4390  -22.1500   22.7900 C   0  0  0  0  0  0  0  0  0  0  0  0
  -24.9440  -21.8060   24.3240 C   0  0  0  0  0  0  0  0  0  0  0  0
  -24.8710  -20.8220   25.0630 O   0  0  0  0  0  0  0  0  0  0  0  0
  -23.8980  -22.9320   24.4650 C   0  0  0  0  0  2  0  0  0  0  0  0
  -24.1240  -24.1550   23.5330 C   0  0  0  0  0  2  0  0  0  0  0  0
  -24.0390  -25.5180   24.2330 C   0  0  0  0  0  2  0  0  0  0  0  0
  -23.6650  -26.6430   23.2390 C   0  0  0  0  0  2  0  0  0  0  0  0
  -24.7610  -27.7090   23.0780 C   0  0  0  0  0  2  0  0  0  0  0  0
  -24.8700  -29.5400   21.3260 C   0  0  0  0  0  0  0  0  0  0  0  0
  -25.0400  -29.6880   18.8690 C   0  0  0  0  0  2  0  0  0  0  0  0
  -23.6330  -29.5530   18.2390 C   0  0  0  0  0  2  0  0  0  0  0  0
  -23.2260  -28.0730   18.0670 C   0  0  0  0  0  2  0  0  0  0  0  0
  -23.4660  -27.2400   19.3540 C   0  0  0  0  0  3  0  0  0  0  0  0
  -24.9140  -27.4890   19.8220 C   0  0  0  0  0  2  0  0  0  0  0  0
  -25.0450  -28.9210   20.1250 N   0  0  0  0  0  0  0  0  0  0  0  0
  -24.9540  -30.7630   21.4580 O   0  0  0  0  0  0  0  0  0  0  0  0
  -24.2520  -28.8370   22.2900 N   0  0  0  0  0  0  0  0  0  0  0  0
  -23.6970  -29.4570   22.8620 H   0  0  0  0  0  0  0  0  0  0  0  0
  -22.0060  -25.1210   19.1690 C   0  0  0  0  0  0  0  0  0  0  0  0
  -22.3140  -23.8300   18.8270 C   0  0  0  0  0  0  0  0  0  0  0  0
  -23.7240  -23.8130   18.5920 C   0  0  0  0  0  0  0  0  0  0  0  0
  -23.2050  -25.8200   19.1370 N   0  0  0  0  0  0  0  0  0  0  0  0
  -24.2480  -25.0060   18.8330 N   0  0  0  0  0  0  0  0  0  0  0  0
  -24.5990  -22.7440   18.0960 C   0  0  0  0  0  0  0  0  0  0  0  0
  -25.7710  -22.3680   18.7870 C   0  0  0  0  0  3  0  0  0  0  0  0
  -26.5870  -21.3270   18.2970 C   0  0  0  0  0  3  0  0  0  0  0  0
  -26.2330  -20.6460   17.1090 C   0  0  0  0  0  0  0  0  0  0  0  0
  -25.0780  -21.0420   16.4110 C   0  0  0  0  0  3  0  0  0  0  0  0
  -24.2700  -22.0820   16.8950 C   0  0  0  0  0  3  0  0  0  0  0  0
  -26.9790  -19.6390   16.5450 O   0  0  0  0  0  0  0  0  0  0  0  0
  -27.8390  -18.8760   17.2940 C   0  0  0  0  0  0  0  0  0  0  0  0
  -27.3920  -18.1090   18.3920 C   0  0  0  0  0  3  0  0  0  0  0  0
  -28.2980  -17.2860   19.0910 C   0  0  0  0  0  3  0  0  0  0  0  0
  -29.6450  -17.2240   18.6910 C   0  0  0  0  0  0  0  0  0  0  0  0
  -30.0910  -17.9830   17.5950 C   0  0  0  0  0  3  0  0  0  0  0  0
  -29.1900  -18.8080   16.8980 C   0  0  0  0  0  0  0  0  0  0  0  0
  -29.6200  -19.5220   15.8320 F   0  0  0  0  0  0  0  0  0  0  0  0
  -30.5130  -16.4250   19.3560 F   0  0  0  0  0  0  0  0  0  0  0  0
  -21.3470  -22.6970   18.6380 C   0  0  0  0  0  0  0  0  0  0  0  0
  -21.7910  -21.4710   18.8920 N   0  0  0  0  0  0  0  0  0  0  0  0
  -20.1780  -22.9000   18.3090 O   0  0  0  0  0  0  0  0  0  0  0  0
  -22.7460  -21.3060   19.1710 H   0  0  0  0  0  0  0  0  0  0  0  0
  -21.1660  -20.6810   18.8050 H   0  0  0  0  0  0  0  0  0  0  0  0
  -20.8150  -25.7690   19.4830 N   0  0  0  0  0  0  0  0  0  0  0  0
  -19.9130  -25.3080   19.4680 H   0  0  0  0  0  0  0  0  0  0  0  0
  -20.7570  -26.7530   19.7070 H   0  0  0  0  0  0  0  0  0  0  0  0
  -29.0740  -23.2440   20.5670 C   0  0  0  0  0  3  0  0  0  0  0  0
  -28.8740  -24.4390   19.9730 C   0  0  0  0  0  3  0  0  0  0  0  0
  -29.6870  -24.8850   18.8600 C   0  0  0  0  0  0  0  0  0  0  0  0
  -29.2260  -26.0520   18.3930 N   0  0  0  0  0  0  0  0  0  0  0  0
  -30.5530  -24.2300   18.2800 O   0  0  0  0  0  0  0  0  0  0  0  0
  -28.6530  -26.5820   19.0300 H   0  0  0  0  0  0  0  0  0  0  0  0
  -28.8760  -26.2410   16.9860 C   0  0  0  0  0  2  0  0  0  0  0  0
  -27.4000  -26.7100   16.9070 C   0  0  0  0  0  2  0  0  0  0  0  0
  -26.8730  -26.8390   15.5910 O   0  0  0  0  0  0  0  0  0  0  0  0
  -22.6180  -24.6150   10.3480 C   0  0  0  0  0  0  0  0  0  0  0  0
  -25.6960  -26.1950   15.2620 C   0  0  0  0  0  0  0  0  0  0  0  0
  -21.7250  -24.3310   12.6370 C   0  0  0  0  0  3  0  0  0  0  0  0
  -23.3790  -24.7540   14.5210 C   0  0  0  0  0  0  0  0  0  0  0  0
  -24.2460  -24.3450   12.2140 C   0  0  0  0  0  2  0  0  0  0  0  0
  -24.4170  -24.9320   13.6000 C   0  0  0  0  0  0  0  0  0  0  0  0
  -25.5810  -25.6360   13.9720 C   0  0  0  0  0  3  0  0  0  0  0  0
  -24.6110  -26.0510   16.1580 C   0  0  0  0  0  3  0  0  0  0  0  0
  -23.4650  -25.3200   15.8020 C   0  0  0  0  0  3  0  0  0  0  0  0
  -22.1870  -23.9470   14.0660 C   0  0  0  0  0  2  0  0  0  0  0  0
  -22.8690  -24.4650   11.6790 N   0  0  0  0  0  0  0  0  0  0  0  0
  -21.4590  -24.5960    9.9100 O   0  0  0  0  0  0  0  0  0  0  0  0
  -20.8500  -25.6020   12.7330 C   0  0  0  0  0  0  0  0  0  0  0  0
  -19.5260  -25.4070   12.8520 N   0  0  0  0  0  0  0  0  0  0  0  0
  -21.3640  -26.7230   12.7310 O   0  0  0  0  0  0  0  0  0  0  0  0
  -19.1870  -24.4560   12.8420 H   0  0  0  0  0  0  0  0  0  0  0  0
  -15.9680  -26.0280   12.9580 C   0  0  0  0  0  0  0  0  0  0  0  0
  -18.5170  -26.4550   13.0010 C   0  0  0  0  0  3  0  0  0  0  0  0
  -18.3220  -26.8420   14.4850 C   0  0  0  0  0  2  0  0  0  0  0  0
  -17.1920  -26.0740   15.1770 C   0  0  0  0  0  2  0  0  0  0  0  0
  -15.8630  -26.3020   14.4500 C   0  0  0  0  0  2  0  0  0  0  0  0
  -17.2140  -26.0820   12.2840 C   0  0  0  0  0  0  0  0  0  0  0  0
  -17.2620  -25.7810   10.9050 C   0  0  0  0  0  3  0  0  0  0  0  0
  -16.0930  -25.4320   10.2050 C   0  0  0  0  0  3  0  0  0  0  0  0
  -14.8560  -25.3940   10.8720 C   0  0  0  0  0  3  0  0  0  0  0  0
  -14.7970  -25.6960   12.2450 C   0  0  0  0  0  3  0  0  0  0  0  0
  -23.7700  -24.7890    9.3090 C   0  0  0  0  0  3  0  0  0  0  0  0
  -23.4770  -23.9120    8.1690 N   0  0  0  0  0  0  0  0  0  0  0  0
  -24.0240  -22.7040    7.9810 C   0  0  0  0  0  0  0  0  0  0  0  0
  -24.8990  -22.2430    8.7220 O   0  0  0  0  0  0  0  0  0  0  0  0
  -22.7290  -24.2000    7.5550 H   0  0  0  0  0  0  0  0  0  0  0  0
  -22.5240  -20.8220    7.2640 C   0  0  0  0  0  1  0  0  0  0  0  0
  -23.5290  -21.8780    6.7800 C   0  0  0  0  0  3  0  0  0  0  0  0
  -25.4730  -22.1630    5.3080 C   0  0  0  0  0  1  0  0  0  0  0  0
  -24.6190  -21.2200    6.0280 N   0  0  0  0  0  0  0  0  0  0  0  0
  -24.2460  -20.5550    5.3560 H   0  0  0  0  0  0  0  0  0  0  0  0
  -23.9560  -26.2810    8.8340 C   0  0  1  0  0  0  0  0  0  0  0  0
  -22.6470  -26.9470    8.3480 C   0  0  0  0  0  1  0  0  0  0  0  0
  -24.5270  -27.1480    9.9800 C   0  0  0  0  0  1  0  0  0  0  0  0
  -24.9830  -26.3420    7.6790 C   0  0  0  0  0  1  0  0  0  0  0  0
  -29.9050  -21.9880   23.2010 C   0  0  0  0  0  2  0  0  0  0  0  0
  -30.4460  -20.5410   23.1910 C   0  0  0  0  0  2  0  0  0  0  0  0
  -32.3930  -19.0150   22.5920 C   0  0  0  0  0  1  0  0  0  0  0  0
  -31.9190  -20.4620   22.7640 C   0  0  0  0  0  2  0  0  0  0  0  0
  1  4  1  0
  2  5  1  0
  2  1  2  0
  4  3  2  0
  4  7  1  0
  5  6  2  0
  6101  1  0
  6  3  1  0
  7  9  1  0
  7  8  2  0
 10 11  1  0
 10  9  1  0
 12 11  1  0
 13 12  1  0
 14 21  2  0
 14 22  1  0
 15 20  1  0
 16 15  1  0
 17 16  1  0
 18 17  1  0
 18 19  1  0
 19 20  1  0
 20 14  1  0
 22 23  1  0
 22 13  1  0
 24 49  1  0
 25 24  2  0
 26 25  1  0
 26 28  2  0
 27 24  1  0
 27 18  1  0
 28 27  1  0
 29 26  1  0
 29 30  1  0
 31 30  2  0
 32 31  1  0
 33 34  1  0
 33 32  2  0
 34 29  2  0
 35 32  1  0
 35 36  1  0
 36 37  1  0
 37 38  2  0
 39 38  1  0
 39 43  1  0
 40 39  2  0
 41 36  2  0
 41 40  1  0
 42 41  1  0
 44 25  1  0
 44 45  1  0
 45 47  1  0
 46 44  2  0
 48 45  1  0
 49 51  1  0
 50 49  1  0
 52  5  1  0
 53 52  2  0
 54 53  1  0
 55 54  1  0
 55 57  1  0
 56 54  2  0
 58 55  1  0
 59 58  1  0
 60 59  1  0
 61 71  1  0
 62 60  1  0
 62 68  1  0
 63 73  1  0
 63 70  1  0
 64 69  1  0
 65 66  1  0
 66 67  1  0
 66 64  2  0
 67 62  2  0
 69 68  2  0
 70 64  1  0
 71 65  1  0
 71 63  1  0
 72 61  2  0
 73 74  1  0
 75 73  2  0
 76 74  1  0
 77 81  1  0
 78 74  1  0
 78 79  1  0
 79 80  1  0
 81 80  1  0
 82 77  1  0
 82 78  1  0
 83 82  2  0
 84 85  2  0
 84 83  1  0
 85 86  1  0
 86 77  2  0
 87 61  1  0
 88 87  1  0
 89 88  1  0
 89 90  2  0
 91 88  1  0
 93 92  1  0
 93 89  1  0
 94 95  1  0
 95 93  1  0
 96 95  1  0
 97 87  1  0
 97 99  1  1
 98 97  1  0
100 97  1  0
102101  1  0
103104  1  0
104102  1  0
M  ISO  4  14 100  22 100  59 101  60 101
M  END
>  <TORSDO>  (81) 
F 29

>  <SCORE>  (81) 
21.613

>  <name>  (81) 
80

>  <ligand_id>  (81) 
80

>  <original_smiles>  (81) 
[H]C(C(=O)N([H])C([H])([H])C([H])([H])Oc1c([H])c([H])c2c(c1[H])C([H])([H])N(C(=O)C([H])(N([H])C(=O)C([H])(N([H])C([H])([H])[H])C([H])([H])[H])C(C([H])([H])[H])(C([H])([H])[H])C([H])([H])[H])C([H])(C(=O)N([H])C1([H])c3c([H])c([H])c([H])c([H])c3C([H])([H])C([H])([H])C1([H])[H])C2([H])[H])=C([H])c1c([H])c([H])c(C(=O)C([H])([H])C([H])([H])C([H])([H])C([H])([H])C([H])([H])N([H])C(=O)N2C([H])([H])C([H])([H])C([H])([H])C([H])(n3nc(-c4c([H])c([H])c(Oc5c([H])c([H])c(F)c([H])c5F)c([H])c4[H])c(C(=O)N([H])[H])c3N([H])[H])C2([H])[H])c([H])c1C([H])([H])C([H])([H])C([H])([H])C([H])([H])[H]

>  <smiles>  (81) 
[H]C(C(=O)N([H])C([H])([H])C([H])([H])Oc1c([H])c([H])c2c(c1[H])C([H])([H])N(C(=O)C([H])(N([H])C(=O)C([H])(N([H])C([H])([H])[H])C([H])([H])[H])C(C([H])([H])[H])(C([H])([H])[H])C([H])([H])[H])C([H])(C(=O)N([H])C1([H])c3c([H])c([H])c([H])c([H])c3C([H])([H])C([H])([H])C1([H])[H])C2([H])[H])=C([H])c1c([H])c([H])c(C(=O)C([H])([H])C([H])([H])C([H])([H])C([H])([H])C([H])([H])N([H])C(=O)N2C([H])([H])C([H])([H])C([H])([H])C([H])(n3nc(-c4c([H])c([H])c(Oc5c([H])c([H])c(F)c([H])c5F)c([H])c4[H])c(C(=O)N([H])[H])c3N([H])[H])C2([H])[H])c([H])c1C([H])([H])C([H])([H])C([H])([H])C([H])([H])[H]

$$$$
81:0:0
     RDKit          3D

 95102  0  0  1  0  0  0  0  0999 V2000
  -27.1320  -22.8100   19.8900 C   0  0  0  0  0  2  0  0  0  0  0  0
  -26.2460  -23.6260   18.9280 C   0  0  0  0  0  2  0  0  0  0  0  0
  -25.1860  -24.4900   19.6350 C   0  0  0  0  0  2  0  0  0  0  0  0
  -24.0600  -24.9010   18.6690 C   0  0  0  0  0  2  0  0  0  0  0  0
  -22.7140  -25.1520   19.3680 C   0  0  0  0  0  2  0  0  0  0  0  0
  -21.5100  -24.7230   18.5030 C   0  0  0  0  0  2  0  0  0  0  0  0
  -20.1490  -25.1180   19.1150 C   0  0  0  0  0  3  0  0  0  0  0  0
  -19.7310  -26.7990   20.9010 C   0  0  0  0  0  0  0  0  0  0  0  0
  -19.1870  -28.0120   22.9750 C   0  0  0  0  0  2  0  0  0  0  0  0
  -19.9370  -29.3480   23.1040 C   0  0  0  0  0  2  0  0  0  0  0  0
  -21.3180  -29.1400   23.7450 C   0  0  0  0  0  2  0  0  0  0  0  0
  -22.1220  -28.0080   23.0540 C   0  0  0  0  0  3  0  0  0  0  0  0
  -21.2640  -26.7310   22.9010 C   0  0  0  0  0  2  0  0  0  0  0  0
  -20.0120  -27.0780   22.1970 N   0  0  0  0  0  0  0  0  0  0  0  0
  -18.8560  -27.3800   20.2480 O   0  0  0  0  0  0  0  0  0  0  0  0
  -20.3940  -25.7520   20.4090 N   0  0  0  0  0  0  0  0  0  0  0  0
  -20.9880  -25.2480   21.0500 H   0  0  0  0  0  0  0  0  0  0  0  0
  -24.6370  -27.4770   23.2590 C   0  0  0  0  0  0  0  0  0  0  0  0
  -25.4610  -27.3630   24.3470 C   0  0  0  0  0  0  0  0  0  0  0  0
  -24.6310  -27.5750   25.4930 C   0  0  0  0  0  0  0  0  0  0  0  0
  -23.3720  -27.7370   23.7640 N   0  0  0  0  0  0  0  0  0  0  0  0
  -23.3700  -27.7450   25.1210 N   0  0  0  0  0  0  0  0  0  0  0  0
  -24.9770  -27.6830   26.9140 C   0  0  0  0  0  0  0  0  0  0  0  0
  -25.0990  -26.5380   27.7350 C   0  0  0  0  0  3  0  0  0  0  0  0
  -25.4490  -26.6680   29.0950 C   0  0  0  0  0  3  0  0  0  0  0  0
  -25.6820  -27.9510   29.6490 C   0  0  0  0  0  0  0  0  0  0  0  0
  -25.5360  -29.0860   28.8340 C   0  0  0  0  0  3  0  0  0  0  0  0
  -25.1830  -28.9550   27.4800 C   0  0  0  0  0  3  0  0  0  0  0  0
  -26.0020  -28.1760   30.9670 O   0  0  0  0  0  0  0  0  0  0  0  0
  -26.5260  -27.1860   31.7600 C   0  0  0  0  0  0  0  0  0  0  0  0
  -27.9170  -27.0520   31.9630 C   0  0  0  0  0  3  0  0  0  0  0  0
  -28.4080  -26.0640   32.8410 C   0  0  0  0  0  3  0  0  0  0  0  0
  -27.5130  -25.2170   33.5190 C   0  0  0  0  0  0  0  0  0  0  0  0
  -26.1280  -25.3520   33.3220 C   0  0  0  0  0  3  0  0  0  0  0  0
  -25.6350  -26.3360   32.4460 C   0  0  0  0  0  0  0  0  0  0  0  0
  -24.2990  -26.4760   32.2760 F   0  0  0  0  0  0  0  0  0  0  0  0
  -27.9830  -24.2720   34.3680 F   0  0  0  0  0  0  0  0  0  0  0  0
  -26.9480  -27.1610   24.3270 C   0  0  0  0  0  0  0  0  0  0  0  0
  -27.4280  -26.0850   24.9380 N   0  0  0  0  0  0  0  0  0  0  0  0
  -27.6910  -27.9360   23.7250 O   0  0  0  0  0  0  0  0  0  0  0  0
  -26.8150  -25.4400   25.4150 H   0  0  0  0  0  0  0  0  0  0  0  0
  -28.4230  -25.9040   24.9300 H   0  0  0  0  0  0  0  0  0  0  0  0
  -24.8620  -27.3970   21.8890 N   0  0  0  0  0  0  0  0  0  0  0  0
  -25.7860  -27.2490   21.4990 H   0  0  0  0  0  0  0  0  0  0  0  0
  -24.1510  -27.5250   21.1770 H   0  0  0  0  0  0  0  0  0  0  0  0
  -19.3010  -23.8450   19.3180 C   0  0  0  0  0  0  0  0  0  0  0  0
  -18.6440  -23.2360   18.0870 C   0  0  0  0  0  1  0  0  0  0  0  0
  -19.1340  -23.3100   20.4190 O   0  0  0  0  0  0  0  0  0  0  0  0
  -27.5300  -21.4350   19.3160 C   0  0  0  0  0  2  0  0  0  0  0  0
  -28.4220  -21.5670   18.1390 N   0  0  0  0  0  4  0  0  0  0  0  0
  -29.2970  -21.9550   18.4560 H   0  0  0  0  0  0  0  0  0  0  0  0
  -28.0230  -22.2240   17.4850 H   0  0  0  0  0  0  0  0  0  0  0  0
  -28.7080  -20.2990   17.4240 C   0  0  0  0  0  2  0  0  0  0  0  0
  -30.1790  -19.8730   17.6150 C   0  0  0  0  0  2  0  0  0  0  0  0
  -30.5020  -19.8250   19.0050 O   0  0  0  0  0  0  0  0  0  0  0  0
  -33.1160  -13.1980   18.7040 C   0  0  0  0  0  0  0  0  0  0  0  0
  -30.5750  -18.5660   19.5530 C   0  0  0  0  0  0  0  0  0  0  0  0
  -31.2630  -13.5690   20.2990 C   0  0  0  0  0  3  0  0  0  0  0  0
  -30.6340  -16.0010   20.7220 C   0  0  0  0  0  0  0  0  0  0  0  0
  -32.8460  -15.4750   19.6850 C   0  0  0  0  0  2  0  0  0  0  0  0
  -31.6930  -16.4250   19.9120 C   0  0  0  0  0  0  0  0  0  0  0  0
  -31.6680  -17.7050   19.3220 C   0  0  0  0  0  3  0  0  0  0  0  0
  -29.5150  -18.1350   20.3790 C   0  0  0  0  0  3  0  0  0  0  0  0
  -29.5350  -16.8500   20.9540 C   0  0  0  0  0  3  0  0  0  0  0  0
  -30.7390  -14.6180   21.3170 C   0  0  0  0  0  2  0  0  0  0  0  0
  -32.4310  -14.0630   19.5030 N   0  0  0  0  0  0  0  0  0  0  0  0
  -32.8170  -11.9970   18.6530 O   0  0  0  0  0  0  0  0  0  0  0  0
  -30.0760  -13.1050   19.4230 C   0  0  0  0  0  0  0  0  0  0  0  0
  -29.0490  -12.5240   20.0650 N   0  0  0  0  0  0  0  0  0  0  0  0
  -30.0750  -13.3010   18.2060 O   0  0  0  0  0  0  0  0  0  0  0  0
  -29.1260  -12.3990   21.0660 H   0  0  0  0  0  0  0  0  0  0  0  0
  -25.8010  -11.1020   20.7660 C   0  0  0  0  0  0  0  0  0  0  0  0
  -27.8130  -12.0460   19.4460 C   0  0  0  0  0  3  0  0  0  0  0  0
  -26.8880  -13.2260   19.0700 C   0  0  0  0  0  2  0  0  0  0  0  0
  -25.8690  -13.5600   20.1630 C   0  0  0  0  0  2  0  0  0  0  0  0
  -24.9840  -12.3480   20.4660 C   0  0  0  0  0  2  0  0  0  0  0  0
  -27.1350  -10.9650   20.2960 C   0  0  0  0  0  0  0  0  0  0  0  0
  -27.8630   -9.8010   20.6270 C   0  0  0  0  0  3  0  0  0  0  0  0
  -27.2800   -8.7870   21.4100 C   0  0  0  0  0  3  0  0  0  0  0  0
  -25.9560   -8.9190   21.8580 C   0  0  0  0  0  3  0  0  0  0  0  0
  -25.2190  -10.0710   21.5330 C   0  0  0  0  0  3  0  0  0  0  0  0
  -34.3250  -13.6640   17.8360 C   0  0  0  0  0  3  0  0  0  0  0  0
  -35.3200  -12.5870   17.8510 N   0  0  0  0  0  0  0  0  0  0  0  0
  -36.2960  -12.4620   18.7610 C   0  0  0  0  0  0  0  0  0  0  0  0
  -36.4930  -13.2960   19.6490 O   0  0  0  0  0  0  0  0  0  0  0  0
  -35.1860  -11.8390   17.1860 H   0  0  0  0  0  0  0  0  0  0  0  0
  -36.8230  -10.2200   19.7780 C   0  0  0  0  0  1  0  0  0  0  0  0
  -37.1970  -11.2170   18.6690 C   0  0  0  0  0  3  0  0  0  0  0  0
  -39.1770  -12.1180   17.5280 C   0  0  0  0  0  1  0  0  0  0  0  0
  -38.6420  -11.5230   18.7510 N   0  0  0  0  0  0  0  0  0  0  0  0
  -39.1760  -10.6810   18.9490 H   0  0  0  0  0  0  0  0  0  0  0  0
  -33.9230  -14.0400   16.3580 C   0  0  1  0  0  0  0  0  0  0  0  0
  -34.0320  -12.8620   15.3610 C   0  0  0  0  0  1  0  0  0  0  0  0
  -32.4700  -14.5670   16.3070 C   0  0  0  0  0  1  0  0  0  0  0  0
  -34.8240  -15.1880   15.8460 C   0  0  0  0  0  1  0  0  0  0  0  0
  2  3  1  0
  2  1  1  0
  4  5  1  0
  4  3  1  0
  6  5  1  0
  7  6  1  0
  7 46  1  0
  7 16  1  0
  8 14  1  0
  9 10  1  0
 10 11  1  0
 12 13  1  0
 12 11  1  0
 12 21  1  0
 14 13  1  0
 14  9  1  0
 15  8  2  0
 16  8  1  0
 16 17  1  0
 18 21  1  0
 18 19  2  0
 19 20  1  0
 20 23  1  0
 21 22  1  0
 22 20  2  0
 23 28  2  0
 23 24  1  0
 24 25  2  0
 25 26  1  0
 26 29  1  0
 27 26  2  0
 28 27  1  0
 29 30  1  0
 30 31  2  0
 30 35  1  0
 31 32  1  0
 32 33  2  0
 33 37  1  0
 34 33  1  0
 35 34  2  0
 36 35  1  0
 38 19  1  0
 38 39  1  0
 39 41  1  0
 40 38  2  0
 42 39  1  0
 43 18  1  0
 44 43  1  0
 45 43  1  0
 46 48  2  0
 47 46  1  0
 49  1  1  0
 50 51  1  0
 50 49  1  0
 52 50  1  0
 53 54  1  0
 53 50  1  0
 54 55  1  0
 55 57  1  0
 56 66  1  0
 57 63  1  0
 58 68  1  0
 58 65  1  0
 59 64  1  0
 59 65  1  0
 60 61  1  0
 61 59  2  0
 62 57  2  0
 62 61  1  0
 63 64  2  0
 66 60  1  0
 66 58  1  0
 67 56  2  0
 68 69  1  0
 69 71  1  0
 70 68  2  0
 72 81  1  0
 73 69  1  0
 73 77  1  0
 74 73  1  0
 74 75  1  0
 75 76  1  0
 76 72  1  0
 77 78  1  0
 77 72  2  0
 78 79  2  0
 79 80  1  0
 81 80  2  0
 82 83  1  0
 82 56  1  0
 83 84  1  0
 84 85  2  0
 86 83  1  0
 88 90  1  0
 88 84  1  0
 88 87  1  0
 89 90  1  0
 90 91  1  0
 92 82  1  0
 92 93  1  6
 94 92  1  0
 95 92  1  0
M  ISO  4   8 100  16 100  54 101  55 101
M  END
>  <TORSDO>  (82) 
F 27

>  <SCORE>  (82) 
-7.969

>  <name>  (82) 
81

>  <ligand_id>  (82) 
81

>  <original_smiles>  (82) 
[H]c1c([H])c([H])c2c(c1[H])C([H])([H])C([H])([H])C([H])([H])C2([H])N([H])C(=O)C1([H])N(C(=O)C([H])(N([H])C(=O)C([H])(N([H])C([H])([H])[H])C([H])([H])[H])C(C([H])([H])[H])(C([H])([H])[H])C([H])([H])[H])C([H])([H])c2c([H])c(OC([H])([H])C([H])([H])[N+]([H])([H])C([H])([H])C([H])([H])C([H])([H])C([H])([H])C([H])([H])C([H])([H])C([H])([H])C([H])(C(=O)C([H])([H])[H])N([H])C(=O)N3C([H])([H])C([H])([H])C([H])([H])C([H])(n4nc(-c5c([H])c([H])c(Oc6c([H])c([H])c(F)c([H])c6F)c([H])c5[H])c(C(=O)N([H])[H])c4N([H])[H])C3([H])[H])c([H])c([H])c2C1([H])[H]

>  <smiles>  (82) 
[H]c1c([H])c([H])c2c(c1[H])C([H])([H])C([H])([H])C([H])([H])C2([H])N([H])C(=O)C1([H])N(C(=O)C([H])(N([H])C(=O)C([H])(N([H])C([H])([H])[H])C([H])([H])[H])C(C([H])([H])[H])(C([H])([H])[H])C([H])([H])[H])C([H])([H])c2c([H])c(OC([H])([H])C([H])([H])[N+]([H])([H])C([H])([H])C([H])([H])C([H])([H])C([H])([H])C([H])([H])C([H])([H])C([H])([H])C([H])(C(=O)C([H])([H])[H])N([H])C(=O)N3C([H])([H])C([H])([H])C([H])([H])C([H])(n4nc(-c5c([H])c([H])c(Oc6c([H])c([H])c(F)c([H])c6F)c([H])c5[H])c(C(=O)N([H])[H])c4N([H])[H])C3([H])[H])c([H])c([H])c2C1([H])[H]

$$$$
82:0:0
     RDKit          3D

 98106  0  0  1  0  0  0  0  0999 V2000
  -31.1810  -22.2080   22.3330 C   0  0  0  0  0  3  0  0  0  0  0  0
  -32.0060  -21.2060   21.7900 C   0  0  0  0  0  3  0  0  0  0  0  0
  -30.8200  -23.3260   21.5550 C   0  0  0  0  0  3  0  0  0  0  0  0
  -32.1260  -22.4410   19.6970 C   0  0  0  0  0  3  0  0  0  0  0  0
  -32.4510  -21.2940   20.4530 C   0  0  0  0  0  0  0  0  0  0  0  0
  -31.3230  -23.4630   20.2400 C   0  0  0  0  0  0  0  0  0  0  0  0
  -30.9910  -24.6600   19.3990 C   0  0  0  0  0  0  0  0  0  0  0  0
  -30.9780  -25.8250   20.0500 N   0  0  0  0  0  0  0  0  0  0  0  0
  -30.8060  -24.5510   18.1840 O   0  0  0  0  0  0  0  0  0  0  0  0
  -31.2120  -25.7970   21.0310 H   0  0  0  0  0  0  0  0  0  0  0  0
  -30.6260  -27.1220   19.4850 C   0  0  0  0  0  2  0  0  0  0  0  0
  -29.1660  -27.1690   19.0070 C   0  0  0  0  0  2  0  0  0  0  0  0
  -28.3200  -26.7710   20.0800 O   0  0  0  0  0  0  0  0  0  0  0  0
  -24.5560  -31.9070   23.2470 C   0  0  0  0  0  0  0  0  0  0  0  0
  -27.1570  -27.4840   20.1440 C   0  0  0  0  0  0  0  0  0  0  0  0
  -23.3290  -30.5050   21.6190 C   0  0  0  0  0  3  0  0  0  0  0  0
  -24.7630  -28.9560   20.1900 C   0  0  0  0  0  0  0  0  0  0  0  0
  -25.8490  -30.8650   21.3930 C   0  0  0  0  0  2  0  0  0  0  0  0
  -25.9250  -29.4910   20.7640 C   0  0  0  0  0  0  0  0  0  0  0  0
  -27.1280  -28.7590   20.7420 C   0  0  0  0  0  3  0  0  0  0  0  0
  -25.9830  -26.9410   19.5880 C   0  0  0  0  0  3  0  0  0  0  0  0
  -24.7830  -27.6780   19.6050 C   0  0  0  0  0  3  0  0  0  0  0  0
  -23.5240  -29.8220   20.2400 C   0  0  0  0  0  2  0  0  0  0  0  0
  -24.5990  -31.1030   22.1460 N   0  0  0  0  0  0  0  0  0  0  0  0
  -23.4810  -32.1850   23.7970 O   0  0  0  0  0  0  0  0  0  0  0  0
  -22.6840  -29.4870   22.5860 C   0  0  0  0  0  0  0  0  0  0  0  0
  -21.3600  -29.3030   22.4620 N   0  0  0  0  0  0  0  0  0  0  0  0
  -23.3700  -28.8670   23.4030 O   0  0  0  0  0  0  0  0  0  0  0  0
  -20.8680  -29.8560   21.7740 H   0  0  0  0  0  0  0  0  0  0  0  0
  -17.9910  -28.1010   22.9610 C   0  0  0  0  0  0  0  0  0  0  0  0
  -20.5460  -28.3710   23.2400 C   0  0  0  0  0  3  0  0  0  0  0  0
  -20.6570  -26.9340   22.6790 C   0  0  0  0  0  2  0  0  0  0  0  0
  -19.5580  -26.5960   21.6650 C   0  0  0  0  0  2  0  0  0  0  0  0
  -18.1740  -26.7440   22.3020 C   0  0  0  0  0  2  0  0  0  0  0  0
  -19.1060  -28.8710   23.3870 C   0  0  0  0  0  0  0  0  0  0  0  0
  -18.8800  -30.1410   23.9620 C   0  0  0  0  0  3  0  0  0  0  0  0
  -17.5730  -30.6420   24.1140 C   0  0  0  0  0  3  0  0  0  0  0  0
  -16.4740  -29.8690   23.7030 C   0  0  0  0  0  3  0  0  0  0  0  0
  -16.6830  -28.6000   23.1340 C   0  0  0  0  0  3  0  0  0  0  0  0
  -25.8500  -32.5320   23.8540 C   0  0  0  0  0  3  0  0  0  0  0  0
  -26.3780  -31.7590   25.1240 C   0  0  1  0  0  0  0  0  0  0  0  0
  -25.2960  -31.5250   26.2020 C   0  0  0  0  0  1  0  0  0  0  0  0
  -26.9520  -30.3800   24.7210 C   0  0  0  0  0  1  0  0  0  0  0  0
  -27.5410  -32.5480   25.7730 C   0  0  0  0  0  1  0  0  0  0  0  0
  -25.5540  -33.9320   24.1800 N   0  0  0  0  0  0  0  0  0  0  0  0
  -25.8960  -34.9790   23.4180 C   0  0  0  0  0  0  0  0  0  0  0  0
  -26.5700  -34.8690   22.3880 O   0  0  0  0  0  0  0  0  0  0  0  0
  -24.9580  -34.0950   24.9780 H   0  0  0  0  0  0  0  0  0  0  0  0
  -24.1890  -36.7850   23.0400 C   0  0  0  0  0  1  0  0  0  0  0  0
  -25.4170  -36.3710   23.8680 C   0  0  0  0  0  3  0  0  0  0  0  0
  -27.5530  -37.2280   24.7200 C   0  0  0  0  0  1  0  0  0  0  0  0
  -26.4600  -37.4160   23.7700 N   0  0  0  0  0  0  0  0  0  0  0  0
  -26.0610  -38.3380   23.9260 H   0  0  0  0  0  0  0  0  0  0  0  0
  -33.2780  -20.2050   19.8730 C   0  0  0  0  0  0  0  0  0  0  0  0
  -34.0640  -19.5160   20.5320 O   0  0  0  0  0  0  0  0  0  0  0  0
  -33.0640  -19.8960   18.3880 C   0  0  0  0  0  2  0  0  0  0  0  0
  -32.4920  -18.4920   18.1280 C   0  0  0  0  0  2  0  0  0  0  0  0
  -31.0450  -18.2570   18.6250 C   0  0  0  0  0  2  0  0  0  0  0  0
  -30.9450  -17.6740   20.0570 C   0  0  0  0  0  2  0  0  0  0  0  0
  -29.6920  -16.7830   20.2630 C   0  0  0  0  0  2  0  0  0  0  0  0
  -30.6200  -14.4780   20.4190 C   0  0  0  0  0  0  0  0  0  0  0  0
  -30.3090  -12.3510   19.2340 C   0  0  0  0  0  2  0  0  0  0  0  0
  -29.3470  -12.5940   18.0500 C   0  0  0  0  0  2  0  0  0  0  0  0
  -27.8780  -12.4770   18.4950 C   0  0  0  0  0  2  0  0  0  0  0  0
  -27.5680  -13.2780   19.7860 C   0  0  0  0  0  3  0  0  0  0  0  0
  -28.6310  -12.9960   20.8740 C   0  0  0  0  0  2  0  0  0  0  0  0
  -29.9600  -13.2960   20.3100 N   0  0  0  0  0  0  0  0  0  0  0  0
  -31.7210  -14.6810   19.9010 O   0  0  0  0  0  0  0  0  0  0  0  0
  -29.8880  -15.4830   20.9280 N   0  0  0  0  0  0  0  0  0  0  0  0
  -29.0980  -15.1730   21.4710 H   0  0  0  0  0  0  0  0  0  0  0  0
  -25.1630  -13.8870   20.4690 C   0  0  0  0  0  0  0  0  0  0  0  0
  -24.0920  -13.1170   20.8360 C   0  0  0  0  0  0  0  0  0  0  0  0
  -24.5510  -11.7650   20.8210 C   0  0  0  0  0  0  0  0  0  0  0  0
  -26.2110  -13.0050   20.2610 N   0  0  0  0  0  0  0  0  0  0  0  0
  -25.8440  -11.7230   20.5250 N   0  0  0  0  0  0  0  0  0  0  0  0
  -23.8220  -10.5060   21.0180 C   0  0  0  0  0  0  0  0  0  0  0  0
  -24.2540   -9.5430   21.9580 C   0  0  0  0  0  3  0  0  0  0  0  0
  -23.5270   -8.3480   22.1420 C   0  0  0  0  0  3  0  0  0  0  0  0
  -22.3570   -8.1070   21.3850 C   0  0  0  0  0  0  0  0  0  0  0  0
  -21.9460   -9.0550   20.4340 C   0  0  0  0  0  3  0  0  0  0  0  0
  -22.6710  -10.2430   20.2460 C   0  0  0  0  0  3  0  0  0  0  0  0
  -21.6020   -6.9640   21.4780 O   0  0  0  0  0  0  0  0  0  0  0  0
  -21.5590   -6.2210   22.6300 C   0  0  0  0  0  0  0  0  0  0  0  0
  -21.1400   -6.7790   23.8570 C   0  0  0  0  0  3  0  0  0  0  0  0
  -21.0390   -5.9650   25.0030 C   0  0  0  0  0  3  0  0  0  0  0  0
  -21.3500   -4.5920   24.9210 C   0  0  0  0  0  0  0  0  0  0  0  0
  -21.7610   -4.0360   23.6990 C   0  0  0  0  0  3  0  0  0  0  0  0
  -21.8630   -4.8480   22.5560 C   0  0  0  0  0  0  0  0  0  0  0  0
  -22.2380   -4.3000   21.3750 F   0  0  0  0  0  0  0  0  0  0  0  0
  -21.2460   -3.8060   26.0190 F   0  0  0  0  0  0  0  0  0  0  0  0
  -22.6940  -13.5970   21.0990 C   0  0  0  0  0  0  0  0  0  0  0  0
  -21.9640  -12.9040   21.9670 N   0  0  0  0  0  0  0  0  0  0  0  0
  -22.2580  -14.6190   20.5740 O   0  0  0  0  0  0  0  0  0  0  0  0
  -22.3270  -12.0740   22.4120 H   0  0  0  0  0  0  0  0  0  0  0  0
  -21.0270  -13.2090   22.1840 H   0  0  0  0  0  0  0  0  0  0  0  0
  -25.3310  -15.2570   20.2820 N   0  0  0  0  0  0  0  0  0  0  0  0
  -24.5560  -15.9040   20.3710 H   0  0  0  0  0  0  0  0  0  0  0  0
  -26.1850  -15.7080   19.9760 H   0  0  0  0  0  0  0  0  0  0  0  0
  2  1  1  0
  3  1  2  0
  4  6  2  0
  4  5  1  0
  5  2  2  0
  6  3  1  0
  7  8  1  0
  7  6  1  0
  8 10  1  0
  9  7  2  0
 11  8  1  0
 12 11  1  0
 12 13  1  0
 13 15  1  0
 14 25  2  0
 15 20  1  0
 16 24  1  0
 16 26  1  0
 17 23  1  0
 17 19  1  0
 18 24  1  0
 19 18  1  0
 20 19  2  0
 21 22  1  0
 21 15  2  0
 22 17  2  0
 23 16  1  0
 24 14  1  0
 26 28  2  0
 27 26  1  0
 29 27  1  0
 30 39  2  0
 30 35  1  0
 31 27  1  0
 31 35  1  0
 32 31  1  0
 33 34  1  0
 33 32  1  0
 34 30  1  0
 35 36  2  0
 36 37  1  0
 38 37  2  0
 39 38  1  0
 40 14  1  0
 40 45  1  0
 40 41  1  0
 41 44  1  1
 41 42  1  0
 43 41  1  0
 45 48  1  0
 46 50  1  0
 46 45  1  0
 47 46  2  0
 50 49  1  0
 52 50  1  0
 52 53  1  0
 52 51  1  0
 54  5  1  0
 54 55  2  0
 56 54  1  0
 57 56  1  0
 57 58  1  0
 58 59  1  0
 59 60  1  0
 60 69  1  0
 61 69  1  0
 62 67  1  0
 63 64  1  0
 63 62  1  0
 65 64  1  0
 65 74  1  0
 65 66  1  0
 67 61  1  0
 67 66  1  0
 68 61  2  0
 69 70  1  0
 71 72  2  0
 72 91  1  0
 73 72  1  0
 73 76  1  0
 74 71  1  0
 74 75  1  0
 75 73  2  0
 76 77  1  0
 77 78  2  0
 79 82  1  0
 79 78  1  0
 80 79  2  0
 81 80  1  0
 81 76  2  0
 82 83  1  0
 83 84  1  0
 84 85  2  0
 86 85  1  0
 86 90  1  0
 87 86  2  0
 88 83  2  0
 88 87  1  0
 89 88  1  0
 91 92  1  0
 92 95  1  0
 92 94  1  0
 93 91  2  0
 96 97  1  0
 96 71  1  0
 98 96  1  0
M  ISO  4  12 101  13 101  61 100  69 100
M  END
>  <TORSDO>  (83) 
F 25

>  <SCORE>  (83) 
-12.183

>  <name>  (83) 
82

>  <ligand_id>  (83) 
82

>  <original_smiles>  (83) 
[H]c1c([H])c(C(=O)N([H])C([H])([H])C([H])([H])Oc2c([H])c([H])c3c(c2[H])C([H])([H])N(C(=O)C([H])(N([H])C(=O)C([H])(N([H])C([H])([H])[H])C([H])([H])[H])C(C([H])([H])[H])(C([H])([H])[H])C([H])([H])[H])C([H])(C(=O)N([H])C2([H])c4c([H])c([H])c([H])c([H])c4C([H])([H])C([H])([H])C2([H])[H])C3([H])[H])c([H])c(C(=O)C([H])([H])C([H])([H])C([H])([H])C([H])([H])C([H])([H])N([H])C(=O)N2C([H])([H])C([H])([H])C([H])([H])C([H])(n3nc(-c4c([H])c([H])c(Oc5c([H])c([H])c(F)c([H])c5F)c([H])c4[H])c(C(=O)N([H])[H])c3N([H])[H])C2([H])[H])c1[H]

>  <smiles>  (83) 
[H]c1c([H])c(C(=O)N([H])C([H])([H])C([H])([H])Oc2c([H])c([H])c3c(c2[H])C([H])([H])N(C(=O)C([H])(N([H])C(=O)C([H])(N([H])C([H])([H])[H])C([H])([H])[H])C(C([H])([H])[H])(C([H])([H])[H])C([H])([H])[H])C([H])(C(=O)N([H])C2([H])c4c([H])c([H])c([H])c([H])c4C([H])([H])C([H])([H])C2([H])[H])C3([H])[H])c([H])c(C(=O)C([H])([H])C([H])([H])C([H])([H])C([H])([H])C([H])([H])N([H])C(=O)N2C([H])([H])C([H])([H])C([H])([H])C([H])(n3nc(-c4c([H])c([H])c(Oc5c([H])c([H])c(F)c([H])c5F)c([H])c4[H])c(C(=O)N([H])[H])c3N([H])[H])C2([H])[H])c1[H]

$$$$
83:0:0
     RDKit          3D

 93101  0  0  1  0  0  0  0  0999 V2000
  -29.2140  -22.0720   16.8760 C   0  0  0  0  0  3  0  0  0  0  0  0
  -29.9350  -21.0110   17.4590 C   0  0  0  0  0  3  0  0  0  0  0  0
  -28.6010  -23.0440   17.6920 C   0  0  0  0  0  3  0  0  0  0  0  0
  -29.4310  -21.8980   19.6760 C   0  0  0  0  0  3  0  0  0  0  0  0
  -30.0470  -20.9290   18.8610 C   0  0  0  0  0  0  0  0  0  0  0  0
  -28.7110  -22.9610   19.0970 C   0  0  0  0  0  0  0  0  0  0  0  0
  -28.1240  -23.9370   19.9070 N   0  0  0  0  0  0  0  0  0  0  0  0
  -27.5280  -24.5990   19.4200 H   0  0  0  0  0  0  0  0  0  0  0  0
  -29.0670  -24.5850   20.8180 C   0  0  0  0  0  2  0  0  0  0  0  0
  -28.5460  -25.9360   21.3150 C   0  0  0  0  0  2  0  0  0  0  0  0
  -28.3880  -26.7740   20.1750 O   0  0  0  0  0  0  0  0  0  0  0  0
  -24.5420  -31.8760   23.2330 C   0  0  0  0  0  0  0  0  0  0  0  0
  -27.2220  -27.4840   20.1910 C   0  0  0  0  0  0  0  0  0  0  0  0
  -23.3410  -30.4680   21.5840 C   0  0  0  0  0  3  0  0  0  0  0  0
  -24.8100  -28.9270   20.1840 C   0  0  0  0  0  0  0  0  0  0  0  0
  -25.8470  -30.8680   21.3620 C   0  0  0  0  0  2  0  0  0  0  0  0
  -25.9560  -29.4820   20.7680 C   0  0  0  0  0  0  0  0  0  0  0  0
  -27.1680  -28.7630   20.7790 C   0  0  0  0  0  3  0  0  0  0  0  0
  -26.0680  -26.9280   19.6070 C   0  0  0  0  0  3  0  0  0  0  0  0
  -24.8570  -27.6430   19.6090 C   0  0  0  0  0  3  0  0  0  0  0  0
  -23.5550  -29.7700   20.2130 C   0  0  0  0  0  2  0  0  0  0  0  0
  -24.5970  -31.0830   22.1250 N   0  0  0  0  0  0  0  0  0  0  0  0
  -23.4610  -32.1440   23.7730 O   0  0  0  0  0  0  0  0  0  0  0  0
  -22.6870  -29.4530   22.5480 C   0  0  0  0  0  0  0  0  0  0  0  0
  -21.3640  -29.2730   22.4140 N   0  0  0  0  0  0  0  0  0  0  0  0
  -23.3650  -28.8270   23.3670 O   0  0  0  0  0  0  0  0  0  0  0  0
  -20.8740  -29.8340   21.7310 H   0  0  0  0  0  0  0  0  0  0  0  0
  -17.9850  -28.0990   22.8990 C   0  0  0  0  0  0  0  0  0  0  0  0
  -20.5430  -28.3340   23.1760 C   0  0  0  0  0  3  0  0  0  0  0  0
  -20.6380  -26.9070   22.5870 C   0  0  0  0  0  2  0  0  0  0  0  0
  -19.5360  -26.6020   21.5660 C   0  0  0  0  0  2  0  0  0  0  0  0
  -18.1530  -26.7510   22.2110 C   0  0  0  0  0  2  0  0  0  0  0  0
  -19.1100  -28.8460   23.3360 C   0  0  0  0  0  0  0  0  0  0  0  0
  -18.9090  -30.1050   23.9390 C   0  0  0  0  0  3  0  0  0  0  0  0
  -17.6110  -30.6240   24.1040 C   0  0  0  0  0  3  0  0  0  0  0  0
  -16.4990  -29.8750   23.6850 C   0  0  0  0  0  3  0  0  0  0  0  0
  -16.6850  -28.6140   23.0900 C   0  0  0  0  0  3  0  0  0  0  0  0
  -25.8270  -32.5040   23.8600 C   0  0  0  0  0  3  0  0  0  0  0  0
  -25.5230  -33.9030   24.1830 N   0  0  0  0  0  0  0  0  0  0  0  0
  -25.8660  -34.9510   23.4220 C   0  0  0  0  0  0  0  0  0  0  0  0
  -26.5460  -34.8410   22.3980 O   0  0  0  0  0  0  0  0  0  0  0  0
  -24.9180  -34.0640   24.9740 H   0  0  0  0  0  0  0  0  0  0  0  0
  -24.1520  -36.7520   23.0300 C   0  0  0  0  0  1  0  0  0  0  0  0
  -25.3740  -36.3420   23.8660 C   0  0  0  0  0  3  0  0  0  0  0  0
  -27.4940  -37.2230   24.7350 C   0  0  0  0  0  1  0  0  0  0  0  0
  -26.4120  -37.3910   23.7710 N   0  0  0  0  0  0  0  0  0  0  0  0
  -26.0020  -38.3130   23.9110 H   0  0  0  0  0  0  0  0  0  0  0  0
  -26.3400  -31.7270   25.1340 C   0  0  1  0  0  0  0  0  0  0  0  0
  -25.2390  -31.4680   26.1890 C   0  0  0  0  0  1  0  0  0  0  0  0
  -26.9380  -30.3620   24.7140 C   0  0  0  0  0  1  0  0  0  0  0  0
  -27.4740  -32.5230   25.8220 C   0  0  0  0  0  1  0  0  0  0  0  0
  -30.8050  -19.7840   19.4970 C   0  0  0  0  0  2  0  0  0  0  0  0
  -29.8500  -18.7420   20.0820 C   0  0  0  0  0  2  0  0  0  0  0  0
  -30.5730  -17.4400   20.4410 C   0  0  0  0  0  2  0  0  0  0  0  0
  -29.6200  -16.4600   21.1410 C   0  0  0  0  0  2  0  0  0  0  0  0
  -30.7240  -14.3410   20.5000 C   0  0  0  0  0  0  0  0  0  0  0  0
  -30.3610  -12.3190   19.1460 C   0  0  0  0  0  2  0  0  0  0  0  0
  -29.4020  -12.6610   17.9880 C   0  0  0  0  0  2  0  0  0  0  0  0
  -27.9290  -12.5420   18.4270 C   0  0  0  0  0  2  0  0  0  0  0  0
  -27.6440  -13.2670   19.7670 C   0  0  0  0  0  3  0  0  0  0  0  0
  -28.7010  -12.8870   20.8280 C   0  0  0  0  0  2  0  0  0  0  0  0
  -30.0410  -13.1890   20.2850 N   0  0  0  0  0  0  0  0  0  0  0  0
  -31.7390  -14.6670   19.8760 O   0  0  0  0  0  0  0  0  0  0  0  0
  -30.1590  -15.1310   21.4210 N   0  0  0  0  0  0  0  0  0  0  0  0
  -29.5820  -14.6090   22.0640 H   0  0  0  0  0  0  0  0  0  0  0  0
  -25.2420  -13.8860   20.4700 C   0  0  0  0  0  0  0  0  0  0  0  0
  -24.1740  -13.1130   20.8440 C   0  0  0  0  0  0  0  0  0  0  0  0
  -24.6330  -11.7620   20.8070 C   0  0  0  0  0  0  0  0  0  0  0  0
  -26.2860  -13.0030   20.2400 N   0  0  0  0  0  0  0  0  0  0  0  0
  -25.9200  -11.7200   20.4930 N   0  0  0  0  0  0  0  0  0  0  0  0
  -23.9080  -10.5000   21.0020 C   0  0  0  0  0  0  0  0  0  0  0  0
  -24.3360   -9.5440   21.9490 C   0  0  0  0  0  3  0  0  0  0  0  0
  -23.6140   -8.3450   22.1300 C   0  0  0  0  0  3  0  0  0  0  0  0
  -22.4510   -8.0950   21.3630 C   0  0  0  0  0  0  0  0  0  0  0  0
  -22.0440   -9.0400   20.4050 C   0  0  0  0  0  3  0  0  0  0  0  0
  -22.7670  -10.2310   20.2230 C   0  0  0  0  0  3  0  0  0  0  0  0
  -21.7010   -6.9460   21.4500 O   0  0  0  0  0  0  0  0  0  0  0  0
  -21.6280   -6.2220   22.6120 C   0  0  0  0  0  0  0  0  0  0  0  0
  -21.1390   -6.7820   23.8110 C   0  0  0  0  0  3  0  0  0  0  0  0
  -21.0150   -5.9820   24.9640 C   0  0  0  0  0  3  0  0  0  0  0  0
  -21.3700   -4.6210   24.9180 C   0  0  0  0  0  0  0  0  0  0  0  0
  -21.8540   -4.0590   23.7230 C   0  0  0  0  0  3  0  0  0  0  0  0
  -21.9790   -4.8570   22.5710 C   0  0  0  0  0  0  0  0  0  0  0  0
  -22.4240   -4.3050   21.4170 F   0  0  0  0  0  0  0  0  0  0  0  0
  -21.2460   -3.8490   26.0240 F   0  0  0  0  0  0  0  0  0  0  0  0
  -22.7810  -13.5920   21.1280 C   0  0  0  0  0  0  0  0  0  0  0  0
  -22.0550  -12.8880   21.9920 N   0  0  0  0  0  0  0  0  0  0  0  0
  -22.3400  -14.6210   20.6180 O   0  0  0  0  0  0  0  0  0  0  0  0
  -22.4230  -12.0510   22.4200 H   0  0  0  0  0  0  0  0  0  0  0  0
  -21.1190  -13.1880   22.2250 H   0  0  0  0  0  0  0  0  0  0  0  0
  -25.4020  -15.2580   20.3000 N   0  0  0  0  0  0  0  0  0  0  0  0
  -24.6280  -15.9010   20.4190 H   0  0  0  0  0  0  0  0  0  0  0  0
  -26.2510  -15.7110   19.9870 H   0  0  0  0  0  0  0  0  0  0  0  0
  1  2  2  0
  1  3  1  0
  2  5  1  0
  3  6  2  0
  5 52  1  0
  5  4  2  0
  6  4  1  0
  6  7  1  0
  7  9  1  0
  8  7  1  0
  9 10  1  0
 11 13  1  0
 11 10  1  0
 12 23  2  0
 13 18  1  0
 14 22  1  0
 14 24  1  0
 15 21  1  0
 15 17  1  0
 16 22  1  0
 17 18  2  0
 17 16  1  0
 19 20  1  0
 19 13  2  0
 20 15  2  0
 21 14  1  0
 22 12  1  0
 24 26  2  0
 25 24  1  0
 27 25  1  0
 28 37  2  0
 28 33  1  0
 29 25  1  0
 29 33  1  0
 30 29  1  0
 31 32  1  0
 31 30  1  0
 32 28  1  0
 33 34  2  0
 34 35  1  0
 36 35  2  0
 37 36  1  0
 38 12  1  0
 38 39  1  0
 38 48  1  0
 39 42  1  0
 40 44  1  0
 40 39  1  0
 41 40  2  0
 44 43  1  0
 46 44  1  0
 46 47  1  0
 46 45  1  0
 48 51  1  1
 48 49  1  0
 50 48  1  0
 52 53  1  0
 53 54  1  0
 54 55  1  0
 55 64  1  0
 56 64  1  0
 57 62  1  0
 58 59  1  0
 58 57  1  0
 60 59  1  0
 60 69  1  0
 60 61  1  0
 62 56  1  0
 62 61  1  0
 63 56  2  0
 64 65  1  0
 66 67  2  0
 67 86  1  0
 68 67  1  0
 68 71  1  0
 69 66  1  0
 69 70  1  0
 70 68  2  0
 71 72  1  0
 72 73  2  0
 74 77  1  0
 74 73  1  0
 75 74  2  0
 76 75  1  0
 76 71  2  0
 77 78  1  0
 78 79  1  0
 79 80  2  0
 81 80  1  0
 81 85  1  0
 82 81  2  0
 83 78  2  0
 83 82  1  0
 84 83  1  0
 86 87  1  0
 87 90  1  0
 87 89  1  0
 88 86  2  0
 91 92  1  0
 91 66  1  0
 93 91  1  0
M  ISO  4  10 101  11 101  56 100  64 100
M  END
>  <TORSDO>  (84) 
F 23

>  <SCORE>  (84) 
-12.814

>  <name>  (84) 
83

>  <ligand_id>  (84) 
83

>  <original_smiles>  (84) 
[H]c1c([H])c(N([H])C([H])([H])C([H])([H])Oc2c([H])c([H])c3c(c2[H])C([H])([H])N(C(=O)C([H])(N([H])C(=O)C([H])(N([H])C([H])([H])[H])C([H])([H])[H])C(C([H])([H])[H])(C([H])([H])[H])C([H])([H])[H])C([H])(C(=O)N([H])C2([H])c4c([H])c([H])c([H])c([H])c4C([H])([H])C([H])([H])C2([H])[H])C3([H])[H])c([H])c(C([H])([H])C([H])([H])C([H])([H])C([H])([H])N([H])C(=O)N2C([H])([H])C([H])([H])C([H])([H])C([H])(n3nc(-c4c([H])c([H])c(Oc5c([H])c([H])c(F)c([H])c5F)c([H])c4[H])c(C(=O)N([H])[H])c3N([H])[H])C2([H])[H])c1[H]

>  <smiles>  (84) 
[H]c1c([H])c(N([H])C([H])([H])C([H])([H])Oc2c([H])c([H])c3c(c2[H])C([H])([H])N(C(=O)C([H])(N([H])C(=O)C([H])(N([H])C([H])([H])[H])C([H])([H])[H])C(C([H])([H])[H])(C([H])([H])[H])C([H])([H])[H])C([H])(C(=O)N([H])C2([H])c4c([H])c([H])c([H])c([H])c4C([H])([H])C([H])([H])C2([H])[H])C3([H])[H])c([H])c(C([H])([H])C([H])([H])C([H])([H])C([H])([H])N([H])C(=O)N2C([H])([H])C([H])([H])C([H])([H])C([H])(n3nc(-c4c([H])c([H])c(Oc5c([H])c([H])c(F)c([H])c5F)c([H])c4[H])c(C(=O)N([H])[H])c3N([H])[H])C2([H])[H])c1[H]

$$$$
84:0:0
     RDKit          3D

101109  0  0  1  0  0  0  0  0999 V2000
  -27.0200  -21.7580   20.9770 C   0  0  0  0  0  0  0  0  0  0  0  0
  -25.8110  -21.8890   20.0590 C   0  0  0  0  0  0  0  0  0  0  0  0
  -26.8540  -24.0930   20.3180 C   0  0  0  0  0  2  0  0  0  0  0  0
  -27.7730  -23.0800   21.0580 C   0  0  0  0  0  3  0  0  0  0  0  0
  -25.7320  -23.3280   19.5540 C   0  0  0  0  0  3  0  0  0  0  0  0
  -27.3410  -20.7210   21.5700 O   0  0  0  0  0  0  0  0  0  0  0  0
  -25.0700  -20.9460   19.7550 O   0  0  0  0  0  0  0  0  0  0  0  0
  -25.9310  -23.2880   18.0840 N   0  0  0  0  0  4  0  0  0  0  0  0
  -25.0370  -23.1330   17.6400 H   0  0  0  0  0  0  0  0  0  0  0  0
  -26.5130  -22.4720   17.8930 H   0  0  0  0  0  0  0  0  0  0  0  0
  -26.6160  -24.4700   17.5000 C   0  0  0  0  0  2  0  0  0  0  0  0
  -25.7910  -25.2020   16.4170 C   0  0  0  0  0  2  0  0  0  0  0  0
  -26.0930  -26.6010   16.4110 O   0  0  0  0  0  0  0  0  0  0  0  0
  -26.0020  -29.4020   22.9370 C   0  0  0  0  0  0  0  0  0  0  0  0
  -25.4240  -27.4350   17.2830 C   0  0  0  0  0  0  0  0  0  0  0  0
  -23.9720  -29.7940   21.5820 C   0  0  0  0  0  3  0  0  0  0  0  0
  -24.1560  -29.1760   19.1190 C   0  0  0  0  0  0  0  0  0  0  0  0
  -26.2490  -29.4520   20.4590 C   0  0  0  0  0  2  0  0  0  0  0  0
  -25.5090  -28.8520   19.2810 C   0  0  0  0  0  0  0  0  0  0  0  0
  -26.1460  -27.9890   18.3640 C   0  0  0  0  0  3  0  0  0  0  0  0
  -24.0520  -27.7680   17.1430 C   0  0  0  0  0  3  0  0  0  0  0  0
  -23.4210  -28.6310   18.0560 C   0  0  0  0  0  3  0  0  0  0  0  0
  -23.5490  -30.1210   20.1270 C   0  0  0  0  0  2  0  0  0  0  0  0
  -25.4410  -29.5170   21.7010 N   0  0  0  0  0  0  0  0  0  0  0  0
  -25.3280  -29.5630   23.9650 O   0  0  0  0  0  0  0  0  0  0  0  0
  -23.0870  -28.6370   22.1010 C   0  0  0  0  0  0  0  0  0  0  0  0
  -21.7680  -28.8760   22.1550 N   0  0  0  0  0  0  0  0  0  0  0  0
  -23.5830  -27.5510   22.4140 O   0  0  0  0  0  0  0  0  0  0  0  0
  -21.4380  -29.7930   21.8860 H   0  0  0  0  0  0  0  0  0  0  0  0
  -18.2050  -28.3000   22.2570 C   0  0  0  0  0  0  0  0  0  0  0  0
  -20.7390  -27.9230   22.5750 C   0  0  0  0  0  3  0  0  0  0  0  0
  -20.5980  -26.7740   21.5480 C   0  0  0  0  0  2  0  0  0  0  0  0
  -19.5170  -27.0390   20.4980 C   0  0  0  0  0  2  0  0  0  0  0  0
  -18.1530  -27.2450   21.1660 C   0  0  0  0  0  2  0  0  0  0  0  0
  -19.4220  -28.6310   22.9060 C   0  0  0  0  0  0  0  0  0  0  0  0
  -19.4220  -29.6480   23.8860 C   0  0  0  0  0  3  0  0  0  0  0  0
  -18.2340  -30.3220   24.2250 C   0  0  0  0  0  3  0  0  0  0  0  0
  -17.0300  -29.9770   23.5900 C   0  0  0  0  0  3  0  0  0  0  0  0
  -17.0150  -28.9690   22.6120 C   0  0  0  0  0  3  0  0  0  0  0  0
  -27.5190  -29.0880   23.1180 C   0  0  0  0  0  3  0  0  0  0  0  0
  -27.8190  -27.5480   23.2940 C   0  0  1  0  0  0  0  0  0  0  0  0
  -26.9650  -26.8750   24.3910 C   0  0  0  0  0  1  0  0  0  0  0  0
  -27.5740  -26.7850   21.9690 C   0  0  0  0  0  1  0  0  0  0  0  0
  -29.3090  -27.3410   23.6530 C   0  0  0  0  0  1  0  0  0  0  0  0
  -27.9900  -29.8480   24.2840 N   0  0  0  0  0  0  0  0  0  0  0  0
  -28.7710  -30.9350   24.2160 C   0  0  0  0  0  0  0  0  0  0  0  0
  -29.2310  -31.3650   23.1550 O   0  0  0  0  0  0  0  0  0  0  0  0
  -27.6050  -29.5910   25.1810 H   0  0  0  0  0  0  0  0  0  0  0  0
  -28.2590  -32.9510   25.6290 C   0  0  0  0  0  1  0  0  0  0  0  0
  -29.0910  -31.6620   25.5350 C   0  0  0  0  0  3  0  0  0  0  0  0
  -31.3630  -30.8040   25.8970 C   0  0  0  0  0  1  0  0  0  0  0  0
  -30.5280  -31.9830   25.6930 N   0  0  0  0  0  0  0  0  0  0  0  0
  -30.6700  -32.6130   26.4800 H   0  0  0  0  0  0  0  0  0  0  0  0
  -29.2620  -22.9920   20.5930 C   0  0  0  0  0  2  0  0  0  0  0  0
  -29.5050  -22.5300   19.1520 C   0  0  0  0  0  0  0  0  0  0  0  0
  -30.7660  -22.2540   18.8040 N   0  0  0  0  0  0  0  0  0  0  0  0
  -28.5560  -22.3670   18.3810 O   0  0  0  0  0  0  0  0  0  0  0  0
  -31.4840  -22.3890   19.5040 H   0  0  0  0  0  0  0  0  0  0  0  0
  -31.1840  -21.6770   17.5250 C   0  0  0  0  0  2  0  0  0  0  0  0
  -31.7710  -20.2580   17.6880 C   0  0  0  0  0  2  0  0  0  0  0  0
  -30.7240  -19.1330   17.8730 C   0  0  0  0  0  2  0  0  0  0  0  0
  -30.9720  -18.2320   19.0950 C   0  0  0  0  0  2  0  0  0  0  0  0
  -32.1390  -17.2400   18.9550 C   0  0  0  0  0  2  0  0  0  0  0  0
  -32.6740  -15.0270   20.0260 C   0  0  0  0  0  0  0  0  0  0  0  0
  -32.6910  -12.7060   20.8880 C   0  0  0  0  0  2  0  0  0  0  0  0
  -31.9910  -11.7450   19.9060 C   0  0  0  0  0  2  0  0  0  0  0  0
  -30.4670  -11.7240   20.1430 C   0  0  0  0  0  2  0  0  0  0  0  0
  -29.8600  -13.1520   20.2230 C   0  0  0  0  0  3  0  0  0  0  0  0
  -30.6740  -14.0290   21.2000 C   0  0  0  0  0  2  0  0  0  0  0  0
  -32.0830  -14.0370   20.7520 N   0  0  0  0  0  0  0  0  0  0  0  0
  -33.8050  -14.9390   19.5380 O   0  0  0  0  0  0  0  0  0  0  0  0
  -31.8990  -16.1030   19.8420 N   0  0  0  0  0  0  0  0  0  0  0  0
  -31.0020  -16.0710   20.3010 H   0  0  0  0  0  0  0  0  0  0  0  0
  -27.5530  -14.1540   20.7800 C   0  0  0  0  0  0  0  0  0  0  0  0
  -26.3400  -13.5680   21.0300 C   0  0  0  0  0  0  0  0  0  0  0  0
  -26.5590  -12.1590   20.9530 C   0  0  0  0  0  0  0  0  0  0  0  0
  -28.4440  -13.1100   20.5800 N   0  0  0  0  0  0  0  0  0  0  0  0
  -27.8430  -11.9030   20.7380 N   0  0  0  0  0  0  0  0  0  0  0  0
  -25.6140  -11.0380   21.0190 C   0  0  0  0  0  0  0  0  0  0  0  0
  -25.7340  -10.0280   21.9980 C   0  0  0  0  0  3  0  0  0  0  0  0
  -24.8010   -8.9700   22.0540 C   0  0  0  0  0  3  0  0  0  0  0  0
  -23.7320   -8.9150   21.1290 C   0  0  0  0  0  0  0  0  0  0  0  0
  -23.6320   -9.9120   20.1420 C   0  0  0  0  0  3  0  0  0  0  0  0
  -24.5630  -10.9620   20.0850 C   0  0  0  0  0  3  0  0  0  0  0  0
  -22.7960   -7.9100   21.0900 O   0  0  0  0  0  0  0  0  0  0  0  0
  -22.3430   -7.3030   22.2330 C   0  0  0  0  0  0  0  0  0  0  0  0
  -21.7290   -8.0350   23.2740 C   0  0  0  0  0  3  0  0  0  0  0  0
  -21.2150   -7.3640   24.4020 C   0  0  0  0  0  3  0  0  0  0  0  0
  -21.3020   -5.9620   24.4860 C   0  0  0  0  0  0  0  0  0  0  0  0
  -21.9060   -5.2300   23.4500 C   0  0  0  0  0  3  0  0  0  0  0  0
  -22.4200   -5.8980   22.3250 C   0  0  0  0  0  0  0  0  0  0  0  0
  -22.9810   -5.1850   21.3200 F   0  0  0  0  0  0  0  0  0  0  0  0
  -20.8020   -5.3160   25.5660 F   0  0  0  0  0  0  0  0  0  0  0  0
  -25.0270  -14.2710   21.2350 C   0  0  0  0  0  0  0  0  0  0  0  0
  -24.1280  -13.6840   22.0150 N   0  0  0  0  0  0  0  0  0  0  0  0
  -24.8100  -15.3720   20.7330 O   0  0  0  0  0  0  0  0  0  0  0  0
  -24.3120  -12.7870   22.4430 H   0  0  0  0  0  0  0  0  0  0  0  0
  -23.2450  -14.1390   22.1930 H   0  0  0  0  0  0  0  0  0  0  0  0
  -27.9680  -15.4800   20.6900 N   0  0  0  0  0  0  0  0  0  0  0  0
  -27.3230  -16.2590   20.7890 H   0  0  0  0  0  0  0  0  0  0  0  0
  -28.9130  -15.7720   20.4740 H   0  0  0  0  0  0  0  0  0  0  0  0
  1  4  1  0
  1  6  2  0
  2  1  1  0
  3  4  1  0
  4 54  1  0
  5  8  1  0
  5  2  1  0
  5  3  1  0
  7  2  2  0
  9  8  1  0
 10  8  1  0
 11  8  1  0
 12 11  1  0
 13 12  1  0
 13 15  1  0
 14 25  2  0
 15 20  1  0
 16 24  1  0
 16 26  1  0
 17 19  1  0
 17 23  1  0
 18 24  1  0
 19 18  1  0
 20 19  2  0
 21 15  2  0
 21 22  1  0
 22 17  2  0
 23 16  1  0
 24 14  1  0
 26 27  1  0
 26 28  2  0
 29 27  1  0
 30 39  2  0
 30 35  1  0
 31 27  1  0
 31 35  1  0
 32 31  1  0
 33 34  1  0
 33 32  1  0
 34 30  1  0
 35 36  2  0
 36 37  1  0
 38 37  2  0
 39 38  1  0
 40 14  1  0
 40 41  1  0
 40 45  1  0
 41 44  1  1
 41 42  1  0
 43 41  1  0
 45 48  1  0
 46 45  1  0
 46 50  1  0
 47 46  2  0
 50 49  1  0
 50 52  1  0
 52 51  1  0
 52 53  1  0
 55 54  1  0
 56 55  1  0
 56 58  1  0
 57 55  2  0
 59 60  1  0
 59 56  1  0
 60 61  1  0
 61 62  1  0
 63 62  1  0
 63 72  1  0
 64 70  1  0
 66 67  1  0
 66 65  1  0
 68 67  1  0
 68 77  1  0
 68 69  1  0
 70 65  1  0
 70 69  1  0
 71 64  2  0
 72 64  1  0
 72 73  1  0
 74 75  2  0
 75 94  1  0
 76 79  1  0
 76 75  1  0
 77 78  1  0
 77 74  1  0
 78 76  2  0
 79 80  1  0
 80 81  2  0
 82 81  1  0
 83 82  2  0
 84 83  1  0
 84 79  2  0
 85 82  1  0
 85 86  1  0
 86 91  2  0
 86 87  1  0
 87 88  2  0
 88 89  1  0
 89 93  1  0
 90 89  2  0
 91 90  1  0
 92 91  1  0
 94 95  1  0
 95 98  1  0
 95 97  1  0
 96 94  2  0
 99 74  1  0
 99100  1  0
101 99  1  0
M  ISO  4  12 101  13 101  64 100  72 100
M  END
>  <TORSDO>  (85) 
F 26

>  <SCORE>  (85) 
-5.196

>  <name>  (85) 
84

>  <ligand_id>  (85) 
84

>  <original_smiles>  (85) 
[H]c1c([H])c([H])c2c(c1[H])C([H])([H])C([H])([H])C([H])([H])C2([H])N([H])C(=O)C1([H])N(C(=O)C([H])(N([H])C(=O)C([H])(N([H])C([H])([H])[H])C([H])([H])[H])C(C([H])([H])[H])(C([H])([H])[H])C([H])([H])[H])C([H])([H])c2c([H])c(OC([H])([H])C([H])([H])[N+]([H])([H])C3([H])C(=O)C(=O)C([H])(C([H])([H])C(=O)N([H])C([H])([H])C([H])([H])C([H])([H])C([H])([H])C([H])([H])N([H])C(=O)N4C([H])([H])C([H])([H])C([H])([H])C([H])(n5nc(-c6c([H])c([H])c(Oc7c([H])c([H])c(F)c([H])c7F)c([H])c6[H])c(C(=O)N([H])[H])c5N([H])[H])C4([H])[H])C3([H])[H])c([H])c([H])c2C1([H])[H]

>  <smiles>  (85) 
[H]c1c([H])c([H])c2c(c1[H])C([H])([H])C([H])([H])C([H])([H])C2([H])N([H])C(=O)C1([H])N(C(=O)C([H])(N([H])C(=O)C([H])(N([H])C([H])([H])[H])C([H])([H])[H])C(C([H])([H])[H])(C([H])([H])[H])C([H])([H])[H])C([H])([H])c2c([H])c(OC([H])([H])C([H])([H])[N+]([H])([H])C3([H])C(=O)C(=O)C([H])(C([H])([H])C(=O)N([H])C([H])([H])C([H])([H])C([H])([H])C([H])([H])C([H])([H])N([H])C(=O)N4C([H])([H])C([H])([H])C([H])([H])C([H])(n5nc(-c6c([H])c([H])c(Oc7c([H])c([H])c(F)c([H])c7F)c([H])c6[H])c(C(=O)N([H])[H])c5N([H])[H])C4([H])[H])C3([H])[H])c([H])c([H])c2C1([H])[H]

$$$$
85:0:0
     RDKit          3D

 95104  0  0  1  0  0  0  0  0999 V2000
  -27.6580  -23.1440   21.8510 C   0  0  0  0  0  3  0  0  0  0  0  0
  -28.2560  -21.9250   21.4860 C   0  0  0  0  0  3  0  0  0  0  0  0
  -27.2930  -24.0700   20.8570 C   0  0  0  0  0  3  0  0  0  0  0  0
  -28.5020  -21.6300   20.1300 C   0  0  0  0  0  0  0  0  0  0  0  0
  -27.5340  -23.7900   19.4940 C   0  0  0  0  0  0  0  0  0  0  0  0
  -28.1600  -22.5760   19.1310 C   0  0  0  0  0  0  0  0  0  0  0  0
  -28.4270  -22.3250   17.8130 O   0  0  0  0  0  0  0  0  0  0  0  0
  -28.2260  -23.0570   17.2430 H   0  0  0  0  0  0  0  0  0  0  0  0
  -29.1370  -20.2940   19.7690 C   0  0  0  0  0  2  0  0  0  0  0  0
  -28.8700  -19.1690   20.7930 C   0  0  0  0  0  2  0  0  0  0  0  0
  -31.2240  -14.1380   19.4170 C   0  0  0  0  0  0  0  0  0  0  0  0
  -30.8600  -11.7550   18.9310 C   0  0  0  0  0  2  0  0  0  0  0  0
  -29.8560  -11.5920   17.7750 C   0  0  0  0  0  2  0  0  0  0  0  0
  -28.4170  -11.5490   18.3180 C   0  0  0  0  0  2  0  0  0  0  0  0
  -28.1130  -12.7150   19.2940 C   0  0  0  0  0  3  0  0  0  0  0  0
  -29.2300  -12.8660   20.3470 C   0  0  0  0  0  2  0  0  0  0  0  0
  -30.5240  -12.9950   19.6490 N   0  0  0  0  0  0  0  0  0  0  0  0
  -32.2450  -14.1560   18.7190 O   0  0  0  0  0  0  0  0  0  0  0  0
  -29.7750  -17.5200   19.0950 C   0  0  0  0  0  2  0  0  0  0  0  0
  -29.5960  -16.7720   21.4730 C   0  0  0  0  0  2  0  0  0  0  0  0
  -30.8210  -16.4340   18.8540 C   0  0  0  0  0  2  0  0  0  0  0  0
  -30.6910  -15.7240   21.1920 C   0  0  0  0  0  2  0  0  0  0  0  0
  -29.8240  -17.9890   20.5590 C   0  0  0  0  0  3  0  0  0  0  0  0
  -30.6470  -15.3030   19.7820 N   0  0  0  0  0  0  0  0  0  0  0  0
  -25.9030  -13.5260   20.3380 C   0  0  0  0  0  0  0  0  0  0  0  0
  -24.8010  -12.8490   20.7900 C   0  0  0  0  0  0  0  0  0  0  0  0
  -25.0930  -11.4620   20.6180 C   0  0  0  0  0  0  0  0  0  0  0  0
  -26.8030  -12.5570   19.9230 N   0  0  0  0  0  0  0  0  0  0  0  0
  -26.3250  -11.3060   20.1470 N   0  0  0  0  0  0  0  0  0  0  0  0
  -24.2510  -10.2750   20.8190 C   0  0  0  0  0  0  0  0  0  0  0  0
  -24.5240   -9.3380   21.8400 C   0  0  0  0  0  3  0  0  0  0  0  0
  -23.6890   -8.2150   22.0250 C   0  0  0  0  0  3  0  0  0  0  0  0
  -22.5650   -8.0210   21.1880 C   0  0  0  0  0  0  0  0  0  0  0  0
  -22.3100   -8.9440   20.1570 C   0  0  0  0  0  3  0  0  0  0  0  0
  -23.1460  -10.0580   19.9720 C   0  0  0  0  0  3  0  0  0  0  0  0
  -21.7130   -6.9470   21.2760 O   0  0  0  0  0  0  0  0  0  0  0  0
  -21.2410   -6.5010   22.4840 C   0  0  0  0  0  0  0  0  0  0  0  0
  -20.6320   -7.3710   23.4140 C   0  0  0  0  0  3  0  0  0  0  0  0
  -20.0990   -6.8580   24.6130 C   0  0  0  0  0  3  0  0  0  0  0  0
  -20.1660   -5.4780   24.8820 C   0  0  0  0  0  0  0  0  0  0  0  0
  -20.7670   -4.6090   23.9540 C   0  0  0  0  0  3  0  0  0  0  0  0
  -21.3010   -5.1200   22.7570 C   0  0  0  0  0  0  0  0  0  0  0  0
  -21.8600   -4.2750   21.8570 F   0  0  0  0  0  0  0  0  0  0  0  0
  -19.6470   -4.9830   26.0300 F   0  0  0  0  0  0  0  0  0  0  0  0
  -23.5120  -13.4540   21.2660 C   0  0  0  0  0  0  0  0  0  0  0  0
  -22.8330  -12.7950   22.2000 N   0  0  0  0  0  0  0  0  0  0  0  0
  -23.1210  -14.5410   20.8440 O   0  0  0  0  0  0  0  0  0  0  0  0
  -23.1640  -11.9130   22.5610 H   0  0  0  0  0  0  0  0  0  0  0  0
  -21.9730  -13.1810   22.5610 H   0  0  0  0  0  0  0  0  0  0  0  0
  -26.2070  -14.8800   20.2270 N   0  0  0  0  0  0  0  0  0  0  0  0
  -25.5480  -15.6090   20.4790 H   0  0  0  0  0  0  0  0  0  0  0  0
  -27.0720  -15.2420   19.8470 H   0  0  0  0  0  0  0  0  0  0  0  0
  -27.0690  -24.7910   18.4470 C   0  0  0  0  0  2  0  0  0  0  0  0
  -28.1260  -25.8580   18.0940 C   0  0  0  0  0  2  0  0  0  0  0  0
  -27.5800  -26.9170   17.2990 O   0  0  0  0  0  0  0  0  0  0  0  0
  -25.6530  -29.4580   23.6250 C   0  0  0  0  0  0  0  0  0  0  0  0
  -26.6740  -27.6700   17.9970 C   0  0  0  0  0  0  0  0  0  0  0  0
  -23.9240  -29.5190   21.8580 C   0  0  0  0  0  3  0  0  0  0  0  0
  -24.7430  -29.0700   19.4880 C   0  0  0  0  0  0  0  0  0  0  0  0
  -26.4040  -29.6600   21.2610 C   0  0  0  0  0  2  0  0  0  0  0  0
  -26.0620  -28.9840   19.9540 C   0  0  0  0  0  0  0  0  0  0  0  0
  -27.0350  -28.2810   19.2150 C   0  0  0  0  0  3  0  0  0  0  0  0
  -25.3580  -27.8010   17.5140 C   0  0  0  0  0  3  0  0  0  0  0  0
  -24.3820  -28.4780   18.2670 C   0  0  0  0  0  3  0  0  0  0  0  0
  -23.7630  -29.8310   20.3460 C   0  0  0  0  0  2  0  0  0  0  0  0
  -25.3560  -29.5170   22.2970 N   0  0  0  0  0  0  0  0  0  0  0  0
  -24.7580  -29.4520   24.4810 O   0  0  0  0  0  0  0  0  0  0  0  0
  -23.1850  -28.1980   22.1710 C   0  0  0  0  0  0  0  0  0  0  0  0
  -21.8600  -28.1880   21.9480 N   0  0  0  0  0  0  0  0  0  0  0  0
  -23.8000  -27.2080   22.5780 O   0  0  0  0  0  0  0  0  0  0  0  0
  -21.4300  -29.0440   21.6260 H   0  0  0  0  0  0  0  0  0  0  0  0
  -18.5130  -26.9860   21.3150 C   0  0  0  0  0  0  0  0  0  0  0  0
  -20.9640  -27.0490   22.1360 C   0  0  0  0  0  3  0  0  0  0  0  0
  -21.2350  -25.9460   21.0870 C   0  0  0  0  0  2  0  0  0  0  0  0
  -20.3530  -26.0660   19.8410 C   0  0  0  0  0  2  0  0  0  0  0  0
  -18.8720  -25.9930   20.2220 C   0  0  0  0  0  2  0  0  0  0  0  0
  -19.4990  -27.4940   22.2040 C   0  0  0  0  0  0  0  0  0  0  0  0
  -19.1190  -28.4410   23.1780 C   0  0  0  0  0  3  0  0  0  0  0  0
  -17.7840  -28.8790   23.2760 C   0  0  0  0  0  3  0  0  0  0  0  0
  -16.8110  -28.3590   22.4070 C   0  0  0  0  0  3  0  0  0  0  0  0
  -17.1740  -27.4130   21.4340 C   0  0  0  0  0  3  0  0  0  0  0  0
  -27.1280  -29.4240   24.1340 C   0  0  0  0  0  3  0  0  0  0  0  0
  -27.2880  -30.5140   25.1040 N   0  0  0  0  0  0  0  0  0  0  0  0
  -27.8930  -31.6800   24.8410 C   0  0  0  0  0  0  0  0  0  0  0  0
  -28.4440  -31.9210   23.7630 O   0  0  0  0  0  0  0  0  0  0  0  0
  -26.8200  -30.4070   25.9920 H   0  0  0  0  0  0  0  0  0  0  0  0
  -26.8110  -33.8060   25.6340 C   0  0  0  0  0  1  0  0  0  0  0  0
  -27.8820  -32.7500   25.9500 C   0  0  0  0  0  3  0  0  0  0  0  0
  -30.2090  -32.5230   26.6970 C   0  0  0  0  0  1  0  0  0  0  0  0
  -29.1910  -33.4100   26.1410 N   0  0  0  0  0  0  0  0  0  0  0  0
  -29.1020  -34.2160   26.7550 H   0  0  0  0  0  0  0  0  0  0  0  0
  -27.5330  -28.0400   24.7770 C   0  0  1  0  0  0  0  0  0  0  0  0
  -26.5400  -27.5380   25.8510 C   0  0  0  0  0  1  0  0  0  0  0  0
  -27.6450  -26.9460   23.6890 C   0  0  0  0  0  1  0  0  0  0  0  0
  -28.9300  -28.1540   25.4300 C   0  0  0  0  0  1  0  0  0  0  0  0
  2  1  1  0
  3  1  2  0
  4  2  2  0
  5  3  1  0
  6  5  2  0
  6  4  1  0
  7  6  1  0
  8  7  1  0
  9  4  1  0
  9 10  1  0
 11 17  1  0
 11 24  1  0
 12 17  1  0
 13 14  1  0
 13 12  1  0
 15 14  1  0
 15 28  1  0
 15 16  1  0
 17 16  1  0
 18 11  2  0
 19 23  1  0
 21 19  1  0
 21 24  1  0
 22 20  1  0
 23 10  1  0
 23 20  1  0
 24 22  1  0
 25 26  2  0
 26 45  1  0
 27 26  1  0
 27 30  1  0
 28 29  1  0
 28 25  1  0
 29 27  2  0
 30 31  1  0
 31 32  2  0
 33 36  1  0
 33 32  1  0
 34 33  2  0
 35 34  1  0
 35 30  2  0
 36 37  1  0
 37 42  2  0
 37 38  1  0
 38 39  2  0
 39 40  1  0
 40 44  1  0
 41 40  2  0
 42 41  1  0
 43 42  1  0
 45 46  1  0
 46 48  1  0
 46 49  1  0
 47 45  2  0
 50 25  1  0
 50 51  1  0
 52 50  1  0
 53  5  1  0
 54 53  1  0
 55 57  1  0
 55 54  1  0
 56 67  2  0
 57 62  1  0
 58 68  1  0
 58 66  1  0
 59 61  1  0
 59 65  1  0
 60 66  1  0
 61 60  1  0
 62 61  2  0
 63 57  2  0
 63 64  1  0
 64 59  2  0
 65 58  1  0
 66 56  1  0
 68 70  2  0
 69 68  1  0
 71 69  1  0
 72 81  2  0
 72 77  1  0
 73 69  1  0
 73 77  1  0
 74 73  1  0
 75 76  1  0
 75 74  1  0
 76 72  1  0
 77 78  2  0
 78 79  1  0
 80 79  2  0
 81 80  1  0
 82 56  1  0
 82 92  1  0
 82 83  1  0
 83 86  1  0
 84 83  1  0
 84 88  1  0
 85 84  2  0
 88 87  1  0
 88 90  1  0
 90 89  1  0
 90 91  1  0
 92 95  1  1
 92 93  1  0
 94 92  1  0
M  ISO  4  11 100  24 100  54 101  55 101
M  END
>  <TORSDO>  (86) 
F 21

>  <SCORE>  (86) 
-10.012

>  <name>  (86) 
85

>  <ligand_id>  (86) 
85

>  <original_smiles>  (86) 
[H]Oc1c(C([H])([H])C([H])([H])Oc2c([H])c([H])c3c(c2[H])C([H])([H])N(C(=O)C([H])(N([H])C(=O)C([H])(N([H])C([H])([H])[H])C([H])([H])[H])C(C([H])([H])[H])(C([H])([H])[H])C([H])([H])[H])C([H])(C(=O)N([H])C2([H])c4c([H])c([H])c([H])c([H])c4C([H])([H])C([H])([H])C2([H])[H])C3([H])[H])c([H])c([H])c([H])c1C([H])([H])C([H])([H])C1([H])C([H])([H])C([H])([H])N(C(=O)N2C([H])([H])C([H])([H])C([H])([H])C([H])(n3nc(-c4c([H])c([H])c(Oc5c([H])c([H])c(F)c([H])c5F)c([H])c4[H])c(C(=O)N([H])[H])c3N([H])[H])C2([H])[H])C([H])([H])C1([H])[H]

>  <smiles>  (86) 
[H]Oc1c(C([H])([H])C([H])([H])Oc2c([H])c([H])c3c(c2[H])C([H])([H])N(C(=O)C([H])(N([H])C(=O)C([H])(N([H])C([H])([H])[H])C([H])([H])[H])C(C([H])([H])[H])(C([H])([H])[H])C([H])([H])[H])C([H])(C(=O)N([H])C2([H])c4c([H])c([H])c([H])c([H])c4C([H])([H])C([H])([H])C2([H])[H])C3([H])[H])c([H])c([H])c([H])c1C([H])([H])C([H])([H])C1([H])C([H])([H])C([H])([H])N(C(=O)N2C([H])([H])C([H])([H])C([H])([H])C([H])(n3nc(-c4c([H])c([H])c(Oc5c([H])c([H])c(F)c([H])c5F)c([H])c4[H])c(C(=O)N([H])[H])c3N([H])[H])C2([H])[H])C([H])([H])C1([H])[H]

$$$$
86:0:0
     RDKit          3D

 95103  0  0  1  0  0  0  0  0999 V2000
  -24.9450  -23.9440   22.1220 C   0  0  0  0  0  2  0  0  0  0  0  0
  -25.9670  -24.6010   21.3660 C   0  0  0  0  0  2  0  0  0  0  0  0
  -24.1770  -23.0890   21.3410 C   0  0  0  0  0  2  0  0  0  0  0  0
  -25.9040  -24.5800   19.9920 C   0  0  0  0  0  3  0  0  0  0  0  0
  -23.8690  -23.5900   19.9490 C   0  0  0  0  0  3  0  0  0  0  0  0
  -24.5010  -24.7710   19.6640 C   0  0  0  0  0  3  0  0  0  0  0  0
  -23.6680  -25.5990   20.4110 O   0  0  0  0  0  0  0  0  0  0  0  0
  -23.8080  -26.4800   20.7950 H   0  0  0  0  0  0  0  0  0  0  0  0
  -27.3640  -24.4370   19.2730 C   0  0  0  0  0  0  0  0  0  0  0  0
  -27.9880  -25.4350   19.1790 O   0  0  0  0  0  0  0  0  0  0  0  0
  -28.3730  -23.1320   19.1040 C   0  0  0  0  0  3  0  0  0  0  0  0
  -30.1070  -22.8980   19.7620 C   0  0  0  0  0  3  0  0  0  0  0  0
  -32.3410  -21.2420   20.8670 C   0  0  0  0  0  0  0  0  0  0  0  0
  -33.6480  -19.0620   21.3040 C   0  0  0  0  0  2  0  0  0  0  0  0
  -33.6020  -18.0250   20.1420 C   0  0  0  0  0  2  0  0  0  0  0  0
  -32.2640  -17.2780   20.0780 C   0  0  0  0  0  2  0  0  0  0  0  0
  -31.0680  -18.2610   20.1540 C   0  0  0  0  0  3  0  0  0  0  0  0
  -31.1870  -19.1200   21.4410 C   0  0  0  0  0  2  0  0  0  0  0  0
  -32.4050  -19.9130   21.2790 N   0  0  0  0  0  0  0  0  0  0  0  0
  -33.3970  -21.8860   20.9690 O   0  0  0  0  0  0  0  0  0  0  0  0
  -31.2400  -21.6730   19.9910 N   0  0  0  0  0  0  0  0  0  0  0  0
  -31.9160  -22.0030   19.2820 H   0  0  0  0  0  0  0  0  0  0  0  0
  -28.5100  -18.2230   19.9410 C   0  0  0  0  0  0  0  0  0  0  0  0
  -27.6130  -17.1620   19.9820 C   0  0  0  0  0  0  0  0  0  0  0  0
  -28.3910  -16.0060   20.2090 C   0  0  0  0  0  0  0  0  0  0  0  0
  -29.7470  -17.6420   20.1470 N   0  0  0  0  0  0  0  0  0  0  0  0
  -29.6630  -16.3090   20.3580 N   0  0  0  0  0  0  0  0  0  0  0  0
  -28.0090  -14.5820   20.2190 C   0  0  0  0  0  0  0  0  0  0  0  0
  -28.0810  -13.8090   21.3990 C   0  0  0  0  0  3  0  0  0  0  0  0
  -27.7020  -12.4500   21.3750 C   0  0  0  0  0  3  0  0  0  0  0  0
  -27.2460  -11.8690   20.1680 C   0  0  0  0  0  0  0  0  0  0  0  0
  -27.2010  -12.6400   18.9950 C   0  0  0  0  0  3  0  0  0  0  0  0
  -27.5840  -13.9890   19.0170 C   0  0  0  0  0  3  0  0  0  0  0  0
  -26.8780  -10.5530   20.0500 O   0  0  0  0  0  0  0  0  0  0  0  0
  -26.0050   -9.9620   20.9280 C   0  0  0  0  0  0  0  0  0  0  0  0
  -24.6830  -10.4330   21.0900 C   0  0  0  0  0  3  0  0  0  0  0  0
  -23.7990   -9.7600   21.9540 C   0  0  0  0  0  3  0  0  0  0  0  0
  -24.2280   -8.6130   22.6450 C   0  0  0  0  0  0  0  0  0  0  0  0
  -25.5410   -8.1410   22.4880 C   0  0  0  0  0  3  0  0  0  0  0  0
  -26.4280   -8.8120   21.6280 C   0  0  0  0  0  0  0  0  0  0  0  0
  -27.6900   -8.3450   21.4550 F   0  0  0  0  0  0  0  0  0  0  0  0
  -23.3770   -7.9600   23.4710 F   0  0  0  0  0  0  0  0  0  0  0  0
  -26.1470  -17.2650   19.7030 C   0  0  0  0  0  0  0  0  0  0  0  0
  -25.3620  -16.3130   20.2480 N   0  0  0  0  0  0  0  0  0  0  0  0
  -25.6650  -18.1840   19.0570 O   0  0  0  0  0  0  0  0  0  0  0  0
  -25.7530  -15.5720   20.8100 H   0  0  0  0  0  0  0  0  0  0  0  0
  -24.3630  -16.3490   20.1000 H   0  0  0  0  0  0  0  0  0  0  0  0
  -28.3730  -19.5750   19.7800 N   0  0  0  0  0  0  0  0  0  0  0  0
  -27.4710  -20.0170   19.6180 H   0  0  0  0  0  0  0  0  0  0  0  0
  -29.1380  -20.2540   19.8190 H   0  0  0  0  0  0  0  0  0  0  0  0
  -23.7230  -22.7600   18.6790 C   0  0  0  0  0  2  0  0  0  0  0  0
  -24.1960  -23.5350   17.3100 C   0  0  0  0  0  2  0  0  0  0  0  0
  -25.3240  -24.8030   16.9870 C   0  0  0  0  0  3  0  0  0  0  0  0
  -25.5570  -26.3860   17.6630 C   0  0  0  0  0  3  0  0  0  0  0  0
  -26.4930  -27.7700   17.6690 O   0  0  0  0  0  0  0  0  0  0  0  0
  -24.8390  -31.6270   23.9340 C   0  0  0  0  0  0  0  0  0  0  0  0
  -25.8970  -28.8220   18.4370 C   0  0  0  0  0  0  0  0  0  0  0  0
  -23.2640  -30.7400   22.2690 C   0  0  0  0  0  3  0  0  0  0  0  0
  -24.0320  -30.3700   19.9050 C   0  0  0  0  0  0  0  0  0  0  0  0
  -25.6330  -31.4430   21.5000 C   0  0  0  0  0  2  0  0  0  0  0  0
  -25.3820  -30.4720   20.2660 C   0  0  0  0  0  0  0  0  0  0  0  0
  -26.3240  -29.5930   19.5780 C   0  0  0  0  0  3  0  0  0  0  0  0
  -24.5870  -29.0890   18.0000 C   0  0  0  0  0  3  0  0  0  0  0  0
  -23.6220  -29.6650   18.7940 C   0  0  0  0  0  3  0  0  0  0  0  0
  -22.9760  -30.9580   20.7810 C   0  0  0  0  0  2  0  0  0  0  0  0
  -24.5750  -31.3210   22.6220 N   0  0  0  0  0  0  0  0  0  0  0  0
  -23.9760  -31.6290   24.8250 O   0  0  0  0  0  0  0  0  0  0  0  0
  -22.7440  -29.3990   22.9370 C   0  0  0  0  0  0  0  0  0  0  0  0
  -21.5990  -28.8240   22.5310 N   0  0  0  0  0  0  0  0  0  0  0  0
  -23.3940  -28.8130   23.8040 O   0  0  0  0  0  0  0  0  0  0  0  0
  -21.3040  -29.1430   21.6340 H   0  0  0  0  0  0  0  0  0  0  0  0
  -18.6410  -26.6480   22.1250 C   0  0  0  0  0  0  0  0  0  0  0  0
  -20.9510  -27.6040   23.0000 C   0  0  0  0  0  3  0  0  0  0  0  0
  -21.3880  -26.3160   22.2960 C   0  0  0  0  0  2  0  0  0  0  0  0
  -20.5960  -25.8950   21.0680 C   0  0  0  0  0  2  0  0  0  0  0  0
  -19.1290  -25.6100   21.1430 C   0  0  0  0  0  2  0  0  0  0  0  0
  -19.4140  -27.5830   22.8990 C   0  0  0  0  0  0  0  0  0  0  0  0
  -18.7620  -28.6750   23.4180 C   0  0  0  0  0  3  0  0  0  0  0  0
  -17.3680  -28.7700   23.5080 C   0  0  0  0  0  3  0  0  0  0  0  0
  -16.6040  -27.6800   22.9530 C   0  0  0  0  0  3  0  0  0  0  0  0
  -17.2350  -26.6790   22.2550 C   0  0  0  0  0  3  0  0  0  0  0  0
  -26.2540  -32.1030   24.3720 C   0  0  0  0  0  3  0  0  0  0  0  0
  -26.1480  -33.4430   24.9680 N   0  0  0  0  0  0  0  0  0  0  0  0
  -26.4540  -34.5760   24.3280 C   0  0  0  0  0  0  0  0  0  0  0  0
  -26.9360  -34.5990   23.1910 O   0  0  0  0  0  0  0  0  0  0  0  0
  -25.7180  -33.4820   25.8770 H   0  0  0  0  0  0  0  0  0  0  0  0
  -24.9160  -36.5590   24.5470 C   0  0  0  0  0  1  0  0  0  0  0  0
  -26.1960  -35.8910   25.0790 C   0  0  0  0  0  3  0  0  0  0  0  0
  -28.5110  -36.4470   25.7160 C   0  0  0  0  0  1  0  0  0  0  0  0
  -27.3150  -36.8550   24.9890 N   0  0  0  0  0  0  0  0  0  0  0  0
  -27.0310  -37.7670   25.3350 H   0  0  0  0  0  0  0  0  0  0  0  0
  -26.8940  -31.0990   25.3980 C   0  0  1  0  0  0  0  0  0  0  0  0
  -25.9350  -30.7040   26.5520 C   0  0  0  0  0  1  0  0  0  0  0  0
  -27.3750  -29.7910   24.7200 C   0  0  0  0  0  1  0  0  0  0  0  0
  -28.1480  -31.7410   26.0300 C   0  0  0  0  0  1  0  0  0  0  0  0
  2  1  1  0
  3  1  1  0
  4  9  1  0
  4  2  1  0
  5 51  1  0
  5  3  1  0
  6  5  1  0
  6  4  1  0
  6  7  1  0
  7  8  1  0
 10  9  2  0
 11  9  1  0
 11 12  2  0
 12 21  1  0
 13 20  2  0
 13 19  1  0
 15 14  1  0
 16 15  1  0
 17 16  1  0
 17 18  1  0
 19 14  1  0
 19 18  1  0
 21 13  1  0
 22 21  1  0
 23 24  2  0
 23 26  1  0
 24 25  1  0
 25 28  1  0
 25 27  2  0
 26 17  1  0
 26 27  1  0
 28 29  1  0
 30 29  2  0
 31 30  1  0
 32 33  1  0
 32 31  2  0
 33 28  2  0
 34 31  1  0
 34 35  1  0
 35 36  2  0
 35 40  1  0
 36 37  1  0
 37 38  2  0
 38 42  1  0
 39 38  1  0
 40 39  2  0
 41 40  1  0
 43 24  1  0
 43 44  1  0
 44 46  1  0
 45 43  2  0
 47 44  1  0
 48 50  1  0
 48 23  1  0
 49 48  1  0
 52 51  1  0
 53 52  1  0
 53 54  2  0
 54 55  1  0
 55 57  1  0
 56 67  2  0
 57 62  1  0
 58 66  1  0
 58 68  1  0
 59 61  1  0
 59 65  1  0
 60 66  1  0
 61 60  1  0
 62 61  2  0
 63 57  2  0
 63 64  1  0
 64 59  2  0
 65 58  1  0
 66 56  1  0
 68 70  2  0
 69 68  1  0
 71 69  1  0
 72 81  2  0
 72 77  1  0
 73 69  1  0
 74 73  1  0
 75 76  1  0
 75 74  1  0
 76 72  1  0
 77 73  1  0
 77 78  2  0
 78 79  1  0
 80 79  2  0
 81 80  1  0
 82 56  1  0
 82 83  1  0
 82 92  1  0
 83 86  1  0
 84 83  1  0
 84 88  1  0
 85 84  2  0
 88 87  1  0
 90 88  1  0
 90 91  1  0
 90 89  1  0
 92 95  1  1
 92 93  1  0
 94 92  1  0
M  ISO  4  13 100  21 100  54 101  55 101
M  END
>  <TORSDO>  (87) 
F 24

>  <SCORE>  (87) 
-7.692

>  <name>  (87) 
86

>  <ligand_id>  (87) 
86

>  <original_smiles>  (87) 
[H]Oc1c(C(=O)C([H])([H])C([H])([H])N([H])C(=O)N2C([H])([H])C([H])([H])C([H])([H])C([H])(n3nc(-c4c([H])c([H])c(Oc5c([H])c([H])c(F)c([H])c5F)c([H])c4[H])c(C(=O)N([H])[H])c3N([H])[H])C2([H])[H])c([H])c([H])c([H])c1C([H])([H])C([H])([H])C([H])([H])C([H])([H])Oc1c([H])c([H])c2c(c1[H])C([H])([H])N(C(=O)C([H])(N([H])C(=O)C([H])(N([H])C([H])([H])[H])C([H])([H])[H])C(C([H])([H])[H])(C([H])([H])[H])C([H])([H])[H])C([H])(C(=O)N([H])C1([H])c3c([H])c([H])c([H])c([H])c3C([H])([H])C([H])([H])C1([H])[H])C2([H])[H]

>  <smiles>  (87) 
[H]Oc1c(C(=O)C([H])([H])C([H])([H])N([H])C(=O)N2C([H])([H])C([H])([H])C([H])([H])C([H])(n3nc(-c4c([H])c([H])c(Oc5c([H])c([H])c(F)c([H])c5F)c([H])c4[H])c(C(=O)N([H])[H])c3N([H])[H])C2([H])[H])c([H])c([H])c([H])c1C([H])([H])C([H])([H])C([H])([H])C([H])([H])Oc1c([H])c([H])c2c(c1[H])C([H])([H])N(C(=O)C([H])(N([H])C(=O)C([H])(N([H])C([H])([H])[H])C([H])([H])[H])C(C([H])([H])[H])(C([H])([H])[H])C([H])([H])[H])C([H])(C(=O)N([H])C1([H])c3c([H])c([H])c([H])c([H])c3C([H])([H])C([H])([H])C1([H])[H])C2([H])[H]

$$$$
87:0:0
     RDKit          3D

 95103  0  0  1  0  0  0  0  0999 V2000
  -31.7010  -22.0030   18.3780 C   0  0  0  0  0  3  0  0  0  0  0  0
  -31.3640  -20.6620   18.6210 C   0  0  0  0  0  3  0  0  0  0  0  0
  -29.6260  -21.3960   20.1610 C   0  0  0  0  0  3  0  0  0  0  0  0
  -31.0290  -23.0570   19.0300 C   0  0  0  0  0  0  0  0  0  0  0  0
  -30.3240  -20.3320   19.5130 C   0  0  0  0  0  0  0  0  0  0  0  0
  -29.9660  -22.7680   19.9360 C   0  0  0  0  0  0  0  0  0  0  0  0
  -31.4720  -24.4580   18.7170 C   0  0  0  0  0  0  0  0  0  0  0  0
  -32.1140  -25.0910   19.6880 N   0  0  0  0  0  0  0  0  0  0  0  0
  -31.2750  -24.9630   17.6140 O   0  0  0  0  0  0  0  0  0  0  0  0
  -32.3050  -24.6130   20.5560 H   0  0  0  0  0  0  0  0  0  0  0  0
  -32.4410  -26.0360   19.5550 H   0  0  0  0  0  0  0  0  0  0  0  0
  -29.9450  -18.8420   19.6610 C   0  0  0  0  0  2  0  0  0  0  0  0
  -29.4730  -18.2800   22.0750 C   0  0  0  0  0  1  0  0  0  0  0  0
  -30.4930  -18.0870   20.9160 C   0  0  0  0  0  3  0  0  0  0  0  0
  -30.8840  -15.2780   21.0150 C   0  0  0  0  0  3  0  0  0  0  0  0
  -30.8960  -16.5970   20.6360 C   0  0  0  0  0  3  0  0  0  0  0  0
  -31.3680  -14.2240   20.1110 C   0  0  0  0  0  0  0  0  0  0  0  0
  -30.8620  -12.1190   18.9010 C   0  0  0  0  0  2  0  0  0  0  0  0
  -29.8700  -12.4120   17.7560 C   0  0  0  0  0  2  0  0  0  0  0  0
  -28.4160  -12.3410   18.2600 C   0  0  0  0  0  2  0  0  0  0  0  0
  -28.2010  -13.1530   19.5630 C   0  0  0  0  0  3  0  0  0  0  0  0
  -29.2970  -12.8310   20.6040 C   0  0  0  0  0  2  0  0  0  0  0  0
  -30.6090  -13.0910   19.9840 N   0  0  0  0  0  0  0  0  0  0  0  0
  -32.4210  -14.3560   19.4800 O   0  0  0  0  0  0  0  0  0  0  0  0
  -25.8900  -13.8850   20.4210 C   0  0  0  0  0  0  0  0  0  0  0  0
  -24.7950  -13.1700   20.8250 C   0  0  0  0  0  0  0  0  0  0  0  0
  -25.1640  -11.7920   20.7300 C   0  0  0  0  0  0  0  0  0  0  0  0
  -26.8610  -12.9470   20.1090 N   0  0  0  0  0  0  0  0  0  0  0  0
  -26.4310  -11.6810   20.3500 N   0  0  0  0  0  0  0  0  0  0  0  0
  -24.3690  -10.5740   20.9260 C   0  0  0  0  0  0  0  0  0  0  0  0
  -24.7390   -9.5950   21.8760 C   0  0  0  0  0  3  0  0  0  0  0  0
  -23.9470   -8.4410   22.0580 C   0  0  0  0  0  3  0  0  0  0  0  0
  -22.7720   -8.2570   21.2910 C   0  0  0  0  0  0  0  0  0  0  0  0
  -22.4220   -9.2230   20.3320 C   0  0  0  0  0  3  0  0  0  0  0  0
  -23.2130  -10.3690   20.1480 C   0  0  0  0  0  3  0  0  0  0  0  0
  -21.9570   -7.1540   21.3820 O   0  0  0  0  0  0  0  0  0  0  0  0
  -21.7980   -6.4700   22.5610 C   0  0  0  0  0  0  0  0  0  0  0  0
  -21.3050   -7.0960   23.7260 C   0  0  0  0  0  3  0  0  0  0  0  0
  -21.0950   -6.3380   24.8970 C   0  0  0  0  0  3  0  0  0  0  0  0
  -21.3660   -4.9570   24.9010 C   0  0  0  0  0  0  0  0  0  0  0  0
  -21.8520   -4.3320   23.7390 C   0  0  0  0  0  3  0  0  0  0  0  0
  -22.0640   -5.0850   22.5710 C   0  0  0  0  0  0  0  0  0  0  0  0
  -22.5140   -4.4740   21.4490 F   0  0  0  0  0  0  0  0  0  0  0  0
  -21.1570   -4.2280   26.0210 F   0  0  0  0  0  0  0  0  0  0  0  0
  -23.4480  -13.7250   21.1890 C   0  0  0  0  0  0  0  0  0  0  0  0
  -22.7260  -13.0540   22.0790 N   0  0  0  0  0  0  0  0  0  0  0  0
  -23.0470  -14.7880   20.7160 O   0  0  0  0  0  0  0  0  0  0  0  0
  -23.0590  -12.1900   22.4840 H   0  0  0  0  0  0  0  0  0  0  0  0
  -21.8250  -13.4100   22.3620 H   0  0  0  0  0  0  0  0  0  0  0  0
  -26.1360  -15.2470   20.2730 N   0  0  0  0  0  0  0  0  0  0  0  0
  -25.4280  -15.9500   20.4500 H   0  0  0  0  0  0  0  0  0  0  0  0
  -27.0100  -15.6370   19.9390 H   0  0  0  0  0  0  0  0  0  0  0  0
  -29.2250  -23.9130   20.6790 C   0  0  0  0  0  2  0  0  0  0  0  0
  -28.3260  -24.8430   19.8030 C   0  0  0  0  0  2  0  0  0  0  0  0
  -28.3400  -26.2390   20.2240 O   0  0  0  0  0  0  0  0  0  0  0  0
  -24.6250  -31.6220   23.1060 C   0  0  0  0  0  0  0  0  0  0  0  0
  -27.1940  -27.0220   20.1370 C   0  0  0  0  0  0  0  0  0  0  0  0
  -23.4100  -30.2220   21.4710 C   0  0  0  0  0  3  0  0  0  0  0  0
  -24.8440  -28.6290   20.0880 C   0  0  0  0  0  0  0  0  0  0  0  0
  -25.9520  -30.5040   21.3090 C   0  0  0  0  0  2  0  0  0  0  0  0
  -26.0100  -29.1180   20.6890 C   0  0  0  0  0  0  0  0  0  0  0  0
  -27.1830  -28.3220   20.7130 C   0  0  0  0  0  3  0  0  0  0  0  0
  -26.0090  -26.5760   19.5020 C   0  0  0  0  0  3  0  0  0  0  0  0
  -24.8430  -27.3600   19.4890 C   0  0  0  0  0  3  0  0  0  0  0  0
  -23.6240  -29.5200   20.1040 C   0  0  0  0  0  2  0  0  0  0  0  0
  -24.6800  -30.8000   22.0190 N   0  0  0  0  0  0  0  0  0  0  0  0
  -23.5430  -31.9280   23.6250 O   0  0  0  0  0  0  0  0  0  0  0  0
  -22.7220  -29.2320   22.4380 C   0  0  0  0  0  0  0  0  0  0  0  0
  -21.3920  -29.0920   22.3080 N   0  0  0  0  0  0  0  0  0  0  0  0
  -23.3810  -28.5910   23.2610 O   0  0  0  0  0  0  0  0  0  0  0  0
  -20.9230  -29.6590   21.6150 H   0  0  0  0  0  0  0  0  0  0  0  0
  -17.9750  -28.0310   22.8270 C   0  0  0  0  0  0  0  0  0  0  0  0
  -20.5420  -28.1890   23.0850 C   0  0  0  0  0  3  0  0  0  0  0  0
  -20.5860  -26.7540   22.5120 C   0  0  0  0  0  2  0  0  0  0  0  0
  -19.4670  -26.4720   21.5040 C   0  0  0  0  0  2  0  0  0  0  0  0
  -18.0940  -26.6730   22.1550 C   0  0  0  0  0  2  0  0  0  0  0  0
  -19.1240  -28.7480   23.2500 C   0  0  0  0  0  0  0  0  0  0  0  0
  -18.9600  -30.0210   23.8390 C   0  0  0  0  0  3  0  0  0  0  0  0
  -17.6770  -30.5750   24.0090 C   0  0  0  0  0  3  0  0  0  0  0  0
  -16.5410  -29.8530   23.6020 C   0  0  0  0  0  3  0  0  0  0  0  0
  -16.6910  -28.5840   23.0160 C   0  0  0  0  0  3  0  0  0  0  0  0
  -25.9150  -32.2360   23.7320 C   0  0  0  0  0  3  0  0  0  0  0  0
  -25.6110  -33.6270   24.0970 N   0  0  0  0  0  0  0  0  0  0  0  0
  -25.9360  -34.6960   23.3570 C   0  0  0  0  0  0  0  0  0  0  0  0
  -26.5950  -34.6140   22.3170 O   0  0  0  0  0  0  0  0  0  0  0  0
  -25.0250  -33.7630   24.9070 H   0  0  0  0  0  0  0  0  0  0  0  0
  -24.2010  -36.4930   23.0670 C   0  0  0  0  0  1  0  0  0  0  0  0
  -25.4560  -36.0750   23.8500 C   0  0  0  0  0  3  0  0  0  0  0  0
  -27.6000  -36.9480   24.6660 C   0  0  0  0  0  1  0  0  0  0  0  0
  -26.4850  -37.1300   23.7400 N   0  0  0  0  0  0  0  0  0  0  0  0
  -26.0800  -38.0470   23.9100 H   0  0  0  0  0  0  0  0  0  0  0  0
  -26.4400  -31.4330   24.9850 C   0  0  1  0  0  0  0  0  0  0  0  0
  -25.3550  -31.1700   26.0560 C   0  0  0  0  0  1  0  0  0  0  0  0
  -27.0190  -30.0650   24.5550 C   0  0  0  0  0  1  0  0  0  0  0  0
  -27.5940  -32.2110   25.6580 C   0  0  0  0  0  1  0  0  0  0  0  0
  1  2  2  0
  1  4  1  0
  2  5  1  0
  4  6  2  0
  5 12  1  0
  5  3  2  0
  6  3  1  0
  6 53  1  0
  7  4  1  0
  7  8  1  0
  8 10  1  0
  9  7  2  0
 11  8  1  0
 12 14  1  0
 14 13  1  0
 16 14  1  0
 16 15  2  0
 17 15  1  0
 18 23  1  0
 19 20  1  0
 19 18  1  0
 21 20  1  0
 21 28  1  0
 21 22  1  0
 23 17  1  0
 23 22  1  0
 24 17  2  0
 25 26  2  0
 26 45  1  0
 27 26  1  0
 27 30  1  0
 28 29  1  0
 28 25  1  0
 29 27  2  0
 30 31  1  0
 31 32  2  0
 33 36  1  0
 33 32  1  0
 34 33  2  0
 35 34  1  0
 35 30  2  0
 36 37  1  0
 37 42  2  0
 37 38  1  0
 38 39  2  0
 39 40  1  0
 40 44  1  0
 41 40  2  0
 42 41  1  0
 43 42  1  0
 45 46  1  0
 46 49  1  0
 46 48  1  0
 47 45  2  0
 50 25  1  0
 50 51  1  0
 52 50  1  0
 54 55  1  0
 54 53  1  0
 56 67  2  0
 57 55  1  0
 57 62  1  0
 58 66  1  0
 58 68  1  0
 59 65  1  0
 59 61  1  0
 60 66  1  0
 61 62  2  0
 61 60  1  0
 63 57  2  0
 64 63  1  0
 64 59  2  0
 65 58  1  0
 66 56  1  0
 68 70  2  0
 69 68  1  0
 71 69  1  0
 72 81  2  0
 72 77  1  0
 73 69  1  0
 73 77  1  0
 74 73  1  0
 75 76  1  0
 75 74  1  0
 76 72  1  0
 77 78  2  0
 78 79  1  0
 80 79  2  0
 81 80  1  0
 82 56  1  0
 82 83  1  0
 82 92  1  0
 83 86  1  0
 84 88  1  0
 84 83  1  0
 85 84  2  0
 88 87  1  0
 90 88  1  0
 90 91  1  0
 90 89  1  0
 92 95  1  1
 92 93  1  0
 94 92  1  0
M  ISO  4  15 100  17 100  54 101  55 101
M  END
>  <TORSDO>  (88) 
F 22

>  <SCORE>  (88) 
-11.559

>  <name>  (88) 
87

>  <ligand_id>  (88) 
87

>  <original_smiles>  (88) 
[H]C(C(=O)N1C([H])([H])C([H])([H])C([H])([H])C([H])(n2nc(-c3c([H])c([H])c(Oc4c([H])c([H])c(F)c([H])c4F)c([H])c3[H])c(C(=O)N([H])[H])c2N([H])[H])C1([H])[H])=C([H])C([H])(C([H])([H])[H])C([H])([H])c1c([H])c([H])c(C(=O)N([H])[H])c(C([H])([H])C([H])([H])Oc2c([H])c([H])c3c(c2[H])C([H])([H])N(C(=O)C([H])(N([H])C(=O)C([H])(N([H])C([H])([H])[H])C([H])([H])[H])C(C([H])([H])[H])(C([H])([H])[H])C([H])([H])[H])C([H])(C(=O)N([H])C2([H])c4c([H])c([H])c([H])c([H])c4C([H])([H])C([H])([H])C2([H])[H])C3([H])[H])c1[H]

>  <smiles>  (88) 
[H]C(C(=O)N1C([H])([H])C([H])([H])C([H])([H])C([H])(n2nc(-c3c([H])c([H])c(Oc4c([H])c([H])c(F)c([H])c4F)c([H])c3[H])c(C(=O)N([H])[H])c2N([H])[H])C1([H])[H])=C([H])C([H])(C([H])([H])[H])C([H])([H])c1c([H])c([H])c(C(=O)N([H])[H])c(C([H])([H])C([H])([H])Oc2c([H])c([H])c3c(c2[H])C([H])([H])N(C(=O)C([H])(N([H])C(=O)C([H])(N([H])C([H])([H])[H])C([H])([H])[H])C(C([H])([H])[H])(C([H])([H])[H])C([H])([H])[H])C([H])(C(=O)N([H])C2([H])c4c([H])c([H])c([H])c([H])c4C([H])([H])C([H])([H])C2([H])[H])C3([H])[H])c1[H]

$$$$
88:0:0
     RDKit          3D

101109  0  0  1  0  0  0  0  0999 V2000
  -29.9200  -21.1350   16.3020 C   0  0  0  0  0  3  0  0  0  0  0  0
  -29.7220  -22.2560   15.5850 C   0  0  0  0  0  3  0  0  0  0  0  0
  -28.9000  -20.0360   16.5190 C   0  0  0  0  0  2  0  0  0  0  0  0
  -29.4250  -19.1720   20.2250 C   0  0  0  0  0  3  0  0  0  0  0  0
  -29.4930  -17.1090   18.9310 C   0  0  0  0  0  3  0  0  0  0  0  0
  -29.2060  -19.9030   19.0390 C   0  0  0  0  0  3  0  0  0  0  0  0
  -29.2830  -17.8400   17.7430 C   0  0  0  0  0  3  0  0  0  0  0  0
  -29.5820  -17.7730   20.1740 C   0  0  0  0  0  0  0  0  0  0  0  0
  -29.1390  -19.2430   17.7930 C   0  0  0  0  0  0  0  0  0  0  0  0
  -29.7950  -17.0080   21.4230 C   0  0  0  0  0  0  0  0  0  0  0  0
  -28.8730  -16.6050   22.1330 O   0  0  0  0  0  0  0  0  0  0  0  0
  -31.2450  -16.7700   21.8500 C   0  0  0  0  0  2  0  0  0  0  0  0
  -32.0440  -15.8090   20.9510 C   0  0  0  0  0  2  0  0  0  0  0  0
  -31.7850  -13.5480   19.9570 C   0  0  0  0  0  0  0  0  0  0  0  0
  -31.1160  -11.4480   18.8640 C   0  0  0  0  0  2  0  0  0  0  0  0
  -30.1310  -11.7130   17.7070 C   0  0  0  0  0  2  0  0  0  0  0  0
  -28.6840  -11.8170   18.2230 C   0  0  0  0  0  2  0  0  0  0  0  0
  -28.5430  -12.7630   19.4450 C   0  0  0  0  0  3  0  0  0  0  0  0
  -29.6060  -12.4180   20.5100 C   0  0  0  0  0  2  0  0  0  0  0  0
  -30.9330  -12.4990   19.8710 N   0  0  0  0  0  0  0  0  0  0  0  0
  -32.8280  -13.6460   19.3020 O   0  0  0  0  0  0  0  0  0  0  0  0
  -31.3840  -14.5160   20.7840 N   0  0  0  0  0  0  0  0  0  0  0  0
  -30.5270  -14.3410   21.2900 H   0  0  0  0  0  0  0  0  0  0  0  0
  -26.3220  -13.7560   20.2960 C   0  0  0  0  0  0  0  0  0  0  0  0
  -25.1640  -13.1680   20.7260 C   0  0  0  0  0  0  0  0  0  0  0  0
  -25.3850  -11.7580   20.6450 C   0  0  0  0  0  0  0  0  0  0  0  0
  -27.1920  -12.7170   19.9980 N   0  0  0  0  0  0  0  0  0  0  0  0
  -26.6290  -11.5090   20.2600 N   0  0  0  0  0  0  0  0  0  0  0  0
  -24.4730  -10.6300   20.8580 C   0  0  0  0  0  0  0  0  0  0  0  0
  -24.7860   -9.5860   21.7560 C   0  0  0  0  0  3  0  0  0  0  0  0
  -23.8830   -8.5220   21.9590 C   0  0  0  0  0  3  0  0  0  0  0  0
  -22.6500   -8.4940   21.2660 C   0  0  0  0  0  0  0  0  0  0  0  0
  -22.3540   -9.5260   20.3570 C   0  0  0  0  0  3  0  0  0  0  0  0
  -23.2550  -10.5810   20.1490 C   0  0  0  0  0  3  0  0  0  0  0  0
  -21.7240   -7.4860   21.3810 O   0  0  0  0  0  0  0  0  0  0  0  0
  -21.6170   -6.7330   22.5220 C   0  0  0  0  0  0  0  0  0  0  0  0
  -21.3420   -7.3170   23.7780 C   0  0  0  0  0  3  0  0  0  0  0  0
  -21.1720   -6.5000   24.9130 C   0  0  0  0  0  3  0  0  0  0  0  0
  -21.2660   -5.1000   24.7920 C   0  0  0  0  0  0  0  0  0  0  0  0
  -21.5340   -4.5180   23.5430 C   0  0  0  0  0  3  0  0  0  0  0  0
  -21.7070   -5.3320   22.4100 C   0  0  0  0  0  0  0  0  0  0  0  0
  -21.9450   -4.7640   21.2020 F   0  0  0  0  0  0  0  0  0  0  0  0
  -21.0960   -4.3120   25.8800 F   0  0  0  0  0  0  0  0  0  0  0  0
  -23.8850  -13.8660   21.0980 C   0  0  0  0  0  0  0  0  0  0  0  0
  -23.1160  -13.2920   22.0170 N   0  0  0  0  0  0  0  0  0  0  0  0
  -23.5870  -14.9530   20.6070 O   0  0  0  0  0  0  0  0  0  0  0  0
  -23.3710  -12.4160   22.4500 H   0  0  0  0  0  0  0  0  0  0  0  0
  -22.2590  -13.7420   22.3030 H   0  0  0  0  0  0  0  0  0  0  0  0
  -26.6990  -15.0810   20.1180 N   0  0  0  0  0  0  0  0  0  0  0  0
  -26.0370  -15.8360   20.2510 H   0  0  0  0  0  0  0  0  0  0  0  0
  -27.6000  -15.4000   19.7870 H   0  0  0  0  0  0  0  0  0  0  0  0
  -30.7920  -23.3210   15.3810 C   0  0  0  0  0  2  0  0  0  0  0  0
  -30.4450  -24.7000   15.9820 C   0  0  0  0  0  2  0  0  0  0  0  0
  -29.6950  -24.5970   17.3230 C   0  0  0  0  0  2  0  0  0  0  0  0
  -29.5430  -25.9020   18.1300 C   0  0  0  0  0  3  0  0  0  0  0  0
  -28.9900  -26.9990   17.3010 N   0  0  0  0  0  4  0  0  0  0  0  0
  -28.1010  -26.7560   16.8990 H   0  0  0  0  0  0  0  0  0  0  0  0
  -29.6230  -27.2370   16.5560 H   0  0  0  0  0  0  0  0  0  0  0  0
  -28.8720  -27.8240   17.8660 H   0  0  0  0  0  0  0  0  0  0  0  0
  -28.6660  -25.6370   19.3730 C   0  0  0  0  0  2  0  0  0  0  0  0
  -28.4330  -26.8540   20.0800 O   0  0  0  0  0  0  0  0  0  0  0  0
  -24.5930  -31.9110   23.1910 C   0  0  0  0  0  0  0  0  0  0  0  0
  -27.2080  -27.4880   20.0650 C   0  0  0  0  0  0  0  0  0  0  0  0
  -23.3620  -30.5140   21.5590 C   0  0  0  0  0  3  0  0  0  0  0  0
  -24.7960  -28.9730   20.1210 C   0  0  0  0  0  0  0  0  0  0  0  0
  -25.8830  -30.8720   21.3320 C   0  0  0  0  0  2  0  0  0  0  0  0
  -25.9560  -29.5010   20.6970 C   0  0  0  0  0  0  0  0  0  0  0  0
  -27.1560  -28.7610   20.6730 C   0  0  0  0  0  3  0  0  0  0  0  0
  -26.0200  -26.9640   19.4910 C   0  0  0  0  0  3  0  0  0  0  0  0
  -24.8220  -27.7020   19.5220 C   0  0  0  0  0  3  0  0  0  0  0  0
  -23.5530  -29.8320   20.1790 C   0  0  0  0  0  2  0  0  0  0  0  0
  -24.6310  -31.1130   22.0880 N   0  0  0  0  0  0  0  0  0  0  0  0
  -23.5170  -32.1850   23.7440 O   0  0  0  0  0  0  0  0  0  0  0  0
  -22.7210  -29.4930   22.5260 C   0  0  0  0  0  0  0  0  0  0  0  0
  -21.3940  -29.3190   22.4150 N   0  0  0  0  0  0  0  0  0  0  0  0
  -23.4110  -28.8620   23.3300 O   0  0  0  0  0  0  0  0  0  0  0  0
  -20.9000  -29.8800   21.7350 H   0  0  0  0  0  0  0  0  0  0  0  0
  -18.0190  -28.1470   22.9440 C   0  0  0  0  0  0  0  0  0  0  0  0
  -20.5810  -28.3850   23.1910 C   0  0  0  0  0  3  0  0  0  0  0  0
  -20.6670  -26.9550   22.6080 C   0  0  0  0  0  2  0  0  0  0  0  0
  -19.5520  -26.6430   21.6050 C   0  0  0  0  0  2  0  0  0  0  0  0
  -18.1790  -26.7970   22.2650 C   0  0  0  0  0  2  0  0  0  0  0  0
  -19.1480  -28.8980   23.3660 C   0  0  0  0  0  0  0  0  0  0  0  0
  -18.9440  -30.1630   23.9600 C   0  0  0  0  0  3  0  0  0  0  0  0
  -17.6460  -30.6750   24.1400 C   0  0  0  0  0  3  0  0  0  0  0  0
  -16.5310  -29.9180   23.7360 C   0  0  0  0  0  3  0  0  0  0  0  0
  -16.7190  -28.6570   23.1440 C   0  0  0  0  0  3  0  0  0  0  0  0
  -25.8880  -32.5350   23.7980 C   0  0  0  0  0  3  0  0  0  0  0  0
  -26.4300  -31.7460   25.0530 C   0  0  1  0  0  0  0  0  0  0  0  0
  -25.3570  -31.4880   26.1360 C   0  0  0  0  0  1  0  0  0  0  0  0
  -27.0070  -30.3770   24.6240 C   0  0  0  0  0  1  0  0  0  0  0  0
  -27.5910  -32.5330   25.7050 C   0  0  0  0  0  1  0  0  0  0  0  0
  -25.5830  -33.9290   24.1510 N   0  0  0  0  0  0  0  0  0  0  0  0
  -25.9030  -34.9900   23.4000 C   0  0  0  0  0  0  0  0  0  0  0  0
  -26.5600  -34.9000   22.3590 O   0  0  0  0  0  0  0  0  0  0  0  0
  -25.0000  -34.0720   24.9620 H   0  0  0  0  0  0  0  0  0  0  0  0
  -24.1720  -36.7860   23.0850 C   0  0  0  0  0  1  0  0  0  0  0  0
  -25.4200  -36.3710   23.8800 C   0  0  0  0  0  3  0  0  0  0  0  0
  -27.5620  -37.2450   24.7040 C   0  0  0  0  0  1  0  0  0  0  0  0
  -26.4520  -37.4260   23.7730 N   0  0  0  0  0  0  0  0  0  0  0  0
  -26.0470  -38.3430   23.9370 H   0  0  0  0  0  0  0  0  0  0  0  0
  1  3  1  0
  2  1  2  0
  3  9  1  0
  5  8  2  0
  6  4  2  0
  7  9  2  0
  7  5  1  0
  8  4  1  0
  8 10  1  0
  9  6  1  0
 10 12  1  0
 10 11  2  0
 13 12  1  0
 14 22  1  0
 15 20  1  0
 16 17  1  0
 16 15  1  0
 18 17  1  0
 18 27  1  0
 18 19  1  0
 20 14  1  0
 20 19  1  0
 21 14  2  0
 22 13  1  0
 22 23  1  0
 24 25  2  0
 25 44  1  0
 26 25  1  0
 26 29  1  0
 27 28  1  0
 27 24  1  0
 28 26  2  0
 29 30  1  0
 30 31  2  0
 32 35  1  0
 32 31  1  0
 33 32  2  0
 34 33  1  0
 34 29  2  0
 35 36  1  0
 36 37  1  0
 37 38  2  0
 39 38  1  0
 39 43  1  0
 40 39  2  0
 41 36  2  0
 41 40  1  0
 42 41  1  0
 44 45  1  0
 45 48  1  0
 45 47  1  0
 46 44  2  0
 49 50  1  0
 49 24  1  0
 51 49  1  0
 52  2  1  0
 52 53  1  0
 53 54  1  0
 55 54  1  0
 55 60  1  0
 56 59  1  0
 56 55  1  0
 57 56  1  0
 58 56  1  0
 60 61  1  0
 62 73  2  0
 63 61  1  0
 63 68  1  0
 64 72  1  0
 64 74  1  0
 65 71  1  0
 65 67  1  0
 66 72  1  0
 67 66  1  0
 68 67  2  0
 69 70  1  0
 69 63  2  0
 70 65  2  0
 71 64  1  0
 72 62  1  0
 74 76  2  0
 75 74  1  0
 77 75  1  0
 78 87  2  0
 78 83  1  0
 79 75  1  0
 79 83  1  0
 80 79  1  0
 81 82  1  0
 81 80  1  0
 82 78  1  0
 83 84  2  0
 84 85  1  0
 86 85  2  0
 87 86  1  0
 88 62  1  0
 88 93  1  0
 88 89  1  0
 89 92  1  1
 89 90  1  0
 91 89  1  0
 93 96  1  0
 94 98  1  0
 94 93  1  0
 95 94  2  0
 98 97  1  0
100 98  1  0
100101  1  0
100 99  1  0
M  ISO  4  14 100  22 100  60 101  61 101
M  END
>  <TORSDO>  (89) 
F 27

>  <SCORE>  (89) 
-10.334

>  <name>  (89) 
88

>  <ligand_id>  (89) 
88

>  <original_smiles>  (89) 
[H]C(=C([H])C([H])([H])C([H])([H])C([H])([H])C([H])(C([H])([H])Oc1c([H])c([H])c2c(c1[H])C([H])([H])N(C(=O)C([H])(N([H])C(=O)C([H])(N([H])C([H])([H])[H])C([H])([H])[H])C(C([H])([H])[H])(C([H])([H])[H])C([H])([H])[H])C([H])(C(=O)N([H])C1([H])c3c([H])c([H])c([H])c([H])c3C([H])([H])C([H])([H])C1([H])[H])C2([H])[H])[N+]([H])([H])[H])C([H])([H])c1c([H])c([H])c(C(=O)C([H])([H])C([H])([H])N([H])C(=O)N2C([H])([H])C([H])([H])C([H])([H])C([H])(n3nc(-c4c([H])c([H])c(Oc5c([H])c([H])c(F)c([H])c5F)c([H])c4[H])c(C(=O)N([H])[H])c3N([H])[H])C2([H])[H])c([H])c1[H]

>  <smiles>  (89) 
[H]C(=C([H])C([H])([H])C([H])([H])C([H])([H])C([H])(C([H])([H])Oc1c([H])c([H])c2c(c1[H])C([H])([H])N(C(=O)C([H])(N([H])C(=O)C([H])(N([H])C([H])([H])[H])C([H])([H])[H])C(C([H])([H])[H])(C([H])([H])[H])C([H])([H])[H])C([H])(C(=O)N([H])C1([H])c3c([H])c([H])c([H])c([H])c3C([H])([H])C([H])([H])C1([H])[H])C2([H])[H])[N+]([H])([H])[H])C([H])([H])c1c([H])c([H])c(C(=O)C([H])([H])C([H])([H])N([H])C(=O)N2C([H])([H])C([H])([H])C([H])([H])C([H])(n3nc(-c4c([H])c([H])c(Oc5c([H])c([H])c(F)c([H])c5F)c([H])c4[H])c(C(=O)N([H])[H])c3N([H])[H])C2([H])[H])c([H])c1[H]

$$$$
89:0:0
     RDKit          3D

 99108  0  0  1  0  0  0  0  0999 V2000
  -26.3150  -22.6180   21.3330 C   0  0  0  0  0  2  0  0  0  0  0  0
  -24.8100  -22.9340   21.3420 C   0  0  0  0  0  2  0  0  0  0  0  0
  -25.2870  -25.2350   20.6030 C   0  0  0  0  0  2  0  0  0  0  0  0
  -27.1640  -23.5240   20.4020 C   0  0  0  0  0  3  0  0  0  0  0  0
  -26.8190  -25.0170   20.6640 C   0  0  0  0  0  3  0  0  0  0  0  0
  -24.5650  -24.3730   21.5620 N   0  0  0  0  0  4  0  0  0  0  0  0
  -24.8220  -24.6190   22.5050 H   0  0  0  0  0  0  0  0  0  0  0  0
  -23.5740  -24.5390   21.4750 H   0  0  0  0  0  0  0  0  0  0  0  0
  -28.6760  -23.2370   20.5830 C   0  0  0  0  0  2  0  0  0  0  0  0
  -29.0110  -20.8450   21.3530 C   0  0  0  0  0  3  0  0  0  0  0  0
  -29.5150  -21.4220   19.0330 C   0  0  0  0  0  3  0  0  0  0  0  0
  -29.3580  -19.5130   21.0920 C   0  0  0  0  0  3  0  0  0  0  0  0
  -29.9010  -20.0950   18.7860 C   0  0  0  0  0  3  0  0  0  0  0  0
  -29.0690  -21.8000   20.3180 C   0  0  0  0  0  0  0  0  0  0  0  0
  -29.8200  -19.1390   19.8140 C   0  0  0  0  0  0  0  0  0  0  0  0
  -30.1670  -17.6960   19.5390 C   0  0  0  0  0  2  0  0  0  0  0  0
  -32.7200  -17.5620   19.8860 C   0  0  0  0  0  1  0  0  0  0  0  0
  -31.3310  -17.1460   20.3930 C   0  0  0  0  0  3  0  0  0  0  0  0
  -31.5080  -14.7870   19.6020 C   0  0  0  0  0  0  0  0  0  0  0  0
  -31.1930  -12.4350   18.9700 C   0  0  0  0  0  2  0  0  0  0  0  0
  -30.1910  -12.2870   17.8170 C   0  0  0  0  0  2  0  0  0  0  0  0
  -28.7510  -12.2020   18.3560 C   0  0  0  0  0  2  0  0  0  0  0  0
  -28.4200  -13.3480   19.3450 C   0  0  0  0  0  3  0  0  0  0  0  0
  -29.5240  -13.4750   20.4190 C   0  0  0  0  0  2  0  0  0  0  0  0
  -30.8370  -13.6240   19.7510 N   0  0  0  0  0  0  0  0  0  0  0  0
  -32.3690  -14.9850   18.7370 O   0  0  0  0  0  0  0  0  0  0  0  0
  -31.1890  -15.7030   20.5190 N   0  0  0  0  0  0  0  0  0  0  0  0
  -30.5470  -15.3820   21.2300 H   0  0  0  0  0  0  0  0  0  0  0  0
  -26.1750  -14.1170   20.3540 C   0  0  0  0  0  0  0  0  0  0  0  0
  -25.0810  -13.4150   20.7860 C   0  0  0  0  0  0  0  0  0  0  0  0
  -25.4030  -12.0350   20.6130 C   0  0  0  0  0  0  0  0  0  0  0  0
  -27.1000  -13.1640   19.9490 N   0  0  0  0  0  0  0  0  0  0  0  0
  -26.6410  -11.9030   20.1510 N   0  0  0  0  0  0  0  0  0  0  0  0
  -24.5830  -10.8300   20.7980 C   0  0  0  0  0  0  0  0  0  0  0  0
  -24.8880   -9.8700   21.7900 C   0  0  0  0  0  3  0  0  0  0  0  0
  -24.0690   -8.7340   21.9630 C   0  0  0  0  0  3  0  0  0  0  0  0
  -22.9360   -8.5410   21.1360 C   0  0  0  0  0  0  0  0  0  0  0  0
  -22.6480   -9.4900   20.1380 C   0  0  0  0  0  3  0  0  0  0  0  0
  -23.4680  -10.6180   19.9640 C   0  0  0  0  0  3  0  0  0  0  0  0
  -22.1020   -7.4500   21.2130 O   0  0  0  0  0  0  0  0  0  0  0  0
  -21.8000   -6.8580   22.4130 C   0  0  0  0  0  0  0  0  0  0  0  0
  -21.1720   -7.5710   23.4560 C   0  0  0  0  0  3  0  0  0  0  0  0
  -20.8120   -6.9080   24.6470 C   0  0  0  0  0  3  0  0  0  0  0  0
  -21.0720   -5.5320   24.7930 C   0  0  0  0  0  0  0  0  0  0  0  0
  -21.6940   -4.8170   23.7550 C   0  0  0  0  0  3  0  0  0  0  0  0
  -22.0520   -5.4790   22.5660 C   0  0  0  0  0  0  0  0  0  0  0  0
  -22.6310   -4.7820   21.5590 F   0  0  0  0  0  0  0  0  0  0  0  0
  -20.7210   -4.8930   25.9350 F   0  0  0  0  0  0  0  0  0  0  0  0
  -23.7750  -13.9900   21.2520 C   0  0  0  0  0  0  0  0  0  0  0  0
  -23.1170  -13.3260   22.1990 N   0  0  0  0  0  0  0  0  0  0  0  0
  -23.3550  -15.0610   20.8170 O   0  0  0  0  0  0  0  0  0  0  0  0
  -23.4680  -12.4530   22.5630 H   0  0  0  0  0  0  0  0  0  0  0  0
  -22.2480  -13.6950   22.5590 H   0  0  0  0  0  0  0  0  0  0  0  0
  -26.4610  -15.4770   20.2600 N   0  0  0  0  0  0  0  0  0  0  0  0
  -25.8050  -16.2030   20.5340 H   0  0  0  0  0  0  0  0  0  0  0  0
  -27.3320  -15.8460   19.8990 H   0  0  0  0  0  0  0  0  0  0  0  0
  -27.5860  -26.0300   19.7640 C   0  0  0  0  0  2  0  0  0  0  0  0
  -27.2160  -26.0560   18.2520 C   0  0  0  0  0  2  0  0  0  0  0  0
  -27.2310  -27.3840   17.7090 O   0  0  0  0  0  0  0  0  0  0  0  0
  -24.9050  -31.3690   23.0660 C   0  0  0  0  0  0  0  0  0  0  0  0
  -26.2100  -28.1910   18.1520 C   0  0  0  0  0  0  0  0  0  0  0  0
  -23.2010  -30.7200   21.3930 C   0  0  0  0  0  3  0  0  0  0  0  0
  -24.1010  -29.7220   19.2290 C   0  0  0  0  0  0  0  0  0  0  0  0
  -25.6590  -30.9760   20.7300 C   0  0  0  0  0  2  0  0  0  0  0  0
  -25.4160  -29.9310   19.6660 C   0  0  0  0  0  0  0  0  0  0  0  0
  -26.4730  -29.1670   19.1320 C   0  0  0  0  0  3  0  0  0  0  0  0
  -24.8910  -28.0280   17.6810 C   0  0  0  0  0  3  0  0  0  0  0  0
  -23.8310  -28.7680   18.2340 C   0  0  0  0  0  3  0  0  0  0  0  0
  -23.0180  -30.5600   19.8610 C   0  0  0  0  0  2  0  0  0  0  0  0
  -24.6180  -31.0130   21.7840 N   0  0  0  0  0  0  0  0  0  0  0  0
  -24.0080  -31.4930   23.9120 O   0  0  0  0  0  0  0  0  0  0  0  0
  -22.6240  -29.4660   22.0860 C   0  0  0  0  0  0  0  0  0  0  0  0
  -21.2880  -29.3650   22.1160 N   0  0  0  0  0  0  0  0  0  0  0  0
  -23.3690  -28.6000   22.5490 O   0  0  0  0  0  0  0  0  0  0  0  0
  -20.7510  -30.1200   21.7120 H   0  0  0  0  0  0  0  0  0  0  0  0
  -17.9440  -28.0760   22.5700 C   0  0  0  0  0  0  0  0  0  0  0  0
  -20.5210  -28.2570   22.6850 C   0  0  0  0  0  3  0  0  0  0  0  0
  -20.5480  -27.0280   21.7490 C   0  0  0  0  0  2  0  0  0  0  0  0
  -19.3590  -26.9780   20.7850 C   0  0  0  0  0  2  0  0  0  0  0  0
  -18.0380  -26.9460   21.5600 C   0  0  0  0  0  2  0  0  0  0  0  0
  -19.1090  -28.7010   23.0860 C   0  0  0  0  0  0  0  0  0  0  0  0
  -18.9660  -29.7670   24.0010 C   0  0  0  0  0  3  0  0  0  0  0  0
  -17.6910  -30.2050   24.4040 C   0  0  0  0  0  3  0  0  0  0  0  0
  -16.5410  -29.5700   23.9050 C   0  0  0  0  0  3  0  0  0  0  0  0
  -16.6690  -28.5090   22.9910 C   0  0  0  0  0  3  0  0  0  0  0  0
  -26.3670  -31.6570   23.5300 C   0  0  0  0  0  3  0  0  0  0  0  0
  -26.3290  -32.8440   24.3960 N   0  0  0  0  0  0  0  0  0  0  0  0
  -26.6930  -34.0750   24.0190 C   0  0  0  0  0  0  0  0  0  0  0  0
  -27.1690  -34.3210   22.9070 O   0  0  0  0  0  0  0  0  0  0  0  0
  -25.8880  -32.7280   25.2960 H   0  0  0  0  0  0  0  0  0  0  0  0
  -25.2310  -36.0130   24.6810 C   0  0  0  0  0  1  0  0  0  0  0  0
  -26.4970  -35.2160   25.0370 C   0  0  0  0  0  3  0  0  0  0  0  0
  -28.8370  -35.5190   25.7100 C   0  0  0  0  0  1  0  0  0  0  0  0
  -27.6530  -36.1360   25.1200 N   0  0  0  0  0  0  0  0  0  0  0  0
  -27.4190  -36.9630   25.6650 H   0  0  0  0  0  0  0  0  0  0  0  0
  -27.0290  -30.4380   24.2810 C   0  0  1  0  0  0  0  0  0  0  0  0
  -26.1710  -29.8880   25.4430 C   0  0  0  0  0  1  0  0  0  0  0  0
  -27.3030  -29.2720   23.3020 C   0  0  0  0  0  1  0  0  0  0  0  0
  -28.3950  -30.8640   24.8660 C   0  0  0  0  0  1  0  0  0  0  0  0
  1  2  1  0
  2  6  1  0
  3  5  1  0
  3  6  1  0
  4  9  1  0
  4  5  1  0
  4  1  1  0
  5 57  1  0
  6  7  1  0
  8  6  1  0
 11 14  1  0
 12 10  1  0
 13 11  2  0
 13 15  1  0
 14  9  1  0
 14 10  2  0
 15 12  2  0
 16 15  1  0
 16 18  1  0
 18 17  1  0
 18 27  1  0
 19 25  1  0
 19 27  1  0
 20 25  1  0
 21 22  1  0
 21 20  1  0
 23 22  1  0
 23 32  1  0
 23 24  1  0
 25 24  1  0
 26 19  2  0
 27 28  1  0
 29 30  2  0
 30 49  1  0
 31 30  1  0
 31 34  1  0
 32 33  1  0
 32 29  1  0
 33 31  2  0
 34 35  1  0
 35 36  2  0
 37 40  1  0
 37 36  1  0
 38 37  2  0
 39 38  1  0
 39 34  2  0
 40 41  1  0
 41 46  2  0
 41 42  1  0
 42 43  2  0
 43 44  1  0
 44 48  1  0
 45 44  2  0
 46 45  1  0
 47 46  1  0
 49 50  1  0
 50 53  1  0
 50 52  1  0
 51 49  2  0
 54 29  1  0
 54 55  1  0
 56 54  1  0
 58 57  1  0
 59 61  1  0
 59 58  1  0
 60 71  2  0
 61 66  1  0
 62 70  1  0
 62 72  1  0
 63 65  1  0
 63 69  1  0
 64 70  1  0
 65 64  1  0
 66 65  2  0
 67 61  2  0
 67 68  1  0
 68 63  2  0
 69 62  1  0
 70 60  1  0
 72 73  1  0
 72 74  2  0
 75 73  1  0
 76 85  2  0
 76 81  1  0
 77 73  1  0
 77 81  1  0
 78 77  1  0
 79 80  1  0
 79 78  1  0
 80 76  1  0
 81 82  2  0
 82 83  1  0
 84 83  2  0
 85 84  1  0
 86 60  1  0
 86 96  1  0
 86 87  1  0
 87 90  1  0
 88 87  1  0
 88 92  1  0
 89 88  2  0
 92 91  1  0
 92 94  1  0
 94 95  1  0
 94 93  1  0
 96 99  1  1
 96 97  1  0
 98 96  1  0
M  ISO  4  19 100  27 100  58 101  59 101
M  END
>  <TORSDO>  (90) 
F 22

>  <SCORE>  (90) 
-8.321

>  <name>  (90) 
89

>  <ligand_id>  (90) 
89

>  <original_smiles>  (90) 
[H]c1c([H])c([H])c2c(c1[H])C([H])([H])C([H])([H])C([H])([H])C2([H])N([H])C(=O)C1([H])N(C(=O)C([H])(N([H])C(=O)C([H])(N([H])C([H])([H])[H])C([H])([H])[H])C(C([H])([H])[H])(C([H])([H])[H])C([H])([H])[H])C([H])([H])c2c([H])c(OC([H])([H])C([H])([H])C3([H])C([H])(C([H])([H])c4c([H])c([H])c(C([H])([H])C([H])(N([H])C(=O)N5C([H])([H])C([H])([H])C([H])([H])C([H])(n6nc(-c7c([H])c([H])c(Oc8c([H])c([H])c(F)c([H])c8F)c([H])c7[H])c(C(=O)N([H])[H])c6N([H])[H])C5([H])[H])C([H])([H])[H])c([H])c4[H])C([H])([H])C([H])([H])[N+]([H])([H])C3([H])[H])c([H])c([H])c2C1([H])[H]

>  <smiles>  (90) 
[H]c1c([H])c([H])c2c(c1[H])C([H])([H])C([H])([H])C([H])([H])C2([H])N([H])C(=O)C1([H])N(C(=O)C([H])(N([H])C(=O)C([H])(N([H])C([H])([H])[H])C([H])([H])[H])C(C([H])([H])[H])(C([H])([H])[H])C([H])([H])[H])C([H])([H])c2c([H])c(OC([H])([H])C([H])([H])C3([H])C([H])(C([H])([H])c4c([H])c([H])c(C([H])([H])C([H])(N([H])C(=O)N5C([H])([H])C([H])([H])C([H])([H])C([H])(n6nc(-c7c([H])c([H])c(Oc8c([H])c([H])c(F)c([H])c8F)c([H])c7[H])c(C(=O)N([H])[H])c6N([H])[H])C5([H])[H])C([H])([H])[H])c([H])c4[H])C([H])([H])C([H])([H])[N+]([H])([H])C3([H])[H])c([H])c([H])c2C1([H])[H]

$$$$
90:0:0
     RDKit          3D

 94 94  0  0  1  0  0  0  0  0999 V2000
  -25.6660  -14.2690   18.6090 C   0  0  0  0  0  2  0  0  0  0  0  0
  -25.2840  -14.7440   19.8630 C   0  0  0  0  0  2  0  0  0  0  0  0
  -28.5390  -11.3580   19.3820 C   0  0  0  0  0  1  0  0  0  0  0  0
  -27.2020  -11.8380   18.5640 C   0  0  0  0  0  2  0  0  0  0  0  0
  -29.6480  -13.0020   19.8160 C   0  0  0  0  0  1  0  0  0  0  0  0
  -27.9280  -14.5730   18.9100 C   0  0  0  0  0  2  0  0  0  0  0  0
  -26.9420  -13.4540   18.4300 C   0  0  0  0  0  3  0  0  0  0  0  0
  -29.2270  -14.3660   19.6600 C   0  0  0  0  0  3  0  0  0  0  0  0
  -29.8190  -15.0360   20.9500 C   0  0  0  0  0  2  0  0  0  0  0  0
  -31.1850  -12.9510   21.9120 C   0  0  0  0  0  0  0  0  0  0  0  0
  -31.2190  -11.1210   19.9000 C   0  0  0  0  0  1  0  0  0  0  0  0
  -30.7460  -11.7160   18.0460 C   0  0  0  0  0 15  0  0  0  0  0  0
  -29.0900  -12.7700   17.6850 C   0  0  0  0  0 15  0  0  0  0  0  0
  -27.8760  -12.6350   20.8110 C   0  0  0  0  0  3  0  0  0  0  0  0
  -29.0430  -11.7770   21.8490 C   0  0  0  0  0  3  0  0  0  0  0  0
  -30.6180  -11.7250   21.4500 N   0  0  0  0  0  0  0  0  0  0  0  0
  -32.3220  -13.2710   21.5870 O   0  0  0  0  0  0  0  0  0  0  0  0
  -30.3280  -14.0460   22.0400 N   0  0  0  0  0  0  0  0  0  0  0  0
  -30.5180  -14.5360   22.9030 H   0  0  0  0  0  0  0  0  0  0  0  0
  -25.2870  -13.6640   22.2610 C   0  0  0  0  0  3  0  0  0  0  0  0
  -23.8250  -12.7260   21.8160 C   0  0  0  0  0  0  0  0  0  0  0  0
  -24.2050  -11.2650   20.9710 C   0  0  0  0  0  3  0  0  0  0  0  0
  -26.6010  -12.6490   21.2650 N   0  0  0  0  0  2  0  0  0  0  0  0
  -25.6750  -11.3020   20.5900 N   0  0  0  0  0  2  0  0  0  0  0  0
  -23.8230   -9.7420   21.3580 C   0  0  0  0  0  0  0  0  0  0  0  0
  -24.4110   -8.8100   22.3280 C   0  0  0  0  0  3  0  0  0  0  0  0
  -23.8870   -7.4830   22.6020 C   0  0  0  0  0  3  0  0  0  0  0  0
  -22.7420   -7.0050   21.9090 C   0  0  0  0  0  0  0  0  0  0  0  0
  -22.2160   -7.8720   20.9350 C   0  0  0  0  0  3  0  0  0  0  0  0
  -22.7380   -9.1640   20.6750 C   0  0  0  0  0  3  0  0  0  0  0  0
  -22.1290   -5.7570   22.0040 O   0  0  0  0  0  0  0  0  0  0  0  0
  -21.8880   -5.0540   23.1690 C   0  0  0  0  0  0  0  0  0  0  0  0
  -21.2300   -5.6220   24.2840 C   0  0  0  0  0  3  0  0  0  0  0  0
  -20.9590   -4.8400   25.4280 C   0  0  0  0  0  3  0  0  0  0  0  0
  -21.3320   -3.4820   25.4680 C   0  0  0  0  0  0  0  0  0  0  0  0
  -21.9530   -2.9010   24.3510 C   0  0  0  0  0  3  0  0  0  0  0  0
  -22.2180   -3.6770   23.2070 C   0  0  0  0  0  0  0  0  0  0  0  0
  -22.7880   -3.0850   22.1290 F   0  0  0  0  0  0  0  0  0  0  0  0
  -21.0910   -2.7380   26.5740 F   0  0  0  0  0  0  0  0  0  0  0  0
  -22.4190  -12.8630   21.8950 C   0  0  0  0  0  0  0  0  0  0  0  0
  -21.8200  -11.9170   22.6060 N   0  0  0  0  0  0  0  0  0  0  0  0
  -21.8750  -13.6140   21.1140 O   0  0  0  0  0  0  0  0  0  0  0  0
  -22.3580  -11.2820   23.1750 H   0  0  0  0  0  0  0  0  0  0  0  0
  -20.8110  -11.8690   22.6360 H   0  0  0  0  0  0  0  0  0  0  0  0
  -25.6500  -14.8850   22.6310 N   0  0  0  0  0  0  0  0  0  0  0  0
  -25.0380  -15.5140   23.1390 H   0  0  0  0  0  0  0  0  0  0  0  0
  -26.6260  -15.1540   22.6790 H   0  0  0  0  0  0  0  0  0  0  0  0
  -25.3430  -16.7040   19.7900 C   0  0  0  0  0  0  0  0  0  0  0  0
  -26.3380  -18.1230   19.6740 N   0  0  0  0  0  2  0  0  0  0  0  0
  -24.2000  -17.1490   19.8970 O   0  0  0  0  0  0  0  0  0  0  0  0
  -27.2550  -17.7290   19.5080 H   0  0  0  0  0  0  0  0  0  0  0  0
  -26.6910  -20.1340   19.9390 C   0  0  0  0  0 15  0  0  0  0  0  0
  -27.2880  -22.2450   19.3000 C   0  0  0  0  0 15  0  0  0  0  0  0
  -27.9180  -24.1800   19.5600 O   0  0  0  0  0  1  0  0  0  0  0  0
  -25.2820  -31.2470   22.7230 C   0  0  0  0  0  0  0  0  0  0  0  0
  -27.4570  -25.7920   19.5550 C   0  0  0  0  0  0  0  0  0  0  0  0
  -24.1700  -29.8890   21.0320 C   0  0  0  0  0  3  0  0  0  0  0  0
  -25.6020  -28.2900   19.5290 C   0  0  0  0  0  0  0  0  0  0  0  0
  -26.7550  -29.8670   21.0300 C   0  0  0  0  0  2  0  0  0  0  0  0
  -26.7640  -28.4250   20.2830 C   0  0  0  0  0  0  0  0  0  0  0  0
  -27.6900  -27.1930   20.2770 C   0  0  0  0  0  3  0  0  0  0  0  0
  -26.4170  -26.0790   18.6660 C   0  0  0  0  0  3  0  0  0  0  0  0
  -25.5170  -27.1780   18.6850 C   0  0  0  0  0  3  0  0  0  0  0  0
  -24.4480  -29.3010   19.6200 C   0  0  0  0  0  2  0  0  0  0  0  0
  -25.4370  -30.3900   21.6420 N   0  0  0  0  0  0  0  0  0  0  0  0
  -24.1610  -31.5130   23.1990 O   0  0  0  0  0  0  0  0  0  0  0  0
  -23.4650  -28.8460   21.9430 C   0  0  0  0  0  0  0  0  0  0  0  0
  -22.1390  -28.6570   21.7980 N   0  0  0  0  0  0  0  0  0  0  0  0
  -24.1250  -28.2150   22.7720 O   0  0  0  0  0  0  0  0  0  0  0  0
  -21.6460  -29.2250   21.1220 H   0  0  0  0  0  0  0  0  0  0  0  0
  -18.7890  -27.3340   22.2750 C   0  0  0  0  0  0  0  0  0  0  0  0
  -21.3420  -27.6610   22.5280 C   0  0  0  0  0  3  0  0  0  0  0  0
  -21.4750  -26.2640   21.8790 C   0  0  0  0  0  2  0  0  0  0  0  0
  -20.3750  -25.9690   20.8540 C   0  0  0  0  0  2  0  0  0  0  0  0
  -18.9970  -26.0350   21.5160 C   0  0  0  0  0  2  0  0  0  0  0  0
  -19.8890  -28.1060   22.7360 C   0  0  0  0  0  0  0  0  0  0  0  0
  -19.6350  -29.3180   23.4140 C   0  0  0  0  0  3  0  0  0  0  0  0
  -18.3160  -29.7620   23.6280 C   0  0  0  0  0  3  0  0  0  0  0  0
  -17.2320  -28.9900   23.1770 C   0  0  0  0  0  3  0  0  0  0  0  0
  -17.4690  -27.7760   22.5070 C   0  0  0  0  0  3  0  0  0  0  0  0
  -26.4860  -31.9510   23.4190 C   0  0  0  0  0  3  0  0  0  0  0  0
  -26.0300  -33.2670   23.9310 N   0  0  0  0  0  0  0  0  0  0  0  0
  -26.2130  -34.4510   23.3310 C   0  0  0  0  0  0  0  0  0  0  0  0
  -26.8330  -34.5630   22.2720 O   0  0  0  0  0  0  0  0  0  0  0  0
  -25.4610  -33.2430   24.7650 H   0  0  0  0  0  0  0  0  0  0  0  0
  -24.2770  -36.0760   23.3560 C   0  0  0  0  0  1  0  0  0  0  0  0
  -25.6220  -35.7130   24.0070 C   0  0  0  0  0  3  0  0  0  0  0  0
  -27.7030  -36.7550   24.7990 C   0  0  0  0  0  1  0  0  0  0  0  0
  -26.5190  -36.8900   23.9570 N   0  0  0  0  0  0  0  0  0  0  0  0
  -26.0230  -37.7310   24.2410 H   0  0  0  0  0  0  0  0  0  0  0  0
  -27.0790  -31.1110   24.6200 C   0  0  1  0  0  0  0  0  0  0  0  0
  -26.0210  -30.6700   25.6610 C   0  0  0  0  0  1  0  0  0  0  0  0
  -27.7840  -29.8330   24.1220 C   0  0  0  0  0  1  0  0  0  0  0  0
  -28.1600  -31.9390   25.3550 C   0  0  0  0  0  1  0  0  0  0  0  0
  1  2  1  0
  4  3  1  0
  6  8  1  0
  7  4  1  0
  7  1  1  0
  7  6  1  0
  8  5  1  0
  8  9  1  0
  9 18  1  0
 10 18  1  0
 11 16  1  0
 14 23  1  0
 14 15  2  0
 16 15  1  0
 16 10  1  0
 17 10  2  0
 18 19  1  0
 20 45  1  0
 21 40  1  0
 21 20  2  0
 22 24  1  0
 22 25  1  0
 22 21  1  0
 24 23  1  0
 25 26  1  0
 26 27  2  0
 28 31  1  0
 28 27  1  0
 29 28  2  0
 30 29  1  0
 30 25  2  0
 31 32  1  0
 32 37  2  0
 32 33  1  0
 33 34  2  0
 34 35  1  0
 35 39  1  0
 36 35  2  0
 37 36  1  0
 38 37  1  0
 40 41  1  0
 41 44  1  0
 41 43  1  0
 42 40  2  0
 45 47  1  0
 45 46  1  0
 48  2  1  0
 48 50  2  0
 49 48  1  0
 51 49  1  0
 55 66  2  0
 56 54  1  0
 56 61  1  0
 57 65  1  0
 57 67  1  0
 58 64  1  0
 58 60  1  0
 59 65  1  0
 60 59  1  0
 61 60  2  0
 62 63  1  0
 62 56  2  0
 63 58  2  0
 64 57  1  0
 65 55  1  0
 67 69  2  0
 68 67  1  0
 70 68  1  0
 71 80  2  0
 71 76  1  0
 72 68  1  0
 72 76  1  0
 73 72  1  0
 74 75  1  0
 74 73  1  0
 75 71  1  0
 76 77  2  0
 77 78  1  0
 79 78  2  0
 80 79  1  0
 81 55  1  0
 81 82  1  0
 81 91  1  0
 82 85  1  0
 83 82  1  0
 83 87  1  0
 84 83  2  0
 87 86  1  0
 89 87  1  0
 89 90  1  0
 89 88  1  0
 91 94  1  1
 91 92  1  0
 93 91  1  0
M  ISO  4  10 100  18 100  53 101  54 101
M  END
>  <TORSDO>  (91) 
F 21

>  <SCORE>  (91) 
-3.160

>  <name>  (91) 
90

>  <ligand_id>  (91) 
90

>  <original_smiles>  (91) 
[H]C(C(=O)N([H])C([H])([H])C([H])([H])Oc1c([H])c([H])c2c(c1[H])C([H])([H])N(C(=O)C([H])(N([H])C(=O)C([H])(N([H])C([H])([H])[H])C([H])([H])[H])C(C([H])([H])[H])(C([H])([H])[H])C([H])([H])[H])C([H])(C(=O)N([H])C1([H])c3c([H])c([H])c([H])c([H])c3C([H])([H])C([H])([H])C1([H])[H])C2([H])[H])=C([H])c1c([H])c([H])c([H])c(C([H])([H])N([H])C(=O)N2C([H])([H])C([H])([H])C([H])([H])C([H])(n3nc(-c4c([H])c([H])c(Oc5c([H])c([H])c(F)c([H])c5F)c([H])c4[H])c(C(=O)N([H])[H])c3N([H])[H])C2([H])[H])c1[H]

>  <smiles>  (91) 
[H]C(C(=O)N([H])C([H])([H])C([H])([H])Oc1c([H])c([H])c2c(c1[H])C([H])([H])N(C(=O)C([H])(N([H])C(=O)C([H])(N([H])C([H])([H])[H])C([H])([H])[H])C(C([H])([H])[H])(C([H])([H])[H])C([H])([H])[H])C([H])(C(=O)N([H])C1([H])c3c([H])c([H])c([H])c([H])c3C([H])([H])C([H])([H])C1([H])[H])C2([H])[H])=C([H])c1c([H])c([H])c([H])c(C([H])([H])N([H])C(=O)N2C([H])([H])C([H])([H])C([H])([H])C([H])(n3nc(-c4c([H])c([H])c(Oc5c([H])c([H])c(F)c([H])c5F)c([H])c4[H])c(C(=O)N([H])[H])c3N([H])[H])C2([H])[H])c1[H]

$$$$
91:0:0
     RDKit          3D

 93100  0  0  1  0  0  0  0  0999 V2000
  -26.7430  -17.5550   19.8580 C   0  0  0  0  0  0  0  0  0  0  0  0
  -26.6440  -16.1870   20.3810 N   0  0  0  0  0  0  0  0  0  0  0  0
  -25.6700  -18.1320   19.6920 O   0  0  0  0  0  0  0  0  0  0  0  0
  -27.5510  -15.7470   20.4750 H   0  0  0  0  0  0  0  0  0  0  0  0
  -28.1060  -18.5380   19.4700 C   0  0  0  0  0  2  0  0  0  0  0  0
  -28.1980  -20.1250   18.6840 C   0  0  0  0  0  2  0  0  0  0  0  0
  -29.2500  -21.4800   18.9020 C   0  0  0  0  0  0  0  0  0  0  0  0
  -30.2590  -21.2590   19.5780 O   0  0  0  0  0  0  0  0  0  0  0  0
  -29.0620  -23.0980   18.3260 C   0  0  0  0  0  2  0  0  0  0  0  0
  -29.8390  -24.4710   18.7550 O   0  0  0  0  0  0  0  0  0  0  0  0
  -26.7130  -29.5560   23.0570 C   0  0  0  0  0  0  0  0  0  0  0  0
  -29.1120  -25.7360   18.8500 C   0  0  0  0  0  0  0  0  0  0  0  0
  -25.5690  -28.8200   21.0080 C   0  0  0  0  0  3  0  0  0  0  0  0
  -27.0300  -27.7300   19.2000 C   0  0  0  0  0  0  0  0  0  0  0  0
  -28.1400  -28.9450   21.0570 C   0  0  0  0  0  2  0  0  0  0  0  0
  -28.1800  -27.8230   19.9950 C   0  0  0  0  0  0  0  0  0  0  0  0
  -29.2380  -26.8410   19.8110 C   0  0  0  0  0  3  0  0  0  0  0  0
  -28.0210  -25.8630   17.9750 C   0  0  0  0  0  3  0  0  0  0  0  0
  -26.9850  -26.7920   18.1640 C   0  0  0  0  0  3  0  0  0  0  0  0
  -25.8490  -28.6400   19.4940 C   0  0  0  0  0  2  0  0  0  0  0  0
  -26.8260  -29.1160   21.7650 N   0  0  0  0  0  0  0  0  0  0  0  0
  -25.6060  -29.7110   23.5960 O   0  0  0  0  0  0  0  0  0  0  0  0
  -24.8090  -27.5830   21.5550 C   0  0  0  0  0  0  0  0  0  0  0  0
  -23.4780  -27.5360   21.3590 N   0  0  0  0  0  0  0  0  0  0  0  0
  -25.4210  -26.6800   22.1340 O   0  0  0  0  0  0  0  0  0  0  0  0
  -23.0440  -28.3170   20.8880 H   0  0  0  0  0  0  0  0  0  0  0  0
  -20.0200  -26.4500   21.4400 C   0  0  0  0  0  0  0  0  0  0  0  0
  -22.5880  -26.4430   21.7590 C   0  0  0  0  0  3  0  0  0  0  0  0
  -22.6090  -25.2970   20.7210 C   0  0  0  0  0  2  0  0  0  0  0  0
  -21.5040  -25.4200   19.6660 C   0  0  0  0  0  2  0  0  0  0  0  0
  -20.1240  -25.4170   20.3310 C   0  0  0  0  0  2  0  0  0  0  0  0
  -21.1780  -26.9440   22.1000 C   0  0  0  0  0  0  0  0  0  0  0  0
  -21.0270  -27.9250   23.1030 C   0  0  0  0  0  3  0  0  0  0  0  0
  -19.7520  -28.4120   23.4490 C   0  0  0  0  0  3  0  0  0  0  0  0
  -18.6090  -27.9110   22.8020 C   0  0  0  0  0  3  0  0  0  0  0  0
  -18.7440  -26.9290   21.8050 C   0  0  0  0  0  3  0  0  0  0  0  0
  -27.9690  -29.9050   23.9110 C   0  0  0  0  0  3  0  0  0  0  0  0
  -28.3580  -28.7680   24.9350 C   0  0  1  0  0  0  0  0  0  0  0  0
  -27.1850  -28.3120   25.8350 C   0  0  0  0  0  1  0  0  0  0  0  0
  -28.8980  -27.5210   24.2010 C   0  0  0  0  0  1  0  0  0  0  0  0
  -29.4980  -29.2620   25.8570 C   0  0  0  0  0  1  0  0  0  0  0  0
  -27.6860  -31.1590   24.6300 N   0  0  0  0  0  0  0  0  0  0  0  0
  -28.1100  -32.3730   24.2530 C   0  0  0  0  0  0  0  0  0  0  0  0
  -28.8460  -32.5470   23.2790 O   0  0  0  0  0  0  0  0  0  0  0  0
  -27.0450  -31.0980   25.4080 H   0  0  0  0  0  0  0  0  0  0  0  0
  -26.4800  -34.2880   24.3790 C   0  0  0  0  0  1  0  0  0  0  0  0
  -27.6470  -33.5840   25.0890 C   0  0  0  0  0  3  0  0  0  0  0  0
  -29.7460  -34.0570   26.2750 C   0  0  0  0  0  1  0  0  0  0  0  0
  -28.7250  -34.5610   25.3600 N   0  0  0  0  0  0  0  0  0  0  0  0
  -28.3430  -35.4170   25.7520 H   0  0  0  0  0  0  0  0  0  0  0  0
  -25.4200  -15.2800   21.0330 C   0  0  0  0  0  2  0  0  0  0  0  0
  -25.1510  -13.5390   21.5050 C   0  0  0  0  0  1  0  0  0  0  0  0
  -26.6260  -10.9370   19.4300 C   0  0  0  0  0  2  0  0  0  0  0  0
  -28.4050  -11.0990   19.2820 C   0  0  0  0  0  2  0  0  0  0  0  0
  -29.7520  -11.7120   20.2570 C   0  0  0  0  0  2  0  0  0  0  0  0
  -30.9900  -10.5260   22.6710 C   0  0  0  0  0  0  0  0  0  0  0  0
  -30.7480   -8.2500   22.1580 C   0  0  0  0  0  2  0  0  0  0  0  0
  -30.3430   -8.4420   20.6930 C   0  0  0  0  0  2  0  0  0  0  0  0
  -28.8620   -8.8190   20.7260 C   0  0  0  0  0  2  0  0  0  0  0  0
  -28.4040   -9.9120   21.8380 C   0  0  0  0  0  3  0  0  0  0  0  0
  -28.8260   -9.4390   23.1590 C   0  0  0  0  0  2  0  0  0  0  0  0
  -30.2610   -9.4150   22.8950 N   0  0  0  0  0  0  0  0  0  0  0  0
  -32.0180  -10.6290   23.3560 O   0  0  0  0  0  0  0  0  0  0  0  0
  -30.8150  -11.1900   21.3930 N   0  0  0  0  0  0  0  0  0  0  0  0
  -31.6690  -11.7120   21.2550 H   0  0  0  0  0  0  0  0  0  0  0  0
  -26.3310  -11.7080   20.6700 C   0  0  1  0  0  0  0  0  0  0  0  0
  -24.8160  -11.1600   20.7630 C   0  0  0  0  0  3  0  0  0  0  0  0
  -24.7650   -9.7920   21.6010 C   0  0  0  0  0  0  0  0  0  0  0  0
  -27.1800  -10.4470   21.6970 N   0  0  0  0  0  0  0  0  0  0  0  0
  -26.0850   -9.4190   22.1560 N   0  0  0  0  0  0  0  0  0  0  0  0
  -23.6740   -8.7510   21.7390 C   0  0  0  0  0  0  0  0  0  0  0  0
  -23.5400   -7.9340   22.8960 C   0  0  0  0  0  3  0  0  0  0  0  0
  -22.4860   -6.9890   23.0240 C   0  0  0  0  0  3  0  0  0  0  0  0
  -21.5330   -6.8280   21.9890 C   0  0  0  0  0  0  0  0  0  0  0  0
  -21.7000   -7.5850   20.8140 C   0  0  0  0  0  3  0  0  0  0  0  0
  -22.7530   -8.5190   20.6880 C   0  0  0  0  0  3  0  0  0  0  0  0
  -20.4750   -5.9420   22.0310 O   0  0  0  0  0  0  0  0  0  0  0  0
  -19.8680   -5.5760   23.2120 C   0  0  0  0  0  0  0  0  0  0  0  0
  -19.2700   -6.5230   24.0730 C   0  0  0  0  0  3  0  0  0  0  0  0
  -18.6050   -6.0990   25.2420 C   0  0  0  0  0  3  0  0  0  0  0  0
  -18.5260   -4.7280   25.5540 C   0  0  0  0  0  0  0  0  0  0  0  0
  -19.1080   -3.7810   24.6930 C   0  0  0  0  0  3  0  0  0  0  0  0
  -19.7700   -4.2020   23.5260 C   0  0  0  0  0  0  0  0  0  0  0  0
  -20.3070   -3.2780   22.6940 F   0  0  0  0  0  0  0  0  0  0  0  0
  -17.8890   -4.3210   26.6770 F   0  0  0  0  0  0  0  0  0  0  0  0
  -23.5610  -11.8780   20.4400 C   0  0  0  0  0  0  0  0  0  0  0  0
  -22.4850  -11.6230   21.1910 N   0  0  0  0  0  0  0  0  0  0  0  0
  -23.5630  -12.7400   19.5800 O   0  0  0  0  0  0  0  0  0  0  0  0
  -22.4960  -10.9230   21.9190 H   0  0  0  0  0  0  0  0  0  0  0  0
  -21.6220  -12.1200   21.0110 H   0  0  0  0  0  0  0  0  0  0  0  0
  -26.9290  -12.7600   20.0460 N   0  0  0  0  0  0  0  0  0  0  0  0
  -26.3540  -13.5030   19.6720 H   0  0  0  0  0  0  0  0  0  0  0  0
  -27.8030  -13.1020   20.4190 H   0  0  0  0  0  0  0  0  0  0  0  0
  1  2  1  0
  2  4  1  0
  2 51  1  0
  3  1  2  0
  5  1  1  0
  6  7  1  0
  6  5  1  0
  7  8  2  0
  9 10  1  0
  9  7  1  0
 10 12  1  0
 11 22  2  0
 12 17  1  0
 13 23  1  0
 13 21  1  0
 14 20  1  0
 14 16  1  0
 15 21  1  0
 16 15  1  0
 17 16  2  0
 18 19  1  0
 18 12  2  0
 19 14  2  0
 20 13  1  0
 21 11  1  0
 23 25  2  0
 24 23  1  0
 26 24  1  0
 27 36  2  0
 27 32  1  0
 28 24  1  0
 28 32  1  0
 29 28  1  0
 30 31  1  0
 30 29  1  0
 31 27  1  0
 32 33  2  0
 33 34  1  0
 35 34  2  0
 36 35  1  0
 37 11  1  0
 37 42  1  0
 37 38  1  0
 38 39  1  1
 38 41  1  0
 40 38  1  0
 42 45  1  0
 43 42  1  0
 43 47  1  0
 44 43  2  0
 47 46  1  0
 47 49  1  0
 49 50  1  0
 49 48  1  0
 51 52  1  0
 53 66  1  0
 54 53  1  0
 54 55  1  0
 55 64  1  0
 56 62  1  0
 56 63  2  0
 57 62  1  0
 58 59  1  0
 58 57  1  0
 60 59  1  0
 60 61  1  0
 62 61  1  0
 64 56  1  0
 65 64  1  0
 66 91  1  6
 66 67  1  0
 66 69  1  0
 67 86  1  0
 67 68  1  0
 68 71  1  0
 68 70  2  0
 69 60  1  0
 69 70  1  0
 71 72  1  0
 72 73  2  0
 74 77  1  0
 74 73  1  0
 75 74  2  0
 76 75  1  0
 76 71  2  0
 77 78  1  0
 78 83  2  0
 78 79  1  0
 79 80  2  0
 80 81  1  0
 81 85  1  0
 82 81  2  0
 83 82  1  0
 84 83  1  0
 86 87  1  0
 87 89  1  0
 88 86  2  0
 90 87  1  0
 91 93  1  0
 92 91  1  0
M  ISO  4   9 101  10 101  56 100  64 100
M  END
>  <TORSDO>  (92) 
F 25

>  <SCORE>  (92) 
-6.363

>  <name>  (92) 
91

>  <ligand_id>  (92) 
91

>  <original_smiles>  (92) 
[H]c1c([H])c([H])c2c(c1[H])C([H])([H])C([H])([H])C([H])([H])C2([H])N([H])C(=O)C1([H])N(C(=O)C([H])(N([H])C(=O)C([H])(N([H])C([H])([H])[H])C([H])([H])[H])C(C([H])([H])[H])(C([H])([H])[H])C([H])([H])[H])C([H])([H])c2c([H])c(OC([H])([H])C(=O)C([H])([H])C([H])([H])C(=O)N([H])C([H])([H])C([H])([H])C([H])([H])C([H])([H])C([H])([H])N([H])C(=O)N3C([H])([H])C([H])([H])C([H])([H])C([H])(n4nc(-c5c([H])c([H])c(Oc6c([H])c([H])c(F)c([H])c6F)c([H])c5[H])c(C(=O)N([H])[H])c4N([H])[H])C3([H])[H])c([H])c([H])c2C1([H])[H]

>  <smiles>  (92) 
[H]c1c([H])c([H])c2c(c1[H])C([H])([H])C([H])([H])C([H])([H])C2([H])N([H])C(=O)C1([H])N(C(=O)C([H])(N([H])C(=O)C([H])(N([H])C([H])([H])[H])C([H])([H])[H])C(C([H])([H])[H])(C([H])([H])[H])C([H])([H])[H])C([H])([H])c2c([H])c(OC([H])([H])C(=O)C([H])([H])C([H])([H])C(=O)N([H])C([H])([H])C([H])([H])C([H])([H])C([H])([H])C([H])([H])N([H])C(=O)N3C([H])([H])C([H])([H])C([H])([H])C([H])(n4nc(-c5c([H])c([H])c(Oc6c([H])c([H])c(F)c([H])c6F)c([H])c5[H])c(C(=O)N([H])[H])c4N([H])[H])C3([H])[H])c([H])c([H])c2C1([H])[H]

$$$$
92:0:0
     RDKit          3D

 92 99  0  0  1  0  0  0  0  0999 V2000
  -30.1830  -23.7170   19.1680 C   0  0  0  0  0  3  0  0  0  0  0  0
  -30.2720  -22.4490   19.9530 N   0  0  0  0  0  4  0  0  0  0  0  0
  -31.2330  -22.4280   20.2630 H   0  0  0  0  0  0  0  0  0  0  0  0
  -29.7080  -22.4960   20.7880 H   0  0  0  0  0  0  0  0  0  0  0  0
  -30.0120  -21.2010   19.1850 C   0  0  0  0  0  2  0  0  0  0  0  0
  -30.5840  -19.9000   19.8230 C   0  0  0  0  0  3  0  0  0  0  0  0
  -29.7820  -19.2970   21.0040 C   0  0  0  0  0  3  0  0  0  0  0  0
  -30.2380  -17.8800   21.4550 C   0  0  0  0  0  2  0  0  0  0  0  0
  -30.1090  -16.8090   20.3460 C   0  0  0  0  0  2  0  0  0  0  0  0
  -30.7480  -14.4100   20.2310 C   0  0  0  0  0  0  0  0  0  0  0  0
  -30.3510  -12.2990   19.0280 C   0  0  0  0  0  2  0  0  0  0  0  0
  -29.3790  -12.5890   17.8670 C   0  0  0  0  0  2  0  0  0  0  0  0
  -27.9170  -12.4720   18.3460 C   0  0  0  0  0  2  0  0  0  0  0  0
  -27.6500  -13.2660   19.6530 C   0  0  0  0  0  3  0  0  0  0  0  0
  -28.7350  -12.9640   20.7140 C   0  0  0  0  0  2  0  0  0  0  0  0
  -30.0530  -13.2460   20.1150 N   0  0  0  0  0  0  0  0  0  0  0  0
  -31.8290  -14.6070   19.6670 O   0  0  0  0  0  0  0  0  0  0  0  0
  -30.0790  -15.4170   20.8220 N   0  0  0  0  0  0  0  0  0  0  0  0
  -29.2460  -15.1400   21.3200 H   0  0  0  0  0  0  0  0  0  0  0  0
  -25.2830  -13.9130   20.4350 C   0  0  0  0  0  0  0  0  0  0  0  0
  -24.2120  -13.1590   20.8320 C   0  0  0  0  0  0  0  0  0  0  0  0
  -24.6470  -11.7980   20.7760 C   0  0  0  0  0  0  0  0  0  0  0  0
  -26.3050  -13.0150   20.1670 N   0  0  0  0  0  0  0  0  0  0  0  0
  -25.9260  -11.7370   20.4260 N   0  0  0  0  0  0  0  0  0  0  0  0
  -23.9050  -10.5470   20.9800 C   0  0  0  0  0  0  0  0  0  0  0  0
  -24.3590   -9.5580   21.8800 C   0  0  0  0  0  3  0  0  0  0  0  0
  -23.6170   -8.3720   22.0730 C   0  0  0  0  0  3  0  0  0  0  0  0
  -22.4090   -8.1690   21.3650 C   0  0  0  0  0  0  0  0  0  0  0  0
  -21.9720   -9.1500   20.4540 C   0  0  0  0  0  3  0  0  0  0  0  0
  -22.7140  -10.3260   20.2610 C   0  0  0  0  0  3  0  0  0  0  0  0
  -21.6330   -7.0410   21.4710 O   0  0  0  0  0  0  0  0  0  0  0  0
  -21.6290   -6.2750   22.6080 C   0  0  0  0  0  0  0  0  0  0  0  0
  -21.2880   -6.8140   23.8680 C   0  0  0  0  0  3  0  0  0  0  0  0
  -21.2280   -5.9770   25.0000 C   0  0  0  0  0  3  0  0  0  0  0  0
  -21.4970   -4.6010   24.8750 C   0  0  0  0  0  0  0  0  0  0  0  0
  -21.8300   -4.0610   23.6210 C   0  0  0  0  0  3  0  0  0  0  0  0
  -21.8930   -4.8940   22.4900 C   0  0  0  0  0  0  0  0  0  0  0  0
  -22.1950   -4.3650   21.2800 F   0  0  0  0  0  0  0  0  0  0  0  0
  -21.4300   -3.7950   25.9600 F   0  0  0  0  0  0  0  0  0  0  0  0
  -22.8350  -13.6600   21.1580 C   0  0  0  0  0  0  0  0  0  0  0  0
  -22.1230  -12.9740   22.0440 N   0  0  0  0  0  0  0  0  0  0  0  0
  -22.4010  -14.7000   20.6650 O   0  0  0  0  0  0  0  0  0  0  0  0
  -22.4890  -12.1320   22.4650 H   0  0  0  0  0  0  0  0  0  0  0  0
  -21.2030  -13.2950   22.3090 H   0  0  0  0  0  0  0  0  0  0  0  0
  -25.4630  -15.2840   20.2620 N   0  0  0  0  0  0  0  0  0  0  0  0
  -24.7040  -15.9420   20.3980 H   0  0  0  0  0  0  0  0  0  0  0  0
  -26.3070  -15.7200   19.9120 H   0  0  0  0  0  0  0  0  0  0  0  0
  -31.3160  -24.6280   19.6530 C   0  0  0  0  0  3  0  0  0  0  0  0
  -31.8740  -24.5080   20.7490 O   0  0  0  0  0  0  0  0  0  0  0  0
  -28.7930  -24.4310   19.1720 C   0  0  0  0  0  2  0  0  0  0  0  0
  -28.3780  -25.2650   20.4170 C   0  0  0  0  0  2  0  0  0  0  0  0
  -28.4290  -26.6840   20.1670 O   0  0  0  0  0  0  0  0  0  0  0  0
  -24.6090  -31.8490   23.2350 C   0  0  0  0  0  0  0  0  0  0  0  0
  -27.2410  -27.3940   20.1600 C   0  0  0  0  0  0  0  0  0  0  0  0
  -23.3930  -30.4510   21.5910 C   0  0  0  0  0  3  0  0  0  0  0  0
  -24.8400  -28.9010   20.1690 C   0  0  0  0  0  0  0  0  0  0  0  0
  -25.9170  -30.8070   21.3800 C   0  0  0  0  0  2  0  0  0  0  0  0
  -26.0000  -29.4290   20.7500 C   0  0  0  0  0  0  0  0  0  0  0  0
  -27.2010  -28.6840   20.7370 C   0  0  0  0  0  3  0  0  0  0  0  0
  -26.0630  -26.8800   19.5720 C   0  0  0  0  0  3  0  0  0  0  0  0
  -24.8670  -27.6250   19.5780 C   0  0  0  0  0  3  0  0  0  0  0  0
  -23.5970  -29.7610   20.2140 C   0  0  0  0  0  2  0  0  0  0  0  0
  -24.6590  -31.0510   22.1280 N   0  0  0  0  0  0  0  0  0  0  0  0
  -23.5310  -32.1200   23.7810 O   0  0  0  0  0  0  0  0  0  0  0  0
  -22.7390  -29.4340   22.5560 C   0  0  0  0  0  0  0  0  0  0  0  0
  -21.4130  -29.2630   22.4320 N   0  0  0  0  0  0  0  0  0  0  0  0
  -23.4210  -28.8000   23.3660 O   0  0  0  0  0  0  0  0  0  0  0  0
  -20.9240  -29.8230   21.7470 H   0  0  0  0  0  0  0  0  0  0  0  0
  -18.0330  -28.0880   22.9370 C   0  0  0  0  0  0  0  0  0  0  0  0
  -20.5940  -28.3280   23.2040 C   0  0  0  0  0  3  0  0  0  0  0  0
  -20.6850  -26.8990   22.6210 C   0  0  0  0  0  2  0  0  0  0  0  0
  -19.5790  -26.5860   21.6100 C   0  0  0  0  0  2  0  0  0  0  0  0
  -18.1990  -26.7400   22.2580 C   0  0  0  0  0  2  0  0  0  0  0  0
  -19.1590  -28.8410   23.3670 C   0  0  0  0  0  0  0  0  0  0  0  0
  -18.9520  -30.1020   23.9650 C   0  0  0  0  0  3  0  0  0  0  0  0
  -17.6530  -30.6140   24.1380 C   0  0  0  0  0  3  0  0  0  0  0  0
  -16.5410  -29.8600   23.7240 C   0  0  0  0  0  3  0  0  0  0  0  0
  -16.7320  -28.6000   23.1300 C   0  0  0  0  0  3  0  0  0  0  0  0
  -25.9000  -32.4730   23.8530 C   0  0  0  0  0  3  0  0  0  0  0  0
  -26.4190  -31.6940   25.1230 C   0  0  1  0  0  0  0  0  0  0  0  0
  -25.3270  -31.4600   26.1930 C   0  0  0  0  0  1  0  0  0  0  0  0
  -26.9940  -30.3170   24.7200 C   0  0  0  0  0  1  0  0  0  0  0  0
  -27.5750  -32.4780   25.7870 C   0  0  0  0  0  1  0  0  0  0  0  0
  -25.5980  -33.8700   24.1920 N   0  0  0  0  0  0  0  0  0  0  0  0
  -25.9320  -34.9250   23.4390 C   0  0  0  0  0  0  0  0  0  0  0  0
  -26.5990  -34.8270   22.4060 O   0  0  0  0  0  0  0  0  0  0  0  0
  -25.0120  -34.0240   25.0000 H   0  0  0  0  0  0  0  0  0  0  0  0
  -24.2060  -36.7200   23.0920 C   0  0  0  0  0  1  0  0  0  0  0  0
  -25.4440  -36.3110   23.9060 C   0  0  0  0  0  3  0  0  0  0  0  0
  -27.5800  -37.1790   24.7450 C   0  0  0  0  0  1  0  0  0  0  0  0
  -26.4800  -37.3610   23.8020 N   0  0  0  0  0  0  0  0  0  0  0  0
  -26.0770  -38.2810   23.9560 H   0  0  0  0  0  0  0  0  0  0  0  0
  1 50  1  0
  1 48  1  0
  1  2  1  0
  2  3  1  0
  2  4  1  0
  5  6  1  0
  5  2  1  0
  6  7  2  0
  7  8  1  0
  9 18  1  0
  9  8  1  0
 10 18  1  0
 11 16  1  0
 12 13  1  0
 12 11  1  0
 14 13  1  0
 14 23  1  0
 14 15  1  0
 16 10  1  0
 16 15  1  0
 17 10  2  0
 18 19  1  0
 20 21  2  0
 21 40  1  0
 22 21  1  0
 22 25  1  0
 23 24  1  0
 23 20  1  0
 24 22  2  0
 25 26  1  0
 26 27  2  0
 28 31  1  0
 28 27  1  0
 29 28  2  0
 30 29  1  0
 30 25  2  0
 31 32  1  0
 32 33  1  0
 33 34  2  0
 35 34  1  0
 35 39  1  0
 36 35  2  0
 37 32  2  0
 37 36  1  0
 38 37  1  0
 40 41  1  0
 41 44  1  0
 41 43  1  0
 42 40  2  0
 45 46  1  0
 45 20  1  0
 47 45  1  0
 48 49  2  0
 50 51  1  0
 52 51  1  0
 53 64  2  0
 54 52  1  0
 54 59  1  0
 55 63  1  0
 55 65  1  0
 56 62  1  0
 56 58  1  0
 57 63  1  0
 58 57  1  0
 59 58  2  0
 60 61  1  0
 60 54  2  0
 61 56  2  0
 62 55  1  0
 63 53  1  0
 65 67  2  0
 66 65  1  0
 68 66  1  0
 69 78  2  0
 69 74  1  0
 70 66  1  0
 70 74  1  0
 71 70  1  0
 72 73  1  0
 72 71  1  0
 73 69  1  0
 74 75  2  0
 75 76  1  0
 77 76  2  0
 78 77  1  0
 79 53  1  0
 79 84  1  0
 79 80  1  0
 80 83  1  1
 80 81  1  0
 82 80  1  0
 84 87  1  0
 85 89  1  0
 85 84  1  0
 86 85  2  0
 89 88  1  0
 91 89  1  0
 91 92  1  0
 91 90  1  0
M  ISO  4  10 100  18 100  51 101  52 101
M  END
>  <TORSDO>  (93) 
F 25

>  <SCORE>  (93) 
-11.842

>  <name>  (93) 
92

>  <ligand_id>  (93) 
92

>  <original_smiles>  (93) 
[H]C(=O)C([H])(C([H])([H])C([H])([H])Oc1c([H])c([H])c2c(c1[H])C([H])([H])N(C(=O)C([H])(N([H])C(=O)C([H])(N([H])C([H])([H])[H])C([H])([H])[H])C(C([H])([H])[H])(C([H])([H])[H])C([H])([H])[H])C([H])(C(=O)N([H])C1([H])c3c([H])c([H])c([H])c([H])c3C([H])([H])C([H])([H])C1([H])[H])C2([H])[H])[N+]([H])([H])C([H])([H])C([H])([H])C([H])([H])C([H])([H])C([H])([H])N([H])C(=O)N1C([H])([H])C([H])([H])C([H])([H])C([H])(n2nc(-c3c([H])c([H])c(Oc4c([H])c([H])c(F)c([H])c4F)c([H])c3[H])c(C(=O)N([H])[H])c2N([H])[H])C1([H])[H]

>  <smiles>  (93) 
[H]C(=O)C([H])(C([H])([H])C([H])([H])Oc1c([H])c([H])c2c(c1[H])C([H])([H])N(C(=O)C([H])(N([H])C(=O)C([H])(N([H])C([H])([H])[H])C([H])([H])[H])C(C([H])([H])[H])(C([H])([H])[H])C([H])([H])[H])C([H])(C(=O)N([H])C1([H])c3c([H])c([H])c([H])c([H])c3C([H])([H])C([H])([H])C1([H])[H])C2([H])[H])[N+]([H])([H])C([H])([H])C([H])([H])C([H])([H])C([H])([H])C([H])([H])N([H])C(=O)N1C([H])([H])C([H])([H])C([H])([H])C([H])(n2nc(-c3c([H])c([H])c(Oc4c([H])c([H])c(F)c([H])c4F)c([H])c3[H])c(C(=O)N([H])[H])c2N([H])[H])C1([H])[H]

$$$$
93:0:0
     RDKit          3D

 93102  0  0  1  0  0  0  0  0999 V2000
  -29.5100  -21.6860   18.8750 C   0  0  0  0  0  3  0  0  0  0  0  0
  -28.6260  -21.9440   21.0840 C   0  0  0  0  0  3  0  0  0  0  0  0
  -29.8120  -20.3110   19.1340 C   0  0  0  0  0  3  0  0  0  0  0  0
  -28.9100  -20.5640   21.3400 C   0  0  0  0  0  3  0  0  0  0  0  0
  -28.9600  -22.5710   19.8540 C   0  0  0  0  0  0  0  0  0  0  0  0
  -29.5650  -19.7140   20.3970 C   0  0  0  0  0  0  0  0  0  0  0  0
  -32.2220  -17.1360   21.5510 C   0  0  0  0  0  2  0  0  0  0  0  0
  -31.7660  -18.2030   20.5290 C   0  0  0  0  0  2  0  0  0  0  0  0
  -30.9510  -16.5080   22.1750 C   0  0  0  0  0  2  0  0  0  0  0  0
  -30.2910  -18.3810   20.8590 C   0  0  0  0  0  3  0  0  0  0  0  0
  -29.7740  -16.9170   21.2530 C   0  0  0  0  0  3  0  0  0  0  0  0
  -30.2930  -14.7520   19.8400 C   0  0  0  0  0  0  0  0  0  0  0  0
  -30.0240  -12.5610   18.6850 C   0  0  0  0  0  2  0  0  0  0  0  0
  -28.9530  -12.6990   17.5840 C   0  0  0  0  0  2  0  0  0  0  0  0
  -27.5390  -12.4830   18.1650 C   0  0  0  0  0  2  0  0  0  0  0  0
  -27.2940  -13.2850   19.4710 C   0  0  0  0  0  3  0  0  0  0  0  0
  -28.4670  -13.1220   20.4570 C   0  0  0  0  0  2  0  0  0  0  0  0
  -29.6850  -13.5320   19.7410 N   0  0  0  0  0  0  0  0  0  0  0  0
  -31.4330  -14.9330   19.4080 O   0  0  0  0  0  0  0  0  0  0  0  0
  -29.5050  -15.7850   20.2880 N   0  0  0  0  0  0  0  0  0  0  0  0
  -28.5320  -15.5240   20.2830 H   0  0  0  0  0  0  0  0  0  0  0  0
  -24.9750  -13.7790   20.4580 C   0  0  0  0  0  0  0  0  0  0  0  0
  -23.9800  -12.9580   20.9130 C   0  0  0  0  0  0  0  0  0  0  0  0
  -24.4830  -11.6260   20.7930 C   0  0  0  0  0  0  0  0  0  0  0  0
  -26.0170  -12.9440   20.0870 N   0  0  0  0  0  0  0  0  0  0  0  0
  -25.7340  -11.6430   20.3520 N   0  0  0  0  0  0  0  0  0  0  0  0
  -23.8230  -10.3340   21.0150 C   0  0  0  0  0  0  0  0  0  0  0  0
  -24.3270   -9.4000   21.9470 C   0  0  0  0  0  3  0  0  0  0  0  0
  -23.6680   -8.1690   22.1550 C   0  0  0  0  0  3  0  0  0  0  0  0
  -22.4910   -7.8650   21.4320 C   0  0  0  0  0  0  0  0  0  0  0  0
  -22.0080   -8.7870   20.4860 C   0  0  0  0  0  3  0  0  0  0  0  0
  -22.6690  -10.0090   20.2760 C   0  0  0  0  0  3  0  0  0  0  0  0
  -21.7960   -6.6850   21.5510 O   0  0  0  0  0  0  0  0  0  0  0  0
  -21.7510   -5.9920   22.7340 C   0  0  0  0  0  0  0  0  0  0  0  0
  -21.2260   -6.5630   23.9140 C   0  0  0  0  0  3  0  0  0  0  0  0
  -21.1330   -5.7900   25.0890 C   0  0  0  0  0  3  0  0  0  0  0  0
  -21.5570   -4.4480   25.0850 C   0  0  0  0  0  0  0  0  0  0  0  0
  -22.0740   -3.8770   23.9100 C   0  0  0  0  0  3  0  0  0  0  0  0
  -22.1700   -4.6460   22.7370 C   0  0  0  0  0  0  0  0  0  0  0  0
  -22.6480   -4.0830   21.6020 F   0  0  0  0  0  0  0  0  0  0  0  0
  -21.4630   -3.7040   26.2120 F   0  0  0  0  0  0  0  0  0  0  0  0
  -22.6010  -13.3740   21.3400 C   0  0  0  0  0  0  0  0  0  0  0  0
  -21.9930  -12.6330   22.2590 N   0  0  0  0  0  0  0  0  0  0  0  0
  -22.0720  -14.3900   20.8900 O   0  0  0  0  0  0  0  0  0  0  0  0
  -22.4350  -11.8120   22.6460 H   0  0  0  0  0  0  0  0  0  0  0  0
  -21.0710  -12.8900   22.5830 H   0  0  0  0  0  0  0  0  0  0  0  0
  -25.0740  -15.1610   20.3030 N   0  0  0  0  0  0  0  0  0  0  0  0
  -24.3000  -15.7800   20.5160 H   0  0  0  0  0  0  0  0  0  0  0  0
  -25.8480  -15.6380   19.8630 H   0  0  0  0  0  0  0  0  0  0  0  0
  -28.8230  -24.0940   19.5480 C   0  0  0  0  0  0  0  0  0  0  0  0
  -29.2850  -24.5470   18.4970 O   0  0  0  0  0  0  0  0  0  0  0  0
  -28.1150  -25.1360   20.5070 C   0  0  0  0  0  2  0  0  0  0  0  0
  -28.3060  -26.5790   20.1530 O   0  0  0  0  0  0  0  0  0  0  0  0
  -24.5710  -31.9600   23.2250 C   0  0  0  0  0  0  0  0  0  0  0  0
  -27.1860  -27.4240   20.1450 C   0  0  0  0  0  0  0  0  0  0  0  0
  -23.3670  -30.5660   21.5830 C   0  0  0  0  0  3  0  0  0  0  0  0
  -24.8170  -29.0220   20.1510 C   0  0  0  0  0  0  0  0  0  0  0  0
  -25.9050  -30.9000   21.3840 C   0  0  0  0  0  2  0  0  0  0  0  0
  -25.9890  -29.5210   20.7340 C   0  0  0  0  0  0  0  0  0  0  0  0
  -27.1800  -28.7350   20.7130 C   0  0  0  0  0  3  0  0  0  0  0  0
  -25.9920  -26.9730   19.5450 C   0  0  0  0  0  3  0  0  0  0  0  0
  -24.8180  -27.7530   19.5510 C   0  0  0  0  0  3  0  0  0  0  0  0
  -23.5780  -29.8950   20.2010 C   0  0  0  0  0  2  0  0  0  0  0  0
  -24.6340  -31.1590   22.1210 N   0  0  0  0  0  0  0  0  0  0  0  0
  -23.4900  -32.2250   23.7690 O   0  0  0  0  0  0  0  0  0  0  0  0
  -22.7160  -29.5400   22.5420 C   0  0  0  0  0  0  0  0  0  0  0  0
  -21.3900  -29.3540   22.4200 N   0  0  0  0  0  0  0  0  0  0  0  0
  -23.4020  -28.9130   23.3540 O   0  0  0  0  0  0  0  0  0  0  0  0
  -20.8960  -29.9150   21.7400 H   0  0  0  0  0  0  0  0  0  0  0  0
  -18.0190  -28.1440   22.9320 C   0  0  0  0  0  0  0  0  0  0  0  0
  -20.5790  -28.4070   23.1880 C   0  0  0  0  0  3  0  0  0  0  0  0
  -20.6800  -26.9820   22.6000 C   0  0  0  0  0  2  0  0  0  0  0  0
  -19.5710  -26.6630   21.5910 C   0  0  0  0  0  2  0  0  0  0  0  0
  -18.1940  -26.7990   22.2460 C   0  0  0  0  0  2  0  0  0  0  0  0
  -19.1390  -28.9050   23.3620 C   0  0  0  0  0  0  0  0  0  0  0  0
  -18.9230  -30.1620   23.9660 C   0  0  0  0  0  3  0  0  0  0  0  0
  -17.6180  -30.6590   24.1460 C   0  0  0  0  0  3  0  0  0  0  0  0
  -16.5130  -29.8950   23.7360 C   0  0  0  0  0  3  0  0  0  0  0  0
  -16.7140  -28.6400   23.1350 C   0  0  0  0  0  3  0  0  0  0  0  0
  -25.8530  -32.5980   23.8460 C   0  0  0  0  0  3  0  0  0  0  0  0
  -26.3650  -31.8360   25.1320 C   0  0  1  0  0  0  0  0  0  0  0  0
  -25.2690  -31.6070   26.1980 C   0  0  0  0  0  1  0  0  0  0  0  0
  -26.9530  -30.4580   24.7520 C   0  0  0  0  0  1  0  0  0  0  0  0
  -27.5070  -32.6410   25.7970 C   0  0  0  0  0  1  0  0  0  0  0  0
  -25.5400  -33.9960   24.1700 N   0  0  0  0  0  0  0  0  0  0  0  0
  -25.8730  -35.0480   23.4100 C   0  0  0  0  0  0  0  0  0  0  0  0
  -26.5480  -34.9450   22.3820 O   0  0  0  0  0  0  0  0  0  0  0  0
  -24.9420  -34.1520   24.9660 H   0  0  0  0  0  0  0  0  0  0  0  0
  -24.1520  -36.8490   23.0420 C   0  0  0  0  0  1  0  0  0  0  0  0
  -25.3830  -36.4370   23.8650 C   0  0  0  0  0  3  0  0  0  0  0  0
  -27.5070  -37.3230   24.7250 C   0  0  0  0  0  1  0  0  0  0  0  0
  -26.4180  -37.4900   23.7650 N   0  0  0  0  0  0  0  0  0  0  0  0
  -26.0090  -38.4100   23.9080 H   0  0  0  0  0  0  0  0  0  0  0  0
  1  3  2  0
  1  5  1  0
  2  4  1  0
  3  6  1  0
  5  2  2  0
  6  4  2  0
  7  9  1  0
  8 10  1  0
  8  7  1  0
 10  6  1  0
 10 11  1  0
 11 20  1  0
 11  9  1  0
 12 20  1  0
 13 18  1  0
 14 15  1  0
 14 13  1  0
 16 15  1  0
 16 25  1  0
 16 17  1  0
 18 12  1  0
 18 17  1  0
 19 12  2  0
 21 20  1  0
 22 23  2  0
 23 42  1  0
 24 23  1  0
 24 27  1  0
 25 26  1  0
 25 22  1  0
 26 24  2  0
 27 28  1  0
 28 29  2  0
 30 33  1  0
 30 29  1  0
 31 30  2  0
 32 31  1  0
 32 27  2  0
 33 34  1  0
 34 39  2  0
 34 35  1  0
 35 36  2  0
 37 36  1  0
 37 41  1  0
 38 37  2  0
 39 38  1  0
 40 39  1  0
 42 43  1  0
 43 46  1  0
 43 45  1  0
 44 42  2  0
 47 22  1  0
 47 48  1  0
 49 47  1  0
 50  5  1  0
 50 52  1  0
 51 50  2  0
 53 52  1  0
 54 65  2  0
 55 53  1  0
 55 60  1  0
 56 64  1  0
 56 66  1  0
 57 63  1  0
 57 59  1  0
 58 64  1  0
 59 58  1  0
 60 59  2  0
 61 62  1  0
 61 55  2  0
 62 57  2  0
 63 56  1  0
 64 54  1  0
 66 68  2  0
 67 66  1  0
 69 67  1  0
 70 79  2  0
 70 75  1  0
 71 67  1  0
 71 75  1  0
 72 71  1  0
 73 74  1  0
 73 72  1  0
 74 70  1  0
 75 76  2  0
 76 77  1  0
 78 77  2  0
 79 78  1  0
 80 54  1  0
 80 85  1  0
 80 81  1  0
 81 84  1  1
 81 82  1  0
 83 81  1  0
 85 88  1  0
 86 90  1  0
 86 85  1  0
 87 86  2  0
 90 89  1  0
 92 90  1  0
 92 93  1  0
 92 91  1  0
M  ISO  4  12 100  20 100  52 101  53 101
M  END
>  <TORSDO>  (94) 
F 19

>  <SCORE>  (94) 
-13.111

>  <name>  (94) 
93

>  <ligand_id>  (94) 
93

>  <original_smiles>  (94) 
[H]c1c([H])c([H])c2c(c1[H])C([H])([H])C([H])([H])C([H])([H])C2([H])N([H])C(=O)C1([H])N(C(=O)C([H])(N([H])C(=O)C([H])(N([H])C([H])([H])[H])C([H])([H])[H])C(C([H])([H])[H])(C([H])([H])[H])C([H])([H])[H])C([H])([H])c2c([H])c(OC([H])([H])C(=O)c3c([H])c([H])c(C4([H])C([H])([H])C([H])([H])C([H])([H])C4([H])N([H])C(=O)N4C([H])([H])C([H])([H])C([H])([H])C([H])(n5nc(-c6c([H])c([H])c(Oc7c([H])c([H])c(F)c([H])c7F)c([H])c6[H])c(C(=O)N([H])[H])c5N([H])[H])C4([H])[H])c([H])c3[H])c([H])c([H])c2C1([H])[H]

>  <smiles>  (94) 
[H]c1c([H])c([H])c2c(c1[H])C([H])([H])C([H])([H])C([H])([H])C2([H])N([H])C(=O)C1([H])N(C(=O)C([H])(N([H])C(=O)C([H])(N([H])C([H])([H])[H])C([H])([H])[H])C(C([H])([H])[H])(C([H])([H])[H])C([H])([H])[H])C([H])([H])c2c([H])c(OC([H])([H])C(=O)c3c([H])c([H])c(C4([H])C([H])([H])C([H])([H])C([H])([H])C4([H])N([H])C(=O)N4C([H])([H])C([H])([H])C([H])([H])C([H])(n5nc(-c6c([H])c([H])c(Oc7c([H])c([H])c(F)c([H])c7F)c([H])c6[H])c(C(=O)N([H])[H])c5N([H])[H])C4([H])[H])c([H])c3[H])c([H])c([H])c2C1([H])[H]

$$$$
94:0:0
     RDKit          3D

 96103  0  0  1  0  0  0  0  0999 V2000
  -29.1390  -22.9680   20.7950 C   0  0  0  0  0  3  0  0  0  0  0  0
  -28.8400  -21.6670   20.1240 N   0  0  0  0  0  4  0  0  0  0  0  0
  -27.9540  -21.4230   20.5450 H   0  0  0  0  0  0  0  0  0  0  0  0
  -28.7170  -21.7910   19.1350 H   0  0  0  0  0  0  0  0  0  0  0  0
  -29.7560  -20.5050   20.3500 C   0  0  0  0  0  2  0  0  0  0  0  0
  -28.9620  -19.1650   20.4670 C   0  0  0  0  0  3  0  0  0  0  0  0
  -28.3300  -18.7860   19.2080 N   0  0  0  0  0  0  0  0  0  0  0  0
  -27.6040  -19.4360   18.9280 H   0  0  0  0  0  0  0  0  0  0  0  0
  -28.9930  -18.7740   18.4410 H   0  0  0  0  0  0  0  0  0  0  0  0
  -29.6980  -17.9200   21.0740 C   0  0  0  0  0  2  0  0  0  0  0  0
  -30.4710  -16.9350   20.1380 C   0  0  0  0  0  2  0  0  0  0  0  0
  -31.0600  -14.4860   20.0630 C   0  0  0  0  0  0  0  0  0  0  0  0
  -30.7530  -12.2680   19.0220 C   0  0  0  0  0  2  0  0  0  0  0  0
  -29.7990  -12.4350   17.8200 C   0  0  0  0  0  2  0  0  0  0  0  0
  -28.3250  -12.3390   18.2650 C   0  0  0  0  0  2  0  0  0  0  0  0
  -28.0130  -13.2290   19.4980 C   0  0  0  0  0  3  0  0  0  0  0  0
  -29.0760  -13.0270   20.6040 C   0  0  0  0  0  2  0  0  0  0  0  0
  -30.4000  -13.2960   20.0180 N   0  0  0  0  0  0  0  0  0  0  0  0
  -32.1650  -14.6610   19.5400 O   0  0  0  0  0  0  0  0  0  0  0  0
  -30.3380  -15.5180   20.5440 N   0  0  0  0  0  0  0  0  0  0  0  0
  -29.4680  -15.2590   20.9840 H   0  0  0  0  0  0  0  0  0  0  0  0
  -25.6460  -13.9130   20.2500 C   0  0  0  0  0  0  0  0  0  0  0  0
  -24.5600  -13.1730   20.6420 C   0  0  0  0  0  0  0  0  0  0  0  0
  -24.9790  -11.8080   20.6020 C   0  0  0  0  0  0  0  0  0  0  0  0
  -26.6590  -12.9980   19.9990 N   0  0  0  0  0  0  0  0  0  0  0  0
  -26.2620  -11.7280   20.2690 N   0  0  0  0  0  0  0  0  0  0  0  0
  -24.2190  -10.5690   20.8140 C   0  0  0  0  0  0  0  0  0  0  0  0
  -24.5970   -9.6280   21.7960 C   0  0  0  0  0  3  0  0  0  0  0  0
  -23.8410   -8.4520   21.9930 C   0  0  0  0  0  3  0  0  0  0  0  0
  -22.6920   -8.2100   21.2040 C   0  0  0  0  0  0  0  0  0  0  0  0
  -22.3330   -9.1370   20.2110 C   0  0  0  0  0  3  0  0  0  0  0  0
  -23.0900  -10.3040   20.0140 C   0  0  0  0  0  3  0  0  0  0  0  0
  -21.9130   -7.0820   21.3040 O   0  0  0  0  0  0  0  0  0  0  0  0
  -21.7530   -6.4200   22.4950 C   0  0  0  0  0  0  0  0  0  0  0  0
  -21.2160   -7.0590   23.6340 C   0  0  0  0  0  3  0  0  0  0  0  0
  -21.0020   -6.3250   24.8180 C   0  0  0  0  0  3  0  0  0  0  0  0
  -21.3150   -4.9540   24.8630 C   0  0  0  0  0  0  0  0  0  0  0  0
  -21.8440   -4.3140   23.7280 C   0  0  0  0  0  3  0  0  0  0  0  0
  -22.0590   -5.0460   22.5460 C   0  0  0  0  0  0  0  0  0  0  0  0
  -22.5500   -4.4220   21.4490 F   0  0  0  0  0  0  0  0  0  0  0  0
  -21.1030   -4.2450   25.9970 F   0  0  0  0  0  0  0  0  0  0  0  0
  -23.1850  -13.6940   20.9460 C   0  0  0  0  0  0  0  0  0  0  0  0
  -22.4570  -13.0240   21.8330 N   0  0  0  0  0  0  0  0  0  0  0  0
  -22.7650  -14.7280   20.4320 O   0  0  0  0  0  0  0  0  0  0  0  0
  -22.8090  -12.1870   22.2730 H   0  0  0  0  0  0  0  0  0  0  0  0
  -21.5350  -13.3580   22.0770 H   0  0  0  0  0  0  0  0  0  0  0  0
  -25.8490  -15.2780   20.0720 N   0  0  0  0  0  0  0  0  0  0  0  0
  -25.1080  -15.9580   20.2060 H   0  0  0  0  0  0  0  0  0  0  0  0
  -26.7130  -15.7020   19.7550 H   0  0  0  0  0  0  0  0  0  0  0  0
  -28.6410  -22.8440   22.2490 C   0  0  0  0  0  2  0  0  0  0  0  0
  -27.2410  -22.4370   22.2540 N   0  0  0  0  0  0  0  0  0  0  0  0
  -26.6610  -23.2120   21.9490 H   0  0  0  0  0  0  0  0  0  0  0  0
  -26.9510  -22.2980   23.2190 H   0  0  0  0  0  0  0  0  0  0  0  0
  -28.5170  -24.2120   20.0570 C   0  0  0  0  0  3  0  0  0  0  0  0
  -28.7340  -25.5880   20.7680 C   0  0  0  0  0  3  0  0  0  0  0  0
  -28.5730  -26.7680   19.9560 O   0  0  0  0  0  0  0  0  0  0  0  0
  -24.7100  -31.8030   23.3100 C   0  0  0  0  0  0  0  0  0  0  0  0
  -27.3950  -27.4800   20.0700 C   0  0  0  0  0  0  0  0  0  0  0  0
  -23.5240  -30.4720   21.5940 C   0  0  0  0  0  3  0  0  0  0  0  0
  -24.9980  -28.9860   20.1260 C   0  0  0  0  0  0  0  0  0  0  0  0
  -26.0530  -30.8310   21.4420 C   0  0  0  0  0  2  0  0  0  0  0  0
  -26.1490  -29.4850   20.7500 C   0  0  0  0  0  0  0  0  0  0  0  0
  -27.3520  -28.7390   20.7180 C   0  0  0  0  0  3  0  0  0  0  0  0
  -26.2280  -26.9940   19.4500 C   0  0  0  0  0  3  0  0  0  0  0  0
  -25.0310  -27.7390   19.4760 C   0  0  0  0  0  3  0  0  0  0  0  0
  -23.7530  -29.8460   20.1910 C   0  0  0  0  0  2  0  0  0  0  0  0
  -24.7800  -31.0500   22.1740 N   0  0  0  0  0  0  0  0  0  0  0  0
  -23.6240  -32.0530   23.8520 O   0  0  0  0  0  0  0  0  0  0  0  0
  -22.8610  -29.4110   22.5040 C   0  0  0  0  0  0  0  0  0  0  0  0
  -21.5370  -29.2410   22.3570 N   0  0  0  0  0  0  0  0  0  0  0  0
  -23.5360  -28.7480   23.2950 O   0  0  0  0  0  0  0  0  0  0  0  0
  -21.0520  -29.8330   21.6960 H   0  0  0  0  0  0  0  0  0  0  0  0
  -18.1530  -28.0530   22.7940 C   0  0  0  0  0  0  0  0  0  0  0  0
  -20.7120  -28.2700   23.0770 C   0  0  0  0  0  3  0  0  0  0  0  0
  -20.8020  -26.8710   22.4260 C   0  0  0  0  0  2  0  0  0  0  0  0
  -19.6960  -26.6050   21.4000 C   0  0  0  0  0  2  0  0  0  0  0  0
  -18.3150  -26.7380   22.0500 C   0  0  0  0  0  2  0  0  0  0  0  0
  -19.2790  -28.7790   23.2630 C   0  0  0  0  0  0  0  0  0  0  0  0
  -19.0730  -30.0110   23.9210 C   0  0  0  0  0  3  0  0  0  0  0  0
  -17.7730  -30.5170   24.1160 C   0  0  0  0  0  3  0  0  0  0  0  0
  -16.6610  -29.7850   23.6660 C   0  0  0  0  0  3  0  0  0  0  0  0
  -16.8520  -28.5540   23.0120 C   0  0  0  0  0  3  0  0  0  0  0  0
  -25.9900  -32.4040   23.9700 C   0  0  0  0  0  3  0  0  0  0  0  0
  -26.4840  -31.5820   25.2240 C   0  0  1  0  0  0  0  0  0  0  0  0
  -25.3740  -31.3110   26.2670 C   0  0  0  0  0  1  0  0  0  0  0  0
  -27.0660  -30.2180   24.7880 C   0  0  0  0  0  1  0  0  0  0  0  0
  -27.6270  -32.3450   25.9370 C   0  0  0  0  0  1  0  0  0  0  0  0
  -25.6910  -33.7920   24.3440 N   0  0  0  0  0  0  0  0  0  0  0  0
  -26.0360  -34.8670   23.6230 C   0  0  0  0  0  0  0  0  0  0  0  0
  -26.7170  -34.7930   22.5960 O   0  0  0  0  0  0  0  0  0  0  0  0
  -25.0940  -33.9260   25.1460 H   0  0  0  0  0  0  0  0  0  0  0  0
  -24.3190  -36.6750   23.3030 C   0  0  0  0  0  1  0  0  0  0  0  0
  -25.5480  -36.2420   24.1180 C   0  0  0  0  0  3  0  0  0  0  0  0
  -27.6710  -37.0950   25.0080 C   0  0  0  0  0  1  0  0  0  0  0  0
  -26.5860  -37.2950   24.0510 N   0  0  0  0  0  0  0  0  0  0  0  0
  -26.1800  -38.2110   24.2170 H   0  0  0  0  0  0  0  0  0  0  0  0
  1 54  1  0
  1 50  1  0
  2  5  1  0
  2  3  1  0
  2  1  1  0
  4  2  1  0
  6  5  1  0
  6 10  1  0
  7  6  1  0
  8  7  1  0
  9  7  1  0
 11 20  1  0
 11 10  1  0
 12 20  1  0
 13 18  1  0
 14 15  1  0
 14 13  1  0
 16 15  1  0
 16 25  1  0
 16 17  1  0
 18 12  1  0
 18 17  1  0
 19 12  2  0
 20 21  1  0
 22 23  2  0
 23 42  1  0
 24 23  1  0
 24 27  1  0
 25 22  1  0
 25 26  1  0
 26 24  2  0
 27 28  1  0
 28 29  2  0
 30 33  1  0
 30 29  1  0
 31 30  2  0
 32 31  1  0
 32 27  2  0
 33 34  1  0
 34 39  2  0
 34 35  1  0
 35 36  2  0
 36 37  1  0
 37 41  1  0
 38 37  2  0
 39 38  1  0
 40 39  1  0
 42 43  1  0
 43 46  1  0
 43 45  1  0
 44 42  2  0
 47 48  1  0
 47 22  1  0
 49 47  1  0
 50 51  1  0
 51 53  1  0
 52 51  1  0
 54 55  2  0
 56 58  1  0
 56 55  1  0
 57 68  2  0
 58 63  1  0
 59 67  1  0
 59 69  1  0
 60 66  1  0
 60 62  1  0
 61 67  1  0
 62 61  1  0
 63 62  2  0
 64 65  1  0
 64 58  2  0
 65 60  2  0
 66 59  1  0
 67 57  1  0
 69 71  2  0
 70 69  1  0
 72 70  1  0
 73 82  2  0
 73 78  1  0
 74 70  1  0
 74 78  1  0
 75 74  1  0
 76 77  1  0
 76 75  1  0
 77 73  1  0
 78 79  2  0
 79 80  1  0
 81 80  2  0
 82 81  1  0
 83 57  1  0
 83 88  1  0
 83 84  1  0
 84 87  1  1
 84 85  1  0
 86 84  1  0
 88 91  1  0
 89 93  1  0
 89 88  1  0
 90 89  2  0
 93 92  1  0
 95 93  1  0
 95 96  1  0
 95 94  1  0
M  ISO  4  12 100  20 100  55 101  56 101
M  END
>  <TORSDO>  (95) 
F 26

>  <SCORE>  (95) 
-11.562

>  <name>  (95) 
94

>  <ligand_id>  (95) 
94

>  <original_smiles>  (95) 
[H]c1c([H])c([H])c2c(c1[H])C([H])([H])C([H])([H])C([H])([H])C2([H])N([H])C(=O)C1([H])N(C(=O)C([H])(N([H])C(=O)C([H])(N([H])C([H])([H])[H])C([H])([H])[H])C(C([H])([H])[H])(C([H])([H])[H])C([H])([H])[H])C([H])([H])c2c([H])c(OC([H])([H])C([H])([H])C([H])(C([H])([H])N([H])[H])[N+]([H])([H])C([H])([H])C([H])(N([H])[H])C([H])([H])C([H])([H])N([H])C(=O)N3C([H])([H])C([H])([H])C([H])([H])C([H])(n4nc(-c5c([H])c([H])c(Oc6c([H])c([H])c(F)c([H])c6F)c([H])c5[H])c(C(=O)N([H])[H])c4N([H])[H])C3([H])[H])c([H])c([H])c2C1([H])[H]

>  <smiles>  (95) 
[H]c1c([H])c([H])c2c(c1[H])C([H])([H])C([H])([H])C([H])([H])C2([H])N([H])C(=O)C1([H])N(C(=O)C([H])(N([H])C(=O)C([H])(N([H])C([H])([H])[H])C([H])([H])[H])C(C([H])([H])[H])(C([H])([H])[H])C([H])([H])[H])C([H])([H])c2c([H])c(OC([H])([H])C([H])([H])C([H])(C([H])([H])N([H])[H])[N+]([H])([H])C([H])([H])C([H])(N([H])[H])C([H])([H])C([H])([H])N([H])C(=O)N3C([H])([H])C([H])([H])C([H])([H])C([H])(n4nc(-c5c([H])c([H])c(Oc6c([H])c([H])c(F)c([H])c6F)c([H])c5[H])c(C(=O)N([H])[H])c4N([H])[H])C3([H])[H])c([H])c([H])c2C1([H])[H]

$$$$
95:0:0
     RDKit          3D

 92 99  0  0  1  0  0  0  0  0999 V2000
  -31.3490  -22.9470   19.3530 C   0  0  0  0  0  2  0  0  0  0  0  0
  -29.9490  -23.3640   19.4940 N   0  0  0  0  0  0  0  0  0  0  0  0
  -29.5090  -22.8930   20.2810 H   0  0  0  0  0  0  0  0  0  0  0  0
  -29.8810  -24.8110   19.7290 C   0  0  0  0  0  2  0  0  0  0  0  0
  -28.4330  -25.3520   19.7010 C   0  0  0  0  0  2  0  0  0  0  0  0
  -28.4190  -26.7270   20.1050 O   0  0  0  0  0  0  0  0  0  0  0  0
  -24.5960  -31.8650   23.2330 C   0  0  0  0  0  0  0  0  0  0  0  0
  -27.2180  -27.4150   20.1240 C   0  0  0  0  0  0  0  0  0  0  0  0
  -23.3760  -30.4680   21.5970 C   0  0  0  0  0  3  0  0  0  0  0  0
  -24.8160  -28.9230   20.1690 C   0  0  0  0  0  0  0  0  0  0  0  0
  -25.9030  -30.8170   21.3850 C   0  0  0  0  0  2  0  0  0  0  0  0
  -25.9800  -29.4450   20.7470 C   0  0  0  0  0  0  0  0  0  0  0  0
  -27.1800  -28.6980   20.7210 C   0  0  0  0  0  3  0  0  0  0  0  0
  -26.0250  -26.9000   19.5600 C   0  0  0  0  0  3  0  0  0  0  0  0
  -24.8330  -27.6490   19.5770 C   0  0  0  0  0  3  0  0  0  0  0  0
  -23.5760  -29.7870   20.2180 C   0  0  0  0  0  2  0  0  0  0  0  0
  -24.6440  -31.0660   22.1310 N   0  0  0  0  0  0  0  0  0  0  0  0
  -23.5180  -32.1410   23.7790 O   0  0  0  0  0  0  0  0  0  0  0  0
  -22.7260  -29.4500   22.5610 C   0  0  0  0  0  0  0  0  0  0  0  0
  -21.4010  -29.2680   22.4370 N   0  0  0  0  0  0  0  0  0  0  0  0
  -23.4110  -28.8250   23.3760 O   0  0  0  0  0  0  0  0  0  0  0  0
  -20.9110  -29.8240   21.7500 H   0  0  0  0  0  0  0  0  0  0  0  0
  -18.0280  -28.0720   22.9330 C   0  0  0  0  0  0  0  0  0  0  0  0
  -20.5850  -28.3330   23.2100 C   0  0  0  0  0  3  0  0  0  0  0  0
  -20.6910  -26.9000   22.6400 C   0  0  0  0  0  2  0  0  0  0  0  0
  -19.5920  -26.5720   21.6240 C   0  0  0  0  0  2  0  0  0  0  0  0
  -18.2080  -26.7190   22.2640 C   0  0  0  0  0  2  0  0  0  0  0  0
  -19.1450  -28.8360   23.3630 C   0  0  0  0  0  0  0  0  0  0  0  0
  -18.9240  -30.1020   23.9480 C   0  0  0  0  0  3  0  0  0  0  0  0
  -17.6190  -30.6040   24.1060 C   0  0  0  0  0  3  0  0  0  0  0  0
  -16.5160  -29.8370   23.6930 C   0  0  0  0  0  3  0  0  0  0  0  0
  -16.7220  -28.5720   23.1130 C   0  0  0  0  0  3  0  0  0  0  0  0
  -25.8870  -32.4920   23.8480 C   0  0  0  0  0  3  0  0  0  0  0  0
  -26.4150  -31.7160   25.1150 C   0  0  1  0  0  0  0  0  0  0  0  0
  -25.3310  -31.4770   26.1930 C   0  0  0  0  0  1  0  0  0  0  0  0
  -26.9910  -30.3390   24.7110 C   0  0  0  0  0  1  0  0  0  0  0  0
  -27.5740  -32.5040   25.7690 C   0  0  0  0  0  1  0  0  0  0  0  0
  -25.5830  -33.8890   24.1830 N   0  0  0  0  0  0  0  0  0  0  0  0
  -25.9130  -34.9430   23.4240 C   0  0  0  0  0  0  0  0  0  0  0  0
  -26.5760  -34.8410   22.3880 O   0  0  0  0  0  0  0  0  0  0  0  0
  -24.9920  -34.0430   24.9870 H   0  0  0  0  0  0  0  0  0  0  0  0
  -24.1840  -36.7380   23.0860 C   0  0  0  0  0  1  0  0  0  0  0  0
  -25.4300  -36.3300   23.8880 C   0  0  0  0  0  3  0  0  0  0  0  0
  -27.5750  -37.2080   24.7010 C   0  0  0  0  0  1  0  0  0  0  0  0
  -26.4620  -37.3830   23.7700 N   0  0  0  0  0  0  0  0  0  0  0  0
  -26.0590  -38.3020   23.9260 H   0  0  0  0  0  0  0  0  0  0  0  0
  -31.5190  -21.4550   18.9750 C   0  0  0  0  0  2  0  0  0  0  0  0
  -31.4550  -20.5440   20.1410 N   0  0  0  0  0  4  0  0  0  0  0  0
  -31.9750  -20.9640   20.8950 H   0  0  0  0  0  0  0  0  0  0  0  0
  -30.4930  -20.4640   20.4290 H   0  0  0  0  0  0  0  0  0  0  0  0
  -32.0180  -19.1960   19.8820 C   0  0  0  0  0  2  0  0  0  0  0  0
  -31.9710  -18.2530   21.1110 C   0  0  0  0  0  2  0  0  0  0  0  0
  -30.5650  -17.7840   21.5410 C   0  0  0  0  0  2  0  0  0  0  0  0
  -29.8760  -16.8350   20.5390 C   0  0  0  0  0  2  0  0  0  0  0  0
  -30.6260  -14.4600   20.4670 C   0  0  0  0  0  0  0  0  0  0  0  0
  -30.3440  -12.3240   19.2830 C   0  0  0  0  0  2  0  0  0  0  0  0
  -29.3950  -12.5730   18.0900 C   0  0  0  0  0  2  0  0  0  0  0  0
  -27.9200  -12.4350   18.5220 C   0  0  0  0  0  2  0  0  0  0  0  0
  -27.5950  -13.2510   19.8040 C   0  0  0  0  0  3  0  0  0  0  0  0
  -28.6490  -12.9650   20.9010 C   0  0  0  0  0  2  0  0  0  0  0  0
  -29.9810  -13.2700   20.3470 N   0  0  0  0  0  0  0  0  0  0  0  0
  -31.7320  -14.6950   19.9720 O   0  0  0  0  0  0  0  0  0  0  0  0
  -29.8540  -15.4350   20.9660 N   0  0  0  0  0  0  0  0  0  0  0  0
  -28.9890  -15.1140   21.3760 H   0  0  0  0  0  0  0  0  0  0  0  0
  -25.1920  -13.8780   20.4970 C   0  0  0  0  0  0  0  0  0  0  0  0
  -24.1200  -13.1120   20.8700 C   0  0  0  0  0  0  0  0  0  0  0  0
  -24.5790  -11.7590   20.8520 C   0  0  0  0  0  0  0  0  0  0  0  0
  -26.2360  -12.9920   20.2760 N   0  0  0  0  0  0  0  0  0  0  0  0
  -25.8680  -11.7120   20.5450 N   0  0  0  0  0  0  0  0  0  0  0  0
  -23.8520  -10.4990   21.0520 C   0  0  0  0  0  0  0  0  0  0  0  0
  -24.3010   -9.5270   21.9740 C   0  0  0  0  0  3  0  0  0  0  0  0
  -23.5760   -8.3300   22.1590 C   0  0  0  0  0  3  0  0  0  0  0  0
  -22.3910   -8.0960   21.4230 C   0  0  0  0  0  0  0  0  0  0  0  0
  -21.9640   -9.0570   20.4900 C   0  0  0  0  0  3  0  0  0  0  0  0
  -22.6880  -10.2450   20.3020 C   0  0  0  0  0  3  0  0  0  0  0  0
  -21.6360   -6.9520   21.5190 O   0  0  0  0  0  0  0  0  0  0  0  0
  -21.6210   -6.1930   22.6620 C   0  0  0  0  0  0  0  0  0  0  0  0
  -21.2540   -6.7360   23.9130 C   0  0  0  0  0  3  0  0  0  0  0  0
  -21.1860   -5.9020   25.0480 C   0  0  0  0  0  3  0  0  0  0  0  0
  -21.4760   -4.5300   24.9330 C   0  0  0  0  0  0  0  0  0  0  0  0
  -21.8380   -3.9880   23.6880 C   0  0  0  0  0  3  0  0  0  0  0  0
  -21.9070   -4.8170   22.5540 C   0  0  0  0  0  0  0  0  0  0  0  0
  -22.2360   -4.2860   21.3520 F   0  0  0  0  0  0  0  0  0  0  0  0
  -21.4050   -3.7280   26.0220 F   0  0  0  0  0  0  0  0  0  0  0  0
  -22.7230  -13.5920   21.1380 C   0  0  0  0  0  0  0  0  0  0  0  0
  -21.9910  -12.9060   22.0110 N   0  0  0  0  0  0  0  0  0  0  0  0
  -22.2840  -14.6120   20.6080 O   0  0  0  0  0  0  0  0  0  0  0  0
  -22.3560  -12.0830   22.4680 H   0  0  0  0  0  0  0  0  0  0  0  0
  -21.0540  -13.2100   22.2270 H   0  0  0  0  0  0  0  0  0  0  0  0
  -25.3590  -15.2490   20.3070 N   0  0  0  0  0  0  0  0  0  0  0  0
  -24.5910  -15.9040   20.4030 H   0  0  0  0  0  0  0  0  0  0  0  0
  -26.2100  -15.6830   19.9740 H   0  0  0  0  0  0  0  0  0  0  0  0
  1  2  1  0
  2  4  1  0
  2  3  1  0
  5  4  1  0
  5  6  1  0
  6  8  1  0
  7 18  2  0
  8 13  1  0
  9 17  1  0
  9 19  1  0
 10 16  1  0
 10 12  1  0
 11 17  1  0
 12 11  1  0
 13 12  2  0
 14 15  1  0
 14  8  2  0
 15 10  2  0
 16  9  1  0
 17  7  1  0
 19 21  2  0
 20 19  1  0
 22 20  1  0
 23 32  2  0
 23 28  1  0
 24 20  1  0
 24 28  1  0
 25 24  1  0
 26 27  1  0
 26 25  1  0
 27 23  1  0
 28 29  2  0
 29 30  1  0
 31 30  2  0
 32 31  1  0
 33  7  1  0
 33 38  1  0
 33 34  1  0
 34 37  1  1
 34 35  1  0
 36 34  1  0
 38 41  1  0
 39 43  1  0
 39 38  1  0
 40 39  2  0
 43 42  1  0
 45 43  1  0
 45 46  1  0
 45 44  1  0
 47  1  1  0
 47 48  1  0
 48 50  1  0
 48 49  1  0
 51 48  1  0
 51 52  1  0
 52 53  1  0
 54 63  1  0
 54 53  1  0
 55 63  1  0
 56 61  1  0
 57 58  1  0
 57 56  1  0
 59 58  1  0
 59 68  1  0
 59 60  1  0
 61 55  1  0
 61 60  1  0
 62 55  2  0
 63 64  1  0
 65 66  2  0
 66 85  1  0
 67 66  1  0
 67 70  1  0
 68 65  1  0
 68 69  1  0
 69 67  2  0
 70 71  1  0
 71 72  2  0
 73 76  1  0
 73 72  1  0
 74 73  2  0
 75 74  1  0
 75 70  2  0
 76 77  1  0
 77 78  1  0
 78 79  2  0
 80 79  1  0
 80 84  1  0
 81 80  2  0
 82 77  2  0
 82 81  1  0
 83 82  1  0
 85 86  1  0
 86 89  1  0
 86 88  1  0
 87 85  2  0
 90 91  1  0
 90 65  1  0
 92 90  1  0
M  ISO  4   5 101   6 101  55 100  63 100
M  END
>  <TORSDO>  (96) 
F 25

>  <SCORE>  (96) 
-12.061

>  <name>  (96) 
95

>  <ligand_id>  (96) 
95

>  <original_smiles>  (96) 
[H]c1c([H])c([H])c2c(c1[H])C([H])([H])C([H])([H])C([H])([H])C2([H])N([H])C(=O)C1([H])N(C(=O)C([H])(N([H])C(=O)C([H])(N([H])C([H])([H])[H])C([H])([H])[H])C(C([H])([H])[H])(C([H])([H])[H])C([H])([H])[H])C([H])([H])c2c([H])c(OC([H])([H])C([H])([H])N([H])C([H])([H])C([H])([H])[N+]([H])([H])C([H])([H])C([H])([H])C([H])([H])C([H])([H])N([H])C(=O)N3C([H])([H])C([H])([H])C([H])([H])C([H])(n4nc(-c5c([H])c([H])c(Oc6c([H])c([H])c(F)c([H])c6F)c([H])c5[H])c(C(=O)N([H])[H])c4N([H])[H])C3([H])[H])c([H])c([H])c2C1([H])[H]

>  <smiles>  (96) 
[H]c1c([H])c([H])c2c(c1[H])C([H])([H])C([H])([H])C([H])([H])C2([H])N([H])C(=O)C1([H])N(C(=O)C([H])(N([H])C(=O)C([H])(N([H])C([H])([H])[H])C([H])([H])[H])C(C([H])([H])[H])(C([H])([H])[H])C([H])([H])[H])C([H])([H])c2c([H])c(OC([H])([H])C([H])([H])N([H])C([H])([H])C([H])([H])[N+]([H])([H])C([H])([H])C([H])([H])C([H])([H])C([H])([H])N([H])C(=O)N3C([H])([H])C([H])([H])C([H])([H])C([H])(n4nc(-c5c([H])c([H])c(Oc6c([H])c([H])c(F)c([H])c6F)c([H])c5[H])c(C(=O)N([H])[H])c4N([H])[H])C3([H])[H])c([H])c([H])c2C1([H])[H]

$$$$
96:0:0
     RDKit          3D

 96104  0  0  1  0  0  0  0  0999 V2000
  -25.0650  -22.4080   19.6110 C   0  0  0  0  0  3  0  0  0  0  0  0
  -25.3810  -21.2480   18.8870 C   0  0  0  0  0  3  0  0  0  0  0  0
  -26.0060  -23.4470   19.7120 C   0  0  0  0  0  3  0  0  0  0  0  0
  -26.6440  -21.1250   18.2840 C   0  0  0  0  0  3  0  0  0  0  0  0
  -27.2820  -23.3520   19.1000 C   0  0  0  0  0  0  0  0  0  0  0  0
  -27.6090  -22.1580   18.3870 C   0  0  0  0  0  0  0  0  0  0  0  0
  -28.1990  -24.5450   19.1410 C   0  0  0  0  0  0  0  0  0  0  0  0
  -28.9030  -24.8870   18.1840 O   0  0  0  0  0  0  0  0  0  0  0  0
  -28.2700  -25.3650   20.4430 C   0  0  0  0  0  2  0  0  0  0  0  0
  -28.3880  -26.7720   20.1900 O   0  0  0  0  0  0  0  0  0  0  0  0
  -24.5820  -31.9200   23.2940 C   0  0  0  0  0  0  0  0  0  0  0  0
  -27.2120  -27.4880   20.1940 C   0  0  0  0  0  0  0  0  0  0  0  0
  -23.3750  -30.5310   21.6430 C   0  0  0  0  0  3  0  0  0  0  0  0
  -24.8220  -28.9970   20.2190 C   0  0  0  0  0  0  0  0  0  0  0  0
  -25.9040  -30.8780   21.4570 C   0  0  0  0  0  2  0  0  0  0  0  0
  -25.9820  -29.5130   20.8120 C   0  0  0  0  0  0  0  0  0  0  0  0
  -27.1800  -28.7650   20.7950 C   0  0  0  0  0  3  0  0  0  0  0  0
  -26.0350  -26.9950   19.5860 C   0  0  0  0  0  3  0  0  0  0  0  0
  -24.8420  -27.7350   19.6070 C   0  0  0  0  0  3  0  0  0  0  0  0
  -23.5840  -29.8600   20.2620 C   0  0  0  0  0  2  0  0  0  0  0  0
  -24.6380  -31.1240   22.1900 N   0  0  0  0  0  0  0  0  0  0  0  0
  -23.4990  -32.1930   23.8290 O   0  0  0  0  0  0  0  0  0  0  0  0
  -22.7180  -29.5050   22.5950 C   0  0  0  0  0  0  0  0  0  0  0  0
  -21.3930  -29.3290   22.4590 N   0  0  0  0  0  0  0  0  0  0  0  0
  -23.3960  -28.8710   23.4070 O   0  0  0  0  0  0  0  0  0  0  0  0
  -20.9110  -29.8920   21.7740 H   0  0  0  0  0  0  0  0  0  0  0  0
  -18.0070  -28.1650   22.9400 C   0  0  0  0  0  0  0  0  0  0  0  0
  -20.5660  -28.3930   23.2210 C   0  0  0  0  0  3  0  0  0  0  0  0
  -20.6570  -26.9670   22.6330 C   0  0  0  0  0  2  0  0  0  0  0  0
  -19.5540  -26.6630   21.6140 C   0  0  0  0  0  2  0  0  0  0  0  0
  -18.1720  -26.8180   22.2560 C   0  0  0  0  0  2  0  0  0  0  0  0
  -19.1320  -28.9120   23.3780 C   0  0  0  0  0  0  0  0  0  0  0  0
  -18.9260  -30.1740   23.9750 C   0  0  0  0  0  3  0  0  0  0  0  0
  -17.6260  -30.6890   24.1390 C   0  0  0  0  0  3  0  0  0  0  0  0
  -16.5150  -29.9390   23.7190 C   0  0  0  0  0  3  0  0  0  0  0  0
  -16.7060  -28.6780   23.1270 C   0  0  0  0  0  3  0  0  0  0  0  0
  -25.8680  -32.5410   23.9210 C   0  0  0  0  0  3  0  0  0  0  0  0
  -26.3600  -31.7810   25.2150 C   0  0  1  0  0  0  0  0  0  0  0  0
  -25.2500  -31.5730   26.2720 C   0  0  0  0  0  1  0  0  0  0  0  0
  -26.9280  -30.3910   24.8460 C   0  0  0  0  0  1  0  0  0  0  0  0
  -27.5130  -32.5700   25.8800 C   0  0  0  0  0  1  0  0  0  0  0  0
  -25.5760  -33.9480   24.2260 N   0  0  0  0  0  0  0  0  0  0  0  0
  -25.9330  -34.9830   23.4530 C   0  0  0  0  0  0  0  0  0  0  0  0
  -26.6170  -34.8530   22.4330 O   0  0  0  0  0  0  0  0  0  0  0  0
  -24.9760  -34.1250   25.0180 H   0  0  0  0  0  0  0  0  0  0  0  0
  -24.2330  -36.7870   23.0410 C   0  0  0  0  0  1  0  0  0  0  0  0
  -25.4570  -36.3830   23.8800 C   0  0  0  0  0  3  0  0  0  0  0  0
  -27.5900  -37.2500   24.7300 C   0  0  0  0  0  1  0  0  0  0  0  0
  -26.5030  -37.4220   23.7680 N   0  0  0  0  0  0  0  0  0  0  0  0
  -26.1080  -38.3490   23.8980 H   0  0  0  0  0  0  0  0  0  0  0  0
  -28.9910  -21.9580   17.7560 C   0  0  0  0  0  2  0  0  0  0  0  0
  -29.4160  -20.4900   17.5560 C   0  0  0  0  0  2  0  0  0  0  0  0
  -30.9150  -20.3370   17.3010 C   0  0  0  0  0  0  0  0  0  0  0  0
  -31.5780  -21.2330   16.7690 O   0  0  0  0  0  0  0  0  0  0  0  0
  -31.5790  -19.0230   17.7030 C   0  0  0  0  0  2  0  0  0  0  0  0
  -31.4610  -18.6820   19.2060 C   0  0  0  0  0  2  0  0  0  0  0  0
  -30.4560  -17.5500   19.4920 C   0  0  0  0  0  2  0  0  0  0  0  0
  -30.5420  -17.0030   20.9360 C   0  0  0  0  0  2  0  0  0  0  0  0
  -30.7800  -14.5770   20.5470 C   0  0  0  0  0  0  0  0  0  0  0  0
  -30.4830  -12.4390   19.3880 C   0  0  0  0  0  2  0  0  0  0  0  0
  -29.5710  -12.6560   18.1650 C   0  0  0  0  0  2  0  0  0  0  0  0
  -28.0860  -12.5270   18.5590 C   0  0  0  0  0  2  0  0  0  0  0  0
  -27.7220  -13.3600   19.8180 C   0  0  0  0  0  3  0  0  0  0  0  0
  -28.7520  -13.1340   20.9490 C   0  0  0  0  0  2  0  0  0  0  0  0
  -30.0920  -13.4180   20.4090 N   0  0  0  0  0  0  0  0  0  0  0  0
  -31.9210  -14.7450   20.1120 O   0  0  0  0  0  0  0  0  0  0  0  0
  -30.0730  -15.6170   21.0120 N   0  0  0  0  0  0  0  0  0  0  0  0
  -29.1250  -15.4420   21.3110 H   0  0  0  0  0  0  0  0  0  0  0  0
  -25.2990  -13.9540   20.4570 C   0  0  0  0  0  0  0  0  0  0  0  0
  -24.2290  -13.1750   20.8080 C   0  0  0  0  0  0  0  0  0  0  0  0
  -24.7040  -11.8280   20.8050 C   0  0  0  0  0  0  0  0  0  0  0  0
  -26.3590  -13.0800   20.2640 N   0  0  0  0  0  0  0  0  0  0  0  0
  -26.0020  -11.7980   20.5310 N   0  0  0  0  0  0  0  0  0  0  0  0
  -23.9860  -10.5600   20.9910 C   0  0  0  0  0  0  0  0  0  0  0  0
  -24.4090   -9.6050   21.9410 C   0  0  0  0  0  3  0  0  0  0  0  0
  -23.6920   -8.4010   22.1140 C   0  0  0  0  0  3  0  0  0  0  0  0
  -22.5390   -8.1430   21.3360 C   0  0  0  0  0  0  0  0  0  0  0  0
  -22.1360   -9.0870   20.3760 C   0  0  0  0  0  3  0  0  0  0  0  0
  -22.8520  -10.2830   20.2010 C   0  0  0  0  0  3  0  0  0  0  0  0
  -21.7940   -6.9910   21.4190 O   0  0  0  0  0  0  0  0  0  0  0  0
  -21.7320   -6.2560   22.5760 C   0  0  0  0  0  0  0  0  0  0  0  0
  -21.2820   -6.8150   23.7910 C   0  0  0  0  0  3  0  0  0  0  0  0
  -21.1660   -6.0050   24.9380 C   0  0  0  0  0  3  0  0  0  0  0  0
  -21.4910   -4.6370   24.8720 C   0  0  0  0  0  0  0  0  0  0  0  0
  -21.9350   -4.0770   23.6610 C   0  0  0  0  0  3  0  0  0  0  0  0
  -22.0520   -4.8840   22.5160 C   0  0  0  0  0  0  0  0  0  0  0  0
  -22.4590   -4.3350   21.3450 F   0  0  0  0  0  0  0  0  0  0  0  0
  -21.3710   -3.8570   25.9710 F   0  0  0  0  0  0  0  0  0  0  0  0
  -22.8190  -13.6400   21.0390 C   0  0  0  0  0  0  0  0  0  0  0  0
  -22.0780  -12.9490   21.8960 N   0  0  0  0  0  0  0  0  0  0  0  0
  -22.3850  -14.6530   20.4930 O   0  0  0  0  0  0  0  0  0  0  0  0
  -22.4410  -12.1290   22.3610 H   0  0  0  0  0  0  0  0  0  0  0  0
  -21.1320  -13.2440   22.0930 H   0  0  0  0  0  0  0  0  0  0  0  0
  -25.4560  -15.3240   20.2660 N   0  0  0  0  0  0  0  0  0  0  0  0
  -24.6790  -15.9710   20.3460 H   0  0  0  0  0  0  0  0  0  0  0  0
  -26.3070  -15.7690   19.9520 H   0  0  0  0  0  0  0  0  0  0  0  0
  1  3  1  0
  2  1  2  0
  4  6  2  0
  4  2  1  0
  5  7  1  0
  5  3  2  0
  6  5  1  0
  7  9  1  0
  8  7  2  0
 10 12  1  0
 10  9  1  0
 11 22  2  0
 12 17  1  0
 13 21  1  0
 13 23  1  0
 14 20  1  0
 14 16  1  0
 15 21  1  0
 16 15  1  0
 17 16  2  0
 18 19  1  0
 18 12  2  0
 19 14  2  0
 20 13  1  0
 21 11  1  0
 23 25  2  0
 24 23  1  0
 26 24  1  0
 27 36  2  0
 27 32  1  0
 28 24  1  0
 28 32  1  0
 29 28  1  0
 30 31  1  0
 30 29  1  0
 31 27  1  0
 32 33  2  0
 33 34  1  0
 35 34  2  0
 36 35  1  0
 37 11  1  0
 37 42  1  0
 37 38  1  0
 38 41  1  1
 38 39  1  0
 40 38  1  0
 42 45  1  0
 43 47  1  0
 43 42  1  0
 44 43  2  0
 47 46  1  0
 49 47  1  0
 49 50  1  0
 49 48  1  0
 51  6  1  0
 52 51  1  0
 53 52  1  0
 53 55  1  0
 54 53  2  0
 55 56  1  0
 56 57  1  0
 57 58  1  0
 58 67  1  0
 59 67  1  0
 60 65  1  0
 61 62  1  0
 61 60  1  0
 63 62  1  0
 63 72  1  0
 63 64  1  0
 65 59  1  0
 65 64  1  0
 66 59  2  0
 67 68  1  0
 69 70  2  0
 70 89  1  0
 71 70  1  0
 71 74  1  0
 72 69  1  0
 72 73  1  0
 73 71  2  0
 74 75  1  0
 75 76  2  0
 77 80  1  0
 77 76  1  0
 78 77  2  0
 79 78  1  0
 79 74  2  0
 80 81  1  0
 81 82  1  0
 82 83  2  0
 84 83  1  0
 84 88  1  0
 85 84  2  0
 86 81  2  0
 86 85  1  0
 87 86  1  0
 89 90  1  0
 90 93  1  0
 90 92  1  0
 91 89  2  0
 94 95  1  0
 94 69  1  0
 96 94  1  0
M  ISO  4   9 101  10 101  59 100  67 100
M  END
>  <TORSDO>  (97) 
F 25

>  <SCORE>  (97) 
-12.000

>  <name>  (97) 
96

>  <ligand_id>  (97) 
96

>  <original_smiles>  (97) 
[H]c1c([H])c([H])c(C([H])([H])C([H])([H])C(=O)C([H])([H])C([H])([H])C([H])([H])C([H])([H])N([H])C(=O)N2C([H])([H])C([H])([H])C([H])([H])C([H])(n3nc(-c4c([H])c([H])c(Oc5c([H])c([H])c(F)c([H])c5F)c([H])c4[H])c(C(=O)N([H])[H])c3N([H])[H])C2([H])[H])c(C(=O)C([H])([H])Oc2c([H])c([H])c3c(c2[H])C([H])([H])N(C(=O)C([H])(N([H])C(=O)C([H])(N([H])C([H])([H])[H])C([H])([H])[H])C(C([H])([H])[H])(C([H])([H])[H])C([H])([H])[H])C([H])(C(=O)N([H])C2([H])c4c([H])c([H])c([H])c([H])c4C([H])([H])C([H])([H])C2([H])[H])C3([H])[H])c1[H]

>  <smiles>  (97) 
[H]c1c([H])c([H])c(C([H])([H])C([H])([H])C(=O)C([H])([H])C([H])([H])C([H])([H])C([H])([H])N([H])C(=O)N2C([H])([H])C([H])([H])C([H])([H])C([H])(n3nc(-c4c([H])c([H])c(Oc5c([H])c([H])c(F)c([H])c5F)c([H])c4[H])c(C(=O)N([H])[H])c3N([H])[H])C2([H])[H])c(C(=O)C([H])([H])Oc2c([H])c([H])c3c(c2[H])C([H])([H])N(C(=O)C([H])(N([H])C(=O)C([H])(N([H])C([H])([H])[H])C([H])([H])[H])C(C([H])([H])[H])(C([H])([H])[H])C([H])([H])[H])C([H])(C(=O)N([H])C2([H])c4c([H])c([H])c([H])c([H])c4C([H])([H])C([H])([H])C2([H])[H])C3([H])[H])c1[H]

$$$$
