0:0:0
     RDKit          3D

 95103  0  0  1  0  0  0  0  0999 V2000
  -25.6820  -22.4300   21.2430 C   0  0  0  0  0  3  0  0  0  0  0  0
  -25.8100  -23.3910   20.2240 C   0  0  0  0  0  3  0  0  0  0  0  0
  -26.8240  -21.7850   21.7520 C   0  0  0  0  0  3  0  0  0  0  0  0
  -28.2260  -23.0840   20.2400 C   0  0  0  0  0  3  0  0  0  0  0  0
  -27.0830  -23.7220   19.7160 C   0  0  0  0  0  0  0  0  0  0  0  0
  -28.1060  -22.1050   21.2520 C   0  0  0  0  0  0  0  0  0  0  0  0
  -27.2160  -24.7810   18.6330 C   0  0  0  0  0  2  0  0  0  0  0  0
  -27.6610  -26.1340   19.2110 C   0  0  0  0  0  2  0  0  0  0  0  0
  -27.4520  -27.1990   18.2770 O   0  0  0  0  0  0  0  0  0  0  0  0
  -24.7520  -31.5890   23.1100 C   0  0  0  0  0  0  0  0  0  0  0  0
  -26.3810  -27.9830   18.6210 C   0  0  0  0  0  0  0  0  0  0  0  0
  -23.1380  -30.6890   21.4640 C   0  0  0  0  0  3  0  0  0  0  0  0
  -24.1640  -29.5090   19.4480 C   0  0  0  0  0  0  0  0  0  0  0  0
  -25.5980  -31.0120   20.8400 C   0  0  0  0  0  2  0  0  0  0  0  0
  -25.4490  -29.8370   19.8980 C   0  0  0  0  0  0  0  0  0  0  0  0
  -26.5640  -29.0840   19.4770 C   0  0  0  0  0  3  0  0  0  0  0  0
  -25.0830  -27.6590   18.1710 C   0  0  0  0  0  3  0  0  0  0  0  0
  -23.9740  -28.4190   18.5780 C   0  0  0  0  0  3  0  0  0  0  0  0
  -23.0220  -30.3660   19.9490 C   0  0  0  0  0  2  0  0  0  0  0  0
  -24.5270  -31.0920   21.8620 N   0  0  0  0  0  0  0  0  0  0  0  0
  -23.8180  -31.7580   23.9090 O   0  0  0  0  0  0  0  0  0  0  0  0
  -22.5930  -29.4870   22.2660 C   0  0  0  0  0  0  0  0  0  0  0  0
  -21.2630  -29.3020   22.2300 N   0  0  0  0  0  0  0  0  0  0  0  0
  -23.3570  -28.7320   22.8760 O   0  0  0  0  0  0  0  0  0  0  0  0
  -20.7060  -29.9680   21.7130 H   0  0  0  0  0  0  0  0  0  0  0  0
  -17.9880  -27.8250   22.6030 C   0  0  0  0  0  0  0  0  0  0  0  0
  -20.5280  -28.2160   22.8780 C   0  0  0  0  0  3  0  0  0  0  0  0
  -20.7120  -26.8840   22.1120 C   0  0  0  0  0  2  0  0  0  0  0  0
  -19.6120  -26.6280   21.0780 C   0  0  0  0  0  2  0  0  0  0  0  0
  -18.2380  -26.5930   21.7510 C   0  0  0  0  0  2  0  0  0  0  0  0
  -19.0630  -28.5960   23.1200 C   0  0  0  0  0  0  0  0  0  0  0  0
  -18.7750  -29.7530   23.8760 C   0  0  0  0  0  3  0  0  0  0  0  0
  -17.4450  -30.1420   24.1200 C   0  0  0  0  0  3  0  0  0  0  0  0
  -16.3840  -29.3660   23.6210 C   0  0  0  0  0  3  0  0  0  0  0  0
  -16.6560  -28.2080   22.8700 C   0  0  0  0  0  3  0  0  0  0  0  0
  -26.1810  -31.9900   23.5900 C   0  0  0  0  0  3  0  0  0  0  0  0
  -26.8650  -30.8930   24.4930 C   0  0  1  0  0  0  0  0  0  0  0  0
  -25.9790  -30.4200   25.6700 C   0  0  0  0  0  1  0  0  0  0  0  0
  -27.2330  -29.6500   23.6490 C   0  0  0  0  0  1  0  0  0  0  0  0
  -28.1890  -31.4410   25.0740 C   0  0  0  0  0  1  0  0  0  0  0  0
  -26.0640  -33.2630   24.3140 N   0  0  0  0  0  0  0  0  0  0  0  0
  -26.4090  -34.4570   23.8130 C   0  0  0  0  0  0  0  0  0  0  0  0
  -26.9370  -34.5880   22.7040 O   0  0  0  0  0  0  0  0  0  0  0  0
  -25.5910  -33.2350   25.2050 H   0  0  0  0  0  0  0  0  0  0  0  0
  -24.8720  -36.4170   24.1500 C   0  0  0  0  0  1  0  0  0  0  0  0
  -26.1250  -35.6990   24.6780 C   0  0  0  0  0  3  0  0  0  0  0  0
  -28.4120  -36.1230   25.4580 C   0  0  0  0  0  1  0  0  0  0  0  0
  -27.2580  -36.6480   24.7340 N   0  0  0  0  0  0  0  0  0  0  0  0
  -26.9760  -37.5180   25.1770 H   0  0  0  0  0  0  0  0  0  0  0  0
  -29.3290  -21.3940   21.8230 C   0  0  0  0  0  3  0  0  0  0  0  0
  -31.3230  -21.7190   23.4610 C   0  0  0  0  0  1  0  0  0  0  0  0
  -30.1080  -22.3450   22.7570 C   0  0  0  0  0  2  0  0  0  0  0  0
  -30.2240  -20.7600   20.7300 C   0  0  0  0  0  2  0  0  0  0  0  0
  -30.8910  -19.4490   21.1850 C   0  0  0  0  0  2  0  0  0  0  0  0
  -30.2070  -18.2060   20.5890 C   0  0  0  0  0  2  0  0  0  0  0  0
  -31.1280  -17.4680   19.6060 C   0  0  0  0  0  2  0  0  0  0  0  0
  -32.0620  -16.4750   20.3230 C   0  0  0  0  0  2  0  0  0  0  0  0
  -31.6090  -14.1730   19.5560 C   0  0  0  0  0  0  0  0  0  0  0  0
  -31.1440  -11.8180   19.0390 C   0  0  0  0  0  2  0  0  0  0  0  0
  -30.1410  -11.6760   17.8830 C   0  0  0  0  0  2  0  0  0  0  0  0
  -28.6980  -11.6930   18.4150 C   0  0  0  0  0  2  0  0  0  0  0  0
  -28.4310  -12.8920   19.3610 C   0  0  0  0  0  3  0  0  0  0  0  0
  -29.5420  -13.0200   20.4310 C   0  0  0  0  0  2  0  0  0  0  0  0
  -30.8570  -13.0640   19.7600 N   0  0  0  0  0  0  0  0  0  0  0  0
  -32.4890  -14.2530   18.6940 O   0  0  0  0  0  0  0  0  0  0  0  0
  -31.4180  -15.1660   20.4290 N   0  0  0  0  0  0  0  0  0  0  0  0
  -30.7630  -15.0100   21.1810 H   0  0  0  0  0  0  0  0  0  0  0  0
  -26.2360  -13.8110   20.3550 C   0  0  0  0  0  0  0  0  0  0  0  0
  -25.1000  -13.1860   20.7970 C   0  0  0  0  0  0  0  0  0  0  0  0
  -25.3330  -11.7870   20.6410 C   0  0  0  0  0  0  0  0  0  0  0  0
  -27.1020  -12.7990   19.9680 N   0  0  0  0  0  0  0  0  0  0  0  0
  -26.5640  -11.5730   20.1920 N   0  0  0  0  0  0  0  0  0  0  0  0
  -24.4370  -10.6410   20.8430 C   0  0  0  0  0  0  0  0  0  0  0  0
  -24.7910   -9.5680   21.6910 C   0  0  0  0  0  3  0  0  0  0  0  0
  -23.9050   -8.4850   21.8830 C   0  0  0  0  0  3  0  0  0  0  0  0
  -22.6510   -8.4690   21.2280 C   0  0  0  0  0  0  0  0  0  0  0  0
  -22.3140   -9.5290   20.3670 C   0  0  0  0  0  3  0  0  0  0  0  0
  -23.1990  -10.6030   20.1720 C   0  0  0  0  0  3  0  0  0  0  0  0
  -21.7370   -7.4470   21.3340 O   0  0  0  0  0  0  0  0  0  0  0  0
  -21.6510   -6.6740   22.4630 C   0  0  0  0  0  0  0  0  0  0  0  0
  -21.4040   -7.2350   23.7350 C   0  0  0  0  0  3  0  0  0  0  0  0
  -21.2530   -6.3970   24.8570 C   0  0  0  0  0  3  0  0  0  0  0  0
  -21.3420   -4.9990   24.7110 C   0  0  0  0  0  0  0  0  0  0  0  0
  -21.5820   -4.4390   23.4450 C   0  0  0  0  0  3  0  0  0  0  0  0
  -21.7350   -5.2740   22.3240 C   0  0  0  0  0  0  0  0  0  0  0  0
  -21.9450   -4.7260   21.1020 F   0  0  0  0  0  0  0  0  0  0  0  0
  -21.1890   -4.1940   25.7880 F   0  0  0  0  0  0  0  0  0  0  0  0
  -23.8310  -13.8520   21.2490 C   0  0  0  0  0  0  0  0  0  0  0  0
  -23.1050  -13.2230   22.1670 N   0  0  0  0  0  0  0  0  0  0  0  0
  -23.5000  -14.9580   20.8250 O   0  0  0  0  0  0  0  0  0  0  0  0
  -23.3890  -12.3250   22.5310 H   0  0  0  0  0  0  0  0  0  0  0  0
  -22.2560  -13.6450   22.5120 H   0  0  0  0  0  0  0  0  0  0  0  0
  -26.5970  -15.1490   20.2340 N   0  0  0  0  0  0  0  0  0  0  0  0
  -25.9610  -15.9070   20.4570 H   0  0  0  0  0  0  0  0  0  0  0  0
  -27.4840  -15.4720   19.8630 H   0  0  0  0  0  0  0  0  0  0  0  0
  1  3  1  0
  2  1  2  0
  4  6  1  0
  5  2  1  0
  5  4  2  0
  6  3  2  0
  6 50  1  0
  7  8  1  0
  7  5  1  0
  9 11  1  0
  9  8  1  0
 10 21  2  0
 11 16  1  0
 12 20  1  0
 12 22  1  0
 13 15  1  0
 13 19  1  0
 14 20  1  0
 15 14  1  0
 16 15  2  0
 17 18  1  0
 17 11  2  0
 18 13  2  0
 19 12  1  0
 20 10  1  0
 22 24  2  0
 23 22  1  0
 25 23  1  0
 26 35  2  0
 26 31  1  0
 27 23  1  0
 27 31  1  0
 28 27  1  0
 29 30  1  0
 29 28  1  0
 30 26  1  0
 31 32  2  0
 32 33  1  0
 34 33  2  0
 35 34  1  0
 36 10  1  0
 36 41  1  0
 36 37  1  0
 37 40  1  1
 37 38  1  0
 39 37  1  0
 41 44  1  0
 42 41  1  0
 42 46  1  0
 43 42  2  0
 46 45  1  0
 46 48  1  0
 48 49  1  0
 48 47  1  0
 50 53  1  0
 50 52  1  0
 52 51  1  0
 53 54  1  0
 55 54  1  0
 56 57  1  0
 56 55  1  0
 57 66  1  0
 58 64  1  0
 58 66  1  0
 59 64  1  0
 60 61  1  0
 60 59  1  0
 62 61  1  0
 62 71  1  0
 62 63  1  0
 64 63  1  0
 65 58  2  0
 66 67  1  0
 68 69  2  0
 69 88  1  0
 70 69  1  0
 70 73  1  0
 71 72  1  0
 71 68  1  0
 72 70  2  0
 73 74  1  0
 74 75  2  0
 76 79  1  0
 76 75  1  0
 77 76  2  0
 78 77  1  0
 78 73  2  0
 79 80  1  0
 80 81  1  0
 81 82  2  0
 83 82  1  0
 83 87  1  0
 84 83  2  0
 85 80  2  0
 85 84  1  0
 86 85  1  0
 88 89  1  0
 89 92  1  0
 89 91  1  0
 90 88  2  0
 93 68  1  0
 93 94  1  0
 95 93  1  0
M  ISO  4   8 101   9 101  58 100  66 100
M  END
>  <TORSDO>  (1) 
F 25

>  <SCORE>  (1) 
-8.165

>  <name>  (1) 
0

>  <ligand_id>  (1) 
0

>  <original_smiles>  (1) 
[H]c1c([H])c([H])c2c(c1[H])C([H])([H])C([H])([H])C([H])([H])C2([H])N([H])C(=O)C1([H])N(C(=O)C([H])(N([H])C(=O)C([H])(N([H])C([H])([H])[H])C([H])([H])[H])C(C([H])([H])[H])(C([H])([H])[H])C([H])([H])[H])C([H])([H])c2c([H])c(OC([H])([H])C([H])([H])c3c([H])c([H])c([H])c(C([H])(C([H])([H])C([H])([H])[H])C([H])([H])C([H])([H])C([H])([H])C([H])([H])C([H])([H])N([H])C(=O)N4C([H])([H])C([H])([H])C([H])([H])C([H])(n5nc(-c6c([H])c([H])c(Oc7c([H])c([H])c(F)c([H])c7F)c([H])c6[H])c(C(=O)N([H])[H])c5N([H])[H])C4([H])[H])c3[H])c([H])c([H])c2C1([H])[H]

>  <smiles>  (1) 
[H]c1c([H])c([H])c2c(c1[H])C([H])([H])C([H])([H])C([H])([H])C2([H])N([H])C(=O)C1([H])N(C(=O)C([H])(N([H])C(=O)C([H])(N([H])C([H])([H])[H])C([H])([H])[H])C(C([H])([H])[H])(C([H])([H])[H])C([H])([H])[H])C([H])([H])c2c([H])c(OC([H])([H])C([H])([H])c3c([H])c([H])c([H])c(C([H])(C([H])([H])C([H])([H])[H])C([H])([H])C([H])([H])C([H])([H])C([H])([H])C([H])([H])N([H])C(=O)N4C([H])([H])C([H])([H])C([H])([H])C([H])(n5nc(-c6c([H])c([H])c(Oc7c([H])c([H])c(F)c([H])c7F)c([H])c6[H])c(C(=O)N([H])[H])c5N([H])[H])C4([H])[H])c3[H])c([H])c([H])c2C1([H])[H]

$$$$
1:0:0
     RDKit          3D

 88 95  0  0  1  0  0  0  0  0999 V2000
  -28.5360  -21.8810   19.6950 C   0  0  0  0  0  3  0  0  0  0  0  0
  -28.1790  -23.2690   19.8470 C   0  0  0  0  0  3  0  0  0  0  0  0
  -29.4420  -20.7120   20.3070 C   0  0  0  0  0  0  0  0  0  0  0  0
  -30.3580  -21.0430   21.0600 O   0  0  0  0  0  0  0  0  0  0  0  0
  -29.3120  -19.0660   19.9290 C   0  0  0  0  0  2  0  0  0  0  0  0
  -30.3360  -17.7300   20.3160 C   0  0  0  0  0  3  0  0  0  0  0  0
  -30.8110  -14.9890   19.8430 C   0  0  0  0  0  0  0  0  0  0  0  0
  -30.6240  -12.6030   18.9710 C   0  0  0  0  0  2  0  0  0  0  0  0
  -29.6420  -12.5120   17.7800 C   0  0  0  0  0  2  0  0  0  0  0  0
  -28.1910  -12.3500   18.2760 C   0  0  0  0  0  2  0  0  0  0  0  0
  -27.8450  -13.3310   19.4250 C   0  0  0  0  0  3  0  0  0  0  0  0
  -28.9410  -13.3680   20.5070 C   0  0  0  0  0  2  0  0  0  0  0  0
  -30.1870  -13.7420   19.8270 N   0  0  0  0  0  0  0  0  0  0  0  0
  -32.0220  -15.0080   19.5940 O   0  0  0  0  0  0  0  0  0  0  0  0
  -30.0440  -16.2000   19.9430 N   0  0  0  0  0  0  0  0  0  0  0  0
  -29.0570  -15.9930   19.9590 H   0  0  0  0  0  0  0  0  0  0  0  0
  -25.5310  -14.0020   20.2860 C   0  0  0  0  0  0  0  0  0  0  0  0
  -24.4540  -13.2670   20.7010 C   0  0  0  0  0  0  0  0  0  0  0  0
  -24.8610  -11.8990   20.6390 C   0  0  0  0  0  0  0  0  0  0  0  0
  -26.5230  -13.0840   19.9880 N   0  0  0  0  0  0  0  0  0  0  0  0
  -26.1330  -11.8130   20.2660 N   0  0  0  0  0  0  0  0  0  0  0  0
  -24.0910  -10.6660   20.8530 C   0  0  0  0  0  0  0  0  0  0  0  0
  -24.4950   -9.6940   21.7940 C   0  0  0  0  0  3  0  0  0  0  0  0
  -23.7250   -8.5280   21.9930 C   0  0  0  0  0  3  0  0  0  0  0  0
  -22.5370   -8.3270   21.2520 C   0  0  0  0  0  0  0  0  0  0  0  0
  -22.1520   -9.2860   20.2990 C   0  0  0  0  0  3  0  0  0  0  0  0
  -22.9230  -10.4430   20.0970 C   0  0  0  0  0  3  0  0  0  0  0  0
  -21.7400   -7.2120   21.3630 O   0  0  0  0  0  0  0  0  0  0  0  0
  -21.6320   -6.5180   22.5410 C   0  0  0  0  0  0  0  0  0  0  0  0
  -21.1930   -7.1360   23.7320 C   0  0  0  0  0  3  0  0  0  0  0  0
  -21.0290   -6.3700   24.9040 C   0  0  0  0  0  3  0  0  0  0  0  0
  -21.2950   -4.9870   24.8850 C   0  0  0  0  0  0  0  0  0  0  0  0
  -21.7270   -4.3690   23.6970 C   0  0  0  0  0  3  0  0  0  0  0  0
  -21.8910   -5.1320   22.5280 C   0  0  0  0  0  0  0  0  0  0  0  0
  -22.2870   -4.5280   21.3830 F   0  0  0  0  0  0  0  0  0  0  0  0
  -21.1290   -4.2490   26.0070 F   0  0  0  0  0  0  0  0  0  0  0  0
  -23.0920  -13.8010   21.0360 C   0  0  0  0  0  0  0  0  0  0  0  0
  -22.3750  -13.1360   21.9350 N   0  0  0  0  0  0  0  0  0  0  0  0
  -22.6750  -14.8440   20.5320 O   0  0  0  0  0  0  0  0  0  0  0  0
  -22.7230  -12.2930   22.3660 H   0  0  0  0  0  0  0  0  0  0  0  0
  -21.4630  -13.4790   22.2030 H   0  0  0  0  0  0  0  0  0  0  0  0
  -25.7400  -15.3660   20.1120 N   0  0  0  0  0  0  0  0  0  0  0  0
  -25.0050  -16.0450   20.2760 H   0  0  0  0  0  0  0  0  0  0  0  0
  -26.5730  -15.7770   19.7120 H   0  0  0  0  0  0  0  0  0  0  0  0
  -31.2820  -18.7560   22.5710 C   0  0  0  0  0  1  0  0  0  0  0  0
  -30.5590  -17.6150   21.8500 C   0  0  0  0  0  2  0  0  0  0  0  0
  -28.3670  -24.6070   20.7860 C   0  0  0  0  0  2  0  0  0  0  0  0
  -28.4250  -26.0970   20.2860 O   0  0  0  0  0  0  0  0  0  0  0  0
  -24.6500  -31.7860   23.2030 C   0  0  0  0  0  0  0  0  0  0  0  0
  -27.3360  -27.0470   20.2910 C   0  0  0  0  0  0  0  0  0  0  0  0
  -23.5010  -30.3660   21.5470 C   0  0  0  0  0  3  0  0  0  0  0  0
  -24.9960  -28.7790   20.1790 C   0  0  0  0  0  0  0  0  0  0  0  0
  -26.0570  -30.6480   21.4400 C   0  0  0  0  0  2  0  0  0  0  0  0
  -26.1600  -29.2460   20.8080 C   0  0  0  0  0  0  0  0  0  0  0  0
  -27.3320  -28.3980   20.8380 C   0  0  0  0  0  3  0  0  0  0  0  0
  -26.1460  -26.6780   19.6330 C   0  0  0  0  0  3  0  0  0  0  0  0
  -25.0040  -27.5100   19.5740 C   0  0  0  0  0  3  0  0  0  0  0  0
  -23.7640  -29.6740   20.1820 C   0  0  0  0  0  2  0  0  0  0  0  0
  -24.7550  -30.9560   22.1190 N   0  0  0  0  0  0  0  0  0  0  0  0
  -23.5500  -32.0670   23.7010 O   0  0  0  0  0  0  0  0  0  0  0  0
  -22.8080  -29.3630   22.5040 C   0  0  0  0  0  0  0  0  0  0  0  0
  -21.4860  -29.1790   22.3460 N   0  0  0  0  0  0  0  0  0  0  0  0
  -23.4650  -28.7510   23.3510 O   0  0  0  0  0  0  0  0  0  0  0  0
  -21.0130  -29.7250   21.6380 H   0  0  0  0  0  0  0  0  0  0  0  0
  -18.1060  -27.9400   22.7660 C   0  0  0  0  0  0  0  0  0  0  0  0
  -20.6530  -28.2410   23.1040 C   0  0  0  0  0  3  0  0  0  0  0  0
  -20.7910  -26.8050   22.5520 C   0  0  0  0  0  2  0  0  0  0  0  0
  -19.7230  -26.4530   21.5100 C   0  0  0  0  0  2  0  0  0  0  0  0
  -18.3220  -26.5850   22.1120 C   0  0  0  0  0  2  0  0  0  0  0  0
  -19.2030  -28.7230   23.2180 C   0  0  0  0  0  0  0  0  0  0  0  0
  -18.9470  -29.9870   23.7900 C   0  0  0  0  0  3  0  0  0  0  0  0
  -17.6310  -30.4700   23.9160 C   0  0  0  0  0  3  0  0  0  0  0  0
  -16.5500  -29.6850   23.4800 C   0  0  0  0  0  3  0  0  0  0  0  0
  -16.7890  -28.4210   22.9100 C   0  0  0  0  0  3  0  0  0  0  0  0
  -25.9080  -32.4380   23.8550 C   0  0  0  0  0  3  0  0  0  0  0  0
  -25.5760  -33.8370   24.1720 N   0  0  0  0  0  0  0  0  0  0  0  0
  -25.9120  -34.8930   23.4170 C   0  0  0  0  0  0  0  0  0  0  0  0
  -26.6010  -34.7910   22.3990 O   0  0  0  0  0  0  0  0  0  0  0  0
  -24.9670  -33.9870   24.9630 H   0  0  0  0  0  0  0  0  0  0  0  0
  -24.1730  -36.6710   23.0320 C   0  0  0  0  0  1  0  0  0  0  0  0
  -25.4050  -36.2780   23.8640 C   0  0  0  0  0  3  0  0  0  0  0  0
  -27.5180  -37.1890   24.7230 C   0  0  0  0  0  1  0  0  0  0  0  0
  -26.4290  -37.3410   23.7620 N   0  0  0  0  0  0  0  0  0  0  0  0
  -26.0110  -38.2570   23.8980 H   0  0  0  0  0  0  0  0  0  0  0  0
  -26.3930  -31.6840   25.1550 C   0  0  1  0  0  0  0  0  0  0  0  0
  -25.2730  -31.4530   26.1970 C   0  0  0  0  0  1  0  0  0  0  0  0
  -26.9970  -30.3050   24.7990 C   0  0  0  0  0  1  0  0  0  0  0  0
  -27.5180  -32.4940   25.8410 C   0  0  0  0  0  1  0  0  0  0  0  0
  1  2  2  0
  1  3  1  0
  2 47  1  0
  3  4  2  0
  5  3  1  0
  6  5  1  0
  6 46  1  0
  7 15  1  0
  8 13  1  0
  9 10  1  0
  9  8  1  0
 11 10  1  0
 11 20  1  0
 11 12  1  0
 13  7  1  0
 13 12  1  0
 14  7  2  0
 15 16  1  0
 15  6  1  0
 17 18  2  0
 18 37  1  0
 19 18  1  0
 19 22  1  0
 20 21  1  0
 20 17  1  0
 21 19  2  0
 22 23  1  0
 23 24  2  0
 25 28  1  0
 25 24  1  0
 26 25  2  0
 27 26  1  0
 27 22  2  0
 28 29  1  0
 29 30  1  0
 30 31  2  0
 32 31  1  0
 32 36  1  0
 33 32  2  0
 34 29  2  0
 34 33  1  0
 35 34  1  0
 37 38  1  0
 38 41  1  0
 38 40  1  0
 39 37  2  0
 42 43  1  0
 42 17  1  0
 44 42  1  0
 46 45  1  0
 48 50  1  0
 48 47  1  0
 49 60  2  0
 50 55  1  0
 51 59  1  0
 51 61  1  0
 52 58  1  0
 52 54  1  0
 53 59  1  0
 54 55  2  0
 54 53  1  0
 56 50  2  0
 57 56  1  0
 57 52  2  0
 58 51  1  0
 59 49  1  0
 61 63  2  0
 62 61  1  0
 64 62  1  0
 65 74  2  0
 65 70  1  0
 66 62  1  0
 66 70  1  0
 67 66  1  0
 68 69  1  0
 68 67  1  0
 69 65  1  0
 70 71  2  0
 71 72  1  0
 73 72  2  0
 74 73  1  0
 75 49  1  0
 75 76  1  0
 75 85  1  0
 76 79  1  0
 77 81  1  0
 77 76  1  0
 78 77  2  0
 81 80  1  0
 83 81  1  0
 83 84  1  0
 83 82  1  0
 85 88  1  1
 85 86  1  0
 87 85  1  0
M  ISO  4   7 100  15 100  47 101  48 101
M  END
>  <TORSDO>  (2) 
F 21

>  <SCORE>  (2) 
-13.591

>  <name>  (2) 
1

>  <ligand_id>  (2) 
1

>  <original_smiles>  (2) 
[H]C(C(=O)C([H])([H])C([H])(N([H])C(=O)N1C([H])([H])C([H])([H])C([H])([H])C([H])(n2nc(-c3c([H])c([H])c(Oc4c([H])c([H])c(F)c([H])c4F)c([H])c3[H])c(C(=O)N([H])[H])c2N([H])[H])C1([H])[H])C([H])([H])C([H])([H])[H])=C([H])C([H])([H])Oc1c([H])c([H])c2c(c1[H])C([H])([H])N(C(=O)C([H])(N([H])C(=O)C([H])(N([H])C([H])([H])[H])C([H])([H])[H])C(C([H])([H])[H])(C([H])([H])[H])C([H])([H])[H])C([H])(C(=O)N([H])C1([H])c3c([H])c([H])c([H])c([H])c3C([H])([H])C([H])([H])C1([H])[H])C2([H])[H]

>  <smiles>  (2) 
[H]C(C(=O)C([H])([H])C([H])(N([H])C(=O)N1C([H])([H])C([H])([H])C([H])([H])C([H])(n2nc(-c3c([H])c([H])c(Oc4c([H])c([H])c(F)c([H])c4F)c([H])c3[H])c(C(=O)N([H])[H])c2N([H])[H])C1([H])[H])C([H])([H])C([H])([H])[H])=C([H])C([H])([H])Oc1c([H])c([H])c2c(c1[H])C([H])([H])N(C(=O)C([H])(N([H])C(=O)C([H])(N([H])C([H])([H])[H])C([H])([H])[H])C(C([H])([H])[H])(C([H])([H])[H])C([H])([H])[H])C([H])(C(=O)N([H])C1([H])c3c([H])c([H])c([H])c([H])c3C([H])([H])C([H])([H])C1([H])[H])C2([H])[H]

$$$$
2:0:0
     RDKit          3D

 95104  0  0  1  0  0  0  0  0999 V2000
  -30.9010  -23.0700   19.5370 C   0  0  0  0  0  3  0  0  0  0  0  0
  -30.3670  -21.9110   20.1350 C   0  0  0  0  0  3  0  0  0  0  0  0
  -28.6490  -23.9120   19.1760 C   0  0  0  0  0  3  0  0  0  0  0  0
  -30.0400  -24.1050   19.1090 C   0  0  0  0  0  0  0  0  0  0  0  0
  -28.9710  -21.7820   20.3220 C   0  0  0  0  0  0  0  0  0  0  0  0
  -28.1130  -22.7720   19.8000 C   0  0  0  0  0  0  0  0  0  0  0  0
  -26.7700  -22.6550   19.9340 F   0  0  0  0  0  0  0  0  0  0  0  0
  -30.6050  -25.4440   18.6570 C   0  0  0  0  0  2  0  0  0  0  0  0
  -30.8300  -26.4000   19.8540 C   0  0  0  0  0  2  0  0  0  0  0  0
  -29.6850  -27.3970   20.1300 C   0  0  0  0  0  2  0  0  0  0  0  0
  -28.4350  -26.7220   20.1690 O   0  0  0  0  0  0  0  0  0  0  0  0
  -24.5340  -31.8600   23.2080 C   0  0  0  0  0  0  0  0  0  0  0  0
  -27.2840  -27.4760   20.1880 C   0  0  0  0  0  0  0  0  0  0  0  0
  -23.3590  -30.4380   21.5550 C   0  0  0  0  0  3  0  0  0  0  0  0
  -24.8510  -28.9130   20.1590 C   0  0  0  0  0  0  0  0  0  0  0  0
  -25.8770  -30.8430   21.3750 C   0  0  0  0  0  2  0  0  0  0  0  0
  -25.9920  -29.4730   20.7490 C   0  0  0  0  0  0  0  0  0  0  0  0
  -27.2120  -28.7670   20.7560 C   0  0  0  0  0  3  0  0  0  0  0  0
  -26.1200  -26.9120   19.6220 C   0  0  0  0  0  3  0  0  0  0  0  0
  -24.9050  -27.6250   19.5970 C   0  0  0  0  0  3  0  0  0  0  0  0
  -23.5930  -29.7500   20.1830 C   0  0  0  0  0  2  0  0  0  0  0  0
  -24.6070  -31.0620   22.1040 N   0  0  0  0  0  0  0  0  0  0  0  0
  -23.4440  -32.1250   23.7350 O   0  0  0  0  0  0  0  0  0  0  0  0
  -22.7080  -29.4150   22.5120 C   0  0  0  0  0  0  0  0  0  0  0  0
  -21.3810  -29.2450   22.3870 N   0  0  0  0  0  0  0  0  0  0  0  0
  -23.3920  -28.7790   23.3170 O   0  0  0  0  0  0  0  0  0  0  0  0
  -20.8950  -29.8130   21.7090 H   0  0  0  0  0  0  0  0  0  0  0  0
  -17.9930  -28.1150   22.9130 C   0  0  0  0  0  0  0  0  0  0  0  0
  -20.5580  -28.3110   23.1530 C   0  0  0  0  0  3  0  0  0  0  0  0
  -20.6220  -26.8910   22.5490 C   0  0  0  0  0  2  0  0  0  0  0  0
  -19.4980  -26.6110   21.5440 C   0  0  0  0  0  2  0  0  0  0  0  0
  -18.1290  -26.7750   22.2110 C   0  0  0  0  0  2  0  0  0  0  0  0
  -19.1350  -28.8440   23.3400 C   0  0  0  0  0  0  0  0  0  0  0  0
  -18.9540  -30.1020   23.9570 C   0  0  0  0  0  3  0  0  0  0  0  0
  -17.6620  -30.6300   24.1490 C   0  0  0  0  0  3  0  0  0  0  0  0
  -16.5350  -29.8960   23.7390 C   0  0  0  0  0  3  0  0  0  0  0  0
  -16.7000  -28.6410   23.1270 C   0  0  0  0  0  3  0  0  0  0  0  0
  -25.8080  -32.5010   23.8410 C   0  0  0  0  0  3  0  0  0  0  0  0
  -25.4880  -33.8950   24.1710 N   0  0  0  0  0  0  0  0  0  0  0  0
  -25.8250  -34.9500   23.4170 C   0  0  0  0  0  0  0  0  0  0  0  0
  -26.5080  -34.8530   22.3940 O   0  0  0  0  0  0  0  0  0  0  0  0
  -24.8810  -34.0470   24.9640 H   0  0  0  0  0  0  0  0  0  0  0  0
  -24.0890  -36.7250   23.0300 C   0  0  0  0  0  1  0  0  0  0  0  0
  -25.3180  -36.3330   23.8660 C   0  0  0  0  0  3  0  0  0  0  0  0
  -27.4380  -37.2220   24.7280 C   0  0  0  0  0  1  0  0  0  0  0  0
  -26.3420  -37.3970   23.7780 N   0  0  0  0  0  0  0  0  0  0  0  0
  -25.9260  -38.3090   23.9440 H   0  0  0  0  0  0  0  0  0  0  0  0
  -26.3260  -31.7260   25.1120 C   0  0  1  0  0  0  0  0  0  0  0  0
  -25.2300  -31.4600   26.1710 C   0  0  0  0  0  1  0  0  0  0  0  0
  -26.9240  -30.3590   24.7040 C   0  0  0  0  0  1  0  0  0  0  0  0
  -27.4660  -32.5240   25.7850 C   0  0  0  0  0  1  0  0  0  0  0  0
  -28.3960  -20.6210   21.1250 C   0  0  0  0  0  2  0  0  0  0  0  0
  -28.1190  -19.3610   20.2870 C   0  0  0  0  0  2  0  0  0  0  0  0
  -30.9640  -14.4320   20.3180 C   0  0  0  0  0  0  0  0  0  0  0  0
  -30.6400  -12.1930   19.3760 C   0  0  0  0  0  2  0  0  0  0  0  0
  -29.7310  -12.2920   18.1380 C   0  0  0  0  0  2  0  0  0  0  0  0
  -28.2520  -12.1640   18.5590 C   0  0  0  0  0  2  0  0  0  0  0  0
  -27.8680  -13.1120   19.7320 C   0  0  0  0  0  3  0  0  0  0  0  0
  -28.9130  -13.0600   20.8720 C   0  0  0  0  0  2  0  0  0  0  0  0
  -30.2450  -13.2750   20.2880 N   0  0  0  0  0  0  0  0  0  0  0  0
  -32.1520  -14.4870   19.9940 O   0  0  0  0  0  0  0  0  0  0  0  0
  -28.9920  -17.3010   19.1400 C   0  0  0  0  0  2  0  0  0  0  0  0
  -29.7300  -17.7670   21.5210 C   0  0  0  0  0  2  0  0  0  0  0  0
  -30.1200  -16.2700   19.0890 C   0  0  0  0  0  2  0  0  0  0  0  0
  -30.7160  -16.5780   21.3790 C   0  0  0  0  0  2  0  0  0  0  0  0
  -29.3130  -18.3910   20.1680 C   0  0  0  0  0  3  0  0  0  0  0  0
  -30.2610  -15.5850   20.3880 N   0  0  0  0  0  0  0  0  0  0  0  0
  -25.4780  -13.7340   20.4540 C   0  0  0  0  0  0  0  0  0  0  0  0
  -24.4030  -12.9660   20.8220 C   0  0  0  0  0  0  0  0  0  0  0  0
  -24.8560  -11.6130   20.7960 C   0  0  0  0  0  0  0  0  0  0  0  0
  -26.5160  -12.8460   20.2210 N   0  0  0  0  0  0  0  0  0  0  0  0
  -26.1460  -11.5640   20.4900 N   0  0  0  0  0  0  0  0  0  0  0  0
  -24.1150  -10.3580   20.9930 C   0  0  0  0  0  0  0  0  0  0  0  0
  -24.5110   -9.4110   21.9640 C   0  0  0  0  0  3  0  0  0  0  0  0
  -23.7730   -8.2210   22.1480 C   0  0  0  0  0  3  0  0  0  0  0  0
  -22.6290   -7.9670   21.3560 C   0  0  0  0  0  0  0  0  0  0  0  0
  -22.2520   -8.9010   20.3740 C   0  0  0  0  0  3  0  0  0  0  0  0
  -22.9900  -10.0830   20.1890 C   0  0  0  0  0  3  0  0  0  0  0  0
  -21.8700   -6.8260   21.4460 O   0  0  0  0  0  0  0  0  0  0  0  0
  -21.7480   -6.1310   22.6230 C   0  0  0  0  0  0  0  0  0  0  0  0
  -21.2370   -6.7350   23.7930 C   0  0  0  0  0  3  0  0  0  0  0  0
  -21.0570   -5.9660   24.9610 C   0  0  0  0  0  3  0  0  0  0  0  0
  -21.3830   -4.5960   24.9600 C   0  0  0  0  0  0  0  0  0  0  0  0
  -21.8920   -3.9940   23.7950 C   0  0  0  0  0  3  0  0  0  0  0  0
  -22.0720   -4.7600   22.6280 C   0  0  0  0  0  0  0  0  0  0  0  0
  -22.5390   -4.1700   21.5020 F   0  0  0  0  0  0  0  0  0  0  0  0
  -21.2030   -3.8560   26.0780 F   0  0  0  0  0  0  0  0  0  0  0  0
  -23.0110  -13.4600   21.0890 C   0  0  0  0  0  0  0  0  0  0  0  0
  -22.2790  -12.7750   21.9630 N   0  0  0  0  0  0  0  0  0  0  0  0
  -22.5810  -14.4850   20.5650 O   0  0  0  0  0  0  0  0  0  0  0  0
  -22.6400  -11.9400   22.4020 H   0  0  0  0  0  0  0  0  0  0  0  0
  -21.3470  -13.0940   22.1910 H   0  0  0  0  0  0  0  0  0  0  0  0
  -25.6430  -15.1040   20.2800 N   0  0  0  0  0  0  0  0  0  0  0  0
  -24.8650  -15.7470   20.3930 H   0  0  0  0  0  0  0  0  0  0  0  0
  -26.4940  -15.5610   19.9770 H   0  0  0  0  0  0  0  0  0  0  0  0
  1  2  1  0
  2  5  2  0
  3  6  2  0
  4  3  1  0
  4  1  2  0
  5 52  1  0
  6  7  1  0
  6  5  1  0
  8  4  1  0
  8  9  1  0
  9 10  1  0
 10 11  1  0
 11 13  1  0
 12 23  2  0
 13 18  1  0
 14 22  1  0
 14 24  1  0
 15 21  1  0
 15 17  1  0
 16 22  1  0
 17 18  2  0
 17 16  1  0
 19 13  2  0
 20 19  1  0
 20 15  2  0
 21 14  1  0
 22 12  1  0
 24 26  2  0
 25 24  1  0
 27 25  1  0
 28 37  2  0
 28 33  1  0
 29 25  1  0
 29 33  1  0
 30 29  1  0
 31 32  1  0
 31 30  1  0
 32 28  1  0
 33 34  2  0
 34 35  1  0
 36 35  2  0
 37 36  1  0
 38 12  1  0
 38 39  1  0
 38 48  1  0
 39 42  1  0
 40 44  1  0
 40 39  1  0
 41 40  2  0
 44 43  1  0
 46 44  1  0
 46 47  1  0
 46 45  1  0
 48 51  1  1
 48 49  1  0
 50 48  1  0
 53 52  1  0
 54 67  1  0
 55 60  1  0
 56 57  1  0
 56 55  1  0
 58 57  1  0
 58 71  1  0
 58 59  1  0
 60 54  1  0
 60 59  1  0
 61 54  2  0
 62 66  1  0
 64 62  1  0
 64 67  1  0
 65 63  1  0
 66 53  1  0
 66 63  1  0
 67 65  1  0
 68 69  2  0
 69 88  1  0
 70 69  1  0
 70 73  1  0
 71 68  1  0
 71 72  1  0
 72 70  2  0
 73 74  1  0
 74 75  2  0
 76 79  1  0
 76 75  1  0
 77 76  2  0
 78 77  1  0
 78 73  2  0
 79 80  1  0
 80 85  2  0
 80 81  1  0
 81 82  2  0
 83 82  1  0
 83 87  1  0
 84 83  2  0
 85 84  1  0
 86 85  1  0
 88 89  1  0
 89 92  1  0
 89 91  1  0
 90 88  2  0
 93 94  1  0
 93 68  1  0
 95 93  1  0
M  ISO  4  10 101  11 101  54 100  67 100
M  END
>  <TORSDO>  (3) 
F 21

>  <SCORE>  (3) 
-13.336

>  <name>  (3) 
2

>  <ligand_id>  (3) 
2

>  <original_smiles>  (3) 
[H]c1c([H])c([H])c2c(c1[H])C([H])([H])C([H])([H])C([H])([H])C2([H])N([H])C(=O)C1([H])N(C(=O)C([H])(N([H])C(=O)C([H])(N([H])C([H])([H])[H])C([H])([H])[H])C(C([H])([H])[H])(C([H])([H])[H])C([H])([H])[H])C([H])([H])c2c([H])c(OC([H])([H])C([H])([H])C([H])([H])c3c([H])c([H])c(C([H])([H])C([H])([H])C4([H])C([H])([H])C([H])([H])N(C(=O)N5C([H])([H])C([H])([H])C([H])([H])C([H])(n6nc(-c7c([H])c([H])c(Oc8c([H])c([H])c(F)c([H])c8F)c([H])c7[H])c(C(=O)N([H])[H])c6N([H])[H])C5([H])[H])C([H])([H])C4([H])[H])c(F)c3[H])c([H])c([H])c2C1([H])[H]

>  <smiles>  (3) 
[H]c1c([H])c([H])c2c(c1[H])C([H])([H])C([H])([H])C([H])([H])C2([H])N([H])C(=O)C1([H])N(C(=O)C([H])(N([H])C(=O)C([H])(N([H])C([H])([H])[H])C([H])([H])[H])C(C([H])([H])[H])(C([H])([H])[H])C([H])([H])[H])C([H])([H])c2c([H])c(OC([H])([H])C([H])([H])C([H])([H])c3c([H])c([H])c(C([H])([H])C([H])([H])C4([H])C([H])([H])C([H])([H])N(C(=O)N5C([H])([H])C([H])([H])C([H])([H])C([H])(n6nc(-c7c([H])c([H])c(Oc8c([H])c([H])c(F)c([H])c8F)c([H])c7[H])c(C(=O)N([H])[H])c6N([H])[H])C5([H])[H])C([H])([H])C4([H])[H])c(F)c3[H])c([H])c([H])c2C1([H])[H]

$$$$
3:0:0
     RDKit          3D

 92 99  0  0  1  0  0  0  0  0999 V2000
  -29.1620  -22.4050   17.6800 N   0  0  0  0  0  4  0  0  0  0  0  0
  -29.8780  -22.3370   18.3870 H   0  0  0  0  0  0  0  0  0  0  0  0
  -29.5750  -22.8980   16.9050 H   0  0  0  0  0  0  0  0  0  0  0  0
  -27.7740  -21.0080   16.0770 C   0  0  0  0  0  1  0  0  0  0  0  0
  -28.8270  -21.0240   17.2080 C   0  0  0  0  0  3  0  0  0  0  0  0
  -28.3650  -20.0680   18.3410 C   0  0  0  0  0  2  0  0  0  0  0  0
  -29.4720  -19.4360   19.2170 C   0  0  0  0  0  2  0  0  0  0  0  0
  -28.8790  -18.4470   20.2510 C   0  0  0  0  0  2  0  0  0  0  0  0
  -29.8580  -17.7530   21.2410 C   0  0  0  0  0  2  0  0  0  0  0  0
  -30.9140  -16.7420   20.6880 C   0  0  0  0  0  2  0  0  0  0  0  0
  -31.2140  -14.2770   20.1510 C   0  0  0  0  0  0  0  0  0  0  0  0
  -30.8370  -12.1770   18.9150 C   0  0  0  0  0  2  0  0  0  0  0  0
  -29.8510  -12.4270   17.7560 C   0  0  0  0  0  2  0  0  0  0  0  0
  -28.3820  -12.3680   18.2250 C   0  0  0  0  0  2  0  0  0  0  0  0
  -28.1300  -13.2050   19.5080 C   0  0  0  0  0  3  0  0  0  0  0  0
  -29.1880  -12.8750   20.5830 C   0  0  0  0  0  2  0  0  0  0  0  0
  -30.5100  -13.1250   19.9920 N   0  0  0  0  0  0  0  0  0  0  0  0
  -32.3840  -14.4000   19.7810 O   0  0  0  0  0  0  0  0  0  0  0  0
  -30.4710  -15.3390   20.5560 N   0  0  0  0  0  0  0  0  0  0  0  0
  -29.5000  -15.1370   20.7430 H   0  0  0  0  0  0  0  0  0  0  0  0
  -25.7930  -13.9780   20.2600 C   0  0  0  0  0  0  0  0  0  0  0  0
  -24.6870  -13.2820   20.6600 C   0  0  0  0  0  0  0  0  0  0  0  0
  -25.0620  -11.9030   20.6440 C   0  0  0  0  0  0  0  0  0  0  0  0
  -26.7740  -13.0300   20.0200 N   0  0  0  0  0  0  0  0  0  0  0  0
  -26.3420  -11.7790   20.3140 N   0  0  0  0  0  0  0  0  0  0  0  0
  -24.2670  -10.6930   20.8640 C   0  0  0  0  0  0  0  0  0  0  0  0
  -24.6370   -9.7330   21.8320 C   0  0  0  0  0  3  0  0  0  0  0  0
  -23.8460   -8.5830   22.0380 C   0  0  0  0  0  3  0  0  0  0  0  0
  -22.6710   -8.3840   21.2760 C   0  0  0  0  0  0  0  0  0  0  0  0
  -22.3210   -9.3290   20.2960 C   0  0  0  0  0  3  0  0  0  0  0  0
  -23.1110  -10.4700   20.0890 C   0  0  0  0  0  3  0  0  0  0  0  0
  -21.8530   -7.2850   21.3890 O   0  0  0  0  0  0  0  0  0  0  0  0
  -21.7230   -6.6030   22.5720 C   0  0  0  0  0  0  0  0  0  0  0  0
  -21.2660   -7.2330   23.7490 C   0  0  0  0  0  3  0  0  0  0  0  0
  -21.0840   -6.4780   24.9250 C   0  0  0  0  0  3  0  0  0  0  0  0
  -21.3480   -5.0950   24.9230 C   0  0  0  0  0  0  0  0  0  0  0  0
  -21.7950   -4.4660   23.7480 C   0  0  0  0  0  3  0  0  0  0  0  0
  -21.9820   -5.2180   22.5760 C   0  0  0  0  0  0  0  0  0  0  0  0
  -22.3950   -4.6020   21.4410 F   0  0  0  0  0  0  0  0  0  0  0  0
  -21.1640   -4.3680   26.0490 F   0  0  0  0  0  0  0  0  0  0  0  0
  -23.3250  -13.8470   20.9510 C   0  0  0  0  0  0  0  0  0  0  0  0
  -22.5750  -13.2080   21.8400 N   0  0  0  0  0  0  0  0  0  0  0  0
  -22.9410  -14.8910   20.4230 O   0  0  0  0  0  0  0  0  0  0  0  0
  -22.8950  -12.3570   22.2790 H   0  0  0  0  0  0  0  0  0  0  0  0
  -21.6630  -13.5690   22.0810 H   0  0  0  0  0  0  0  0  0  0  0  0
  -26.0420  -15.3350   20.0590 N   0  0  0  0  0  0  0  0  0  0  0  0
  -25.3030  -16.0230   20.1470 H   0  0  0  0  0  0  0  0  0  0  0  0
  -26.9060  -15.7300   19.7080 H   0  0  0  0  0  0  0  0  0  0  0  0
  -28.0330  -23.2160   18.2040 C   0  0  0  0  0  2  0  0  0  0  0  0
  -28.3350  -24.7280   18.4200 C   0  0  0  0  0  2  0  0  0  0  0  0
  -28.3180  -25.1720   19.9070 C   0  0  0  0  0  2  0  0  0  0  0  0
  -28.3910  -26.5920   20.1320 O   0  0  0  0  0  0  0  0  0  0  0  0
  -24.6140  -31.8170   23.2650 C   0  0  0  0  0  0  0  0  0  0  0  0
  -27.2100  -27.3150   20.1780 C   0  0  0  0  0  0  0  0  0  0  0  0
  -23.4000  -30.4240   21.6310 C   0  0  0  0  0  3  0  0  0  0  0  0
  -24.8320  -28.8560   20.2300 C   0  0  0  0  0  0  0  0  0  0  0  0
  -25.9340  -30.7400   21.4390 C   0  0  0  0  0  2  0  0  0  0  0  0
  -26.0000  -29.3620   20.8080 C   0  0  0  0  0  0  0  0  0  0  0  0
  -27.1960  -28.5990   20.7740 C   0  0  0  0  0  3  0  0  0  0  0  0
  -26.0030  -26.8180   19.6290 C   0  0  0  0  0  3  0  0  0  0  0  0
  -24.8240  -27.5800   19.6500 C   0  0  0  0  0  3  0  0  0  0  0  0
  -23.6070  -29.7400   20.2560 C   0  0  0  0  0  2  0  0  0  0  0  0
  -24.6700  -31.0070   22.1700 N   0  0  0  0  0  0  0  0  0  0  0  0
  -23.5320  -32.1090   23.7960 O   0  0  0  0  0  0  0  0  0  0  0  0
  -22.7260  -29.4120   22.5880 C   0  0  0  0  0  0  0  0  0  0  0  0
  -21.3990  -29.2420   22.4510 N   0  0  0  0  0  0  0  0  0  0  0  0
  -23.3940  -28.7810   23.4110 O   0  0  0  0  0  0  0  0  0  0  0  0
  -20.9150  -29.8090   21.7680 H   0  0  0  0  0  0  0  0  0  0  0  0
  -18.0130  -28.0900   22.9460 C   0  0  0  0  0  0  0  0  0  0  0  0
  -20.5720  -28.3170   23.2230 C   0  0  0  0  0  3  0  0  0  0  0  0
  -20.6590  -26.8810   22.6530 C   0  0  0  0  0  2  0  0  0  0  0  0
  -19.5560  -26.5680   21.6370 C   0  0  0  0  0  2  0  0  0  0  0  0
  -18.1730  -26.7360   22.2750 C   0  0  0  0  0  2  0  0  0  0  0  0
  -19.1390  -28.8390   23.3770 C   0  0  0  0  0  0  0  0  0  0  0  0
  -18.9370  -30.1090   23.9590 C   0  0  0  0  0  3  0  0  0  0  0  0
  -17.6390  -30.6300   24.1140 C   0  0  0  0  0  3  0  0  0  0  0  0
  -16.5250  -29.8810   23.6980 C   0  0  0  0  0  3  0  0  0  0  0  0
  -16.7130  -28.6120   23.1220 C   0  0  0  0  0  3  0  0  0  0  0  0
  -25.9020  -32.4370   23.8910 C   0  0  0  0  0  3  0  0  0  0  0  0
  -26.3930  -31.6780   25.1840 C   0  0  1  0  0  0  0  0  0  0  0  0
  -25.2820  -31.4720   26.2420 C   0  0  0  0  0  1  0  0  0  0  0  0
  -26.9600  -30.2880   24.8150 C   0  0  0  0  0  1  0  0  0  0  0  0
  -27.5460  -32.4670   25.8480 C   0  0  0  0  0  1  0  0  0  0  0  0
  -25.6120  -33.8430   24.1920 N   0  0  0  0  0  0  0  0  0  0  0  0
  -25.9760  -34.8760   23.4200 C   0  0  0  0  0  0  0  0  0  0  0  0
  -26.6590  -34.7430   22.4010 O   0  0  0  0  0  0  0  0  0  0  0  0
  -25.0170  -34.0260   24.9850 H   0  0  0  0  0  0  0  0  0  0  0  0
  -24.2940  -36.6960   22.9920 C   0  0  0  0  0  1  0  0  0  0  0  0
  -25.5020  -36.2770   23.8440 C   0  0  0  0  0  3  0  0  0  0  0  0
  -27.6260  -37.1340   24.7300 C   0  0  0  0  0  1  0  0  0  0  0  0
  -26.5560  -37.3110   23.7520 N   0  0  0  0  0  0  0  0  0  0  0  0
  -26.1620  -38.2390   23.8830 H   0  0  0  0  0  0  0  0  0  0  0  0
  1 49  1  0
  1  2  1  0
  3  1  1  0
  5  4  1  0
  5  1  1  0
  5  6  1  0
  6  7  1  0
  7  8  1  0
  8  9  1  0
 10  9  1  0
 11 19  1  0
 12 17  1  0
 13 14  1  0
 13 12  1  0
 15 14  1  0
 15 24  1  0
 15 16  1  0
 17 11  1  0
 17 16  1  0
 18 11  2  0
 19 10  1  0
 19 20  1  0
 21 22  2  0
 22 41  1  0
 23 22  1  0
 23 26  1  0
 24 21  1  0
 24 25  1  0
 25 23  2  0
 26 27  1  0
 27 28  2  0
 29 32  1  0
 29 28  1  0
 30 29  2  0
 31 30  1  0
 31 26  2  0
 32 33  1  0
 33 38  2  0
 33 34  1  0
 34 35  2  0
 36 35  1  0
 36 40  1  0
 37 36  2  0
 38 37  1  0
 39 38  1  0
 41 42  1  0
 42 45  1  0
 42 44  1  0
 43 41  2  0
 46 47  1  0
 46 21  1  0
 48 46  1  0
 49 50  1  0
 50 51  1  0
 51 52  1  0
 52 54  1  0
 53 64  2  0
 54 59  1  0
 55 63  1  0
 55 65  1  0
 56 62  1  0
 56 58  1  0
 57 63  1  0
 58 57  1  0
 59 58  2  0
 60 61  1  0
 60 54  2  0
 61 56  2  0
 62 55  1  0
 63 53  1  0
 65 67  2  0
 66 65  1  0
 68 66  1  0
 69 78  2  0
 69 74  1  0
 70 66  1  0
 70 74  1  0
 71 70  1  0
 72 73  1  0
 72 71  1  0
 73 69  1  0
 74 75  2  0
 75 76  1  0
 77 76  2  0
 78 77  1  0
 79 53  1  0
 79 84  1  0
 79 80  1  0
 80 83  1  1
 80 81  1  0
 82 80  1  0
 84 87  1  0
 85 89  1  0
 85 84  1  0
 86 85  2  0
 89 88  1  0
 91 89  1  0
 91 92  1  0
 91 90  1  0
M  ISO  4  11 100  19 100  51 101  52 101
M  END
>  <TORSDO>  (4) 
F 25

>  <SCORE>  (4) 
-10.450

>  <name>  (4) 
3

>  <ligand_id>  (4) 
3

>  <original_smiles>  (4) 
[H]c1c([H])c([H])c2c(c1[H])C([H])([H])C([H])([H])C([H])([H])C2([H])N([H])C(=O)C1([H])N(C(=O)C([H])(N([H])C(=O)C([H])(N([H])C([H])([H])[H])C([H])([H])[H])C(C([H])([H])[H])(C([H])([H])[H])C([H])([H])[H])C([H])([H])c2c([H])c(OC([H])([H])C([H])([H])C([H])([H])[N+]([H])([H])C([H])(C([H])([H])[H])C([H])([H])C([H])([H])C([H])([H])C([H])([H])C([H])([H])N([H])C(=O)N3C([H])([H])C([H])([H])C([H])([H])C([H])(n4nc(-c5c([H])c([H])c(Oc6c([H])c([H])c(F)c([H])c6F)c([H])c5[H])c(C(=O)N([H])[H])c4N([H])[H])C3([H])[H])c([H])c([H])c2C1([H])[H]

>  <smiles>  (4) 
[H]c1c([H])c([H])c2c(c1[H])C([H])([H])C([H])([H])C([H])([H])C2([H])N([H])C(=O)C1([H])N(C(=O)C([H])(N([H])C(=O)C([H])(N([H])C([H])([H])[H])C([H])([H])[H])C(C([H])([H])[H])(C([H])([H])[H])C([H])([H])[H])C([H])([H])c2c([H])c(OC([H])([H])C([H])([H])C([H])([H])[N+]([H])([H])C([H])(C([H])([H])[H])C([H])([H])C([H])([H])C([H])([H])C([H])([H])C([H])([H])N([H])C(=O)N3C([H])([H])C([H])([H])C([H])([H])C([H])(n4nc(-c5c([H])c([H])c(Oc6c([H])c([H])c(F)c([H])c6F)c([H])c5[H])c(C(=O)N([H])[H])c4N([H])[H])C3([H])[H])c([H])c([H])c2C1([H])[H]

$$$$
4:0:0
     RDKit          3D

 98106  0  0  1  0  0  0  0  0999 V2000
  -31.6140  -21.2540   24.8580 C   0  0  0  0  0  3  0  0  0  0  0  0
  -30.3460  -21.8360   24.7020 C   0  0  0  0  0  3  0  0  0  0  0  0
  -32.3210  -20.8240   23.7280 C   0  0  0  0  0  3  0  0  0  0  0  0
  -30.5240  -21.6180   22.2620 C   0  0  0  0  0  0  0  0  0  0  0  0
  -29.7910  -22.0090   23.4190 C   0  0  0  0  0  0  0  0  0  0  0  0
  -31.7920  -20.9870   22.4300 C   0  0  0  0  0  0  0  0  0  0  0  0
  -28.3940  -22.6080   23.3300 C   0  0  0  0  0  1  0  0  0  0  0  0
  -29.9580  -21.8910   20.8890 C   0  0  0  0  0  0  0  0  0  0  0  0
  -29.5090  -23.1320   20.6410 N   0  0  0  0  0  0  0  0  0  0  0  0
  -29.8680  -20.9930   20.0530 O   0  0  0  0  0  0  0  0  0  0  0  0
  -29.0470  -23.2770   19.7550 H   0  0  0  0  0  0  0  0  0  0  0  0
  -29.7260  -24.3180   21.4720 C   0  0  0  0  0  2  0  0  0  0  0  0
  -29.1800  -25.5940   20.8110 C   0  0  0  0  0  2  0  0  0  0  0  0
  -29.5130  -25.7240   19.3040 C   0  0  0  0  0  2  0  0  0  0  0  0
  -29.3180  -27.0670   18.8690 O   0  0  0  0  0  0  0  0  0  0  0  0
  -25.0550  -30.6000   23.2800 C   0  0  0  0  0  0  0  0  0  0  0  0
  -28.0550  -27.5450   19.0860 C   0  0  0  0  0  0  0  0  0  0  0  0
  -23.9370  -29.4250   21.4160 C   0  0  0  0  0  3  0  0  0  0  0  0
  -25.4680  -28.5360   19.5860 C   0  0  0  0  0  0  0  0  0  0  0  0
  -26.3440  -30.2610   21.1800 C   0  0  0  0  0  2  0  0  0  0  0  0
  -26.5770  -29.1200   20.2140 C   0  0  0  0  0  0  0  0  0  0  0  0
  -27.8750  -28.6410   19.9510 C   0  0  0  0  0  3  0  0  0  0  0  0
  -26.9320  -26.9430   18.4800 C   0  0  0  0  0  3  0  0  0  0  0  0
  -25.6410  -27.4430   18.7160 C   0  0  0  0  0  3  0  0  0  0  0  0
  -24.1160  -29.1410   19.9000 C   0  0  0  0  0  2  0  0  0  0  0  0
  -25.1330  -30.0970   22.0170 N   0  0  0  0  0  0  0  0  0  0  0  0
  -23.9990  -30.5490   23.9230 O   0  0  0  0  0  0  0  0  0  0  0  0
  -23.5530  -28.1070   22.1240 C   0  0  0  0  0  0  0  0  0  0  0  0
  -22.3010  -27.6650   21.9200 N   0  0  0  0  0  0  0  0  0  0  0  0
  -24.3690  -27.4970   22.8190 O   0  0  0  0  0  0  0  0  0  0  0  0
  -21.6890  -28.2290   21.3480 H   0  0  0  0  0  0  0  0  0  0  0  0
  -19.3620  -25.5670   21.8760 C   0  0  0  0  0  0  0  0  0  0  0  0
  -21.7240  -26.4360   22.4630 C   0  0  0  0  0  3  0  0  0  0  0  0
  -22.2590  -25.1960   21.7140 C   0  0  0  0  0  2  0  0  0  0  0  0
  -21.3630  -24.7610   20.5510 C   0  0  0  0  0  2  0  0  0  0  0  0
  -19.9520  -24.4350   21.0510 C   0  0  0  0  0  2  0  0  0  0  0  0
  -20.1960  -26.5170   22.5250 C   0  0  0  0  0  0  0  0  0  0  0  0
  -19.6000  -27.5720   23.2510 C   0  0  0  0  0  3  0  0  0  0  0  0
  -18.2000  -27.6870   23.3350 C   0  0  0  0  0  3  0  0  0  0  0  0
  -17.3800  -26.7360   22.7030 C   0  0  0  0  0  3  0  0  0  0  0  0
  -17.9610  -25.6760   21.9820 C   0  0  0  0  0  3  0  0  0  0  0  0
  -26.2810  -31.2870   23.9620 C   0  0  0  0  0  3  0  0  0  0  0  0
  -26.8060  -30.5070   25.2270 C   0  0  1  0  0  0  0  0  0  0  0  0
  -25.7020  -30.1660   26.2510 C   0  0  0  0  0  1  0  0  0  0  0  0
  -27.4890  -29.1830   24.8110 C   0  0  0  0  0  1  0  0  0  0  0  0
  -27.8780  -31.3500   25.9550 C   0  0  0  0  0  1  0  0  0  0  0  0
  -25.8710  -32.6510   24.3220 N   0  0  0  0  0  0  0  0  0  0  0  0
  -26.2060  -33.7520   23.6350 C   0  0  0  0  0  0  0  0  0  0  0  0
  -26.9670  -33.7320   22.6650 O   0  0  0  0  0  0  0  0  0  0  0  0
  -25.2080  -32.7410   25.0780 H   0  0  0  0  0  0  0  0  0  0  0  0
  -24.4180  -35.4680   23.1980 C   0  0  0  0  0  1  0  0  0  0  0  0
  -25.6010  -35.0910   24.1030 C   0  0  0  0  0  3  0  0  0  0  0  0
  -27.6140  -36.0320   25.1490 C   0  0  0  0  0  1  0  0  0  0  0  0
  -26.5790  -36.2000   24.1330 N   0  0  0  0  0  0  0  0  0  0  0  0
  -26.1100  -37.0850   24.3010 H   0  0  0  0  0  0  0  0  0  0  0  0
  -32.6270  -20.4120   21.2880 C   0  0  0  0  0  2  0  0  0  0  0  0
  -32.5890  -18.8690   21.2820 C   0  0  0  0  0  2  0  0  0  0  0  0
  -31.1420  -18.3510   21.2460 C   0  0  0  0  0  2  0  0  0  0  0  0
  -30.9760  -16.8870   20.8060 C   0  0  0  0  0  2  0  0  0  0  0  0
  -31.3750  -15.8320   21.8540 C   0  0  0  0  0  2  0  0  0  0  0  0
  -31.1510  -13.9140   20.2500 C   0  0  0  0  0  0  0  0  0  0  0  0
  -30.5130  -12.0330   18.7800 C   0  0  0  0  0  2  0  0  0  0  0  0
  -29.5070  -12.4590   17.6970 C   0  0  0  0  0  2  0  0  0  0  0  0
  -28.0680  -12.3650   18.2330 C   0  0  0  0  0  2  0  0  0  0  0  0
  -27.8970  -13.0850   19.5970 C   0  0  0  0  0  3  0  0  0  0  0  0
  -29.0000  -12.6510   20.5900 C   0  0  0  0  0  2  0  0  0  0  0  0
  -30.3210  -12.8800   19.9670 N   0  0  0  0  0  0  0  0  0  0  0  0
  -32.0850  -14.2650   19.5160 O   0  0  0  0  0  0  0  0  0  0  0  0
  -30.9150  -14.5090   21.4270 N   0  0  0  0  0  0  0  0  0  0  0  0
  -30.2180  -14.0650   22.0110 H   0  0  0  0  0  0  0  0  0  0  0  0
  -25.6350  -13.7950   20.6050 C   0  0  0  0  0  0  0  0  0  0  0  0
  -24.5230  -13.0800   20.9630 C   0  0  0  0  0  0  0  0  0  0  0  0
  -24.8320  -11.7110   20.6930 C   0  0  0  0  0  0  0  0  0  0  0  0
  -26.5590  -12.8660   20.1530 N   0  0  0  0  0  0  0  0  0  0  0  0
  -26.0790  -11.6000   20.2550 N   0  0  0  0  0  0  0  0  0  0  0  0
  -23.9950  -10.5090   20.7730 C   0  0  0  0  0  0  0  0  0  0  0  0
  -24.4280   -9.3560   21.4670 C   0  0  0  0  0  3  0  0  0  0  0  0
  -23.6010   -8.2140   21.5460 C   0  0  0  0  0  3  0  0  0  0  0  0
  -22.3260   -8.2190   20.9320 C   0  0  0  0  0  0  0  0  0  0  0  0
  -21.9090   -9.3580   20.2220 C   0  0  0  0  0  3  0  0  0  0  0  0
  -22.7360  -10.4900   20.1410 C   0  0  0  0  0  3  0  0  0  0  0  0
  -21.4670   -7.1460   20.9320 O   0  0  0  0  0  0  0  0  0  0  0  0
  -21.4620   -6.2260   21.9490 C   0  0  0  0  0  0  0  0  0  0  0  0
  -21.2680   -6.6030   23.2960 C   0  0  0  0  0  3  0  0  0  0  0  0
  -21.2070   -5.6180   24.3010 C   0  0  0  0  0  3  0  0  0  0  0  0
  -21.3250   -4.2560   23.9630 C   0  0  0  0  0  0  0  0  0  0  0  0
  -21.5110   -3.8780   22.6220 C   0  0  0  0  0  3  0  0  0  0  0  0
  -21.5810   -4.8610   21.6180 C   0  0  0  0  0  0  0  0  0  0  0  0
  -21.7390   -4.4890   20.3240 F   0  0  0  0  0  0  0  0  0  0  0  0
  -21.2560   -3.3090   24.9270 F   0  0  0  0  0  0  0  0  0  0  0  0
  -23.2130  -13.6340   21.4430 C   0  0  0  0  0  0  0  0  0  0  0  0
  -22.5070  -12.8940   22.2920 N   0  0  0  0  0  0  0  0  0  0  0  0
  -22.8340  -14.7570   21.1110 O   0  0  0  0  0  0  0  0  0  0  0  0
  -22.8280  -11.9820   22.5870 H   0  0  0  0  0  0  0  0  0  0  0  0
  -21.6300  -13.2390   22.6530 H   0  0  0  0  0  0  0  0  0  0  0  0
  -25.9310  -15.1540   20.6080 N   0  0  0  0  0  0  0  0  0  0  0  0
  -25.2600  -15.8610   20.8950 H   0  0  0  0  0  0  0  0  0  0  0  0
  -26.8010  -15.5490   20.2730 H   0  0  0  0  0  0  0  0  0  0  0  0
  2  1  1  0
  3  1  2  0
  4  6  2  0
  4  5  1  0
  5  2  2  0
  6  3  1  0
  7  5  1  0
  8  4  1  0
  9  8  1  0
  9 12  1  0
 10  8  2  0
 11  9  1  0
 13 12  1  0
 14 13  1  0
 15 17  1  0
 15 14  1  0
 16 27  2  0
 17 22  1  0
 18 26  1  0
 18 28  1  0
 19 25  1  0
 19 21  1  0
 20 26  1  0
 21 20  1  0
 22 21  2  0
 23 24  1  0
 23 17  2  0
 24 19  2  0
 25 18  1  0
 26 16  1  0
 28 30  2  0
 29 28  1  0
 31 29  1  0
 32 41  2  0
 32 37  1  0
 33 29  1  0
 33 37  1  0
 34 33  1  0
 35 36  1  0
 35 34  1  0
 36 32  1  0
 37 38  2  0
 38 39  1  0
 40 39  2  0
 41 40  1  0
 42 16  1  0
 42 47  1  0
 42 43  1  0
 43 46  1  1
 43 44  1  0
 45 43  1  0
 47 50  1  0
 48 52  1  0
 48 47  1  0
 49 48  2  0
 52 51  1  0
 52 54  1  0
 54 55  1  0
 54 53  1  0
 56  6  1  0
 57 56  1  0
 58 57  1  0
 59 58  1  0
 59 60  1  0
 61 69  1  0
 62 67  1  0
 63 64  1  0
 63 62  1  0
 65 64  1  0
 65 74  1  0
 65 66  1  0
 67 61  1  0
 67 66  1  0
 68 61  2  0
 69 60  1  0
 69 70  1  0
 71 96  1  0
 71 72  2  0
 72 91  1  0
 73 76  1  0
 73 72  1  0
 74 75  1  0
 74 71  1  0
 75 73  2  0
 76 77  1  0
 77 78  2  0
 79 82  1  0
 79 78  1  0
 80 79  2  0
 81 80  1  0
 81 76  2  0
 82 83  1  0
 83 84  1  0
 84 85  2  0
 86 85  1  0
 86 90  1  0
 87 86  2  0
 88 83  2  0
 88 87  1  0
 89 88  1  0
 91 92  1  0
 92 94  1  0
 92 95  1  0
 93 91  2  0
 96 97  1  0
 98 96  1  0
M  ISO  4  14 101  15 101  61 100  69 100
M  END
>  <TORSDO>  (5) 
F 25

>  <SCORE>  (5) 
-8.046

>  <name>  (5) 
4

>  <ligand_id>  (5) 
4

>  <original_smiles>  (5) 
[H]c1c([H])c([H])c2c(c1[H])C([H])([H])C([H])([H])C([H])([H])C2([H])N([H])C(=O)C1([H])N(C(=O)C([H])(N([H])C(=O)C([H])(N([H])C([H])([H])[H])C([H])([H])[H])C(C([H])([H])[H])(C([H])([H])[H])C([H])([H])[H])C([H])([H])c2c([H])c(OC([H])([H])C([H])([H])C([H])([H])N([H])C(=O)c3c(C([H])([H])[H])c([H])c([H])c([H])c3C([H])([H])C([H])([H])C([H])([H])C([H])([H])C([H])([H])N([H])C(=O)N3C([H])([H])C([H])([H])C([H])([H])C([H])(n4nc(-c5c([H])c([H])c(Oc6c([H])c([H])c(F)c([H])c6F)c([H])c5[H])c(C(=O)N([H])[H])c4N([H])[H])C3([H])[H])c([H])c([H])c2C1([H])[H]

>  <smiles>  (5) 
[H]c1c([H])c([H])c2c(c1[H])C([H])([H])C([H])([H])C([H])([H])C2([H])N([H])C(=O)C1([H])N(C(=O)C([H])(N([H])C(=O)C([H])(N([H])C([H])([H])[H])C([H])([H])[H])C(C([H])([H])[H])(C([H])([H])[H])C([H])([H])[H])C([H])([H])c2c([H])c(OC([H])([H])C([H])([H])C([H])([H])N([H])C(=O)c3c(C([H])([H])[H])c([H])c([H])c([H])c3C([H])([H])C([H])([H])C([H])([H])C([H])([H])C([H])([H])N([H])C(=O)N3C([H])([H])C([H])([H])C([H])([H])C([H])(n4nc(-c5c([H])c([H])c(Oc6c([H])c([H])c(F)c([H])c6F)c([H])c5[H])c(C(=O)N([H])[H])c4N([H])[H])C3([H])[H])c([H])c([H])c2C1([H])[H]

$$$$
5:0:0
     RDKit          3D

 97105  0  0  1  0  0  0  0  0999 V2000
  -25.4860  -21.0080   20.3550 C   0  0  0  0  0  2  0  0  0  0  0  0
  -29.2950  -21.4600   20.1990 C   0  0  0  0  0  3  0  0  0  0  0  0
  -27.9380  -21.6570   20.5210 C   0  0  0  0  0  3  0  0  0  0  0  0
  -29.6720  -20.4200   19.3280 C   0  0  0  0  0  3  0  0  0  0  0  0
  -27.3410  -19.7470   19.1320 C   0  0  0  0  0  3  0  0  0  0  0  0
  -26.9510  -20.8010   19.9850 C   0  0  0  0  0  0  0  0  0  0  0  0
  -28.6940  -19.5660   18.7770 C   0  0  0  0  0  0  0  0  0  0  0  0
  -28.1670  -18.3130   16.6260 C   0  0  0  0  0  1  0  0  0  0  0  0
  -29.1140  -18.4400   17.8370 C   0  0  0  0  0  3  0  0  0  0  0  0
  -29.2530  -17.1250   18.6220 C   0  0  0  0  0  2  0  0  0  0  0  0
  -30.6640  -16.5040   18.6120 C   0  0  0  0  0  2  0  0  0  0  0  0
  -31.4180  -14.2330   19.3860 C   0  0  0  0  0  0  0  0  0  0  0  0
  -31.5630  -11.8640   20.0620 C   0  0  0  0  0  2  0  0  0  0  0  0
  -30.7740  -10.9690   19.0890 C   0  0  0  0  0  2  0  0  0  0  0  0
  -29.2820  -10.9060   19.4710 C   0  0  0  0  0  2  0  0  0  0  0  0
  -28.6700  -12.3110   19.7170 C   0  0  0  0  0  3  0  0  0  0  0  0
  -29.5680  -13.1150   20.6780 C   0  0  0  0  0  2  0  0  0  0  0  0
  -30.9260  -13.1860   20.0960 N   0  0  0  0  0  0  0  0  0  0  0  0
  -32.4610  -14.1940   18.7260 O   0  0  0  0  0  0  0  0  0  0  0  0
  -30.6460  -15.3180   19.4560 N   0  0  0  0  0  0  0  0  0  0  0  0
  -29.8590  -15.2330   20.0830 H   0  0  0  0  0  0  0  0  0  0  0  0
  -26.3680  -13.2260   20.4320 C   0  0  0  0  0  0  0  0  0  0  0  0
  -25.2190  -12.5960   20.8360 C   0  0  0  0  0  0  0  0  0  0  0  0
  -25.5150  -11.1980   20.8310 C   0  0  0  0  0  0  0  0  0  0  0  0
  -27.2970  -12.2190   20.2120 N   0  0  0  0  0  0  0  0  0  0  0  0
  -26.7850  -10.9960   20.5060 N   0  0  0  0  0  0  0  0  0  0  0  0
  -24.6500  -10.0350   21.0640 C   0  0  0  0  0  0  0  0  0  0  0  0
  -24.9330   -9.0950   22.0790 C   0  0  0  0  0  3  0  0  0  0  0  0
  -24.0760   -7.9930   22.2910 C   0  0  0  0  0  3  0  0  0  0  0  0
  -22.9220   -7.8260   21.4890 C   0  0  0  0  0  0  0  0  0  0  0  0
  -22.6600   -8.7530   20.4660 C   0  0  0  0  0  3  0  0  0  0  0  0
  -23.5160   -9.8470   20.2500 C   0  0  0  0  0  3  0  0  0  0  0  0
  -22.0470   -6.7730   21.6080 O   0  0  0  0  0  0  0  0  0  0  0  0
  -21.8090   -6.1690   22.8160 C   0  0  0  0  0  0  0  0  0  0  0  0
  -21.3030   -6.8880   23.9220 C   0  0  0  0  0  3  0  0  0  0  0  0
  -21.0020   -6.2120   25.1220 C   0  0  0  0  0  3  0  0  0  0  0  0
  -21.2000   -4.8210   25.2180 C   0  0  0  0  0  0  0  0  0  0  0  0
  -21.6980   -4.1040   24.1160 C   0  0  0  0  0  3  0  0  0  0  0  0
  -21.9970   -4.7750   22.9180 C   0  0  0  0  0  0  0  0  0  0  0  0
  -22.4560   -4.0740   21.8530 F   0  0  0  0  0  0  0  0  0  0  0  0
  -20.9040   -4.1720   26.3690 F   0  0  0  0  0  0  0  0  0  0  0  0
  -23.8940  -13.2440   21.1180 C   0  0  0  0  0  0  0  0  0  0  0  0
  -23.1080  -12.6700   22.0230 N   0  0  0  0  0  0  0  0  0  0  0  0
  -23.5650  -14.2940   20.5660 O   0  0  0  0  0  0  0  0  0  0  0  0
  -23.3870  -11.8220   22.4950 H   0  0  0  0  0  0  0  0  0  0  0  0
  -22.2160  -13.0870   22.2470 H   0  0  0  0  0  0  0  0  0  0  0  0
  -26.6940  -14.5620   20.2180 N   0  0  0  0  0  0  0  0  0  0  0  0
  -26.0260  -15.3140   20.3380 H   0  0  0  0  0  0  0  0  0  0  0  0
  -27.5990  -14.8870   19.9040 H   0  0  0  0  0  0  0  0  0  0  0  0
  -24.6280  -21.7510   19.3040 C   0  0  0  0  0  2  0  0  0  0  0  0
  -25.0760  -23.1920   19.0450 C   0  0  0  0  0  0  0  0  0  0  0  0
  -24.8790  -24.0280   19.9290 O   0  0  0  0  0  0  0  0  0  0  0  0
  -25.6870  -23.4880   17.7280 C   0  0  0  0  0  3  0  0  0  0  0  0
  -26.7750  -24.2560   17.4940 C   0  0  0  0  0  3  0  0  0  0  0  0
  -27.6590  -25.0110   18.4800 C   0  0  0  0  0  2  0  0  0  0  0  0
  -28.5720  -26.0400   17.7900 C   0  0  0  0  0  2  0  0  0  0  0  0
  -27.8060  -26.9690   17.0280 O   0  0  0  0  0  0  0  0  0  0  0  0
  -25.6060  -29.0220   23.4710 C   0  0  0  0  0  0  0  0  0  0  0  0
  -26.9000  -27.6770   17.7720 C   0  0  0  0  0  0  0  0  0  0  0  0
  -24.0330  -29.4340   21.6030 C   0  0  0  0  0  3  0  0  0  0  0  0
  -24.9910  -29.1160   19.2600 C   0  0  0  0  0  0  0  0  0  0  0  0
  -26.5550  -29.3740   21.1980 C   0  0  0  0  0  2  0  0  0  0  0  0
  -26.2560  -28.8580   19.8080 C   0  0  0  0  0  0  0  0  0  0  0  0
  -27.2150  -28.1360   19.0680 C   0  0  0  0  0  3  0  0  0  0  0  0
  -25.6330  -27.9510   17.2240 C   0  0  0  0  0  3  0  0  0  0  0  0
  -24.6720  -28.6620   17.9670 C   0  0  0  0  0  3  0  0  0  0  0  0
  -24.0250  -29.8980   20.1200 C   0  0  0  0  0  2  0  0  0  0  0  0
  -25.4200  -29.2390   22.1380 N   0  0  0  0  0  0  0  0  0  0  0  0
  -24.6500  -29.0260   24.2580 O   0  0  0  0  0  0  0  0  0  0  0  0
  -23.1450  -28.1760   21.7320 C   0  0  0  0  0  0  0  0  0  0  0  0
  -21.8280  -28.3540   21.5400 N   0  0  0  0  0  0  0  0  0  0  0  0
  -23.6410  -27.0730   21.9680 O   0  0  0  0  0  0  0  0  0  0  0  0
  -21.5010  -29.2910   21.3560 H   0  0  0  0  0  0  0  0  0  0  0  0
  -18.3380  -27.6840   20.9120 C   0  0  0  0  0  0  0  0  0  0  0  0
  -20.8070  -27.3090   21.5700 C   0  0  0  0  0  3  0  0  0  0  0  0
  -20.8990  -26.4020   20.3210 C   0  0  0  0  0  2  0  0  0  0  0  0
  -19.9860  -26.8580   19.1780 C   0  0  0  0  0  2  0  0  0  0  0  0
  -18.5240  -26.8800   19.6360 C   0  0  0  0  0  2  0  0  0  0  0  0
  -19.4140  -27.8970   21.8130 C   0  0  0  0  0  0  0  0  0  0  0  0
  -19.1980  -28.6770   22.9680 C   0  0  0  0  0  3  0  0  0  0  0  0
  -17.9340  -29.2360   23.2320 C   0  0  0  0  0  3  0  0  0  0  0  0
  -16.8670  -29.0110   22.3460 C   0  0  0  0  0  3  0  0  0  0  0  0
  -17.0680  -28.2330   21.1920 C   0  0  0  0  0  3  0  0  0  0  0  0
  -27.0270  -28.7800   24.0720 C   0  0  0  0  0  3  0  0  0  0  0  0
  -27.3820  -27.2520   24.2360 C   0  0  1  0  0  0  0  0  0  0  0  0
  -26.3030  -26.4440   24.9920 C   0  0  0  0  0  1  0  0  0  0  0  0
  -27.5900  -26.5910   22.8530 C   0  0  0  0  0  1  0  0  0  0  0  0
  -28.7180  -27.1020   25.0010 C   0  0  0  0  0  1  0  0  0  0  0  0
  -27.0840  -29.4710   25.3660 N   0  0  0  0  0  0  0  0  0  0  0  0
  -27.7150  -30.6340   25.5780 C   0  0  0  0  0  0  0  0  0  0  0  0
  -28.3800  -31.2030   24.7080 O   0  0  0  0  0  0  0  0  0  0  0  0
  -26.5210  -29.0870   26.1100 H   0  0  0  0  0  0  0  0  0  0  0  0
  -26.5740  -32.4190   26.9300 C   0  0  0  0  0  1  0  0  0  0  0  0
  -27.5870  -31.2640   26.9770 C   0  0  0  0  0  3  0  0  0  0  0  0
  -29.8050  -30.6720   27.8470 C   0  0  0  0  0  1  0  0  0  0  0  0
  -28.8730  -31.7490   27.5230 N   0  0  0  0  0  0  0  0  0  0  0  0
  -28.7230  -32.3020   28.3620 H   0  0  0  0  0  0  0  0  0  0  0  0
  2  3  1  0
  4  2  2  0
  5  6  1  0
  6  1  1  0
  6  3  2  0
  7  5  2  0
  7  4  1  0
  9  8  1  0
  9 10  1  0
  9  7  1  0
 11 10  1  0
 11 20  1  0
 12 20  1  0
 12 18  1  0
 13 18  1  0
 14 15  1  0
 14 13  1  0
 16 15  1  0
 16 25  1  0
 16 17  1  0
 18 17  1  0
 19 12  2  0
 20 21  1  0
 22 23  2  0
 23 42  1  0
 24 23  1  0
 24 27  1  0
 25 22  1  0
 25 26  1  0
 26 24  2  0
 27 28  1  0
 28 29  2  0
 30 33  1  0
 30 29  1  0
 31 30  2  0
 32 31  1  0
 32 27  2  0
 33 34  1  0
 34 39  2  0
 34 35  1  0
 35 36  2  0
 36 37  1  0
 37 41  1  0
 38 37  2  0
 39 38  1  0
 40 39  1  0
 42 43  1  0
 43 46  1  0
 43 45  1  0
 44 42  2  0
 47 48  1  0
 47 22  1  0
 49 47  1  0
 50  1  1  0
 51 50  1  0
 51 52  2  0
 53 51  1  0
 54 53  2  0
 54 55  1  0
 56 55  1  0
 57 59  1  0
 57 56  1  0
 58 69  2  0
 59 64  1  0
 60 70  1  0
 60 68  1  0
 61 63  1  0
 61 67  1  0
 62 68  1  0
 63 62  1  0
 64 63  2  0
 65 59  2  0
 65 66  1  0
 66 61  2  0
 67 60  1  0
 68 58  1  0
 70 72  2  0
 71 70  1  0
 73 71  1  0
 74 83  2  0
 74 79  1  0
 75 71  1  0
 75 79  1  0
 76 75  1  0
 77 78  1  0
 77 76  1  0
 78 74  1  0
 79 80  2  0
 80 81  1  0
 82 81  2  0
 83 82  1  0
 84 58  1  0
 84 85  1  0
 84 89  1  0
 85 86  1  1
 85 88  1  0
 87 85  1  0
 89 90  1  0
 89 92  1  0
 90 94  1  0
 91 90  2  0
 94 93  1  0
 94 96  1  0
 96 95  1  0
 96 97  1  0
M  ISO  4  12 100  20 100  56 101  57 101
M  END
>  <TORSDO>  (6) 
F 25

>  <SCORE>  (6) 
-4.771

>  <name>  (6) 
5

>  <ligand_id>  (6) 
5

>  <original_smiles>  (6) 
[H]C(C(=O)C([H])([H])C([H])([H])c1c([H])c([H])c([H])c(C([H])(C([H])([H])[H])C([H])([H])C([H])([H])N([H])C(=O)N2C([H])([H])C([H])([H])C([H])([H])C([H])(n3nc(-c4c([H])c([H])c(Oc5c([H])c([H])c(F)c([H])c5F)c([H])c4[H])c(C(=O)N([H])[H])c3N([H])[H])C2([H])[H])c1[H])=C([H])C([H])([H])C([H])([H])Oc1c([H])c([H])c2c(c1[H])C([H])([H])N(C(=O)C([H])(N([H])C(=O)C([H])(N([H])C([H])([H])[H])C([H])([H])[H])C(C([H])([H])[H])(C([H])([H])[H])C([H])([H])[H])C([H])(C(=O)N([H])C1([H])c3c([H])c([H])c([H])c([H])c3C([H])([H])C([H])([H])C1([H])[H])C2([H])[H]

>  <smiles>  (6) 
[H]C(C(=O)C([H])([H])C([H])([H])c1c([H])c([H])c([H])c(C([H])(C([H])([H])[H])C([H])([H])C([H])([H])N([H])C(=O)N2C([H])([H])C([H])([H])C([H])([H])C([H])(n3nc(-c4c([H])c([H])c(Oc5c([H])c([H])c(F)c([H])c5F)c([H])c4[H])c(C(=O)N([H])[H])c3N([H])[H])C2([H])[H])c1[H])=C([H])C([H])([H])C([H])([H])Oc1c([H])c([H])c2c(c1[H])C([H])([H])N(C(=O)C([H])(N([H])C(=O)C([H])(N([H])C([H])([H])[H])C([H])([H])[H])C(C([H])([H])[H])(C([H])([H])[H])C([H])([H])[H])C([H])(C(=O)N([H])C1([H])c3c([H])c([H])c([H])c([H])c3C([H])([H])C([H])([H])C1([H])[H])C2([H])[H]

$$$$
6:0:0
     RDKit          3D

100108  0  0  1  0  0  0  0  0999 V2000
  -27.2630  -22.9170   21.3020 C   0  0  0  0  0  3  0  0  0  0  0  0
  -29.3400  -24.0330   21.8990 C   0  0  0  0  0  3  0  0  0  0  0  0
  -27.7490  -22.6800   19.9930 C   0  0  0  0  0  0  0  0  0  0  0  0
  -28.0050  -23.7090   22.2030 C   0  0  0  0  0  0  0  0  0  0  0  0
  -29.7930  -23.9230   20.5820 C   0  0  0  0  0  0  0  0  0  0  0  0
  -28.9600  -23.3290   19.6010 C   0  0  0  0  0  0  0  0  0  0  0  0
  -31.1030  -24.6160   20.2190 C   0  0  0  0  0  1  0  0  0  0  0  0
  -29.3550  -23.5600   18.1570 C   0  0  0  0  0  1  0  0  0  0  0  0
  -26.8690  -21.9080   19.0350 C   0  0  0  0  0  0  0  0  0  0  0  0
  -27.1860  -21.9410   17.7320 N   0  0  0  0  0  0  0  0  0  0  0  0
  -25.9360  -21.2310   19.4640 O   0  0  0  0  0  0  0  0  0  0  0  0
  -27.8540  -21.2590   17.3890 H   0  0  0  0  0  0  0  0  0  0  0  0
  -26.3310  -22.5360   16.7090 C   0  0  0  0  0  2  0  0  0  0  0  0
  -26.5820  -24.0660   16.6840 C   0  0  0  0  0  2  0  0  0  0  0  0
  -25.2990  -24.9150   16.6410 C   0  0  0  0  0  2  0  0  0  0  0  0
  -25.2690  -26.1330   17.6090 C   0  0  0  0  0  2  0  0  0  0  0  0
  -23.9710  -26.9720   17.5560 C   0  0  0  0  0  2  0  0  0  0  0  0
  -22.6610  -26.1640   17.4750 C   0  0  0  0  0  2  0  0  0  0  0  0
  -21.2100  -25.6190   15.4780 C   0  0  0  0  0  0  0  0  0  0  0  0
  -19.8830  -26.1120   13.4630 C   0  0  0  0  0  2  0  0  0  0  0  0
  -19.8910  -24.9860   12.4210 C   0  0  0  0  0  2  0  0  0  0  0  0
  -21.1200  -25.0970   11.5030 C   0  0  0  0  0  2  0  0  0  0  0  0
  -22.4400  -25.2390   12.3000 C   0  0  0  0  0  3  0  0  0  0  0  0
  -22.3010  -26.3650   13.3410 C   0  0  0  0  0  2  0  0  0  0  0  0
  -21.1420  -26.0640   14.2030 N   0  0  0  0  0  0  0  0  0  0  0  0
  -20.3080  -25.0290   16.0730 O   0  0  0  0  0  0  0  0  0  0  0  0
  -22.2970  -26.1040   16.0760 N   0  0  0  0  0  0  0  0  0  0  0  0
  -22.8400  -26.6820   15.4580 H   0  0  0  0  0  0  0  0  0  0  0  0
  -24.7120  -24.6620   11.2170 C   0  0  0  0  0  0  0  0  0  0  0  0
  -25.4300  -25.2630   10.2250 C   0  0  0  0  0  0  0  0  0  0  0  0
  -24.6650  -26.4030    9.8230 C   0  0  0  0  0  0  0  0  0  0  0  0
  -23.5830  -25.4450   11.4080 N   0  0  0  0  0  0  0  0  0  0  0  0
  -23.5860  -26.5250   10.5860 N   0  0  0  0  0  0  0  0  0  0  0  0
  -24.8730  -27.3540    8.7230 C   0  0  0  0  0  0  0  0  0  0  0  0
  -24.8950  -28.7450    8.9550 C   0  0  0  0  0  3  0  0  0  0  0  0
  -25.1040  -29.6480    7.8910 C   0  0  0  0  0  3  0  0  0  0  0  0
  -25.2950  -29.1640    6.5750 C   0  0  0  0  0  0  0  0  0  0  0  0
  -25.2540  -27.7760    6.3460 C   0  0  0  0  0  3  0  0  0  0  0  0
  -25.0400  -26.8800    7.4040 C   0  0  0  0  0  3  0  0  0  0  0  0
  -25.4730  -29.9640    5.4760 O   0  0  0  0  0  0  0  0  0  0  0  0
  -26.0510  -31.2060    5.5730 C   0  0  0  0  0  0  0  0  0  0  0  0
  -27.3410  -31.3840    6.1120 C   0  0  0  0  0  3  0  0  0  0  0  0
  -27.9220  -32.6680    6.1400 C   0  0  0  0  0  3  0  0  0  0  0  0
  -27.2220  -33.7690    5.6090 C   0  0  0  0  0  0  0  0  0  0  0  0
  -25.9390  -33.5910    5.0620 C   0  0  0  0  0  3  0  0  0  0  0  0
  -25.3540  -32.3100    5.0480 C   0  0  0  0  0  0  0  0  0  0  0  0
  -24.1260  -32.1390    4.5050 F   0  0  0  0  0  0  0  0  0  0  0  0
  -27.7770  -35.0030    5.6250 F   0  0  0  0  0  0  0  0  0  0  0  0
  -26.7120  -24.7690    9.6150 C   0  0  0  0  0  0  0  0  0  0  0  0
  -27.5920  -25.6800    9.2180 N   0  0  0  0  0  0  0  0  0  0  0  0
  -26.9660  -23.5670    9.5470 O   0  0  0  0  0  0  0  0  0  0  0  0
  -27.3860  -26.6660    9.2940 H   0  0  0  0  0  0  0  0  0  0  0  0
  -28.4970  -25.3930    8.8720 H   0  0  0  0  0  0  0  0  0  0  0  0
  -24.9070  -23.4960   11.9490 N   0  0  0  0  0  0  0  0  0  0  0  0
  -25.6520  -22.8610   11.6890 H   0  0  0  0  0  0  0  0  0  0  0  0
  -24.1520  -23.0410   12.4440 H   0  0  0  0  0  0  0  0  0  0  0  0
  -27.3410  -24.4750   23.3310 C   0  0  0  0  0  2  0  0  0  0  0  0
  -27.2890  -25.9480   22.8340 C   0  0  0  0  0  2  0  0  0  0  0  0
  -26.5690  -27.0580   23.6160 C   0  0  0  0  0  2  0  0  0  0  0  0
  -27.0270  -27.1770   24.9550 O   0  0  0  0  0  0  0  0  0  0  0  0
  -26.2030  -29.0250   31.7320 C   0  0  0  0  0  0  0  0  0  0  0  0
  -26.2210  -27.8170   25.8720 C   0  0  0  0  0  0  0  0  0  0  0  0
  -24.2320  -29.3950   30.2820 C   0  0  0  0  0  3  0  0  0  0  0  0
  -24.6580  -29.1790   27.7840 C   0  0  0  0  0  0  0  0  0  0  0  0
  -26.5980  -29.4690   29.3240 C   0  0  0  0  0  2  0  0  0  0  0  0
  -26.0160  -28.9600   28.0240 C   0  0  0  0  0  0  0  0  0  0  0  0
  -26.8040  -28.2810   27.0690 C   0  0  0  0  0  3  0  0  0  0  0  0
  -24.8370  -28.0520   25.6540 C   0  0  0  0  0  3  0  0  0  0  0  0
  -24.0600  -28.7370   26.5990 C   0  0  0  0  0  3  0  0  0  0  0  0
  -23.8660  -29.8820   28.8550 C   0  0  0  0  0  2  0  0  0  0  0  0
  -25.7130  -29.2700   30.4880 N   0  0  0  0  0  0  0  0  0  0  0  0
  -25.4530  -28.9480   32.7130 O   0  0  0  0  0  0  0  0  0  0  0  0
  -23.4620  -28.0890   30.5680 C   0  0  0  0  0  0  0  0  0  0  0  0
  -22.7500  -28.0590   31.7050 N   0  0  0  0  0  0  0  0  0  0  0  0
  -23.4910  -27.1410   29.7790 O   0  0  0  0  0  0  0  0  0  0  0  0
  -22.7700  -28.8730   32.2990 H   0  0  0  0  0  0  0  0  0  0  0  0
  -21.5120  -26.3960   34.6600 C   0  0  0  0  0  0  0  0  0  0  0  0
  -21.9110  -26.9590   32.1670 C   0  0  0  0  0  3  0  0  0  0  0  0
  -20.4180  -27.3650   32.1170 C   0  0  0  0  0  2  0  0  0  0  0  0
  -19.9160  -27.9400   33.4430 C   0  0  0  0  0  2  0  0  0  0  0  0
  -20.0880  -26.9260   34.5780 C   0  0  0  0  0  2  0  0  0  0  0  0
  -22.3750  -26.4330   33.5330 C   0  0  0  0  0  0  0  0  0  0  0  0
  -23.7100  -25.9970   33.6820 C   0  0  0  0  0  3  0  0  0  0  0  0
  -24.1750  -25.5100   34.9160 C   0  0  0  0  0  3  0  0  0  0  0  0
  -23.3070  -25.4470   36.0180 C   0  0  0  0  0  3  0  0  0  0  0  0
  -21.9770  -25.8900   35.8890 C   0  0  0  0  0  3  0  0  0  0  0  0
  -27.7320  -28.8450   31.9860 C   0  0  0  0  0  3  0  0  0  0  0  0
  -28.1750  -27.3350   32.0500 C   0  0  1  0  0  0  0  0  0  0  0  0
  -27.3120  -26.4870   33.0110 C   0  0  0  0  0  1  0  0  0  0  0  0
  -28.1140  -26.6870   30.6470 C   0  0  0  0  0  1  0  0  0  0  0  0
  -29.6420  -27.2350   32.5250 C   0  0  0  0  0  1  0  0  0  0  0  0
  -28.0450  -29.5310   33.2400 N   0  0  0  0  0  0  0  0  0  0  0  0
  -28.3820  -30.8270   33.3440 C   0  0  0  0  0  0  0  0  0  0  0  0
  -28.5310  -31.5640   32.3660 O   0  0  0  0  0  0  0  0  0  0  0  0
  -27.8990  -28.9990   34.0850 H   0  0  0  0  0  0  0  0  0  0  0  0
  -27.4510  -32.3850   35.0880 C   0  0  0  0  0  1  0  0  0  0  0  0
  -28.5820  -31.3970   34.7600 C   0  0  0  0  0  3  0  0  0  0  0  0
  -31.0080  -31.1330   35.0500 C   0  0  0  0  0  1  0  0  0  0  0  0
  -29.8890  -32.0670   34.9430 N   0  0  0  0  0  0  0  0  0  0  0  0
  -29.8860  -32.6440   35.7800 H   0  0  0  0  0  0  0  0  0  0  0  0
  1  4  1  0
  2  4  2  0
  3  1  2  0
  4 57  1  0
  5  2  1  0
  6  3  1  0
  6  5  2  0
  7  5  1  0
  8  6  1  0
  9 11  2  0
  9  3  1  0
 10  9  1  0
 12 10  1  0
 13 10  1  0
 14 13  1  0
 15 14  1  0
 15 16  1  0
 17 16  1  0
 18 17  1  0
 19 26  2  0
 19 27  1  0
 20 25  1  0
 21 20  1  0
 22 23  1  0
 22 21  1  0
 23 32  1  0
 23 24  1  0
 24 25  1  0
 25 19  1  0
 27 18  1  0
 28 27  1  0
 29 32  1  0
 29 54  1  0
 30 29  2  0
 31 30  1  0
 31 33  2  0
 33 32  1  0
 34 35  1  0
 34 31  1  0
 36 35  2  0
 37 36  1  0
 38 37  2  0
 38 39  1  0
 39 34  2  0
 40 41  1  0
 40 37  1  0
 41 42  1  0
 42 43  2  0
 44 48  1  0
 44 43  1  0
 45 44  2  0
 46 45  1  0
 46 41  2  0
 47 46  1  0
 49 30  1  0
 50 52  1  0
 50 49  1  0
 51 49  2  0
 53 50  1  0
 54 56  1  0
 55 54  1  0
 58 57  1  0
 58 59  1  0
 59 60  1  0
 60 62  1  0
 61 72  2  0
 62 67  1  0
 63 71  1  0
 63 73  1  0
 64 66  1  0
 64 70  1  0
 65 71  1  0
 66 65  1  0
 67 66  2  0
 68 62  2  0
 68 69  1  0
 69 64  2  0
 70 63  1  0
 71 61  1  0
 73 74  1  0
 74 76  1  0
 75 73  2  0
 77 86  1  0
 78 74  1  0
 78 82  1  0
 79 78  1  0
 79 80  1  0
 80 81  1  0
 81 77  1  0
 82 83  1  0
 82 77  2  0
 83 84  2  0
 84 85  1  0
 86 85  2  0
 87 61  1  0
 87 88  1  0
 87 92  1  0
 88 91  1  1
 88 89  1  0
 90 88  1  0
 92 93  1  0
 92 95  1  0
 93 97  1  0
 94 93  2  0
 97 99  1  0
 97 96  1  0
 99 98  1  0
 99100  1  0
M  ISO  4  19 100  27 100  59 101  60 101
M  END
>  <TORSDO>  (7) 
F 26

>  <SCORE>  (7) 
-1.908

>  <name>  (7) 
6

>  <ligand_id>  (7) 
6

>  <original_smiles>  (7) 
[H]c1c([H])c([H])c2c(c1[H])C([H])([H])C([H])([H])C([H])([H])C2([H])N([H])C(=O)C1([H])N(C(=O)C([H])(N([H])C(=O)C([H])(N([H])C([H])([H])[H])C([H])([H])[H])C(C([H])([H])[H])(C([H])([H])[H])C([H])([H])[H])C([H])([H])c2c([H])c(OC([H])([H])C([H])([H])C([H])([H])c3c([H])c(C(=O)N([H])C([H])([H])C([H])([H])C([H])([H])C([H])([H])C([H])([H])C([H])([H])N([H])C(=O)N4C([H])([H])C([H])([H])C([H])([H])C([H])(n5nc(-c6c([H])c([H])c(Oc7c([H])c([H])c(F)c([H])c7F)c([H])c6[H])c(C(=O)N([H])[H])c5N([H])[H])C4([H])[H])c(C([H])([H])[H])c(C([H])([H])[H])c3[H])c([H])c([H])c2C1([H])[H]

>  <smiles>  (7) 
[H]c1c([H])c([H])c2c(c1[H])C([H])([H])C([H])([H])C([H])([H])C2([H])N([H])C(=O)C1([H])N(C(=O)C([H])(N([H])C(=O)C([H])(N([H])C([H])([H])[H])C([H])([H])[H])C(C([H])([H])[H])(C([H])([H])[H])C([H])([H])[H])C([H])([H])c2c([H])c(OC([H])([H])C([H])([H])C([H])([H])c3c([H])c(C(=O)N([H])C([H])([H])C([H])([H])C([H])([H])C([H])([H])C([H])([H])C([H])([H])N([H])C(=O)N4C([H])([H])C([H])([H])C([H])([H])C([H])(n5nc(-c6c([H])c([H])c(Oc7c([H])c([H])c(F)c([H])c7F)c([H])c6[H])c(C(=O)N([H])[H])c5N([H])[H])C4([H])[H])c(C([H])([H])[H])c(C([H])([H])[H])c3[H])c([H])c([H])c2C1([H])[H]

$$$$
8:0:0
     RDKit          3D

 97105  0  0  1  0  0  0  0  0999 V2000
  -27.5480  -26.7760    7.8060 C   0  0  0  0  0  3  0  0  0  0  0  0
  -27.5530  -27.5020    9.0080 C   0  0  0  0  0  3  0  0  0  0  0  0
  -25.1040  -26.8450    7.7670 C   0  0  0  0  0  3  0  0  0  0  0  0
  -26.3290  -26.4410    7.1800 C   0  0  0  0  0  0  0  0  0  0  0  0
  -25.1030  -27.6090    8.9600 C   0  0  0  0  0  0  0  0  0  0  0  0
  -26.3410  -27.9260    9.5780 C   0  0  0  0  0  0  0  0  0  0  0  0
  -26.4150  -28.7140   10.7260 N   0  0  0  0  0  0  0  0  0  0  0  0
  -27.2100  -29.3450   10.7830 H   0  0  0  0  0  0  0  0  0  0  0  0
  -25.5630  -29.1460   11.0630 H   0  0  0  0  0  0  0  0  0  0  0  0
  -26.4150  -25.7970    5.8460 C   0  0  0  0  0  0  0  0  0  0  0  0
  -25.5790  -24.9770    5.4550 O   0  0  0  0  0  0  0  0  0  0  0  0
  -27.5170  -26.2310    4.8800 C   0  0  0  0  0  2  0  0  0  0  0  0
  -28.7480  -25.2940    4.8450 C   0  0  0  0  0  2  0  0  0  0  0  0
  -29.9100  -25.6390    5.8110 C   0  0  0  0  0  2  0  0  0  0  0  0
  -31.2910  -25.5450    5.1410 C   0  0  0  0  0  2  0  0  0  0  0  0
  -32.4580  -25.7890    6.1140 C   0  0  0  0  0  2  0  0  0  0  0  0
  -33.7990  -26.6300    4.2150 C   0  0  0  0  0  0  0  0  0  0  0  0
  -35.5280  -25.8550    2.6390 C   0  0  0  0  0  2  0  0  0  0  0  0
  -35.0070  -24.7620    1.6860 C   0  0  0  0  0  2  0  0  0  0  0  0
  -35.1510  -23.3710    2.3230 C   0  0  0  0  0  2  0  0  0  0  0  0
  -34.5650  -23.3210    3.7580 C   0  0  0  0  0  3  0  0  0  0  0  0
  -35.0950  -24.4950    4.6110 C   0  0  0  0  0  2  0  0  0  0  0  0
  -34.7940  -25.7580    3.9120 N   0  0  0  0  0  0  0  0  0  0  0  0
  -33.4190  -27.5140    3.4430 O   0  0  0  0  0  0  0  0  0  0  0  0
  -33.4290  -26.6940    5.4990 N   0  0  0  0  0  0  0  0  0  0  0  0
  -33.2080  -27.6480    5.7400 H   0  0  0  0  0  0  0  0  0  0  0  0
  -34.3280  -20.7800    4.0850 C   0  0  0  0  0  0  0  0  0  0  0  0
  -34.9590  -19.9040    4.9270 C   0  0  0  0  0  0  0  0  0  0  0  0
  -35.8510  -20.6900    5.7180 C   0  0  0  0  0  0  0  0  0  0  0  0
  -34.8320  -22.0320    4.3900 N   0  0  0  0  0  0  0  0  0  0  0  0
  -35.7200  -21.9750    5.4200 N   0  0  0  0  0  0  0  0  0  0  0  0
  -36.8570  -20.2840    6.7090 C   0  0  0  0  0  0  0  0  0  0  0  0
  -36.5170  -19.4730    7.8160 C   0  0  0  0  0  3  0  0  0  0  0  0
  -37.5050  -19.0830    8.7480 C   0  0  0  0  0  3  0  0  0  0  0  0
  -38.8470  -19.5040    8.5780 C   0  0  0  0  0  0  0  0  0  0  0  0
  -39.1720  -20.3330    7.4890 C   0  0  0  0  0  3  0  0  0  0  0  0
  -38.1860  -20.7230    6.5680 C   0  0  0  0  0  3  0  0  0  0  0  0
  -39.8680  -19.1950    9.4460 O   0  0  0  0  0  0  0  0  0  0  0  0
  -40.1780  -17.8940    9.7540 C   0  0  0  0  0  0  0  0  0  0  0  0
  -40.1610  -17.4190   11.0830 C   0  0  0  0  0  3  0  0  0  0  0  0
  -40.4150  -16.0580   11.3460 C   0  0  0  0  0  3  0  0  0  0  0  0
  -40.6820  -15.1720   10.2860 C   0  0  0  0  0  0  0  0  0  0  0  0
  -40.6890  -15.6420    8.9610 C   0  0  0  0  0  3  0  0  0  0  0  0
  -40.4350  -17.0000    8.6960 C   0  0  0  0  0  0  0  0  0  0  0  0
  -40.4270  -17.4470    7.4170 F   0  0  0  0  0  0  0  0  0  0  0  0
  -40.9150  -13.8630   10.5360 F   0  0  0  0  0  0  0  0  0  0  0  0
  -34.8160  -18.4090    4.9370 C   0  0  0  0  0  0  0  0  0  0  0  0
  -33.8720  -17.8880    5.7140 N   0  0  0  0  0  0  0  0  0  0  0  0
  -35.5160  -17.6960    4.2180 O   0  0  0  0  0  0  0  0  0  0  0  0
  -33.2860  -18.4730    6.2930 H   0  0  0  0  0  0  0  0  0  0  0  0
  -33.7270  -16.8890    5.7310 H   0  0  0  0  0  0  0  0  0  0  0  0
  -33.3820  -20.6130    3.0780 N   0  0  0  0  0  0  0  0  0  0  0  0
  -33.0420  -19.6980    2.8080 H   0  0  0  0  0  0  0  0  0  0  0  0
  -33.0280  -21.3610    2.4930 H   0  0  0  0  0  0  0  0  0  0  0  0
  -23.8230  -28.2460    9.5140 C   0  0  0  0  0  2  0  0  0  0  0  0
  -22.6750  -27.3710   10.0950 C   0  0  0  0  0  2  0  0  0  0  0  0
  -22.1030  -27.7810   11.3690 O   0  0  0  0  0  0  0  0  0  0  0  0
  -22.6370  -24.0490   17.4460 C   0  0  0  0  0  0  0  0  0  0  0  0
  -22.8360  -27.4930   12.5010 C   0  0  0  0  0  0  0  0  0  0  0  0
  -24.1080  -26.0230   17.2270 C   0  0  0  0  0  3  0  0  0  0  0  0
  -24.2750  -27.0230   14.8900 C   0  0  0  0  0  0  0  0  0  0  0  0
  -23.3290  -24.7370   15.1550 C   0  0  0  0  0  2  0  0  0  0  0  0
  -23.4220  -26.0340   14.3830 C   0  0  0  0  0  0  0  0  0  0  0  0
  -22.6890  -26.2650   13.1930 C   0  0  0  0  0  3  0  0  0  0  0  0
  -23.7970  -28.4090   12.9750 C   0  0  0  0  0  3  0  0  0  0  0  0
  -24.4690  -28.2160   14.1880 C   0  0  0  0  0  3  0  0  0  0  0  0
  -25.0030  -26.7330   16.1800 C   0  0  0  0  0  2  0  0  0  0  0  0
  -23.3060  -24.9100   16.6290 N   0  0  0  0  0  0  0  0  0  0  0  0
  -22.6990  -24.1550   18.6770 O   0  0  0  0  0  0  0  0  0  0  0  0
  -23.2340  -27.0830   17.9370 C   0  0  0  0  0  0  0  0  0  0  0  0
  -23.5420  -27.3540   19.2170 N   0  0  0  0  0  0  0  0  0  0  0  0
  -22.3200  -27.6560   17.3380 O   0  0  0  0  0  0  0  0  0  0  0  0
  -24.3130  -26.8510   19.6320 H   0  0  0  0  0  0  0  0  0  0  0  0
  -23.4840  -28.7530   22.5500 C   0  0  0  0  0  0  0  0  0  0  0  0
  -22.8800  -28.3370   20.0740 C   0  0  0  0  0  3  0  0  0  0  0  0
  -23.4210  -29.7610   19.8070 C   0  0  0  0  0  2  0  0  0  0  0  0
  -24.5590  -30.1640   20.7500 C   0  0  0  0  0  2  0  0  0  0  0  0
  -24.0920  -30.1020   22.2060 C   0  0  0  0  0  2  0  0  0  0  0  0
  -22.9270  -27.9180   21.5470 C   0  0  0  0  0  0  0  0  0  0  0  0
  -22.4000  -26.6620   21.9150 C   0  0  0  0  0  3  0  0  0  0  0  0
  -22.4280  -26.2350   23.2560 C   0  0  0  0  0  3  0  0  0  0  0  0
  -22.9650  -27.0720   24.2510 C   0  0  0  0  0  3  0  0  0  0  0  0
  -23.4850  -28.3310   23.8990 C   0  0  0  0  0  3  0  0  0  0  0  0
  -21.7750  -22.8800   16.8700 C   0  0  0  0  0  3  0  0  0  0  0  0
  -22.5610  -21.9740   15.8430 C   0  0  1  0  0  0  0  0  0  0  0  0
  -22.2260  -22.2810   14.3660 C   0  0  0  0  0  1  0  0  0  0  0  0
  -24.0880  -22.1430   16.0240 C   0  0  0  0  0  1  0  0  0  0  0  0
  -22.2410  -20.4840   16.1070 C   0  0  0  0  0  1  0  0  0  0  0  0
  -20.5940  -23.4770   16.2380 N   0  0  0  0  0  0  0  0  0  0  0  0
  -19.3850  -23.5580   16.8120 C   0  0  0  0  0  0  0  0  0  0  0  0
  -19.1330  -23.0640   17.9150 O   0  0  0  0  0  0  0  0  0  0  0  0
  -20.7410  -23.9600   15.3650 H   0  0  0  0  0  0  0  0  0  0  0  0
  -18.9110  -25.4050   15.1690 C   0  0  0  0  0  1  0  0  0  0  0  0
  -18.2830  -24.3100   16.0440 C   0  0  0  0  0  3  0  0  0  0  0  0
  -15.9620  -24.2310   16.8430 C   0  0  0  0  0  1  0  0  0  0  0  0
  -17.2550  -24.9040   16.9230 N   0  0  0  0  0  0  0  0  0  0  0  0
  -17.1160  -25.8850   16.7010 H   0  0  0  0  0  0  0  0  0  0  0  0
  1  2  1  0
  2  6  2  0
  3  5  2  0
  4  3  1  0
  4  1  2  0
  5 55  1  0
  5  6  1  0
  6  7  1  0
  7  8  1  0
  7  9  1  0
 10  4  1  0
 11 10  2  0
 12 10  1  0
 13 12  1  0
 13 14  1  0
 15 14  1  0
 15 16  1  0
 17 25  1  0
 18 23  1  0
 19 20  1  0
 19 18  1  0
 21 20  1  0
 21 30  1  0
 21 22  1  0
 23 17  1  0
 23 22  1  0
 24 17  2  0
 25 26  1  0
 25 16  1  0
 27 30  1  0
 27 28  2  0
 28 47  1  0
 28 29  1  0
 29 32  1  0
 30 31  1  0
 31 29  2  0
 32 33  1  0
 33 34  2  0
 35 34  1  0
 35 38  1  0
 36 35  2  0
 37 32  2  0
 37 36  1  0
 38 39  1  0
 39 40  1  0
 40 41  2  0
 42 46  1  0
 42 41  1  0
 43 42  2  0
 44 43  1  0
 44 39  2  0
 45 44  1  0
 47 48  1  0
 48 51  1  0
 48 50  1  0
 49 47  2  0
 52 27  1  0
 53 52  1  0
 54 52  1  0
 55 56  1  0
 56 57  1  0
 57 59  1  0
 58 69  2  0
 59 65  2  0
 59 64  1  0
 60 70  1  0
 61 67  1  0
 62 68  1  0
 63 61  1  0
 63 62  1  0
 64 63  2  0
 65 66  1  0
 66 61  2  0
 67 60  1  0
 68 60  1  0
 68 58  1  0
 70 71  1  0
 71 73  1  0
 72 70  2  0
 74 83  1  0
 75 71  1  0
 75 79  1  0
 76 75  1  0
 76 77  1  0
 77 78  1  0
 78 74  1  0
 79 80  1  0
 79 74  2  0
 80 81  2  0
 81 82  1  0
 83 82  2  0
 84 58  1  0
 85 87  1  6
 85 88  1  0
 85 84  1  0
 86 85  1  0
 89 90  1  0
 89 84  1  0
 90 91  2  0
 92 89  1  0
 94 93  1  0
 94 90  1  0
 94 96  1  0
 95 96  1  0
 97 96  1  0
M  ISO  4  17 100  25 100  56 101  57 101
M  END
>  <TORSDO>  (8) 
F 25

>  <SCORE>  (8) 
-2.384

>  <name>  (8) 
8

>  <ligand_id>  (8) 
8

>  <original_smiles>  (8) 
[H]c1c([H])c([H])c2c(c1[H])C([H])([H])C([H])([H])C([H])([H])C2([H])N([H])C(=O)C1([H])N(C(=O)C([H])(N([H])C(=O)C([H])(N([H])C([H])([H])[H])C([H])([H])[H])C(C([H])([H])[H])(C([H])([H])[H])C([H])([H])[H])C([H])([H])c2c([H])c(OC([H])([H])C([H])([H])c3c([H])c(C(=O)C([H])([H])C([H])([H])C([H])([H])C([H])([H])C([H])([H])N([H])C(=O)N4C([H])([H])C([H])([H])C([H])([H])C([H])(n5nc(-c6c([H])c([H])c(Oc7c([H])c([H])c(F)c([H])c7F)c([H])c6[H])c(C(=O)N([H])[H])c5N([H])[H])C4([H])[H])c([H])c([H])c3N([H])[H])c([H])c([H])c2C1([H])[H]

>  <smiles>  (8) 
[H]c1c([H])c([H])c2c(c1[H])C([H])([H])C([H])([H])C([H])([H])C2([H])N([H])C(=O)C1([H])N(C(=O)C([H])(N([H])C(=O)C([H])(N([H])C([H])([H])[H])C([H])([H])[H])C(C([H])([H])[H])(C([H])([H])[H])C([H])([H])[H])C([H])([H])c2c([H])c(OC([H])([H])C([H])([H])c3c([H])c(C(=O)C([H])([H])C([H])([H])C([H])([H])C([H])([H])C([H])([H])N([H])C(=O)N4C([H])([H])C([H])([H])C([H])([H])C([H])(n5nc(-c6c([H])c([H])c(Oc7c([H])c([H])c(F)c([H])c7F)c([H])c6[H])c(C(=O)N([H])[H])c5N([H])[H])C4([H])[H])c([H])c([H])c3N([H])[H])c([H])c([H])c2C1([H])[H]

$$$$
9:0:0
     RDKit          3D

 91 99  0  0  1  0  0  0  0  0999 V2000
  -31.3010  -20.7480   18.6580 C   0  0  0  0  0  3  0  0  0  0  0  0
  -30.9020  -21.9420   19.2710 C   0  0  0  0  0  3  0  0  0  0  0  0
  -30.7540  -19.5250   19.0760 C   0  0  0  0  0  3  0  0  0  0  0  0
  -29.4280  -20.6930   20.7590 C   0  0  0  0  0  3  0  0  0  0  0  0
  -29.9510  -21.9460   20.3090 C   0  0  0  0  0  0  0  0  0  0  0  0
  -29.8320  -19.4670   20.1440 C   0  0  0  0  0  0  0  0  0  0  0  0
  -29.5630  -23.3010   20.7800 C   0  0  0  0  0  3  0  0  0  0  0  0
  -28.6000  -23.6630   21.6470 C   0  0  0  0  0  3  0  0  0  0  0  0
  -28.2400  -25.0950   22.0680 C   0  0  0  0  0  2  0  0  0  0  0  0
  -29.0100  -26.2850   21.4220 C   0  0  0  0  0  2  0  0  0  0  0  0
  -28.4760  -26.6780   20.1520 O   0  0  0  0  0  0  0  0  0  0  0  0
  -24.6550  -31.8750   23.2350 C   0  0  0  0  0  0  0  0  0  0  0  0
  -27.3300  -27.4420   20.1850 C   0  0  0  0  0  0  0  0  0  0  0  0
  -23.4540  -30.4590   21.5950 C   0  0  0  0  0  3  0  0  0  0  0  0
  -24.9220  -28.9190   20.1810 C   0  0  0  0  0  0  0  0  0  0  0  0
  -25.9750  -30.8360   21.3940 C   0  0  0  0  0  2  0  0  0  0  0  0
  -26.0720  -29.4590   20.7730 C   0  0  0  0  0  0  0  0  0  0  0  0
  -27.2800  -28.7260   20.7810 C   0  0  0  0  0  3  0  0  0  0  0  0
  -26.1730  -26.9220   19.5750 C   0  0  0  0  0  3  0  0  0  0  0  0
  -24.9640  -27.6480   19.5810 C   0  0  0  0  0  3  0  0  0  0  0  0
  -23.6700  -29.7670   20.2220 C   0  0  0  0  0  2  0  0  0  0  0  0
  -24.7130  -31.0710   22.1340 N   0  0  0  0  0  0  0  0  0  0  0  0
  -23.5720  -32.1440   23.7730 O   0  0  0  0  0  0  0  0  0  0  0  0
  -22.8060  -29.4440   22.5620 C   0  0  0  0  0  0  0  0  0  0  0  0
  -21.4810  -29.2630   22.4400 N   0  0  0  0  0  0  0  0  0  0  0  0
  -23.4920  -28.8190   23.3760 O   0  0  0  0  0  0  0  0  0  0  0  0
  -20.9910  -29.8160   21.7520 H   0  0  0  0  0  0  0  0  0  0  0  0
  -18.1080  -28.0750   22.9550 C   0  0  0  0  0  0  0  0  0  0  0  0
  -20.6680  -28.3260   23.2160 C   0  0  0  0  0  3  0  0  0  0  0  0
  -20.7650  -26.8960   22.6380 C   0  0  0  0  0  2  0  0  0  0  0  0
  -19.6580  -26.5750   21.6300 C   0  0  0  0  0  2  0  0  0  0  0  0
  -18.2800  -26.7250   22.2790 C   0  0  0  0  0  2  0  0  0  0  0  0
  -19.2310  -28.8330   23.3810 C   0  0  0  0  0  0  0  0  0  0  0  0
  -19.0200  -30.0980   23.9720 C   0  0  0  0  0  3  0  0  0  0  0  0
  -17.7180  -30.6040   24.1410 C   0  0  0  0  0  3  0  0  0  0  0  0
  -16.6090  -29.8420   23.7330 C   0  0  0  0  0  3  0  0  0  0  0  0
  -16.8060  -28.5790   23.1470 C   0  0  0  0  0  3  0  0  0  0  0  0
  -25.9400  -32.5140   23.8490 C   0  0  0  0  0  3  0  0  0  0  0  0
  -25.6250  -33.9090   24.1840 N   0  0  0  0  0  0  0  0  0  0  0  0
  -25.9470  -34.9640   23.4250 C   0  0  0  0  0  0  0  0  0  0  0  0
  -26.6150  -34.8670   22.3910 O   0  0  0  0  0  0  0  0  0  0  0  0
  -25.0320  -34.0590   24.9880 H   0  0  0  0  0  0  0  0  0  0  0  0
  -24.2070  -36.7450   23.0760 C   0  0  0  0  0  1  0  0  0  0  0  0
  -25.4520  -36.3480   23.8850 C   0  0  0  0  0  3  0  0  0  0  0  0
  -27.5850  -37.2440   24.7090 C   0  0  0  0  0  1  0  0  0  0  0  0
  -26.4780  -37.4070   23.7700 N   0  0  0  0  0  0  0  0  0  0  0  0
  -26.0660  -38.3250   23.9180 H   0  0  0  0  0  0  0  0  0  0  0  0
  -26.4700  -31.7400   25.1170 C   0  0  1  0  0  0  0  0  0  0  0  0
  -25.3880  -31.4900   26.1930 C   0  0  0  0  0  1  0  0  0  0  0  0
  -27.0580  -30.3680   24.7130 C   0  0  0  0  0  1  0  0  0  0  0  0
  -27.6200  -32.5380   25.7740 C   0  0  0  0  0  1  0  0  0  0  0  0
  -29.2610  -18.0830   20.5250 C   0  0  0  0  0  2  0  0  0  0  0  0
  -30.3380  -17.0160   20.9180 C   0  0  0  0  0  2  0  0  0  0  0  0
  -30.6280  -14.5440   20.4800 C   0  0  0  0  0  0  0  0  0  0  0  0
  -30.3610  -12.3670   19.3420 C   0  0  0  0  0  2  0  0  0  0  0  0
  -29.4210  -12.5540   18.1340 C   0  0  0  0  0  2  0  0  0  0  0  0
  -27.9470  -12.4110   18.5630 C   0  0  0  0  0  2  0  0  0  0  0  0
  -27.6040  -13.2490   19.8250 C   0  0  0  0  0  3  0  0  0  0  0  0
  -28.6570  -13.0380   20.9340 C   0  0  0  0  0  2  0  0  0  0  0  0
  -29.9730  -13.3550   20.3630 N   0  0  0  0  0  0  0  0  0  0  0  0
  -31.7780  -14.6990   20.0630 O   0  0  0  0  0  0  0  0  0  0  0  0
  -29.8870  -15.5990   20.9080 N   0  0  0  0  0  0  0  0  0  0  0  0
  -28.9410  -15.4090   21.2070 H   0  0  0  0  0  0  0  0  0  0  0  0
  -25.2100  -13.8590   20.5350 C   0  0  0  0  0  0  0  0  0  0  0  0
  -24.1430  -13.0880   20.9050 C   0  0  0  0  0  0  0  0  0  0  0  0
  -24.6020  -11.7350   20.8740 C   0  0  0  0  0  0  0  0  0  0  0  0
  -26.2540  -12.9770   20.3050 N   0  0  0  0  0  0  0  0  0  0  0  0
  -25.8920  -11.6950   20.5680 N   0  0  0  0  0  0  0  0  0  0  0  0
  -23.8720  -10.4730   21.0630 C   0  0  0  0  0  0  0  0  0  0  0  0
  -24.3130   -9.5020   21.9900 C   0  0  0  0  0  3  0  0  0  0  0  0
  -23.5890   -8.3040   22.1720 C   0  0  0  0  0  3  0  0  0  0  0  0
  -22.4090   -8.0710   21.4260 C   0  0  0  0  0  0  0  0  0  0  0  0
  -21.9850   -9.0310   20.4900 C   0  0  0  0  0  3  0  0  0  0  0  0
  -22.7110  -10.2200   20.3070 C   0  0  0  0  0  3  0  0  0  0  0  0
  -21.6570   -6.9250   21.5140 O   0  0  0  0  0  0  0  0  0  0  0  0
  -21.6270   -6.1700   22.6590 C   0  0  0  0  0  0  0  0  0  0  0  0
  -21.2360   -6.7130   23.9020 C   0  0  0  0  0  3  0  0  0  0  0  0
  -21.1520   -5.8860   25.0390 C   0  0  0  0  0  3  0  0  0  0  0  0
  -21.4520   -4.5140   24.9340 C   0  0  0  0  0  0  0  0  0  0  0  0
  -21.8350   -3.9680   23.6960 C   0  0  0  0  0  3  0  0  0  0  0  0
  -21.9180   -4.7950   22.5610 C   0  0  0  0  0  0  0  0  0  0  0  0
  -22.2700   -4.2600   21.3660 F   0  0  0  0  0  0  0  0  0  0  0  0
  -21.3620   -3.7150   26.0220 F   0  0  0  0  0  0  0  0  0  0  0  0
  -22.7450  -13.5640   21.1770 C   0  0  0  0  0  0  0  0  0  0  0  0
  -22.0200  -12.8670   22.0430 N   0  0  0  0  0  0  0  0  0  0  0  0
  -22.3050  -14.5890   20.6560 O   0  0  0  0  0  0  0  0  0  0  0  0
  -22.3910  -12.0400   22.4890 H   0  0  0  0  0  0  0  0  0  0  0  0
  -21.0800  -13.1630   22.2660 H   0  0  0  0  0  0  0  0  0  0  0  0
  -25.3780  -15.2280   20.3540 N   0  0  0  0  0  0  0  0  0  0  0  0
  -24.6110  -15.8830   20.4570 H   0  0  0  0  0  0  0  0  0  0  0  0
  -26.2180  -15.6600   19.9920 H   0  0  0  0  0  0  0  0  0  0  0  0
  1  3  2  0
  1  2  1  0
  2  5  2  0
  3  6  1  0
  5  4  1  0
  5  7  1  0
  6 52  1  0
  6  4  2  0
  7  8  2  0
  8  9  1  0
 10  9  1  0
 11 13  1  0
 11 10  1  0
 12 23  2  0
 13 18  1  0
 14 22  1  0
 14 24  1  0
 15 21  1  0
 15 17  1  0
 16 22  1  0
 17 18  2  0
 17 16  1  0
 19 20  1  0
 19 13  2  0
 20 15  2  0
 21 14  1  0
 22 12  1  0
 24 26  2  0
 25 24  1  0
 27 25  1  0
 28 37  2  0
 28 33  1  0
 29 25  1  0
 29 33  1  0
 30 29  1  0
 31 32  1  0
 31 30  1  0
 32 28  1  0
 33 34  2  0
 34 35  1  0
 36 35  2  0
 37 36  1  0
 38 12  1  0
 38 39  1  0
 38 48  1  0
 39 42  1  0
 40 44  1  0
 40 39  1  0
 41 40  2  0
 44 43  1  0
 46 44  1  0
 46 47  1  0
 46 45  1  0
 48 51  1  1
 48 49  1  0
 50 48  1  0
 52 53  1  0
 54 62  1  0
 55 60  1  0
 56 57  1  0
 56 55  1  0
 58 57  1  0
 58 67  1  0
 58 59  1  0
 60 54  1  0
 60 59  1  0
 61 54  2  0
 62 53  1  0
 62 63  1  0
 64 65  2  0
 65 84  1  0
 66 65  1  0
 66 69  1  0
 67 64  1  0
 67 68  1  0
 68 66  2  0
 69 70  1  0
 70 71  2  0
 72 75  1  0
 72 71  1  0
 73 72  2  0
 74 73  1  0
 74 69  2  0
 75 76  1  0
 76 77  1  0
 77 78  2  0
 79 78  1  0
 79 83  1  0
 80 79  2  0
 81 76  2  0
 81 80  1  0
 82 81  1  0
 84 85  1  0
 85 88  1  0
 85 87  1  0
 86 84  2  0
 89 90  1  0
 89 64  1  0
 91 89  1  0
M  ISO  4  10 101  11 101  54 100  62 100
M  END
>  <TORSDO>  (9) 
F 21

>  <SCORE>  (9) 
-13.586

>  <name>  (9) 
9

>  <ligand_id>  (9) 
9

>  <original_smiles>  (9) 
[H]C(=C([H])C([H])([H])C([H])([H])Oc1c([H])c([H])c2c(c1[H])C([H])([H])N(C(=O)C([H])(N([H])C(=O)C([H])(N([H])C([H])([H])[H])C([H])([H])[H])C(C([H])([H])[H])(C([H])([H])[H])C([H])([H])[H])C([H])(C(=O)N([H])C1([H])c3c([H])c([H])c([H])c([H])c3C([H])([H])C([H])([H])C1([H])[H])C2([H])[H])c1c([H])c([H])c([H])c(C([H])([H])C([H])([H])N([H])C(=O)N2C([H])([H])C([H])([H])C([H])([H])C([H])(n3nc(-c4c([H])c([H])c(Oc5c([H])c([H])c(F)c([H])c5F)c([H])c4[H])c(C(=O)N([H])[H])c3N([H])[H])C2([H])[H])c1[H]

>  <smiles>  (9) 
[H]C(=C([H])C([H])([H])C([H])([H])Oc1c([H])c([H])c2c(c1[H])C([H])([H])N(C(=O)C([H])(N([H])C(=O)C([H])(N([H])C([H])([H])[H])C([H])([H])[H])C(C([H])([H])[H])(C([H])([H])[H])C([H])([H])[H])C([H])(C(=O)N([H])C1([H])c3c([H])c([H])c([H])c([H])c3C([H])([H])C([H])([H])C1([H])[H])C2([H])[H])c1c([H])c([H])c([H])c(C([H])([H])C([H])([H])N([H])C(=O)N2C([H])([H])C([H])([H])C([H])([H])C([H])(n3nc(-c4c([H])c([H])c(Oc5c([H])c([H])c(F)c([H])c5F)c([H])c4[H])c(C(=O)N([H])[H])c3N([H])[H])C2([H])[H])c1[H]

$$$$
11:0:0
     RDKit          3D

109109  0  0  1  0  0  0  0  0999 V2000
  -29.3740  -26.7780   23.7200 C   0  0  0  0  0  2  0  0  0  0  0  0
  -29.0360  -25.3400   23.7510 N   0  0  0  0  0  4  0  0  0  0  0  0
  -28.3060  -25.2340   24.4330 H   0  0  0  0  0  0  0  0  0  0  0  0
  -29.8650  -24.8420   24.0380 H   0  0  0  0  0  0  0  0  0  0  0  0
  -28.5420  -24.5240   22.6150 C   0  0  0  0  0  2  0  0  0  0  0  0
  -28.3760  -25.5280   21.4410 C   0  0  0  0  0  2  0  0  0  0  0  0
  -28.8560  -25.0090   20.0510 C   0  0  0  0  0  2  0  0  0  0  0  0
  -28.4570  -25.9070   18.8790 C   0  0  0  0  0  1  0  0  0  0  0  0
  -31.9210  -28.1610   19.4270 C   0  0  0  0  0  0  0  0  0  0  0  0
  -34.2420  -30.1250   19.5260 C   0  0  0  0  0  2  0  0  0  0  0  0
  -34.4460  -31.6550   19.0490 C   0  0  0  0  0  2  0  0  0  0  0  0
  -34.4880  -31.8220   17.5320 C   0  0  0  0  0  2  0  0  0  0  0  0
  -33.5440  -30.7330   17.0200 C   0  0  0  0  0  3  0  0  0  0  0  0
  -33.7930  -29.2890   17.5270 C   0  0  0  0  0  2  0  0  0  0  0  0
  -33.0940  -29.1410   18.8470 N   0  0  0  0  0  0  0  0  0  0  0  0
  -32.5560  -28.2150   20.5640 O   0  0  0  0  0  0  0  0  0  0  0  0
  -30.2470  -27.3290   19.0210 N   0  0  0  0  0  2  0  0  0  0  0  0
  -30.0480  -27.4340   20.0080 H   0  0  0  0  0  0  0  0  0  0  0  0
  -32.1020  -30.5820   15.0190 C   0  0  0  0  0  0  0  0  0  0  0  0
  -32.3400  -30.5820   13.6790 C   0  0  0  0  0  0  0  0  0  0  0  0
  -33.7580  -30.6780   13.5260 C   0  0  0  0  0  0  0  0  0  0  0  0
  -33.3390  -30.6880   15.6070 N   0  0  0  0  0  0  0  0  0  0  0  0
  -34.3560  -30.6870   14.7140 N   0  0  0  0  0  0  0  0  0  0  0  0
  -34.5640  -30.8380   12.3160 C   0  0  0  0  0  0  0  0  0  0  0  0
  -34.9970  -29.7300   11.5570 C   0  0  0  0  0  3  0  0  0  0  0  0
  -35.7420  -29.9290   10.3770 C   0  0  0  0  0  3  0  0  0  0  0  0
  -36.0490  -31.2390    9.9410 C   0  0  0  0  0  0  0  0  0  0  0  0
  -35.6200  -32.3370   10.7060 C   0  0  0  0  0  3  0  0  0  0  0  0
  -34.8850  -32.1420   11.8860 C   0  0  0  0  0  3  0  0  0  0  0  0
  -36.7770  -31.5290    8.8150 O   0  0  0  0  0  0  0  0  0  0  0  0
  -36.3050  -31.2400    7.5600 C   0  0  0  0  0  0  0  0  0  0  0  0
  -35.2220  -31.9420    6.9880 C   0  0  0  0  0  3  0  0  0  0  0  0
  -34.8170  -31.6560    5.6700 C   0  0  0  0  0  3  0  0  0  0  0  0
  -35.4980  -30.6790    4.9200 C   0  0  0  0  0  0  0  0  0  0  0  0
  -36.5790  -29.9810    5.4870 C   0  0  0  0  0  3  0  0  0  0  0  0
  -36.9830  -30.2630    6.8030 C   0  0  0  0  0  0  0  0  0  0  0  0
  -38.0400  -29.5990    7.3330 F   0  0  0  0  0  0  0  0  0  0  0  0
  -35.1120  -30.4150    3.6490 F   0  0  0  0  0  0  0  0  0  0  0  0
  -31.2800  -30.5980   12.6250 C   0  0  0  0  0  0  0  0  0  0  0  0
  -31.6060  -30.1410   11.4210 N   0  0  0  0  0  0  0  0  0  0  0  0
  -30.1360  -30.9620   12.8890 O   0  0  0  0  0  0  0  0  0  0  0  0
  -32.5360  -29.8160   11.1960 H   0  0  0  0  0  0  0  0  0  0  0  0
  -30.9080  -30.1370   10.6940 H   0  0  0  0  0  0  0  0  0  0  0  0
  -30.9420  -30.5290   15.7950 N   0  0  0  0  0  0  0  0  0  0  0  0
  -30.0190  -30.5020   15.3730 H   0  0  0  0  0  0  0  0  0  0  0  0
  -30.9190  -30.5800   16.8050 H   0  0  0  0  0  0  0  0  0  0  0  0
  -26.2520  -24.6650   18.2620 C   0  0  0  0  0 15  0  0  0  0  0  0
  -24.1090  -23.7930   16.9590 C   0  0  0  0  0 15  0  0  0  0  0  0
  -21.7430  -22.9080   16.2180 C   0  0  0  0  0 15  0  0  0  0  0  0
  -18.2260  -27.4620   15.2080 C   0  0  0  0  0  3  0  0  0  0  0  0
  -17.5870  -26.2700   16.1130 C   0  0  0  0  0  3  0  0  0  0  0  0
  -19.4100  -27.2880   14.1120 C   0  0  0  0  0  3  0  0  0  0  0  0
  -18.0500  -24.7050   16.1280 C   0  0  0  0  0  3  0  0  0  0  0  0
  -20.1250  -25.8210   13.9280 C   0  0  0  0  0  1  0  0  0  0  0  0
  -19.3780  -24.1120   15.3120 C   0  0  0  0  0  1  0  0  0  0  0  0
  -28.3510  -27.5670   24.6160 C   0  0  0  0  0  2  0  0  0  0  0  0
  -27.5990  -28.8630   24.1130 C   0  0  0  0  0  2  0  0  0  0  0  0
  -27.1910  -30.0110   25.0990 C   0  0  0  0  0  2  0  0  0  0  0  0
  -28.2330  -30.6490   26.1130 C   0  0  0  0  0  2  0  0  0  0  0  0
  -27.5720  -31.7520   26.9920 C   0  0  0  0  0  2  0  0  0  0  0  0
  -28.1020  -33.2250   27.3310 C   0  0  0  0  0  2  0  0  0  0  0  0
  -29.5800  -33.2100   27.9700 C   0  0  0  0  0  2  0  0  0  0  0  0
  -30.9160  -34.0210   27.6450 C   0  0  0  0  0  2  0  0  0  0  0  0
  -30.9830  -35.4770   28.1450 N   0  0  0  0  0  4  0  0  0  0  0  0
  -30.0240  -35.7810   28.1960 H   0  0  0  0  0  0  0  0  0  0  0  0
  -31.4500  -36.0150   27.4370 H   0  0  0  0  0  0  0  0  0  0  0  0
  -31.6300  -35.8260   29.4850 C   0  0  0  0  0  3  0  0  0  0  0  0
  -32.6440  -34.7430   30.1980 C   0  0  0  0  0  3  0  0  0  0  0  0
  -32.8670  -33.3490   29.6650 O   0  0  0  0  0  0  0  0  0  0  0  0
  -39.5230  -32.3560   32.0170 C   0  0  0  0  0  0  0  0  0  0  0  0
  -34.1700  -33.0420   29.3430 C   0  0  0  0  0  0  0  0  0  0  0  0
  -38.7740  -33.7330   30.0610 C   0  0  0  0  0  3  0  0  0  0  0  0
  -36.8730  -33.1340   28.7860 C   0  0  0  0  0  0  0  0  0  0  0  0
  -37.5120  -31.6690   30.6940 C   0  0  0  0  0  2  0  0  0  0  0  0
  -36.4330  -32.3380   29.8520 C   0  0  0  0  0  0  0  0  0  0  0  0
  -35.0560  -32.2940   30.1590 C   0  0  0  0  0  3  0  0  0  0  0  0
  -34.6480  -33.6310   28.1680 C   0  0  0  0  0  3  0  0  0  0  0  0
  -35.9960  -33.8160   27.9520 C   0  0  0  0  0  3  0  0  0  0  0  0
  -38.3120  -33.3620   28.6640 C   0  0  0  0  0  2  0  0  0  0  0  0
  -38.6340  -32.5780   30.9970 N   0  0  0  0  0  0  0  0  0  0  0  0
  -40.5590  -33.0280   32.1800 O   0  0  0  0  0  0  0  0  0  0  0  0
  -38.0280  -35.0900   30.5660 C   0  0  0  0  0  0  0  0  0  0  0  0
  -37.1240  -35.9900   29.7520 N   0  0  0  0  0  0  0  0  0  0  0  0
  -38.4800  -35.3990   31.6530 O   0  0  0  0  0  0  0  0  0  0  0  0
  -36.8060  -35.4350   28.9870 H   0  0  0  0  0  0  0  0  0  0  0  0
  -35.5710  -38.9210   25.8000 C   0  0  0  0  0  3  0  0  0  0  0  0
  -37.0080  -37.8270   29.2430 C   0  0  0  0  0  2  0  0  0  0  0  0
  -35.4800  -37.0380   29.7310 C   0  0  0  0  0  1  0  0  0  0  0  0
  -33.9970  -37.2090   27.0650 C   0  0  0  0  0  1  0  0  0  0  0  0
  -34.0740  -38.6080   26.1740 C   0  0  0  0  0  2  0  0  0  0  0  0
  -36.8760  -38.4300   26.6190 C   0  0  0  0  0  2  0  0  0  0  0  0
  -36.8610  -37.3020   25.4200 C   0  0  0  0  0  2  0  0  0  0  0  0
  -35.8990  -36.8680   24.3190 C   0  0  0  0  0  2  0  0  0  0  0  0
  -34.9930  -37.7670   23.7570 C   0  0  0  0  0  2  0  0  0  0  0  0
  -35.1770  -38.9980   24.4130 C   0  0  0  0  0  2  0  0  0  0  0  0
  -39.2490  -31.2350   33.0580 C   0  0  0  0  0  3  0  0  0  0  0  0
  -40.4260  -30.3550   33.1570 N   0  0  0  0  0  0  0  0  0  0  0  0
  -40.4700  -29.0800   32.7460 C   0  0  0  0  0  0  0  0  0  0  0  0
  -39.4930  -28.4970   32.2710 O   0  0  0  0  0  0  0  0  0  0  0  0
  -41.2830  -30.7770   33.4850 H   0  0  0  0  0  0  0  0  0  0  0  0
  -42.4490  -28.1630   31.4670 C   0  0  0  0  0  1  0  0  0  0  0  0
  -41.8160  -28.3320   32.8600 C   0  0  0  0  0  3  0  0  0  0  0  0
  -41.4380  -27.0930   34.9480 C   0  0  0  0  0  1  0  0  0  0  0  0
  -41.7050  -27.0100   33.5140 N   0  0  0  0  0  0  0  0  0  0  0  0
  -42.5610  -26.4730   33.3920 H   0  0  0  0  0  0  0  0  0  0  0  0
  -38.8760  -31.8200   34.4760 C   0  0  1  0  0  0  0  0  0  0  0  0
  -40.1030  -32.2510   35.3150 C   0  0  0  0  0  1  0  0  0  0  0  0
  -37.9490  -33.0470   34.3380 C   0  0  0  0  0  1  0  0  0  0  0  0
  -38.0860  -30.7580   35.2730 C   0  0  0  0  0  1  0  0  0  0  0  0
  1  2  1  0
  1 56  1  0
  2  4  1  0
  2  3  1  0
  5  2  1  0
  6  5  1  0
  7  6  1  0
  8  7  1  0
  9 16  2  0
 11 10  1  0
 12 11  1  0
 13 22  1  0
 13 14  1  0
 13 12  1  0
 14 15  1  0
 15  9  1  0
 15 10  1  0
 17  9  1  0
 17 18  1  0
 19 22  1  0
 19 44  1  0
 20 19  2  0
 21 20  1  0
 21 23  2  0
 23 22  1  0
 24 21  1  0
 25 24  2  0
 26 25  1  0
 27 26  2  0
 27 28  1  0
 28 29  2  0
 29 24  1  0
 30 27  1  0
 31 30  1  0
 32 31  1  0
 33 32  2  0
 34 35  2  0
 34 33  1  0
 35 36  1  0
 36 37  1  0
 36 31  2  0
 38 34  1  0
 39 41  2  0
 39 20  1  0
 40 39  1  0
 42 40  1  0
 43 40  1  0
 44 46  1  0
 45 44  1  0
 50 51  1  0
 51 53  2  0
 52 50  2  0
 54 52  1  0
 55 53  1  0
 57 56  1  0
 57 58  1  0
 58 59  1  0
 59 60  1  0
 60 61  1  0
 61 62  1  0
 63 62  1  0
 63 64  1  0
 64 65  1  0
 64 67  1  0
 66 64  1  0
 67 68  2  0
 69 68  1  0
 70 81  2  0
 71 69  1  0
 71 76  1  0
 72 82  1  0
 72 80  1  0
 73 75  1  0
 74 80  1  0
 75 76  2  0
 75 74  1  0
 77 71  2  0
 78 77  1  0
 78 73  2  0
 79 73  1  0
 79 72  1  0
 80 70  1  0
 82 84  2  0
 83 82  1  0
 85 83  1  0
 86 90  1  0
 86 91  1  0
 87 88  1  0
 87 83  1  0
 90 89  1  0
 92 91  1  0
 93 92  1  0
 94 93  1  0
 94 95  1  0
 95 86  1  0
 96 70  1  0
 96 97  1  0
 96106  1  0
 97100  1  0
 98102  1  0
 98 97  1  0
 99 98  2  0
102101  1  0
102104  1  0
104103  1  0
105104  1  0
106109  1  1
106107  1  0
108106  1  0
M  ISO  4   9 100  17 100  68 101  69 101
M  END
>  <TORSDO>  (10) 
F 36

>  <SCORE>  (10) 
-4.681

>  <name>  (10) 
11

>  <ligand_id>  (10) 
11

>  <original_smiles>  (10) 
[H]c1c([H])c([H])c(C([H])([H])C([H])([H])C([H])([H])C([H])(N([H])C(=O)N2C([H])([H])C([H])([H])C([H])([H])C([H])(n3nc(-c4c([H])c([H])c(Oc5c([H])c([H])c(F)c([H])c5F)c([H])c4[H])c(C(=O)N([H])[H])c3N([H])[H])C2([H])[H])C([H])([H])C([H])([H])C([H])([H])[N+]([H])([H])C([H])([H])C([H])([H])C([H])([H])C([H])([H])C([H])([H])C([H])([H])C([H])([H])C([H])([H])C([H])([H])[N+]([H])([H])C([H])([H])C([H])([H])Oc2c([H])c([H])c3c(c2[H])C([H])([H])N(C(=O)C([H])(N([H])C(=O)C([H])(N([H])C([H])([H])[H])C([H])([H])[H])C(C([H])([H])[H])(C([H])([H])[H])C([H])([H])[H])C([H])(C(=O)N([H])C2([H])c4c([H])c([H])c([H])c([H])c4C([H])([H])C([H])([H])C2([H])[H])C3([H])[H])c([H])c1[H]

>  <smiles>  (10) 
[H]c1c([H])c([H])c(C([H])([H])C([H])([H])C([H])([H])C([H])(N([H])C(=O)N2C([H])([H])C([H])([H])C([H])([H])C([H])(n3nc(-c4c([H])c([H])c(Oc5c([H])c([H])c(F)c([H])c5F)c([H])c4[H])c(C(=O)N([H])[H])c3N([H])[H])C2([H])[H])C([H])([H])C([H])([H])C([H])([H])[N+]([H])([H])C([H])([H])C([H])([H])C([H])([H])C([H])([H])C([H])([H])C([H])([H])C([H])([H])C([H])([H])C([H])([H])[N+]([H])([H])C([H])([H])C([H])([H])Oc2c([H])c([H])c3c(c2[H])C([H])([H])N(C(=O)C([H])(N([H])C(=O)C([H])(N([H])C([H])([H])[H])C([H])([H])[H])C(C([H])([H])[H])(C([H])([H])[H])C([H])([H])[H])C([H])(C(=O)N([H])C2([H])c4c([H])c([H])c([H])c([H])c4C([H])([H])C([H])([H])C2([H])[H])C3([H])[H])c([H])c1[H]

$$$$
12:0:0
     RDKit          3D

 94103  0  0  1  0  0  0  0  0999 V2000
  -29.7590  -22.3690   23.0220 C   0  0  0  0  0  3  0  0  0  0  0  0
  -29.2660  -23.4960   22.3400 C   0  0  0  0  0  3  0  0  0  0  0  0
  -29.8650  -21.1360   20.9350 C   0  0  0  0  0  3  0  0  0  0  0  0
  -30.0850  -21.1840   22.3320 C   0  0  0  0  0  0  0  0  0  0  0  0
  -29.0790  -23.4660   20.9390 C   0  0  0  0  0  0  0  0  0  0  0  0
  -29.3710  -22.2680   20.2460 C   0  0  0  0  0  0  0  0  0  0  0  0
  -29.1820  -22.1990   18.9050 F   0  0  0  0  0  0  0  0  0  0  0  0
  -30.6470  -20.0230   23.1580 C   0  0  0  0  0  2  0  0  0  0  0  0
  -30.1340  -18.5840   22.9090 C   0  0  0  0  0  2  0  0  0  0  0  0
  -32.1240  -14.3160   19.6420 C   0  0  0  0  0  0  0  0  0  0  0  0
  -31.4570  -12.1950   18.5690 C   0  0  0  0  0  2  0  0  0  0  0  0
  -30.4270  -12.4400   17.4480 C   0  0  0  0  0  2  0  0  0  0  0  0
  -28.9970  -12.4530   18.0190 C   0  0  0  0  0  2  0  0  0  0  0  0
  -28.8610  -13.3730   19.2600 C   0  0  0  0  0  3  0  0  0  0  0  0
  -29.9880  -13.0980   20.2760 C   0  0  0  0  0  2  0  0  0  0  0  0
  -31.2860  -13.2410   19.5900 N   0  0  0  0  0  0  0  0  0  0  0  0
  -33.1020  -14.4260   18.8920 O   0  0  0  0  0  0  0  0  0  0  0  0
  -31.0920  -17.7410   20.6660 C   0  0  0  0  0  2  0  0  0  0  0  0
  -30.8870  -16.1520   22.6000 C   0  0  0  0  0  2  0  0  0  0  0  0
  -32.0330  -16.7220   19.9920 C   0  0  0  0  0  2  0  0  0  0  0  0
  -31.8990  -15.2280   21.8970 C   0  0  0  0  0  2  0  0  0  0  0  0
  -31.1230  -17.6250   22.2000 C   0  0  0  0  0  3  0  0  0  0  0  0
  -31.7560  -15.3460   20.4400 N   0  0  0  0  0  0  0  0  0  0  0  0
  -26.6600  -14.2400   20.2830 C   0  0  0  0  0  0  0  0  0  0  0  0
  -25.5440  -13.5900   20.7390 C   0  0  0  0  0  0  0  0  0  0  0  0
  -25.8110  -12.1960   20.5840 C   0  0  0  0  0  0  0  0  0  0  0  0
  -27.5420  -13.2490   19.8820 N   0  0  0  0  0  0  0  0  0  0  0  0
  -27.0400  -12.0090   20.1190 N   0  0  0  0  0  0  0  0  0  0  0  0
  -24.9450  -11.0290   20.7970 C   0  0  0  0  0  0  0  0  0  0  0  0
  -25.2770  -10.0240   21.7320 C   0  0  0  0  0  3  0  0  0  0  0  0
  -24.4200   -8.9200   21.9320 C   0  0  0  0  0  3  0  0  0  0  0  0
  -23.2140   -8.8160   21.1980 C   0  0  0  0  0  0  0  0  0  0  0  0
  -22.9000   -9.8060   20.2510 C   0  0  0  0  0  3  0  0  0  0  0  0
  -23.7570  -10.9010   20.0490 C   0  0  0  0  0  3  0  0  0  0  0  0
  -22.3340   -7.7670   21.3070 O   0  0  0  0  0  0  0  0  0  0  0  0
  -22.0510   -7.1870   22.5170 C   0  0  0  0  0  0  0  0  0  0  0  0
  -21.6050   -7.9440   23.6220 C   0  0  0  0  0  3  0  0  0  0  0  0
  -21.2610   -7.2980   24.8260 C   0  0  0  0  0  3  0  0  0  0  0  0
  -21.3500   -5.8970   24.9230 C   0  0  0  0  0  0  0  0  0  0  0  0
  -21.7890   -5.1400   23.8240 C   0  0  0  0  0  3  0  0  0  0  0  0
  -22.1350   -5.7830   22.6230 C   0  0  0  0  0  0  0  0  0  0  0  0
  -22.5350   -5.0470   21.5580 F   0  0  0  0  0  0  0  0  0  0  0  0
  -21.0130   -5.2750   26.0770 F   0  0  0  0  0  0  0  0  0  0  0  0
  -24.2640  -14.2250   21.1990 C   0  0  0  0  0  0  0  0  0  0  0  0
  -23.5800  -13.6030   22.1540 N   0  0  0  0  0  0  0  0  0  0  0  0
  -23.8870  -15.3060   20.7490 O   0  0  0  0  0  0  0  0  0  0  0  0
  -23.9010  -12.7300   22.5440 H   0  0  0  0  0  0  0  0  0  0  0  0
  -22.7210  -14.0070   22.4990 H   0  0  0  0  0  0  0  0  0  0  0  0
  -26.9880  -15.5870   20.1590 N   0  0  0  0  0  0  0  0  0  0  0  0
  -26.3370  -16.3240   20.4060 H   0  0  0  0  0  0  0  0  0  0  0  0
  -27.8610  -15.9380   19.7840 H   0  0  0  0  0  0  0  0  0  0  0  0
  -28.5650  -24.6870   20.1650 C   0  0  0  0  0  3  0  0  0  0  0  0
  -28.8240  -26.0670   20.8280 C   0  0  0  0  0  3  0  0  0  0  0  0
  -28.7370  -27.1980   19.9520 O   0  0  0  0  0  0  0  0  0  0  0  0
  -24.6540  -31.9060   23.4220 C   0  0  0  0  0  0  0  0  0  0  0  0
  -27.5490  -27.8840   20.0150 C   0  0  0  0  0  0  0  0  0  0  0  0
  -23.5470  -30.6080   21.6320 C   0  0  0  0  0  3  0  0  0  0  0  0
  -25.0940  -29.2730   20.1080 C   0  0  0  0  0  0  0  0  0  0  0  0
  -26.0570  -31.0920   21.5310 C   0  0  0  0  0  2  0  0  0  0  0  0
  -26.2130  -29.7900   20.7740 C   0  0  0  0  0  0  0  0  0  0  0  0
  -27.4460  -29.0980   20.7320 C   0  0  0  0  0  3  0  0  0  0  0  0
  -26.4190  -27.3870   19.3370 C   0  0  0  0  0  3  0  0  0  0  0  0
  -25.1910  -28.0700   19.3880 C   0  0  0  0  0  3  0  0  0  0  0  0
  -23.8120  -30.0690   20.2010 C   0  0  0  0  0  2  0  0  0  0  0  0
  -24.7680  -31.2110   22.2550 N   0  0  0  0  0  0  0  0  0  0  0  0
  -23.5500  -32.0800   23.9560 O   0  0  0  0  0  0  0  0  0  0  0  0
  -22.9230  -29.4750   22.4790 C   0  0  0  0  0  0  0  0  0  0  0  0
  -21.6190  -29.2230   22.2780 N   0  0  0  0  0  0  0  0  0  0  0  0
  -23.6120  -28.8260   23.2710 O   0  0  0  0  0  0  0  0  0  0  0  0
  -21.1210  -29.8040   21.6180 H   0  0  0  0  0  0  0  0  0  0  0  0
  -18.3220  -27.7630   22.4930 C   0  0  0  0  0  0  0  0  0  0  0  0
  -20.8330  -28.1810   22.9380 C   0  0  0  0  0  3  0  0  0  0  0  0
  -21.0740  -26.8020   22.2810 C   0  0  0  0  0  2  0  0  0  0  0  0
  -20.0580  -26.4710   21.1830 C   0  0  0  0  0  2  0  0  0  0  0  0
  -18.6350  -26.4770   21.7470 C   0  0  0  0  0  2  0  0  0  0  0  0
  -19.3550  -28.5710   23.0390 C   0  0  0  0  0  0  0  0  0  0  0  0
  -19.0090  -29.7750   23.6910 C   0  0  0  0  0  3  0  0  0  0  0  0
  -17.6630  -30.1710   23.8050 C   0  0  0  0  0  3  0  0  0  0  0  0
  -16.6420  -29.3600   23.2760 C   0  0  0  0  0  3  0  0  0  0  0  0
  -16.9750  -28.1580   22.6250 C   0  0  0  0  0  3  0  0  0  0  0  0
  -25.8980  -32.5340   24.1250 C   0  0  0  0  0  3  0  0  0  0  0  0
  -26.3590  -31.7320   25.4020 C   0  0  1  0  0  0  0  0  0  0  0  0
  -25.2120  -31.4250   26.3920 C   0  0  0  0  0  1  0  0  0  0  0  0
  -27.0100  -30.3900   24.9960 C   0  0  0  0  0  1  0  0  0  0  0  0
  -27.4460  -32.5340   26.1560 C   0  0  0  0  0  1  0  0  0  0  0  0
  -25.5560  -33.9190   24.4740 N   0  0  0  0  0  0  0  0  0  0  0  0
  -25.9440  -34.9970   23.7780 C   0  0  0  0  0  0  0  0  0  0  0  0
  -26.6990  -34.9300   22.8040 O   0  0  0  0  0  0  0  0  0  0  0  0
  -24.9020  -34.0470   25.2300 H   0  0  0  0  0  0  0  0  0  0  0  0
  -24.2550  -36.8010   23.3240 C   0  0  0  0  0  1  0  0  0  0  0  0
  -25.4110  -36.3680   24.2380 C   0  0  0  0  0  3  0  0  0  0  0  0
  -27.4530  -37.2120   25.3050 C   0  0  0  0  0  1  0  0  0  0  0  0
  -26.4480  -37.4230   24.2660 N   0  0  0  0  0  0  0  0  0  0  0  0
  -26.0280  -38.3360   24.4140 H   0  0  0  0  0  0  0  0  0  0  0  0
  2  1  1  0
  3  4  1  0
  4  1  2  0
  4  8  1  0
  5  2  2  0
  6  3  2  0
  6  5  1  0
  7  6  1  0
  9  8  1  0
 10 23  1  0
 11 16  1  0
 12 13  1  0
 12 11  1  0
 14 13  1  0
 14 27  1  0
 14 15  1  0
 16 10  1  0
 16 15  1  0
 17 10  2  0
 18 22  1  0
 20 23  1  0
 20 18  1  0
 21 19  1  0
 22 19  1  0
 22  9  1  0
 23 21  1  0
 24 25  2  0
 25 44  1  0
 26 25  1  0
 26 29  1  0
 27 28  1  0
 27 24  1  0
 28 26  2  0
 29 30  1  0
 30 31  2  0
 32 35  1  0
 32 31  1  0
 33 32  2  0
 34 33  1  0
 34 29  2  0
 35 36  1  0
 36 41  2  0
 36 37  1  0
 37 38  2  0
 38 39  1  0
 39 43  1  0
 40 39  2  0
 41 40  1  0
 42 41  1  0
 44 45  1  0
 45 48  1  0
 45 47  1  0
 46 44  2  0
 49 24  1  0
 49 50  1  0
 51 49  1  0
 52 53  2  0
 52  5  1  0
 54 56  1  0
 54 53  1  0
 55 66  2  0
 56 61  1  0
 57 65  1  0
 57 67  1  0
 58 64  1  0
 58 60  1  0
 59 65  1  0
 60 59  1  0
 61 60  2  0
 62 63  1  0
 62 56  2  0
 63 58  2  0
 64 57  1  0
 65 55  1  0
 67 69  2  0
 68 67  1  0
 70 68  1  0
 71 80  2  0
 71 76  1  0
 72 68  1  0
 72 76  1  0
 73 72  1  0
 74 75  1  0
 74 73  1  0
 75 71  1  0
 76 77  2  0
 77 78  1  0
 79 78  2  0
 80 79  1  0
 81 55  1  0
 81 86  1  0
 81 82  1  0
 82 85  1  1
 82 83  1  0
 84 82  1  0
 86 89  1  0
 87 91  1  0
 87 86  1  0
 88 87  2  0
 91 90  1  0
 91 93  1  0
 93 94  1  0
 93 92  1  0
M  ISO  4  10 100  23 100  53 101  54 101
M  END
>  <TORSDO>  (11) 
F 20

>  <SCORE>  (11) 
-9.458

>  <name>  (11) 
12

>  <ligand_id>  (11) 
12

>  <original_smiles>  (11) 
[H]c1c([H])c([H])c2c(c1[H])C([H])([H])C([H])([H])C([H])([H])C2([H])N([H])C(=O)C1([H])N(C(=O)C([H])(N([H])C(=O)C([H])(N([H])C([H])([H])[H])C([H])([H])[H])C(C([H])([H])[H])(C([H])([H])[H])C([H])([H])[H])C([H])([H])c2c([H])c(OC([H])([H])C([H])([H])c3c([H])c([H])c(C([H])([H])C([H])([H])C4([H])C([H])([H])C([H])([H])N(C(=O)N5C([H])([H])C([H])([H])C([H])([H])C([H])(n6nc(-c7c([H])c([H])c(Oc8c([H])c([H])c(F)c([H])c8F)c([H])c7[H])c(C(=O)N([H])[H])c6N([H])[H])C5([H])[H])C([H])([H])C4([H])[H])c([H])c3F)c([H])c([H])c2C1([H])[H]

>  <smiles>  (11) 
[H]c1c([H])c([H])c2c(c1[H])C([H])([H])C([H])([H])C([H])([H])C2([H])N([H])C(=O)C1([H])N(C(=O)C([H])(N([H])C(=O)C([H])(N([H])C([H])([H])[H])C([H])([H])[H])C(C([H])([H])[H])(C([H])([H])[H])C([H])([H])[H])C([H])([H])c2c([H])c(OC([H])([H])C([H])([H])c3c([H])c([H])c(C([H])([H])C([H])([H])C4([H])C([H])([H])C([H])([H])N(C(=O)N5C([H])([H])C([H])([H])C([H])([H])C([H])(n6nc(-c7c([H])c([H])c(Oc8c([H])c([H])c(F)c([H])c8F)c([H])c7[H])c(C(=O)N([H])[H])c6N([H])[H])C5([H])[H])C([H])([H])C4([H])[H])c([H])c3F)c([H])c([H])c2C1([H])[H]

$$$$
13:0:0
     RDKit          3D

 94103  0  0  1  0  0  0  0  0999 V2000
  -28.3990  -20.0180   20.5860 C   0  0  0  0  0  3  0  0  0  0  0  0
  -30.4070  -20.7200   19.3970 C   0  0  0  0  0  3  0  0  0  0  0  0
  -27.9640  -21.3570   20.6420 C   0  0  0  0  0  3  0  0  0  0  0  0
  -29.9640  -22.0560   19.4350 C   0  0  0  0  0  3  0  0  0  0  0  0
  -29.6370  -19.6960   19.9890 C   0  0  0  0  0  0  0  0  0  0  0  0
  -28.7520  -22.3840   20.0790 C   0  0  0  0  0  0  0  0  0  0  0  0
  -30.1450  -18.2590   19.9790 C   0  0  0  0  0  2  0  0  0  0  0  0
  -30.9270  -17.4480   23.6460 C   0  0  0  0  0  2  0  0  0  0  0  0
  -30.5650  -18.4460   22.5490 C   0  0  0  0  0  2  0  0  0  0  0  0
  -31.6180  -16.2980   22.9100 C   0  0  0  0  0  2  0  0  0  0  0  0
  -30.1620  -17.5630   21.3610 C   0  0  0  0  0  3  0  0  0  0  0  0
  -31.1290  -16.3630   21.4490 C   0  0  0  0  0  3  0  0  0  0  0  0
  -30.8330  -14.3360   20.0320 C   0  0  0  0  0  0  0  0  0  0  0  0
  -30.3800  -12.2490   18.8030 C   0  0  0  0  0  2  0  0  0  0  0  0
  -29.3780  -12.4810   17.6580 C   0  0  0  0  0  2  0  0  0  0  0  0
  -27.9300  -12.3590   18.1670 C   0  0  0  0  0  2  0  0  0  0  0  0
  -27.6770  -13.2000   19.4450 C   0  0  0  0  0  3  0  0  0  0  0  0
  -28.7780  -12.9480   20.4970 C   0  0  0  0  0  2  0  0  0  0  0  0
  -30.0890  -13.2120   19.8730 N   0  0  0  0  0  0  0  0  0  0  0  0
  -31.8020  -14.6140   19.3180 O   0  0  0  0  0  0  0  0  0  0  0  0
  -30.4720  -15.1180   21.0560 N   0  0  0  0  0  0  0  0  0  0  0  0
  -29.6800  -14.8130   21.6020 H   0  0  0  0  0  0  0  0  0  0  0  0
  -25.3210  -13.8450   20.2660 C   0  0  0  0  0  0  0  0  0  0  0  0
  -24.2630  -13.0880   20.6910 C   0  0  0  0  0  0  0  0  0  0  0  0
  -24.7030  -11.7300   20.6400 C   0  0  0  0  0  0  0  0  0  0  0  0
  -26.3420  -12.9500   19.9870 N   0  0  0  0  0  0  0  0  0  0  0  0
  -25.9740  -11.6730   20.2670 N   0  0  0  0  0  0  0  0  0  0  0  0
  -23.9710  -10.4770   20.8710 C   0  0  0  0  0  0  0  0  0  0  0  0
  -24.4220   -9.5200   21.8070 C   0  0  0  0  0  3  0  0  0  0  0  0
  -23.6910   -8.3320   22.0230 C   0  0  0  0  0  3  0  0  0  0  0  0
  -22.4950   -8.0940   21.3040 C   0  0  0  0  0  0  0  0  0  0  0  0
  -22.0640   -9.0390   20.3570 C   0  0  0  0  0  3  0  0  0  0  0  0
  -22.7970  -10.2190   20.1400 C   0  0  0  0  0  3  0  0  0  0  0  0
  -21.7330   -6.9570   21.4290 O   0  0  0  0  0  0  0  0  0  0  0  0
  -21.6820   -6.2510   22.6050 C   0  0  0  0  0  0  0  0  0  0  0  0
  -21.2660   -6.8480   23.8150 C   0  0  0  0  0  3  0  0  0  0  0  0
  -21.1620   -6.0700   24.9850 C   0  0  0  0  0  3  0  0  0  0  0  0
  -21.4630   -4.6940   24.9450 C   0  0  0  0  0  0  0  0  0  0  0  0
  -21.8710   -4.0970   23.7400 C   0  0  0  0  0  3  0  0  0  0  0  0
  -21.9770   -4.8730   22.5720 C   0  0  0  0  0  0  0  0  0  0  0  0
  -22.3510   -4.2890   21.4090 F   0  0  0  0  0  0  0  0  0  0  0  0
  -21.3550   -3.9440   26.0670 F   0  0  0  0  0  0  0  0  0  0  0  0
  -22.8880  -13.5850   21.0350 C   0  0  0  0  0  0  0  0  0  0  0  0
  -22.2020  -12.9050   21.9470 N   0  0  0  0  0  0  0  0  0  0  0  0
  -22.4320  -14.6090   20.5300 O   0  0  0  0  0  0  0  0  0  0  0  0
  -22.5850  -12.0750   22.3760 H   0  0  0  0  0  0  0  0  0  0  0  0
  -21.2820  -13.2190   22.2210 H   0  0  0  0  0  0  0  0  0  0  0  0
  -25.4960  -15.2130   20.0760 N   0  0  0  0  0  0  0  0  0  0  0  0
  -24.7510  -15.8830   20.2250 H   0  0  0  0  0  0  0  0  0  0  0  0
  -26.3460  -15.6360   19.7230 H   0  0  0  0  0  0  0  0  0  0  0  0
  -28.3050  -23.8320   20.1790 C   0  0  0  0  0  2  0  0  0  0  0  0
  -29.3360  -24.7280   20.8920 C   0  0  0  0  0  2  0  0  0  0  0  0
  -28.8070  -26.1370   21.1780 C   0  0  0  0  0  2  0  0  0  0  0  0
  -28.5220  -26.7930   19.9480 O   0  0  0  0  0  0  0  0  0  0  0  0
  -24.6780  -31.8410   23.1590 C   0  0  0  0  0  0  0  0  0  0  0  0
  -27.3620  -27.5170   19.9870 C   0  0  0  0  0  0  0  0  0  0  0  0
  -23.4800  -30.4570   21.4940 C   0  0  0  0  0  3  0  0  0  0  0  0
  -24.9450  -28.9600   20.0390 C   0  0  0  0  0  0  0  0  0  0  0  0
  -25.9940  -30.8580   21.2880 C   0  0  0  0  0  2  0  0  0  0  0  0
  -26.0960  -29.4980   20.6340 C   0  0  0  0  0  0  0  0  0  0  0  0
  -27.3090  -28.7790   20.6130 C   0  0  0  0  0  3  0  0  0  0  0  0
  -26.2040  -26.9830   19.3900 C   0  0  0  0  0  3  0  0  0  0  0  0
  -24.9910  -27.6960   19.4210 C   0  0  0  0  0  3  0  0  0  0  0  0
  -23.6900  -29.8010   20.1030 C   0  0  0  0  0  2  0  0  0  0  0  0
  -24.7370  -31.0640   22.0410 N   0  0  0  0  0  0  0  0  0  0  0  0
  -23.5960  -32.0890   23.7110 O   0  0  0  0  0  0  0  0  0  0  0  0
  -22.8440  -29.4120   22.4390 C   0  0  0  0  0  0  0  0  0  0  0  0
  -21.5260  -29.1970   22.2930 N   0  0  0  0  0  0  0  0  0  0  0  0
  -23.5320  -28.7960   23.2570 O   0  0  0  0  0  0  0  0  0  0  0  0
  -21.0330  -29.7420   21.6000 H   0  0  0  0  0  0  0  0  0  0  0  0
  -18.1830  -27.9030   22.7210 C   0  0  0  0  0  0  0  0  0  0  0  0
  -20.7240  -28.2360   23.0470 C   0  0  0  0  0  3  0  0  0  0  0  0
  -20.8820  -26.8110   22.4710 C   0  0  0  0  0  2  0  0  0  0  0  0
  -19.8120  -26.4570   21.4340 C   0  0  0  0  0  2  0  0  0  0  0  0
  -18.4130  -26.5610   22.0480 C   0  0  0  0  0  2  0  0  0  0  0  0
  -19.2690  -28.6970   23.1760 C   0  0  0  0  0  0  0  0  0  0  0  0
  -19.0010  -29.9520   23.7620 C   0  0  0  0  0  3  0  0  0  0  0  0
  -17.6790  -30.4160   23.9000 C   0  0  0  0  0  3  0  0  0  0  0  0
  -16.6060  -29.6200   23.4610 C   0  0  0  0  0  3  0  0  0  0  0  0
  -16.8590  -28.3660   22.8770 C   0  0  0  0  0  3  0  0  0  0  0  0
  -25.9600  -32.4730   23.7850 C   0  0  0  0  0  3  0  0  0  0  0  0
  -25.6380  -33.8580   24.1470 N   0  0  0  0  0  0  0  0  0  0  0  0
  -25.9500  -34.9290   23.4040 C   0  0  0  0  0  0  0  0  0  0  0  0
  -26.6130  -34.8540   22.3650 O   0  0  0  0  0  0  0  0  0  0  0  0
  -25.0450  -33.9880   24.9530 H   0  0  0  0  0  0  0  0  0  0  0  0
  -24.1930  -36.7020   23.0990 C   0  0  0  0  0  1  0  0  0  0  0  0
  -25.4470  -36.3010   23.8910 C   0  0  0  0  0  3  0  0  0  0  0  0
  -27.5790  -37.2000   24.7130 C   0  0  0  0  0  1  0  0  0  0  0  0
  -26.4630  -37.3710   23.7860 N   0  0  0  0  0  0  0  0  0  0  0  0
  -26.0460  -38.2820   23.9570 H   0  0  0  0  0  0  0  0  0  0  0  0
  -26.4970  -31.6750   25.0360 C   0  0  1  0  0  0  0  0  0  0  0  0
  -25.4160  -31.3900   26.1050 C   0  0  0  0  0  1  0  0  0  0  0  0
  -27.0970  -30.3190   24.5990 C   0  0  0  0  0  1  0  0  0  0  0  0
  -27.6430  -32.4660   25.7080 C   0  0  0  0  0  1  0  0  0  0  0  0
  1  3  1  0
  2  4  2  0
  2  5  1  0
  4  6  1  0
  5  1  2  0
  6 51  1  0
  6  3  2  0
  7  5  1  0
  9  8  1  0
 10  8  1  0
 11  7  1  0
 11 12  1  0
 11  9  1  0
 12 21  1  0
 12 10  1  0
 13 21  1  0
 14 19  1  0
 15 16  1  0
 15 14  1  0
 17 16  1  0
 17 26  1  0
 17 18  1  0
 19 13  1  0
 19 18  1  0
 20 13  2  0
 21 22  1  0
 23 24  2  0
 24 43  1  0
 25 24  1  0
 25 28  1  0
 26 23  1  0
 26 27  1  0
 27 25  2  0
 28 29  1  0
 29 30  2  0
 31 34  1  0
 31 30  1  0
 32 31  2  0
 33 32  1  0
 33 28  2  0
 34 35  1  0
 35 36  1  0
 36 37  2  0
 38 37  1  0
 38 42  1  0
 39 38  2  0
 40 35  2  0
 40 39  1  0
 41 40  1  0
 43 44  1  0
 44 47  1  0
 44 46  1  0
 45 43  2  0
 48 49  1  0
 48 23  1  0
 50 48  1  0
 51 52  1  0
 52 53  1  0
 54 56  1  0
 54 53  1  0
 55 66  2  0
 56 61  1  0
 57 65  1  0
 57 67  1  0
 58 64  1  0
 58 60  1  0
 59 65  1  0
 60 59  1  0
 61 60  2  0
 62 63  1  0
 62 56  2  0
 63 58  2  0
 64 57  1  0
 65 55  1  0
 67 69  2  0
 68 67  1  0
 70 68  1  0
 71 80  2  0
 71 76  1  0
 72 68  1  0
 72 76  1  0
 73 72  1  0
 74 75  1  0
 74 73  1  0
 75 71  1  0
 76 77  2  0
 77 78  1  0
 79 78  2  0
 80 79  1  0
 81 55  1  0
 81 82  1  0
 81 91  1  0
 82 85  1  0
 83 87  1  0
 83 82  1  0
 84 83  2  0
 87 86  1  0
 89 87  1  0
 89 90  1  0
 89 88  1  0
 91 94  1  1
 91 92  1  0
 93 91  1  0
M  ISO  4  13 100  21 100  53 101  54 101
M  END
>  <TORSDO>  (12) 
F 21

>  <SCORE>  (12) 
-10.986

>  <name>  (12) 
13

>  <ligand_id>  (12) 
13

>  <original_smiles>  (12) 
[H]c1c([H])c([H])c2c(c1[H])C([H])([H])C([H])([H])C([H])([H])C2([H])N([H])C(=O)C1([H])N(C(=O)C([H])(N([H])C(=O)C([H])(N([H])C([H])([H])[H])C([H])([H])[H])C(C([H])([H])[H])(C([H])([H])[H])C([H])([H])[H])C([H])([H])c2c([H])c(OC([H])([H])C([H])([H])C([H])([H])c3c([H])c([H])c(C([H])([H])C4([H])C([H])([H])C([H])([H])C([H])([H])C4([H])N([H])C(=O)N4C([H])([H])C([H])([H])C([H])([H])C([H])(n5nc(-c6c([H])c([H])c(Oc7c([H])c([H])c(F)c([H])c7F)c([H])c6[H])c(C(=O)N([H])[H])c5N([H])[H])C4([H])[H])c([H])c3[H])c([H])c([H])c2C1([H])[H]

>  <smiles>  (12) 
[H]c1c([H])c([H])c2c(c1[H])C([H])([H])C([H])([H])C([H])([H])C2([H])N([H])C(=O)C1([H])N(C(=O)C([H])(N([H])C(=O)C([H])(N([H])C([H])([H])[H])C([H])([H])[H])C(C([H])([H])[H])(C([H])([H])[H])C([H])([H])[H])C([H])([H])c2c([H])c(OC([H])([H])C([H])([H])C([H])([H])c3c([H])c([H])c(C([H])([H])C4([H])C([H])([H])C([H])([H])C([H])([H])C4([H])N([H])C(=O)N4C([H])([H])C([H])([H])C([H])([H])C([H])(n5nc(-c6c([H])c([H])c(Oc7c([H])c([H])c(F)c([H])c7F)c([H])c6[H])c(C(=O)N([H])[H])c5N([H])[H])C4([H])[H])c([H])c3[H])c([H])c([H])c2C1([H])[H]

$$$$
14:0:0
     RDKit          3D

 92100  0  0  1  0  0  0  0  0999 V2000
  -28.8390  -22.7240   22.9070 C   0  0  0  0  0  3  0  0  0  0  0  0
  -31.0050  -23.1190   21.8660 C   0  0  0  0  0  3  0  0  0  0  0  0
  -29.2410  -21.4250   23.2620 C   0  0  0  0  0  3  0  0  0  0  0  0
  -31.4160  -21.8250   22.2330 C   0  0  0  0  0  3  0  0  0  0  0  0
  -29.7110  -23.5780   22.2000 C   0  0  0  0  0  0  0  0  0  0  0  0
  -30.5290  -20.9690   22.9150 C   0  0  0  0  0  0  0  0  0  0  0  0
  -29.2100  -24.8840   21.7640 C   0  0  0  0  0  3  0  0  0  0  0  0
  -29.7710  -25.6760   20.8360 C   0  0  0  0  0  3  0  0  0  0  0  0
  -29.1910  -27.0170   20.4630 C   0  0  0  0  0  2  0  0  0  0  0  0
  -28.1140  -26.8330   19.5440 O   0  0  0  0  0  0  0  0  0  0  0  0
  -24.4790  -31.7400   23.2460 C   0  0  0  0  0  0  0  0  0  0  0  0
  -26.9680  -27.5730   19.7280 C   0  0  0  0  0  0  0  0  0  0  0  0
  -23.1710  -30.4270   21.6010 C   0  0  0  0  0  3  0  0  0  0  0  0
  -24.5400  -28.9960   19.9950 C   0  0  0  0  0  0  0  0  0  0  0  0
  -25.6630  -30.8490   21.2450 C   0  0  0  0  0  2  0  0  0  0  0  0
  -25.7230  -29.5200   20.5280 C   0  0  0  0  0  0  0  0  0  0  0  0
  -26.9370  -28.8220   20.3920 C   0  0  0  0  0  3  0  0  0  0  0  0
  -25.7680  -27.0560   19.1950 C   0  0  0  0  0  3  0  0  0  0  0  0
  -24.5540  -27.7590   19.3250 C   0  0  0  0  0  3  0  0  0  0  0  0
  -23.2920  -29.8290   20.1730 C   0  0  0  0  0  2  0  0  0  0  0  0
  -24.4590  -31.0150   22.0910 N   0  0  0  0  0  0  0  0  0  0  0  0
  -23.4380  -31.9610   23.8790 O   0  0  0  0  0  0  0  0  0  0  0  0
  -22.5980  -29.3410   22.5410 C   0  0  0  0  0  0  0  0  0  0  0  0
  -21.2920  -29.0620   22.4050 N   0  0  0  0  0  0  0  0  0  0  0  0
  -23.3250  -28.7520   23.3460 O   0  0  0  0  0  0  0  0  0  0  0  0
  -20.7610  -29.5960   21.7310 H   0  0  0  0  0  0  0  0  0  0  0  0
  -18.0560  -27.5000   22.7450 C   0  0  0  0  0  0  0  0  0  0  0  0
  -20.5470  -28.0520   23.1550 C   0  0  0  0  0  3  0  0  0  0  0  0
  -20.8450  -26.6320   22.6200 C   0  0  0  0  0  2  0  0  0  0  0  0
  -19.8490  -26.1680   21.5530 C   0  0  0  0  0  2  0  0  0  0  0  0
  -18.4230  -26.1660   22.1160 C   0  0  0  0  0  2  0  0  0  0  0  0
  -19.0530  -28.3920   23.2190 C   0  0  0  0  0  0  0  0  0  0  0  0
  -18.6600  -29.6350   23.7640 C   0  0  0  0  0  3  0  0  0  0  0  0
  -17.3010  -29.9880   23.8410 C   0  0  0  0  0  3  0  0  0  0  0  0
  -16.3160  -29.0950   23.3840 C   0  0  0  0  0  3  0  0  0  0  0  0
  -16.6930  -27.8530   22.8440 C   0  0  0  0  0  3  0  0  0  0  0  0
  -25.8020  -32.3450   23.8130 C   0  0  0  0  0  3  0  0  0  0  0  0
  -25.5370  -33.7480   24.1510 N   0  0  0  0  0  0  0  0  0  0  0  0
  -25.8750  -34.7930   23.3820 C   0  0  0  0  0  0  0  0  0  0  0  0
  -26.5150  -34.6740   22.3330 O   0  0  0  0  0  0  0  0  0  0  0  0
  -24.9670  -33.9160   24.9670 H   0  0  0  0  0  0  0  0  0  0  0  0
  -24.1730  -36.6200   23.0790 C   0  0  0  0  0  1  0  0  0  0  0  0
  -25.4310  -36.1910   23.8510 C   0  0  0  0  0  3  0  0  0  0  0  0
  -27.6090  -37.0340   24.6100 C   0  0  0  0  0  1  0  0  0  0  0  0
  -26.4810  -37.2220   23.7020 N   0  0  0  0  0  0  0  0  0  0  0  0
  -26.0990  -38.1510   23.8600 H   0  0  0  0  0  0  0  0  0  0  0  0
  -26.3590  -31.5620   25.0650 C   0  0  1  0  0  0  0  0  0  0  0  0
  -25.3040  -31.3230   26.1690 C   0  0  0  0  0  1  0  0  0  0  0  0
  -26.9190  -30.1850   24.6380 C   0  0  0  0  0  1  0  0  0  0  0  0
  -27.5370  -32.3440   25.6950 C   0  0  0  0  0  1  0  0  0  0  0  0
  -30.9260  -19.5390   23.2120 C   0  0  0  0  0  2  0  0  0  0  0  0
  -31.0680  -18.7510   21.9010 C   0  0  0  0  0  2  0  0  0  0  0  0
  -31.0050  -17.2390   22.0710 C   0  0  0  0  0  0  0  0  0  0  0  0
  -30.9210  -16.7000   23.1780 O   0  0  0  0  0  0  0  0  0  0  0  0
  -31.0590  -16.4250   20.7890 C   0  0  0  0  0  2  0  0  0  0  0  0
  -30.1110  -15.2120   20.8110 C   0  0  0  0  0  2  0  0  0  0  0  0
  -30.5100  -14.1560   19.7790 C   0  0  0  0  0  0  0  0  0  0  0  0
  -30.1500  -11.9380   18.7620 C   0  0  0  0  0  2  0  0  0  0  0  0
  -29.1340  -12.0120   17.6090 C   0  0  0  0  0  2  0  0  0  0  0  0
  -27.6930  -11.8840   18.1420 C   0  0  0  0  0  2  0  0  0  0  0  0
  -27.4090  -12.8410   19.3300 C   0  0  0  0  0  3  0  0  0  0  0  0
  -28.5270  -12.7420   20.3920 C   0  0  0  0  0  2  0  0  0  0  0  0
  -29.8170  -12.9920   19.7270 N   0  0  0  0  0  0  0  0  0  0  0  0
  -31.4680  -14.3910   19.0330 O   0  0  0  0  0  0  0  0  0  0  0  0
  -25.0630  -13.4870   20.1820 C   0  0  0  0  0  0  0  0  0  0  0  0
  -24.0170  -12.7320   20.6410 C   0  0  0  0  0  0  0  0  0  0  0  0
  -24.4660  -11.3760   20.6060 C   0  0  0  0  0  0  0  0  0  0  0  0
  -26.0870  -12.5930   19.9030 N   0  0  0  0  0  0  0  0  0  0  0  0
  -25.7310  -11.3190   20.2110 N   0  0  0  0  0  0  0  0  0  0  0  0
  -23.7470  -10.1230   20.8740 C   0  0  0  0  0  0  0  0  0  0  0  0
  -24.1930   -9.2120   21.8570 C   0  0  0  0  0  3  0  0  0  0  0  0
  -23.4740   -8.0230   22.1070 C   0  0  0  0  0  3  0  0  0  0  0  0
  -22.2960   -7.7370   21.3770 C   0  0  0  0  0  0  0  0  0  0  0  0
  -21.8700   -8.6370   20.3840 C   0  0  0  0  0  3  0  0  0  0  0  0
  -22.5890   -9.8180   20.1320 C   0  0  0  0  0  3  0  0  0  0  0  0
  -21.5490   -6.5950   21.5350 O   0  0  0  0  0  0  0  0  0  0  0  0
  -21.4670   -5.9500   22.7430 C   0  0  0  0  0  0  0  0  0  0  0  0
  -20.9850   -6.5970   23.9020 C   0  0  0  0  0  3  0  0  0  0  0  0
  -20.8520   -5.8770   25.1060 C   0  0  0  0  0  3  0  0  0  0  0  0
  -21.1900   -4.5120   25.1520 C   0  0  0  0  0  0  0  0  0  0  0  0
  -21.6650   -3.8640   23.9970 C   0  0  0  0  0  3  0  0  0  0  0  0
  -21.7990   -4.5820   22.7960 C   0  0  0  0  0  0  0  0  0  0  0  0
  -22.2370   -3.9470   21.6810 F   0  0  0  0  0  0  0  0  0  0  0  0
  -21.0550   -3.8170   26.3060 F   0  0  0  0  0  0  0  0  0  0  0  0
  -22.6450  -13.2250   21.0010 C   0  0  0  0  0  0  0  0  0  0  0  0
  -21.9790  -12.5570   21.9350 N   0  0  0  0  0  0  0  0  0  0  0  0
  -22.1750  -14.2390   20.4870 O   0  0  0  0  0  0  0  0  0  0  0  0
  -22.3720  -11.7380   22.3740 H   0  0  0  0  0  0  0  0  0  0  0  0
  -21.0620  -12.8710   22.2190 H   0  0  0  0  0  0  0  0  0  0  0  0
  -25.2230  -14.8520   19.9640 N   0  0  0  0  0  0  0  0  0  0  0  0
  -24.4710  -15.5160   20.1120 H   0  0  0  0  0  0  0  0  0  0  0  0
  -26.0580  -15.2790   19.5800 H   0  0  0  0  0  0  0  0  0  0  0  0
  1  3  1  0
  2  5  1  0
  2  4  2  0
  4  6  1  0
  5  1  2  0
  6 51  1  0
  6  3  2  0
  7  5  1  0
  8  7  2  0
  9  8  1  0
 10 12  1  0
 10  9  1  0
 11 22  2  0
 12 17  1  0
 13 21  1  0
 13 23  1  0
 14 20  1  0
 14 16  1  0
 15 21  1  0
 16 15  1  0
 17 16  2  0
 18 19  1  0
 18 12  2  0
 19 14  2  0
 20 13  1  0
 21 11  1  0
 23 25  2  0
 24 23  1  0
 26 24  1  0
 27 36  2  0
 27 32  1  0
 28 24  1  0
 28 32  1  0
 29 28  1  0
 30 31  1  0
 30 29  1  0
 31 27  1  0
 32 33  2  0
 33 34  1  0
 35 34  2  0
 36 35  1  0
 37 11  1  0
 37 38  1  0
 37 47  1  0
 38 41  1  0
 39 43  1  0
 39 38  1  0
 40 39  2  0
 43 42  1  0
 45 43  1  0
 45 46  1  0
 45 44  1  0
 47 50  1  1
 47 48  1  0
 49 47  1  0
 52 53  1  0
 52 51  1  0
 53 54  2  0
 55 56  1  0
 55 53  1  0
 57 56  1  0
 58 63  1  0
 59 60  1  0
 59 58  1  0
 61 60  1  0
 61 68  1  0
 61 62  1  0
 63 57  1  0
 63 62  1  0
 64 57  2  0
 65 66  2  0
 66 85  1  0
 67 66  1  0
 67 70  1  0
 68 65  1  0
 68 69  1  0
 69 67  2  0
 70 71  1  0
 71 72  2  0
 73 76  1  0
 73 72  1  0
 74 73  2  0
 75 74  1  0
 75 70  2  0
 76 77  1  0
 77 82  2  0
 77 78  1  0
 78 79  2  0
 79 80  1  0
 80 84  1  0
 81 80  2  0
 82 81  1  0
 83 82  1  0
 85 86  1  0
 86 89  1  0
 86 88  1  0
 87 85  2  0
 90 91  1  0
 90 65  1  0
 92 90  1  0
M  ISO  4   9 101  10 101  56 100  57 100
M  END
>  <TORSDO>  (13) 
F 23

>  <SCORE>  (13) 
-10.330

>  <name>  (13) 
14

>  <ligand_id>  (13) 
14

>  <original_smiles>  (13) 
[H]C(=C([H])C([H])([H])Oc1c([H])c([H])c2c(c1[H])C([H])([H])N(C(=O)C([H])(N([H])C(=O)C([H])(N([H])C([H])([H])[H])C([H])([H])[H])C(C([H])([H])[H])(C([H])([H])[H])C([H])([H])[H])C([H])(C(=O)N([H])C1([H])c3c([H])c([H])c([H])c([H])c3C([H])([H])C([H])([H])C1([H])[H])C2([H])[H])c1c([H])c([H])c(C([H])([H])C([H])([H])C(=O)C([H])([H])C([H])([H])C(=O)N2C([H])([H])C([H])([H])C([H])([H])C([H])(n3nc(-c4c([H])c([H])c(Oc5c([H])c([H])c(F)c([H])c5F)c([H])c4[H])c(C(=O)N([H])[H])c3N([H])[H])C2([H])[H])c([H])c1[H]

>  <smiles>  (13) 
[H]C(=C([H])C([H])([H])Oc1c([H])c([H])c2c(c1[H])C([H])([H])N(C(=O)C([H])(N([H])C(=O)C([H])(N([H])C([H])([H])[H])C([H])([H])[H])C(C([H])([H])[H])(C([H])([H])[H])C([H])([H])[H])C([H])(C(=O)N([H])C1([H])c3c([H])c([H])c([H])c([H])c3C([H])([H])C([H])([H])C1([H])[H])C2([H])[H])c1c([H])c([H])c(C([H])([H])C([H])([H])C(=O)C([H])([H])C([H])([H])C(=O)N2C([H])([H])C([H])([H])C([H])([H])C([H])(n3nc(-c4c([H])c([H])c(Oc5c([H])c([H])c(F)c([H])c5F)c([H])c4[H])c(C(=O)N([H])[H])c3N([H])[H])C2([H])[H])c([H])c1[H]

$$$$
15:0:0
     RDKit          3D

 94101  0  0  1  0  0  0  0  0999 V2000
  -24.2960  -23.0710   23.9040 C   0  0  0  0  0  1  0  0  0  0  0  0
  -25.0690  -23.3870   22.6800 N   0  0  2  0  0  4  0  0  0  0  0  0
  -25.6970  -24.1290   22.9540 H   0  0  0  0  0  0  0  0  0  0  0  0
  -24.2030  -23.9380   21.6010 C   0  0  0  0  0  2  0  0  0  0  0  0
  -25.0240  -24.5660   20.4530 C   0  0  0  0  0  2  0  0  0  0  0  0
  -24.2820  -24.5570   19.1050 C   0  0  0  0  0  2  0  0  0  0  0  0
  -25.2430  -24.6300   17.9040 C   0  0  0  0  0  2  0  0  0  0  0  0
  -24.5980  -25.1850   16.6160 C   0  0  0  0  0  2  0  0  0  0  0  0
  -24.8400  -26.5850   16.4780 O   0  0  0  0  0  0  0  0  0  0  0  0
  -25.6640  -29.1300   23.0580 C   0  0  0  0  0  0  0  0  0  0  0  0
  -24.3470  -27.4390   17.4390 C   0  0  0  0  0  0  0  0  0  0  0  0
  -23.5730  -29.7850   21.9090 C   0  0  0  0  0  3  0  0  0  0  0  0
  -23.4560  -29.2420   19.4230 C   0  0  0  0  0  0  0  0  0  0  0  0
  -25.6810  -29.2300   20.5710 C   0  0  0  0  0  2  0  0  0  0  0  0
  -24.7730  -28.7650   19.4520 C   0  0  0  0  0  0  0  0  0  0  0  0
  -25.2230  -27.8730   18.4560 C   0  0  0  0  0  3  0  0  0  0  0  0
  -23.0200  -27.9250   17.4260 C   0  0  0  0  0  3  0  0  0  0  0  0
  -22.5720  -28.8210   18.4140 C   0  0  0  0  0  3  0  0  0  0  0  0
  -23.0570  -30.2120   20.5100 C   0  0  0  0  0  2  0  0  0  0  0  0
  -25.0050  -29.3440   21.8840 N   0  0  0  0  0  0  0  0  0  0  0  0
  -25.1110  -29.3310   24.1480 O   0  0  0  0  0  0  0  0  0  0  0  0
  -22.6150  -28.7150   22.4790 C   0  0  0  0  0  0  0  0  0  0  0  0
  -21.3130  -29.0420   22.5210 N   0  0  0  0  0  0  0  0  0  0  0  0
  -23.0400  -27.6160   22.8450 O   0  0  0  0  0  0  0  0  0  0  0  0
  -21.0490  -29.9650   22.2090 H   0  0  0  0  0  0  0  0  0  0  0  0
  -17.7230  -28.6640   22.5650 C   0  0  0  0  0  0  0  0  0  0  0  0
  -20.2270  -28.1840   22.9910 C   0  0  0  0  0  3  0  0  0  0  0  0
  -20.0440  -26.9580   22.0700 C   0  0  0  0  0  2  0  0  0  0  0  0
  -19.0090  -27.1850   20.9610 C   0  0  0  0  0  2  0  0  0  0  0  0
  -17.6430  -27.5220   21.5650 C   0  0  0  0  0  2  0  0  0  0  0  0
  -18.9400  -28.9860   23.2220 C   0  0  0  0  0  0  0  0  0  0  0  0
  -18.9660  -30.0760   24.1200 C   0  0  0  0  0  3  0  0  0  0  0  0
  -17.8070  -30.8390   24.3610 C   0  0  0  0  0  3  0  0  0  0  0  0
  -16.6010  -30.5030   23.7210 C   0  0  0  0  0  3  0  0  0  0  0  0
  -16.5590  -29.4140   22.8320 C   0  0  0  0  0  3  0  0  0  0  0  0
  -27.1470  -28.6450   23.0860 C   0  0  0  0  0  3  0  0  0  0  0  0
  -27.2960  -27.1100   23.4240 C   0  0  1  0  0  0  0  0  0  0  0  0
  -26.4970  -26.6680   24.6720 C   0  0  0  0  0  1  0  0  0  0  0  0
  -26.8290  -26.2400   22.2340 C   0  0  0  0  0  1  0  0  0  0  0  0
  -28.7860  -26.7660   23.6620 C   0  0  0  0  0  1  0  0  0  0  0  0
  -27.8610  -29.4630   24.0740 N   0  0  0  0  0  0  0  0  0  0  0  0
  -28.6840  -30.4760   23.7700 C   0  0  0  0  0  0  0  0  0  0  0  0
  -28.9830  -30.7730   22.6090 O   0  0  0  0  0  0  0  0  0  0  0  0
  -27.6280  -29.3090   25.0440 H   0  0  0  0  0  0  0  0  0  0  0  0
  -28.4830  -32.6000   25.0980 C   0  0  0  0  0  1  0  0  0  0  0  0
  -29.2700  -31.2890   24.9390 C   0  0  0  0  0  3  0  0  0  0  0  0
  -31.5570  -30.3990   24.8890 C   0  0  0  0  0  1  0  0  0  0  0  0
  -30.7110  -31.5850   24.7860 N   0  0  0  0  0  0  0  0  0  0  0  0
  -31.0190  -32.2530   25.4880 H   0  0  0  0  0  0  0  0  0  0  0  0
  -25.9100  -22.2280   22.2610 C   0  0  0  0  0  2  0  0  0  0  0  0
  -26.7170  -22.4600   20.9620 C   0  0  0  0  0  2  0  0  0  0  0  0
  -27.9830  -21.5960   20.8600 C   0  0  0  0  0  2  0  0  0  0  0  0
  -28.4990  -21.4840   19.4150 C   0  0  0  0  0  2  0  0  0  0  0  0
  -29.6930  -20.5250   19.2840 C   0  0  0  0  0  2  0  0  0  0  0  0
  -30.2050  -20.4090   17.8380 C   0  0  0  0  0  2  0  0  0  0  0  0
  -31.3740  -19.4230   17.6720 C   0  0  0  0  0  2  0  0  0  0  0  0
  -31.8280  -17.0060   18.1270 C   0  0  0  0  0  0  0  0  0  0  0  0
  -32.4180  -14.8830   19.2420 C   0  0  0  0  0  2  0  0  0  0  0  0
  -31.8010  -13.6480   18.5610 C   0  0  0  0  0  2  0  0  0  0  0  0
  -30.3810  -13.3860   19.0920 C   0  0  0  0  0  2  0  0  0  0  0  0
  -29.4950  -14.6570   19.0580 C   0  0  0  0  0  3  0  0  0  0  0  0
  -30.2280  -15.8540   19.7000 C   0  0  0  0  0  2  0  0  0  0  0  0
  -31.5270  -16.0320   19.0220 N   0  0  0  0  0  0  0  0  0  0  0  0
  -32.7920  -16.9490   17.3560 O   0  0  0  0  0  0  0  0  0  0  0  0
  -31.0880  -18.1150   18.2580 N   0  0  0  0  0  0  0  0  0  0  0  0
  -30.3320  -18.0640   18.9240 H   0  0  0  0  0  0  0  0  0  0  0  0
  -27.2500  -15.3270   20.1250 C   0  0  0  0  0  0  0  0  0  0  0  0
  -26.1890  -14.5810   20.5690 C   0  0  0  0  0  0  0  0  0  0  0  0
  -26.5560  -13.2160   20.3650 C   0  0  0  0  0  0  0  0  0  0  0  0
  -28.1980  -14.4160   19.6880 N   0  0  0  0  0  0  0  0  0  0  0  0
  -27.7900  -13.1360   19.8840 N   0  0  0  0  0  0  0  0  0  0  0  0
  -25.7820  -11.9810   20.5470 C   0  0  0  0  0  0  0  0  0  0  0  0
  -26.0250  -11.1120   21.6330 C   0  0  0  0  0  3  0  0  0  0  0  0
  -25.2550   -9.9400   21.7980 C   0  0  0  0  0  3  0  0  0  0  0  0
  -24.2310   -9.6280   20.8730 C   0  0  0  0  0  0  0  0  0  0  0  0
  -24.0090  -10.4840   19.7810 C   0  0  0  0  0  3  0  0  0  0  0  0
  -24.7780  -11.6490   19.6150 C   0  0  0  0  0  3  0  0  0  0  0  0
  -23.4500   -8.4990   20.9380 O   0  0  0  0  0  0  0  0  0  0  0  0
  -22.7950   -8.1430   22.0900 C   0  0  0  0  0  0  0  0  0  0  0  0
  -21.9080   -9.0250   22.7450 C   0  0  0  0  0  3  0  0  0  0  0  0
  -21.2020   -8.5930   23.8870 C   0  0  0  0  0  3  0  0  0  0  0  0
  -21.3730   -7.2800   24.3670 C   0  0  0  0  0  0  0  0  0  0  0  0
  -22.2530   -6.4000   23.7120 C   0  0  0  0  0  3  0  0  0  0  0  0
  -22.9580   -6.8300   22.5740 C   0  0  0  0  0  0  0  0  0  0  0  0
  -23.7870   -5.9700   21.9340 F   0  0  0  0  0  0  0  0  0  0  0  0
  -20.6910   -6.8620   25.4590 F   0  0  0  0  0  0  0  0  0  0  0  0
  -24.8730  -15.1040   21.0680 C   0  0  0  0  0  0  0  0  0  0  0  0
  -24.2460  -14.3900   21.9980 N   0  0  0  0  0  0  0  0  0  0  0  0
  -24.4160  -16.1740   20.6720 O   0  0  0  0  0  0  0  0  0  0  0  0
  -24.6310  -13.5200   22.3330 H   0  0  0  0  0  0  0  0  0  0  0  0
  -23.3680  -14.7160   22.3750 H   0  0  0  0  0  0  0  0  0  0  0  0
  -27.4750  -16.6960   20.0400 N   0  0  0  0  0  0  0  0  0  0  0  0
  -26.7730  -17.3790   20.3020 H   0  0  0  0  0  0  0  0  0  0  0  0
  -28.3110  -17.1150   19.6530 H   0  0  0  0  0  0  0  0  0  0  0  0
  2  3  1  1
  2  1  1  0
  4  2  1  0
  5  4  1  0
  6  5  1  0
  7  6  1  0
  8  7  1  0
  9  8  1  0
  9 11  1  0
 10 21  2  0
 11 16  1  0
 12 22  1  0
 13 15  1  0
 13 19  1  0
 14 20  1  0
 15 14  1  0
 16 15  2  0
 17 11  2  0
 17 18  1  0
 18 13  2  0
 19 12  1  0
 20 12  1  0
 20 10  1  0
 22 23  1  0
 22 24  2  0
 25 23  1  0
 26 35  2  0
 26 31  1  0
 27 23  1  0
 27 31  1  0
 28 27  1  0
 29 30  1  0
 29 28  1  0
 30 26  1  0
 31 32  2  0
 32 33  1  0
 34 33  2  0
 35 34  1  0
 36 10  1  0
 36 37  1  0
 36 41  1  0
 37 40  1  1
 37 38  1  0
 39 37  1  0
 41 44  1  0
 42 41  1  0
 42 46  1  0
 43 42  2  0
 46 45  1  0
 48 47  1  0
 48 46  1  0
 48 49  1  0
 50  2  1  0
 51 50  1  0
 52 51  1  0
 53 52  1  0
 54 53  1  0
 55 54  1  0
 56 55  1  0
 56 65  1  0
 57 65  1  0
 57 63  1  0
 59 60  1  0
 59 58  1  0
 61 60  1  0
 61 70  1  0
 61 62  1  0
 63 58  1  0
 63 62  1  0
 64 57  2  0
 65 66  1  0
 67 68  2  0
 68 87  1  0
 69 72  1  0
 69 68  1  0
 70 71  1  0
 70 67  1  0
 71 69  2  0
 72 73  1  0
 73 74  2  0
 75 78  1  0
 75 74  1  0
 76 75  2  0
 77 76  1  0
 77 72  2  0
 78 79  1  0
 79 84  2  0
 79 80  1  0
 80 81  2  0
 81 82  1  0
 82 86  1  0
 83 82  2  0
 84 83  1  0
 85 84  1  0
 87 88  1  0
 88 90  1  0
 88 91  1  0
 89 87  2  0
 92 67  1  0
 92 93  1  0
 94 92  1  0
M  ISO  4   8 101   9 101  57 100  65 100
M  END
>  <TORSDO>  (14) 
F 28

>  <SCORE>  (14) 
-1.584

>  <name>  (14) 
15

>  <ligand_id>  (14) 
15

>  <original_smiles>  (14) 
[H]c1c([H])c([H])c2c(c1[H])C([H])([H])C([H])([H])C([H])([H])C2([H])N([H])C(=O)C1([H])N(C(=O)C([H])(N([H])C(=O)C([H])(N([H])C([H])([H])[H])C([H])([H])[H])C(C([H])([H])[H])(C([H])([H])[H])C([H])([H])[H])C([H])([H])c2c([H])c(OC([H])([H])C([H])([H])C([H])([H])C([H])([H])C([H])([H])[N+]([H])(C([H])([H])[H])C([H])([H])C([H])([H])C([H])([H])C([H])([H])C([H])([H])C([H])([H])C([H])([H])N([H])C(=O)N3C([H])([H])C([H])([H])C([H])([H])C([H])(n4nc(-c5c([H])c([H])c(Oc6c([H])c([H])c(F)c([H])c6F)c([H])c5[H])c(C(=O)N([H])[H])c4N([H])[H])C3([H])[H])c([H])c([H])c2C1([H])[H]

>  <smiles>  (14) 
[H]c1c([H])c([H])c2c(c1[H])C([H])([H])C([H])([H])C([H])([H])C2([H])N([H])C(=O)C1([H])N(C(=O)C([H])(N([H])C(=O)C([H])(N([H])C([H])([H])[H])C([H])([H])[H])C(C([H])([H])[H])(C([H])([H])[H])C([H])([H])[H])C([H])([H])c2c([H])c(OC([H])([H])C([H])([H])C([H])([H])C([H])([H])C([H])([H])[N+]([H])(C([H])([H])[H])C([H])([H])C([H])([H])C([H])([H])C([H])([H])C([H])([H])C([H])([H])C([H])([H])N([H])C(=O)N3C([H])([H])C([H])([H])C([H])([H])C([H])(n4nc(-c5c([H])c([H])c(Oc6c([H])c([H])c(F)c([H])c6F)c([H])c5[H])c(C(=O)N([H])[H])c4N([H])[H])C3([H])[H])c([H])c([H])c2C1([H])[H]

$$$$
16:0:0
     RDKit          3D

 99107  0  0  1  0  0  0  0  0999 V2000
  -25.1850  -23.3530   23.0210 C   0  0  0  0  0  3  0  0  0  0  0  0
  -25.9690  -23.1240   21.8720 C   0  0  0  0  0  3  0  0  0  0  0  0
  -25.1420  -24.6320   23.6090 C   0  0  0  0  0  3  0  0  0  0  0  0
  -26.6420  -25.4620   21.8790 C   0  0  0  0  0  3  0  0  0  0  0  0
  -26.7200  -24.1770   21.2950 C   0  0  0  0  0  0  0  0  0  0  0  0
  -25.8720  -25.6930   23.0390 C   0  0  0  0  0  0  0  0  0  0  0  0
  -27.5780  -23.9790   20.0880 C   0  0  0  0  0  0  0  0  0  0  0  0
  -28.0580  -24.9260   19.4540 O   0  0  0  0  0  0  0  0  0  0  0  0
  -27.8680  -22.5380   19.6360 C   0  0  0  0  0  2  0  0  0  0  0  0
  -28.9950  -22.3940   18.5870 C   0  0  0  0  0  2  0  0  0  0  0  0
  -30.4240  -22.4330   19.1640 C   0  0  0  0  0  2  0  0  0  0  0  0
  -30.7330  -21.2680   20.1190 C   0  0  0  0  0  2  0  0  0  0  0  0
  -32.2120  -21.2330   20.5430 C   0  0  0  0  0  2  0  0  0  0  0  0
  -32.4730  -20.3800   21.7980 C   0  0  0  0  0  2  0  0  0  0  0  0
  -32.8260  -18.0770   20.9180 C   0  0  0  0  0  0  0  0  0  0  0  0
  -32.8780  -15.7880   20.0030 C   0  0  0  0  0  2  0  0  0  0  0  0
  -32.2270  -15.7350   18.6080 C   0  0  0  0  0  2  0  0  0  0  0  0
  -30.7060  -15.5320   18.7220 C   0  0  0  0  0  2  0  0  0  0  0  0
  -30.0470  -16.5250   19.7170 C   0  0  0  0  0  3  0  0  0  0  0  0
  -30.8200  -16.5520   21.0540 C   0  0  0  0  0  2  0  0  0  0  0  0
  -32.2350  -16.8630   20.7700 N   0  0  0  0  0  0  0  0  0  0  0  0
  -33.9490  -18.3450   20.4790 O   0  0  0  0  0  0  0  0  0  0  0  0
  -32.1060  -18.9820   21.5900 N   0  0  0  0  0  0  0  0  0  0  0  0
  -31.2130  -18.6770   21.9480 H   0  0  0  0  0  0  0  0  0  0  0  0
  -27.5300  -17.0560   19.8690 C   0  0  0  0  0  0  0  0  0  0  0  0
  -26.4370  -16.2550   20.0600 C   0  0  0  0  0  0  0  0  0  0  0  0
  -26.9420  -14.9280   20.2110 C   0  0  0  0  0  0  0  0  0  0  0  0
  -28.6320  -16.2150   19.9180 N   0  0  0  0  0  0  0  0  0  0  0  0
  -28.2680  -14.9330   20.1780 N   0  0  0  0  0  0  0  0  0  0  0  0
  -26.2390  -13.6430   20.3310 C   0  0  0  0  0  0  0  0  0  0  0  0
  -26.4060  -12.8120   21.4600 C   0  0  0  0  0  3  0  0  0  0  0  0
  -25.7050  -11.5910   21.5590 C   0  0  0  0  0  3  0  0  0  0  0  0
  -24.8230  -11.1920   20.5260 C   0  0  0  0  0  0  0  0  0  0  0  0
  -24.6770  -12.0130   19.3950 C   0  0  0  0  0  3  0  0  0  0  0  0
  -25.3800  -13.2250   19.2940 C   0  0  0  0  0  3  0  0  0  0  0  0
  -24.1210  -10.0120   20.5250 O   0  0  0  0  0  0  0  0  0  0  0  0
  -23.5830   -9.4930   21.6760 C   0  0  0  0  0  0  0  0  0  0  0  0
  -22.6530  -10.2130   22.4550 C   0  0  0  0  0  3  0  0  0  0  0  0
  -22.0740   -9.6140   23.5920 C   0  0  0  0  0  3  0  0  0  0  0  0
  -22.4150   -8.2960   23.9460 C   0  0  0  0  0  0  0  0  0  0  0  0
  -23.3370   -7.5750   23.1680 C   0  0  0  0  0  3  0  0  0  0  0  0
  -23.9180   -8.1700   22.0340 C   0  0  0  0  0  0  0  0  0  0  0  0
  -24.7900   -7.4640   21.2760 F   0  0  0  0  0  0  0  0  0  0  0  0
  -21.8530   -7.7180   25.0330 F   0  0  0  0  0  0  0  0  0  0  0  0
  -24.9960  -16.6780   20.0100 C   0  0  0  0  0  0  0  0  0  0  0  0
  -24.1330  -16.0030   20.7620 N   0  0  0  0  0  0  0  0  0  0  0  0
  -24.6360  -17.6430   19.3390 O   0  0  0  0  0  0  0  0  0  0  0  0
  -24.4330  -15.2240   21.3300 H   0  0  0  0  0  0  0  0  0  0  0  0
  -23.1590  -16.2710   20.7710 H   0  0  0  0  0  0  0  0  0  0  0  0
  -27.6790  -18.4200   19.6410 N   0  0  0  0  0  0  0  0  0  0  0  0
  -26.8850  -19.0420   19.5480 H   0  0  0  0  0  0  0  0  0  0  0  0
  -28.5660  -18.8790   19.4810 H   0  0  0  0  0  0  0  0  0  0  0  0
  -25.8420  -27.0760   23.6730 C   0  0  0  0  0  2  0  0  0  0  0  0
  -27.1470  -27.4070   24.4280 C   0  0  0  0  0  2  0  0  0  0  0  0
  -28.3710  -27.5420   23.5210 C   0  0  0  0  0  0  0  0  0  0  0  0
  -29.1380  -28.5020   23.6350 O   0  0  0  0  0  0  0  0  0  0  0  0
  -28.5930  -26.4310   22.4910 C   0  0  0  0  0  2  0  0  0  0  0  0
  -29.7100  -26.6820   21.4590 C   0  0  0  0  0  2  0  0  0  0  0  0
  -29.1300  -27.1700   20.2490 O   0  0  0  0  0  0  0  0  0  0  0  0
  -25.0120  -31.6120   24.0360 C   0  0  0  0  0  0  0  0  0  0  0  0
  -27.9680  -27.8980   20.3630 C   0  0  0  0  0  0  0  0  0  0  0  0
  -23.9590  -30.5730   22.0500 C   0  0  0  0  0  3  0  0  0  0  0  0
  -25.5440  -29.3400   20.4770 C   0  0  0  0  0  0  0  0  0  0  0  0
  -26.4830  -30.9570   22.1420 C   0  0  0  0  0  2  0  0  0  0  0  0
  -26.6360  -29.7410   21.2560 C   0  0  0  0  0  0  0  0  0  0  0  0
  -27.8460  -29.0250   21.2080 C   0  0  0  0  0  3  0  0  0  0  0  0
  -26.8650  -27.5070   19.5780 C   0  0  0  0  0  3  0  0  0  0  0  0
  -25.6490  -28.2150   19.6390 C   0  0  0  0  0  3  0  0  0  0  0  0
  -24.2890  -30.1760   20.5850 C   0  0  0  0  0  2  0  0  0  0  0  0
  -25.1640  -31.0520   22.8030 N   0  0  0  0  0  0  0  0  0  0  0  0
  -23.8890  -31.7790   24.5290 O   0  0  0  0  0  0  0  0  0  0  0  0
  -23.2450  -29.3840   22.7330 C   0  0  0  0  0  0  0  0  0  0  0  0
  -21.9430  -29.2270   22.4450 N   0  0  0  0  0  0  0  0  0  0  0  0
  -23.8620  -28.6170   23.4770 O   0  0  0  0  0  0  0  0  0  0  0  0
  -21.5100  -29.9030   21.8320 H   0  0  0  0  0  0  0  0  0  0  0  0
  -18.5280  -28.0570   22.5150 C   0  0  0  0  0  0  0  0  0  0  0  0
  -21.0750  -28.1580   22.9360 C   0  0  0  0  0  3  0  0  0  0  0  0
  -21.1710  -26.9050   22.0360 C   0  0  0  0  0  2  0  0  0  0  0  0
  -20.1070  -26.8700   20.9340 C   0  0  0  0  0  2  0  0  0  0  0  0
  -18.7030  -26.9020   21.5440 C   0  0  0  0  0  2  0  0  0  0  0  0
  -19.6440  -28.6560   23.1570 C   0  0  0  0  0  0  0  0  0  0  0  0
  -19.4290  -29.7490   24.0240 C   0  0  0  0  0  3  0  0  0  0  0  0
  -18.1290  -30.2390   24.2560 C   0  0  0  0  0  3  0  0  0  0  0  0
  -17.0270  -29.6300   23.6320 C   0  0  0  0  0  3  0  0  0  0  0  0
  -17.2270  -28.5400   22.7670 C   0  0  0  0  0  3  0  0  0  0  0  0
  -26.2390  -32.0930   24.8740 C   0  0  0  0  0  3  0  0  0  0  0  0
  -26.4090  -31.3130   26.2340 C   0  0  1  0  0  0  0  0  0  0  0  0
  -25.0950  -31.1800   27.0400 C   0  0  0  0  0  1  0  0  0  0  0  0
  -26.9540  -29.8880   25.9820 C   0  0  0  0  0  1  0  0  0  0  0  0
  -27.4450  -32.0350   27.1270 C   0  0  0  0  0  1  0  0  0  0  0  0
  -26.0710  -33.5310   25.1140 N   0  0  0  0  0  0  0  0  0  0  0  0
  -26.7630  -34.4940   24.4910 C   0  0  0  0  0  0  0  0  0  0  0  0
  -27.6730  -34.2530   23.6900 O   0  0  0  0  0  0  0  0  0  0  0  0
  -25.3030  -33.8020   25.7120 H   0  0  0  0  0  0  0  0  0  0  0  0
  -25.5510  -36.5280   23.6450 C   0  0  0  0  0  1  0  0  0  0  0  0
  -26.3860  -35.9540   24.8010 C   0  0  0  0  0  3  0  0  0  0  0  0
  -28.2840  -36.4850   26.2670 C   0  0  0  0  0  1  0  0  0  0  0  0
  -27.5570  -36.8240   25.0470 N   0  0  0  0  0  0  0  0  0  0  0  0
  -27.2750  -37.7990   25.1040 H   0  0  0  0  0  0  0  0  0  0  0  0
  1  3  1  0
  2  1  2  0
  4  6  1  0
  5  2  1  0
  5  4  2  0
  6  3  2  0
  6 53  1  0
  7  5  1  0
  8  7  2  0
  9  7  1  0
 10 11  1  0
 10  9  1  0
 11 12  1  0
 12 13  1  0
 13 14  1  0
 15 23  1  0
 16 21  1  0
 17 18  1  0
 17 16  1  0
 19 18  1  0
 19 28  1  0
 19 20  1  0
 21 15  1  0
 21 20  1  0
 22 15  2  0
 23 14  1  0
 23 24  1  0
 25 28  1  0
 25 26  2  0
 26 27  1  0
 27 30  1  0
 28 29  1  0
 29 27  2  0
 30 31  1  0
 31 32  2  0
 33 32  1  0
 34 33  2  0
 35 34  1  0
 35 30  2  0
 36 33  1  0
 36 37  1  0
 37 42  2  0
 37 38  1  0
 38 39  2  0
 39 40  1  0
 40 44  1  0
 41 40  2  0
 42 41  1  0
 43 42  1  0
 45 26  1  0
 45 46  1  0
 46 49  1  0
 46 48  1  0
 47 45  2  0
 50 25  1  0
 51 50  1  0
 52 50  1  0
 53 54  1  0
 55 56  2  0
 55 54  1  0
 57 55  1  0
 58 57  1  0
 59 61  1  0
 59 58  1  0
 60 71  2  0
 61 66  1  0
 62 72  1  0
 62 70  1  0
 63 69  1  0
 63 65  1  0
 64 70  1  0
 65 64  1  0
 66 65  2  0
 67 68  1  0
 67 61  2  0
 68 63  2  0
 69 62  1  0
 70 60  1  0
 72 74  2  0
 73 72  1  0
 75 73  1  0
 76 85  2  0
 76 81  1  0
 77 73  1  0
 77 81  1  0
 78 77  1  0
 79 80  1  0
 79 78  1  0
 80 76  1  0
 81 82  2  0
 82 83  1  0
 84 83  2  0
 85 84  1  0
 86 60  1  0
 86 91  1  0
 86 87  1  0
 87 88  1  1
 87 90  1  0
 89 87  1  0
 91 94  1  0
 92 96  1  0
 92 91  1  0
 93 92  2  0
 96 95  1  0
 96 98  1  0
 98 99  1  0
 98 97  1  0
M  ISO  4  15 100  23 100  58 101  59 101
M  END
>  <TORSDO>  (15) 
F 28

>  <SCORE>  (15) 
-3.874

>  <name>  (15) 
16

>  <ligand_id>  (15) 
16

>  <original_smiles>  (15) 
[H]c1c([H])c(C(=O)C([H])([H])C([H])([H])C([H])([H])C([H])([H])C([H])([H])C([H])([H])N([H])C(=O)N2C([H])([H])C([H])([H])C([H])([H])C([H])(n3nc(-c4c([H])c([H])c(Oc5c([H])c([H])c(F)c([H])c5F)c([H])c4[H])c(C(=O)N([H])[H])c3N([H])[H])C2([H])[H])c([H])c(C([H])([H])C([H])([H])C(=O)C([H])([H])C([H])([H])Oc2c([H])c([H])c3c(c2[H])C([H])([H])N(C(=O)C([H])(N([H])C(=O)C([H])(N([H])C([H])([H])[H])C([H])([H])[H])C(C([H])([H])[H])(C([H])([H])[H])C([H])([H])[H])C([H])(C(=O)N([H])C2([H])c4c([H])c([H])c([H])c([H])c4C([H])([H])C([H])([H])C2([H])[H])C3([H])[H])c1[H]

>  <smiles>  (15) 
[H]c1c([H])c(C(=O)C([H])([H])C([H])([H])C([H])([H])C([H])([H])C([H])([H])C([H])([H])N([H])C(=O)N2C([H])([H])C([H])([H])C([H])([H])C([H])(n3nc(-c4c([H])c([H])c(Oc5c([H])c([H])c(F)c([H])c5F)c([H])c4[H])c(C(=O)N([H])[H])c3N([H])[H])C2([H])[H])c([H])c(C([H])([H])C([H])([H])C(=O)C([H])([H])C([H])([H])Oc2c([H])c([H])c3c(c2[H])C([H])([H])N(C(=O)C([H])(N([H])C(=O)C([H])(N([H])C([H])([H])[H])C([H])([H])[H])C(C([H])([H])[H])(C([H])([H])[H])C([H])([H])[H])C([H])(C(=O)N([H])C2([H])c4c([H])c([H])c([H])c([H])c4C([H])([H])C([H])([H])C2([H])[H])C3([H])[H])c1[H]

$$$$
17:0:0
     RDKit          3D

 95102  0  0  1  0  0  0  0  0999 V2000
  -31.8410  -24.1450   20.6720 C   0  0  0  0  0  3  0  0  0  0  0  0
  -32.9250  -24.2650   19.5690 C   0  0  0  0  0  2  0  0  0  0  0  0
  -33.9730  -25.3830   19.7690 C   0  0  0  0  0  2  0  0  0  0  0  0
  -35.0270  -25.0190   20.7340 N   0  0  0  0  0  4  0  0  0  0  0  0
  -34.6550  -24.9110   21.6600 H   0  0  0  0  0  0  0  0  0  0  0  0
  -35.7240  -25.7430   20.7640 H   0  0  0  0  0  0  0  0  0  0  0  0
  -35.4830  -24.1660   20.4620 H   0  0  0  0  0  0  0  0  0  0  0  0
  -31.1210  -25.4780   21.0120 C   0  0  0  0  0  2  0  0  0  0  0  0
  -30.7290  -26.3890   19.8310 C   0  0  0  0  0  2  0  0  0  0  0  0
  -29.6850  -27.4490   20.2320 C   0  0  0  0  0  2  0  0  0  0  0  0
  -28.4090  -26.8240   20.2100 O   0  0  0  0  0  0  0  0  0  0  0  0
  -24.5650  -31.9940   23.3450 C   0  0  0  0  0  0  0  0  0  0  0  0
  -27.2770  -27.6070   20.2660 C   0  0  0  0  0  0  0  0  0  0  0  0
  -23.3760  -30.5800   21.6960 C   0  0  0  0  0  3  0  0  0  0  0  0
  -24.8520  -29.0550   20.2820 C   0  0  0  0  0  0  0  0  0  0  0  0
  -25.8940  -30.9730   21.5020 C   0  0  0  0  0  2  0  0  0  0  0  0
  -26.0000  -29.6030   20.8680 C   0  0  0  0  0  0  0  0  0  0  0  0
  -27.2170  -28.8890   20.8600 C   0  0  0  0  0  3  0  0  0  0  0  0
  -26.1090  -27.0600   19.7010 C   0  0  0  0  0  3  0  0  0  0  0  0
  -24.8980  -27.7780   19.6980 C   0  0  0  0  0  3  0  0  0  0  0  0
  -23.5960  -29.8970   20.3210 C   0  0  0  0  0  2  0  0  0  0  0  0
  -24.6300  -31.1970   22.2410 N   0  0  0  0  0  0  0  0  0  0  0  0
  -23.4800  -32.2570   23.8810 O   0  0  0  0  0  0  0  0  0  0  0  0
  -22.7290  -29.5570   22.6560 C   0  0  0  0  0  0  0  0  0  0  0  0
  -21.4200  -29.3160   22.4770 N   0  0  0  0  0  0  0  0  0  0  0  0
  -23.4030  -28.9800   23.5140 O   0  0  0  0  0  0  0  0  0  0  0  0
  -20.9380  -29.8340   21.7570 H   0  0  0  0  0  0  0  0  0  0  0  0
  -18.0960  -27.9400   22.8070 C   0  0  0  0  0  0  0  0  0  0  0  0
  -20.6090  -28.3630   23.2340 C   0  0  0  0  0  3  0  0  0  0  0  0
  -20.8340  -26.9180   22.7300 C   0  0  0  0  0  2  0  0  0  0  0  0
  -19.8240  -26.4880   21.6610 C   0  0  0  0  0  2  0  0  0  0  0  0
  -18.3960  -26.5770   22.2070 C   0  0  0  0  0  2  0  0  0  0  0  0
  -19.1380  -28.7850   23.2740 C   0  0  0  0  0  0  0  0  0  0  0  0
  -18.8060  -30.0560   23.7900 C   0  0  0  0  0  3  0  0  0  0  0  0
  -17.4680  -30.4850   23.8460 C   0  0  0  0  0  3  0  0  0  0  0  0
  -16.4400  -29.6380   23.3960 C   0  0  0  0  0  3  0  0  0  0  0  0
  -16.7550  -28.3670   22.8830 C   0  0  0  0  0  3  0  0  0  0  0  0
  -25.8450  -32.6330   23.9700 C   0  0  0  0  0  3  0  0  0  0  0  0
  -26.3530  -31.8760   25.2580 C   0  0  1  0  0  0  0  0  0  0  0  0
  -25.2470  -31.6370   26.3140 C   0  0  0  0  0  1  0  0  0  0  0  0
  -26.9510  -30.5010   24.8810 C   0  0  0  0  0  1  0  0  0  0  0  0
  -27.4890  -32.6850   25.9280 C   0  0  0  0  0  1  0  0  0  0  0  0
  -25.5340  -34.0340   24.2770 N   0  0  0  0  0  0  0  0  0  0  0  0
  -25.8860  -35.0760   23.5110 C   0  0  0  0  0  0  0  0  0  0  0  0
  -26.5790  -34.9580   22.4960 O   0  0  0  0  0  0  0  0  0  0  0  0
  -24.9240  -34.2010   25.0640 H   0  0  0  0  0  0  0  0  0  0  0  0
  -24.1710  -36.8670   23.0940 C   0  0  0  0  0  1  0  0  0  0  0  0
  -25.3930  -36.4700   23.9390 C   0  0  0  0  0  3  0  0  0  0  0  0
  -27.5110  -37.3600   24.8060 C   0  0  0  0  0  1  0  0  0  0  0  0
  -26.4310  -37.5190   23.8360 N   0  0  0  0  0  0  0  0  0  0  0  0
  -26.0250  -38.4430   23.9610 H   0  0  0  0  0  0  0  0  0  0  0  0
  -30.8510  -22.9830   20.3920 C   0  0  0  0  0  2  0  0  0  0  0  0
  -31.4320  -21.6070   20.7910 C   0  0  0  0  0  2  0  0  0  0  0  0
  -30.4830  -20.4080   20.5960 C   0  0  0  0  0  2  0  0  0  0  0  0
  -31.0510  -19.1440   21.2710 C   0  0  0  0  0  2  0  0  0  0  0  0
  -30.2820  -17.8440   20.9730 C   0  0  0  0  0  2  0  0  0  0  0  0
  -30.8240  -16.6710   21.8150 C   0  0  0  0  0  2  0  0  0  0  0  0
  -30.8040  -14.5190   20.5580 C   0  0  0  0  0  0  0  0  0  0  0  0
  -30.4900  -12.4110   19.3180 C   0  0  0  0  0  2  0  0  0  0  0  0
  -29.5460  -12.6270   18.1210 C   0  0  0  0  0  2  0  0  0  0  0  0
  -28.0740  -12.4730   18.5470 C   0  0  0  0  0  2  0  0  0  0  0  0
  -27.7300  -13.3010   19.8140 C   0  0  0  0  0  3  0  0  0  0  0  0
  -28.7790  -13.0570   20.9210 C   0  0  0  0  0  2  0  0  0  0  0  0
  -30.1120  -13.3660   20.3690 N   0  0  0  0  0  0  0  0  0  0  0  0
  -31.8550  -14.7840   19.9660 O   0  0  0  0  0  0  0  0  0  0  0  0
  -30.2570  -15.3810   21.4240 N   0  0  0  0  0  0  0  0  0  0  0  0
  -29.3950  -15.0950   21.8660 H   0  0  0  0  0  0  0  0  0  0  0  0
  -25.3220  -13.8910   20.5130 C   0  0  0  0  0  0  0  0  0  0  0  0
  -24.2570  -13.1110   20.8760 C   0  0  0  0  0  0  0  0  0  0  0  0
  -24.7270  -11.7630   20.8420 C   0  0  0  0  0  0  0  0  0  0  0  0
  -26.3740  -13.0180   20.2850 N   0  0  0  0  0  0  0  0  0  0  0  0
  -26.0180  -11.7320   20.5380 N   0  0  0  0  0  0  0  0  0  0  0  0
  -24.0100  -10.4940   21.0250 C   0  0  0  0  0  0  0  0  0  0  0  0
  -24.4330   -9.5370   21.9760 C   0  0  0  0  0  3  0  0  0  0  0  0
  -23.7160   -8.3340   22.1460 C   0  0  0  0  0  3  0  0  0  0  0  0
  -22.5620   -8.0770   21.3660 C   0  0  0  0  0  0  0  0  0  0  0  0
  -22.1600   -9.0240   20.4070 C   0  0  0  0  0  3  0  0  0  0  0  0
  -22.8780  -10.2180   20.2340 C   0  0  0  0  0  3  0  0  0  0  0  0
  -21.8180   -6.9250   21.4450 O   0  0  0  0  0  0  0  0  0  0  0  0
  -21.7320   -6.2030   22.6090 C   0  0  0  0  0  0  0  0  0  0  0  0
  -21.2350   -6.7690   23.8020 C   0  0  0  0  0  3  0  0  0  0  0  0
  -21.0970   -5.9720   24.9570 C   0  0  0  0  0  3  0  0  0  0  0  0
  -21.4460   -4.6090   24.9160 C   0  0  0  0  0  0  0  0  0  0  0  0
  -21.9370   -4.0420   23.7270 C   0  0  0  0  0  3  0  0  0  0  0  0
  -22.0760   -4.8370   22.5760 C   0  0  0  0  0  0  0  0  0  0  0  0
  -22.5290   -4.2800   21.4260 F   0  0  0  0  0  0  0  0  0  0  0  0
  -21.3080   -3.8390   26.0210 F   0  0  0  0  0  0  0  0  0  0  0  0
  -22.8550  -13.5770   21.1440 C   0  0  0  0  0  0  0  0  0  0  0  0
  -22.1290  -12.8750   22.0080 N   0  0  0  0  0  0  0  0  0  0  0  0
  -22.4110  -14.6000   20.6250 O   0  0  0  0  0  0  0  0  0  0  0  0
  -22.5010  -12.0480   22.4510 H   0  0  0  0  0  0  0  0  0  0  0  0
  -21.1890  -13.1720   22.2290 H   0  0  0  0  0  0  0  0  0  0  0  0
  -25.4800  -15.2640   20.3370 N   0  0  0  0  0  0  0  0  0  0  0  0
  -24.7160  -15.9200   20.4470 H   0  0  0  0  0  0  0  0  0  0  0  0
  -26.3380  -15.7030   20.0250 H   0  0  0  0  0  0  0  0  0  0  0  0
  1  2  1  0
  1  8  1  0
  2  3  1  0
  3  4  1  0
  4  6  1  0
  4  5  1  0
  7  4  1  0
  9 10  1  0
  9  8  1  0
 11 10  1  0
 11 13  1  0
 12 23  2  0
 13 18  1  0
 14 22  1  0
 14 24  1  0
 15 21  1  0
 15 17  1  0
 16 22  1  0
 17 16  1  0
 18 17  2  0
 19 13  2  0
 20 19  1  0
 20 15  2  0
 21 14  1  0
 22 12  1  0
 24 26  2  0
 25 24  1  0
 27 25  1  0
 28 37  2  0
 28 33  1  0
 29 25  1  0
 29 33  1  0
 30 29  1  0
 31 32  1  0
 31 30  1  0
 32 28  1  0
 33 34  2  0
 34 35  1  0
 36 35  2  0
 37 36  1  0
 38 12  1  0
 38 43  1  0
 38 39  1  0
 39 42  1  1
 39 40  1  0
 41 39  1  0
 43 46  1  0
 44 48  1  0
 44 43  1  0
 45 44  2  0
 48 47  1  0
 50 48  1  0
 50 51  1  0
 50 49  1  0
 52  1  1  0
 52 53  1  0
 54 53  1  0
 54 55  1  0
 56 55  1  0
 56 57  1  0
 58 66  1  0
 59 64  1  0
 60 61  1  0
 60 59  1  0
 62 61  1  0
 62 71  1  0
 62 63  1  0
 64 58  1  0
 64 63  1  0
 65 58  2  0
 66 57  1  0
 66 67  1  0
 68 69  2  0
 69 88  1  0
 70 69  1  0
 70 73  1  0
 71 68  1  0
 71 72  1  0
 72 70  2  0
 73 74  1  0
 74 75  2  0
 76 79  1  0
 76 75  1  0
 77 76  2  0
 78 77  1  0
 78 73  2  0
 79 80  1  0
 80 81  1  0
 81 82  2  0
 83 82  1  0
 83 87  1  0
 84 83  2  0
 85 80  2  0
 85 84  1  0
 86 85  1  0
 88 89  1  0
 89 92  1  0
 89 91  1  0
 90 88  2  0
 93 94  1  0
 93 68  1  0
 95 93  1  0
M  ISO  4  10 101  11 101  58 100  66 100
M  END
>  <TORSDO>  (16) 
F 28

>  <SCORE>  (16) 
-11.546

>  <name>  (16) 
17

>  <ligand_id>  (16) 
17

>  <original_smiles>  (16) 
[H]c1c([H])c([H])c2c(c1[H])C([H])([H])C([H])([H])C([H])([H])C2([H])N([H])C(=O)C1([H])N(C(=O)C([H])(N([H])C(=O)C([H])(N([H])C([H])([H])[H])C([H])([H])[H])C(C([H])([H])[H])(C([H])([H])[H])C([H])([H])[H])C([H])([H])c2c([H])c(OC([H])([H])C([H])([H])C([H])([H])C([H])(C([H])([H])C([H])([H])C([H])([H])C([H])([H])C([H])([H])C([H])([H])N([H])C(=O)N3C([H])([H])C([H])([H])C([H])([H])C([H])(n4nc(-c5c([H])c([H])c(Oc6c([H])c([H])c(F)c([H])c6F)c([H])c5[H])c(C(=O)N([H])[H])c4N([H])[H])C3([H])[H])C([H])([H])C([H])([H])[N+]([H])([H])[H])c([H])c([H])c2C1([H])[H]

>  <smiles>  (16) 
[H]c1c([H])c([H])c2c(c1[H])C([H])([H])C([H])([H])C([H])([H])C2([H])N([H])C(=O)C1([H])N(C(=O)C([H])(N([H])C(=O)C([H])(N([H])C([H])([H])[H])C([H])([H])[H])C(C([H])([H])[H])(C([H])([H])[H])C([H])([H])[H])C([H])([H])c2c([H])c(OC([H])([H])C([H])([H])C([H])([H])C([H])(C([H])([H])C([H])([H])C([H])([H])C([H])([H])C([H])([H])C([H])([H])N([H])C(=O)N3C([H])([H])C([H])([H])C([H])([H])C([H])(n4nc(-c5c([H])c([H])c(Oc6c([H])c([H])c(F)c([H])c6F)c([H])c5[H])c(C(=O)N([H])[H])c4N([H])[H])C3([H])[H])C([H])([H])C([H])([H])[N+]([H])([H])[H])c([H])c([H])c2C1([H])[H]

$$$$
18:0:0
     RDKit          3D

 97104  0  0  1  0  0  0  0  0999 V2000
  -27.1030  -22.1080   19.0840 C   0  0  0  0  0  3  0  0  0  0  0  0
  -28.2290  -21.1810   18.8030 N   0  0  0  0  0  4  0  0  0  0  0  0
  -28.0160  -20.7390   17.9170 H   0  0  0  0  0  0  0  0  0  0  0  0
  -29.0880  -21.6960   18.6940 H   0  0  0  0  0  0  0  0  0  0  0  0
  -28.4020  -20.0920   19.7950 C   0  0  0  0  0  2  0  0  0  0  0  0
  -29.7120  -19.3120   19.5820 C   0  0  0  0  0  2  0  0  0  0  0  0
  -29.8430  -18.0910   20.5130 C   0  0  0  0  0  2  0  0  0  0  0  0
  -31.2690  -17.5180   20.5210 C   0  0  0  0  0  2  0  0  0  0  0  0
  -31.4660  -16.3090   21.4580 C   0  0  0  0  0  2  0  0  0  0  0  0
  -31.1820  -14.2020   20.1600 C   0  0  0  0  0  0  0  0  0  0  0  0
  -30.6940  -12.0890   18.9860 C   0  0  0  0  0  2  0  0  0  0  0  0
  -29.7210  -12.3250   17.8160 C   0  0  0  0  0  2  0  0  0  0  0  0
  -28.2610  -12.2580   18.3020 C   0  0  0  0  0  2  0  0  0  0  0  0
  -28.0090  -13.1340   19.5570 C   0  0  0  0  0  3  0  0  0  0  0  0
  -29.0860  -12.8740   20.6330 C   0  0  0  0  0  2  0  0  0  0  0  0
  -30.4110  -13.0930   20.0220 N   0  0  0  0  0  0  0  0  0  0  0  0
  -32.2270  -14.3810   19.5280 O   0  0  0  0  0  0  0  0  0  0  0  0
  -30.7390  -15.1110   21.0370 N   0  0  0  0  0  0  0  0  0  0  0  0
  -29.8720  -14.9020   21.5100 H   0  0  0  0  0  0  0  0  0  0  0  0
  -25.6780  -13.8690   20.3660 C   0  0  0  0  0  0  0  0  0  0  0  0
  -24.5810  -13.1530   20.7660 C   0  0  0  0  0  0  0  0  0  0  0  0
  -24.9610  -11.7780   20.6980 C   0  0  0  0  0  0  0  0  0  0  0  0
  -26.6600  -12.9330   20.0830 N   0  0  0  0  0  0  0  0  0  0  0  0
  -26.2320  -11.6690   20.3370 N   0  0  0  0  0  0  0  0  0  0  0  0
  -24.1710  -10.5560   20.8980 C   0  0  0  0  0  0  0  0  0  0  0  0
  -24.5460   -9.5810   21.8490 C   0  0  0  0  0  3  0  0  0  0  0  0
  -23.7590   -8.4250   22.0370 C   0  0  0  0  0  3  0  0  0  0  0  0
  -22.5830   -8.2340   21.2730 C   0  0  0  0  0  0  0  0  0  0  0  0
  -22.2260   -9.1960   20.3120 C   0  0  0  0  0  3  0  0  0  0  0  0
  -23.0130  -10.3450   20.1230 C   0  0  0  0  0  3  0  0  0  0  0  0
  -21.7730   -7.1290   21.3680 O   0  0  0  0  0  0  0  0  0  0  0  0
  -21.6270   -6.4420   22.5470 C   0  0  0  0  0  0  0  0  0  0  0  0
  -21.1450   -7.0660   23.7180 C   0  0  0  0  0  3  0  0  0  0  0  0
  -20.9460   -6.3070   24.8890 C   0  0  0  0  0  3  0  0  0  0  0  0
  -21.2180   -4.9260   24.8890 C   0  0  0  0  0  0  0  0  0  0  0  0
  -21.6930   -4.3020   23.7220 C   0  0  0  0  0  3  0  0  0  0  0  0
  -21.8940   -5.0580   22.5530 C   0  0  0  0  0  0  0  0  0  0  0  0
  -22.3320   -4.4480   21.4250 F   0  0  0  0  0  0  0  0  0  0  0  0
  -21.0190   -4.1950   26.0100 F   0  0  0  0  0  0  0  0  0  0  0  0
  -23.2250  -13.7050   21.1020 C   0  0  0  0  0  0  0  0  0  0  0  0
  -22.4960  -13.0400   21.9910 N   0  0  0  0  0  0  0  0  0  0  0  0
  -22.8250  -14.7610   20.6130 O   0  0  0  0  0  0  0  0  0  0  0  0
  -22.8330  -12.1850   22.4080 H   0  0  0  0  0  0  0  0  0  0  0  0
  -21.5880  -13.3910   22.2600 H   0  0  0  0  0  0  0  0  0  0  0  0
  -25.9160  -15.2300   20.2030 N   0  0  0  0  0  0  0  0  0  0  0  0
  -25.1950  -15.9280   20.3520 H   0  0  0  0  0  0  0  0  0  0  0  0
  -26.7850  -15.6220   19.8630 H   0  0  0  0  0  0  0  0  0  0  0  0
  -26.3830  -22.5760   17.7900 C   0  0  0  0  0  2  0  0  0  0  0  0
  -25.2980  -21.6100   17.2990 C   0  0  0  0  0  0  0  0  0  0  0  0
  -24.0920  -22.0990   17.0350 N   0  0  0  0  0  0  0  0  0  0  0  0
  -25.5520  -20.4170   17.1480 O   0  0  0  0  0  0  0  0  0  0  0  0
  -23.8930  -23.0820   17.1560 H   0  0  0  0  0  0  0  0  0  0  0  0
  -23.3530  -21.4890   16.7080 H   0  0  0  0  0  0  0  0  0  0  0  0
  -27.5370  -23.2920   19.9850 C   0  0  0  0  0  2  0  0  0  0  0  0
  -28.3590  -24.4060   19.3010 C   0  0  0  0  0  2  0  0  0  0  0  0
  -28.7130  -25.5430   20.2780 C   0  0  0  0  0  2  0  0  0  0  0  0
  -28.6630  -26.8290   19.6610 O   0  0  0  0  0  0  0  0  0  0  0  0
  -24.6290  -31.6040   23.0300 C   0  0  0  0  0  0  0  0  0  0  0  0
  -27.4410  -27.4630   19.7140 C   0  0  0  0  0  0  0  0  0  0  0  0
  -23.4580  -30.1850   21.3770 C   0  0  0  0  0  3  0  0  0  0  0  0
  -24.9550  -28.7930   19.8570 C   0  0  0  0  0  0  0  0  0  0  0  0
  -25.9470  -30.7150   21.1130 C   0  0  0  0  0  2  0  0  0  0  0  0
  -26.0960  -29.3770   20.4210 C   0  0  0  0  0  0  0  0  0  0  0  0
  -27.3440  -28.7220   20.3410 C   0  0  0  0  0  3  0  0  0  0  0  0
  -26.2810  -26.8820   19.1530 C   0  0  0  0  0  3  0  0  0  0  0  0
  -25.0410  -27.5420   19.2210 C   0  0  0  0  0  3  0  0  0  0  0  0
  -23.6620  -29.5670   19.9700 C   0  0  0  0  0  2  0  0  0  0  0  0
  -24.6970  -30.8490   21.8990 N   0  0  0  0  0  0  0  0  0  0  0  0
  -23.5510  -31.7900   23.6120 O   0  0  0  0  0  0  0  0  0  0  0  0
  -22.9040  -29.0940   22.3190 C   0  0  0  0  0  0  0  0  0  0  0  0
  -21.6050  -28.7850   22.1750 N   0  0  0  0  0  0  0  0  0  0  0  0
  -23.6390  -28.5290   23.1350 O   0  0  0  0  0  0  0  0  0  0  0  0
  -21.0710  -29.2960   21.4860 H   0  0  0  0  0  0  0  0  0  0  0  0
  -18.3760  -27.2120   22.5660 C   0  0  0  0  0  0  0  0  0  0  0  0
  -20.8760  -27.7640   22.9260 C   0  0  0  0  0  3  0  0  0  0  0  0
  -21.1630  -26.3510   22.3660 C   0  0  0  0  0  2  0  0  0  0  0  0
  -20.1420  -25.8980   21.3180 C   0  0  0  0  0  2  0  0  0  0  0  0
  -18.7310  -25.8880   21.9110 C   0  0  0  0  0  2  0  0  0  0  0  0
  -19.3830  -28.1000   23.0280 C   0  0  0  0  0  0  0  0  0  0  0  0
  -19.0000  -29.3330   23.5970 C   0  0  0  0  0  3  0  0  0  0  0  0
  -17.6420  -29.6840   23.7100 C   0  0  0  0  0  3  0  0  0  0  0  0
  -16.6480  -28.7950   23.2660 C   0  0  0  0  0  3  0  0  0  0  0  0
  -17.0160  -27.5610   22.7000 C   0  0  0  0  0  3  0  0  0  0  0  0
  -25.8940  -32.2900   23.6330 C   0  0  0  0  0  3  0  0  0  0  0  0
  -25.5090  -33.6480   24.0380 N   0  0  0  0  0  0  0  0  0  0  0  0
  -25.7560  -34.7530   23.3200 C   0  0  0  0  0  0  0  0  0  0  0  0
  -26.4040  -34.7400   22.2710 O   0  0  0  0  0  0  0  0  0  0  0  0
  -24.9250  -33.7280   24.8570 H   0  0  0  0  0  0  0  0  0  0  0  0
  -23.9070  -36.4420   23.0960 C   0  0  0  0  0  1  0  0  0  0  0  0
  -25.1940  -36.0840   23.8550 C   0  0  0  0  0  3  0  0  0  0  0  0
  -27.2890  -37.0690   24.6740 C   0  0  0  0  0  1  0  0  0  0  0  0
  -26.1540  -37.2050   23.7650 N   0  0  0  0  0  0  0  0  0  0  0  0
  -25.6940  -38.0900   23.9620 H   0  0  0  0  0  0  0  0  0  0  0  0
  -26.5140  -31.4980   24.8500 C   0  0  1  0  0  0  0  0  0  0  0  0
  -25.4850  -31.1380   25.9470 C   0  0  0  0  0  1  0  0  0  0  0  0
  -27.1680  -30.1830   24.3680 C   0  0  0  0  0  1  0  0  0  0  0  0
  -27.6370  -32.3380   25.5030 C   0  0  0  0  0  1  0  0  0  0  0  0
  1 48  1  0
  1 54  1  0
  2  1  1  0
  2  5  1  0
  3  2  1  0
  4  2  1  0
  6  5  1  0
  6  7  1  0
  7  8  1  0
  8  9  1  0
 10 18  1  0
 11 16  1  0
 12 13  1  0
 12 11  1  0
 14 13  1  0
 14 23  1  0
 14 15  1  0
 16 10  1  0
 16 15  1  0
 17 10  2  0
 18  9  1  0
 18 19  1  0
 20 21  2  0
 21 40  1  0
 22 21  1  0
 22 25  1  0
 23 24  1  0
 23 20  1  0
 24 22  2  0
 25 26  1  0
 26 27  2  0
 28 31  1  0
 28 27  1  0
 29 28  2  0
 30 29  1  0
 30 25  2  0
 31 32  1  0
 32 37  2  0
 32 33  1  0
 33 34  2  0
 34 35  1  0
 35 39  1  0
 36 35  2  0
 37 36  1  0
 38 37  1  0
 40 41  1  0
 41 44  1  0
 41 43  1  0
 42 40  2  0
 45 46  1  0
 45 20  1  0
 47 45  1  0
 49 48  1  0
 50 52  1  0
 50 49  1  0
 51 49  2  0
 53 50  1  0
 55 54  1  0
 55 56  1  0
 57 59  1  0
 57 56  1  0
 58 69  2  0
 59 64  1  0
 60 68  1  0
 60 70  1  0
 61 67  1  0
 61 63  1  0
 62 68  1  0
 63 62  1  0
 64 63  2  0
 65 66  1  0
 65 59  2  0
 66 61  2  0
 67 60  1  0
 68 58  1  0
 70 72  2  0
 71 70  1  0
 73 71  1  0
 74 83  2  0
 74 79  1  0
 75 71  1  0
 75 79  1  0
 76 75  1  0
 77 78  1  0
 77 76  1  0
 78 74  1  0
 79 80  2  0
 80 81  1  0
 82 81  2  0
 83 82  1  0
 84 58  1  0
 84 85  1  0
 84 94  1  0
 85 88  1  0
 86 90  1  0
 86 85  1  0
 87 86  2  0
 90 89  1  0
 92 90  1  0
 92 93  1  0
 92 91  1  0
 94 97  1  1
 94 95  1  0
 96 94  1  0
M  ISO  4  10 100  18 100  56 101  57 101
M  END
>  <TORSDO>  (17) 
F 27

>  <SCORE>  (17) 
-10.918

>  <name>  (17) 
18

>  <ligand_id>  (17) 
18

>  <original_smiles>  (17) 
[H]c1c([H])c([H])c2c(c1[H])C([H])([H])C([H])([H])C([H])([H])C2([H])N([H])C(=O)C1([H])N(C(=O)C([H])(N([H])C(=O)C([H])(N([H])C([H])([H])[H])C([H])([H])[H])C(C([H])([H])[H])(C([H])([H])[H])C([H])([H])[H])C([H])([H])c2c([H])c(OC([H])([H])C([H])([H])C([H])([H])C([H])(C([H])([H])C(=O)N([H])[H])[N+]([H])([H])C([H])([H])C([H])([H])C([H])([H])C([H])([H])C([H])([H])N([H])C(=O)N3C([H])([H])C([H])([H])C([H])([H])C([H])(n4nc(-c5c([H])c([H])c(Oc6c([H])c([H])c(F)c([H])c6F)c([H])c5[H])c(C(=O)N([H])[H])c4N([H])[H])C3([H])[H])c([H])c([H])c2C1([H])[H]

>  <smiles>  (17) 
[H]c1c([H])c([H])c2c(c1[H])C([H])([H])C([H])([H])C([H])([H])C2([H])N([H])C(=O)C1([H])N(C(=O)C([H])(N([H])C(=O)C([H])(N([H])C([H])([H])[H])C([H])([H])[H])C(C([H])([H])[H])(C([H])([H])[H])C([H])([H])[H])C([H])([H])c2c([H])c(OC([H])([H])C([H])([H])C([H])([H])C([H])(C([H])([H])C(=O)N([H])[H])[N+]([H])([H])C([H])([H])C([H])([H])C([H])([H])C([H])([H])C([H])([H])N([H])C(=O)N3C([H])([H])C([H])([H])C([H])([H])C([H])(n4nc(-c5c([H])c([H])c(Oc6c([H])c([H])c(F)c([H])c6F)c([H])c5[H])c(C(=O)N([H])[H])c4N([H])[H])C3([H])[H])c([H])c([H])c2C1([H])[H]

$$$$
20:0:0
     RDKit          3D

 93100  0  0  1  0  0  0  0  0999 V2000
  -28.6540  -21.9490   20.9030 C   0  0  0  0  0  3  0  0  0  0  0  0
  -29.1010  -23.3030   21.3760 N   0  0  0  0  0  4  0  0  0  0  0  0
  -30.0230  -23.2080   21.7750 H   0  0  0  0  0  0  0  0  0  0  0  0
  -28.4910  -23.5060   22.1530 H   0  0  0  0  0  0  0  0  0  0  0  0
  -29.0660  -24.5210   20.4940 C   0  0  0  0  0  2  0  0  0  0  0  0
  -29.1480  -25.8350   21.3330 C   0  0  0  0  0  2  0  0  0  0  0  0
  -29.0830  -27.0660   20.5850 O   0  0  0  0  0  0  0  0  0  0  0  0
  -24.7960  -32.0190   23.4820 C   0  0  0  0  0  0  0  0  0  0  0  0
  -27.8740  -27.7300   20.5800 C   0  0  0  0  0  0  0  0  0  0  0  0
  -23.7790  -30.5660   21.7550 C   0  0  0  0  0  3  0  0  0  0  0  0
  -25.4070  -29.1120   20.4320 C   0  0  0  0  0  0  0  0  0  0  0  0
  -26.2900  -31.0570   21.7300 C   0  0  0  0  0  2  0  0  0  0  0  0
  -26.4930  -29.6920   21.1000 C   0  0  0  0  0  0  0  0  0  0  0  0
  -27.7320  -29.0100   21.1690 C   0  0  0  0  0  3  0  0  0  0  0  0
  -26.7720  -27.1620   19.9090 C   0  0  0  0  0  3  0  0  0  0  0  0
  -25.5410  -27.8470   19.8330 C   0  0  0  0  0  3  0  0  0  0  0  0
  -24.1180  -29.9060   20.3920 C   0  0  0  0  0  2  0  0  0  0  0  0
  -24.9680  -31.2320   22.3820 N   0  0  0  0  0  0  0  0  0  0  0  0
  -23.6680  -32.2280   23.9500 O   0  0  0  0  0  0  0  0  0  0  0  0
  -23.1180  -29.5070   22.6670 C   0  0  0  0  0  0  0  0  0  0  0  0
  -21.8130  -29.2690   22.4640 N   0  0  0  0  0  0  0  0  0  0  0  0
  -23.7820  -28.9020   23.5130 O   0  0  0  0  0  0  0  0  0  0  0  0
  -21.3380  -29.8140   21.7580 H   0  0  0  0  0  0  0  0  0  0  0  0
  -18.4510  -27.9970   22.8310 C   0  0  0  0  0  0  0  0  0  0  0  0
  -20.9940  -28.2880   23.1770 C   0  0  0  0  0  3  0  0  0  0  0  0
  -21.1390  -26.8840   22.5450 C   0  0  0  0  0  2  0  0  0  0  0  0
  -20.0670  -26.5820   21.4910 C   0  0  0  0  0  2  0  0  0  0  0  0
  -18.6690  -26.6790   22.1060 C   0  0  0  0  0  2  0  0  0  0  0  0
  -19.5440  -28.7610   23.3190 C   0  0  0  0  0  0  0  0  0  0  0  0
  -19.2870  -29.9950   23.9530 C   0  0  0  0  0  3  0  0  0  0  0  0
  -17.9700  -30.4670   24.1050 C   0  0  0  0  0  3  0  0  0  0  0  0
  -16.8910  -29.6990   23.6320 C   0  0  0  0  0  3  0  0  0  0  0  0
  -17.1320  -28.4660   23.0020 C   0  0  0  0  0  3  0  0  0  0  0  0
  -26.0010  -32.7110   24.1900 C   0  0  0  0  0  3  0  0  0  0  0  0
  -26.4090  -32.0200   25.5490 C   0  0  1  0  0  0  0  0  0  0  0  0
  -25.2180  -31.7800   26.5030 C   0  0  0  0  0  1  0  0  0  0  0  0
  -27.0850  -30.6560   25.2840 C   0  0  0  0  0  1  0  0  0  0  0  0
  -27.4470  -32.8950   26.2920 C   0  0  0  0  0  1  0  0  0  0  0  0
  -25.6370  -34.1180   24.4110 N   0  0  0  0  0  0  0  0  0  0  0  0
  -26.0150  -35.1340   23.6240 C   0  0  0  0  0  0  0  0  0  0  0  0
  -26.7750  -34.9910   22.6610 O   0  0  0  0  0  0  0  0  0  0  0  0
  -24.9740  -34.3040   25.1480 H   0  0  0  0  0  0  0  0  0  0  0  0
  -24.2780  -36.8530   23.0270 C   0  0  0  0  0  1  0  0  0  0  0  0
  -25.4590  -36.5320   23.9550 C   0  0  0  0  0  3  0  0  0  0  0  0
  -27.4930  -37.5280   24.9030 C   0  0  0  0  0  1  0  0  0  0  0  0
  -26.4720  -37.6050   23.8620 N   0  0  0  0  0  0  0  0  0  0  0  0
  -26.0320  -38.5200   23.9180 H   0  0  0  0  0  0  0  0  0  0  0  0
  -27.6020  -21.9870   19.7560 C   0  0  0  0  0  2  0  0  0  0  0  0
  -26.7840  -20.7830   19.7170 N   0  0  0  0  0  0  0  0  0  0  0  0
  -26.0340  -20.9120   19.0440 H   0  0  0  0  0  0  0  0  0  0  0  0
  -26.3000  -20.6660   20.6010 H   0  0  0  0  0  0  0  0  0  0  0  0
  -29.8010  -20.9010   20.6800 C   0  0  0  0  0  2  0  0  0  0  0  0
  -29.4080  -19.4400   21.1000 C   0  0  0  0  0  2  0  0  0  0  0  0
  -30.3940  -18.2580   20.7380 C   0  0  0  0  0  2  0  0  0  0  0  0
  -30.0420  -16.7620   20.3540 C   0  0  0  0  0  2  0  0  0  0  0  0
  -31.4620  -14.7090   20.3370 C   0  0  0  0  0  0  0  0  0  0  0  0
  -31.0630  -12.4860   19.3380 C   0  0  0  0  0  2  0  0  0  0  0  0
  -30.1490  -12.6070   18.1030 C   0  0  0  0  0  2  0  0  0  0  0  0
  -28.6690  -12.5400   18.5250 C   0  0  0  0  0  2  0  0  0  0  0  0
  -28.3340  -13.4960   19.7000 C   0  0  0  0  0  3  0  0  0  0  0  0
  -29.3710  -13.3760   20.8400 C   0  0  0  0  0  2  0  0  0  0  0  0
  -30.7110  -13.5740   20.2650 N   0  0  0  0  0  0  0  0  0  0  0  0
  -32.5830  -14.7960   19.8380 O   0  0  0  0  0  0  0  0  0  0  0  0
  -30.9530  -15.7760   20.9810 N   0  0  0  0  0  0  0  0  0  0  0  0
  -31.7040  -16.2710   21.4400 H   0  0  0  0  0  0  0  0  0  0  0  0
  -25.9840  -14.2300   20.4540 C   0  0  0  0  0  0  0  0  0  0  0  0
  -24.8660  -13.5180   20.7960 C   0  0  0  0  0  0  0  0  0  0  0  0
  -25.2350  -12.1410   20.7050 C   0  0  0  0  0  0  0  0  0  0  0  0
  -26.9680  -13.2920   20.1800 N   0  0  0  0  0  0  0  0  0  0  0  0
  -26.5200  -12.0270   20.3910 N   0  0  0  0  0  0  0  0  0  0  0  0
  -24.4220  -10.9240   20.8440 C   0  0  0  0  0  0  0  0  0  0  0  0
  -24.7590   -9.9160   21.7750 C   0  0  0  0  0  3  0  0  0  0  0  0
  -23.9550   -8.7630   21.9060 C   0  0  0  0  0  3  0  0  0  0  0  0
  -22.7950   -8.6140   21.1080 C   0  0  0  0  0  0  0  0  0  0  0  0
  -22.4760   -9.6110   20.1680 C   0  0  0  0  0  3  0  0  0  0  0  0
  -23.2820  -10.7530   20.0350 C   0  0  0  0  0  3  0  0  0  0  0  0
  -21.9650   -7.5200   21.1490 O   0  0  0  0  0  0  0  0  0  0  0  0
  -21.7820   -6.7990   22.3010 C   0  0  0  0  0  0  0  0  0  0  0  0
  -21.2720   -7.3890   23.4780 C   0  0  0  0  0  3  0  0  0  0  0  0
  -21.0340   -6.5970   24.6170 C   0  0  0  0  0  3  0  0  0  0  0  0
  -21.2990   -5.2130   24.5800 C   0  0  0  0  0  0  0  0  0  0  0  0
  -21.8010   -4.6230   23.4090 C   0  0  0  0  0  3  0  0  0  0  0  0
  -22.0400   -5.4140   22.2700 C   0  0  0  0  0  0  0  0  0  0  0  0
  -22.5040   -4.8370   21.1370 F   0  0  0  0  0  0  0  0  0  0  0  0
  -21.0620   -4.4490   25.6710 F   0  0  0  0  0  0  0  0  0  0  0  0
  -23.5070  -14.0790   21.0930 C   0  0  0  0  0  0  0  0  0  0  0  0
  -22.7360  -13.4060   21.9390 N   0  0  0  0  0  0  0  0  0  0  0  0
  -23.1350  -15.1480   20.6080 O   0  0  0  0  0  0  0  0  0  0  0  0
  -23.0450  -12.5380   22.3510 H   0  0  0  0  0  0  0  0  0  0  0  0
  -21.8230  -13.7660   22.1770 H   0  0  0  0  0  0  0  0  0  0  0  0
  -26.2390  -15.5920   20.3310 N   0  0  0  0  0  0  0  0  0  0  0  0
  -25.5140  -16.2890   20.4610 H   0  0  0  0  0  0  0  0  0  0  0  0
  -27.1130  -15.9830   20.0040 H   0  0  0  0  0  0  0  0  0  0  0  0
  1 48  1  0
  1  2  1  0
  2  3  1  0
  2  4  1  0
  5  6  1  0
  5  2  1  0
  7  6  1  0
  8 19  2  0
  9  7  1  0
  9 14  1  0
 10 18  1  0
 10 20  1  0
 11 13  1  0
 12 18  1  0
 13 14  2  0
 13 12  1  0
 15  9  2  0
 16 15  1  0
 16 11  2  0
 17 11  1  0
 17 10  1  0
 18  8  1  0
 20 22  2  0
 21 20  1  0
 23 21  1  0
 24 33  2  0
 24 29  1  0
 25 21  1  0
 25 29  1  0
 26 25  1  0
 27 28  1  0
 27 26  1  0
 28 24  1  0
 29 30  2  0
 30 31  1  0
 32 31  2  0
 33 32  1  0
 34  8  1  0
 34 39  1  0
 34 35  1  0
 35 38  1  1
 35 36  1  0
 37 35  1  0
 39 42  1  0
 40 44  1  0
 40 39  1  0
 41 40  2  0
 44 43  1  0
 46 47  1  0
 46 44  1  0
 46 45  1  0
 49 48  1  0
 49 51  1  0
 50 49  1  0
 52  1  1  0
 52 53  1  0
 54 53  1  0
 55 54  1  0
 55 64  1  0
 56 64  1  0
 57 62  1  0
 58 59  1  0
 58 57  1  0
 60 59  1  0
 60 69  1  0
 60 61  1  0
 62 56  1  0
 62 61  1  0
 63 56  2  0
 64 65  1  0
 66 67  2  0
 67 86  1  0
 68 67  1  0
 68 71  1  0
 69 70  1  0
 69 66  1  0
 70 68  2  0
 71 72  1  0
 72 73  2  0
 74 77  1  0
 74 73  1  0
 75 74  2  0
 76 75  1  0
 76 71  2  0
 77 78  1  0
 78 79  1  0
 79 80  2  0
 81 80  1  0
 81 85  1  0
 82 81  2  0
 83 78  2  0
 83 82  1  0
 84 83  1  0
 86 87  1  0
 87 90  1  0
 87 89  1  0
 88 86  2  0
 91 66  1  0
 91 92  1  0
 93 91  1  0
M  ISO  4   6 101   7 101  56 100  64 100
M  END
>  <TORSDO>  (18) 
F 25

>  <SCORE>  (18) 
-11.048

>  <name>  (18) 
20

>  <ligand_id>  (18) 
20

>  <original_smiles>  (18) 
[H]c1c([H])c([H])c2c(c1[H])C([H])([H])C([H])([H])C([H])([H])C2([H])N([H])C(=O)C1([H])N(C(=O)C([H])(N([H])C(=O)C([H])(N([H])C([H])([H])[H])C([H])([H])[H])C(C([H])([H])[H])(C([H])([H])[H])C([H])([H])[H])C([H])([H])c2c([H])c(OC([H])([H])C([H])([H])[N+]([H])([H])C([H])(C([H])([H])N([H])[H])C([H])([H])C([H])([H])C([H])([H])C([H])([H])N([H])C(=O)N3C([H])([H])C([H])([H])C([H])([H])C([H])(n4nc(-c5c([H])c([H])c(Oc6c([H])c([H])c(F)c([H])c6F)c([H])c5[H])c(C(=O)N([H])[H])c4N([H])[H])C3([H])[H])c([H])c([H])c2C1([H])[H]

>  <smiles>  (18) 
[H]c1c([H])c([H])c2c(c1[H])C([H])([H])C([H])([H])C([H])([H])C2([H])N([H])C(=O)C1([H])N(C(=O)C([H])(N([H])C(=O)C([H])(N([H])C([H])([H])[H])C([H])([H])[H])C(C([H])([H])[H])(C([H])([H])[H])C([H])([H])[H])C([H])([H])c2c([H])c(OC([H])([H])C([H])([H])[N+]([H])([H])C([H])(C([H])([H])N([H])[H])C([H])([H])C([H])([H])C([H])([H])C([H])([H])N([H])C(=O)N3C([H])([H])C([H])([H])C([H])([H])C([H])(n4nc(-c5c([H])c([H])c(Oc6c([H])c([H])c(F)c([H])c6F)c([H])c5[H])c(C(=O)N([H])[H])c4N([H])[H])C3([H])[H])c([H])c([H])c2C1([H])[H]

$$$$
21:0:0
     RDKit          3D

109118  0  0  1  0  0  0  0  0999 V2000
  -31.7430  -24.1850   18.2460 C   0  0  0  0  0  2  0  0  0  0  0  0
  -31.7430  -22.9150   17.3780 C   0  0  0  0  0  2  0  0  0  0  0  0
  -29.6640  -24.1230   17.0970 C   0  0  0  0  0  2  0  0  0  0  0  0
  -30.7140  -25.1130   17.6020 C   0  0  0  0  0  3  0  0  0  0  0  0
  -30.4360  -22.9050   16.5230 C   0  0  2  0  0  0  0  0  0  0  0  0
  -30.2550  -20.3370   16.5150 C   0  0  0  0  0  3  0  0  0  0  0  0
  -28.2470  -21.6240   16.9770 C   0  0  0  0  0  3  0  0  0  0  0  0
  -29.5320  -19.1440   16.6910 C   0  0  0  0  0  3  0  0  0  0  0  0
  -27.5320  -20.4310   17.1930 C   0  0  0  0  0  3  0  0  0  0  0  0
  -29.6300  -21.5970   16.6770 C   0  0  0  0  0  0  0  0  0  0  0  0
  -28.1730  -19.1850   17.0740 C   0  0  0  0  0  0  0  0  0  0  0  0
  -26.8810  -17.2130   16.1570 C   0  0  0  0  0  1  0  0  0  0  0  0
  -27.4120  -17.9060   17.4220 C   0  0  0  0  0  3  0  0  0  0  0  0
  -28.2450  -16.9940   18.2390 N   0  0  0  0  0  4  0  0  0  0  0  0
  -27.6760  -16.2070   18.5120 H   0  0  0  0  0  0  0  0  0  0  0  0
  -28.9820  -16.6480   17.6480 H   0  0  0  0  0  0  0  0  0  0  0  0
  -28.8530  -17.5780   19.4600 C   0  0  0  0  0  2  0  0  0  0  0  0
  -30.2740  -17.0300   19.6900 C   0  0  0  0  0  2  0  0  0  0  0  0
  -30.8290  -17.3070   21.1060 C   0  0  0  0  0  2  0  0  0  0  0  0
  -32.0180  -16.4050   21.5020 C   0  0  0  0  0  2  0  0  0  0  0  0
  -32.1150  -14.1460   20.4630 C   0  0  0  0  0  0  0  0  0  0  0  0
  -31.3960  -12.3940   18.8910 C   0  0  0  0  0  2  0  0  0  0  0  0
  -30.4880  -13.0220   17.8150 C   0  0  0  0  0  2  0  0  0  0  0  0
  -29.0200  -13.0760   18.2920 C   0  0  0  0  0  2  0  0  0  0  0  0
  -28.8700  -13.6680   19.7170 C   0  0  0  0  0  3  0  0  0  0  0  0
  -29.8800  -13.0070   20.6840 C   0  0  0  0  0  2  0  0  0  0  0  0
  -31.2370  -13.1680   20.1270 N   0  0  0  0  0  0  0  0  0  0  0  0
  -33.1920  -14.3350   19.8880 O   0  0  0  0  0  0  0  0  0  0  0  0
  -31.6420  -15.0000   21.3760 N   0  0  0  0  0  0  0  0  0  0  0  0
  -30.7890  -14.7170   21.8360 H   0  0  0  0  0  0  0  0  0  0  0  0
  -26.5840  -14.5570   20.5040 C   0  0  0  0  0  0  0  0  0  0  0  0
  -25.4260  -13.9150   20.8500 C   0  0  0  0  0  0  0  0  0  0  0  0
  -25.7030  -12.5180   20.7370 C   0  0  0  0  0  0  0  0  0  0  0  0
  -27.4990  -13.5590   20.2070 N   0  0  0  0  0  0  0  0  0  0  0  0
  -26.9710  -12.3250   20.3970 N   0  0  0  0  0  0  0  0  0  0  0  0
  -24.8190  -11.3550   20.8730 C   0  0  0  0  0  0  0  0  0  0  0  0
  -25.1200  -10.3030   21.7650 C   0  0  0  0  0  3  0  0  0  0  0  0
  -24.2450   -9.2030   21.8950 C   0  0  0  0  0  3  0  0  0  0  0  0
  -23.0550   -9.1500   21.1320 C   0  0  0  0  0  0  0  0  0  0  0  0
  -22.7710  -10.1920   20.2300 C   0  0  0  0  0  3  0  0  0  0  0  0
  -23.6460  -11.2830   20.0980 C   0  0  0  0  0  3  0  0  0  0  0  0
  -22.1580   -8.1100   21.1730 O   0  0  0  0  0  0  0  0  0  0  0  0
  -21.9610   -7.3740   22.3130 C   0  0  0  0  0  0  0  0  0  0  0  0
  -21.5660   -7.9740   23.5290 C   0  0  0  0  0  3  0  0  0  0  0  0
  -21.3110   -7.1740   24.6600 C   0  0  0  0  0  3  0  0  0  0  0  0
  -21.4380   -5.7740   24.5750 C   0  0  0  0  0  0  0  0  0  0  0  0
  -21.8290   -5.1740   23.3650 C   0  0  0  0  0  3  0  0  0  0  0  0
  -22.0870   -5.9720   22.2360 C   0  0  0  0  0  0  0  0  0  0  0  0
  -22.4410   -5.3900   21.0670 F   0  0  0  0  0  0  0  0  0  0  0  0
  -21.1830   -5.0020   25.6570 F   0  0  0  0  0  0  0  0  0  0  0  0
  -24.1090  -14.5570   21.1790 C   0  0  0  0  0  0  0  0  0  0  0  0
  -23.3220  -13.9280   22.0450 N   0  0  0  0  0  0  0  0  0  0  0  0
  -23.7950  -15.6490   20.7090 O   0  0  0  0  0  0  0  0  0  0  0  0
  -23.5900  -13.0440   22.4480 H   0  0  0  0  0  0  0  0  0  0  0  0
  -22.4390  -14.3410   22.3130 H   0  0  0  0  0  0  0  0  0  0  0  0
  -26.9280  -15.9020   20.4050 N   0  0  0  0  0  0  0  0  0  0  0  0
  -26.2680  -16.6330   20.6390 H   0  0  0  0  0  0  0  0  0  0  0  0
  -27.8730  -16.2360   20.2910 H   0  0  0  0  0  0  0  0  0  0  0  0
  -30.1300  -26.1220   18.5130 N   0  0  0  0  0  4  0  0  0  0  0  0
  -29.5440  -25.6680   19.1980 H   0  0  0  0  0  0  0  0  0  0  0  0
  -29.5270  -26.7190   17.9660 H   0  0  0  0  0  0  0  0  0  0  0  0
  -31.0890  -26.9830   19.2430 C   0  0  0  0  0  2  0  0  0  0  0  0
  -30.3390  -28.0380   20.0720 C   0  0  0  0  0  2  0  0  0  0  0  0
  -29.2240  -27.3790   20.6640 O   0  0  0  0  0  0  0  0  0  0  0  0
  -24.9350  -32.1700   23.7550 C   0  0  0  0  0  0  0  0  0  0  0  0
  -28.0390  -28.0720   20.6650 C   0  0  0  0  0  0  0  0  0  0  0  0
  -23.9180  -30.7770   21.9800 C   0  0  0  0  0  3  0  0  0  0  0  0
  -25.5500  -29.3940   20.5930 C   0  0  0  0  0  0  0  0  0  0  0  0
  -26.4180  -31.3060   21.9530 C   0  0  0  0  0  2  0  0  0  0  0  0
  -26.6320  -29.9740   21.2680 C   0  0  0  0  0  0  0  0  0  0  0  0
  -27.8820  -29.3220   21.3040 C   0  0  0  0  0  3  0  0  0  0  0  0
  -26.9360  -27.4850   20.0120 C   0  0  0  0  0  3  0  0  0  0  0  0
  -25.6940  -28.1450   19.9640 C   0  0  0  0  0  3  0  0  0  0  0  0
  -24.2520  -30.1690   20.5910 C   0  0  0  0  0  2  0  0  0  0  0  0
  -25.1050  -31.4290   22.6240 N   0  0  0  0  0  0  0  0  0  0  0  0
  -23.8090  -32.3530   24.2380 O   0  0  0  0  0  0  0  0  0  0  0  0
  -23.2740  -29.6780   22.8540 C   0  0  0  0  0  0  0  0  0  0  0  0
  -22.0000  -29.3600   22.5730 N   0  0  0  0  0  0  0  0  0  0  0  0
  -23.9220  -29.1130   23.7410 O   0  0  0  0  0  0  0  0  0  0  0  0
  -21.5360  -29.8740   21.8360 H   0  0  0  0  0  0  0  0  0  0  0  0
  -18.7630  -27.7570   22.6040 C   0  0  0  0  0  0  0  0  0  0  0  0
  -21.2030  -28.3290   23.2360 C   0  0  0  0  0  3  0  0  0  0  0  0
  -21.5630  -26.9210   22.7080 C   0  0  0  0  0  2  0  0  0  0  0  0
  -20.6670  -26.4630   21.5520 C   0  0  0  0  0  2  0  0  0  0  0  0
  -19.1990  -26.4380   21.9880 C   0  0  0  0  0  2  0  0  0  0  0  0
  -19.7060  -28.6520   23.1760 C   0  0  0  0  0  0  0  0  0  0  0  0
  -19.2530  -29.8800   23.7030 C   0  0  0  0  0  3  0  0  0  0  0  0
  -17.8870  -30.2190   23.6670 C   0  0  0  0  0  3  0  0  0  0  0  0
  -16.9550  -29.3220   23.1150 C   0  0  0  0  0  3  0  0  0  0  0  0
  -17.3940  -28.0940   22.5900 C   0  0  0  0  0  3  0  0  0  0  0  0
  -26.1410  -32.8440   24.4820 C   0  0  0  0  0  3  0  0  0  0  0  0
  -25.7360  -34.2100   24.8390 N   0  0  0  0  0  0  0  0  0  0  0  0
  -26.0570  -35.3040   24.1370 C   0  0  0  0  0  0  0  0  0  0  0  0
  -26.7960  -35.2750   23.1480 O   0  0  0  0  0  0  0  0  0  0  0  0
  -25.0860  -34.3030   25.6040 H   0  0  0  0  0  0  0  0  0  0  0  0
  -24.2570  -37.0120   23.7280 C   0  0  0  0  0  1  0  0  0  0  0  0
  -25.4650  -36.6480   24.6050 C   0  0  0  0  0  3  0  0  0  0  0  0
  -27.4920  -37.6140   25.6000 C   0  0  0  0  0  1  0  0  0  0  0  0
  -26.4420  -37.7580   24.5950 N   0  0  0  0  0  0  0  0  0  0  0  0
  -25.9770  -38.6490   24.7470 H   0  0  0  0  0  0  0  0  0  0  0  0
  -26.6210  -32.0500   25.7580 C   0  0  1  0  0  0  0  0  0  0  0  0
  -25.4750  -31.6790   26.7260 C   0  0  0  0  0  1  0  0  0  0  0  0
  -27.3380  -30.7420   25.3480 C   0  0  0  0  0  1  0  0  0  0  0  0
  -27.6540  -32.8940   26.5440 C   0  0  0  0  0  1  0  0  0  0  0  0
  -30.7280  -23.1750   15.0170 C   0  0  0  0  0  2  0  0  0  0  0  0
  -31.4020  -22.0550   14.3380 N   0  0  0  0  0  4  0  0  0  0  0  0
  -32.3020  -21.8710   14.7410 H   0  0  0  0  0  0  0  0  0  0  0  0
  -31.5270  -22.2710   13.3660 H   0  0  0  0  0  0  0  0  0  0  0  0
  -30.8330  -21.2280   14.4090 H   0  0  0  0  0  0  0  0  0  0  0  0
  2  1  1  0
  3  4  1  0
  4  1  1  0
  4 59  1  0
  5105  1  6
  5 10  1  0
  5  3  1  0
  5  2  1  0
  6 10  2  0
  6  8  1  0
  7  9  2  0
  8 11  2  0
 10  7  1  0
 11  9  1  0
 11 13  1  0
 13 12  1  0
 13 14  1  0
 14 15  1  0
 14 17  1  0
 16 14  1  0
 17 18  1  0
 18 19  1  0
 19 20  1  0
 21 29  1  0
 22 27  1  0
 23 24  1  0
 23 22  1  0
 25 24  1  0
 25 34  1  0
 25 26  1  0
 27 21  1  0
 27 26  1  0
 28 21  2  0
 29 20  1  0
 29 30  1  0
 31 32  2  0
 32 51  1  0
 33 32  1  0
 33 36  1  0
 34 35  1  0
 34 31  1  0
 35 33  2  0
 36 37  1  0
 37 38  2  0
 39 42  1  0
 39 38  1  0
 40 39  2  0
 41 40  1  0
 41 36  2  0
 42 43  1  0
 43 44  1  0
 44 45  2  0
 46 45  1  0
 46 50  1  0
 47 46  2  0
 48 43  2  0
 48 47  1  0
 49 48  1  0
 51 52  1  0
 52 55  1  0
 52 54  1  0
 53 51  2  0
 56 31  1  0
 56 57  1  0
 58 56  1  0
 59 60  1  0
 59 62  1  0
 61 59  1  0
 62 63  1  0
 63 64  1  0
 64 66  1  0
 65 76  2  0
 66 71  1  0
 67 75  1  0
 67 77  1  0
 68 70  1  0
 69 75  1  0
 70 71  2  0
 70 69  1  0
 72 66  2  0
 73 72  1  0
 73 68  2  0
 74 68  1  0
 74 67  1  0
 75 65  1  0
 77 79  2  0
 78 77  1  0
 80 78  1  0
 81 86  1  0
 82 78  1  0
 83 82  1  0
 84 85  1  0
 84 83  1  0
 85 81  1  0
 86 82  1  0
 86 87  2  0
 88 87  1  0
 89 88  2  0
 90 81  2  0
 90 89  1  0
 91 65  1  0
 91 92  1  0
 91101  1  0
 92 95  1  0
 93 97  1  0
 93 92  1  0
 94 93  2  0
 97 96  1  0
 99 97  1  0
 99100  1  0
 99 98  1  0
101104  1  1
101102  1  0
103101  1  0
106109  1  0
106107  1  0
106105  1  0
108106  1  0
M  ISO  4  21 100  29 100  63 101  64 101
M  END
>  <TORSDO>  (19) 
F 28

>  <SCORE>  (19) 
-3.566

>  <name>  (19) 
21

>  <ligand_id>  (19) 
21

>  <original_smiles>  (19) 
[H]c1c([H])c([H])c2c(c1[H])C([H])([H])C([H])([H])C([H])([H])C2([H])N([H])C(=O)C1([H])N(C(=O)C([H])(N([H])C(=O)C([H])(N([H])C([H])([H])[H])C([H])([H])[H])C(C([H])([H])[H])(C([H])([H])[H])C([H])([H])[H])C([H])([H])c2c([H])c(OC([H])([H])C([H])([H])[N+]([H])([H])C3([H])C([H])([H])C([H])([H])C(c4c([H])c([H])c(C([H])(C([H])([H])[H])[N+]([H])([H])C([H])([H])C([H])([H])C([H])([H])C([H])([H])N([H])C(=O)N5C([H])([H])C([H])([H])C([H])([H])C([H])(n6nc(-c7c([H])c([H])c(Oc8c([H])c([H])c(F)c([H])c8F)c([H])c7[H])c(C(=O)N([H])[H])c6N([H])[H])C5([H])[H])c([H])c4[H])(C([H])([H])[N+]([H])([H])[H])C3([H])[H])c([H])c([H])c2C1([H])[H]

>  <smiles>  (19) 
[H]c1c([H])c([H])c2c(c1[H])C([H])([H])C([H])([H])C([H])([H])C2([H])N([H])C(=O)C1([H])N(C(=O)C([H])(N([H])C(=O)C([H])(N([H])C([H])([H])[H])C([H])([H])[H])C(C([H])([H])[H])(C([H])([H])[H])C([H])([H])[H])C([H])([H])c2c([H])c(OC([H])([H])C([H])([H])[N+]([H])([H])C3([H])C([H])([H])C([H])([H])C(c4c([H])c([H])c(C([H])(C([H])([H])[H])[N+]([H])([H])C([H])([H])C([H])([H])C([H])([H])C([H])([H])N([H])C(=O)N5C([H])([H])C([H])([H])C([H])([H])C([H])(n6nc(-c7c([H])c([H])c(Oc8c([H])c([H])c(F)c([H])c8F)c([H])c7[H])c(C(=O)N([H])[H])c6N([H])[H])C5([H])[H])c([H])c4[H])(C([H])([H])[N+]([H])([H])[H])C3([H])[H])c([H])c([H])c2C1([H])[H]

$$$$
22:0:0
     RDKit          3D

 99109  0  0  1  0  0  0  0  0999 V2000
  -30.4600  -22.4940   10.4780 C   0  0  0  0  0  3  0  0  0  0  0  0
  -30.7530  -23.0640    9.2240 C   0  0  0  0  0  3  0  0  0  0  0  0
  -29.9400  -24.7130   11.3130 C   0  0  0  0  0  3  0  0  0  0  0  0
  -30.1100  -23.3370   11.5560 C   0  0  0  0  0  0  0  0  0  0  0  0
  -30.6870  -24.4690    8.9990 C   0  0  0  0  0  0  0  0  0  0  0  0
  -30.2170  -25.3110   10.0590 C   0  0  0  0  0  0  0  0  0  0  0  0
  -30.0180  -26.8340    9.9490 C   0  0  1  0  0  0  0  0  0  0  0  0
  -30.5910  -27.4770   10.9700 F   0  0  0  0  0  0  0  0  0  0  0  0
  -30.5670  -27.3090    8.8340 F   0  0  0  0  0  0  0  0  0  0  0  0
  -28.7240  -27.1590    9.9760 F   0  0  0  0  0  0  0  0  0  0  0  0
  -31.2250  -24.9770    7.6430 C   0  0  0  0  0  2  0  0  0  0  0  0
  -32.5380  -24.3770    7.1610 C   0  0  0  0  0  3  0  0  0  0  0  0
  -33.8100  -24.8290    7.3030 C   0  0  0  0  0  0  0  0  0  0  0  0
  -34.9330  -24.0440    6.6400 C   0  0  0  0  0  1  0  0  0  0  0  0
  -34.2660  -26.0970    8.0800 C   0  0  0  0  0  2  0  0  0  0  0  0
  -33.1020  -27.0990    8.3250 C   0  0  0  0  0  2  0  0  0  0  0  0
  -33.1310  -28.6150    7.8560 C   0  0  0  0  0  2  0  0  0  0  0  0
  -34.3480  -29.6250    8.2690 C   0  0  1  0  0  0  0  0  0  0  0  0
  -33.6150  -30.2740   11.3100 C   0  0  0  0  0  0  0  0  0  0  0  0
  -35.1750  -29.1930   13.0900 C   0  0  0  0  0  2  0  0  0  0  0  0
  -36.7020  -29.6030   12.8650 C   0  0  0  0  0  2  0  0  0  0  0  0
  -37.3010  -29.4800   11.4330 C   0  0  0  0  0  2  0  0  0  0  0  0
  -36.1500  -29.8640   10.6130 C   0  0  0  0  0  3  0  0  0  0  0  0
  -35.1250  -28.6870   10.9150 C   0  0  0  0  0  2  0  0  0  0  0  0
  -34.3630  -29.2890   11.8540 N   0  0  0  0  0  0  0  0  0  0  0  0
  -33.1720  -31.0090   12.2420 O   0  0  0  0  0  0  0  0  0  0  0  0
  -33.6260  -30.3290    9.7590 N   0  0  0  0  0  0  0  0  0  0  0  0
  -33.0310  -31.1030    9.4920 H   0  0  0  0  0  0  0  0  0  0  0  0
  -35.2070  -30.1530    7.7710 C   0  0  2  0  0  0  0  0  0  0  0  0
  -35.9720  -29.3170    6.4650 C   0  0  0  0  0  3  0  0  0  0  0  0
  -37.4680  -28.4970    7.0540 C   0  0  0  0  0  3  0  0  0  0  0  0
  -36.2960  -29.8830    9.2960 N   0  0  0  0  0  0  0  0  0  0  0  0
  -37.6790  -28.8070    8.7420 N   0  0  0  0  0  2  0  0  0  0  0  0
  -38.8020  -28.5140    6.4040 C   0  0  0  0  0  0  0  0  0  0  0  0
  -38.8350  -28.1800    5.0470 C   0  0  0  0  0  3  0  0  0  0  0  0
  -40.0400  -28.1990    4.3270 C   0  0  0  0  0  3  0  0  0  0  0  0
  -41.2570  -28.5290    4.9620 C   0  0  0  0  0  0  0  0  0  0  0  0
  -41.2570  -28.7390    6.3580 C   0  0  0  0  0  3  0  0  0  0  0  0
  -40.0380  -28.7200    7.0810 C   0  0  0  0  0  3  0  0  0  0  0  0
  -42.4470  -28.6250    4.2790 O   0  0  0  0  0  0  0  0  0  0  0  0
  -43.0170  -29.8580    4.0380 C   0  0  0  0  0  0  0  0  0  0  0  0
  -43.7360  -30.5620    5.0340 C   0  0  0  0  0  3  0  0  0  0  0  0
  -44.3430  -31.7920    4.7320 C   0  0  0  0  0  3  0  0  0  0  0  0
  -44.2370  -32.3380    3.4360 C   0  0  0  0  0  0  0  0  0  0  0  0
  -43.5250  -31.6450    2.4460 C   0  0  0  0  0  3  0  0  0  0  0  0
  -42.9190  -30.4070    2.7460 C   0  0  0  0  0  0  0  0  0  0  0  0
  -42.2460  -29.7450    1.7760 F   0  0  0  0  0  0  0  0  0  0  0  0
  -44.8290  -33.5190    3.1480 F   0  0  0  0  0  0  0  0  0  0  0  0
  -35.8940  -29.7940    5.0550 C   0  0  0  0  0  0  0  0  0  0  0  0
  -36.5300  -29.0800    4.1350 N   0  0  0  0  0  0  0  0  0  0  0  0
  -35.2890  -30.8180    4.7730 O   0  0  0  0  0  0  0  0  0  0  0  0
  -37.0140  -28.2230    4.3470 H   0  0  0  0  0  0  0  0  0  0  0  0
  -36.5300  -29.4120    3.1810 H   0  0  0  0  0  0  0  0  0  0  0  0
  -34.0180  -30.8080    7.8450 N   0  0  0  0  0  4  0  0  0  0  0  0
  -33.5710  -31.1120    8.7010 H   0  0  0  0  0  0  0  0  0  0  0  0
  -33.4810  -31.0660    7.0190 H   0  0  0  0  0  0  0  0  0  0  0  0
  -29.9080  -22.8530   12.9840 C   0  0  0  0  0  2  0  0  0  0  0  0
  -30.6560  -21.5790   13.4390 C   0  0  0  0  0  2  0  0  0  0  0  0
  -30.4150  -20.4610   12.5630 O   0  0  0  0  0  0  0  0  0  0  0  0
  -34.3550  -15.1710    9.9380 C   0  0  0  0  0  0  0  0  0  0  0  0
  -31.5310  -20.1210   11.8420 C   0  0  0  0  0  0  0  0  0  0  0  0
  -35.4670  -17.3710   10.1260 C   0  0  0  0  0  3  0  0  0  0  0  0
  -33.9320  -19.3500   10.5760 C   0  0  0  0  0  0  0  0  0  0  0  0
  -32.9350  -17.2070    9.7780 C   0  0  0  0  0  2  0  0  0  0  0  0
  -32.8110  -18.5130   10.5260 C   0  0  0  0  0  0  0  0  0  0  0  0
  -31.6050  -18.8860   11.1620 C   0  0  0  0  0  3  0  0  0  0  0  0
  -32.6530  -20.9830   11.8100 C   0  0  0  0  0  3  0  0  0  0  0  0
  -33.8600  -20.5930   11.2210 C   0  0  0  0  0  3  0  0  0  0  0  0
  -35.1880  -18.8740    9.8840 C   0  0  0  0  0  2  0  0  0  0  0  0
  -34.2400  -16.5250    9.9650 N   0  0  0  0  0  0  0  0  0  0  0  0
  -35.4620  -14.6160   10.0040 O   0  0  0  0  0  0  0  0  0  0  0  0
  -36.1470  -17.2040   11.5030 C   0  0  0  0  0  0  0  0  0  0  0  0
  -37.4680  -17.4430   11.5480 N   0  0  0  0  0  0  0  0  0  0  0  0
  -35.4910  -16.8960   12.4990 O   0  0  0  0  0  0  0  0  0  0  0  0
  -37.9270  -17.6790   10.6790 H   0  0  0  0  0  0  0  0  0  0  0  0
  -40.8960  -17.2330   12.6690 C   0  0  0  0  0  0  0  0  0  0  0  0
  -38.3170  -17.3770   12.7350 C   0  0  0  0  0  3  0  0  0  0  0  0
  -38.5140  -18.7790   13.3600 C   0  0  0  0  0  2  0  0  0  0  0  0
  -39.7760  -19.4910   12.8590 C   0  0  0  0  0  2  0  0  0  0  0  0
  -41.0230  -18.6600   13.1690 C   0  0  0  0  0  2  0  0  0  0  0  0
  -39.6270  -16.6340   12.4500 C   0  0  0  0  0  0  0  0  0  0  0  0
  -39.5720  -15.3160   11.9510 C   0  0  0  0  0  3  0  0  0  0  0  0
  -40.7530  -14.5990   11.6780 C   0  0  0  0  0  3  0  0  0  0  0  0
  -42.0060  -15.1910   11.9120 C   0  0  0  0  0  3  0  0  0  0  0  0
  -42.0740  -16.5040   12.4070 C   0  0  0  0  0  3  0  0  0  0  0  0
  -33.1070  -14.2490    9.7920 C   0  0  0  0  0  3  0  0  0  0  0  0
  -33.3640  -12.7780   10.3000 C   0  0  1  0  0  0  0  0  0  0  0  0
  -34.4500  -12.0280    9.4950 C   0  0  0  0  0  1  0  0  0  0  0  0
  -33.7980  -12.7840   11.7830 C   0  0  0  0  0  1  0  0  0  0  0  0
  -32.0500  -11.9660   10.2310 C   0  0  0  0  0  1  0  0  0  0  0  0
  -32.7150  -14.2560    8.3770 N   0  0  0  0  0  0  0  0  0  0  0  0
  -31.7470  -15.0240    7.8560 C   0  0  0  0  0  0  0  0  0  0  0  0
  -31.0330  -15.7610    8.5430 O   0  0  0  0  0  0  0  0  0  0  0  0
  -33.2900  -13.7100    7.7530 H   0  0  0  0  0  0  0  0  0  0  0  0
  -32.2360  -16.1580    5.6680 C   0  0  0  0  0  1  0  0  0  0  0  0
  -31.5340  -14.9630    6.3310 C   0  0  0  0  0  3  0  0  0  0  0  0
  -29.4500  -13.6680    6.2370 C   0  0  0  0  0  1  0  0  0  0  0  0
  -30.1080  -14.9370    5.9400 N   0  0  0  0  0  0  0  0  0  0  0  0
  -30.0030  -15.1190    4.9450 H   0  0  0  0  0  0  0  0  0  0  0  0
  1  4  1  0
  2  1  2  0
  3  4  2  0
  4 57  1  0
  5  2  1  0
  5  6  2  0
  6  3  1  0
  7 10  1  6
  7  6  1  0
  7  8  1  0
  9  7  1  0
 11  5  1  0
 12 13  2  0
 12 11  1  0
 13 15  1  0
 14 13  1  0
 15 16  1  0
 17 16  1  0
 18 17  1  1
 18 27  1  0
 19 25  1  0
 19 26  2  0
 21 20  1  0
 22 21  1  0
 23 24  1  0
 23 22  1  0
 24 25  1  0
 25 20  1  0
 27 19  1  0
 28 27  1  0
 29 54  1  0
 29 18  1  0
 29 32  1  0
 30 49  1  0
 30 31  1  0
 29 30  1  6
 31 34  1  0
 31 33  1  0
 32 33  1  0
 32 23  1  0
 34 39  1  0
 35 34  2  0
 36 37  2  0
 36 35  1  0
 37 38  1  0
 38 39  2  0
 40 37  1  0
 41 40  1  0
 41 42  1  0
 43 42  2  0
 44 43  1  0
 45 46  1  0
 45 44  2  0
 46 41  2  0
 47 46  1  0
 48 44  1  0
 50 52  1  0
 50 49  1  0
 51 49  2  0
 53 50  1  0
 54 18  1  0
 54 55  1  0
 56 54  1  0
 57 58  1  0
 59 58  1  0
 60 70  1  0
 60 71  2  0
 61 59  1  0
 62 72  1  0
 63 68  1  0
 64 70  1  0
 64 65  1  0
 65 63  2  0
 65 66  1  0
 66 61  2  0
 67 61  1  0
 68 67  2  0
 69 62  1  0
 69 63  1  0
 70 62  1  0
 72 73  1  0
 72 74  2  0
 75 73  1  0
 76 80  1  0
 77 73  1  0
 77 78  1  0
 79 80  1  0
 79 78  1  0
 81 76  1  0
 81 77  1  0
 82 81  2  0
 83 84  2  0
 83 82  1  0
 84 85  1  0
 85 76  2  0
 86 60  1  0
 86 87  1  0
 87 89  1  1
 88 87  1  0
 90 87  1  0
 91 86  1  0
 92 91  1  0
 92 93  2  0
 94 91  1  0
 96 95  1  0
 96 92  1  0
 98 97  1  0
 98 96  1  0
 99 98  1  0
M  ISO  4  19 100  27 100  58 101  59 101
M  END
>  <TORSDO>  (20) 
F 25

>  <SCORE>  (20) 
-0.931

>  <name>  (20) 
22

>  <ligand_id>  (20) 
22

>  <original_smiles>  (20) 
[H]C(=C(C([H])([H])[H])C([H])([H])C([H])([H])C([H])([H])C([H])([H])N([H])C(=O)N1C([H])([H])C([H])([H])C([H])([H])C([H])(n2nc(-c3c([H])c([H])c(Oc4c([H])c([H])c(F)c([H])c4F)c([H])c3[H])c(C(=O)N([H])[H])c2N([H])[H])C1([H])[H])C([H])([H])c1c([H])c([H])c(C([H])([H])C([H])([H])Oc2c([H])c([H])c3c(c2[H])C([H])([H])N(C(=O)C([H])(N([H])C(=O)C([H])(N([H])C([H])([H])[H])C([H])([H])[H])C(C([H])([H])[H])(C([H])([H])[H])C([H])([H])[H])C([H])(C(=O)N([H])C2([H])c4c([H])c([H])c([H])c([H])c4C([H])([H])C([H])([H])C2([H])[H])C3([H])[H])c([H])c1C(F)(F)F

>  <smiles>  (20) 
[H]C(=C(C([H])([H])[H])C([H])([H])C([H])([H])C([H])([H])C([H])([H])N([H])C(=O)N1C([H])([H])C([H])([H])C([H])([H])C([H])(n2nc(-c3c([H])c([H])c(Oc4c([H])c([H])c(F)c([H])c4F)c([H])c3[H])c(C(=O)N([H])[H])c2N([H])[H])C1([H])[H])C([H])([H])c1c([H])c([H])c(C([H])([H])C([H])([H])Oc2c([H])c([H])c3c(c2[H])C([H])([H])N(C(=O)C([H])(N([H])C(=O)C([H])(N([H])C([H])([H])[H])C([H])([H])[H])C(C([H])([H])[H])(C([H])([H])[H])C([H])([H])[H])C([H])(C(=O)N([H])C2([H])c4c([H])c([H])c([H])c([H])c4C([H])([H])C([H])([H])C2([H])[H])C3([H])[H])c([H])c1C(F)(F)F

$$$$
23:0:0
     RDKit          3D

 88 95  0  0  1  0  0  0  0  0999 V2000
  -29.2230  -22.9070   20.3600 C   0  0  0  0  0  0  0  0  0  0  0  0
  -28.7800  -22.4430   19.3050 O   0  0  0  0  0  0  0  0  0  0  0  0
  -29.6200  -21.9900   21.5340 C   0  0  0  0  0  2  0  0  0  0  0  0
  -29.0560  -20.5350   21.5160 C   0  0  0  0  0  2  0  0  0  0  0  0
  -30.0190  -19.4480   20.9750 C   0  0  0  0  0  2  0  0  0  0  0  0
  -29.4810  -17.9960   21.1090 C   0  0  0  0  0  2  0  0  0  0  0  0
  -30.5210  -16.9230   20.7050 C   0  0  0  0  0  2  0  0  0  0  0  0
  -30.6740  -14.4940   20.2070 C   0  0  0  0  0  0  0  0  0  0  0  0
  -30.3120  -12.3530   19.0420 C   0  0  0  0  0  2  0  0  0  0  0  0
  -29.3400  -12.5770   17.8670 C   0  0  0  0  0  2  0  0  0  0  0  0
  -27.8780  -12.4450   18.3370 C   0  0  0  0  0  2  0  0  0  0  0  0
  -27.5820  -13.2680   19.6200 C   0  0  0  0  0  3  0  0  0  0  0  0
  -28.6690  -13.0370   20.6960 C   0  0  0  0  0  2  0  0  0  0  0  0
  -29.9770  -13.3320   20.0890 N   0  0  0  0  0  0  0  0  0  0  0  0
  -31.7890  -14.6550   19.7030 O   0  0  0  0  0  0  0  0  0  0  0  0
  -30.0200  -15.5370   20.7550 N   0  0  0  0  0  0  0  0  0  0  0  0
  -29.0980  -15.3680   21.1290 H   0  0  0  0  0  0  0  0  0  0  0  0
  -25.2020  -13.8740   20.3890 C   0  0  0  0  0  0  0  0  0  0  0  0
  -24.1450  -13.1020   20.7850 C   0  0  0  0  0  0  0  0  0  0  0  0
  -24.6050  -11.7500   20.7440 C   0  0  0  0  0  0  0  0  0  0  0  0
  -26.2420  -12.9940   20.1330 N   0  0  0  0  0  0  0  0  0  0  0  0
  -25.8870  -11.7110   20.4040 N   0  0  0  0  0  0  0  0  0  0  0  0
  -23.8840  -10.4880   20.9530 C   0  0  0  0  0  0  0  0  0  0  0  0
  -24.3370   -9.5240   21.8810 C   0  0  0  0  0  3  0  0  0  0  0  0
  -23.6170   -8.3260   22.0780 C   0  0  0  0  0  3  0  0  0  0  0  0
  -22.4290   -8.0840   21.3480 C   0  0  0  0  0  0  0  0  0  0  0  0
  -21.9950   -9.0360   20.4100 C   0  0  0  0  0  3  0  0  0  0  0  0
  -22.7160  -10.2250   20.2100 C   0  0  0  0  0  3  0  0  0  0  0  0
  -21.6780   -6.9390   21.4550 O   0  0  0  0  0  0  0  0  0  0  0  0
  -21.6470   -6.2030   22.6130 C   0  0  0  0  0  0  0  0  0  0  0  0
  -21.2470   -6.7680   23.8440 C   0  0  0  0  0  3  0  0  0  0  0  0
  -21.1630   -5.9600   24.9950 C   0  0  0  0  0  3  0  0  0  0  0  0
  -21.4690   -4.5890   24.9180 C   0  0  0  0  0  0  0  0  0  0  0  0
  -21.8630   -4.0230   23.6920 C   0  0  0  0  0  3  0  0  0  0  0  0
  -21.9490   -4.8280   22.5420 C   0  0  0  0  0  0  0  0  0  0  0  0
  -22.3080   -4.2740   21.3590 F   0  0  0  0  0  0  0  0  0  0  0  0
  -21.3820   -3.8100   26.0210 F   0  0  0  0  0  0  0  0  0  0  0  0
  -22.7540  -13.5790   21.0910 C   0  0  0  0  0  0  0  0  0  0  0  0
  -22.0490  -12.8850   21.9780 N   0  0  0  0  0  0  0  0  0  0  0  0
  -22.3010  -14.6030   20.5790 O   0  0  0  0  0  0  0  0  0  0  0  0
  -22.4290  -12.0580   22.4150 H   0  0  0  0  0  0  0  0  0  0  0  0
  -21.1170  -13.1870   22.2250 H   0  0  0  0  0  0  0  0  0  0  0  0
  -25.3620  -15.2450   20.2040 N   0  0  0  0  0  0  0  0  0  0  0  0
  -24.5980  -15.8990   20.3360 H   0  0  0  0  0  0  0  0  0  0  0  0
  -26.2010  -15.6840   19.8480 H   0  0  0  0  0  0  0  0  0  0  0  0
  -29.4130  -24.4300   20.5400 C   0  0  0  0  0  2  0  0  0  0  0  0
  -28.2430  -25.2650   19.9670 C   0  0  0  0  0  2  0  0  0  0  0  0
  -28.3780  -26.6870   20.1840 O   0  0  0  0  0  0  0  0  0  0  0  0
  -24.5940  -31.9020   23.2320 C   0  0  0  0  0  0  0  0  0  0  0  0
  -27.2160  -27.4410   20.1420 C   0  0  0  0  0  0  0  0  0  0  0  0
  -23.3810  -30.5060   21.5930 C   0  0  0  0  0  3  0  0  0  0  0  0
  -24.8270  -28.9730   20.1580 C   0  0  0  0  0  0  0  0  0  0  0  0
  -25.9100  -30.8540   21.3900 C   0  0  0  0  0  2  0  0  0  0  0  0
  -25.9900  -29.4850   20.7450 C   0  0  0  0  0  0  0  0  0  0  0  0
  -27.1860  -28.7280   20.7330 C   0  0  0  0  0  3  0  0  0  0  0  0
  -26.0310  -26.9580   19.5320 C   0  0  0  0  0  3  0  0  0  0  0  0
  -24.8430  -27.7090   19.5470 C   0  0  0  0  0  3  0  0  0  0  0  0
  -23.5850  -29.8330   20.2090 C   0  0  0  0  0  2  0  0  0  0  0  0
  -24.6480  -31.1030   22.1300 N   0  0  0  0  0  0  0  0  0  0  0  0
  -23.5150  -32.1750   23.7750 O   0  0  0  0  0  0  0  0  0  0  0  0
  -22.7320  -29.4820   22.5520 C   0  0  0  0  0  0  0  0  0  0  0  0
  -21.4070  -29.2990   22.4260 N   0  0  0  0  0  0  0  0  0  0  0  0
  -23.4160  -28.8570   23.3660 O   0  0  0  0  0  0  0  0  0  0  0  0
  -20.9160  -29.8550   21.7400 H   0  0  0  0  0  0  0  0  0  0  0  0
  -18.0350  -28.0960   22.9190 C   0  0  0  0  0  0  0  0  0  0  0  0
  -20.5910  -28.3610   23.1970 C   0  0  0  0  0  3  0  0  0  0  0  0
  -20.6990  -26.9280   22.6240 C   0  0  0  0  0  2  0  0  0  0  0  0
  -19.6000  -26.6010   21.6080 C   0  0  0  0  0  2  0  0  0  0  0  0
  -18.2160  -26.7460   22.2470 C   0  0  0  0  0  2  0  0  0  0  0  0
  -19.1510  -28.8620   23.3500 C   0  0  0  0  0  0  0  0  0  0  0  0
  -18.9280  -30.1270   23.9370 C   0  0  0  0  0  3  0  0  0  0  0  0
  -17.6210  -30.6270   24.0960 C   0  0  0  0  0  3  0  0  0  0  0  0
  -16.5210  -29.8590   23.6810 C   0  0  0  0  0  3  0  0  0  0  0  0
  -16.7280  -28.5950   23.0990 C   0  0  0  0  0  3  0  0  0  0  0  0
  -25.8830  -32.5300   23.8490 C   0  0  0  0  0  3  0  0  0  0  0  0
  -25.5760  -33.9270   24.1820 N   0  0  0  0  0  0  0  0  0  0  0  0
  -25.9010  -34.9800   23.4190 C   0  0  0  0  0  0  0  0  0  0  0  0
  -26.5630  -34.8790   22.3830 O   0  0  0  0  0  0  0  0  0  0  0  0
  -24.9920  -34.0810   24.9910 H   0  0  0  0  0  0  0  0  0  0  0  0
  -24.1650  -36.7670   23.0860 C   0  0  0  0  0  1  0  0  0  0  0  0
  -25.4170  -36.3680   23.8820 C   0  0  0  0  0  3  0  0  0  0  0  0
  -27.5610  -37.2560   24.6840 C   0  0  0  0  0  1  0  0  0  0  0  0
  -26.4450  -37.4230   23.7550 N   0  0  0  0  0  0  0  0  0  0  0  0
  -26.0390  -38.3420   23.9080 H   0  0  0  0  0  0  0  0  0  0  0  0
  -26.4070  -31.7550   25.1190 C   0  0  1  0  0  0  0  0  0  0  0  0
  -25.3200  -31.5140   26.1920 C   0  0  0  0  0  1  0  0  0  0  0  0
  -26.9860  -30.3790   24.7170 C   0  0  0  0  0  1  0  0  0  0  0  0
  -27.5620  -32.5460   25.7770 C   0  0  0  0  0  1  0  0  0  0  0  0
  1 46  1  0
  1  3  1  0
  2  1  2  0
  4  3  1  0
  5  6  1  0
  5  4  1  0
  7 16  1  0
  7  6  1  0
  8 16  1  0
  9 14  1  0
 10 11  1  0
 10  9  1  0
 12 11  1  0
 12 21  1  0
 12 13  1  0
 14  8  1  0
 14 13  1  0
 15  8  2  0
 16 17  1  0
 18 19  2  0
 19 38  1  0
 20 19  1  0
 20 23  1  0
 21 18  1  0
 21 22  1  0
 22 20  2  0
 23 24  1  0
 24 25  2  0
 26 29  1  0
 26 25  1  0
 27 26  2  0
 28 27  1  0
 28 23  2  0
 29 30  1  0
 30 31  1  0
 31 32  2  0
 33 32  1  0
 33 37  1  0
 34 33  2  0
 35 30  2  0
 35 34  1  0
 36 35  1  0
 38 39  1  0
 39 42  1  0
 39 41  1  0
 40 38  2  0
 43 44  1  0
 43 18  1  0
 45 43  1  0
 47 48  1  0
 47 46  1  0
 49 60  2  0
 50 48  1  0
 50 55  1  0
 51 59  1  0
 51 61  1  0
 52 58  1  0
 52 54  1  0
 53 59  1  0
 54 53  1  0
 55 54  2  0
 56 57  1  0
 56 50  2  0
 57 52  2  0
 58 51  1  0
 59 49  1  0
 61 63  2  0
 62 61  1  0
 64 62  1  0
 65 74  2  0
 65 70  1  0
 66 62  1  0
 66 70  1  0
 67 66  1  0
 68 69  1  0
 68 67  1  0
 69 65  1  0
 70 71  2  0
 71 72  1  0
 73 72  2  0
 74 73  1  0
 75 49  1  0
 75 76  1  0
 75 85  1  0
 76 79  1  0
 77 81  1  0
 77 76  1  0
 78 77  2  0
 81 80  1  0
 83 81  1  0
 83 84  1  0
 83 82  1  0
 85 88  1  1
 85 86  1  0
 87 85  1  0
M  ISO  4   8 100  16 100  47 101  48 101
M  END
>  <TORSDO>  (21) 
F 23

>  <SCORE>  (21) 
-12.306

>  <name>  (21) 
23

>  <ligand_id>  (21) 
23

>  <original_smiles>  (21) 
[H]c1c([H])c([H])c2c(c1[H])C([H])([H])C([H])([H])C([H])([H])C2([H])N([H])C(=O)C1([H])N(C(=O)C([H])(N([H])C(=O)C([H])(N([H])C([H])([H])[H])C([H])([H])[H])C(C([H])([H])[H])(C([H])([H])[H])C([H])([H])[H])C([H])([H])c2c([H])c(OC([H])([H])C([H])([H])C(=O)C([H])([H])C([H])([H])C([H])([H])C([H])([H])C([H])([H])N([H])C(=O)N3C([H])([H])C([H])([H])C([H])([H])C([H])(n4nc(-c5c([H])c([H])c(Oc6c([H])c([H])c(F)c([H])c6F)c([H])c5[H])c(C(=O)N([H])[H])c4N([H])[H])C3([H])[H])c([H])c([H])c2C1([H])[H]

>  <smiles>  (21) 
[H]c1c([H])c([H])c2c(c1[H])C([H])([H])C([H])([H])C([H])([H])C2([H])N([H])C(=O)C1([H])N(C(=O)C([H])(N([H])C(=O)C([H])(N([H])C([H])([H])[H])C([H])([H])[H])C(C([H])([H])[H])(C([H])([H])[H])C([H])([H])[H])C([H])([H])c2c([H])c(OC([H])([H])C([H])([H])C(=O)C([H])([H])C([H])([H])C([H])([H])C([H])([H])C([H])([H])N([H])C(=O)N3C([H])([H])C([H])([H])C([H])([H])C([H])(n4nc(-c5c([H])c([H])c(Oc6c([H])c([H])c(F)c([H])c6F)c([H])c5[H])c(C(=O)N([H])[H])c4N([H])[H])C3([H])[H])c([H])c([H])c2C1([H])[H]

$$$$
24:0:0
     RDKit          3D

100109  0  0  1  0  0  0  0  0999 V2000
  -27.9690  -24.2340   21.8980 C   0  0  0  0  0  3  0  0  0  0  0  0
  -30.3060  -21.2270   22.4780 C   0  0  0  0  0  3  0  0  0  0  0  0
  -29.7800  -21.3480   20.1020 C   0  0  0  0  0  3  0  0  0  0  0  0
  -29.5110  -22.3620   22.7140 C   0  0  0  0  0  3  0  0  0  0  0  0
  -28.9750  -22.4820   20.3400 C   0  0  0  0  0  3  0  0  0  0  0  0
  -30.4550  -20.7220   21.1710 C   0  0  0  0  0  0  0  0  0  0  0  0
  -28.8370  -23.0010   21.6460 C   0  0  0  0  0  0  0  0  0  0  0  0
  -31.3850  -19.5450   20.9230 C   0  0  0  0  0  2  0  0  0  0  0  0
  -36.7760  -21.1200   21.6320 C   0  0  0  0  0  0  0  0  0  0  0  0
  -38.5960  -21.9110   20.1660 C   0  0  0  0  0  2  0  0  0  0  0  0
  -38.1810  -23.2030   19.4330 C   0  0  0  0  0  2  0  0  0  0  0  0
  -37.4240  -22.8760   18.1310 C   0  0  0  0  0  2  0  0  0  0  0  0
  -36.2840  -21.8490   18.3480 C   0  0  0  0  0  3  0  0  0  0  0  0
  -36.8020  -20.6340   19.1460 C   0  0  0  0  0  2  0  0  0  0  0  0
  -37.3840  -21.1160   20.4130 N   0  0  0  0  0  0  0  0  0  0  0  0
  -37.2640  -21.6850   22.6190 O   0  0  0  0  0  0  0  0  0  0  0  0
  -33.1230  -21.2330   21.7290 C   0  0  0  0  0  2  0  0  0  0  0  0
  -33.8830  -18.9380   20.9670 C   0  0  0  0  0  2  0  0  0  0  0  0
  -34.4900  -21.4140   22.4020 C   0  0  0  0  0  2  0  0  0  0  0  0
  -35.2310  -19.2160   21.6660 C   0  0  0  0  0  2  0  0  0  0  0  0
  -32.7440  -19.7420   21.6250 C   0  0  0  0  0  3  0  0  0  0  0  0
  -35.5070  -20.6590   21.6620 N   0  0  0  0  0  0  0  0  0  0  0  0
  -34.3500  -21.4400   16.6960 C   0  0  0  0  0  0  0  0  0  0  0  0
  -34.3380  -21.0270   15.3910 C   0  0  0  0  0  0  0  0  0  0  0  0
  -35.7020  -20.7910   15.0380 C   0  0  0  0  0  0  0  0  0  0  0  0
  -35.6820  -21.4370   17.0820 N   0  0  0  0  0  0  0  0  0  0  0  0
  -36.4900  -20.9900   16.0850 N   0  0  0  0  0  0  0  0  0  0  0  0
  -36.3110  -20.4440   13.7460 C   0  0  0  0  0  0  0  0  0  0  0  0
  -37.0320  -19.2420   13.5680 C   0  0  0  0  0  3  0  0  0  0  0  0
  -37.5930  -18.9240   12.3130 C   0  0  0  0  0  3  0  0  0  0  0  0
  -37.4320  -19.8070   11.2190 C   0  0  0  0  0  0  0  0  0  0  0  0
  -36.7320  -21.0120   11.4070 C   0  0  0  0  0  3  0  0  0  0  0  0
  -36.1790  -21.3300   12.6590 C   0  0  0  0  0  3  0  0  0  0  0  0
  -37.9620  -19.5930    9.9710 O   0  0  0  0  0  0  0  0  0  0  0  0
  -38.2860  -18.3330    9.5320 C   0  0  0  0  0  0  0  0  0  0  0  0
  -37.2960  -17.3720    9.2300 C   0  0  0  0  0  3  0  0  0  0  0  0
  -37.6700  -16.1140    8.7160 C   0  0  0  0  0  3  0  0  0  0  0  0
  -39.0290  -15.8190    8.4970 C   0  0  0  0  0  0  0  0  0  0  0  0
  -40.0160  -16.7750    8.7930 C   0  0  0  0  0  3  0  0  0  0  0  0
  -39.6440  -18.0310    9.3060 C   0  0  0  0  0  0  0  0  0  0  0  0
  -40.5960  -18.9580    9.5700 F   0  0  0  0  0  0  0  0  0  0  0  0
  -39.3900  -14.6140    7.9970 F   0  0  0  0  0  0  0  0  0  0  0  0
  -33.1400  -20.9460   14.4880 C   0  0  0  0  0  0  0  0  0  0  0  0
  -33.1500  -20.0180   13.5360 N   0  0  0  0  0  0  0  0  0  0  0  0
  -32.1640  -21.6770   14.6520 O   0  0  0  0  0  0  0  0  0  0  0  0
  -33.9420  -19.4040   13.4090 H   0  0  0  0  0  0  0  0  0  0  0  0
  -32.3520  -19.9200   12.9230 H   0  0  0  0  0  0  0  0  0  0  0  0
  -33.3490  -21.8340   17.5790 N   0  0  0  0  0  0  0  0  0  0  0  0
  -32.3740  -21.8920   17.3070 H   0  0  0  0  0  0  0  0  0  0  0  0
  -33.5160  -22.1410   18.5280 H   0  0  0  0  0  0  0  0  0  0  0  0
  -27.1370  -24.0260   23.1750 C   0  0  0  0  0  3  0  0  0  0  0  0
  -26.0990  -24.6580   23.3750 O   0  0  0  0  0  0  0  0  0  0  0  0
  -28.8010  -25.5560   21.9270 C   0  0  0  0  0  2  0  0  0  0  0  0
  -28.7570  -26.4200   20.6340 C   0  0  0  0  0  3  0  0  0  0  0  0
  -29.3510  -27.7610   20.8590 N   0  0  0  0  0  4  0  0  0  0  0  0
  -28.8440  -28.2910   21.5500 H   0  0  0  0  0  0  0  0  0  0  0  0
  -29.3430  -28.2920   20.0030 H   0  0  0  0  0  0  0  0  0  0  0  0
  -30.3080  -27.6890   21.1550 H   0  0  0  0  0  0  0  0  0  0  0  0
  -27.3640  -26.5570   19.9630 C   0  0  0  0  0  2  0  0  0  0  0  0
  -27.1140  -25.3270   19.2930 O   0  0  0  0  0  0  0  0  0  0  0  0
  -21.0030  -24.7600   15.6300 C   0  0  0  0  0  0  0  0  0  0  0  0
  -25.8110  -24.9070   19.2140 C   0  0  0  0  0  0  0  0  0  0  0  0
  -20.8990  -24.1960   18.0360 C   0  0  0  0  0  3  0  0  0  0  0  0
  -23.1470  -23.9770   19.2180 C   0  0  0  0  0  0  0  0  0  0  0  0
  -23.0690  -23.9040   16.7210 C   0  0  0  0  0  2  0  0  0  0  0  0
  -23.8140  -24.1930   18.0050 C   0  0  0  0  0  0  0  0  0  0  0  0
  -25.1430  -24.6620   17.9940 C   0  0  0  0  0  3  0  0  0  0  0  0
  -25.1350  -24.6780   20.4290 C   0  0  0  0  0  3  0  0  0  0  0  0
  -23.8020  -24.2260   20.4380 C   0  0  0  0  0  3  0  0  0  0  0  0
  -21.7230  -23.4770   19.1380 C   0  0  0  0  0  2  0  0  0  0  0  0
  -21.6510  -24.3270   16.7460 N   0  0  0  0  0  0  0  0  0  0  0  0
  -19.7900  -25.0080   15.6480 O   0  0  0  0  0  0  0  0  0  0  0  0
  -20.4070  -25.5500   18.5960 C   0  0  0  0  0  0  0  0  0  0  0  0
  -19.4780  -25.4940   19.5640 N   0  0  0  0  0  0  0  0  0  0  0  0
  -20.8780  -26.6140   18.1810 O   0  0  0  0  0  0  0  0  0  0  0  0
  -19.1380  -24.5840   19.8420 H   0  0  0  0  0  0  0  0  0  0  0  0
  -17.6520  -26.4620   22.5260 C   0  0  0  0  0  0  0  0  0  0  0  0
  -18.8970  -26.6370   20.2670 C   0  0  0  0  0  3  0  0  0  0  0  0
  -19.9800  -27.4250   21.0400 C   0  0  0  0  0  2  0  0  0  0  0  0
  -20.1300  -26.9750   22.4970 C   0  0  0  0  0  2  0  0  0  0  0  0
  -18.8050  -27.1350   23.2490 C   0  0  0  0  0  2  0  0  0  0  0  0
  -17.7000  -26.2150   21.1290 C   0  0  0  0  0  0  0  0  0  0  0  0
  -16.6160  -25.5560   20.5110 C   0  0  0  0  0  3  0  0  0  0  0  0
  -15.4980  -25.1500   21.2640 C   0  0  0  0  0  3  0  0  0  0  0  0
  -15.4460  -25.4160   22.6430 C   0  0  0  0  0  3  0  0  0  0  0  0
  -16.5190  -26.0730   23.2700 C   0  0  0  0  0  3  0  0  0  0  0  0
  -21.7490  -24.9420   14.2690 C   0  0  0  0  0  3  0  0  0  0  0  0
  -22.5360  -26.3070   14.1700 C   0  0  1  0  0  0  0  0  0  0  0  0
  -21.6830  -27.5450   14.5360 C   0  0  0  0  0  1  0  0  0  0  0  0
  -23.7720  -26.2880   15.0980 C   0  0  0  0  0  1  0  0  0  0  0  0
  -23.0660  -26.4980   12.7290 C   0  0  0  0  0  1  0  0  0  0  0  0
  -20.7460  -24.8380   13.2020 N   0  0  0  0  0  0  0  0  0  0  0  0
  -20.2870  -23.6840   12.7010 C   0  0  0  0  0  0  0  0  0  0  0  0
  -20.7220  -22.5830   13.0500 O   0  0  0  0  0  0  0  0  0  0  0  0
  -20.3050  -25.6980   12.9100 H   0  0  0  0  0  0  0  0  0  0  0  0
  -17.8040  -23.8590   12.3520 C   0  0  0  0  0  1  0  0  0  0  0  0
  -19.1670  -23.7640   11.6480 C   0  0  0  0  0  3  0  0  0  0  0  0
  -20.3470  -22.5620    9.8610 C   0  0  0  0  0  1  0  0  0  0  0  0
  -19.1600  -22.6200   10.7100 N   0  0  0  0  0  0  0  0  0  0  0  0
  -18.3400  -22.6530   10.1080 H   0  0  0  0  0  0  0  0  0  0  0  0
  1 53  1  0
  1 51  1  0
  2  4  1  0
  3  5  2  0
  3  6  1  0
  5  7  1  0
  6  2  2  0
  7  1  1  0
  7  4  2  0
  8  6  1  0
  9 22  1  0
  9 16  2  0
 10 15  1  0
 11 10  1  0
 12 13  1  0
 12 11  1  0
 13 26  1  0
 13 14  1  0
 14 15  1  0
 15  9  1  0
 17 19  1  0
 18 21  1  0
 18 20  1  0
 21  8  1  0
 21 17  1  0
 22 20  1  0
 22 19  1  0
 23 26  1  0
 23 48  1  0
 24 23  2  0
 25 24  1  0
 25 27  2  0
 27 26  1  0
 28 25  1  0
 29 28  1  0
 30 29  2  0
 31 32  2  0
 31 30  1  0
 32 33  1  0
 33 28  2  0
 34 31  1  0
 35 34  1  0
 36 35  2  0
 37 36  1  0
 38 37  2  0
 38 39  1  0
 39 40  2  0
 40 35  1  0
 40 41  1  0
 42 38  1  0
 43 45  2  0
 43 24  1  0
 44 43  1  0
 46 44  1  0
 47 44  1  0
 48 50  1  0
 49 48  1  0
 51 52  2  0
 54 59  1  0
 54 55  1  0
 54 53  1  0
 55 58  1  0
 55 56  1  0
 57 55  1  0
 60 59  1  0
 61 72  2  0
 61 71  1  0
 62 60  1  0
 62 68  1  0
 63 73  1  0
 63 70  1  0
 64 69  1  0
 65 71  1  0
 65 66  1  0
 66 64  2  0
 67 66  1  0
 67 62  2  0
 68 69  2  0
 70 64  1  0
 71 63  1  0
 73 74  1  0
 74 76  1  0
 75 73  2  0
 77 81  1  0
 77 86  1  0
 78 74  1  0
 78 79  1  0
 78 82  1  0
 79 80  1  0
 80 81  1  0
 82 77  2  0
 83 82  1  0
 83 84  2  0
 84 85  1  0
 85 86  2  0
 87 61  1  0
 88 87  1  0
 88 89  1  1
 88 90  1  0
 91 88  1  0
 92 87  1  0
 93 94  2  0
 93 92  1  0
 95 92  1  0
 97 96  1  0
 97 93  1  0
 98 99  1  0
 99 97  1  0
100 99  1  0
M  ISO  4   9 100  22 100  59 101  60 101
M  END
>  <TORSDO>  (22) 
F 23

>  <SCORE>  (22) 
-1.440

>  <name>  (22) 
24

>  <ligand_id>  (22) 
24

>  <original_smiles>  (22) 
[H]C(=O)C([H])(c1c([H])c([H])c(C([H])([H])C2([H])C([H])([H])C([H])([H])N(C(=O)N3C([H])([H])C([H])([H])C([H])([H])C([H])(n4nc(-c5c([H])c([H])c(Oc6c([H])c([H])c(F)c([H])c6F)c([H])c5[H])c(C(=O)N([H])[H])c4N([H])[H])C3([H])[H])C([H])([H])C2([H])[H])c([H])c1[H])C([H])([H])C([H])(C([H])([H])Oc1c([H])c([H])c2c(c1[H])C([H])([H])N(C(=O)C([H])(N([H])C(=O)C([H])(N([H])C([H])([H])[H])C([H])([H])[H])C(C([H])([H])[H])(C([H])([H])[H])C([H])([H])[H])C([H])(C(=O)N([H])C1([H])c3c([H])c([H])c([H])c([H])c3C([H])([H])C([H])([H])C1([H])[H])C2([H])[H])[N+]([H])([H])[H]

>  <smiles>  (22) 
[H]C(=O)C([H])(c1c([H])c([H])c(C([H])([H])C2([H])C([H])([H])C([H])([H])N(C(=O)N3C([H])([H])C([H])([H])C([H])([H])C([H])(n4nc(-c5c([H])c([H])c(Oc6c([H])c([H])c(F)c([H])c6F)c([H])c5[H])c(C(=O)N([H])[H])c4N([H])[H])C3([H])[H])C([H])([H])C2([H])[H])c([H])c1[H])C([H])([H])C([H])(C([H])([H])Oc1c([H])c([H])c2c(c1[H])C([H])([H])N(C(=O)C([H])(N([H])C(=O)C([H])(N([H])C([H])([H])[H])C([H])([H])[H])C(C([H])([H])[H])(C([H])([H])[H])C([H])([H])[H])C([H])(C(=O)N([H])C1([H])c3c([H])c([H])c([H])c([H])c3C([H])([H])C([H])([H])C1([H])[H])C2([H])[H])[N+]([H])([H])[H]

$$$$
25:0:0
     RDKit          3D

 95103  0  0  1  0  0  0  0  0999 V2000
  -28.4720  -21.3920   19.7110 C   0  0  0  0  0  3  0  0  0  0  0  0
  -28.6000  -22.6330   20.3430 C   0  0  0  0  0  3  0  0  0  0  0  0
  -26.1000  -21.8110   19.3740 C   0  0  0  0  0  3  0  0  0  0  0  0
  -26.2210  -23.0920   19.9490 C   0  0  0  0  0  0  0  0  0  0  0  0
  -27.2100  -20.9530   19.2650 C   0  0  0  0  0  0  0  0  0  0  0  0
  -27.4960  -23.5020   20.4460 C   0  0  0  0  0  0  0  0  0  0  0  0
  -25.0050  -23.9590   19.8650 C   0  0  0  0  0  0  0  0  0  0  0  0
  -24.4690  -24.6080   21.1360 C   0  0  0  0  0  1  0  0  0  0  0  0
  -24.3700  -24.1010   18.8150 O   0  0  0  0  0  0  0  0  0  0  0  0
  -27.0430  -19.5660   18.6750 C   0  0  0  0  0  2  0  0  0  0  0  0
  -27.5220  -18.4390   19.6160 C   0  0  0  0  0  2  0  0  0  0  0  0
  -29.0320  -18.4680   19.9450 C   0  0  0  0  0  2  0  0  0  0  0  0
  -29.5040  -17.3650   20.9500 C   0  0  0  0  0  2  0  0  0  0  0  0
  -30.9450  -16.7580   21.0410 C   0  0  0  0  0  2  0  0  0  0  0  0
  -31.5930  -14.3400   20.7560 C   0  0  0  0  0  0  0  0  0  0  0  0
  -31.4720  -11.9350   20.1910 C   0  0  0  0  0  2  0  0  0  0  0  0
  -30.6540  -11.7350   18.8960 C   0  0  0  0  0  2  0  0  0  0  0  0
  -29.1410  -11.6940   19.1860 C   0  0  0  0  0  2  0  0  0  0  0  0
  -28.6710  -12.8660   20.0830 C   0  0  0  0  0  3  0  0  0  0  0  0
  -29.5790  -12.9600   21.3230 C   0  0  0  0  0  2  0  0  0  0  0  0
  -30.9730  -13.1410   20.8640 N   0  0  0  0  0  0  0  0  0  0  0  0
  -32.6790  -14.5160   20.1890 O   0  0  0  0  0  0  0  0  0  0  0  0
  -30.8710  -15.3270   21.2930 N   0  0  0  0  0  0  0  0  0  0  0  0
  -30.0430  -15.0030   21.7740 H   0  0  0  0  0  0  0  0  0  0  0  0
  -26.2800  -13.7030   20.5650 C   0  0  0  0  0  0  0  0  0  0  0  0
  -25.1260  -13.0400   20.8750 C   0  0  0  0  0  0  0  0  0  0  0  0
  -25.4680  -11.6550   20.9110 C   0  0  0  0  0  0  0  0  0  0  0  0
  -27.2640  -12.7320   20.4510 N   0  0  0  0  0  0  0  0  0  0  0  0
  -26.7700  -11.4940   20.7100 N   0  0  0  0  0  0  0  0  0  0  0  0
  -24.6240  -10.4670   21.0780 C   0  0  0  0  0  0  0  0  0  0  0  0
  -24.8680   -9.5270   22.1020 C   0  0  0  0  0  3  0  0  0  0  0  0
  -24.0310   -8.4020   22.2520 C   0  0  0  0  0  3  0  0  0  0  0  0
  -22.9370   -8.2080   21.3770 C   0  0  0  0  0  0  0  0  0  0  0  0
  -22.7120   -9.1360   20.3460 C   0  0  0  0  0  3  0  0  0  0  0  0
  -23.5480  -10.2540   20.1930 C   0  0  0  0  0  3  0  0  0  0  0  0
  -22.0880   -7.1300   21.4320 O   0  0  0  0  0  0  0  0  0  0  0  0
  -21.8220   -6.4830   22.6120 C   0  0  0  0  0  0  0  0  0  0  0  0
  -21.2590   -7.1550   23.7190 C   0  0  0  0  0  3  0  0  0  0  0  0
  -20.9410   -6.4380   24.8900 C   0  0  0  0  0  3  0  0  0  0  0  0
  -21.1740   -5.0510   24.9510 C   0  0  0  0  0  0  0  0  0  0  0  0
  -21.7280   -4.3790   23.8460 C   0  0  0  0  0  3  0  0  0  0  0  0
  -22.0490   -5.0950   22.6790 C   0  0  0  0  0  0  0  0  0  0  0  0
  -22.5660   -4.4410   21.6100 F   0  0  0  0  0  0  0  0  0  0  0  0
  -20.8590   -4.3580   26.0700 F   0  0  0  0  0  0  0  0  0  0  0  0
  -23.7600  -13.6420   21.0350 C   0  0  0  0  0  0  0  0  0  0  0  0
  -22.9240  -13.0450   21.8770 N   0  0  0  0  0  0  0  0  0  0  0  0
  -23.4440  -14.6780   20.4510 O   0  0  0  0  0  0  0  0  0  0  0  0
  -23.1930  -12.2070   22.3750 H   0  0  0  0  0  0  0  0  0  0  0  0
  -22.0040  -13.4290   22.0350 H   0  0  0  0  0  0  0  0  0  0  0  0
  -26.5670  -15.0450   20.3530 N   0  0  0  0  0  0  0  0  0  0  0  0
  -25.8480  -15.7570   20.3940 H   0  0  0  0  0  0  0  0  0  0  0  0
  -27.4760  -15.4040   20.1000 H   0  0  0  0  0  0  0  0  0  0  0  0
  -27.7920  -24.8970   20.9600 C   0  0  0  0  0  2  0  0  0  0  0  0
  -28.6440  -25.6680   19.9410 C   0  0  0  0  0  2  0  0  0  0  0  0
  -28.5690  -27.0540   20.2020 O   0  0  0  0  0  0  0  0  0  0  0  0
  -24.5580  -31.9670   23.3160 C   0  0  0  0  0  0  0  0  0  0  0  0
  -27.3370  -27.6660   20.1960 C   0  0  0  0  0  0  0  0  0  0  0  0
  -23.4060  -30.6050   21.6000 C   0  0  0  0  0  3  0  0  0  0  0  0
  -24.9110  -29.1080   20.1870 C   0  0  0  0  0  0  0  0  0  0  0  0
  -25.9280  -30.9890   21.4870 C   0  0  0  0  0  2  0  0  0  0  0  0
  -26.0410  -29.6400   20.8170 C   0  0  0  0  0  0  0  0  0  0  0  0
  -27.2530  -28.9270   20.8160 C   0  0  0  0  0  3  0  0  0  0  0  0
  -26.1810  -27.1230   19.5820 C   0  0  0  0  0  3  0  0  0  0  0  0
  -24.9730  -27.8470   19.5700 C   0  0  0  0  0  3  0  0  0  0  0  0
  -23.6600  -29.9560   20.2120 C   0  0  0  0  0  2  0  0  0  0  0  0
  -24.6460  -31.2000   22.1950 N   0  0  0  0  0  0  0  0  0  0  0  0
  -23.4600  -32.2240   23.8310 O   0  0  0  0  0  0  0  0  0  0  0  0
  -22.7280  -29.5590   22.5110 C   0  0  0  0  0  0  0  0  0  0  0  0
  -21.4050  -29.3990   22.3550 N   0  0  0  0  0  0  0  0  0  0  0  0
  -23.3890  -28.8930   23.3130 O   0  0  0  0  0  0  0  0  0  0  0  0
  -20.9380  -29.9820   21.6730 H   0  0  0  0  0  0  0  0  0  0  0  0
  -17.9970  -28.3000   22.7990 C   0  0  0  0  0  0  0  0  0  0  0  0
  -20.5640  -28.4440   23.0740 C   0  0  0  0  0  3  0  0  0  0  0  0
  -20.6110  -27.0460   22.4140 C   0  0  0  0  0  2  0  0  0  0  0  0
  -19.4980  -26.8330   21.3830 C   0  0  0  0  0  2  0  0  0  0  0  0
  -18.1230  -26.9890   22.0400 C   0  0  0  0  0  2  0  0  0  0  0  0
  -19.1460  -28.9930   23.2700 C   0  0  0  0  0  0  0  0  0  0  0  0
  -18.9790  -30.2270   23.9320 C   0  0  0  0  0  3  0  0  0  0  0  0
  -17.6950  -30.7660   24.1350 C   0  0  0  0  0  3  0  0  0  0  0  0
  -16.5620  -30.0710   23.6820 C   0  0  0  0  0  3  0  0  0  0  0  0
  -16.7130  -28.8410   23.0160 C   0  0  0  0  0  3  0  0  0  0  0  0
  -25.8260  -32.5780   23.9910 C   0  0  0  0  0  3  0  0  0  0  0  0
  -25.5190  -33.9750   24.3230 N   0  0  0  0  0  0  0  0  0  0  0  0
  -25.8880  -35.0300   23.5830 C   0  0  0  0  0  0  0  0  0  0  0  0
  -26.5930  -34.9290   22.5750 O   0  0  0  0  0  0  0  0  0  0  0  0
  -24.9000  -34.1270   25.1050 H   0  0  0  0  0  0  0  0  0  0  0  0
  -24.1870  -36.8370   23.1770 C   0  0  0  0  0  1  0  0  0  0  0  0
  -25.3940  -36.4180   24.0320 C   0  0  0  0  0  3  0  0  0  0  0  0
  -27.5020  -37.2790   24.9500 C   0  0  0  0  0  1  0  0  0  0  0  0
  -26.4380  -37.4640   23.9670 N   0  0  0  0  0  0  0  0  0  0  0  0
  -26.0340  -38.3860   24.1090 H   0  0  0  0  0  0  0  0  0  0  0  0
  -26.2910  -31.7850   25.2730 C   0  0  1  0  0  0  0  0  0  0  0  0
  -25.1570  -31.5210   26.2880 C   0  0  0  0  0  1  0  0  0  0  0  0
  -26.8960  -30.4180   24.8780 C   0  0  0  0  0  1  0  0  0  0  0  0
  -27.4070  -32.5690   25.9970 C   0  0  0  0  0  1  0  0  0  0  0  0
  1  2  1  0
  2  6  2  0
  3  4  2  0
  4  6  1  0
  5  3  1  0
  5  1  2  0
  6 53  1  0
  7  4  1  0
  7  8  1  0
  9  7  2  0
 10  5  1  0
 10 11  1  0
 11 12  1  0
 12 13  1  0
 13 14  1  0
 14 23  1  0
 15 21  1  0
 15 23  1  0
 16 21  1  0
 17 18  1  0
 17 16  1  0
 19 18  1  0
 19 28  1  0
 19 20  1  0
 21 20  1  0
 22 15  2  0
 23 24  1  0
 25 26  2  0
 26 27  1  0
 26 45  1  0
 27 30  1  0
 28 25  1  0
 28 29  1  0
 29 27  2  0
 30 31  1  0
 31 32  2  0
 33 36  1  0
 33 32  1  0
 34 33  2  0
 35 34  1  0
 35 30  2  0
 36 37  1  0
 37 42  2  0
 37 38  1  0
 38 39  2  0
 39 40  1  0
 40 44  1  0
 41 40  2  0
 42 41  1  0
 43 42  1  0
 45 46  1  0
 46 49  1  0
 46 48  1  0
 47 45  2  0
 50 51  1  0
 50 25  1  0
 52 50  1  0
 54 55  1  0
 54 53  1  0
 56 67  2  0
 57 55  1  0
 57 62  1  0
 58 66  1  0
 58 68  1  0
 59 65  1  0
 59 61  1  0
 60 66  1  0
 61 60  1  0
 62 61  2  0
 63 57  2  0
 64 63  1  0
 64 59  2  0
 65 58  1  0
 66 56  1  0
 68 70  2  0
 69 68  1  0
 71 69  1  0
 72 81  2  0
 72 77  1  0
 73 69  1  0
 73 77  1  0
 74 73  1  0
 75 76  1  0
 75 74  1  0
 76 72  1  0
 77 78  2  0
 78 79  1  0
 80 79  2  0
 81 80  1  0
 82 56  1  0
 82 83  1  0
 82 92  1  0
 83 86  1  0
 84 88  1  0
 84 83  1  0
 85 84  2  0
 88 87  1  0
 90 88  1  0
 90 91  1  0
 90 89  1  0
 92 95  1  1
 92 93  1  0
 94 92  1  0
M  ISO  4  15 100  23 100  54 101  55 101
M  END
>  <TORSDO>  (23) 
F 24

>  <SCORE>  (23) 
-11.636

>  <name>  (23) 
25

>  <ligand_id>  (23) 
25

>  <original_smiles>  (23) 
[H]c1c([H])c([H])c2c(c1[H])C([H])([H])C([H])([H])C([H])([H])C2([H])N([H])C(=O)C1([H])N(C(=O)C([H])(N([H])C(=O)C([H])(N([H])C([H])([H])[H])C([H])([H])[H])C(C([H])([H])[H])(C([H])([H])[H])C([H])([H])[H])C([H])([H])c2c([H])c(OC([H])([H])C([H])([H])c3c([H])c([H])c(C([H])([H])C([H])([H])C([H])([H])C([H])([H])C([H])([H])N([H])C(=O)N4C([H])([H])C([H])([H])C([H])([H])C([H])(n5nc(-c6c([H])c([H])c(Oc7c([H])c([H])c(F)c([H])c7F)c([H])c6[H])c(C(=O)N([H])[H])c5N([H])[H])C4([H])[H])c([H])c3C(=O)C([H])([H])[H])c([H])c([H])c2C1([H])[H]

>  <smiles>  (23) 
[H]c1c([H])c([H])c2c(c1[H])C([H])([H])C([H])([H])C([H])([H])C2([H])N([H])C(=O)C1([H])N(C(=O)C([H])(N([H])C(=O)C([H])(N([H])C([H])([H])[H])C([H])([H])[H])C(C([H])([H])[H])(C([H])([H])[H])C([H])([H])[H])C([H])([H])c2c([H])c(OC([H])([H])C([H])([H])c3c([H])c([H])c(C([H])([H])C([H])([H])C([H])([H])C([H])([H])C([H])([H])N([H])C(=O)N4C([H])([H])C([H])([H])C([H])([H])C([H])(n5nc(-c6c([H])c([H])c(Oc7c([H])c([H])c(F)c([H])c7F)c([H])c6[H])c(C(=O)N([H])[H])c5N([H])[H])C4([H])[H])c([H])c3C(=O)C([H])([H])[H])c([H])c([H])c2C1([H])[H]

$$$$
26:0:0
     RDKit          3D

 91 98  0  0  1  0  0  0  0  0999 V2000
  -25.5430  -21.4650   19.5450 C   0  0  0  0  0  1  0  0  0  0  0  0
  -26.3660  -22.5170   20.1880 N   0  0  2  0  0  4  0  0  0  0  0  0
  -25.6700  -23.1530   20.5460 H   0  0  0  0  0  0  0  0  0  0  0  0
  -27.1620  -23.3220   19.2160 C   0  0  0  0  0  2  0  0  0  0  0  0
  -27.7900  -24.5850   19.8520 C   0  0  0  0  0  2  0  0  0  0  0  0
  -28.2610  -25.6340   18.8190 C   0  0  0  0  0  2  0  0  0  0  0  0
  -28.2760  -26.9590   19.3680 O   0  0  0  0  0  0  0  0  0  0  0  0
  -24.5570  -31.7750   23.0690 C   0  0  0  0  0  0  0  0  0  0  0  0
  -27.0810  -27.6460   19.4830 C   0  0  0  0  0  0  0  0  0  0  0  0
  -23.2810  -30.5000   21.3800 C   0  0  0  0  0  3  0  0  0  0  0  0
  -24.6700  -29.1090   19.7640 C   0  0  0  0  0  0  0  0  0  0  0  0
  -25.7940  -30.9020   21.0900 C   0  0  0  0  0  2  0  0  0  0  0  0
  -25.8550  -29.5940   20.3320 C   0  0  0  0  0  0  0  0  0  0  0  0
  -27.0610  -28.8680   20.1900 C   0  0  0  0  0  3  0  0  0  0  0  0
  -25.8670  -27.1770   18.9200 C   0  0  0  0  0  3  0  0  0  0  0  0
  -24.6700  -27.8940   19.0630 C   0  0  0  0  0  3  0  0  0  0  0  0
  -23.4240  -29.9430   19.9390 C   0  0  0  0  0  2  0  0  0  0  0  0
  -24.5660  -31.0670   21.9030 N   0  0  0  0  0  0  0  0  0  0  0  0
  -23.5010  -31.9850   23.6810 O   0  0  0  0  0  0  0  0  0  0  0  0
  -22.6910  -29.3910   22.2810 C   0  0  0  0  0  0  0  0  0  0  0  0
  -21.3680  -29.1830   22.1800 N   0  0  0  0  0  0  0  0  0  0  0  0
  -23.4170  -28.7260   23.0240 O   0  0  0  0  0  0  0  0  0  0  0  0
  -20.8460  -29.7670   21.5440 H   0  0  0  0  0  0  0  0  0  0  0  0
  -18.0510  -27.8320   22.6430 C   0  0  0  0  0  0  0  0  0  0  0  0
  -20.6010  -28.1720   22.9040 C   0  0  0  0  0  3  0  0  0  0  0  0
  -20.7520  -26.7820   22.2450 C   0  0  0  0  0  2  0  0  0  0  0  0
  -19.6520  -26.4780   21.2240 C   0  0  0  0  0  2  0  0  0  0  0  0
  -18.2740  -26.5310   21.8900 C   0  0  0  0  0  2  0  0  0  0  0  0
  -19.1450  -28.6090   23.1050 C   0  0  0  0  0  0  0  0  0  0  0  0
  -18.8880  -29.8290   23.7690 C   0  0  0  0  0  3  0  0  0  0  0  0
  -17.5680  -30.2700   23.9780 C   0  0  0  0  0  3  0  0  0  0  0  0
  -16.4880  -29.4870   23.5330 C   0  0  0  0  0  3  0  0  0  0  0  0
  -16.7300  -28.2700   22.8690 C   0  0  0  0  0  3  0  0  0  0  0  0
  -25.8670  -32.3690   23.6740 C   0  0  0  0  0  3  0  0  0  0  0  0
  -26.4730  -31.4820   24.8300 C   0  0  1  0  0  0  0  0  0  0  0  0
  -25.4530  -31.1180   25.9330 C   0  0  0  0  0  1  0  0  0  0  0  0
  -27.0470  -30.1630   24.2640 C   0  0  0  0  0  1  0  0  0  0  0  0
  -27.6530  -32.2280   25.4960 C   0  0  0  0  0  1  0  0  0  0  0  0
  -25.5580  -33.7180   24.1610 N   0  0  0  0  0  0  0  0  0  0  0  0
  -25.8330  -34.8470   23.4960 C   0  0  0  0  0  0  0  0  0  0  0  0
  -26.4490  -34.8650   22.4270 O   0  0  0  0  0  0  0  0  0  0  0  0
  -24.9920  -33.7770   24.9950 H   0  0  0  0  0  0  0  0  0  0  0  0
  -24.0520  -36.6220   23.4210 C   0  0  0  0  0  1  0  0  0  0  0  0
  -25.3480  -36.1720   24.1150 C   0  0  0  0  0  3  0  0  0  0  0  0
  -27.5120  -37.0180   24.9050 C   0  0  0  0  0  1  0  0  0  0  0  0
  -26.3540  -37.2550   24.0490 N   0  0  0  0  0  0  0  0  0  0  0  0
  -25.9400  -38.1460   24.3140 H   0  0  0  0  0  0  0  0  0  0  0  0
  -27.0770  -22.0540   21.4140 C   0  0  0  0  0  2  0  0  0  0  0  0
  -28.4810  -21.4380   21.2080 C   0  0  0  0  0  2  0  0  0  0  0  0
  -28.4880  -20.0180   20.6210 C   0  0  0  0  0  2  0  0  0  0  0  0
  -29.8150  -19.2810   20.8640 C   0  0  0  0  0  2  0  0  0  0  0  0
  -29.6620  -17.7750   20.5970 C   0  0  0  0  0  2  0  0  0  0  0  0
  -30.9130  -16.9320   20.8970 C   0  0  0  0  0  2  0  0  0  0  0  0
  -31.1370  -14.5690   20.0860 C   0  0  0  0  0  0  0  0  0  0  0  0
  -30.7650  -12.3810   19.0140 C   0  0  0  0  0  2  0  0  0  0  0  0
  -29.8060  -12.5500   17.8220 C   0  0  0  0  0  2  0  0  0  0  0  0
  -28.3400  -12.4510   18.2880 C   0  0  0  0  0  2  0  0  0  0  0  0
  -28.0390  -13.3810   19.4960 C   0  0  0  0  0  3  0  0  0  0  0  0
  -29.0990  -13.1740   20.6000 C   0  0  0  0  0  2  0  0  0  0  0  0
  -30.4320  -13.4120   20.0070 N   0  0  0  0  0  0  0  0  0  0  0  0
  -32.1870  -14.7760   19.4680 O   0  0  0  0  0  0  0  0  0  0  0  0
  -30.5600  -15.5160   20.8330 N   0  0  0  0  0  0  0  0  0  0  0  0
  -29.7130  -15.2350   21.3020 H   0  0  0  0  0  0  0  0  0  0  0  0
  -25.6840  -14.1160   20.2580 C   0  0  0  0  0  0  0  0  0  0  0  0
  -24.5840  -13.3970   20.6530 C   0  0  0  0  0  0  0  0  0  0  0  0
  -24.9760  -12.0260   20.6080 C   0  0  0  0  0  0  0  0  0  0  0  0
  -26.6780  -13.1810   20.0030 N   0  0  0  0  0  0  0  0  0  0  0  0
  -26.2540  -11.9180   20.2650 N   0  0  0  0  0  0  0  0  0  0  0  0
  -24.1920  -10.7990   20.8160 C   0  0  0  0  0  0  0  0  0  0  0  0
  -24.5970   -9.8040   21.7330 C   0  0  0  0  0  3  0  0  0  0  0  0
  -23.8180   -8.6430   21.9240 C   0  0  0  0  0  3  0  0  0  0  0  0
  -22.6150   -8.4680   21.1980 C   0  0  0  0  0  0  0  0  0  0  0  0
  -22.2280   -9.4480   20.2670 C   0  0  0  0  0  3  0  0  0  0  0  0
  -23.0090  -10.6010   20.0730 C   0  0  0  0  0  3  0  0  0  0  0  0
  -21.8070   -7.3600   21.3010 O   0  0  0  0  0  0  0  0  0  0  0  0
  -21.7410   -6.6220   22.4560 C   0  0  0  0  0  0  0  0  0  0  0  0
  -21.3840   -7.2030   23.6930 C   0  0  0  0  0  3  0  0  0  0  0  0
  -21.2610   -6.3950   24.8410 C   0  0  0  0  0  3  0  0  0  0  0  0
  -21.4850   -5.0080   24.7530 C   0  0  0  0  0  0  0  0  0  0  0  0
  -21.8330   -4.4270   23.5210 C   0  0  0  0  0  3  0  0  0  0  0  0
  -21.9590   -5.2330   22.3750 C   0  0  0  0  0  0  0  0  0  0  0  0
  -22.2730   -4.6640   21.1870 F   0  0  0  0  0  0  0  0  0  0  0  0
  -21.3610   -4.2300   25.8540 F   0  0  0  0  0  0  0  0  0  0  0  0
  -23.2200  -13.9420   20.9740 C   0  0  0  0  0  0  0  0  0  0  0  0
  -22.4860  -13.2830   21.8660 N   0  0  0  0  0  0  0  0  0  0  0  0
  -22.8140  -14.9860   20.4640 O   0  0  0  0  0  0  0  0  0  0  0  0
  -22.8220  -12.4360   22.3010 H   0  0  0  0  0  0  0  0  0  0  0  0
  -21.5710  -13.6310   22.1180 H   0  0  0  0  0  0  0  0  0  0  0  0
  -25.9210  -15.4750   20.0770 N   0  0  0  0  0  0  0  0  0  0  0  0
  -25.2170  -16.1910   20.2140 H   0  0  0  0  0  0  0  0  0  0  0  0
  -26.8050  -15.8540   19.7600 H   0  0  0  0  0  0  0  0  0  0  0  0
  1  2  1  0
  2  3  1  1
  2 48  1  0
  4  5  1  0
  4  2  1  0
  6  7  1  0
  6  5  1  0
  7  9  1  0
  8 19  2  0
  9 14  1  0
 10 18  1  0
 10 20  1  0
 11 17  1  0
 11 13  1  0
 12 18  1  0
 13 12  1  0
 14 13  2  0
 15 16  1  0
 15  9  2  0
 16 11  2  0
 17 10  1  0
 18  8  1  0
 20 22  2  0
 21 20  1  0
 23 21  1  0
 24 33  2  0
 24 29  1  0
 25 21  1  0
 25 29  1  0
 26 25  1  0
 27 28  1  0
 27 26  1  0
 28 24  1  0
 29 30  2  0
 30 31  1  0
 32 31  2  0
 33 32  1  0
 34  8  1  0
 34 39  1  0
 34 35  1  0
 35 38  1  1
 35 36  1  0
 37 35  1  0
 39 42  1  0
 40 44  1  0
 40 39  1  0
 41 40  2  0
 44 43  1  0
 46 44  1  0
 46 47  1  0
 46 45  1  0
 49 48  1  0
 50 51  1  0
 50 49  1  0
 52 51  1  0
 52 53  1  0
 54 62  1  0
 55 60  1  0
 56 57  1  0
 56 55  1  0
 58 57  1  0
 58 67  1  0
 58 59  1  0
 60 54  1  0
 60 59  1  0
 61 54  2  0
 62 53  1  0
 62 63  1  0
 64 65  2  0
 65 84  1  0
 66 65  1  0
 66 69  1  0
 67 64  1  0
 67 68  1  0
 68 66  2  0
 69 70  1  0
 70 71  2  0
 72 75  1  0
 72 71  1  0
 73 72  2  0
 74 73  1  0
 74 69  2  0
 75 76  1  0
 76 77  1  0
 77 78  2  0
 79 78  1  0
 79 83  1  0
 80 79  2  0
 81 76  2  0
 81 80  1  0
 82 81  1  0
 84 85  1  0
 85 88  1  0
 85 87  1  0
 86 84  2  0
 89 90  1  0
 89 64  1  0
 91 89  1  0
M  ISO  4   6 101   7 101  54 100  62 100
M  END
>  <TORSDO>  (24) 
F 25

>  <SCORE>  (24) 
-10.547

>  <name>  (24) 
26

>  <ligand_id>  (24) 
26

>  <original_smiles>  (24) 
[H]c1c([H])c([H])c2c(c1[H])C([H])([H])C([H])([H])C([H])([H])C2([H])N([H])C(=O)C1([H])N(C(=O)C([H])(N([H])C(=O)C([H])(N([H])C([H])([H])[H])C([H])([H])[H])C(C([H])([H])[H])(C([H])([H])[H])C([H])([H])[H])C([H])([H])c2c([H])c(OC([H])([H])C([H])([H])C([H])([H])[N+]([H])(C([H])([H])[H])C([H])([H])C([H])([H])C([H])([H])C([H])([H])C([H])([H])C([H])([H])N([H])C(=O)N3C([H])([H])C([H])([H])C([H])([H])C([H])(n4nc(-c5c([H])c([H])c(Oc6c([H])c([H])c(F)c([H])c6F)c([H])c5[H])c(C(=O)N([H])[H])c4N([H])[H])C3([H])[H])c([H])c([H])c2C1([H])[H]

>  <smiles>  (24) 
[H]c1c([H])c([H])c2c(c1[H])C([H])([H])C([H])([H])C([H])([H])C2([H])N([H])C(=O)C1([H])N(C(=O)C([H])(N([H])C(=O)C([H])(N([H])C([H])([H])[H])C([H])([H])[H])C(C([H])([H])[H])(C([H])([H])[H])C([H])([H])[H])C([H])([H])c2c([H])c(OC([H])([H])C([H])([H])C([H])([H])[N+]([H])(C([H])([H])[H])C([H])([H])C([H])([H])C([H])([H])C([H])([H])C([H])([H])C([H])([H])N([H])C(=O)N3C([H])([H])C([H])([H])C([H])([H])C([H])(n4nc(-c5c([H])c([H])c(Oc6c([H])c([H])c(F)c([H])c6F)c([H])c5[H])c(C(=O)N([H])[H])c4N([H])[H])C3([H])[H])c([H])c([H])c2C1([H])[H]

$$$$
27:0:0
     RDKit          3D

 92 99  0  0  1  0  0  0  0  0999 V2000
  -29.4410  -21.9090   20.8240 C   0  0  0  0  0  3  0  0  0  0  0  0
  -29.3450  -22.9860   19.7900 N   0  0  0  0  0  4  0  0  0  0  0  0
  -30.0640  -22.8060   19.1060 H   0  0  0  0  0  0  0  0  0  0  0  0
  -28.4640  -22.8880   19.3140 H   0  0  0  0  0  0  0  0  0  0  0  0
  -29.5140  -24.4120   20.2210 C   0  0  0  0  0  2  0  0  0  0  0  0
  -28.2780  -25.2740   19.8620 C   0  0  0  0  0  2  0  0  0  0  0  0
  -28.4070  -26.6850   20.1490 O   0  0  0  0  0  0  0  0  0  0  0  0
  -24.6040  -31.8870   23.2230 C   0  0  0  0  0  0  0  0  0  0  0  0
  -27.2400  -27.4390   20.1170 C   0  0  0  0  0  0  0  0  0  0  0  0
  -23.3980  -30.4990   21.5720 C   0  0  0  0  0  3  0  0  0  0  0  0
  -24.8490  -28.9740   20.1370 C   0  0  0  0  0  0  0  0  0  0  0  0
  -25.9280  -30.8490   21.3830 C   0  0  0  0  0  2  0  0  0  0  0  0
  -26.0120  -29.4820   20.7300 C   0  0  0  0  0  0  0  0  0  0  0  0
  -27.2080  -28.7230   20.7170 C   0  0  0  0  0  3  0  0  0  0  0  0
  -26.0540  -26.9610   19.5080 C   0  0  0  0  0  3  0  0  0  0  0  0
  -24.8670  -27.7150   19.5220 C   0  0  0  0  0  3  0  0  0  0  0  0
  -23.6060  -29.8340   20.1880 C   0  0  0  0  0  2  0  0  0  0  0  0
  -24.6620  -31.0930   22.1170 N   0  0  0  0  0  0  0  0  0  0  0  0
  -23.5220  -32.1590   23.7640 O   0  0  0  0  0  0  0  0  0  0  0  0
  -22.7440  -29.4710   22.5240 C   0  0  0  0  0  0  0  0  0  0  0  0
  -21.4200  -29.2870   22.3900 N   0  0  0  0  0  0  0  0  0  0  0  0
  -23.4240  -28.8420   23.3390 O   0  0  0  0  0  0  0  0  0  0  0  0
  -20.9320  -29.8470   21.7040 H   0  0  0  0  0  0  0  0  0  0  0  0
  -18.0460  -28.0790   22.8570 C   0  0  0  0  0  0  0  0  0  0  0  0
  -20.6000  -28.3450   23.1520 C   0  0  0  0  0  3  0  0  0  0  0  0
  -20.7130  -26.9150   22.5740 C   0  0  0  0  0  2  0  0  0  0  0  0
  -19.6210  -26.5910   21.5500 C   0  0  0  0  0  2  0  0  0  0  0  0
  -18.2330  -26.7300   22.1820 C   0  0  0  0  0  2  0  0  0  0  0  0
  -19.1590  -28.8430   23.2980 C   0  0  0  0  0  0  0  0  0  0  0  0
  -18.9320  -30.1050   23.8890 C   0  0  0  0  0  3  0  0  0  0  0  0
  -17.6260  -30.6040   24.0440 C   0  0  0  0  0  3  0  0  0  0  0  0
  -16.5270  -29.8370   23.6210 C   0  0  0  0  0  3  0  0  0  0  0  0
  -16.7380  -28.5760   23.0340 C   0  0  0  0  0  3  0  0  0  0  0  0
  -25.8890  -32.5130   23.8480 C   0  0  0  0  0  3  0  0  0  0  0  0
  -26.4050  -31.7330   25.1190 C   0  0  1  0  0  0  0  0  0  0  0  0
  -25.3120  -31.4930   26.1850 C   0  0  0  0  0  1  0  0  0  0  0  0
  -26.9850  -30.3570   24.7170 C   0  0  0  0  0  1  0  0  0  0  0  0
  -27.5570  -32.5220   25.7850 C   0  0  0  0  0  1  0  0  0  0  0  0
  -25.5820  -33.9090   24.1840 N   0  0  0  0  0  0  0  0  0  0  0  0
  -25.9160  -34.9640   23.4270 C   0  0  0  0  0  0  0  0  0  0  0  0
  -26.5850  -34.8640   22.3950 O   0  0  0  0  0  0  0  0  0  0  0  0
  -24.9890  -34.0620   24.9850 H   0  0  0  0  0  0  0  0  0  0  0  0
  -24.1860  -36.7580   23.0810 C   0  0  0  0  0  1  0  0  0  0  0  0
  -25.4280  -36.3510   23.8900 C   0  0  0  0  0  3  0  0  0  0  0  0
  -27.5640  -37.2310   24.7190 C   0  0  0  0  0  1  0  0  0  0  0  0
  -26.4600  -37.4050   23.7800 N   0  0  0  0  0  0  0  0  0  0  0  0
  -26.0550  -38.3240   23.9340 H   0  0  0  0  0  0  0  0  0  0  0  0
  -28.1510  -21.8610   21.6850 C   0  0  0  0  0  2  0  0  0  0  0  0
  -27.9470  -23.0410   22.4430 O   0  0  0  0  0  0  0  0  0  0  0  0
  -27.1790  -22.9070   22.9890 H   0  0  0  0  0  0  0  0  0  0  0  0
  -29.6700  -20.5140   20.1480 C   0  0  0  0  0  2  0  0  0  0  0  0
  -30.1910  -19.3720   21.0720 C   0  0  0  0  0  2  0  0  0  0  0  0
  -29.9500  -17.9360   20.5260 C   0  0  0  0  0  2  0  0  0  0  0  0
  -30.5790  -16.8180   21.4020 C   0  0  0  0  0  2  0  0  0  0  0  0
  -30.7070  -14.4930   20.4130 C   0  0  0  0  0  0  0  0  0  0  0  0
  -30.3600  -12.3590   19.2140 C   0  0  0  0  0  2  0  0  0  0  0  0
  -29.4050  -12.5800   18.0230 C   0  0  0  0  0  2  0  0  0  0  0  0
  -27.9360  -12.4500   18.4690 C   0  0  0  0  0  2  0  0  0  0  0  0
  -27.6210  -13.2810   19.7420 C   0  0  0  0  0  3  0  0  0  0  0  0
  -28.6860  -13.0370   20.8360 C   0  0  0  0  0  2  0  0  0  0  0  0
  -30.0080  -13.3340   20.2580 N   0  0  0  0  0  0  0  0  0  0  0  0
  -31.8100  -14.6860   19.8940 O   0  0  0  0  0  0  0  0  0  0  0  0
  -30.0760  -15.4680   21.0920 N   0  0  0  0  0  0  0  0  0  0  0  0
  -29.1670  -15.2260   21.4590 H   0  0  0  0  0  0  0  0  0  0  0  0
  -25.2290  -13.9040   20.4620 C   0  0  0  0  0  0  0  0  0  0  0  0
  -24.1590  -13.1380   20.8410 C   0  0  0  0  0  0  0  0  0  0  0  0
  -24.6140  -11.7850   20.8170 C   0  0  0  0  0  0  0  0  0  0  0  0
  -26.2690  -13.0170   20.2320 N   0  0  0  0  0  0  0  0  0  0  0  0
  -25.9020  -11.7380   20.5020 N   0  0  0  0  0  0  0  0  0  0  0  0
  -23.8830  -10.5270   21.0190 C   0  0  0  0  0  0  0  0  0  0  0  0
  -24.3240   -9.5570   21.9470 C   0  0  0  0  0  3  0  0  0  0  0  0
  -23.5940   -8.3640   22.1360 C   0  0  0  0  0  3  0  0  0  0  0  0
  -22.4090   -8.1330   21.3990 C   0  0  0  0  0  0  0  0  0  0  0  0
  -21.9870   -9.0910   20.4600 C   0  0  0  0  0  3  0  0  0  0  0  0
  -22.7190  -10.2750   20.2680 C   0  0  0  0  0  3  0  0  0  0  0  0
  -21.6480   -6.9920   21.4970 O   0  0  0  0  0  0  0  0  0  0  0  0
  -21.6190   -6.2440   22.6480 C   0  0  0  0  0  0  0  0  0  0  0  0
  -21.2280   -6.7990   23.8870 C   0  0  0  0  0  3  0  0  0  0  0  0
  -21.1450   -5.9790   25.0300 C   0  0  0  0  0  3  0  0  0  0  0  0
  -21.4420   -4.6060   24.9350 C   0  0  0  0  0  0  0  0  0  0  0  0
  -21.8260   -4.0520   23.7020 C   0  0  0  0  0  3  0  0  0  0  0  0
  -21.9110   -4.8680   22.5600 C   0  0  0  0  0  0  0  0  0  0  0  0
  -22.2610   -4.3250   21.3700 F   0  0  0  0  0  0  0  0  0  0  0  0
  -21.3550   -3.8160   26.0310 F   0  0  0  0  0  0  0  0  0  0  0  0
  -22.7660  -13.6240   21.1210 C   0  0  0  0  0  0  0  0  0  0  0  0
  -22.0420  -12.9360   21.9970 N   0  0  0  0  0  0  0  0  0  0  0  0
  -22.3280  -14.6470   20.5970 O   0  0  0  0  0  0  0  0  0  0  0  0
  -22.4100  -12.1070   22.4410 H   0  0  0  0  0  0  0  0  0  0  0  0
  -21.1080  -13.2430   22.2300 H   0  0  0  0  0  0  0  0  0  0  0  0
  -25.3990  -15.2720   20.2750 N   0  0  0  0  0  0  0  0  0  0  0  0
  -24.6370  -15.9330   20.3820 H   0  0  0  0  0  0  0  0  0  0  0  0
  -26.2530  -15.7040   19.9430 H   0  0  0  0  0  0  0  0  0  0  0  0
  1 51  1  0
  1 48  1  0
  2  5  1  0
  2  1  1  0
  3  2  1  0
  4  2  1  0
  6  7  1  0
  6  5  1  0
  8 19  2  0
  9  7  1  0
  9 14  1  0
 10 18  1  0
 10 20  1  0
 11 17  1  0
 11 13  1  0
 12 18  1  0
 13 12  1  0
 14 13  2  0
 15 16  1  0
 15  9  2  0
 16 11  2  0
 17 10  1  0
 18  8  1  0
 20 22  2  0
 21 20  1  0
 23 21  1  0
 24 33  2  0
 24 29  1  0
 25 21  1  0
 25 29  1  0
 26 25  1  0
 27 28  1  0
 27 26  1  0
 28 24  1  0
 29 30  2  0
 30 31  1  0
 32 31  2  0
 33 32  1  0
 34  8  1  0
 34 39  1  0
 34 35  1  0
 35 38  1  1
 35 36  1  0
 37 35  1  0
 39 42  1  0
 40 44  1  0
 40 39  1  0
 41 40  2  0
 44 43  1  0
 46 44  1  0
 46 47  1  0
 46 45  1  0
 48 49  1  0
 49 50  1  0
 51 52  1  0
 53 52  1  0
 53 54  1  0
 55 63  1  0
 56 61  1  0
 57 58  1  0
 57 56  1  0
 59 58  1  0
 59 68  1  0
 59 60  1  0
 61 55  1  0
 61 60  1  0
 62 55  2  0
 63 54  1  0
 63 64  1  0
 65 66  2  0
 66 85  1  0
 67 66  1  0
 67 70  1  0
 68 65  1  0
 68 69  1  0
 69 67  2  0
 70 71  1  0
 71 72  2  0
 73 76  1  0
 73 72  1  0
 74 73  2  0
 75 74  1  0
 75 70  2  0
 76 77  1  0
 77 78  1  0
 78 79  2  0
 80 79  1  0
 80 84  1  0
 81 80  2  0
 82 77  2  0
 82 81  1  0
 83 82  1  0
 85 86  1  0
 86 89  1  0
 86 88  1  0
 87 85  2  0
 90 91  1  0
 90 65  1  0
 92 90  1  0
M  ISO  4   6 101   7 101  55 100  63 100
M  END
>  <TORSDO>  (25) 
F 25

>  <SCORE>  (25) 
-12.360

>  <name>  (25) 
27

>  <ligand_id>  (25) 
27

>  <original_smiles>  (25) 
[H]OC([H])([H])C([H])(C([H])([H])C([H])([H])C([H])([H])C([H])([H])N([H])C(=O)N1C([H])([H])C([H])([H])C([H])([H])C([H])(n2nc(-c3c([H])c([H])c(Oc4c([H])c([H])c(F)c([H])c4F)c([H])c3[H])c(C(=O)N([H])[H])c2N([H])[H])C1([H])[H])[N+]([H])([H])C([H])([H])C([H])([H])Oc1c([H])c([H])c2c(c1[H])C([H])([H])N(C(=O)C([H])(N([H])C(=O)C([H])(N([H])C([H])([H])[H])C([H])([H])[H])C(C([H])([H])[H])(C([H])([H])[H])C([H])([H])[H])C([H])(C(=O)N([H])C1([H])c3c([H])c([H])c([H])c([H])c3C([H])([H])C([H])([H])C1([H])[H])C2([H])[H]

>  <smiles>  (25) 
[H]OC([H])([H])C([H])(C([H])([H])C([H])([H])C([H])([H])C([H])([H])N([H])C(=O)N1C([H])([H])C([H])([H])C([H])([H])C([H])(n2nc(-c3c([H])c([H])c(Oc4c([H])c([H])c(F)c([H])c4F)c([H])c3[H])c(C(=O)N([H])[H])c2N([H])[H])C1([H])[H])[N+]([H])([H])C([H])([H])C([H])([H])Oc1c([H])c([H])c2c(c1[H])C([H])([H])N(C(=O)C([H])(N([H])C(=O)C([H])(N([H])C([H])([H])[H])C([H])([H])[H])C(C([H])([H])[H])(C([H])([H])[H])C([H])([H])[H])C([H])(C(=O)N([H])C1([H])c3c([H])c([H])c([H])c([H])c3C([H])([H])C([H])([H])C1([H])[H])C2([H])[H]

$$$$
28:0:0
     RDKit          3D

101109  0  0  1  0  0  0  0  0999 V2000
  -26.8840  -25.0100   21.2290 C   0  0  0  0  0  2  0  0  0  0  0  0
  -26.9340  -26.6010   24.7210 C   0  0  0  0  0  3  0  0  0  0  0  0
  -28.1950  -27.2040   24.7620 C   0  0  0  0  0  3  0  0  0  0  0  0
  -26.5500  -25.8700   23.5900 C   0  0  0  0  0  3  0  0  0  0  0  0
  -29.0890  -27.0690   23.6840 C   0  0  0  0  0  0  0  0  0  0  0  0
  -27.4240  -25.6960   22.4930 C   0  0  0  0  0  0  0  0  0  0  0  0
  -28.7260  -26.2930   22.5410 C   0  0  0  0  0  0  0  0  0  0  0  0
  -30.3990  -27.8390   23.7910 C   0  0  0  0  0  1  0  0  0  0  0  0
  -29.7340  -26.1390   21.3930 C   0  0  0  0  0  2  0  0  0  0  0  0
  -29.6750  -27.2600   20.3370 C   0  0  0  0  0  2  0  0  0  0  0  0
  -28.5500  -27.0890   19.4720 O   0  0  0  0  0  0  0  0  0  0  0  0
  -24.5970  -31.8010   23.1580 C   0  0  0  0  0  0  0  0  0  0  0  0
  -27.3910  -27.8150   19.6460 C   0  0  0  0  0  0  0  0  0  0  0  0
  -23.4180  -30.5020   21.4080 C   0  0  0  0  0  3  0  0  0  0  0  0
  -24.9140  -29.1690   19.8300 C   0  0  0  0  0  0  0  0  0  0  0  0
  -25.9160  -30.9950   21.2110 C   0  0  0  0  0  2  0  0  0  0  0  0
  -26.0510  -29.6910   20.4610 C   0  0  0  0  0  0  0  0  0  0  0  0
  -27.2850  -29.0140   20.3880 C   0  0  0  0  0  3  0  0  0  0  0  0
  -26.2450  -27.3250   18.9860 C   0  0  0  0  0  3  0  0  0  0  0  0
  -25.0030  -27.9740   19.0990 C   0  0  0  0  0  3  0  0  0  0  0  0
  -23.6320  -29.9570   19.9690 C   0  0  0  0  0  2  0  0  0  0  0  0
  -24.6610  -31.1100   21.9860 N   0  0  0  0  0  0  0  0  0  0  0  0
  -23.5150  -31.9750   23.7370 O   0  0  0  0  0  0  0  0  0  0  0  0
  -22.8300  -29.3700   22.2810 C   0  0  0  0  0  0  0  0  0  0  0  0
  -21.5080  -29.1580   22.1710 N   0  0  0  0  0  0  0  0  0  0  0  0
  -23.5550  -28.6930   23.0130 O   0  0  0  0  0  0  0  0  0  0  0  0
  -20.9810  -29.7670   21.5610 H   0  0  0  0  0  0  0  0  0  0  0  0
  -18.1880  -27.8130   22.6120 C   0  0  0  0  0  0  0  0  0  0  0  0
  -20.7420  -28.1230   22.8640 C   0  0  0  0  0  3  0  0  0  0  0  0
  -20.8760  -26.7570   22.1500 C   0  0  0  0  0  2  0  0  0  0  0  0
  -19.7630  -26.4970   21.1320 C   0  0  0  0  0  2  0  0  0  0  0  0
  -18.3900  -26.5380   21.8110 C   0  0  0  0  0  2  0  0  0  0  0  0
  -19.2920  -28.5650   23.0930 C   0  0  0  0  0  0  0  0  0  0  0  0
  -19.0470  -29.7590   23.8030 C   0  0  0  0  0  3  0  0  0  0  0  0
  -17.7320  -30.2020   24.0390 C   0  0  0  0  0  3  0  0  0  0  0  0
  -16.6430  -29.4420   23.5790 C   0  0  0  0  0  3  0  0  0  0  0  0
  -16.8720  -28.2500   22.8700 C   0  0  0  0  0  3  0  0  0  0  0  0
  -25.8680  -32.4290   23.8100 C   0  0  0  0  0  3  0  0  0  0  0  0
  -25.5530  -33.8220   24.1460 N   0  0  0  0  0  0  0  0  0  0  0  0
  -25.9260  -34.8820   23.4170 C   0  0  0  0  0  0  0  0  0  0  0  0
  -26.6400  -34.7880   22.4150 O   0  0  0  0  0  0  0  0  0  0  0  0
  -24.9220  -33.9670   24.9200 H   0  0  0  0  0  0  0  0  0  0  0  0
  -24.2290  -36.6900   22.9990 C   0  0  0  0  0  1  0  0  0  0  0  0
  -25.4230  -36.2660   23.8690 C   0  0  0  0  0  3  0  0  0  0  0  0
  -27.5200  -37.1150   24.8190 C   0  0  0  0  0  1  0  0  0  0  0  0
  -26.4650  -37.3150   23.8310 N   0  0  0  0  0  0  0  0  0  0  0  0
  -26.0580  -38.2320   23.9890 H   0  0  0  0  0  0  0  0  0  0  0  0
  -26.3620  -31.6430   25.0860 C   0  0  1  0  0  0  0  0  0  0  0  0
  -25.2430  -31.3810   26.1220 C   0  0  0  0  0  1  0  0  0  0  0  0
  -26.9710  -30.2820   24.6790 C   0  0  0  0  0  1  0  0  0  0  0  0
  -27.4860  -32.4350   25.7930 C   0  0  0  0  0  1  0  0  0  0  0  0
  -26.2040  -23.6270   21.3530 C   0  0  0  0  0  2  0  0  0  0  0  0
  -26.7510  -22.5400   20.4230 C   0  0  0  0  0  2  0  0  0  0  0  0
  -28.2810  -22.4620   20.3740 C   0  0  0  0  0  2  0  0  0  0  0  0
  -28.6960  -21.1200   19.9250 N   0  0  0  0  0  4  0  0  0  0  0  0
  -27.9180  -20.7030   19.4400 H   0  0  0  0  0  0  0  0  0  0  0  0
  -28.8820  -20.5490   20.7360 H   0  0  0  0  0  0  0  0  0  0  0  0
  -29.8670  -21.0930   19.0320 C   0  0  0  0  0  2  0  0  0  0  0  0
  -30.5540  -19.7210   19.0710 C   0  0  0  0  0  2  0  0  0  0  0  0
  -32.0800  -19.8150   18.9310 C   0  0  0  0  0  2  0  0  0  0  0  0
  -32.8150  -18.6550   19.6190 C   0  0  0  0  0  2  0  0  0  0  0  0
  -32.9390  -17.4080   18.7300 C   0  0  0  0  0  2  0  0  0  0  0  0
  -33.5270  -16.2030   19.4790 C   0  0  0  0  0  2  0  0  0  0  0  0
  -32.5890  -13.9100   19.3180 C   0  0  0  0  0  0  0  0  0  0  0  0
  -32.2170  -11.6320   20.1610 C   0  0  0  0  0  2  0  0  0  0  0  0
  -31.3240  -10.7560   19.2710 C   0  0  0  0  0  2  0  0  0  0  0  0
  -29.8440  -10.9610   19.6290 C   0  0  0  0  0  2  0  0  0  0  0  0
  -29.4460  -12.4590   19.6630 C   0  0  0  0  0  3  0  0  0  0  0  0
  -30.4480  -13.2960   20.4950 C   0  0  0  0  0  2  0  0  0  0  0  0
  -31.8190  -13.0400   20.0140 N   0  0  0  0  0  0  0  0  0  0  0  0
  -33.4710  -13.5550   18.5290 O   0  0  0  0  0  0  0  0  0  0  0  0
  -32.5180  -15.1760   19.7530 N   0  0  0  0  0  0  0  0  0  0  0  0
  -31.8230  -15.3780   20.4570 H   0  0  0  0  0  0  0  0  0  0  0  0
  -27.3530  -13.7910   20.3630 C   0  0  0  0  0  0  0  0  0  0  0  0
  -26.0950  -13.3910   20.7300 C   0  0  0  0  0  0  0  0  0  0  0  0
  -26.1080  -11.9640   20.6980 C   0  0  0  0  0  0  0  0  0  0  0  0
  -28.0710  -12.6270   20.1370 N   0  0  0  0  0  0  0  0  0  0  0  0
  -27.3220  -11.5220   20.3920 N   0  0  0  0  0  0  0  0  0  0  0  0
  -25.0210  -10.9940   20.8860 C   0  0  0  0  0  0  0  0  0  0  0  0
  -25.1710   -9.8710   21.7300 C   0  0  0  0  0  3  0  0  0  0  0  0
  -24.1050   -8.9630   21.9100 C   0  0  0  0  0  3  0  0  0  0  0  0
  -22.8740   -9.1730   21.2460 C   0  0  0  0  0  0  0  0  0  0  0  0
  -22.7370  -10.2800   20.3890 C   0  0  0  0  0  3  0  0  0  0  0  0
  -23.8010  -11.1800   20.2070 C   0  0  0  0  0  3  0  0  0  0  0  0
  -21.7940   -8.3300   21.3400 O   0  0  0  0  0  0  0  0  0  0  0  0
  -21.6420   -7.4670   22.3960 C   0  0  0  0  0  0  0  0  0  0  0  0
  -21.5480   -7.9290   23.7280 C   0  0  0  0  0  3  0  0  0  0  0  0
  -21.3240   -7.0120   24.7750 C   0  0  0  0  0  3  0  0  0  0  0  0
  -21.1850   -5.6410   24.4940 C   0  0  0  0  0  0  0  0  0  0  0  0
  -21.2730   -5.1810   23.1700 C   0  0  0  0  0  3  0  0  0  0  0  0
  -21.4980   -6.0920   22.1230 C   0  0  0  0  0  0  0  0  0  0  0  0
  -21.5610   -5.6460   20.8450 F   0  0  0  0  0  0  0  0  0  0  0  0
  -20.9620   -4.7620   25.4990 F   0  0  0  0  0  0  0  0  0  0  0  0
  -24.9170  -14.2830   21.0010 C   0  0  0  0  0  0  0  0  0  0  0  0
  -24.0390  -13.8810   21.9130 N   0  0  0  0  0  0  0  0  0  0  0  0
  -24.7940  -15.3700   20.4360 O   0  0  0  0  0  0  0  0  0  0  0  0
  -24.1510  -13.0000   22.3940 H   0  0  0  0  0  0  0  0  0  0  0  0
  -23.2440  -14.4620   22.1340 H   0  0  0  0  0  0  0  0  0  0  0  0
  -27.9380  -15.0410   20.1870 N   0  0  0  0  0  0  0  0  0  0  0  0
  -27.4140  -15.9030   20.2940 H   0  0  0  0  0  0  0  0  0  0  0  0
  -28.8880  -15.1890   19.8690 H   0  0  0  0  0  0  0  0  0  0  0  0
  1 52  1  0
  1  6  1  0
  2  3  1  0
  4  2  2  0
  5  8  1  0
  5  3  2  0
  6  7  2  0
  6  4  1  0
  7  5  1  0
  9  7  1  0
 10  9  1  0
 11 13  1  0
 11 10  1  0
 12 23  2  0
 13 18  1  0
 14 22  1  0
 14 24  1  0
 15 21  1  0
 15 17  1  0
 16 22  1  0
 17 16  1  0
 18 17  2  0
 19 20  1  0
 19 13  2  0
 20 15  2  0
 21 14  1  0
 22 12  1  0
 24 26  2  0
 25 24  1  0
 27 25  1  0
 28 37  2  0
 28 33  1  0
 29 25  1  0
 29 33  1  0
 30 29  1  0
 31 32  1  0
 31 30  1  0
 32 28  1  0
 33 34  2  0
 34 35  1  0
 36 35  2  0
 37 36  1  0
 38 12  1  0
 38 39  1  0
 38 48  1  0
 39 42  1  0
 40 44  1  0
 40 39  1  0
 41 40  2  0
 44 43  1  0
 46 44  1  0
 46 47  1  0
 46 45  1  0
 48 51  1  1
 48 49  1  0
 50 48  1  0
 53 52  1  0
 54 53  1  0
 55 54  1  0
 55 57  1  0
 56 55  1  0
 58 59  1  0
 58 55  1  0
 60 59  1  0
 60 61  1  0
 62 63  1  0
 62 61  1  0
 63 72  1  0
 64 72  1  0
 64 70  1  0
 66 67  1  0
 66 65  1  0
 68 67  1  0
 68 77  1  0
 68 69  1  0
 70 65  1  0
 70 69  1  0
 71 64  2  0
 72 73  1  0
 74 75  2  0
 75 94  1  0
 76 75  1  0
 76 79  1  0
 77 74  1  0
 77 78  1  0
 78 76  2  0
 79 80  1  0
 80 81  2  0
 82 85  1  0
 82 81  1  0
 83 82  2  0
 84 83  1  0
 84 79  2  0
 85 86  1  0
 86 87  1  0
 87 88  2  0
 89 88  1  0
 89 93  1  0
 90 89  2  0
 91 86  2  0
 91 90  1  0
 92 91  1  0
 94 95  1  0
 95 98  1  0
 95 97  1  0
 96 94  2  0
 99100  1  0
 99 74  1  0
101 99  1  0
M  ISO  4  10 101  11 101  64 100  72 100
M  END
>  <TORSDO>  (26) 
F 29

>  <SCORE>  (26) 
-10.230

>  <name>  (26) 
28

>  <ligand_id>  (26) 
28

>  <original_smiles>  (26) 
[H]c1c([H])c([H])c2c(c1[H])C([H])([H])C([H])([H])C([H])([H])C2([H])N([H])C(=O)C1([H])N(C(=O)C([H])(N([H])C(=O)C([H])(N([H])C([H])([H])[H])C([H])([H])[H])C(C([H])([H])[H])(C([H])([H])[H])C([H])([H])[H])C([H])([H])c2c([H])c(OC([H])([H])C([H])([H])c3c(C([H])([H])[H])c([H])c([H])c([H])c3C([H])([H])C([H])([H])C([H])([H])C([H])([H])[N+]([H])([H])C([H])([H])C([H])([H])C([H])([H])C([H])([H])C([H])([H])C([H])([H])N([H])C(=O)N3C([H])([H])C([H])([H])C([H])([H])C([H])(n4nc(-c5c([H])c([H])c(Oc6c([H])c([H])c(F)c([H])c6F)c([H])c5[H])c(C(=O)N([H])[H])c4N([H])[H])C3([H])[H])c([H])c([H])c2C1([H])[H]

>  <smiles>  (26) 
[H]c1c([H])c([H])c2c(c1[H])C([H])([H])C([H])([H])C([H])([H])C2([H])N([H])C(=O)C1([H])N(C(=O)C([H])(N([H])C(=O)C([H])(N([H])C([H])([H])[H])C([H])([H])[H])C(C([H])([H])[H])(C([H])([H])[H])C([H])([H])[H])C([H])([H])c2c([H])c(OC([H])([H])C([H])([H])c3c(C([H])([H])[H])c([H])c([H])c([H])c3C([H])([H])C([H])([H])C([H])([H])C([H])([H])[N+]([H])([H])C([H])([H])C([H])([H])C([H])([H])C([H])([H])C([H])([H])C([H])([H])N([H])C(=O)N3C([H])([H])C([H])([H])C([H])([H])C([H])(n4nc(-c5c([H])c([H])c(Oc6c([H])c([H])c(F)c([H])c6F)c([H])c5[H])c(C(=O)N([H])[H])c4N([H])[H])C3([H])[H])c([H])c([H])c2C1([H])[H]

$$$$
29:0:0
     RDKit          3D

 93101  0  0  1  0  0  0  0  0999 V2000
  -30.2440  -21.7730   21.3040 C   0  0  0  0  0  3  0  0  0  0  0  0
  -29.6510  -20.5100   21.5020 C   0  0  0  0  0  3  0  0  0  0  0  0
  -29.4160  -21.7840   19.0190 C   0  0  0  0  0  3  0  0  0  0  0  0
  -30.1470  -22.4110   20.0520 C   0  0  0  0  0  0  0  0  0  0  0  0
  -28.9470  -19.8570   20.4640 C   0  0  0  0  0  0  0  0  0  0  0  0
  -28.8050  -20.5230   19.2140 C   0  0  0  0  0  0  0  0  0  0  0  0
  -28.0180  -19.9180   18.0580 C   0  0  0  0  0  1  0  0  0  0  0  0
  -30.8840  -23.7200   19.7880 C   0  0  0  0  0  2  0  0  0  0  0  0
  -30.3470  -24.9550   20.5470 C   0  0  0  0  0  2  0  0  0  0  0  0
  -29.0400  -25.5690   19.9940 C   0  0  0  0  0  2  0  0  0  0  0  0
  -28.9150  -26.9110   20.4760 O   0  0  0  0  0  0  0  0  0  0  0  0
  -24.7350  -31.9170   23.3020 C   0  0  0  0  0  0  0  0  0  0  0  0
  -27.6930  -27.5520   20.3960 C   0  0  0  0  0  0  0  0  0  0  0  0
  -23.6560  -30.4490   21.6260 C   0  0  0  0  0  3  0  0  0  0  0  0
  -25.2320  -28.9540   20.2840 C   0  0  0  0  0  0  0  0  0  0  0  0
  -26.1710  -30.9060   21.5310 C   0  0  0  0  0  2  0  0  0  0  0  0
  -26.3370  -29.5310   20.9220 C   0  0  0  0  0  0  0  0  0  0  0  0
  -27.5640  -28.8330   20.9800 C   0  0  0  0  0  3  0  0  0  0  0  0
  -26.5690  -26.9940   19.7430 C   0  0  0  0  0  3  0  0  0  0  0  0
  -25.3440  -27.6850   19.6910 C   0  0  0  0  0  3  0  0  0  0  0  0
  -23.9560  -29.7660   20.2640 C   0  0  0  0  0  2  0  0  0  0  0  0
  -24.8700  -31.1060   22.2140 N   0  0  0  0  0  0  0  0  0  0  0  0
  -23.6210  -32.1540   23.7890 O   0  0  0  0  0  0  0  0  0  0  0  0
  -23.0020  -29.4170   22.5720 C   0  0  0  0  0  0  0  0  0  0  0  0
  -21.6850  -29.2080   22.4150 N   0  0  0  0  0  0  0  0  0  0  0  0
  -23.6760  -28.8060   23.4060 O   0  0  0  0  0  0  0  0  0  0  0  0
  -21.2000  -29.7570   21.7200 H   0  0  0  0  0  0  0  0  0  0  0  0
  -18.3250  -27.9540   22.8490 C   0  0  0  0  0  0  0  0  0  0  0  0
  -20.8730  -28.2530   23.1670 C   0  0  0  0  0  3  0  0  0  0  0  0
  -21.0090  -26.8270   22.5830 C   0  0  0  0  0  2  0  0  0  0  0  0
  -19.9290  -26.4920   21.5500 C   0  0  0  0  0  2  0  0  0  0  0  0
  -18.5340  -26.6120   22.1700 C   0  0  0  0  0  2  0  0  0  0  0  0
  -19.4230  -28.7310   23.3040 C   0  0  0  0  0  0  0  0  0  0  0  0
  -19.1750  -29.9850   23.9030 C   0  0  0  0  0  3  0  0  0  0  0  0
  -17.8600  -30.4670   24.0450 C   0  0  0  0  0  3  0  0  0  0  0  0
  -16.7760  -29.6900   23.6060 C   0  0  0  0  0  3  0  0  0  0  0  0
  -17.0080  -28.4350   23.0160 C   0  0  0  0  0  3  0  0  0  0  0  0
  -25.9690  -32.6060   23.9680 C   0  0  0  0  0  3  0  0  0  0  0  0
  -25.6030  -33.9990   24.2550 N   0  0  0  0  0  0  0  0  0  0  0  0
  -25.9320  -35.0460   23.4880 C   0  0  0  0  0  0  0  0  0  0  0  0
  -26.6530  -34.9440   22.4910 O   0  0  0  0  0  0  0  0  0  0  0  0
  -24.9820  -34.1510   25.0360 H   0  0  0  0  0  0  0  0  0  0  0  0
  -24.1640  -36.7660   23.0130 C   0  0  0  0  0  1  0  0  0  0  0  0
  -25.3760  -36.4230   23.8930 C   0  0  0  0  0  3  0  0  0  0  0  0
  -27.4400  -37.3960   24.7970 C   0  0  0  0  0  1  0  0  0  0  0  0
  -26.3770  -37.5090   23.8030 N   0  0  0  0  0  0  0  0  0  0  0  0
  -25.9330  -38.4170   23.9200 H   0  0  0  0  0  0  0  0  0  0  0  0
  -26.4550  -31.8760   25.2800 C   0  0  1  0  0  0  0  0  0  0  0  0
  -25.3220  -31.6040   26.2960 C   0  0  0  0  0  1  0  0  0  0  0  0
  -27.1190  -30.5230   24.9350 C   0  0  0  0  0  1  0  0  0  0  0  0
  -27.5370  -32.7290   25.9840 C   0  0  0  0  0  1  0  0  0  0  0  0
  -28.3250  -18.4900   20.7750 C   0  0  0  0  0  2  0  0  0  0  0  0
  -28.8070  -17.2710   19.9520 C   0  0  0  0  0  2  0  0  0  0  0  0
  -30.2990  -16.8880   20.0700 C   0  0  0  0  0  2  0  0  0  0  0  0
  -30.5900  -15.9920   21.3010 C   0  0  0  0  0  2  0  0  0  0  0  0
  -31.7750  -14.0990   20.1190 C   0  0  0  0  0  0  0  0  0  0  0  0
  -31.3180  -11.7890   19.3830 C   0  0  0  0  0  2  0  0  0  0  0  0
  -30.3860  -11.7150   18.1530 C   0  0  0  0  0  2  0  0  0  0  0  0
  -28.9050  -11.7420   18.5650 C   0  0  0  0  0  2  0  0  0  0  0  0
  -28.6010  -12.8890   19.5640 C   0  0  0  0  0  3  0  0  0  0  0  0
  -29.6210  -12.8650   20.7240 C   0  0  0  0  0  2  0  0  0  0  0  0
  -30.9810  -12.9910   20.1660 N   0  0  0  0  0  0  0  0  0  0  0  0
  -32.7750  -14.1750   19.4020 O   0  0  0  0  0  0  0  0  0  0  0  0
  -31.6520  -14.9960   21.1070 N   0  0  0  0  0  0  0  0  0  0  0  0
  -32.5550  -15.4030   21.3050 H   0  0  0  0  0  0  0  0  0  0  0  0
  -26.2940  -13.8230   20.2270 C   0  0  0  0  0  0  0  0  0  0  0  0
  -25.1350  -13.2020   20.6140 C   0  0  0  0  0  0  0  0  0  0  0  0
  -25.4240  -11.8050   20.6320 C   0  0  0  0  0  0  0  0  0  0  0  0
  -27.2230  -12.8090   20.0440 N   0  0  0  0  0  0  0  0  0  0  0  0
  -26.6980  -11.5930   20.3360 N   0  0  0  0  0  0  0  0  0  0  0  0
  -24.5460  -10.6480   20.8540 C   0  0  0  0  0  0  0  0  0  0  0  0
  -24.8540   -9.6610   21.8150 C   0  0  0  0  0  3  0  0  0  0  0  0
  -23.9830   -8.5700   22.0230 C   0  0  0  0  0  3  0  0  0  0  0  0
  -22.7920   -8.4590   21.2680 C   0  0  0  0  0  0  0  0  0  0  0  0
  -22.5000   -9.4330   20.2980 C   0  0  0  0  0  3  0  0  0  0  0  0
  -23.3700  -10.5150   20.0870 C   0  0  0  0  0  3  0  0  0  0  0  0
  -21.8950   -7.4240   21.3890 O   0  0  0  0  0  0  0  0  0  0  0  0
  -21.7570   -6.7240   22.5610 C   0  0  0  0  0  0  0  0  0  0  0  0
  -21.4270   -7.3630   23.7750 C   0  0  0  0  0  3  0  0  0  0  0  0
  -21.2200   -6.5990   24.9410 C   0  0  0  0  0  3  0  0  0  0  0  0
  -21.3400   -5.1970   24.8950 C   0  0  0  0  0  0  0  0  0  0  0  0
  -21.6650   -4.5570   23.6850 C   0  0  0  0  0  3  0  0  0  0  0  0
  -21.8700   -5.3200   22.5210 C   0  0  0  0  0  0  0  0  0  0  0  0
  -22.1620   -4.6980   21.3530 F   0  0  0  0  0  0  0  0  0  0  0  0
  -21.1370   -4.4610   26.0120 F   0  0  0  0  0  0  0  0  0  0  0  0
  -23.8090  -13.8620   20.8540 C   0  0  0  0  0  0  0  0  0  0  0  0
  -23.0060  -13.3050   21.7570 N   0  0  0  0  0  0  0  0  0  0  0  0
  -23.4960  -14.9020   20.2820 O   0  0  0  0  0  0  0  0  0  0  0  0
  -23.2670  -12.4550   22.2340 H   0  0  0  0  0  0  0  0  0  0  0  0
  -22.1160  -13.7350   21.9640 H   0  0  0  0  0  0  0  0  0  0  0  0
  -26.6270  -15.1510   19.9920 N   0  0  0  0  0  0  0  0  0  0  0  0
  -25.9440  -15.8990   20.0550 H   0  0  0  0  0  0  0  0  0  0  0  0
  -27.5260  -15.4640   19.6480 H   0  0  0  0  0  0  0  0  0  0  0  0
  1  2  1  0
  3  6  2  0
  3  4  1  0
  4  1  2  0
  5 52  1  0
  5  2  2  0
  6  5  1  0
  7  6  1  0
  8  4  1  0
  8  9  1  0
 10 11  1  0
 10  9  1  0
 12 23  2  0
 13 11  1  0
 13 18  1  0
 14 22  1  0
 14 24  1  0
 15 17  1  0
 16 22  1  0
 17 18  2  0
 17 16  1  0
 19 13  2  0
 20 19  1  0
 20 15  2  0
 21 15  1  0
 21 14  1  0
 22 12  1  0
 24 26  2  0
 25 24  1  0
 27 25  1  0
 28 37  2  0
 28 33  1  0
 29 25  1  0
 29 33  1  0
 30 29  1  0
 31 32  1  0
 31 30  1  0
 32 28  1  0
 33 34  2  0
 34 35  1  0
 36 35  2  0
 37 36  1  0
 38 12  1  0
 38 39  1  0
 38 48  1  0
 39 42  1  0
 40 44  1  0
 40 39  1  0
 41 40  2  0
 44 43  1  0
 46 44  1  0
 46 47  1  0
 46 45  1  0
 48 51  1  1
 48 49  1  0
 50 48  1  0
 53 54  1  0
 53 52  1  0
 54 55  1  0
 56 62  1  0
 56 64  1  0
 57 62  1  0
 58 59  1  0
 58 57  1  0
 60 59  1  0
 60 69  1  0
 60 61  1  0
 62 61  1  0
 63 56  2  0
 64 55  1  0
 64 65  1  0
 66 67  2  0
 67 68  1  0
 67 86  1  0
 68 71  1  0
 69 66  1  0
 69 70  1  0
 70 68  2  0
 71 72  1  0
 72 73  2  0
 74 77  1  0
 74 73  1  0
 75 74  2  0
 76 75  1  0
 76 71  2  0
 77 78  1  0
 78 79  1  0
 79 80  2  0
 81 80  1  0
 81 85  1  0
 82 81  2  0
 83 78  2  0
 83 82  1  0
 84 83  1  0
 86 87  1  0
 87 90  1  0
 87 89  1  0
 88 86  2  0
 91 92  1  0
 91 66  1  0
 93 91  1  0
M  ISO  4  10 101  11 101  56 100  64 100
M  END
>  <TORSDO>  (27) 
F 23

>  <SCORE>  (27) 
-12.152

>  <name>  (27) 
29

>  <ligand_id>  (27) 
29

>  <original_smiles>  (27) 
[H]c1c([H])c([H])c2c(c1[H])C([H])([H])C([H])([H])C([H])([H])C2([H])N([H])C(=O)C1([H])N(C(=O)C([H])(N([H])C(=O)C([H])(N([H])C([H])([H])[H])C([H])([H])[H])C(C([H])([H])[H])(C([H])([H])[H])C([H])([H])[H])C([H])([H])c2c([H])c(OC([H])([H])C([H])([H])C([H])([H])c3c([H])c([H])c(C([H])([H])C([H])([H])C([H])([H])C([H])([H])N([H])C(=O)N4C([H])([H])C([H])([H])C([H])([H])C([H])(n5nc(-c6c([H])c([H])c(Oc7c([H])c([H])c(F)c([H])c7F)c([H])c6[H])c(C(=O)N([H])[H])c5N([H])[H])C4([H])[H])c(C([H])([H])[H])c3[H])c([H])c([H])c2C1([H])[H]

>  <smiles>  (27) 
[H]c1c([H])c([H])c2c(c1[H])C([H])([H])C([H])([H])C([H])([H])C2([H])N([H])C(=O)C1([H])N(C(=O)C([H])(N([H])C(=O)C([H])(N([H])C([H])([H])[H])C([H])([H])[H])C(C([H])([H])[H])(C([H])([H])[H])C([H])([H])[H])C([H])([H])c2c([H])c(OC([H])([H])C([H])([H])C([H])([H])c3c([H])c([H])c(C([H])([H])C([H])([H])C([H])([H])C([H])([H])N([H])C(=O)N4C([H])([H])C([H])([H])C([H])([H])C([H])(n5nc(-c6c([H])c([H])c(Oc7c([H])c([H])c(F)c([H])c7F)c([H])c6[H])c(C(=O)N([H])[H])c5N([H])[H])C4([H])[H])c(C([H])([H])[H])c3[H])c([H])c([H])c2C1([H])[H]

$$$$
30:0:0
     RDKit          3D

 94103  0  0  1  0  0  0  0  0999 V2000
  -29.5170  -20.8740   18.0210 C   0  0  0  0  0  3  0  0  0  0  0  0
  -29.9770  -19.8050   18.8100 C   0  0  0  0  0  3  0  0  0  0  0  0
  -30.6960  -21.3860   20.5170 C   0  0  0  0  0  3  0  0  0  0  0  0
  -30.2460  -22.4680   19.7290 C   0  0  0  0  0  0  0  0  0  0  0  0
  -29.6400  -22.2050   18.4720 C   0  0  0  0  0  0  0  0  0  0  0  0
  -30.5570  -20.0570   20.0730 C   0  0  0  0  0  0  0  0  0  0  0  0
  -30.4350  -23.8540   20.2410 C   0  0  0  0  0  0  0  0  0  0  0  0
  -29.0980  -23.3250   17.6020 C   0  0  0  0  0  2  0  0  0  0  0  0
  -29.7300  -24.6890   17.9270 C   0  0  0  0  0  2  0  0  0  0  0  0
  -29.7970  -24.9940   19.4390 C   0  0  0  0  0  3  0  0  0  0  0  0
  -31.0460  -24.1210   21.2810 O   0  0  0  0  0  0  0  0  0  0  0  0
  -31.0320  -18.9420   20.9930 C   0  0  0  0  0  2  0  0  0  0  0  0
  -30.4750  -17.5470   20.6710 C   0  0  0  0  0  2  0  0  0  0  0  0
  -30.7420  -16.5410   21.8040 C   0  0  0  0  0  2  0  0  0  0  0  0
  -30.7160  -14.3640   20.6070 C   0  0  0  0  0  0  0  0  0  0  0  0
  -30.3410  -12.2930   19.3290 C   0  0  0  0  0  2  0  0  0  0  0  0
  -29.4100  -12.5640   18.1340 C   0  0  0  0  0  2  0  0  0  0  0  0
  -27.9350  -12.4470   18.5590 C   0  0  0  0  0  2  0  0  0  0  0  0
  -27.6130  -13.2430   19.8530 C   0  0  0  0  0  3  0  0  0  0  0  0
  -28.6560  -12.9500   20.9530 C   0  0  0  0  0  2  0  0  0  0  0  0
  -29.9960  -13.2340   20.4030 N   0  0  0  0  0  0  0  0  0  0  0  0
  -31.7620  -14.6230   20.0050 O   0  0  0  0  0  0  0  0  0  0  0  0
  -30.1990  -15.2220   21.4950 N   0  0  0  0  0  0  0  0  0  0  0  0
  -29.3470  -14.9440   21.9640 H   0  0  0  0  0  0  0  0  0  0  0  0
  -25.2070  -13.8590   20.5310 C   0  0  0  0  0  0  0  0  0  0  0  0
  -24.1330  -13.0920   20.8920 C   0  0  0  0  0  0  0  0  0  0  0  0
  -24.5890  -11.7370   20.8680 C   0  0  0  0  0  0  0  0  0  0  0  0
  -26.2510  -12.9740   20.3150 N   0  0  0  0  0  0  0  0  0  0  0  0
  -25.8800  -11.6920   20.5690 N   0  0  0  0  0  0  0  0  0  0  0  0
  -23.8560  -10.4800   21.0600 C   0  0  0  0  0  0  0  0  0  0  0  0
  -24.2870   -9.5090   21.9920 C   0  0  0  0  0  3  0  0  0  0  0  0
  -23.5560   -8.3150   22.1710 C   0  0  0  0  0  3  0  0  0  0  0  0
  -22.3800   -8.0820   21.4180 C   0  0  0  0  0  0  0  0  0  0  0  0
  -21.9670   -9.0420   20.4760 C   0  0  0  0  0  3  0  0  0  0  0  0
  -22.6990  -10.2280   20.2970 C   0  0  0  0  0  3  0  0  0  0  0  0
  -21.6200   -6.9400   21.5040 O   0  0  0  0  0  0  0  0  0  0  0  0
  -21.5790   -6.1890   22.6510 C   0  0  0  0  0  0  0  0  0  0  0  0
  -21.1760   -6.7410   23.8870 C   0  0  0  0  0  3  0  0  0  0  0  0
  -21.0810   -5.9180   25.0270 C   0  0  0  0  0  3  0  0  0  0  0  0
  -21.3790   -4.5470   24.9320 C   0  0  0  0  0  0  0  0  0  0  0  0
  -21.7770   -3.9950   23.7020 C   0  0  0  0  0  3  0  0  0  0  0  0
  -21.8730   -4.8140   22.5640 C   0  0  0  0  0  0  0  0  0  0  0  0
  -22.2370   -4.2740   21.3750 F   0  0  0  0  0  0  0  0  0  0  0  0
  -21.2820   -3.7540   26.0260 F   0  0  0  0  0  0  0  0  0  0  0  0
  -22.7360  -13.5750   21.1570 C   0  0  0  0  0  0  0  0  0  0  0  0
  -22.0050  -12.8800   22.0220 N   0  0  0  0  0  0  0  0  0  0  0  0
  -22.3040  -14.6020   20.6370 O   0  0  0  0  0  0  0  0  0  0  0  0
  -22.3680  -12.0500   22.4650 H   0  0  0  0  0  0  0  0  0  0  0  0
  -21.0680  -13.1870   22.2490 H   0  0  0  0  0  0  0  0  0  0  0  0
  -25.3730  -15.2290   20.3510 N   0  0  0  0  0  0  0  0  0  0  0  0
  -24.6040  -15.8830   20.4580 H   0  0  0  0  0  0  0  0  0  0  0  0
  -26.2270  -15.6710   20.0340 H   0  0  0  0  0  0  0  0  0  0  0  0
  -28.4380  -25.3960   20.0390 C   0  0  0  0  0  2  0  0  0  0  0  0
  -28.3920  -26.8190   20.0560 O   0  0  0  0  0  0  0  0  0  0  0  0
  -24.5690  -31.8870   23.2290 C   0  0  0  0  0  0  0  0  0  0  0  0
  -27.1790  -27.4620   20.1120 C   0  0  0  0  0  0  0  0  0  0  0  0
  -23.3450  -30.4910   21.5940 C   0  0  0  0  0  3  0  0  0  0  0  0
  -24.7780  -28.9500   20.1630 C   0  0  0  0  0  0  0  0  0  0  0  0
  -25.8670  -30.8490   21.3740 C   0  0  0  0  0  2  0  0  0  0  0  0
  -25.9410  -29.4780   20.7360 C   0  0  0  0  0  0  0  0  0  0  0  0
  -27.1440  -28.7430   20.7030 C   0  0  0  0  0  3  0  0  0  0  0  0
  -25.9920  -26.9340   19.5500 C   0  0  0  0  0  3  0  0  0  0  0  0
  -24.7960  -27.6750   19.5730 C   0  0  0  0  0  3  0  0  0  0  0  0
  -23.5380  -29.8110   20.2140 C   0  0  0  0  0  2  0  0  0  0  0  0
  -24.6120  -31.0900   22.1240 N   0  0  0  0  0  0  0  0  0  0  0  0
  -23.4920  -32.1600   23.7770 O   0  0  0  0  0  0  0  0  0  0  0  0
  -22.7000  -29.4690   22.5570 C   0  0  0  0  0  0  0  0  0  0  0  0
  -21.3750  -29.2910   22.4380 N   0  0  0  0  0  0  0  0  0  0  0  0
  -23.3890  -28.8380   23.3640 O   0  0  0  0  0  0  0  0  0  0  0  0
  -20.8850  -29.8530   21.7560 H   0  0  0  0  0  0  0  0  0  0  0  0
  -17.9970  -28.1180   22.9540 C   0  0  0  0  0  0  0  0  0  0  0  0
  -20.5580  -28.3570   23.2100 C   0  0  0  0  0  3  0  0  0  0  0  0
  -20.6470  -26.9270   22.6270 C   0  0  0  0  0  2  0  0  0  0  0  0
  -19.5360  -26.6140   21.6200 C   0  0  0  0  0  2  0  0  0  0  0  0
  -18.1600  -26.7690   22.2750 C   0  0  0  0  0  2  0  0  0  0  0  0
  -19.1240  -28.8700   23.3790 C   0  0  0  0  0  0  0  0  0  0  0  0
  -18.9190  -30.1340   23.9730 C   0  0  0  0  0  3  0  0  0  0  0  0
  -17.6200  -30.6460   24.1480 C   0  0  0  0  0  3  0  0  0  0  0  0
  -16.5070  -29.8890   23.7400 C   0  0  0  0  0  3  0  0  0  0  0  0
  -16.6980  -28.6270   23.1490 C   0  0  0  0  0  3  0  0  0  0  0  0
  -25.8610  -32.5130   23.8400 C   0  0  0  0  0  3  0  0  0  0  0  0
  -26.3850  -31.7370   25.1110 C   0  0  1  0  0  0  0  0  0  0  0  0
  -25.3010  -31.5010   26.1890 C   0  0  0  0  0  1  0  0  0  0  0  0
  -26.9600  -30.3600   24.7080 C   0  0  0  0  0  1  0  0  0  0  0  0
  -27.5440  -32.5280   25.7650 C   0  0  0  0  0  1  0  0  0  0  0  0
  -25.5590  -33.9110   24.1710 N   0  0  0  0  0  0  0  0  0  0  0  0
  -25.9000  -34.9610   23.4120 C   0  0  0  0  0  0  0  0  0  0  0  0
  -26.5710  -34.8540   22.3830 O   0  0  0  0  0  0  0  0  0  0  0  0
  -24.9650  -34.0690   24.9720 H   0  0  0  0  0  0  0  0  0  0  0  0
  -24.1860  -36.7650   23.0460 C   0  0  0  0  0  1  0  0  0  0  0  0
  -25.4170  -36.3520   23.8680 C   0  0  0  0  0  3  0  0  0  0  0  0
  -27.5520  -37.2170   24.7190 C   0  0  0  0  0  1  0  0  0  0  0  0
  -26.4570  -37.3970   23.7680 N   0  0  0  0  0  0  0  0  0  0  0  0
  -26.0560  -38.3200   23.9180 H   0  0  0  0  0  0  0  0  0  0  0  0
  1  5  2  0
  1  2  1  0
  2  6  2  0
  4  7  1  0
  4  3  2  0
  5  4  1  0
  6  3  1  0
  6 12  1  0
  7 11  2  0
  8  9  1  0
  8  5  1  0
  9 10  1  0
 10 53  1  0
 10  7  1  0
 13 12  1  0
 13 14  1  0
 15 23  1  0
 16 21  1  0
 17 18  1  0
 17 16  1  0
 19 18  1  0
 19 28  1  0
 19 20  1  0
 21 15  1  0
 21 20  1  0
 22 15  2  0
 23 14  1  0
 23 24  1  0
 25 26  2  0
 26 45  1  0
 27 26  1  0
 27 30  1  0
 28 25  1  0
 28 29  1  0
 29 27  2  0
 30 31  1  0
 31 32  2  0
 33 36  1  0
 33 32  1  0
 34 33  2  0
 35 34  1  0
 35 30  2  0
 36 37  1  0
 37 38  1  0
 38 39  2  0
 40 39  1  0
 40 44  1  0
 41 40  2  0
 42 37  2  0
 42 41  1  0
 43 42  1  0
 45 46  1  0
 46 49  1  0
 46 48  1  0
 47 45  2  0
 50 51  1  0
 50 25  1  0
 52 50  1  0
 53 54  1  0
 54 56  1  0
 55 66  2  0
 56 61  1  0
 57 65  1  0
 57 67  1  0
 58 64  1  0
 58 60  1  0
 59 65  1  0
 60 59  1  0
 61 60  2  0
 62 63  1  0
 62 56  2  0
 63 58  2  0
 64 57  1  0
 65 55  1  0
 67 69  2  0
 68 67  1  0
 70 68  1  0
 71 80  2  0
 71 76  1  0
 72 68  1  0
 72 76  1  0
 73 72  1  0
 74 75  1  0
 74 73  1  0
 75 71  1  0
 76 77  2  0
 77 78  1  0
 79 78  2  0
 80 79  1  0
 81 55  1  0
 81 86  1  0
 81 82  1  0
 82 85  1  1
 82 83  1  0
 84 82  1  0
 86 89  1  0
 87 91  1  0
 87 86  1  0
 88 87  2  0
 91 90  1  0
 93 91  1  0
 93 94  1  0
 93 92  1  0
M  ISO  4  15 100  23 100  53 101  54 101
M  END
>  <TORSDO>  (28) 
F 20

>  <SCORE>  (28) 
-14.022

>  <name>  (28) 
30

>  <ligand_id>  (28) 
30

>  <original_smiles>  (28) 
[H]c1c([H])c([H])c2c(c1[H])C([H])([H])C([H])([H])C([H])([H])C2([H])N([H])C(=O)C1([H])N(C(=O)C([H])(N([H])C(=O)C([H])(N([H])C([H])([H])[H])C([H])([H])[H])C(C([H])([H])[H])(C([H])([H])[H])C([H])([H])[H])C([H])([H])c2c([H])c(OC([H])([H])C3([H])C(=O)c4c([H])c(C([H])([H])C([H])([H])C([H])([H])N([H])C(=O)N5C([H])([H])C([H])([H])C([H])([H])C([H])(n6nc(-c7c([H])c([H])c(Oc8c([H])c([H])c(F)c([H])c8F)c([H])c7[H])c(C(=O)N([H])[H])c6N([H])[H])C5([H])[H])c([H])c([H])c4C([H])([H])C3([H])[H])c([H])c([H])c2C1([H])[H]

>  <smiles>  (28) 
[H]c1c([H])c([H])c2c(c1[H])C([H])([H])C([H])([H])C([H])([H])C2([H])N([H])C(=O)C1([H])N(C(=O)C([H])(N([H])C(=O)C([H])(N([H])C([H])([H])[H])C([H])([H])[H])C(C([H])([H])[H])(C([H])([H])[H])C([H])([H])[H])C([H])([H])c2c([H])c(OC([H])([H])C3([H])C(=O)c4c([H])c(C([H])([H])C([H])([H])C([H])([H])N([H])C(=O)N5C([H])([H])C([H])([H])C([H])([H])C([H])(n6nc(-c7c([H])c([H])c(Oc8c([H])c([H])c(F)c([H])c8F)c([H])c7[H])c(C(=O)N([H])[H])c6N([H])[H])C5([H])[H])c([H])c([H])c4C([H])([H])C3([H])[H])c([H])c([H])c2C1([H])[H]

$$$$
31:0:0
     RDKit          3D

 98104  0  0  1  0  0  0  0  0999 V2000
  -22.0550  -26.8560   26.0680 C   0  0  0  0  0  3  0  0  0  0  0  0
  -21.1080  -27.8910   26.3990 C   0  0  0  0  0  3  0  0  0  0  0  0
  -23.1780  -28.6940   25.1880 C   0  0  0  0  0  3  0  0  0  0  0  0
  -23.2400  -27.1720   25.3570 C   0  0  0  0  0  0  0  0  0  0  0  0
  -21.9690  -29.5270   24.6620 C   0  0  0  0  0  0  0  0  0  0  0  0
  -21.1060  -29.2000   25.7780 C   0  0  0  0  0  0  0  0  0  0  0  0
  -20.4120  -30.1940   26.4690 N   0  0  0  0  0  0  0  0  0  0  0  0
  -20.1480  -30.0000   27.4290 H   0  0  0  0  0  0  0  0  0  0  0  0
  -20.7230  -31.1500   26.3430 H   0  0  0  0  0  0  0  0  0  0  0  0
  -24.5020  -25.9910   25.0390 C   0  0  0  0  0  3  0  0  0  0  0  0
  -24.6050  -24.3660   24.2610 C   0  0  0  0  0  3  0  0  0  0  0  0
  -25.9730  -23.2220   23.9460 C   0  0  0  0  0  3  0  0  0  0  0  0
  -26.1270  -21.5480   23.2770 C   0  0  0  0  0  3  0  0  0  0  0  0
  -27.5150  -20.4600   22.8670 C   0  0  0  0  0  2  0  0  0  0  0  0
  -27.6810  -18.7570   22.2760 C   0  0  0  0  0  3  0  0  0  0  0  0
  -29.0830  -17.7230   21.7900 C   0  0  0  0  0  3  0  0  0  0  0  0
  -30.1790  -15.1190   20.8010 C   0  0  0  0  0  0  0  0  0  0  0  0
  -30.4240  -12.7870   19.6160 C   0  0  0  0  0  2  0  0  0  0  0  0
  -29.5420  -12.6280   18.3420 C   0  0  0  0  0  2  0  0  0  0  0  0
  -28.0760  -12.3270   18.7070 C   0  0  0  0  0  2  0  0  0  0  0  0
  -27.5990  -13.2300   19.8690 C   0  0  0  0  0  3  0  0  0  0  0  0
  -28.5670  -13.1930   21.0590 C   0  0  0  0  0  2  0  0  0  0  0  0
  -29.7980  -13.7830   20.5690 N   0  0  0  0  0  0  0  0  0  0  0  0
  -31.3470  -15.3540   20.4250 O   0  0  0  0  0  0  0  0  0  0  0  0
  -29.2120  -16.1180   21.3430 N   0  0  0  0  0  0  0  0  0  0  0  0
  -28.3370  -15.6470   21.5200 H   0  0  0  0  0  0  0  0  0  0  0  0
  -25.2270  -13.8160   20.5660 C   0  0  0  0  0  0  0  0  0  0  0  0
  -24.1610  -13.0400   20.9210 C   0  0  0  0  0  0  0  0  0  0  0  0
  -24.6210  -11.6880   20.8730 C   0  0  0  0  0  0  0  0  0  0  0  0
  -26.2570  -12.9300   20.3100 N   0  0  0  0  0  0  0  0  0  0  0  0
  -25.9090  -11.6460   20.5620 N   0  0  0  0  0  0  0  0  0  0  0  0
  -23.8950  -10.4260   21.0420 C   0  0  0  0  0  0  0  0  0  0  0  0
  -24.3550   -9.4200   21.9190 C   0  0  0  0  0  3  0  0  0  0  0  0
  -23.6260   -8.2220   22.0750 C   0  0  0  0  0  3  0  0  0  0  0  0
  -22.4250   -8.0240   21.3540 C   0  0  0  0  0  0  0  0  0  0  0  0
  -21.9850   -9.0200   20.4640 C   0  0  0  0  0  3  0  0  0  0  0  0
  -22.7140  -10.2090   20.3060 C   0  0  0  0  0  3  0  0  0  0  0  0
  -21.6630   -6.8840   21.4240 O   0  0  0  0  0  0  0  0  0  0  0  0
  -21.6840   -6.0720   22.5280 C   0  0  0  0  0  0  0  0  0  0  0  0
  -21.4000   -6.5640   23.8210 C   0  0  0  0  0  3  0  0  0  0  0  0
  -21.3660   -5.6790   24.9180 C   0  0  0  0  0  3  0  0  0  0  0  0
  -21.6050   -4.3060   24.7230 C   0  0  0  0  0  0  0  0  0  0  0  0
  -21.8810   -3.8140   23.4350 C   0  0  0  0  0  3  0  0  0  0  0  0
  -21.9190   -4.6950   22.3410 C   0  0  0  0  0  0  0  0  0  0  0  0
  -22.1660   -4.2140   21.0990 F   0  0  0  0  0  0  0  0  0  0  0  0
  -21.5630   -3.4540   25.7740 F   0  0  0  0  0  0  0  0  0  0  0  0
  -22.7670  -13.5200   21.1920 C   0  0  0  0  0  0  0  0  0  0  0  0
  -22.0350  -12.8180   22.0490 N   0  0  0  0  0  0  0  0  0  0  0  0
  -22.3370  -14.5530   20.6780 O   0  0  0  0  0  0  0  0  0  0  0  0
  -22.3980  -11.9820   22.4820 H   0  0  0  0  0  0  0  0  0  0  0  0
  -21.1000  -13.1220   22.2780 H   0  0  0  0  0  0  0  0  0  0  0  0
  -25.4070  -15.1880   20.4160 N   0  0  0  0  0  0  0  0  0  0  0  0
  -24.6390  -15.8430   20.5270 H   0  0  0  0  0  0  0  0  0  0  0  0
  -26.2380  -15.6190   20.0350 H   0  0  0  0  0  0  0  0  0  0  0  0
  -21.4920  -30.1620   22.8670 C   0  0  0  0  0  1  0  0  0  0  0  0
  -21.6730  -29.2380   20.9900 C   0  0  0  0  0 15  0  0  0  0  0  0
  -23.0660  -27.8340   20.2860 C   0  0  0  0  0  1  0  0  0  0  0  0
  -24.7640  -27.2000   20.7070 O   0  0  0  0  0  0  0  0  0  0  0  0
  -24.7910  -31.8780   23.2510 C   0  0  0  0  0  0  0  0  0  0  0  0
  -26.1590  -27.3030   20.2970 C   0  0  0  0  0  3  0  0  0  0  0  0
  -23.8660  -30.2890   21.6540 C   0  0  0  0  0  3  0  0  0  0  0  0
  -25.2210  -29.5340   19.6450 C   0  0  0  0  0  3  0  0  0  0  0  0
  -26.2530  -30.8140   21.5200 C   0  0  0  0  0  2  0  0  0  0  0  0
  -26.2200  -29.6040   20.6060 C   0  0  0  0  0  3  0  0  0  0  0  0
  -26.8850  -28.4030   20.8480 C   0  0  0  0  0  2  0  0  0  0  0  0
  -26.0130  -27.3420   18.9460 C   0  0  0  0  0  2  0  0  0  0  0  0
  -25.2230  -28.4740   18.6810 C   0  0  0  0  0  2  0  0  0  0  0  0
  -24.0480  -30.3320   20.0470 C   0  0  0  0  0  2  0  0  0  0  0  0
  -24.9690  -31.0370   22.2050 N   0  0  0  0  0  0  0  0  0  0  0  0
  -23.6890  -32.1690   23.7310 O   0  0  0  0  0  0  0  0  0  0  0  0
  -23.6520  -28.8330   22.5580 C   0  0  0  0  0  0  0  0  0  0  0  0
  -22.4620  -27.9050   22.8200 N   0  0  0  0  0  0  0  0  0  0  0  0
  -24.6550  -28.4310   23.0500 O   0  0  0  0  0  0  0  0  0  0  0  0
  -22.8810  -27.1470   23.3400 H   0  0  0  0  0  0  0  0  0  0  0  0
  -18.0800  -27.9860   22.7580 C   0  0  0  0  0  0  0  0  0  0  0  0
  -20.7860  -27.7050   23.0270 C   0  0  0  0  0  3  0  0  0  0  0  0
  -20.5440  -26.3800   22.3790 C   0  0  0  0  0  2  0  0  0  0  0  0
  -19.4270  -26.3870   21.3630 C   0  0  0  0  0  2  0  0  0  0  0  0
  -18.1060  -26.6560   22.0590 C   0  0  0  0  0  2  0  0  0  0  0  0
  -19.3020  -28.5860   23.2080 C   0  0  0  0  0  0  0  0  0  0  0  0
  -18.9530  -29.8390   23.8840 C   0  0  0  0  0  3  0  0  0  0  0  0
  -17.6890  -30.4500   24.0150 C   0  0  0  0  0  3  0  0  0  0  0  0
  -16.5670  -29.7840   23.5440 C   0  0  0  0  0  3  0  0  0  0  0  0
  -16.7790  -28.5440   22.9330 C   0  0  0  0  0  3  0  0  0  0  0  0
  -26.0260  -32.5170   23.9010 C   0  0  0  0  0  3  0  0  0  0  0  0
  -25.6650  -33.8880   24.2720 N   0  0  0  0  0  0  0  0  0  0  0  0
  -25.9190  -34.9610   23.5170 C   0  0  0  0  0  0  0  0  0  0  0  0
  -26.5490  -34.9000   22.4580 O   0  0  0  0  0  0  0  0  0  0  0  0
  -25.1050  -34.0020   25.1030 H   0  0  0  0  0  0  0  0  0  0  0  0
  -24.1510  -36.7310   23.2550 C   0  0  0  0  0  1  0  0  0  0  0  0
  -25.4120  -36.3200   24.0310 C   0  0  0  0  0  3  0  0  0  0  0  0
  -27.5570  -37.1900   24.8460 C   0  0  0  0  0  1  0  0  0  0  0  0
  -26.4270  -37.3910   23.9430 N   0  0  0  0  0  0  0  0  0  0  0  0
  -26.0130  -38.2960   24.1490 H   0  0  0  0  0  0  0  0  0  0  0  0
  -26.5060  -31.6950   25.1500 C   0  0  1  0  0  0  0  0  0  0  0  0
  -25.4130  -31.4740   26.2240 C   0  0  0  0  0  1  0  0  0  0  0  0
  -27.0810  -30.3170   24.7440 C   0  0  0  0  0  1  0  0  0  0  0  0
  -27.6630  -32.4600   25.8200 C   0  0  0  0  0  1  0  0  0  0  0  0
  1  2  1  0
  3  4  1  0
  4  1  2  0
  5  3  2  0
  5  6  1  0
  6  2  2  0
  6  7  1  0
  7  8  1  0
  9  7  1  0
 10  4  1  0
 11 10  2  0
 12 11  1  0
 13 12  2  0
 14 13  1  0
 15 14  1  0
 16 15  2  0
 17 25  1  0
 18 23  1  0
 19 20  1  0
 19 18  1  0
 21 20  1  0
 21 30  1  0
 21 22  1  0
 23 17  1  0
 23 22  1  0
 24 17  2  0
 25 26  1  0
 25 16  1  0
 27 28  2  0
 28 47  1  0
 29 28  1  0
 29 32  1  0
 30 31  1  0
 30 27  1  0
 31 29  2  0
 32 33  1  0
 33 34  2  0
 35 38  1  0
 35 34  1  0
 36 35  2  0
 37 36  1  0
 37 32  2  0
 38 39  1  0
 39 40  1  0
 40 41  2  0
 42 41  1  0
 42 46  1  0
 43 42  2  0
 44 39  2  0
 44 43  1  0
 45 44  1  0
 47 48  1  0
 48 51  1  0
 48 50  1  0
 49 47  2  0
 52 53  1  0
 52 27  1  0
 54 52  1  0
 55  5  1  0
 57 58  1  0
 59 70  2  0
 60 58  1  0
 60 65  1  0
 61 69  1  0
 61 71  1  0
 62 67  1  0
 62 68  1  0
 62 64  1  0
 63 69  1  0
 64 65  1  0
 64 63  1  0
 66 60  1  0
 67 66  1  0
 68 61  1  0
 69 59  1  0
 71 72  1  0
 71 73  2  0
 72 74  1  0
 75 84  2  0
 75 80  1  0
 76 72  1  0
 76 80  1  0
 77 76  1  0
 78 79  1  0
 78 77  1  0
 79 75  1  0
 80 81  2  0
 81 82  1  0
 83 82  2  0
 84 83  1  0
 85 59  1  0
 85 86  1  0
 85 95  1  0
 86 89  1  0
 87 91  1  0
 87 86  1  0
 88 87  2  0
 91 90  1  0
 93 91  1  0
 93 94  1  0
 93 92  1  0
 95 98  1  1
 95 96  1  0
 97 95  1  0
M  ISO  4  17 100  25 100  57 101  58 101
M  END
>  <TORSDO>  (29) 
F 27

>  <SCORE>  (29) 
44.420

>  <name>  (29) 
31

>  <ligand_id>  (29) 
31

>  <original_smiles>  (29) 
[H]c1c([H])c([H])c2c(c1[H])C([H])([H])C([H])([H])C([H])([H])C2([H])N([H])C(=O)C1([H])N(C(=O)C([H])(N([H])C(=O)C([H])(N([H])C([H])([H])[H])C([H])([H])[H])C(C([H])([H])[H])(C([H])([H])[H])C([H])([H])[H])C([H])([H])c2c([H])c(OC([H])([H])C([H])([H])C([H])([H])c3c([H])c(C([H])([H])C([H])([H])C([H])([H])C([H])([H])C([H])([H])C([H])([H])C([H])([H])N([H])C(=O)N4C([H])([H])C([H])([H])C([H])([H])C([H])(n5nc(-c6c([H])c([H])c(Oc7c([H])c([H])c(F)c([H])c7F)c([H])c6[H])c(C(=O)N([H])[H])c5N([H])[H])C4([H])[H])c([H])c([H])c3N([H])[H])c([H])c([H])c2C1([H])[H]

>  <smiles>  (29) 
[H]c1c([H])c([H])c2c(c1[H])C([H])([H])C([H])([H])C([H])([H])C2([H])N([H])C(=O)C1([H])N(C(=O)C([H])(N([H])C(=O)C([H])(N([H])C([H])([H])[H])C([H])([H])[H])C(C([H])([H])[H])(C([H])([H])[H])C([H])([H])[H])C([H])([H])c2c([H])c(OC([H])([H])C([H])([H])C([H])([H])c3c([H])c(C([H])([H])C([H])([H])C([H])([H])C([H])([H])C([H])([H])C([H])([H])C([H])([H])N([H])C(=O)N4C([H])([H])C([H])([H])C([H])([H])C([H])(n5nc(-c6c([H])c([H])c(Oc7c([H])c([H])c(F)c([H])c7F)c([H])c6[H])c(C(=O)N([H])[H])c5N([H])[H])C4([H])[H])c([H])c([H])c3N([H])[H])c([H])c([H])c2C1([H])[H]

$$$$
32:0:0
     RDKit          3D

102109  0  0  1  0  0  0  0  0999 V2000
  -26.1460  -23.3350   19.8920 C   0  0  0  0  0  0  0  0  0  0  0  0
  -25.2350  -22.8490   20.5670 O   0  0  0  0  0  0  0  0  0  0  0  0
  -27.1840  -24.2140   20.4510 C   0  0  0  0  0  3  0  0  0  0  0  0
  -27.0480  -24.7970   21.6600 C   0  0  0  0  0  3  0  0  0  0  0  0
  -27.9860  -25.8230   22.2980 C   0  0  0  0  0  3  0  0  0  0  0  0
  -28.7080  -25.1980   23.4280 N   0  0  0  0  0  4  0  0  0  0  0  0
  -29.3070  -24.4510   23.1170 H   0  0  0  0  0  0  0  0  0  0  0  0
  -28.0610  -24.8160   24.0970 H   0  0  0  0  0  0  0  0  0  0  0  0
  -29.2780  -25.8720   23.9110 H   0  0  0  0  0  0  0  0  0  0  0  0
  -28.9640  -26.5550   21.3290 C   0  0  0  0  0  2  0  0  0  0  0  0
  -28.3800  -26.9360   20.0790 O   0  0  0  0  0  0  0  0  0  0  0  0
  -24.5310  -32.0010   23.3060 C   0  0  0  0  0  0  0  0  0  0  0  0
  -27.2350  -27.6890   20.1340 C   0  0  0  0  0  0  0  0  0  0  0  0
  -23.3440  -30.6270   21.6240 C   0  0  0  0  0  3  0  0  0  0  0  0
  -24.8200  -29.1400   20.1730 C   0  0  0  0  0  0  0  0  0  0  0  0
  -25.8630  -31.0190   21.4500 C   0  0  0  0  0  2  0  0  0  0  0  0
  -25.9650  -29.6630   20.7900 C   0  0  0  0  0  0  0  0  0  0  0  0
  -27.1750  -28.9390   20.7850 C   0  0  0  0  0  3  0  0  0  0  0  0
  -26.0860  -27.1870   19.4910 C   0  0  0  0  0  3  0  0  0  0  0  0
  -24.8720  -27.8940   19.5260 C   0  0  0  0  0  3  0  0  0  0  0  0
  -23.5650  -29.9800   20.2300 C   0  0  0  0  0  2  0  0  0  0  0  0
  -24.5970  -31.2280   22.1860 N   0  0  0  0  0  0  0  0  0  0  0  0
  -23.4460  -32.2520   23.8470 O   0  0  0  0  0  0  0  0  0  0  0  0
  -22.6980  -29.5780   22.5560 C   0  0  0  0  0  0  0  0  0  0  0  0
  -21.3810  -29.3710   22.4010 N   0  0  0  0  0  0  0  0  0  0  0  0
  -23.3800  -28.9520   23.3730 O   0  0  0  0  0  0  0  0  0  0  0  0
  -20.8920  -29.9290   21.7140 H   0  0  0  0  0  0  0  0  0  0  0  0
  -18.0200  -28.1180   22.8200 C   0  0  0  0  0  0  0  0  0  0  0  0
  -20.5670  -28.4070   23.1410 C   0  0  0  0  0  3  0  0  0  0  0  0
  -20.7020  -26.9880   22.5420 C   0  0  0  0  0  2  0  0  0  0  0  0
  -19.6210  -26.6680   21.5030 C   0  0  0  0  0  2  0  0  0  0  0  0
  -18.2270  -26.7830   22.1260 C   0  0  0  0  0  2  0  0  0  0  0  0
  -19.1200  -28.8890   23.2820 C   0  0  0  0  0  0  0  0  0  0  0  0
  -18.8730  -30.1400   23.8870 C   0  0  0  0  0  3  0  0  0  0  0  0
  -17.5580  -30.6210   24.0380 C   0  0  0  0  0  3  0  0  0  0  0  0
  -16.4720  -29.8470   23.5940 C   0  0  0  0  0  3  0  0  0  0  0  0
  -16.7040  -28.5980   22.9900 C   0  0  0  0  0  3  0  0  0  0  0  0
  -25.8120  -32.6250   23.9450 C   0  0  0  0  0  3  0  0  0  0  0  0
  -26.2920  -31.8660   25.2410 C   0  0  1  0  0  0  0  0  0  0  0  0
  -25.1720  -31.6500   26.2850 C   0  0  0  0  0  1  0  0  0  0  0  0
  -26.8720  -30.4780   24.8780 C   0  0  0  0  0  1  0  0  0  0  0  0
  -27.4320  -32.6600   25.9210 C   0  0  0  0  0  1  0  0  0  0  0  0
  -25.5150  -34.0320   24.2420 N   0  0  0  0  0  0  0  0  0  0  0  0
  -25.8650  -35.0630   23.4620 C   0  0  0  0  0  0  0  0  0  0  0  0
  -26.5450  -34.9300   22.4400 O   0  0  0  0  0  0  0  0  0  0  0  0
  -24.9170  -34.2110   25.0350 H   0  0  0  0  0  0  0  0  0  0  0  0
  -24.1550  -36.8570   23.0500 C   0  0  0  0  0  1  0  0  0  0  0  0
  -25.3850  -36.4650   23.8820 C   0  0  0  0  0  3  0  0  0  0  0  0
  -27.5160  -37.3550   24.7180 C   0  0  0  0  0  1  0  0  0  0  0  0
  -26.4280  -37.5070   23.7550 N   0  0  0  0  0  0  0  0  0  0  0  0
  -26.0260  -38.4340   23.8750 H   0  0  0  0  0  0  0  0  0  0  0  0
  -26.2010  -23.0860   18.3790 C   0  0  0  0  0  2  0  0  0  0  0  0
  -25.3000  -21.9500   17.8360 C   0  0  0  0  0  2  0  0  0  0  0  0
  -25.5350  -20.5350   18.4240 C   0  0  0  0  0  3  0  0  0  0  0  0
  -24.6270  -19.5590   17.7920 N   0  0  0  0  0  4  0  0  0  0  0  0
  -24.8130  -19.4680   16.8090 H   0  0  0  0  0  0  0  0  0  0  0  0
  -23.6710  -19.8460   17.9070 H   0  0  0  0  0  0  0  0  0  0  0  0
  -24.7240  -18.6540   18.2180 H   0  0  0  0  0  0  0  0  0  0  0  0
  -27.0080  -20.0770   18.3140 C   0  0  0  0  0  2  0  0  0  0  0  0
  -27.3590  -18.9140   19.2550 C   0  0  0  0  0  2  0  0  0  0  0  0
  -28.8730  -18.7910   19.4670 C   0  0  0  0  0  2  0  0  0  0  0  0
  -29.2260  -17.7460   20.5270 C   0  0  0  0  0  2  0  0  0  0  0  0
  -30.7370  -17.7090   20.8180 C   0  0  0  0  0  2  0  0  0  0  0  0
  -31.1450  -16.6320   21.8390 C   0  0  0  0  0  2  0  0  0  0  0  0
  -31.0290  -14.5700   20.4450 C   0  0  0  0  0  0  0  0  0  0  0  0
  -30.6650  -12.4670   19.2140 C   0  0  0  0  0  2  0  0  0  0  0  0
  -29.7130  -12.6590   18.0200 C   0  0  0  0  0  2  0  0  0  0  0  0
  -28.2450  -12.5150   18.4640 C   0  0  0  0  0  2  0  0  0  0  0  0
  -27.9150  -13.3790   19.7080 C   0  0  0  0  0  3  0  0  0  0  0  0
  -28.9680  -13.1650   20.8170 C   0  0  0  0  0  2  0  0  0  0  0  0
  -30.3080  -13.4380   20.2570 N   0  0  0  0  0  0  0  0  0  0  0  0
  -32.0050  -14.8850   19.7570 O   0  0  0  0  0  0  0  0  0  0  0  0
  -30.6310  -15.3160   21.4810 N   0  0  0  0  0  0  0  0  0  0  0  0
  -29.8640  -14.9520   22.0280 H   0  0  0  0  0  0  0  0  0  0  0  0
  -25.5210  -13.9980   20.4390 C   0  0  0  0  0  0  0  0  0  0  0  0
  -24.4530  -13.2280   20.8130 C   0  0  0  0  0  0  0  0  0  0  0  0
  -24.9060  -11.8740   20.7680 C   0  0  0  0  0  0  0  0  0  0  0  0
  -26.5600  -13.1120   20.1940 N   0  0  0  0  0  0  0  0  0  0  0  0
  -26.1930  -11.8300   20.4450 N   0  0  0  0  0  0  0  0  0  0  0  0
  -24.1760  -10.6140   20.9580 C   0  0  0  0  0  0  0  0  0  0  0  0
  -24.5820   -9.6630   21.9210 C   0  0  0  0  0  3  0  0  0  0  0  0
  -23.8530   -8.4670   22.0970 C   0  0  0  0  0  3  0  0  0  0  0  0
  -22.7040   -8.2130   21.3100 C   0  0  0  0  0  0  0  0  0  0  0  0
  -22.3180   -9.1530   20.3380 C   0  0  0  0  0  3  0  0  0  0  0  0
  -23.0470  -10.3400   20.1610 C   0  0  0  0  0  3  0  0  0  0  0  0
  -21.9500   -7.0680   21.3940 O   0  0  0  0  0  0  0  0  0  0  0  0
  -21.8370   -6.3650   22.5670 C   0  0  0  0  0  0  0  0  0  0  0  0
  -21.3210   -6.9520   23.7420 C   0  0  0  0  0  3  0  0  0  0  0  0
  -21.1570   -6.1740   24.9050 C   0  0  0  0  0  3  0  0  0  0  0  0
  -21.5000   -4.8080   24.8940 C   0  0  0  0  0  0  0  0  0  0  0  0
  -22.0090   -4.2200   23.7220 C   0  0  0  0  0  3  0  0  0  0  0  0
  -22.1740   -4.9960   22.5610 C   0  0  0  0  0  0  0  0  0  0  0  0
  -22.6450   -4.4180   21.4300 F   0  0  0  0  0  0  0  0  0  0  0  0
  -21.3350   -4.0590   26.0080 F   0  0  0  0  0  0  0  0  0  0  0  0
  -23.0610  -13.7100   21.1070 C   0  0  0  0  0  0  0  0  0  0  0  0
  -22.3420  -13.0120   21.9800 N   0  0  0  0  0  0  0  0  0  0  0  0
  -22.6200  -14.7400   20.5980 O   0  0  0  0  0  0  0  0  0  0  0  0
  -22.7100  -12.1780   22.4110 H   0  0  0  0  0  0  0  0  0  0  0  0
  -21.4080  -13.3160   22.2190 H   0  0  0  0  0  0  0  0  0  0  0  0
  -25.6930  -15.3690   20.2740 N   0  0  0  0  0  0  0  0  0  0  0  0
  -24.9450  -16.0300   20.4510 H   0  0  0  0  0  0  0  0  0  0  0  0
  -26.5660  -15.8060   20.0100 H   0  0  0  0  0  0  0  0  0  0  0  0
  1  3  1  0
  1  2  2  0
  3  4  2  0
  4  5  1  0
  5 10  1  0
  5  6  1  0
  6  9  1  0
  6  8  1  0
  7  6  1  0
 11 13  1  0
 11 10  1  0
 12 23  2  0
 13 18  1  0
 14 22  1  0
 14 24  1  0
 15 21  1  0
 15 17  1  0
 16 22  1  0
 17 16  1  0
 18 17  2  0
 19 20  1  0
 19 13  2  0
 20 15  2  0
 21 14  1  0
 22 12  1  0
 24 26  2  0
 25 24  1  0
 27 25  1  0
 28 37  2  0
 28 33  1  0
 29 25  1  0
 29 33  1  0
 30 29  1  0
 31 32  1  0
 31 30  1  0
 32 28  1  0
 33 34  2  0
 34 35  1  0
 36 35  2  0
 37 36  1  0
 38 12  1  0
 38 43  1  0
 38 39  1  0
 39 42  1  1
 39 40  1  0
 41 39  1  0
 43 46  1  0
 44 48  1  0
 44 43  1  0
 45 44  2  0
 48 47  1  0
 50 51  1  0
 50 48  1  0
 50 49  1  0
 52  1  1  0
 53 52  1  0
 54 53  1  0
 55 57  1  0
 55 58  1  0
 55 54  1  0
 56 55  1  0
 59 54  1  0
 59 60  1  0
 60 61  1  0
 61 62  1  0
 62 63  1  0
 63 64  1  0
 65 73  1  0
 66 71  1  0
 67 68  1  0
 67 66  1  0
 69 68  1  0
 69 78  1  0
 69 70  1  0
 71 65  1  0
 71 70  1  0
 72 65  2  0
 73 64  1  0
 73 74  1  0
 75 76  2  0
 76 95  1  0
 77 76  1  0
 77 80  1  0
 78 75  1  0
 78 79  1  0
 79 77  2  0
 80 81  1  0
 81 82  2  0
 83 86  1  0
 83 82  1  0
 84 83  2  0
 85 84  1  0
 85 80  2  0
 86 87  1  0
 87 88  1  0
 88 89  2  0
 90 89  1  0
 90 94  1  0
 91 90  2  0
 92 87  2  0
 92 91  1  0
 93 92  1  0
 95 96  1  0
 96 99  1  0
 96 98  1  0
 97 95  2  0
100 75  1  0
100101  1  0
102100  1  0
M  ISO  4  10 101  11 101  65 100  73 100
M  END
>  <TORSDO>  (30) 
F 30

>  <SCORE>  (30) 
-10.988

>  <name>  (30) 
32

>  <ligand_id>  (30) 
32

>  <original_smiles>  (30) 
[H]C(C(=O)C([H])([H])C([H])([H])C([H])(C([H])([H])C([H])([H])C([H])([H])C([H])([H])C([H])([H])C([H])([H])N([H])C(=O)N1C([H])([H])C([H])([H])C([H])([H])C([H])(n2nc(-c3c([H])c([H])c(Oc4c([H])c([H])c(F)c([H])c4F)c([H])c3[H])c(C(=O)N([H])[H])c2N([H])[H])C1([H])[H])[N+]([H])([H])[H])=C([H])C([H])(C([H])([H])Oc1c([H])c([H])c2c(c1[H])C([H])([H])N(C(=O)C([H])(N([H])C(=O)C([H])(N([H])C([H])([H])[H])C([H])([H])[H])C(C([H])([H])[H])(C([H])([H])[H])C([H])([H])[H])C([H])(C(=O)N([H])C1([H])c3c([H])c([H])c([H])c([H])c3C([H])([H])C([H])([H])C1([H])[H])C2([H])[H])[N+]([H])([H])[H]

>  <smiles>  (30) 
[H]C(C(=O)C([H])([H])C([H])([H])C([H])(C([H])([H])C([H])([H])C([H])([H])C([H])([H])C([H])([H])C([H])([H])N([H])C(=O)N1C([H])([H])C([H])([H])C([H])([H])C([H])(n2nc(-c3c([H])c([H])c(Oc4c([H])c([H])c(F)c([H])c4F)c([H])c3[H])c(C(=O)N([H])[H])c2N([H])[H])C1([H])[H])[N+]([H])([H])[H])=C([H])C([H])(C([H])([H])Oc1c([H])c([H])c2c(c1[H])C([H])([H])N(C(=O)C([H])(N([H])C(=O)C([H])(N([H])C([H])([H])[H])C([H])([H])[H])C(C([H])([H])[H])(C([H])([H])[H])C([H])([H])[H])C([H])(C(=O)N([H])C1([H])c3c([H])c([H])c([H])c([H])c3C([H])([H])C([H])([H])C1([H])[H])C2([H])[H])[N+]([H])([H])[H]

$$$$
33:0:0
     RDKit          3D

 90 97  0  0  1  0  0  0  0  0999 V2000
  -28.4270  -22.3910   20.4990 C   0  0  0  0  0  3  0  0  0  0  0  0
  -27.0040  -22.0410   20.3040 N   0  0  0  0  0  4  0  0  0  0  0  0
  -26.3960  -22.8120   20.5140 H   0  0  0  0  0  0  0  0  0  0  0  0
  -26.7420  -21.2790   20.9040 H   0  0  0  0  0  0  0  0  0  0  0  0
  -26.8330  -21.7560   19.3560 H   0  0  0  0  0  0  0  0  0  0  0  0
  -29.3260  -21.1610   19.9780 C   0  0  0  0  0  2  0  0  0  0  0  0
  -29.2890  -19.7680   20.7780 C   0  0  0  0  0  2  0  0  0  0  0  0
  -29.7300  -18.3910   20.0870 C   0  0  0  0  0  2  0  0  0  0  0  0
  -30.1420  -17.1830   21.0510 C   0  0  0  0  0  2  0  0  0  0  0  0
  -30.6000  -14.6880   20.3400 C   0  0  0  0  0  0  0  0  0  0  0  0
  -30.3860  -12.4560   19.2480 C   0  0  0  0  0  2  0  0  0  0  0  0
  -29.4220  -12.5690   18.0450 C   0  0  0  0  0  2  0  0  0  0  0  0
  -27.9560  -12.4070   18.4940 C   0  0  0  0  0  2  0  0  0  0  0  0
  -27.6070  -13.2710   19.7350 C   0  0  0  0  0  3  0  0  0  0  0  0
  -28.6800  -13.1200   20.8350 C   0  0  0  0  0  2  0  0  0  0  0  0
  -29.9760  -13.4720   20.2380 N   0  0  0  0  0  0  0  0  0  0  0  0
  -31.7730  -14.8390   19.9890 O   0  0  0  0  0  0  0  0  0  0  0  0
  -29.8100  -15.7600   20.6830 N   0  0  0  0  0  0  0  0  0  0  0  0
  -28.8520  -15.5020   20.8730 H   0  0  0  0  0  0  0  0  0  0  0  0
  -25.2220  -13.8700   20.4800 C   0  0  0  0  0  0  0  0  0  0  0  0
  -24.1610  -13.0950   20.8580 C   0  0  0  0  0  0  0  0  0  0  0  0
  -24.6250  -11.7430   20.8240 C   0  0  0  0  0  0  0  0  0  0  0  0
  -26.2680  -12.9910   20.2390 N   0  0  0  0  0  0  0  0  0  0  0  0
  -25.9140  -11.7090   20.5080 N   0  0  0  0  0  0  0  0  0  0  0  0
  -23.9040  -10.4790   21.0210 C   0  0  0  0  0  0  0  0  0  0  0  0
  -24.3480   -9.5110   21.9490 C   0  0  0  0  0  3  0  0  0  0  0  0
  -23.6250   -8.3120   22.1350 C   0  0  0  0  0  3  0  0  0  0  0  0
  -22.4440   -8.0720   21.3930 C   0  0  0  0  0  0  0  0  0  0  0  0
  -22.0190   -9.0280   20.4550 C   0  0  0  0  0  3  0  0  0  0  0  0
  -22.7410  -10.2180   20.2670 C   0  0  0  0  0  3  0  0  0  0  0  0
  -21.6940   -6.9250   21.4860 O   0  0  0  0  0  0  0  0  0  0  0  0
  -21.6630   -6.1790   22.6370 C   0  0  0  0  0  0  0  0  0  0  0  0
  -21.2550   -6.7260   23.8730 C   0  0  0  0  0  3  0  0  0  0  0  0
  -21.1730   -5.9020   25.0140 C   0  0  0  0  0  3  0  0  0  0  0  0
  -21.4910   -4.5340   24.9210 C   0  0  0  0  0  0  0  0  0  0  0  0
  -21.8940   -3.9870   23.6900 C   0  0  0  0  0  3  0  0  0  0  0  0
  -21.9780   -4.8070   22.5510 C   0  0  0  0  0  0  0  0  0  0  0  0
  -22.3450   -4.2690   21.3640 F   0  0  0  0  0  0  0  0  0  0  0  0
  -21.4050   -3.7420   26.0160 F   0  0  0  0  0  0  0  0  0  0  0  0
  -22.7630  -13.5670   21.1380 C   0  0  0  0  0  0  0  0  0  0  0  0
  -22.0410  -12.8700   22.0080 N   0  0  0  0  0  0  0  0  0  0  0  0
  -22.3210  -14.5930   20.6190 O   0  0  0  0  0  0  0  0  0  0  0  0
  -22.4120  -12.0400   22.4500 H   0  0  0  0  0  0  0  0  0  0  0  0
  -21.1040  -13.1680   22.2370 H   0  0  0  0  0  0  0  0  0  0  0  0
  -25.3820  -15.2400   20.2940 N   0  0  0  0  0  0  0  0  0  0  0  0
  -24.6110  -15.8900   20.4160 H   0  0  0  0  0  0  0  0  0  0  0  0
  -26.2170  -15.6760   19.9210 H   0  0  0  0  0  0  0  0  0  0  0  0
  -28.7070  -23.8620   19.9050 C   0  0  0  0  0  3  0  0  0  0  0  0
  -28.1590  -25.1290   20.7150 C   0  0  0  0  0  3  0  0  0  0  0  0
  -28.3500  -26.5080   20.2020 O   0  0  0  0  0  0  0  0  0  0  0  0
  -24.6130  -31.8800   23.2540 C   0  0  0  0  0  0  0  0  0  0  0  0
  -27.2340  -27.3500   20.1900 C   0  0  0  0  0  0  0  0  0  0  0  0
  -23.4130  -30.4860   21.6080 C   0  0  0  0  0  3  0  0  0  0  0  0
  -24.8670  -28.9400   20.1780 C   0  0  0  0  0  0  0  0  0  0  0  0
  -25.9490  -30.8140   21.4220 C   0  0  0  0  0  2  0  0  0  0  0  0
  -26.0330  -29.4380   20.7730 C   0  0  0  0  0  0  0  0  0  0  0  0
  -27.2260  -28.6550   20.7680 C   0  0  0  0  0  3  0  0  0  0  0  0
  -26.0520  -26.9020   19.5670 C   0  0  0  0  0  3  0  0  0  0  0  0
  -24.8780  -27.6800   19.5610 C   0  0  0  0  0  3  0  0  0  0  0  0
  -23.6270  -29.8120   20.2280 C   0  0  0  0  0  2  0  0  0  0  0  0
  -24.6780  -31.0770   22.1520 N   0  0  0  0  0  0  0  0  0  0  0  0
  -23.5310  -32.1540   23.7910 O   0  0  0  0  0  0  0  0  0  0  0  0
  -22.7540  -29.4660   22.5660 C   0  0  0  0  0  0  0  0  0  0  0  0
  -21.4270  -29.2870   22.4380 N   0  0  0  0  0  0  0  0  0  0  0  0
  -23.4330  -28.8370   23.3810 O   0  0  0  0  0  0  0  0  0  0  0  0
  -20.9380  -29.8480   21.7550 H   0  0  0  0  0  0  0  0  0  0  0  0
  -18.0510  -28.0900   22.9380 C   0  0  0  0  0  0  0  0  0  0  0  0
  -20.6100  -28.3470   23.2060 C   0  0  0  0  0  3  0  0  0  0  0  0
  -20.7090  -26.9180   22.6250 C   0  0  0  0  0  2  0  0  0  0  0  0
  -19.6060  -26.6000   21.6100 C   0  0  0  0  0  2  0  0  0  0  0  0
  -18.2250  -26.7430   22.2570 C   0  0  0  0  0  2  0  0  0  0  0  0
  -19.1700  -28.8500   23.3690 C   0  0  0  0  0  0  0  0  0  0  0  0
  -18.9510  -30.1110   23.9680 C   0  0  0  0  0  3  0  0  0  0  0  0
  -17.6480  -30.6120   24.1370 C   0  0  0  0  0  3  0  0  0  0  0  0
  -16.5430  -29.8480   23.7210 C   0  0  0  0  0  3  0  0  0  0  0  0
  -16.7450  -28.5900   23.1270 C   0  0  0  0  0  3  0  0  0  0  0  0
  -25.8970  -32.5130   23.8790 C   0  0  0  0  0  3  0  0  0  0  0  0
  -26.4090  -31.7420   25.1580 C   0  0  1  0  0  0  0  0  0  0  0  0
  -25.3110  -31.5090   26.2230 C   0  0  0  0  0  1  0  0  0  0  0  0
  -26.9900  -30.3630   24.7700 C   0  0  0  0  0  1  0  0  0  0  0  0
  -27.5610  -32.5350   25.8210 C   0  0  0  0  0  1  0  0  0  0  0  0
  -25.5870  -33.9130   24.2050 N   0  0  0  0  0  0  0  0  0  0  0  0
  -25.9240  -34.9640   23.4490 C   0  0  0  0  0  0  0  0  0  0  0  0
  -26.5990  -34.8600   22.4200 O   0  0  0  0  0  0  0  0  0  0  0  0
  -24.9910  -34.0680   25.0050 H   0  0  0  0  0  0  0  0  0  0  0  0
  -24.2040  -36.7620   23.0810 C   0  0  0  0  0  1  0  0  0  0  0  0
  -25.4370  -36.3550   23.9030 C   0  0  0  0  0  3  0  0  0  0  0  0
  -27.5700  -37.2330   24.7490 C   0  0  0  0  0  1  0  0  0  0  0  0
  -26.4740  -37.4040   23.7980 N   0  0  0  0  0  0  0  0  0  0  0  0
  -26.0700  -38.3260   23.9420 H   0  0  0  0  0  0  0  0  0  0  0  0
  1 48  1  0
  2  1  1  0
  2  3  1  0
  2  4  1  0
  5  2  1  0
  6  1  1  0
  6  7  1  0
  8  7  1  0
  8  9  1  0
 10 18  1  0
 11 16  1  0
 12 13  1  0
 12 11  1  0
 14 13  1  0
 14 23  1  0
 14 15  1  0
 16 10  1  0
 16 15  1  0
 17 10  2  0
 18 19  1  0
 18  9  1  0
 20 21  2  0
 21 40  1  0
 22 21  1  0
 22 25  1  0
 23 20  1  0
 23 24  1  0
 24 22  2  0
 25 26  1  0
 26 27  2  0
 28 31  1  0
 28 27  1  0
 29 28  2  0
 30 29  1  0
 30 25  2  0
 31 32  1  0
 32 33  1  0
 33 34  2  0
 35 34  1  0
 35 39  1  0
 36 35  2  0
 37 32  2  0
 37 36  1  0
 38 37  1  0
 40 41  1  0
 41 44  1  0
 41 43  1  0
 42 40  2  0
 45 46  1  0
 45 20  1  0
 47 45  1  0
 48 49  2  0
 50 49  1  0
 51 62  2  0
 52 50  1  0
 52 57  1  0
 53 61  1  0
 53 63  1  0
 54 60  1  0
 54 56  1  0
 55 61  1  0
 56 55  1  0
 57 56  2  0
 58 52  2  0
 59 58  1  0
 59 54  2  0
 60 53  1  0
 61 51  1  0
 63 65  2  0
 64 63  1  0
 66 64  1  0
 67 76  2  0
 67 72  1  0
 68 64  1  0
 68 72  1  0
 69 68  1  0
 70 71  1  0
 70 69  1  0
 71 67  1  0
 72 73  2  0
 73 74  1  0
 75 74  2  0
 76 75  1  0
 77 51  1  0
 77 82  1  0
 77 78  1  0
 78 81  1  1
 78 79  1  0
 80 78  1  0
 82 85  1  0
 83 87  1  0
 83 82  1  0
 84 83  2  0
 87 86  1  0
 89 87  1  0
 89 90  1  0
 89 88  1  0
M  ISO  4  10 100  18 100  49 101  50 101
M  END
>  <TORSDO>  (31) 
F 23

>  <SCORE>  (31) 
-12.885

>  <name>  (31) 
33

>  <ligand_id>  (31) 
33

>  <original_smiles>  (31) 
[H]c1c([H])c([H])c2c(c1[H])C([H])([H])C([H])([H])C([H])([H])C2([H])N([H])C(=O)C1([H])N(C(=O)C([H])(N([H])C(=O)C([H])(N([H])C([H])([H])[H])C([H])([H])[H])C(C([H])([H])[H])(C([H])([H])[H])C([H])([H])[H])C([H])([H])c2c([H])c(OC([H])([H])C([H])([H])C([H])(C([H])([H])C([H])([H])C([H])([H])C([H])([H])N([H])C(=O)N3C([H])([H])C([H])([H])C([H])([H])C([H])(n4nc(-c5c([H])c([H])c(Oc6c([H])c([H])c(F)c([H])c6F)c([H])c5[H])c(C(=O)N([H])[H])c4N([H])[H])C3([H])[H])[N+]([H])([H])[H])c([H])c([H])c2C1([H])[H]

>  <smiles>  (31) 
[H]c1c([H])c([H])c2c(c1[H])C([H])([H])C([H])([H])C([H])([H])C2([H])N([H])C(=O)C1([H])N(C(=O)C([H])(N([H])C(=O)C([H])(N([H])C([H])([H])[H])C([H])([H])[H])C(C([H])([H])[H])(C([H])([H])[H])C([H])([H])[H])C([H])([H])c2c([H])c(OC([H])([H])C([H])([H])C([H])(C([H])([H])C([H])([H])C([H])([H])C([H])([H])N([H])C(=O)N3C([H])([H])C([H])([H])C([H])([H])C([H])(n4nc(-c5c([H])c([H])c(Oc6c([H])c([H])c(F)c([H])c6F)c([H])c5[H])c(C(=O)N([H])[H])c4N([H])[H])C3([H])[H])[N+]([H])([H])[H])c([H])c([H])c2C1([H])[H]

$$$$
35:0:0
     RDKit          3D

 96104  0  0  1  0  0  0  0  0999 V2000
  -28.5230  -20.0740   20.4260 C   0  0  0  0  0  3  0  0  0  0  0  0
  -29.3240  -19.0790   21.0170 C   0  0  0  0  0  3  0  0  0  0  0  0
  -30.2590  -21.7280   20.8710 C   0  0  0  0  0  3  0  0  0  0  0  0
  -28.9970  -21.3980   20.3250 C   0  0  0  0  0  0  0  0  0  0  0  0
  -30.6010  -19.3970   21.5290 C   0  0  0  0  0  0  0  0  0  0  0  0
  -31.0630  -20.7380   21.4740 C   0  0  0  0  0  0  0  0  0  0  0  0
  -32.4200  -21.1370   22.0320 C   0  0  0  0  0  1  0  0  0  0  0  0
  -28.1650  -22.4450   19.6490 C   0  0  0  0  0  0  0  0  0  0  0  0
  -28.8590  -23.3440   18.9470 N   0  0  0  0  0  0  0  0  0  0  0  0
  -26.9340  -22.4320   19.7170 O   0  0  0  0  0  0  0  0  0  0  0  0
  -29.8620  -23.2230   18.9220 H   0  0  0  0  0  0  0  0  0  0  0  0
  -28.3010  -24.4930   18.2420 C   0  0  0  0  0  2  0  0  0  0  0  0
  -27.8200  -25.5530   19.2380 C   0  0  0  0  0  2  0  0  0  0  0  0
  -27.7520  -26.8310   18.6030 O   0  0  0  0  0  0  0  0  0  0  0  0
  -24.4200  -31.3480   22.9500 C   0  0  0  0  0  0  0  0  0  0  0  0
  -26.6010  -27.5250   18.8780 C   0  0  0  0  0  0  0  0  0  0  0  0
  -22.9930  -30.1920   21.2920 C   0  0  0  0  0  3  0  0  0  0  0  0
  -24.2310  -28.9350   19.4540 C   0  0  0  0  0  0  0  0  0  0  0  0
  -25.4600  -30.6440   20.8010 C   0  0  0  0  0  2  0  0  0  0  0  0
  -25.4580  -29.3930   19.9510 C   0  0  0  0  0  0  0  0  0  0  0  0
  -26.6490  -28.6970   19.6580 C   0  0  0  0  0  3  0  0  0  0  0  0
  -25.3600  -27.0740   18.3730 C   0  0  0  0  0  3  0  0  0  0  0  0
  -24.1750  -27.7720   18.6650 C   0  0  0  0  0  3  0  0  0  0  0  0
  -23.0040  -29.7420   19.8080 C   0  0  0  0  0  2  0  0  0  0  0  0
  -24.3180  -30.7330   21.7390 N   0  0  0  0  0  0  0  0  0  0  0  0
  -23.4260  -31.5090   23.6730 O   0  0  0  0  0  0  0  0  0  0  0  0
  -22.4880  -29.0170   22.1600 C   0  0  0  0  0  0  0  0  0  0  0  0
  -21.1690  -28.7670   22.1170 N   0  0  0  0  0  0  0  0  0  0  0  0
  -23.2740  -28.3380   22.8240 O   0  0  0  0  0  0  0  0  0  0  0  0
  -20.5920  -29.3740   21.5530 H   0  0  0  0  0  0  0  0  0  0  0  0
  -17.9450  -27.2130   22.5940 C   0  0  0  0  0  0  0  0  0  0  0  0
  -20.4740  -27.6900   22.8200 C   0  0  0  0  0  3  0  0  0  0  0  0
  -20.6910  -26.3330   22.1110 C   0  0  0  0  0  2  0  0  0  0  0  0
  -19.5880  -25.9970   21.1020 C   0  0  0  0  0  2  0  0  0  0  0  0
  -18.2230  -25.9520   21.7930 C   0  0  0  0  0  2  0  0  0  0  0  0
  -19.0010  -28.0370   23.0610 C   0  0  0  0  0  0  0  0  0  0  0  0
  -18.6880  -29.2180   23.7680 C   0  0  0  0  0  3  0  0  0  0  0  0
  -17.3500  -29.5790   24.0110 C   0  0  0  0  0  3  0  0  0  0  0  0
  -16.3070  -28.7500   23.5610 C   0  0  0  0  0  3  0  0  0  0  0  0
  -16.6060  -27.5690   22.8580 C   0  0  0  0  0  3  0  0  0  0  0  0
  -25.7800  -31.9030   23.4760 C   0  0  0  0  0  3  0  0  0  0  0  0
  -25.5540  -33.2810   23.9260 N   0  0  0  0  0  0  0  0  0  0  0  0
  -25.9240  -34.3730   23.2430 C   0  0  0  0  0  0  0  0  0  0  0  0
  -26.5670  -34.3200   22.1920 O   0  0  0  0  0  0  0  0  0  0  0  0
  -24.9840  -33.4010   24.7510 H   0  0  0  0  0  0  0  0  0  0  0  0
  -24.3240  -36.2990   23.0290 C   0  0  0  0  0  1  0  0  0  0  0  0
  -25.5170  -35.7410   23.8210 C   0  0  0  0  0  3  0  0  0  0  0  0
  -27.6830  -36.4030   24.7710 C   0  0  0  0  0  1  0  0  0  0  0  0
  -26.6180  -36.7290   23.8250 N   0  0  0  0  0  0  0  0  0  0  0  0
  -26.2690  -37.6580   24.0500 H   0  0  0  0  0  0  0  0  0  0  0  0
  -26.4010  -31.0300   24.6350 C   0  0  1  0  0  0  0  0  0  0  0  0
  -25.4190  -30.7580   25.7960 C   0  0  0  0  0  1  0  0  0  0  0  0
  -26.8830  -29.6650   24.0910 C   0  0  0  0  0  1  0  0  0  0  0  0
  -27.6490  -31.7370   25.2130 C   0  0  0  0  0  1  0  0  0  0  0  0
  -31.4600  -18.2830   22.1100 C   0  0  0  0  0  2  0  0  0  0  0  0
  -32.6030  -17.8490   21.1660 C   0  0  0  0  0  2  0  0  0  0  0  0
  -32.5490  -16.3670   20.7650 C   0  0  0  0  0  2  0  0  0  0  0  0
  -31.6640  -16.0940   19.5340 C   0  0  0  0  0  2  0  0  0  0  0  0
  -31.2570  -13.7390   18.8110 C   0  0  0  0  0  0  0  0  0  0  0  0
  -30.8310  -11.3290   18.5140 C   0  0  0  0  0  2  0  0  0  0  0  0
  -29.7040  -11.0580   17.5030 C   0  0  0  0  0  2  0  0  0  0  0  0
  -28.3300  -11.0980   18.1960 C   0  0  0  0  0  2  0  0  0  0  0  0
  -28.1360  -12.3720   19.0590 C   0  0  0  0  0  3  0  0  0  0  0  0
  -29.3500  -12.5870   19.9870 C   0  0  0  0  0  2  0  0  0  0  0  0
  -30.5760  -12.6210   19.1630 N   0  0  0  0  0  0  0  0  0  0  0  0
  -32.0740  -13.7850   17.8860 O   0  0  0  0  0  0  0  0  0  0  0  0
  -31.0530  -14.7760   19.6280 N   0  0  0  0  0  0  0  0  0  0  0  0
  -30.3990  -14.6180   20.3800 H   0  0  0  0  0  0  0  0  0  0  0  0
  -26.1280  -13.3570   20.3430 C   0  0  0  0  0  0  0  0  0  0  0  0
  -25.0170  -12.7730   20.8910 C   0  0  0  0  0  0  0  0  0  0  0  0
  -25.1490  -11.3710   20.6480 C   0  0  0  0  0  0  0  0  0  0  0  0
  -26.8820  -12.3210   19.8120 N   0  0  0  0  0  0  0  0  0  0  0  0
  -26.3020  -11.1150   20.0440 N   0  0  0  0  0  0  0  0  0  0  0  0
  -24.2170  -10.2660   20.9070 C   0  0  0  0  0  0  0  0  0  0  0  0
  -24.5810   -9.1680   21.7160 C   0  0  0  0  0  3  0  0  0  0  0  0
  -23.6620   -8.1250   21.9650 C   0  0  0  0  0  3  0  0  0  0  0  0
  -22.3640   -8.1760   21.4060 C   0  0  0  0  0  0  0  0  0  0  0  0
  -22.0140   -9.2600   20.5820 C   0  0  0  0  0  3  0  0  0  0  0  0
  -22.9310  -10.2940   20.3320 C   0  0  0  0  0  3  0  0  0  0  0  0
  -21.4150   -7.1960   21.5700 O   0  0  0  0  0  0  0  0  0  0  0  0
  -21.3470   -6.4430   22.7140 C   0  0  0  0  0  0  0  0  0  0  0  0
  -21.1440   -7.0320   23.9820 C   0  0  0  0  0  3  0  0  0  0  0  0
  -21.0130   -6.2170   25.1240 C   0  0  0  0  0  3  0  0  0  0  0  0
  -21.0760   -4.8150   25.0010 C   0  0  0  0  0  0  0  0  0  0  0  0
  -21.2720   -4.2280   23.7390 C   0  0  0  0  0  3  0  0  0  0  0  0
  -21.4060   -5.0390   22.5990 C   0  0  0  0  0  0  0  0  0  0  0  0
  -21.5740   -4.4680   21.3830 F   0  0  0  0  0  0  0  0  0  0  0  0
  -20.9420   -4.0320   26.0960 F   0  0  0  0  0  0  0  0  0  0  0  0
  -23.8510  -13.4800   21.5200 C   0  0  0  0  0  0  0  0  0  0  0  0
  -23.2100  -12.8540   22.5010 N   0  0  0  0  0  0  0  0  0  0  0  0
  -23.5330  -14.6190   21.1780 O   0  0  0  0  0  0  0  0  0  0  0  0
  -23.4840  -11.9290   22.7970 H   0  0  0  0  0  0  0  0  0  0  0  0
  -22.4330  -13.3070   22.9620 H   0  0  0  0  0  0  0  0  0  0  0  0
  -26.5510  -14.6800   20.2410 N   0  0  0  0  0  0  0  0  0  0  0  0
  -25.9870  -15.4500   20.5830 H   0  0  0  0  0  0  0  0  0  0  0  0
  -27.3960  -14.9810   19.7730 H   0  0  0  0  0  0  0  0  0  0  0  0
  1  2  1  0
  2  5  2  0
  3  6  2  0
  4  1  2  0
  4  3  1  0
  5 55  1  0
  6  5  1  0
  6  7  1  0
  8 10  2  0
  8  4  1  0
  9  8  1  0
 11  9  1  0
 12  9  1  0
 12 13  1  0
 14 16  1  0
 14 13  1  0
 15 26  2  0
 16 21  1  0
 17 25  1  0
 17 27  1  0
 18 24  1  0
 18 20  1  0
 19 25  1  0
 20 19  1  0
 21 20  2  0
 22 23  1  0
 22 16  2  0
 23 18  2  0
 24 17  1  0
 25 15  1  0
 27 29  2  0
 28 27  1  0
 30 28  1  0
 31 40  2  0
 31 36  1  0
 32 28  1  0
 32 36  1  0
 33 32  1  0
 34 35  1  0
 34 33  1  0
 35 31  1  0
 36 37  2  0
 37 38  1  0
 39 38  2  0
 40 39  1  0
 41 15  1  0
 41 42  1  0
 41 51  1  0
 42 45  1  0
 43 47  1  0
 43 42  1  0
 44 43  2  0
 47 46  1  0
 47 49  1  0
 49 50  1  0
 49 48  1  0
 51 54  1  1
 51 52  1  0
 53 51  1  0
 56 55  1  0
 57 56  1  0
 58 67  1  0
 58 57  1  0
 59 65  1  0
 59 67  1  0
 60 65  1  0
 61 62  1  0
 61 60  1  0
 63 62  1  0
 63 72  1  0
 63 64  1  0
 65 64  1  0
 66 59  2  0
 67 68  1  0
 69 70  2  0
 70 89  1  0
 71 70  1  0
 71 74  1  0
 72 73  1  0
 72 69  1  0
 73 71  2  0
 74 75  1  0
 75 76  2  0
 77 80  1  0
 77 76  1  0
 78 77  2  0
 79 78  1  0
 79 74  2  0
 80 81  1  0
 81 82  1  0
 82 83  2  0
 84 83  1  0
 84 88  1  0
 85 84  2  0
 86 81  2  0
 86 85  1  0
 87 86  1  0
 89 90  1  0
 90 92  1  0
 90 93  1  0
 91 89  2  0
 94 69  1  0
 94 95  1  0
 96 94  1  0
M  ISO  4  13 101  14 101  59 100  67 100
M  END
>  <TORSDO>  (32) 
F 23

>  <SCORE>  (32) 
-8.542

>  <name>  (32) 
35

>  <ligand_id>  (32) 
35

>  <original_smiles>  (32) 
[H]c1c([H])c([H])c2c(c1[H])C([H])([H])C([H])([H])C([H])([H])C2([H])N([H])C(=O)C1([H])N(C(=O)C([H])(N([H])C(=O)C([H])(N([H])C([H])([H])[H])C([H])([H])[H])C(C([H])([H])[H])(C([H])([H])[H])C([H])([H])[H])C([H])([H])c2c([H])c(OC([H])([H])C([H])([H])N([H])C(=O)c3c([H])c([H])c(C([H])([H])C([H])([H])C([H])([H])C([H])([H])N([H])C(=O)N4C([H])([H])C([H])([H])C([H])([H])C([H])(n5nc(-c6c([H])c([H])c(Oc7c([H])c([H])c(F)c([H])c7F)c([H])c6[H])c(C(=O)N([H])[H])c5N([H])[H])C4([H])[H])c(C([H])([H])[H])c3[H])c([H])c([H])c2C1([H])[H]

>  <smiles>  (32) 
[H]c1c([H])c([H])c2c(c1[H])C([H])([H])C([H])([H])C([H])([H])C2([H])N([H])C(=O)C1([H])N(C(=O)C([H])(N([H])C(=O)C([H])(N([H])C([H])([H])[H])C([H])([H])[H])C(C([H])([H])[H])(C([H])([H])[H])C([H])([H])[H])C([H])([H])c2c([H])c(OC([H])([H])C([H])([H])N([H])C(=O)c3c([H])c([H])c(C([H])([H])C([H])([H])C([H])([H])C([H])([H])N([H])C(=O)N4C([H])([H])C([H])([H])C([H])([H])C([H])(n5nc(-c6c([H])c([H])c(Oc7c([H])c([H])c(F)c([H])c7F)c([H])c6[H])c(C(=O)N([H])[H])c5N([H])[H])C4([H])[H])c(C([H])([H])[H])c3[H])c([H])c([H])c2C1([H])[H]

$$$$
36:0:0
     RDKit          3D

 93100  0  0  1  0  0  0  0  0999 V2000
  -29.1420  -23.0920   20.1750 N   0  0  0  0  0  4  0  0  0  0  0  0
  -28.5130  -22.9390   19.4030 H   0  0  0  0  0  0  0  0  0  0  0  0
  -30.0940  -23.0960   19.8290 H   0  0  0  0  0  0  0  0  0  0  0  0
  -28.9810  -24.4660   20.7170 C   0  0  0  0  0  3  0  0  0  0  0  0
  -28.6650  -25.4900   19.5970 C   0  0  0  0  0  2  0  0  0  0  0  0
  -28.4670  -26.7980   20.1550 O   0  0  0  0  0  0  0  0  0  0  0  0
  -24.5750  -31.8840   23.2280 C   0  0  0  0  0  0  0  0  0  0  0  0
  -27.2410  -27.4390   20.1550 C   0  0  0  0  0  0  0  0  0  0  0  0
  -23.3730  -30.4730   21.5890 C   0  0  0  0  0  3  0  0  0  0  0  0
  -24.8290  -28.9300   20.1770 C   0  0  0  0  0  0  0  0  0  0  0  0
  -25.8950  -30.8380   21.3900 C   0  0  0  0  0  2  0  0  0  0  0  0
  -25.9830  -29.4610   20.7620 C   0  0  0  0  0  0  0  0  0  0  0  0
  -27.1850  -28.7200   20.7520 C   0  0  0  0  0  3  0  0  0  0  0  0
  -26.0570  -26.9160   19.5780 C   0  0  0  0  0  3  0  0  0  0  0  0
  -24.8610  -27.6550   19.5880 C   0  0  0  0  0  3  0  0  0  0  0  0
  -23.5840  -29.7840   20.2140 C   0  0  0  0  0  2  0  0  0  0  0  0
  -24.6330  -31.0810   22.1290 N   0  0  0  0  0  0  0  0  0  0  0  0
  -23.4930  -32.1580   23.7650 O   0  0  0  0  0  0  0  0  0  0  0  0
  -22.7230  -29.4570   22.5540 C   0  0  0  0  0  0  0  0  0  0  0  0
  -21.3980  -29.2770   22.4270 N   0  0  0  0  0  0  0  0  0  0  0  0
  -23.4070  -28.8310   23.3690 O   0  0  0  0  0  0  0  0  0  0  0  0
  -20.9080  -29.8380   21.7450 H   0  0  0  0  0  0  0  0  0  0  0  0
  -18.0200  -28.0970   22.9280 C   0  0  0  0  0  0  0  0  0  0  0  0
  -20.5790  -28.3420   23.1980 C   0  0  0  0  0  3  0  0  0  0  0  0
  -20.6730  -26.9110   22.6180 C   0  0  0  0  0  2  0  0  0  0  0  0
  -19.5680  -26.5950   21.6060 C   0  0  0  0  0  2  0  0  0  0  0  0
  -18.1880  -26.7460   22.2520 C   0  0  0  0  0  2  0  0  0  0  0  0
  -19.1430  -28.8540   23.3560 C   0  0  0  0  0  0  0  0  0  0  0  0
  -18.9320  -30.1180   23.9480 C   0  0  0  0  0  3  0  0  0  0  0  0
  -17.6310  -30.6270   24.1130 C   0  0  0  0  0  3  0  0  0  0  0  0
  -16.5210  -29.8680   23.7010 C   0  0  0  0  0  3  0  0  0  0  0  0
  -16.7170  -28.6050   23.1150 C   0  0  0  0  0  3  0  0  0  0  0  0
  -25.8610  -32.5190   23.8480 C   0  0  0  0  0  3  0  0  0  0  0  0
  -26.3830  -31.7450   25.1210 C   0  0  1  0  0  0  0  0  0  0  0  0
  -25.2940  -31.5010   26.1910 C   0  0  0  0  0  1  0  0  0  0  0  0
  -26.9690  -30.3720   24.7190 C   0  0  0  0  0  1  0  0  0  0  0  0
  -27.5330  -32.5420   25.7830 C   0  0  0  0  0  1  0  0  0  0  0  0
  -25.5490  -33.9150   24.1800 N   0  0  0  0  0  0  0  0  0  0  0  0
  -25.8800  -34.9690   23.4210 C   0  0  0  0  0  0  0  0  0  0  0  0
  -26.5510  -34.8680   22.3900 O   0  0  0  0  0  0  0  0  0  0  0  0
  -24.9540  -34.0690   24.9800 H   0  0  0  0  0  0  0  0  0  0  0  0
  -24.1470  -36.7550   23.0640 C   0  0  0  0  0  1  0  0  0  0  0  0
  -25.3890  -36.3550   23.8780 C   0  0  0  0  0  3  0  0  0  0  0  0
  -27.5180  -37.2430   24.7130 C   0  0  0  0  0  1  0  0  0  0  0  0
  -26.4180  -37.4100   23.7670 N   0  0  0  0  0  0  0  0  0  0  0  0
  -26.0100  -38.3280   23.9170 H   0  0  0  0  0  0  0  0  0  0  0  0
  -30.2810  -24.8390   21.4600 C   0  0  0  0  0  2  0  0  0  0  0  0
  -31.4000  -24.4620   20.6660 O   0  0  0  0  0  0  0  0  0  0  0  0
  -32.1900  -24.7540   21.1180 H   0  0  0  0  0  0  0  0  0  0  0  0
  -29.0030  -21.9790   21.1500 C   0  0  0  0  0  2  0  0  0  0  0  0
  -30.0530  -20.8670   20.9330 C   0  0  0  0  0  2  0  0  0  0  0  0
  -29.8350  -19.9620   19.7050 C   0  0  0  0  0  2  0  0  0  0  0  0
  -28.7140  -18.9120   19.8550 C   0  0  0  0  0  2  0  0  0  0  0  0
  -28.9810  -17.7370   20.8250 C   0  0  0  0  0  2  0  0  0  0  0  0
  -30.2030  -16.8640   20.4660 C   0  0  0  0  0  2  0  0  0  0  0  0
  -30.7570  -14.4520   20.4210 C   0  0  0  0  0  0  0  0  0  0  0  0
  -30.4670  -12.2920   19.2890 C   0  0  0  0  0  2  0  0  0  0  0  0
  -29.5360  -12.5200   18.0800 C   0  0  0  0  0  2  0  0  0  0  0  0
  -28.0560  -12.3940   18.4940 C   0  0  0  0  0  2  0  0  0  0  0  0
  -27.7170  -13.2230   19.7620 C   0  0  0  0  0  3  0  0  0  0  0  0
  -28.7630  -12.9830   20.8770 C   0  0  0  0  0  2  0  0  0  0  0  0
  -30.0980  -13.2690   20.3230 N   0  0  0  0  0  0  0  0  0  0  0  0
  -31.8770  -14.6510   19.9400 O   0  0  0  0  0  0  0  0  0  0  0  0
  -30.0120  -15.4700   20.8740 N   0  0  0  0  0  0  0  0  0  0  0  0
  -29.1200  -15.2210   21.2760 H   0  0  0  0  0  0  0  0  0  0  0  0
  -25.3080  -13.8460   20.4290 C   0  0  0  0  0  0  0  0  0  0  0  0
  -24.2360  -13.0790   20.7970 C   0  0  0  0  0  0  0  0  0  0  0  0
  -24.6950  -11.7260   20.7910 C   0  0  0  0  0  0  0  0  0  0  0  0
  -26.3570  -12.9600   20.2240 N   0  0  0  0  0  0  0  0  0  0  0  0
  -25.9880  -11.6810   20.4960 N   0  0  0  0  0  0  0  0  0  0  0  0
  -23.9660  -10.4680   20.9920 C   0  0  0  0  0  0  0  0  0  0  0  0
  -24.3890   -9.5150   21.9430 C   0  0  0  0  0  3  0  0  0  0  0  0
  -23.6620   -8.3190   22.1310 C   0  0  0  0  0  3  0  0  0  0  0  0
  -22.4980   -8.0690   21.3660 C   0  0  0  0  0  0  0  0  0  0  0  0
  -22.0940   -9.0120   20.4030 C   0  0  0  0  0  3  0  0  0  0  0  0
  -22.8220  -10.1990   20.2140 C   0  0  0  0  0  3  0  0  0  0  0  0
  -21.7430   -6.9260   21.4620 O   0  0  0  0  0  0  0  0  0  0  0  0
  -21.6830   -6.1970   22.6220 C   0  0  0  0  0  0  0  0  0  0  0  0
  -21.2420   -6.7680   23.8370 C   0  0  0  0  0  3  0  0  0  0  0  0
  -21.1300   -5.9660   24.9910 C   0  0  0  0  0  3  0  0  0  0  0  0
  -21.4460   -4.5960   24.9300 C   0  0  0  0  0  0  0  0  0  0  0  0
  -21.8790   -4.0250   23.7200 C   0  0  0  0  0  3  0  0  0  0  0  0
  -21.9940   -4.8240   22.5690 C   0  0  0  0  0  0  0  0  0  0  0  0
  -22.3910   -4.2640   21.4010 F   0  0  0  0  0  0  0  0  0  0  0  0
  -21.3310   -3.8230   26.0360 F   0  0  0  0  0  0  0  0  0  0  0  0
  -22.8370  -13.5610   21.0500 C   0  0  0  0  0  0  0  0  0  0  0  0
  -22.1010  -12.8780   21.9200 N   0  0  0  0  0  0  0  0  0  0  0  0
  -22.4060  -14.5800   20.5130 O   0  0  0  0  0  0  0  0  0  0  0  0
  -22.4630  -12.0540   22.3790 H   0  0  0  0  0  0  0  0  0  0  0  0
  -21.1600  -13.1810   22.1290 H   0  0  0  0  0  0  0  0  0  0  0  0
  -25.4770  -15.2130   20.2330 N   0  0  0  0  0  0  0  0  0  0  0  0
  -24.7070  -15.8670   20.3130 H   0  0  0  0  0  0  0  0  0  0  0  0
  -26.3290  -15.6450   19.8960 H   0  0  0  0  0  0  0  0  0  0  0  0
  1  4  1  0
  1 50  1  0
  2  1  1  0
  3  1  1  0
  4  5  1  0
  4 47  1  0
  5  6  1  0
  7 18  2  0
  8  6  1  0
  8 13  1  0
  9 17  1  0
  9 19  1  0
 10 16  1  0
 10 12  1  0
 11 17  1  0
 12 11  1  0
 13 12  2  0
 14 15  1  0
 14  8  2  0
 15 10  2  0
 16  9  1  0
 17  7  1  0
 19 21  2  0
 20 19  1  0
 22 20  1  0
 23 32  2  0
 23 28  1  0
 24 20  1  0
 24 28  1  0
 25 24  1  0
 26 27  1  0
 26 25  1  0
 27 23  1  0
 28 29  2  0
 29 30  1  0
 31 30  2  0
 32 31  1  0
 33  7  1  0
 33 38  1  0
 33 34  1  0
 34 37  1  1
 34 35  1  0
 36 34  1  0
 38 41  1  0
 39 43  1  0
 39 38  1  0
 40 39  2  0
 43 42  1  0
 45 43  1  0
 45 46  1  0
 45 44  1  0
 48 49  1  0
 48 47  1  0
 51 50  1  0
 52 53  1  0
 52 51  1  0
 53 54  1  0
 55 54  1  0
 55 64  1  0
 56 64  1  0
 57 62  1  0
 58 59  1  0
 58 57  1  0
 60 59  1  0
 60 69  1  0
 60 61  1  0
 62 56  1  0
 62 61  1  0
 63 56  2  0
 64 65  1  0
 66 67  2  0
 67 86  1  0
 68 67  1  0
 68 71  1  0
 69 66  1  0
 69 70  1  0
 70 68  2  0
 71 72  1  0
 72 73  2  0
 74 77  1  0
 74 73  1  0
 75 74  2  0
 76 75  1  0
 76 71  2  0
 77 78  1  0
 78 79  1  0
 79 80  2  0
 81 80  1  0
 81 85  1  0
 82 81  2  0
 83 78  2  0
 83 82  1  0
 84 83  1  0
 86 87  1  0
 87 90  1  0
 87 89  1  0
 88 86  2  0
 91 92  1  0
 91 66  1  0
 93 91  1  0
M  ISO  4   5 101   6 101  56 100  64 100
M  END
>  <TORSDO>  (33) 
F 26

>  <SCORE>  (33) 
-12.122

>  <name>  (33) 
36

>  <ligand_id>  (33) 
36

>  <original_smiles>  (33) 
[H]OC([H])([H])C([H])(C([H])([H])Oc1c([H])c([H])c2c(c1[H])C([H])([H])N(C(=O)C([H])(N([H])C(=O)C([H])(N([H])C([H])([H])[H])C([H])([H])[H])C(C([H])([H])[H])(C([H])([H])[H])C([H])([H])[H])C([H])(C(=O)N([H])C1([H])c3c([H])c([H])c([H])c([H])c3C([H])([H])C([H])([H])C1([H])[H])C2([H])[H])[N+]([H])([H])C([H])([H])C([H])([H])C([H])([H])C([H])([H])C([H])([H])C([H])([H])N([H])C(=O)N1C([H])([H])C([H])([H])C([H])([H])C([H])(n2nc(-c3c([H])c([H])c(Oc4c([H])c([H])c(F)c([H])c4F)c([H])c3[H])c(C(=O)N([H])[H])c2N([H])[H])C1([H])[H]

>  <smiles>  (33) 
[H]OC([H])([H])C([H])(C([H])([H])Oc1c([H])c([H])c2c(c1[H])C([H])([H])N(C(=O)C([H])(N([H])C(=O)C([H])(N([H])C([H])([H])[H])C([H])([H])[H])C(C([H])([H])[H])(C([H])([H])[H])C([H])([H])[H])C([H])(C(=O)N([H])C1([H])c3c([H])c([H])c([H])c([H])c3C([H])([H])C([H])([H])C1([H])[H])C2([H])[H])[N+]([H])([H])C([H])([H])C([H])([H])C([H])([H])C([H])([H])C([H])([H])C([H])([H])N([H])C(=O)N1C([H])([H])C([H])([H])C([H])([H])C([H])(n2nc(-c3c([H])c([H])c(Oc4c([H])c([H])c(F)c([H])c4F)c([H])c3[H])c(C(=O)N([H])[H])c2N([H])[H])C1([H])[H]

$$$$
37:0:0
     RDKit          3D

 98 98  0  0  1  0  0  0  0  0999 V2000
  -27.1040  -26.5690   20.7160 C   0  0  0  0  0  3  0  0  0  0  0  0
  -27.0120  -27.9410   17.4260 C   0  0  0  0  0  3  0  0  0  0  0  0
  -27.7240  -26.8990   18.3290 C   0  0  0  0  0  2  0  0  0  0  0  0
  -25.9460  -27.4260   21.1810 C   0  0  0  0  0  1  0  0  0  0  0  0
  -25.9030  -28.8900   17.8810 C   0  0  0  0  0  0  0  0  0  0  0  0
  -25.2470  -28.9370   19.3890 C   0  0  0  0  0  2  0  0  0  0  0  0
  -25.6000  -29.8020   16.6570 C   0  0  0  0  0  1  0  0  0  0  0  0
  -23.8860  -31.5390   19.5930 C   0  0  0  0  0  1  0  0  0  0  0  0
  -22.7140  -29.4980   18.6720 C   0  0  0  0  0  1  0  0  0  0  0  0
  -24.0960  -30.0890   19.0600 C   0  0  0  0  0  3  0  0  0  0  0  0
  -26.1030  -25.5310   21.9040 C   0  0  0  0  0  3  0  0  0  0  0  0
  -25.5770  -25.5150   23.0090 O   0  0  0  0  0  0  0  0  0  0  0  0
  -26.6890  -23.5670   21.6210 C   0  0  0  0  0 15  0  0  0  0  0  0
  -27.9350  -21.9110   21.0950 C   0  0  0  0  0 15  0  0  0  0  0  0
  -28.1080  -19.8070   20.7450 C   0  0  0  0  0 15  0  0  0  0  0  0
  -29.3320  -18.1380   20.2680 C   0  0  0  0  0 15  0  0  0  0  0  0
  -30.3990  -14.8660   19.7830 C   0  0  0  0  0  0  0  0  0  0  0  0
  -30.7050  -12.2320   18.9360 C   0  0  0  0  0  2  0  0  0  0  0  0
  -29.7450  -11.6220   17.8560 C   0  0  0  0  0  2  0  0  0  0  0  0
  -28.3930  -11.2260   18.4650 C   0  0  0  0  0  2  0  0  0  0  0  0
  -27.9640  -12.2760   19.5100 C   0  0  0  0  0  3  0  0  0  0  0  0
  -29.0520  -12.6710   20.5200 C   0  0  0  0  0  2  0  0  0  0  0  0
  -30.0490  -13.4110   19.7350 N   0  0  0  0  0  0  0  0  0  0  0  0
  -31.6160  -14.8290   19.4450 O   0  0  0  0  0  0  0  0  0  0  0  0
  -29.4990  -16.2300   20.0430 N   0  0  0  0  0  2  0  0  0  0  0  0
  -28.5750  -15.8530   20.1860 H   0  0  0  0  0  0  0  0  0  0  0  0
  -25.8010  -12.9060   20.6280 C   0  0  0  0  0  0  0  0  0  0  0  0
  -24.7500  -12.1750   21.0920 C   0  0  0  0  0  0  0  0  0  0  0  0
  -25.1000  -10.8030   20.8930 C   0  0  0  0  0  0  0  0  0  0  0  0
  -26.7150  -11.9830   20.1690 N   0  0  0  0  0  0  0  0  0  0  0  0
  -26.3260  -10.7040   20.3890 N   0  0  0  0  0  0  0  0  0  0  0  0
  -24.3110   -9.5840   21.0970 C   0  0  0  0  0  0  0  0  0  0  0  0
  -24.7240   -8.5790   21.9990 C   0  0  0  0  0  3  0  0  0  0  0  0
  -23.9360   -7.4250   22.1920 C   0  0  0  0  0  3  0  0  0  0  0  0
  -22.7210   -7.2700   21.4850 C   0  0  0  0  0  0  0  0  0  0  0  0
  -22.3240   -8.2640   20.5740 C   0  0  0  0  0  3  0  0  0  0  0  0
  -23.1120   -9.4100   20.3790 C   0  0  0  0  0  3  0  0  0  0  0  0
  -21.9010   -6.1730   21.5910 O   0  0  0  0  0  0  0  0  0  0  0  0
  -21.7440   -5.5030   22.7780 C   0  0  0  0  0  0  0  0  0  0  0  0
  -21.0930   -6.0900   23.8860 C   0  0  0  0  0  3  0  0  0  0  0  0
  -20.8940   -5.3410   25.0630 C   0  0  0  0  0  3  0  0  0  0  0  0
  -21.3360   -4.0060   25.1300 C   0  0  0  0  0  0  0  0  0  0  0  0
  -21.9790   -3.4180   24.0270 C   0  0  0  0  0  3  0  0  0  0  0  0
  -22.1780   -4.1640   22.8530 C   0  0  0  0  0  0  0  0  0  0  0  0
  -22.7800   -3.5870   21.7840 F   0  0  0  0  0  0  0  0  0  0  0  0
  -21.1360   -3.2830   26.2580 F   0  0  0  0  0  0  0  0  0  0  0  0
  -23.4490  -12.7270   21.5910 C   0  0  0  0  0  0  0  0  0  0  0  0
  -22.7820  -12.0020   22.4810 N   0  0  0  0  0  0  0  0  0  0  0  0
  -23.0430  -13.8300   21.2270 O   0  0  0  0  0  0  0  0  0  0  0  0
  -23.1270  -11.1050   22.7880 H   0  0  0  0  0  0  0  0  0  0  0  0
  -21.9120  -12.3450   22.8620 H   0  0  0  0  0  0  0  0  0  0  0  0
  -26.0490  -14.2740   20.5190 N   0  0  0  0  0  0  0  0  0  0  0  0
  -25.3440  -14.9640   20.7520 H   0  0  0  0  0  0  0  0  0  0  0  0
  -26.8030  -14.6540   19.9630 H   0  0  0  0  0  0  0  0  0  0  0  0
  -28.9700  -26.4490   17.4190 C   0  0  0  0  0  0  0  0  0  0  0  0
  -28.9650  -26.4900   16.1830 O   0  0  0  0  0  0  0  0  0  0  0  0
  -30.3090  -25.9640   18.1230 C   0  0  0  0  0  2  0  0  0  0  0  0
  -30.1430  -25.1750   19.3330 O   0  0  0  0  0  0  0  0  0  0  0  0
  -25.3550  -30.2760   23.2500 C   0  0  0  0  0  0  0  0  0  0  0  0
  -29.0110  -25.5440   19.8270 C   0  0  0  0  0  3  0  0  0  0  0  0
  -24.0030  -28.5330   21.6300 C   0  0  0  0  0  2  0  0  0  0  0  0
  -25.6050  -26.9140   19.1160 C   0  0  0  0  0  2  0  0  0  0  0  0
  -27.1100  -29.2950   21.5940 C   0  0  0  0  0  2  0  0  0  0  0  0
  -27.5780  -28.2320   20.2320 C   0  0  0  0  0  3  0  0  0  0  0  0
  -29.0190  -27.2530   20.3870 C   0  0  0  0  0  2  0  0  0  0  0  0
  -27.6260  -24.6590   19.0700 C   0  0  0  0  0  3  0  0  0  0  0  0
  -26.0290  -25.3110   18.7290 C   0  0  0  0  0  3  0  0  0  0  0  0
  -23.9430  -27.3040   20.0160 C   0  0  0  0  0  1  0  0  0  0  0  0
  -25.4930  -29.3450   22.2680 N   0  0  0  0  0  0  0  0  0  0  0  0
  -24.2470  -30.5790   23.7090 O   0  0  0  0  0  0  0  0  0  0  0  0
  -23.3680  -27.7990   22.6850 C   0  0  0  0  0  0  0  0  0  0  0  0
  -22.1210  -27.5180   22.3760 N   0  0  0  0  0  0  0  0  0  0  0  0
  -24.0080  -27.4040   23.6530 O   0  0  0  0  0  0  0  0  0  0  0  0
  -21.7150  -27.8970   21.5300 H   0  0  0  0  0  0  0  0  0  0  0  0
  -19.0530  -25.8590   22.2830 C   0  0  0  0  0  0  0  0  0  0  0  0
  -21.3620  -26.5630   23.0870 C   0  0  0  0  0  3  0  0  0  0  0  0
  -21.8500  -25.1480   22.7010 C   0  0  0  0  0  2  0  0  0  0  0  0
  -21.0910  -24.5610   21.5170 C   0  0  0  0  0  2  0  0  0  0  0  0
  -19.6030  -24.5040   21.8600 C   0  0  0  0  0  2  0  0  0  0  0  0
  -19.8960  -26.8470   22.8360 C   0  0  0  0  0  0  0  0  0  0  0  0
  -19.3800  -28.1270   23.1400 C   0  0  0  0  0  3  0  0  0  0  0  0
  -18.0150  -28.4040   22.9520 C   0  0  0  0  0  3  0  0  0  0  0  0
  -17.1660  -27.3990   22.4550 C   0  0  0  0  0  3  0  0  0  0  0  0
  -17.6830  -26.1340   22.1160 C   0  0  0  0  0  3  0  0  0  0  0  0
  -26.6010  -31.0370   23.8180 C   0  0  0  0  0  3  0  0  0  0  0  0
  -26.2170  -32.4170   24.1650 N   0  0  0  0  0  0  0  0  0  0  0  0
  -26.4720  -33.5200   23.4400 C   0  0  0  0  0  0  0  0  0  0  0  0
  -27.1000  -33.5000   22.3770 O   0  0  0  0  0  0  0  0  0  0  0  0
  -25.6530  -32.5100   24.9950 H   0  0  0  0  0  0  0  0  0  0  0  0
  -24.6410  -35.2430   23.2640 C   0  0  0  0  0  1  0  0  0  0  0  0
  -25.9450  -34.8660   23.9810 C   0  0  0  0  0  3  0  0  0  0  0  0
  -28.0680  -35.8480   24.7440 C   0  0  0  0  0  1  0  0  0  0  0  0
  -26.9130  -35.9800   23.8590 N   0  0  0  0  0  0  0  0  0  0  0  0
  -26.4630  -36.8690   24.0560 H   0  0  0  0  0  0  0  0  0  0  0  0
  -27.2000  -30.2760   25.0580 C   0  0  1  0  0  0  0  0  0  0  0  0
  -26.1520  -30.0100   26.1600 C   0  0  0  0  0  1  0  0  0  0  0  0
  -27.8170  -28.9050   24.6810 C   0  0  0  0  0  1  0  0  0  0  0  0
  -28.3520  -31.1010   25.6800 C   0  0  0  0  0  1  0  0  0  0  0  0
  1  4  1  0
  1 11  1  0
  2  5  2  0
  2  3  1  0
  5  6  1  0
  7  5  1  0
  9 10  1  0
 10  6  1  0
 10  8  1  0
 11 12  2  0
 17 25  1  0
 18 23  1  0
 19 20  1  0
 19 18  1  0
 21 20  1  0
 21 30  1  0
 21 22  1  0
 23 17  1  0
 23 22  1  0
 24 17  2  0
 25 26  1  0
 27 28  2  0
 28 47  1  0
 29 28  1  0
 29 32  1  0
 30 31  1  0
 30 27  1  0
 31 29  2  0
 32 33  1  0
 33 34  2  0
 35 38  1  0
 35 34  1  0
 36 35  2  0
 37 36  1  0
 37 32  2  0
 38 39  1  0
 39 44  2  0
 39 40  1  0
 40 41  2  0
 41 42  1  0
 42 46  1  0
 43 42  2  0
 44 43  1  0
 45 44  1  0
 47 48  1  0
 48 50  1  0
 48 51  1  0
 49 47  2  0
 52 27  1  0
 52 53  1  0
 54 52  1  0
 55 57  1  0
 55  3  1  0
 56 55  2  0
 57 58  1  0
 58 60  1  0
 59 70  2  0
 60 66  1  0
 60 65  1  0
 61 69  1  0
 61 71  1  0
 62 68  1  0
 63 69  1  0
 64 65  1  0
 64  1  1  0
 64 63  1  0
 67 66  2  0
 67 62  1  0
 69 59  1  0
 71 73  2  0
 72 71  1  0
 74 72  1  0
 75 80  1  0
 76 72  1  0
 77 76  1  0
 78 79  1  0
 78 77  1  0
 79 75  1  0
 80 76  1  0
 80 81  2  0
 82 81  1  0
 83 82  2  0
 84 75  2  0
 84 83  1  0
 85 59  1  0
 85 86  1  0
 85 95  1  0
 86 89  1  0
 87 91  1  0
 87 86  1  0
 88 87  2  0
 91 90  1  0
 93 91  1  0
 93 94  1  0
 93 92  1  0
 95 98  1  1
 95 96  1  0
 97 95  1  0
M  ISO  4  17 100  25 100  57 101  58 101
M  END
>  <TORSDO>  (34) 
F 24

>  <SCORE>  (34) 
-7.643

>  <name>  (34) 
37

>  <ligand_id>  (34) 
37

>  <original_smiles>  (34) 
[H]c1c([H])c([H])c2c(c1[H])C([H])([H])C([H])([H])C([H])([H])C2([H])N([H])C(=O)C1([H])N(C(=O)C([H])(N([H])C(=O)C([H])(N([H])C([H])([H])[H])C([H])([H])[H])C(C([H])([H])[H])(C([H])([H])[H])C([H])([H])[H])C([H])([H])c2c([H])c(OC([H])([H])C(=O)c3c([H])c(C(=O)C([H])([H])C([H])([H])C([H])([H])C([H])([H])N([H])C(=O)N4C([H])([H])C([H])([H])C([H])([H])C([H])(n5nc(-c6c([H])c([H])c(Oc7c([H])c([H])c(F)c([H])c7F)c([H])c6[H])c(C(=O)N([H])[H])c5N([H])[H])C4([H])[H])c(C([H])(C([H])([H])[H])C([H])([H])[H])c(C([H])([H])[H])c3[H])c([H])c([H])c2C1([H])[H]

>  <smiles>  (34) 
[H]c1c([H])c([H])c2c(c1[H])C([H])([H])C([H])([H])C([H])([H])C2([H])N([H])C(=O)C1([H])N(C(=O)C([H])(N([H])C(=O)C([H])(N([H])C([H])([H])[H])C([H])([H])[H])C(C([H])([H])[H])(C([H])([H])[H])C([H])([H])[H])C([H])([H])c2c([H])c(OC([H])([H])C(=O)c3c([H])c(C(=O)C([H])([H])C([H])([H])C([H])([H])C([H])([H])N([H])C(=O)N4C([H])([H])C([H])([H])C([H])([H])C([H])(n5nc(-c6c([H])c([H])c(Oc7c([H])c([H])c(F)c([H])c7F)c([H])c6[H])c(C(=O)N([H])[H])c5N([H])[H])C4([H])[H])c(C([H])(C([H])([H])[H])C([H])([H])[H])c(C([H])([H])[H])c3[H])c([H])c([H])c2C1([H])[H]

$$$$
38:0:0
     RDKit          3D

105113  0  0  1  0  0  0  0  0999 V2000
  -27.0850  -21.4320   20.5560 C   0  0  0  0  0  3  0  0  0  0  0  0
  -26.1850  -21.3610   19.4770 C   0  0  0  0  0  3  0  0  0  0  0  0
  -28.5840  -22.7860   19.2060 C   0  0  0  0  0  3  0  0  0  0  0  0
  -28.3050  -22.1290   20.4260 C   0  0  0  0  0  0  0  0  0  0  0  0
  -27.6980  -22.7140   18.1070 C   0  0  0  0  0  0  0  0  0  0  0  0
  -26.4810  -21.9820   18.2440 C   0  0  0  0  0  0  0  0  0  0  0  0
  -29.2890  -22.1430   21.5650 C   0  0  0  0  0  0  0  0  0  0  0  0
  -30.5750  -22.1080   21.1990 N   0  0  0  0  0  0  0  0  0  0  0  0
  -28.9190  -22.0730   22.7380 O   0  0  0  0  0  0  0  0  0  0  0  0
  -30.7580  -22.1750   20.2080 H   0  0  0  0  0  0  0  0  0  0  0  0
  -31.6950  -21.7000   22.0390 C   0  0  0  0  0  2  0  0  0  0  0  0
  -31.6760  -20.1740   22.2590 C   0  0  0  0  0  2  0  0  0  0  0  0
  -31.8770  -19.3750   20.9560 C   0  0  0  0  0  2  0  0  0  0  0  0
  -31.9730  -17.8600   21.1710 C   0  0  0  0  0  2  0  0  0  0  0  0
  -32.5950  -17.1640   19.9490 C   0  0  0  0  0  2  0  0  0  0  0  0
  -33.2220  -15.7990   20.2630 C   0  0  0  0  0  2  0  0  0  0  0  0
  -32.3210  -13.6040   19.4780 C   0  0  0  0  0  0  0  0  0  0  0  0
  -31.7940  -11.2020   19.6290 C   0  0  0  0  0  2  0  0  0  0  0  0
  -30.8080  -10.6960   18.5660 C   0  0  0  0  0  2  0  0  0  0  0  0
  -29.3570  -10.9030   19.0330 C   0  0  0  0  0  2  0  0  0  0  0  0
  -29.0940  -12.3520   19.5150 C   0  0  0  0  0  3  0  0  0  0  0  0
  -30.1760  -12.8060   20.5200 C   0  0  0  0  0  2  0  0  0  0  0  0
  -31.5070  -12.6140   19.9140 N   0  0  0  0  0  0  0  0  0  0  0  0
  -33.2060  -13.4430   18.6300 O   0  0  0  0  0  0  0  0  0  0  0  0
  -32.2420  -14.7160   20.2180 N   0  0  0  0  0  0  0  0  0  0  0  0
  -31.5220  -14.7210   20.9250 H   0  0  0  0  0  0  0  0  0  0  0  0
  -27.0420  -13.6390   20.3930 C   0  0  0  0  0  0  0  0  0  0  0  0
  -25.8090  -13.2150   20.8140 C   0  0  0  0  0  0  0  0  0  0  0  0
  -25.8290  -11.7900   20.7230 C   0  0  0  0  0  0  0  0  0  0  0  0
  -27.7510  -12.4890   20.0740 N   0  0  0  0  0  0  0  0  0  0  0  0
  -27.0240  -11.3710   20.3280 N   0  0  0  0  0  0  0  0  0  0  0  0
  -24.7610  -10.8030   20.9350 C   0  0  0  0  0  0  0  0  0  0  0  0
  -24.9490   -9.6790   21.7690 C   0  0  0  0  0  3  0  0  0  0  0  0
  -23.9020   -8.7530   21.9700 C   0  0  0  0  0  3  0  0  0  0  0  0
  -22.6510   -8.9490   21.3380 C   0  0  0  0  0  0  0  0  0  0  0  0
  -22.4770  -10.0570   20.4910 C   0  0  0  0  0  3  0  0  0  0  0  0
  -23.5210  -10.9750   20.2880 C   0  0  0  0  0  3  0  0  0  0  0  0
  -21.5850   -8.0900   21.4550 O   0  0  0  0  0  0  0  0  0  0  0  0
  -21.4550   -7.2460   22.5290 C   0  0  0  0  0  0  0  0  0  0  0  0
  -21.3500   -7.7330   23.8510 C   0  0  0  0  0  3  0  0  0  0  0  0
  -21.1470   -6.8350   24.9170 C   0  0  0  0  0  3  0  0  0  0  0  0
  -21.0390   -5.4540   24.6650 C   0  0  0  0  0  0  0  0  0  0  0  0
  -21.1380   -4.9680   23.3500 C   0  0  0  0  0  3  0  0  0  0  0  0
  -21.3420   -5.8630   22.2850 C   0  0  0  0  0  0  0  0  0  0  0  0
  -21.4150   -5.3920   21.0160 F   0  0  0  0  0  0  0  0  0  0  0  0
  -20.8370   -4.5920   25.6890 F   0  0  0  0  0  0  0  0  0  0  0  0
  -24.6440  -14.0840   21.1920 C   0  0  0  0  0  0  0  0  0  0  0  0
  -23.8150  -13.6280   22.1240 N   0  0  0  0  0  0  0  0  0  0  0  0
  -24.4890  -15.1980   20.6930 O   0  0  0  0  0  0  0  0  0  0  0  0
  -23.9530  -12.7230   22.5480 H   0  0  0  0  0  0  0  0  0  0  0  0
  -23.0290  -14.1910   22.4180 H   0  0  0  0  0  0  0  0  0  0  0  0
  -27.6110  -14.8980   20.2350 N   0  0  0  0  0  0  0  0  0  0  0  0
  -27.0980  -15.7550   20.4160 H   0  0  0  0  0  0  0  0  0  0  0  0
  -28.5480  -15.0630   19.8890 H   0  0  0  0  0  0  0  0  0  0  0  0
  -28.1030  -23.3850   16.8220 C   0  0  0  0  0  0  0  0  0  0  0  0
  -28.5550  -24.6340   16.9660 N   0  0  0  0  0  0  0  0  0  0  0  0
  -28.0290  -22.8120   15.7340 O   0  0  0  0  0  0  0  0  0  0  0  0
  -28.5350  -25.0180   17.9000 H   0  0  0  0  0  0  0  0  0  0  0  0
  -29.0430  -25.4970   15.8960 C   0  0  0  0  0  2  0  0  0  0  0  0
  -27.9370  -26.3970   15.3170 C   0  0  0  0  0  2  0  0  0  0  0  0
  -27.1390  -27.1800   16.3740 C   0  0  0  0  0  2  0  0  0  0  0  0
  -25.8540  -26.5960   16.5610 O   0  0  0  0  0  0  0  0  0  0  0  0
  -24.3860  -28.2470   23.3680 C   0  0  0  0  0  0  0  0  0  0  0  0
  -25.0200  -27.1650   17.4990 C   0  0  0  0  0  0  0  0  0  0  0  0
  -22.5350  -28.5320   21.7460 C   0  0  0  0  0  3  0  0  0  0  0  0
  -23.1850  -28.3610   19.2870 C   0  0  0  0  0  0  0  0  0  0  0  0
  -24.9690  -28.7430   21.0020 C   0  0  0  0  0  2  0  0  0  0  0  0
  -24.5310  -28.2290   19.6480 C   0  0  0  0  0  0  0  0  0  0  0  0
  -25.4500  -27.6300   18.7660 C   0  0  0  0  0  3  0  0  0  0  0  0
  -23.6600  -27.2920   17.1540 C   0  0  0  0  0  3  0  0  0  0  0  0
  -22.7400  -27.8900   18.0370 C   0  0  0  0  0  3  0  0  0  0  0  0
  -22.2720  -29.0210   20.2950 C   0  0  0  0  0  2  0  0  0  0  0  0
  -23.9950  -28.4730   22.0820 N   0  0  0  0  0  0  0  0  0  0  0  0
  -23.5530  -28.1330   24.2770 O   0  0  0  0  0  0  0  0  0  0  0  0
  -21.8050  -27.1850   21.9510 C   0  0  0  0  0  0  0  0  0  0  0  0
  -20.4630  -27.2290   21.9500 N   0  0  0  0  0  0  0  0  0  0  0  0
  -22.4370  -26.1340   22.0790 O   0  0  0  0  0  0  0  0  0  0  0  0
  -20.0230  -28.1330   21.8470 H   0  0  0  0  0  0  0  0  0  0  0  0
  -17.0030  -26.2130   21.7600 C   0  0  0  0  0  0  0  0  0  0  0  0
  -19.5630  -26.0850   22.0830 C   0  0  0  0  0  3  0  0  0  0  0  0
  -19.5780  -25.2120   20.8060 C   0  0  0  0  0  2  0  0  0  0  0  0
  -18.4830  -25.5890   19.8030 C   0  0  0  0  0  2  0  0  0  0  0  0
  -17.0990  -25.4560   20.4460 C   0  0  0  0  0  2  0  0  0  0  0  0
  -18.1610  -26.5220   22.5200 C   0  0  0  0  0  0  0  0  0  0  0  0
  -18.0180  -27.2580   23.7160 C   0  0  0  0  0  3  0  0  0  0  0  0
  -16.7500  -27.6820   24.1550 C   0  0  0  0  0  3  0  0  0  0  0  0
  -15.6050  -27.3590   23.4070 C   0  0  0  0  0  3  0  0  0  0  0  0
  -15.7320  -26.6210   22.2160 C   0  0  0  0  0  3  0  0  0  0  0  0
  -25.8940  -28.1420   23.7600 C   0  0  0  0  0  3  0  0  0  0  0  0
  -26.0700  -28.8570   25.0320 N   0  0  0  0  0  0  0  0  0  0  0  0
  -26.6530  -30.0570   25.1530 C   0  0  0  0  0  0  0  0  0  0  0  0
  -27.1670  -30.6510   24.2010 O   0  0  0  0  0  0  0  0  0  0  0  0
  -25.6220  -28.4550   25.8410 H   0  0  0  0  0  0  0  0  0  0  0  0
  -25.5930  -31.8020   26.6200 C   0  0  0  0  0  1  0  0  0  0  0  0
  -26.6640  -30.7010   26.5510 C   0  0  0  0  0  3  0  0  0  0  0  0
  -29.0010  -30.2430   27.1490 C   0  0  0  0  0  1  0  0  0  0  0  0
  -27.9800  -31.2620   26.9290 N   0  0  0  0  0  0  0  0  0  0  0  0
  -27.9030  -31.8200   27.7750 H   0  0  0  0  0  0  0  0  0  0  0  0
  -26.4030  -26.6540   23.8780 C   0  0  1  0  0  0  0  0  0  0  0  0
  -25.5140  -25.7660   24.7790 C   0  0  0  0  0  1  0  0  0  0  0  0
  -26.4770  -25.9930   22.4820 C   0  0  0  0  0  1  0  0  0  0  0  0
  -27.8370  -26.6370   24.4570 C   0  0  0  0  0  1  0  0  0  0  0  0
  -25.4640  -21.8480   17.1130 C   0  0  0  0  0  2  0  0  0  0  0  0
  -23.5300  -22.9280   15.8570 C   0  0  0  0  0  1  0  0  0  0  0  0
  -24.4560  -23.0100   17.0750 C   0  0  0  0  0  2  0  0  0  0  0  0
  2  1  2  0
  3  4  2  0
  4  1  1  0
  4  7  1  0
  5  6  2  0
  5  3  1  0
  6  2  1  0
  7  9  2  0
  8  7  1  0
  8 11  1  0
 10  8  1  0
 11 12  1  0
 13 14  1  0
 13 12  1  0
 15 16  1  0
 15 14  1  0
 17 23  1  0
 17 25  1  0
 18 23  1  0
 19 20  1  0
 19 18  1  0
 21 20  1  0
 21 30  1  0
 21 22  1  0
 23 22  1  0
 24 17  2  0
 25 16  1  0
 25 26  1  0
 27 28  2  0
 28 47  1  0
 29 28  1  0
 29 32  1  0
 30 31  1  0
 30 27  1  0
 31 29  2  0
 32 33  1  0
 33 34  2  0
 35 38  1  0
 35 34  1  0
 36 35  2  0
 37 36  1  0
 37 32  2  0
 38 39  1  0
 39 40  1  0
 40 41  2  0
 42 41  1  0
 42 46  1  0
 43 42  2  0
 44 39  2  0
 44 43  1  0
 45 44  1  0
 47 48  1  0
 48 51  1  0
 48 50  1  0
 49 47  2  0
 52 27  1  0
 52 53  1  0
 54 52  1  0
 55 56  1  0
 55  5  1  0
 56 58  1  0
 57 55  2  0
 59 56  1  0
 60 59  1  0
 60 61  1  0
 61 62  1  0
 62 64  1  0
 63 74  2  0
 64 69  1  0
 65 75  1  0
 65 73  1  0
 66 68  1  0
 66 72  1  0
 67 73  1  0
 68 67  1  0
 69 68  2  0
 70 64  2  0
 70 71  1  0
 71 66  2  0
 72 65  1  0
 73 63  1  0
 75 77  2  0
 76 75  1  0
 78 76  1  0
 79 88  2  0
 79 84  1  0
 80 76  1  0
 80 84  1  0
 81 80  1  0
 82 83  1  0
 82 81  1  0
 83 79  1  0
 84 85  2  0
 85 86  1  0
 87 86  2  0
 88 87  1  0
 89 63  1  0
 89 99  1  0
 89 90  1  0
 90 91  1  0
 90 93  1  0
 91 95  1  0
 92 91  2  0
 95 94  1  0
 95 97  1  0
 97 96  1  0
 97 98  1  0
 99102  1  1
 99100  1  0
101 99  1  0
103  6  1  0
104105  1  0
105103  1  0
M  ISO  4  17 100  25 100  61 101  62 101
M  END
>  <TORSDO>  (35) 
F 29

>  <SCORE>  (35) 
-4.640

>  <name>  (35) 
38

>  <ligand_id>  (35) 
38

>  <original_smiles>  (35) 
[H]c1c([H])c([H])c2c(c1[H])C([H])([H])C([H])([H])C([H])([H])C2([H])N([H])C(=O)C1([H])N(C(=O)C([H])(N([H])C(=O)C([H])(N([H])C([H])([H])[H])C([H])([H])[H])C(C([H])([H])[H])(C([H])([H])[H])C([H])([H])[H])C([H])([H])c2c([H])c(OC([H])([H])C([H])([H])C([H])([H])N([H])C(=O)c3c([H])c(C(=O)N([H])C([H])([H])C([H])([H])C([H])([H])C([H])([H])C([H])([H])C([H])([H])N([H])C(=O)N4C([H])([H])C([H])([H])C([H])([H])C([H])(n5nc(-c6c([H])c([H])c(Oc7c([H])c([H])c(F)c([H])c7F)c([H])c6[H])c(C(=O)N([H])[H])c5N([H])[H])C4([H])[H])c([H])c([H])c3C([H])([H])C([H])([H])C([H])([H])[H])c([H])c([H])c2C1([H])[H]

>  <smiles>  (35) 
[H]c1c([H])c([H])c2c(c1[H])C([H])([H])C([H])([H])C([H])([H])C2([H])N([H])C(=O)C1([H])N(C(=O)C([H])(N([H])C(=O)C([H])(N([H])C([H])([H])[H])C([H])([H])[H])C(C([H])([H])[H])(C([H])([H])[H])C([H])([H])[H])C([H])([H])c2c([H])c(OC([H])([H])C([H])([H])C([H])([H])N([H])C(=O)c3c([H])c(C(=O)N([H])C([H])([H])C([H])([H])C([H])([H])C([H])([H])C([H])([H])C([H])([H])N([H])C(=O)N4C([H])([H])C([H])([H])C([H])([H])C([H])(n5nc(-c6c([H])c([H])c(Oc7c([H])c([H])c(F)c([H])c7F)c([H])c6[H])c(C(=O)N([H])[H])c5N([H])[H])C4([H])[H])c([H])c([H])c3C([H])([H])C([H])([H])C([H])([H])[H])c([H])c([H])c2C1([H])[H]

$$$$
39:0:0
     RDKit          3D

 99107  0  0  1  0  0  0  0  0999 V2000
  -26.9740  -21.6070   18.8560 C   0  0  0  0  0  3  0  0  0  0  0  0
  -27.1940  -22.2240   17.6790 C   0  0  0  0  0  3  0  0  0  0  0  0
  -27.7750  -18.2170   20.3190 C   0  0  0  0  0  3  0  0  0  0  0  0
  -27.0690  -19.3130   19.7870 C   0  0  0  0  0  3  0  0  0  0  0  0
  -29.8670  -19.4140   19.9930 C   0  0  0  0  0  3  0  0  0  0  0  0
  -29.1840  -18.2540   20.4200 C   0  0  0  0  0  0  0  0  0  0  0  0
  -27.7530  -20.4680   19.3560 C   0  0  0  0  0  0  0  0  0  0  0  0
  -29.1680  -20.5190   19.4730 C   0  0  0  0  0  0  0  0  0  0  0  0
  -29.9740  -21.7600   19.1150 C   0  0  0  0  0  1  0  0  0  0  0  0
  -29.9230  -17.1050   21.0090 C   0  0  0  0  0  0  0  0  0  0  0  0
  -29.3990  -16.2880   21.7730 O   0  0  0  0  0  0  0  0  0  0  0  0
  -31.3960  -16.9470   20.5950 C   0  0  0  0  0  2  0  0  0  0  0  0
  -32.0930  -15.6560   21.0710 C   0  0  0  0  0  2  0  0  0  0  0  0
  -31.4500  -13.7000   19.6390 C   0  0  0  0  0  0  0  0  0  0  0  0
  -30.8430  -11.4890   18.7370 C   0  0  0  0  0  2  0  0  0  0  0  0
  -29.7940  -11.5460   17.6130 C   0  0  0  0  0  2  0  0  0  0  0  0
  -28.3700  -11.5630   18.1960 C   0  0  0  0  0  2  0  0  0  0  0  0
  -28.1950  -12.6440   19.2930 C   0  0  0  0  0  3  0  0  0  0  0  0
  -29.3290  -12.5480   20.3370 C   0  0  0  0  0  2  0  0  0  0  0  0
  -30.6300  -12.6230   19.6430 N   0  0  0  0  0  0  0  0  0  0  0  0
  -32.3160  -13.9120   18.7830 O   0  0  0  0  0  0  0  0  0  0  0  0
  -31.3420  -14.4480   20.7400 N   0  0  0  0  0  0  0  0  0  0  0  0
  -30.6590  -14.1370   21.4170 H   0  0  0  0  0  0  0  0  0  0  0  0
  -26.0140  -13.5690   20.3080 C   0  0  0  0  0  0  0  0  0  0  0  0
  -24.8890  -12.9460   20.7780 C   0  0  0  0  0  0  0  0  0  0  0  0
  -25.1280  -11.5450   20.6420 C   0  0  0  0  0  0  0  0  0  0  0  0
  -26.8780  -12.5550   19.9220 N   0  0  0  0  0  0  0  0  0  0  0  0
  -26.3510  -11.3290   20.1750 N   0  0  0  0  0  0  0  0  0  0  0  0
  -24.2430  -10.3960   20.8750 C   0  0  0  0  0  0  0  0  0  0  0  0
  -24.6030   -9.3520   21.7570 C   0  0  0  0  0  3  0  0  0  0  0  0
  -23.7280   -8.2680   21.9770 C   0  0  0  0  0  3  0  0  0  0  0  0
  -22.4770   -8.2190   21.3170 C   0  0  0  0  0  0  0  0  0  0  0  0
  -22.1330   -9.2480   20.4240 C   0  0  0  0  0  3  0  0  0  0  0  0
  -23.0080  -10.3250   20.2010 C   0  0  0  0  0  3  0  0  0  0  0  0
  -21.5740   -7.1920   21.4500 O   0  0  0  0  0  0  0  0  0  0  0  0
  -21.4870   -6.4550   22.6040 C   0  0  0  0  0  0  0  0  0  0  0  0
  -21.2120   -7.0540   23.8520 C   0  0  0  0  0  3  0  0  0  0  0  0
  -21.0630   -6.2510   25.0000 C   0  0  0  0  0  3  0  0  0  0  0  0
  -21.1790   -4.8520   24.9030 C   0  0  0  0  0  0  0  0  0  0  0  0
  -21.4480   -4.2530   23.6590 C   0  0  0  0  0  3  0  0  0  0  0  0
  -21.5990   -5.0520   22.5130 C   0  0  0  0  0  0  0  0  0  0  0  0
  -21.8370   -4.4690   21.3130 F   0  0  0  0  0  0  0  0  0  0  0  0
  -21.0280   -4.0790   26.0040 F   0  0  0  0  0  0  0  0  0  0  0  0
  -23.6230  -13.6100   21.2390 C   0  0  0  0  0  0  0  0  0  0  0  0
  -22.9150  -12.9940   22.1800 N   0  0  0  0  0  0  0  0  0  0  0  0
  -23.2790  -14.7070   20.8000 O   0  0  0  0  0  0  0  0  0  0  0  0
  -23.2080  -12.1050   22.5570 H   0  0  0  0  0  0  0  0  0  0  0  0
  -22.0690  -13.4200   22.5310 H   0  0  0  0  0  0  0  0  0  0  0  0
  -26.3660  -14.9070   20.1590 N   0  0  0  0  0  0  0  0  0  0  0  0
  -25.7250  -15.6620   20.3770 H   0  0  0  0  0  0  0  0  0  0  0  0
  -27.2330  -15.2270   19.7470 H   0  0  0  0  0  0  0  0  0  0  0  0
  -26.5420  -23.4810   17.3950 C   0  0  0  0  0  0  0  0  0  0  0  0
  -27.3610  -24.2510   16.6720 N   0  0  0  0  0  0  0  0  0  0  0  0
  -25.4960  -23.8950   17.8990 O   0  0  0  0  0  0  0  0  0  0  0  0
  -28.1070  -23.7610   16.1970 H   0  0  0  0  0  0  0  0  0  0  0  0
  -27.6890  -25.6130   17.0780 C   0  0  0  0  0  2  0  0  0  0  0  0
  -28.7350  -25.5390   18.2150 C   0  0  0  0  0  2  0  0  0  0  0  0
  -29.0490  -26.8690   18.9130 C   0  0  0  0  0  2  0  0  0  0  0  0
  -28.4690  -26.8870   20.2170 O   0  0  0  0  0  0  0  0  0  0  0  0
  -24.6620  -32.0030   23.3500 C   0  0  0  0  0  0  0  0  0  0  0  0
  -27.2790  -27.5590   20.2890 C   0  0  0  0  0  0  0  0  0  0  0  0
  -23.4350  -30.5780   21.7430 C   0  0  0  0  0  3  0  0  0  0  0  0
  -24.8700  -29.0150   20.3320 C   0  0  0  0  0  0  0  0  0  0  0  0
  -25.9520  -30.9420   21.5060 C   0  0  0  0  0  2  0  0  0  0  0  0
  -26.0310  -29.5610   20.8970 C   0  0  0  0  0  0  0  0  0  0  0  0
  -27.2380  -28.8330   20.8850 C   0  0  0  0  0  3  0  0  0  0  0  0
  -26.1010  -26.9990   19.7530 C   0  0  0  0  0  3  0  0  0  0  0  0
  -24.8960  -27.7270   19.7660 C   0  0  0  0  0  3  0  0  0  0  0  0
  -23.6260  -29.8710   20.3730 C   0  0  0  0  0  2  0  0  0  0  0  0
  -24.7020  -31.1890   22.2580 N   0  0  0  0  0  0  0  0  0  0  0  0
  -23.5890  -32.2850   23.9000 O   0  0  0  0  0  0  0  0  0  0  0  0
  -22.7960  -29.5730   22.7260 C   0  0  0  0  0  0  0  0  0  0  0  0
  -21.4860  -29.3260   22.5590 N   0  0  0  0  0  0  0  0  0  0  0  0
  -23.4750  -29.0150   23.5910 O   0  0  0  0  0  0  0  0  0  0  0  0
  -21.0000  -29.8290   21.8310 H   0  0  0  0  0  0  0  0  0  0  0  0
  -18.1710  -27.9390   22.9200 C   0  0  0  0  0  0  0  0  0  0  0  0
  -20.6810  -28.3890   23.3410 C   0  0  0  0  0  3  0  0  0  0  0  0
  -20.9170  -26.9320   22.8770 C   0  0  0  0  0  2  0  0  0  0  0  0
  -19.9110  -26.4670   21.8180 C   0  0  0  0  0  2  0  0  0  0  0  0
  -18.4800  -26.5610   22.3580 C   0  0  0  0  0  2  0  0  0  0  0  0
  -19.2060  -28.8030   23.3670 C   0  0  0  0  0  0  0  0  0  0  0  0
  -18.8670  -30.0870   23.8460 C   0  0  0  0  0  3  0  0  0  0  0  0
  -17.5260  -30.5090   23.8860 C   0  0  0  0  0  3  0  0  0  0  0  0
  -16.5040  -29.6440   23.4580 C   0  0  0  0  0  3  0  0  0  0  0  0
  -16.8260  -28.3610   22.9810 C   0  0  0  0  0  3  0  0  0  0  0  0
  -25.9590  -32.6390   23.9460 C   0  0  0  0  0  3  0  0  0  0  0  0
  -25.6530  -34.0350   24.2790 N   0  0  0  0  0  0  0  0  0  0  0  0
  -25.9590  -35.0850   23.5050 C   0  0  0  0  0  0  0  0  0  0  0  0
  -26.6010  -34.9810   22.4560 O   0  0  0  0  0  0  0  0  0  0  0  0
  -25.0810  -34.1910   25.0960 H   0  0  0  0  0  0  0  0  0  0  0  0
  -24.2060  -36.8590   23.1920 C   0  0  0  0  0  1  0  0  0  0  0  0
  -25.4740  -36.4720   23.9670 C   0  0  0  0  0  3  0  0  0  0  0  0
  -27.6280  -37.3770   24.7230 C   0  0  0  0  0  1  0  0  0  0  0  0
  -26.4950  -37.5330   23.8150 N   0  0  0  0  0  0  0  0  0  0  0  0
  -26.0860  -38.4500   23.9710 H   0  0  0  0  0  0  0  0  0  0  0  0
  -26.5060  -31.8680   25.2090 C   0  0  1  0  0  0  0  0  0  0  0  0
  -25.4320  -31.6020   26.2890 C   0  0  0  0  0  1  0  0  0  0  0  0
  -27.1090  -30.5040   24.7970 C   0  0  0  0  0  1  0  0  0  0  0  0
  -27.6520  -32.6780   25.8620 C   0  0  0  0  0  1  0  0  0  0  0  0
  1  7  1  0
  2  1  2  0
  3  6  1  0
  4  3  2  0
  5  6  2  0
  6 10  1  0
  7  8  2  0
  7  4  1  0
  8  5  1  0
  9  8  1  0
 10 11  2  0
 12 10  1  0
 12 13  1  0
 14 20  1  0
 14 22  1  0
 15 20  1  0
 16 17  1  0
 16 15  1  0
 18 17  1  0
 18 27  1  0
 18 19  1  0
 20 19  1  0
 21 14  2  0
 22 13  1  0
 22 23  1  0
 24 25  2  0
 25 44  1  0
 26 25  1  0
 26 29  1  0
 27 28  1  0
 27 24  1  0
 28 26  2  0
 29 30  1  0
 30 31  2  0
 32 35  1  0
 32 31  1  0
 33 32  2  0
 34 33  1  0
 34 29  2  0
 35 36  1  0
 36 37  1  0
 37 38  2  0
 39 38  1  0
 39 43  1  0
 40 39  2  0
 41 36  2  0
 41 40  1  0
 42 41  1  0
 44 45  1  0
 45 48  1  0
 45 47  1  0
 46 44  2  0
 49 24  1  0
 49 50  1  0
 51 49  1  0
 52  2  1  0
 52 54  2  0
 53 56  1  0
 53 52  1  0
 55 53  1  0
 56 57  1  0
 57 58  1  0
 58 59  1  0
 59 61  1  0
 60 71  2  0
 61 66  1  0
 62 70  1  0
 62 72  1  0
 63 69  1  0
 63 65  1  0
 64 70  1  0
 65 64  1  0
 66 65  2  0
 67 68  1  0
 67 61  2  0
 68 63  2  0
 69 62  1  0
 70 60  1  0
 72 74  2  0
 73 72  1  0
 75 73  1  0
 76 85  2  0
 76 81  1  0
 77 73  1  0
 77 81  1  0
 78 77  1  0
 79 80  1  0
 79 78  1  0
 80 76  1  0
 81 82  2  0
 82 83  1  0
 84 83  2  0
 85 84  1  0
 86 60  1  0
 86 87  1  0
 86 96  1  0
 87 90  1  0
 88 92  1  0
 88 87  1  0
 89 88  2  0
 92 91  1  0
 94 92  1  0
 94 95  1  0
 94 93  1  0
 96 99  1  1
 96 97  1  0
 98 96  1  0
M  ISO  4  14 100  22 100  58 101  59 101
M  END
>  <TORSDO>  (36) 
F 24

>  <SCORE>  (36) 
-11.070

>  <name>  (36) 
39

>  <ligand_id>  (36) 
39

>  <original_smiles>  (36) 
[H]C(C(=O)N([H])C([H])([H])C([H])([H])C([H])([H])Oc1c([H])c([H])c2c(c1[H])C([H])([H])N(C(=O)C([H])(N([H])C(=O)C([H])(N([H])C([H])([H])[H])C([H])([H])[H])C(C([H])([H])[H])(C([H])([H])[H])C([H])([H])[H])C([H])(C(=O)N([H])C1([H])c3c([H])c([H])c([H])c([H])c3C([H])([H])C([H])([H])C1([H])[H])C2([H])[H])=C([H])c1c([H])c([H])c(C(=O)C([H])([H])C([H])([H])N([H])C(=O)N2C([H])([H])C([H])([H])C([H])([H])C([H])(n3nc(-c4c([H])c([H])c(Oc5c([H])c([H])c(F)c([H])c5F)c([H])c4[H])c(C(=O)N([H])[H])c3N([H])[H])C2([H])[H])c([H])c1C([H])([H])[H]

>  <smiles>  (36) 
[H]C(C(=O)N([H])C([H])([H])C([H])([H])C([H])([H])Oc1c([H])c([H])c2c(c1[H])C([H])([H])N(C(=O)C([H])(N([H])C(=O)C([H])(N([H])C([H])([H])[H])C([H])([H])[H])C(C([H])([H])[H])(C([H])([H])[H])C([H])([H])[H])C([H])(C(=O)N([H])C1([H])c3c([H])c([H])c([H])c([H])c3C([H])([H])C([H])([H])C1([H])[H])C2([H])[H])=C([H])c1c([H])c([H])c(C(=O)C([H])([H])C([H])([H])N([H])C(=O)N2C([H])([H])C([H])([H])C([H])([H])C([H])(n3nc(-c4c([H])c([H])c(Oc5c([H])c([H])c(F)c([H])c5F)c([H])c4[H])c(C(=O)N([H])[H])c3N([H])[H])C2([H])[H])c([H])c1C([H])([H])[H]

$$$$
40:0:0
     RDKit          3D

 97104  0  0  1  0  0  0  0  0999 V2000
  -27.9580  -23.8350   20.1920 C   0  0  0  0  0  0  0  0  0  0  0  0
  -27.6130  -22.5500   20.3430 N   0  0  0  0  0  0  0  0  0  0  0  0
  -28.2090  -24.2870   19.0720 O   0  0  0  0  0  0  0  0  0  0  0  0
  -27.4740  -22.1750   21.2710 H   0  0  0  0  0  0  0  0  0  0  0  0
  -27.4540  -21.6510   19.2030 C   0  0  0  0  0  2  0  0  0  0  0  0
  -27.0400  -20.2350   19.6320 C   0  0  0  0  0  2  0  0  0  0  0  0
  -26.7460  -19.3170   18.4290 C   0  0  0  0  0  2  0  0  0  0  0  0
  -27.9680  -18.9600   17.5600 C   0  0  0  0  0  2  0  0  0  0  0  0
  -28.6700  -17.6380   17.9070 C   0  0  0  0  0  2  0  0  0  0  0  0
  -29.1390  -17.4730   19.3680 C   0  0  0  0  0  2  0  0  0  0  0  0
  -30.2100  -16.3760   19.4600 C   0  0  0  0  0  2  0  0  0  0  0  0
  -31.0420  -14.5890   20.7920 C   0  0  0  0  0  0  0  0  0  0  0  0
  -30.7750  -12.3890   19.7380 C   0  0  0  0  0  2  0  0  0  0  0  0
  -29.9260  -12.5670   18.4610 C   0  0  0  0  0  2  0  0  0  0  0  0
  -28.4210  -12.4890   18.7900 C   0  0  0  0  0  2  0  0  0  0  0  0
  -28.0150  -13.3810   19.9950 C   0  0  0  0  0  3  0  0  0  0  0  0
  -28.9880  -13.1980   21.1820 C   0  0  0  0  0  2  0  0  0  0  0  0
  -30.3520  -13.4280   20.6850 N   0  0  0  0  0  0  0  0  0  0  0  0
  -32.2440  -14.7010   20.5460 O   0  0  0  0  0  0  0  0  0  0  0  0
  -30.2670  -15.6820   20.7500 N   0  0  0  0  0  0  0  0  0  0  0  0
  -30.4620  -16.3220   21.5090 H   0  0  0  0  0  0  0  0  0  0  0  0
  -25.5860  -14.0480   20.5170 C   0  0  0  0  0  0  0  0  0  0  0  0
  -24.4820  -13.3010   20.8340 C   0  0  0  0  0  0  0  0  0  0  0  0
  -24.9240  -11.9440   20.8820 C   0  0  0  0  0  0  0  0  0  0  0  0
  -26.6290  -13.1440   20.3920 N   0  0  0  0  0  0  0  0  0  0  0  0
  -26.2320  -11.8770   20.6730 N   0  0  0  0  0  0  0  0  0  0  0  0
  -24.1690  -10.6990   21.0620 C   0  0  0  0  0  0  0  0  0  0  0  0
  -24.5390   -9.7440   22.0330 C   0  0  0  0  0  3  0  0  0  0  0  0
  -23.7860   -8.5620   22.1990 C   0  0  0  0  0  3  0  0  0  0  0  0
  -22.6490   -8.3290   21.3920 C   0  0  0  0  0  0  0  0  0  0  0  0
  -22.2980   -9.2700   20.4080 C   0  0  0  0  0  3  0  0  0  0  0  0
  -23.0510  -10.4440   20.2410 C   0  0  0  0  0  3  0  0  0  0  0  0
  -21.8730   -7.1970   21.4640 O   0  0  0  0  0  0  0  0  0  0  0  0
  -21.7760   -6.4640   22.6210 C   0  0  0  0  0  0  0  0  0  0  0  0
  -21.3490   -7.0430   23.8350 C   0  0  0  0  0  3  0  0  0  0  0  0
  -21.1950   -6.2390   24.9820 C   0  0  0  0  0  3  0  0  0  0  0  0
  -21.4590   -4.8570   24.9160 C   0  0  0  0  0  0  0  0  0  0  0  0
  -21.8800   -4.2780   23.7050 C   0  0  0  0  0  3  0  0  0  0  0  0
  -22.0340   -5.0790   22.5600 C   0  0  0  0  0  0  0  0  0  0  0  0
  -22.4200   -4.5130   21.3910 F   0  0  0  0  0  0  0  0  0  0  0  0
  -21.3030   -4.0820   26.0130 F   0  0  0  0  0  0  0  0  0  0  0  0
  -23.0760  -13.8040   20.9900 C   0  0  0  0  0  0  0  0  0  0  0  0
  -22.2800  -13.1490   21.8280 N   0  0  0  0  0  0  0  0  0  0  0  0
  -22.6890  -14.8150   20.4030 O   0  0  0  0  0  0  0  0  0  0  0  0
  -22.6010  -12.3290   22.3230 H   0  0  0  0  0  0  0  0  0  0  0  0
  -21.3320  -13.4650   21.9720 H   0  0  0  0  0  0  0  0  0  0  0  0
  -25.7850  -15.4080   20.3030 N   0  0  0  0  0  0  0  0  0  0  0  0
  -25.0250  -16.0780   20.3360 H   0  0  0  0  0  0  0  0  0  0  0  0
  -26.6710  -15.8220   20.0430 H   0  0  0  0  0  0  0  0  0  0  0  0
  -28.0300  -24.7270   21.4530 C   0  0  0  0  0  3  0  0  0  0  0  0
  -26.7390  -24.7840   22.3340 C   0  0  0  0  0  2  0  0  0  0  0  0
  -25.4440  -24.9310   21.6340 N   0  0  0  0  0  4  0  0  0  0  0  0
  -25.2490  -24.1440   21.0380 H   0  0  0  0  0  0  0  0  0  0  0  0
  -25.4120  -25.7790   21.0900 H   0  0  0  0  0  0  0  0  0  0  0  0
  -24.7050  -24.9790   22.3170 H   0  0  0  0  0  0  0  0  0  0  0  0
  -28.7260  -26.1040   21.2230 C   0  0  0  0  0  2  0  0  0  0  0  0
  -28.3240  -26.8300   20.0600 O   0  0  0  0  0  0  0  0  0  0  0  0
  -24.5540  -31.9600   23.2460 C   0  0  0  0  0  0  0  0  0  0  0  0
  -27.1600  -27.5410   20.1480 C   0  0  0  0  0  0  0  0  0  0  0  0
  -23.3280  -30.5720   21.6010 C   0  0  0  0  0  3  0  0  0  0  0  0
  -24.7680  -29.0220   20.1800 C   0  0  0  0  0  0  0  0  0  0  0  0
  -25.8510  -30.9190   21.3960 C   0  0  0  0  0  2  0  0  0  0  0  0
  -25.9260  -29.5440   20.7710 C   0  0  0  0  0  0  0  0  0  0  0  0
  -27.1260  -28.8050   20.7640 C   0  0  0  0  0  3  0  0  0  0  0  0
  -25.9990  -27.0310   19.5340 C   0  0  0  0  0  3  0  0  0  0  0  0
  -24.7930  -27.7550   19.5710 C   0  0  0  0  0  3  0  0  0  0  0  0
  -23.5310  -29.8890   20.2210 C   0  0  0  0  0  2  0  0  0  0  0  0
  -24.5950  -31.1630   22.1400 N   0  0  0  0  0  0  0  0  0  0  0  0
  -23.4790  -32.2350   23.7940 O   0  0  0  0  0  0  0  0  0  0  0  0
  -22.6780  -29.5500   22.5620 C   0  0  0  0  0  0  0  0  0  0  0  0
  -21.3500  -29.3820   22.4460 N   0  0  0  0  0  0  0  0  0  0  0  0
  -23.3640  -28.9100   23.3640 O   0  0  0  0  0  0  0  0  0  0  0  0
  -20.8600  -29.9500   21.7680 H   0  0  0  0  0  0  0  0  0  0  0  0
  -17.9670  -28.2270   22.9610 C   0  0  0  0  0  0  0  0  0  0  0  0
  -20.5290  -28.4510   23.2200 C   0  0  0  0  0  3  0  0  0  0  0  0
  -20.6090  -27.0200   22.6370 C   0  0  0  0  0  2  0  0  0  0  0  0
  -19.4970  -26.7140   21.6290 C   0  0  0  0  0  2  0  0  0  0  0  0
  -18.1230  -26.8770   22.2830 C   0  0  0  0  0  2  0  0  0  0  0  0
  -19.0980  -28.9730   23.3880 C   0  0  0  0  0  0  0  0  0  0  0  0
  -18.8990  -30.2390   23.9810 C   0  0  0  0  0  3  0  0  0  0  0  0
  -17.6000  -30.7570   24.1520 C   0  0  0  0  0  3  0  0  0  0  0  0
  -16.4850  -30.0070   23.7420 C   0  0  0  0  0  3  0  0  0  0  0  0
  -16.6690  -28.7450   23.1520 C   0  0  0  0  0  3  0  0  0  0  0  0
  -25.8490  -32.5780   23.8570 C   0  0  0  0  0  3  0  0  0  0  0  0
  -26.3730  -31.7970   25.1240 C   0  0  1  0  0  0  0  0  0  0  0  0
  -25.2900  -31.5610   26.1990 C   0  0  0  0  0  1  0  0  0  0  0  0
  -26.9390  -30.4190   24.7170 C   0  0  0  0  0  1  0  0  0  0  0  0
  -27.5350  -32.5770   25.7800 C   0  0  0  0  0  1  0  0  0  0  0  0
  -25.5550  -33.9770   24.1920 N   0  0  0  0  0  0  0  0  0  0  0  0
  -25.8900  -35.0290   23.4310 C   0  0  0  0  0  0  0  0  0  0  0  0
  -26.5530  -34.9230   22.3960 O   0  0  0  0  0  0  0  0  0  0  0  0
  -24.9680  -34.1340   24.9980 H   0  0  0  0  0  0  0  0  0  0  0  0
  -24.1660  -36.8240   23.0910 C   0  0  0  0  0  1  0  0  0  0  0  0
  -25.4110  -36.4160   23.8940 C   0  0  0  0  0  3  0  0  0  0  0  0
  -27.5610  -37.2880   24.7000 C   0  0  0  0  0  1  0  0  0  0  0  0
  -26.4470  -37.4660   23.7720 N   0  0  0  0  0  0  0  0  0  0  0  0
  -26.0470  -38.3870   23.9270 H   0  0  0  0  0  0  0  0  0  0  0  0
  1  2  1  0
  1 50  1  0
  2  4  1  0
  3  1  2  0
  5  6  1  0
  5  2  1  0
  7  6  1  0
  8  9  1  0
  8  7  1  0
  9 10  1  0
 10 11  1  0
 11 20  1  0
 13 18  1  0
 14 15  1  0
 14 13  1  0
 16 15  1  0
 16 25  1  0
 16 17  1  0
 18 12  1  0
 18 17  1  0
 19 12  2  0
 20 12  1  0
 20 21  1  0
 22 23  2  0
 23 24  1  0
 23 42  1  0
 24 27  1  0
 25 22  1  0
 25 26  1  0
 26 24  2  0
 27 28  1  0
 28 29  2  0
 30 33  1  0
 30 29  1  0
 31 30  2  0
 32 31  1  0
 32 27  2  0
 33 34  1  0
 34 35  1  0
 35 36  2  0
 37 36  1  0
 37 41  1  0
 38 37  2  0
 39 34  2  0
 39 38  1  0
 40 39  1  0
 42 43  1  0
 43 46  1  0
 43 45  1  0
 44 42  2  0
 47 48  1  0
 47 22  1  0
 49 47  1  0
 50 56  1  0
 50 51  1  0
 52 55  1  0
 52 51  1  0
 53 52  1  0
 54 52  1  0
 57 59  1  0
 57 56  1  0
 58 69  2  0
 59 64  1  0
 60 68  1  0
 60 70  1  0
 61 67  1  0
 61 63  1  0
 62 68  1  0
 63 62  1  0
 64 63  2  0
 65 66  1  0
 65 59  2  0
 66 61  2  0
 67 60  1  0
 68 58  1  0
 70 72  2  0
 71 70  1  0
 73 71  1  0
 74 83  2  0
 74 79  1  0
 75 71  1  0
 75 79  1  0
 76 75  1  0
 77 78  1  0
 77 76  1  0
 78 74  1  0
 79 80  2  0
 80 81  1  0
 82 81  2  0
 83 82  1  0
 84 58  1  0
 84 89  1  0
 84 85  1  0
 85 88  1  1
 85 86  1  0
 87 85  1  0
 89 92  1  0
 90 94  1  0
 90 89  1  0
 91 90  2  0
 94 93  1  0
 96 94  1  0
 96 97  1  0
 96 95  1  0
M  ISO  4  12 100  20 100  56 101  57 101
M  END
>  <TORSDO>  (37) 
F 27

>  <SCORE>  (37) 
-11.103

>  <name>  (37) 
40

>  <ligand_id>  (37) 
40

>  <original_smiles>  (37) 
[H]c1c([H])c([H])c2c(c1[H])C([H])([H])C([H])([H])C([H])([H])C2([H])N([H])C(=O)C1([H])N(C(=O)C([H])(N([H])C(=O)C([H])(N([H])C([H])([H])[H])C([H])([H])[H])C(C([H])([H])[H])(C([H])([H])[H])C([H])([H])[H])C([H])([H])c2c([H])c(OC([H])([H])C([H])(C(=O)N([H])C([H])([H])C([H])([H])C([H])([H])C([H])([H])C([H])([H])C([H])([H])C([H])([H])N([H])C(=O)N3C([H])([H])C([H])([H])C([H])([H])C([H])(n4nc(-c5c([H])c([H])c(Oc6c([H])c([H])c(F)c([H])c6F)c([H])c5[H])c(C(=O)N([H])[H])c4N([H])[H])C3([H])[H])C([H])([H])[N+]([H])([H])[H])c([H])c([H])c2C1([H])[H]

>  <smiles>  (37) 
[H]c1c([H])c([H])c2c(c1[H])C([H])([H])C([H])([H])C([H])([H])C2([H])N([H])C(=O)C1([H])N(C(=O)C([H])(N([H])C(=O)C([H])(N([H])C([H])([H])[H])C([H])([H])[H])C(C([H])([H])[H])(C([H])([H])[H])C([H])([H])[H])C([H])([H])c2c([H])c(OC([H])([H])C([H])(C(=O)N([H])C([H])([H])C([H])([H])C([H])([H])C([H])([H])C([H])([H])C([H])([H])C([H])([H])N([H])C(=O)N3C([H])([H])C([H])([H])C([H])([H])C([H])(n4nc(-c5c([H])c([H])c(Oc6c([H])c([H])c(F)c([H])c6F)c([H])c5[H])c(C(=O)N([H])[H])c4N([H])[H])C3([H])[H])C([H])([H])[N+]([H])([H])[H])c([H])c([H])c2C1([H])[H]

$$$$
42:0:0
     RDKit          3D

 90 97  0  0  1  0  0  0  0  0999 V2000
  -29.1360  -22.9750   22.3220 C   0  0  0  0  0  3  0  0  0  0  0  0
  -29.3260  -24.3200   22.4120 C   0  0  0  0  0  0  0  0  0  0  0  0
  -28.9350  -25.0080   23.7140 C   0  0  0  0  0  1  0  0  0  0  0  0
  -29.4710  -22.0410   21.2140 C   0  0  0  0  0  0  0  0  0  0  0  0
  -30.1260  -22.3540   20.2170 O   0  0  0  0  0  0  0  0  0  0  0  0
  -28.9630  -20.5890   21.3450 C   0  0  0  0  0  2  0  0  0  0  0  0
  -29.9820  -19.4970   20.9250 C   0  0  0  0  0  2  0  0  0  0  0  0
  -29.4710  -18.0420   21.1070 C   0  0  0  0  0  2  0  0  0  0  0  0
  -30.5400  -16.9800   20.7540 C   0  0  0  0  0  2  0  0  0  0  0  0
  -30.7190  -14.5590   20.2290 C   0  0  0  0  0  0  0  0  0  0  0  0
  -30.3920  -12.4070   19.0760 C   0  0  0  0  0  2  0  0  0  0  0  0
  -29.4320  -12.6130   17.8870 C   0  0  0  0  0  2  0  0  0  0  0  0
  -27.9640  -12.4810   18.3420 C   0  0  0  0  0  2  0  0  0  0  0  0
  -27.6470  -13.3110   19.6160 C   0  0  0  0  0  3  0  0  0  0  0  0
  -28.7220  -13.0950   20.7050 C   0  0  0  0  0  2  0  0  0  0  0  0
  -30.0340  -13.3910   20.1090 N   0  0  0  0  0  0  0  0  0  0  0  0
  -31.8400  -14.7290   19.7430 O   0  0  0  0  0  0  0  0  0  0  0  0
  -30.0440  -15.5950   20.7670 N   0  0  0  0  0  0  0  0  0  0  0  0
  -29.1100  -15.4200   21.1080 H   0  0  0  0  0  0  0  0  0  0  0  0
  -25.2570  -13.9100   20.3560 C   0  0  0  0  0  0  0  0  0  0  0  0
  -24.2010  -13.1370   20.7530 C   0  0  0  0  0  0  0  0  0  0  0  0
  -24.6690  -11.7870   20.7290 C   0  0  0  0  0  0  0  0  0  0  0  0
  -26.3030  -13.0330   20.1190 N   0  0  0  0  0  0  0  0  0  0  0  0
  -25.9540  -11.7520   20.3990 N   0  0  0  0  0  0  0  0  0  0  0  0
  -23.9530  -10.5240   20.9430 C   0  0  0  0  0  0  0  0  0  0  0  0
  -24.4010   -9.5680   21.8810 C   0  0  0  0  0  3  0  0  0  0  0  0
  -23.6840   -8.3690   22.0830 C   0  0  0  0  0  3  0  0  0  0  0  0
  -22.5020   -8.1180   21.3480 C   0  0  0  0  0  0  0  0  0  0  0  0
  -22.0720   -9.0610   20.3970 C   0  0  0  0  0  3  0  0  0  0  0  0
  -22.7910  -10.2510   20.1940 C   0  0  0  0  0  3  0  0  0  0  0  0
  -21.7550   -6.9700   21.4580 O   0  0  0  0  0  0  0  0  0  0  0  0
  -21.7210   -6.2430   22.6210 C   0  0  0  0  0  0  0  0  0  0  0  0
  -21.3140   -6.8150   23.8460 C   0  0  0  0  0  3  0  0  0  0  0  0
  -21.2280   -6.0130   25.0030 C   0  0  0  0  0  3  0  0  0  0  0  0
  -21.5360   -4.6420   24.9340 C   0  0  0  0  0  0  0  0  0  0  0  0
  -21.9350   -4.0700   23.7130 C   0  0  0  0  0  3  0  0  0  0  0  0
  -22.0240   -4.8680   22.5590 C   0  0  0  0  0  0  0  0  0  0  0  0
  -22.3870   -4.3080   21.3810 F   0  0  0  0  0  0  0  0  0  0  0  0
  -21.4460   -3.8690   26.0420 F   0  0  0  0  0  0  0  0  0  0  0  0
  -22.8050  -13.6080   21.0450 C   0  0  0  0  0  0  0  0  0  0  0  0
  -22.0960  -12.9180   21.9310 N   0  0  0  0  0  0  0  0  0  0  0  0
  -22.3520  -14.6260   20.5220 O   0  0  0  0  0  0  0  0  0  0  0  0
  -22.4760  -12.0960   22.3760 H   0  0  0  0  0  0  0  0  0  0  0  0
  -21.1610  -13.2160   22.1680 H   0  0  0  0  0  0  0  0  0  0  0  0
  -25.4080  -15.2820   20.1610 N   0  0  0  0  0  0  0  0  0  0  0  0
  -24.6280  -15.9240   20.2610 H   0  0  0  0  0  0  0  0  0  0  0  0
  -26.2420  -15.7270   19.7980 H   0  0  0  0  0  0  0  0  0  0  0  0
  -29.9360  -25.2560   21.3470 C   0  0  0  0  0  2  0  0  0  0  0  0
  -29.3140  -26.6780   21.1960 C   0  0  0  0  0  2  0  0  0  0  0  0
  -28.4270  -26.7080   20.0860 O   0  0  0  0  0  0  0  0  0  0  0  0
  -24.6330  -31.9160   23.2370 C   0  0  0  0  0  0  0  0  0  0  0  0
  -27.3090  -27.5080   20.1500 C   0  0  0  0  0  0  0  0  0  0  0  0
  -23.4370  -30.5060   21.5980 C   0  0  0  0  0  3  0  0  0  0  0  0
  -24.9030  -28.9900   20.1620 C   0  0  0  0  0  0  0  0  0  0  0  0
  -25.9570  -30.8920   21.3950 C   0  0  0  0  0  2  0  0  0  0  0  0
  -26.0550  -29.5220   20.7560 C   0  0  0  0  0  0  0  0  0  0  0  0
  -27.2640  -28.7880   20.7550 C   0  0  0  0  0  3  0  0  0  0  0  0
  -26.1470  -26.9980   19.5430 C   0  0  0  0  0  3  0  0  0  0  0  0
  -24.9440  -27.7250   19.5500 C   0  0  0  0  0  3  0  0  0  0  0  0
  -23.6460  -29.8280   20.2160 C   0  0  0  0  0  2  0  0  0  0  0  0
  -24.6940  -31.1190   22.1350 N   0  0  0  0  0  0  0  0  0  0  0  0
  -23.5500  -32.1790   23.7790 O   0  0  0  0  0  0  0  0  0  0  0  0
  -22.7950  -29.4790   22.5580 C   0  0  0  0  0  0  0  0  0  0  0  0
  -21.4720  -29.2860   22.4310 N   0  0  0  0  0  0  0  0  0  0  0  0
  -23.4860  -28.8580   23.3710 O   0  0  0  0  0  0  0  0  0  0  0  0
  -20.9790  -29.8360   21.7440 H   0  0  0  0  0  0  0  0  0  0  0  0
  -18.1060  -28.0710   22.9290 C   0  0  0  0  0  0  0  0  0  0  0  0
  -20.6630  -28.3400   23.1980 C   0  0  0  0  0  3  0  0  0  0  0  0
  -20.7700  -26.9120   22.6140 C   0  0  0  0  0  2  0  0  0  0  0  0
  -19.6690  -26.5910   21.5990 C   0  0  0  0  0  2  0  0  0  0  0  0
  -18.2870  -26.7260   22.2460 C   0  0  0  0  0  2  0  0  0  0  0  0
  -19.2220  -28.8370   23.3600 C   0  0  0  0  0  0  0  0  0  0  0  0
  -18.9980  -30.0990   23.9530 C   0  0  0  0  0  3  0  0  0  0  0  0
  -17.6910  -30.5930   24.1220 C   0  0  0  0  0  3  0  0  0  0  0  0
  -16.5900  -29.8240   23.7090 C   0  0  0  0  0  3  0  0  0  0  0  0
  -16.7980  -28.5640   23.1190 C   0  0  0  0  0  3  0  0  0  0  0  0
  -25.9140  -32.5570   23.8570 C   0  0  0  0  0  3  0  0  0  0  0  0
  -25.5950  -33.9540   24.1840 N   0  0  0  0  0  0  0  0  0  0  0  0
  -25.9230  -35.0070   23.4260 C   0  0  0  0  0  0  0  0  0  0  0  0
  -26.6000  -34.9080   22.3970 O   0  0  0  0  0  0  0  0  0  0  0  0
  -24.9930  -34.1050   24.9810 H   0  0  0  0  0  0  0  0  0  0  0  0
  -24.1820  -36.7870   23.0620 C   0  0  0  0  0  1  0  0  0  0  0  0
  -25.4240  -36.3930   23.8780 C   0  0  0  0  0  3  0  0  0  0  0  0
  -27.5520  -37.2900   24.7160 C   0  0  0  0  0  1  0  0  0  0  0  0
  -26.4500  -37.4530   23.7710 N   0  0  0  0  0  0  0  0  0  0  0  0
  -26.0360  -38.3710   23.9210 H   0  0  0  0  0  0  0  0  0  0  0  0
  -26.4390  -31.7900   25.1320 C   0  0  1  0  0  0  0  0  0  0  0  0
  -25.3510  -31.5420   26.2020 C   0  0  0  0  0  1  0  0  0  0  0  0
  -27.0330  -30.4170   24.7370 C   0  0  0  0  0  1  0  0  0  0  0  0
  -27.5840  -32.5940   25.7900 C   0  0  0  0  0  1  0  0  0  0  0  0
  1  2  2  0
  2  3  1  0
  4  6  1  0
  4  1  1  0
  5  4  2  0
  7  8  1  0
  7  6  1  0
  9 18  1  0
  9  8  1  0
 10 18  1  0
 11 16  1  0
 12 13  1  0
 12 11  1  0
 14 13  1  0
 14 23  1  0
 14 15  1  0
 16 10  1  0
 16 15  1  0
 17 10  2  0
 18 19  1  0
 20 21  2  0
 21 40  1  0
 22 21  1  0
 22 25  1  0
 23 20  1  0
 23 24  1  0
 24 22  2  0
 25 26  1  0
 26 27  2  0
 28 31  1  0
 28 27  1  0
 29 28  2  0
 30 29  1  0
 30 25  2  0
 31 32  1  0
 32 33  1  0
 33 34  2  0
 35 34  1  0
 35 39  1  0
 36 35  2  0
 37 32  2  0
 37 36  1  0
 38 37  1  0
 40 41  1  0
 41 44  1  0
 41 43  1  0
 42 40  2  0
 45 46  1  0
 45 20  1  0
 47 45  1  0
 48  2  1  0
 49 48  1  0
 50 52  1  0
 50 49  1  0
 51 62  2  0
 52 57  1  0
 53 61  1  0
 53 63  1  0
 54 60  1  0
 54 56  1  0
 55 61  1  0
 56 55  1  0
 57 56  2  0
 58 59  1  0
 58 52  2  0
 59 54  2  0
 60 53  1  0
 61 51  1  0
 63 65  2  0
 64 63  1  0
 66 64  1  0
 67 76  2  0
 67 72  1  0
 68 64  1  0
 68 72  1  0
 69 68  1  0
 70 71  1  0
 70 69  1  0
 71 67  1  0
 72 73  2  0
 73 74  1  0
 75 74  2  0
 76 75  1  0
 77 51  1  0
 77 78  1  0
 77 87  1  0
 78 81  1  0
 79 83  1  0
 79 78  1  0
 80 79  2  0
 83 82  1  0
 85 83  1  0
 85 86  1  0
 85 84  1  0
 87 90  1  1
 87 88  1  0
 89 87  1  0
M  ISO  4  10 100  18 100  49 101  50 101
M  END
>  <TORSDO>  (38) 
F 23

>  <SCORE>  (38) 
-12.434

>  <name>  (38) 
42

>  <ligand_id>  (38) 
42

>  <original_smiles>  (38) 
[H]C(C(=O)C([H])([H])C([H])([H])C([H])([H])C([H])([H])N([H])C(=O)N1C([H])([H])C([H])([H])C([H])([H])C([H])(n2nc(-c3c([H])c([H])c(Oc4c([H])c([H])c(F)c([H])c4F)c([H])c3[H])c(C(=O)N([H])[H])c2N([H])[H])C1([H])[H])=C(C([H])([H])[H])C([H])([H])C([H])([H])Oc1c([H])c([H])c2c(c1[H])C([H])([H])N(C(=O)C([H])(N([H])C(=O)C([H])(N([H])C([H])([H])[H])C([H])([H])[H])C(C([H])([H])[H])(C([H])([H])[H])C([H])([H])[H])C([H])(C(=O)N([H])C1([H])c3c([H])c([H])c([H])c([H])c3C([H])([H])C([H])([H])C1([H])[H])C2([H])[H]

>  <smiles>  (38) 
[H]C(C(=O)C([H])([H])C([H])([H])C([H])([H])C([H])([H])N([H])C(=O)N1C([H])([H])C([H])([H])C([H])([H])C([H])(n2nc(-c3c([H])c([H])c(Oc4c([H])c([H])c(F)c([H])c4F)c([H])c3[H])c(C(=O)N([H])[H])c2N([H])[H])C1([H])[H])=C(C([H])([H])[H])C([H])([H])C([H])([H])Oc1c([H])c([H])c2c(c1[H])C([H])([H])N(C(=O)C([H])(N([H])C(=O)C([H])(N([H])C([H])([H])[H])C([H])([H])[H])C(C([H])([H])[H])(C([H])([H])[H])C([H])([H])[H])C([H])(C(=O)N([H])C1([H])c3c([H])c([H])c([H])c([H])c3C([H])([H])C([H])([H])C1([H])[H])C2([H])[H]

$$$$
43:0:0
     RDKit          3D

 98106  0  0  1  0  0  0  0  0999 V2000
  -30.4940  -24.4510   24.5760 C   0  0  0  0  0  3  0  0  0  0  0  0
  -29.9710  -25.5870   23.9350 C   0  0  0  0  0  3  0  0  0  0  0  0
  -28.4050  -23.2550   24.1490 C   0  0  0  0  0  3  0  0  0  0  0  0
  -29.7160  -23.2800   24.6680 C   0  0  0  0  0  0  0  0  0  0  0  0
  -28.6800  -25.5510   23.3700 C   0  0  0  0  0  0  0  0  0  0  0  0
  -27.8940  -24.3800   23.4720 C   0  0  0  0  0  0  0  0  0  0  0  0
  -30.2790  -22.0690   25.2930 C   0  0  0  0  0  0  0  0  0  0  0  0
  -29.6020  -21.2380   25.9010 O   0  0  0  0  0  0  0  0  0  0  0  0
  -31.7810  -21.8500   25.0730 C   0  0  0  0  0  2  0  0  0  0  0  0
  -32.1730  -22.0810   23.5940 C   0  0  0  0  0  2  0  0  0  0  0  0
  -33.6130  -21.6870   23.2060 C   0  0  0  0  0  2  0  0  0  0  0  0
  -33.6020  -20.5420   22.1780 C   0  0  0  0  0  2  0  0  0  0  0  0
  -34.9130  -20.2930   21.3980 C   0  0  0  0  0  2  0  0  0  0  0  0
  -35.6060  -18.3020   19.9600 C   0  0  0  0  0  0  0  0  0  0  0  0
  -35.8870  -16.1060   18.8440 C   0  0  0  0  0  2  0  0  0  0  0  0
  -35.1570  -16.0350   17.4890 C   0  0  0  0  0  2  0  0  0  0  0  0
  -33.6740  -15.6500   17.6740 C   0  0  0  0  0  2  0  0  0  0  0  0
  -32.9740  -16.5190   18.7490 C   0  0  0  0  0  3  0  0  0  0  0  0
  -33.8130  -16.5410   20.0380 C   0  0  0  0  0  2  0  0  0  0  0  0
  -35.1640  -17.0440   19.7110 N   0  0  0  0  0  0  0  0  0  0  0  0
  -36.6250  -18.7910   19.4530 O   0  0  0  0  0  0  0  0  0  0  0  0
  -34.8600  -18.9350   20.8730 N   0  0  0  0  0  0  0  0  0  0  0  0
  -34.1030  -18.3680   21.2300 H   0  0  0  0  0  0  0  0  0  0  0  0
  -30.4410  -16.7950   19.1220 C   0  0  0  0  0  0  0  0  0  0  0  0
  -29.4430  -15.8760   19.3080 C   0  0  0  0  0  0  0  0  0  0  0  0
  -30.0770  -14.5940   19.2930 C   0  0  0  0  0  0  0  0  0  0  0  0
  -31.6130  -16.0620   19.0130 N   0  0  0  0  0  0  0  0  0  0  0  0
  -31.3910  -14.7310   19.1680 N   0  0  0  0  0  0  0  0  0  0  0  0
  -29.5040  -13.2440   19.3350 C   0  0  0  0  0  0  0  0  0  0  0  0
  -29.6980  -12.3930   20.4460 C   0  0  0  0  0  3  0  0  0  0  0  0
  -29.1220  -11.1030   20.4690 C   0  0  0  0  0  3  0  0  0  0  0  0
  -28.3390  -10.6600   19.3770 C   0  0  0  0  0  0  0  0  0  0  0  0
  -28.1680  -11.5020   18.2640 C   0  0  0  0  0  3  0  0  0  0  0  0
  -28.7460  -12.7810   18.2420 C   0  0  0  0  0  3  0  0  0  0  0  0
  -27.7630   -9.4150   19.3000 O   0  0  0  0  0  0  0  0  0  0  0  0
  -26.8930   -8.9660   20.2580 C   0  0  0  0  0  0  0  0  0  0  0  0
  -25.6680   -9.6190   20.5220 C   0  0  0  0  0  3  0  0  0  0  0  0
  -24.7730   -9.0820   21.4670 C   0  0  0  0  0  3  0  0  0  0  0  0
  -25.0920   -7.8890   22.1430 C   0  0  0  0  0  0  0  0  0  0  0  0
  -26.3090   -7.2350   21.8800 C   0  0  0  0  0  3  0  0  0  0  0  0
  -27.2030   -7.7690   20.9370 C   0  0  0  0  0  0  0  0  0  0  0  0
  -28.3640   -7.1230   20.6720 F   0  0  0  0  0  0  0  0  0  0  0  0
  -24.2260   -7.3680   23.0440 F   0  0  0  0  0  0  0  0  0  0  0  0
  -27.9730  -16.1600   19.4050 C   0  0  0  0  0  0  0  0  0  0  0  0
  -27.2400  -15.3410   20.1500 N   0  0  0  0  0  0  0  0  0  0  0  0
  -27.4730  -17.1420   18.8560 O   0  0  0  0  0  0  0  0  0  0  0  0
  -27.6490  -14.5440   20.6170 H   0  0  0  0  0  0  0  0  0  0  0  0
  -26.2500  -15.5150   20.2600 H   0  0  0  0  0  0  0  0  0  0  0  0
  -30.4480  -18.1840   19.0140 N   0  0  0  0  0  0  0  0  0  0  0  0
  -29.5930  -18.7310   19.0430 H   0  0  0  0  0  0  0  0  0  0  0  0
  -31.2720  -18.7480   18.8440 H   0  0  0  0  0  0  0  0  0  0  0  0
  -26.6610  -24.3180   22.8890 O   0  0  0  0  0  0  0  0  0  0  0  0
  -26.3090  -23.4340   22.8430 H   0  0  0  0  0  0  0  0  0  0  0  0
  -28.1950  -26.7690   22.6130 C   0  0  0  0  0  2  0  0  0  0  0  0
  -27.4780  -26.3800   21.3060 C   0  0  0  0  0  2  0  0  0  0  0  0
  -28.1730  -26.9810   20.0820 C   0  0  0  0  0  2  0  0  0  0  0  0
  -27.6090  -26.4970   18.7290 C   0  0  0  0  0  2  0  0  0  0  0  0
  -26.9730  -27.5730   18.0380 O   0  0  0  0  0  0  0  0  0  0  0  0
  -25.2200  -30.2240   24.3700 C   0  0  0  0  0  0  0  0  0  0  0  0
  -26.0130  -28.2490   18.7540 C   0  0  0  0  0  0  0  0  0  0  0  0
  -23.3760  -30.0760   22.7260 C   0  0  0  0  0  3  0  0  0  0  0  0
  -24.0700  -29.5480   20.3330 C   0  0  0  0  0  0  0  0  0  0  0  0
  -25.7940  -30.3570   21.9540 C   0  0  0  0  0  2  0  0  0  0  0  0
  -25.4200  -29.5980   20.6990 C   0  0  0  0  0  0  0  0  0  0  0  0
  -26.3960  -28.9560   19.9110 C   0  0  0  0  0  3  0  0  0  0  0  0
  -24.6460  -28.2040   18.3930 C   0  0  0  0  0  3  0  0  0  0  0  0
  -23.6740  -28.8440   19.1830 C   0  0  0  0  0  3  0  0  0  0  0  0
  -23.0960  -30.2930   21.2150 C   0  0  0  0  0  2  0  0  0  0  0  0
  -24.8300  -30.1950   23.0640 N   0  0  0  0  0  0  0  0  0  0  0  0
  -24.3860  -30.1980   25.2870 O   0  0  0  0  0  0  0  0  0  0  0  0
  -22.7520  -28.7280   23.1510 C   0  0  0  0  0  0  0  0  0  0  0  0
  -21.5440  -28.4430   22.6420 N   0  0  0  0  0  0  0  0  0  0  0  0
  -23.3610  -27.9580   23.8980 O   0  0  0  0  0  0  0  0  0  0  0  0
  -21.1060  -29.1340   22.0480 H   0  0  0  0  0  0  0  0  0  0  0  0
  -18.8310  -26.4230   21.3680 C   0  0  0  0  0  0  0  0  0  0  0  0
  -20.7800  -27.2160   22.8700 C   0  0  0  0  0  3  0  0  0  0  0  0
  -21.5460  -25.9770   22.3550 C   0  0  0  0  0  2  0  0  0  0  0  0
  -21.1790  -25.5910   20.9190 C   0  0  0  0  0  2  0  0  0  0  0  0
  -19.6800  -25.2930   20.8100 C   0  0  0  0  0  2  0  0  0  0  0  0
  -19.3530  -27.3340   22.3250 C   0  0  0  0  0  0  0  0  0  0  0  0
  -18.5340  -28.3870   22.7860 C   0  0  0  0  0  3  0  0  0  0  0  0
  -17.2190  -28.5370   22.3090 C   0  0  0  0  0  3  0  0  0  0  0  0
  -16.7030  -27.6230   21.3730 C   0  0  0  0  0  3  0  0  0  0  0  0
  -17.5050  -26.5650   20.9100 C   0  0  0  0  0  3  0  0  0  0  0  0
  -26.7270  -30.3110   24.7740 C   0  0  0  0  0  3  0  0  0  0  0  0
  -27.1350  -29.2620   25.8790 C   0  0  1  0  0  0  0  0  0  0  0  0
  -26.1210  -29.1520   27.0400 C   0  0  0  0  0  1  0  0  0  0  0  0
  -27.2980  -27.8560   25.2550 C   0  0  0  0  0  1  0  0  0  0  0  0
  -28.5110  -29.6420   26.4790 C   0  0  0  0  0  1  0  0  0  0  0  0
  -26.9780  -31.6810   25.2400 N   0  0  0  0  0  0  0  0  0  0  0  0
  -27.6430  -32.6100   24.5410 C   0  0  0  0  0  0  0  0  0  0  0  0
  -28.1790  -32.3750   23.4550 O   0  0  0  0  0  0  0  0  0  0  0  0
  -26.5150  -31.9630   26.0930 H   0  0  0  0  0  0  0  0  0  0  0  0
  -26.7360  -34.9500   24.4270 C   0  0  0  0  0  1  0  0  0  0  0  0
  -27.7310  -34.0240   25.1430 C   0  0  0  0  0  3  0  0  0  0  0  0
  -30.0490  -33.9130   25.9380 C   0  0  0  0  0  1  0  0  0  0  0  0
  -29.0880  -34.6060   25.0840 N   0  0  0  0  0  0  0  0  0  0  0  0
  -29.0730  -35.5840   25.3580 H   0  0  0  0  0  0  0  0  0  0  0  0
  1  4  1  0
  2  1  2  0
  3  4  2  0
  4  7  1  0
  5  6  2  0
  5  2  1  0
  6  3  1  0
  7  8  2  0
  9  7  1  0
 10  9  1  0
 11 10  1  0
 12 11  1  0
 13 12  1  0
 14 22  1  0
 15 20  1  0
 16 17  1  0
 16 15  1  0
 18 17  1  0
 18 27  1  0
 18 19  1  0
 20 14  1  0
 20 19  1  0
 21 14  2  0
 22 23  1  0
 22 13  1  0
 24 25  2  0
 25 44  1  0
 26 25  1  0
 26 29  1  0
 27 24  1  0
 27 28  1  0
 28 26  2  0
 29 30  1  0
 30 31  2  0
 32 31  1  0
 33 32  2  0
 34 33  1  0
 34 29  2  0
 35 32  1  0
 35 36  1  0
 36 37  2  0
 36 41  1  0
 37 38  1  0
 38 39  2  0
 39 43  1  0
 40 39  1  0
 41 40  2  0
 42 41  1  0
 44 45  1  0
 45 48  1  0
 45 47  1  0
 46 44  2  0
 49 50  1  0
 49 24  1  0
 51 49  1  0
 52  6  1  0
 53 52  1  0
 54  5  1  0
 55 54  1  0
 56 55  1  0
 57 56  1  0
 58 57  1  0
 58 60  1  0
 59 70  2  0
 60 65  1  0
 61 69  1  0
 61 71  1  0
 62 64  1  0
 62 68  1  0
 63 69  1  0
 64 63  1  0
 65 64  2  0
 66 60  2  0
 66 67  1  0
 67 62  2  0
 68 61  1  0
 69 59  1  0
 71 73  2  0
 72 71  1  0
 74 72  1  0
 75 80  1  0
 76 72  1  0
 77 76  1  0
 78 77  1  0
 79 78  1  0
 79 75  1  0
 80 81  2  0
 80 76  1  0
 82 81  1  0
 83 82  2  0
 84 75  2  0
 84 83  1  0
 85 59  1  0
 85 90  1  0
 85 86  1  0
 86 89  1  1
 86 87  1  0
 88 86  1  0
 90 93  1  0
 91 95  1  0
 91 90  1  0
 92 91  2  0
 95 94  1  0
 97 95  1  0
 97 98  1  0
 97 96  1  0
M  ISO  4  14 100  22 100  57 101  58 101
M  END
>  <TORSDO>  (39) 
F 27

>  <SCORE>  (39) 
4.418

>  <name>  (39) 
43

>  <ligand_id>  (39) 
43

>  <original_smiles>  (39) 
[H]Oc1c([H])c(C(=O)C([H])([H])C([H])([H])C([H])([H])C([H])([H])C([H])([H])N([H])C(=O)N2C([H])([H])C([H])([H])C([H])([H])C([H])(n3nc(-c4c([H])c([H])c(Oc5c([H])c([H])c(F)c([H])c5F)c([H])c4[H])c(C(=O)N([H])[H])c3N([H])[H])C2([H])[H])c([H])c([H])c1C([H])([H])C([H])([H])C([H])([H])C([H])([H])Oc1c([H])c([H])c2c(c1[H])C([H])([H])N(C(=O)C([H])(N([H])C(=O)C([H])(N([H])C([H])([H])[H])C([H])([H])[H])C(C([H])([H])[H])(C([H])([H])[H])C([H])([H])[H])C([H])(C(=O)N([H])C1([H])c3c([H])c([H])c([H])c([H])c3C([H])([H])C([H])([H])C1([H])[H])C2([H])[H]

>  <smiles>  (39) 
[H]Oc1c([H])c(C(=O)C([H])([H])C([H])([H])C([H])([H])C([H])([H])C([H])([H])N([H])C(=O)N2C([H])([H])C([H])([H])C([H])([H])C([H])(n3nc(-c4c([H])c([H])c(Oc5c([H])c([H])c(F)c([H])c5F)c([H])c4[H])c(C(=O)N([H])[H])c3N([H])[H])C2([H])[H])c([H])c([H])c1C([H])([H])C([H])([H])C([H])([H])C([H])([H])Oc1c([H])c([H])c2c(c1[H])C([H])([H])N(C(=O)C([H])(N([H])C(=O)C([H])(N([H])C([H])([H])[H])C([H])([H])[H])C(C([H])([H])[H])(C([H])([H])[H])C([H])([H])[H])C([H])(C(=O)N([H])C1([H])c3c([H])c([H])c([H])c([H])c3C([H])([H])C([H])([H])C1([H])[H])C2([H])[H]

$$$$
44:0:0
     RDKit          3D

 89 96  0  0  1  0  0  0  0  0999 V2000
  -28.2310  -22.9870   20.2460 C   0  0  0  0  0  0  0  0  0  0  0  0
  -27.8370  -22.8000   21.4020 O   0  0  0  0  0  0  0  0  0  0  0  0
  -28.5090  -21.8150   19.3060 C   0  0  0  0  0  2  0  0  0  0  0  0
  -27.5620  -20.6190   19.5330 C   0  0  0  0  0  2  0  0  0  0  0  0
  -27.8630  -19.4370   18.6010 C   0  0  0  0  0  2  0  0  0  0  0  0
  -29.1260  -18.6520   19.0010 C   0  0  0  0  0  2  0  0  0  0  0  0
  -28.8390  -17.4790   19.9530 C   0  0  0  0  0  2  0  0  0  0  0  0
  -30.1230  -16.8530   20.5330 C   0  0  0  0  0  2  0  0  0  0  0  0
  -30.6570  -14.4310   20.4590 C   0  0  0  0  0  0  0  0  0  0  0  0
  -30.3530  -12.2890   19.3090 C   0  0  0  0  0  2  0  0  0  0  0  0
  -29.4160  -12.5400   18.1080 C   0  0  0  0  0  2  0  0  0  0  0  0
  -27.9370  -12.4220   18.5310 C   0  0  0  0  0  2  0  0  0  0  0  0
  -27.6100  -13.2400   19.8090 C   0  0  0  0  0  3  0  0  0  0  0  0
  -28.6590  -12.9690   20.9130 C   0  0  0  0  0  2  0  0  0  0  0  0
  -29.9920  -13.2540   20.3540 N   0  0  0  0  0  0  0  0  0  0  0  0
  -31.7860  -14.6200   19.9960 O   0  0  0  0  0  0  0  0  0  0  0  0
  -29.9050  -15.4520   20.8950 N   0  0  0  0  0  0  0  0  0  0  0  0
  -29.0070  -15.2090   21.2840 H   0  0  0  0  0  0  0  0  0  0  0  0
  -25.2090  -13.8690   20.5040 C   0  0  0  0  0  0  0  0  0  0  0  0
  -24.1360  -13.1050   20.8740 C   0  0  0  0  0  0  0  0  0  0  0  0
  -24.5900  -11.7500   20.8540 C   0  0  0  0  0  0  0  0  0  0  0  0
  -26.2520  -12.9800   20.2820 N   0  0  0  0  0  0  0  0  0  0  0  0
  -25.8800  -11.7000   20.5460 N   0  0  0  0  0  0  0  0  0  0  0  0
  -23.8560  -10.4920   21.0500 C   0  0  0  0  0  0  0  0  0  0  0  0
  -24.2980   -9.5150   21.9700 C   0  0  0  0  0  3  0  0  0  0  0  0
  -23.5650   -8.3250   22.1560 C   0  0  0  0  0  3  0  0  0  0  0  0
  -22.3770   -8.1010   21.4210 C   0  0  0  0  0  0  0  0  0  0  0  0
  -21.9530   -9.0660   20.4910 C   0  0  0  0  0  3  0  0  0  0  0  0
  -22.6860  -10.2500   20.3040 C   0  0  0  0  0  3  0  0  0  0  0  0
  -21.6140   -6.9610   21.5150 O   0  0  0  0  0  0  0  0  0  0  0  0
  -21.6000   -6.1980   22.6550 C   0  0  0  0  0  0  0  0  0  0  0  0
  -21.2450   -6.7400   23.9090 C   0  0  0  0  0  3  0  0  0  0  0  0
  -21.1760   -5.9050   25.0440 C   0  0  0  0  0  3  0  0  0  0  0  0
  -21.4520   -4.5290   24.9240 C   0  0  0  0  0  0  0  0  0  0  0  0
  -21.8010   -3.9870   23.6740 C   0  0  0  0  0  3  0  0  0  0  0  0
  -21.8720   -4.8200   22.5430 C   0  0  0  0  0  0  0  0  0  0  0  0
  -22.1910   -4.2900   21.3370 F   0  0  0  0  0  0  0  0  0  0  0  0
  -21.3790   -3.7240   26.0090 F   0  0  0  0  0  0  0  0  0  0  0  0
  -22.7400  -13.5920   21.1410 C   0  0  0  0  0  0  0  0  0  0  0  0
  -22.0100  -12.9070   22.0140 N   0  0  0  0  0  0  0  0  0  0  0  0
  -22.3070  -14.6140   20.6100 O   0  0  0  0  0  0  0  0  0  0  0  0
  -22.3740  -12.0840   22.4690 H   0  0  0  0  0  0  0  0  0  0  0  0
  -21.0720  -13.2120   22.2340 H   0  0  0  0  0  0  0  0  0  0  0  0
  -25.3850  -15.2360   20.3210 N   0  0  0  0  0  0  0  0  0  0  0  0
  -24.6250  -15.8990   20.4270 H   0  0  0  0  0  0  0  0  0  0  0  0
  -26.2440  -15.6640   19.9990 H   0  0  0  0  0  0  0  0  0  0  0  0
  -28.4680  -24.3910   19.6870 C   0  0  0  0  0  2  0  0  0  0  0  0
  -28.3360  -25.4940   20.7460 C   0  0  0  0  0  2  0  0  0  0  0  0
  -28.4060  -26.7820   20.1390 O   0  0  0  0  0  0  0  0  0  0  0  0
  -24.5800  -31.8760   23.2300 C   0  0  0  0  0  0  0  0  0  0  0  0
  -27.2230  -27.4780   20.1360 C   0  0  0  0  0  0  0  0  0  0  0  0
  -23.3670  -30.4740   21.5900 C   0  0  0  0  0  3  0  0  0  0  0  0
  -24.8150  -28.9410   20.1590 C   0  0  0  0  0  0  0  0  0  0  0  0
  -25.8850  -30.8500   21.3750 C   0  0  0  0  0  2  0  0  0  0  0  0
  -25.9720  -29.4810   20.7370 C   0  0  0  0  0  0  0  0  0  0  0  0
  -27.1810  -28.7590   20.7180 C   0  0  0  0  0  3  0  0  0  0  0  0
  -26.0540  -26.9390   19.5550 C   0  0  0  0  0  3  0  0  0  0  0  0
  -24.8490  -27.6670   19.5650 C   0  0  0  0  0  3  0  0  0  0  0  0
  -23.5680  -29.7940   20.2090 C   0  0  0  0  0  2  0  0  0  0  0  0
  -24.6290  -31.0800   22.1240 N   0  0  0  0  0  0  0  0  0  0  0  0
  -23.5010  -32.1470   23.7750 O   0  0  0  0  0  0  0  0  0  0  0  0
  -22.7230  -29.4520   22.5530 C   0  0  0  0  0  0  0  0  0  0  0  0
  -21.4000  -29.2680   22.4280 N   0  0  0  0  0  0  0  0  0  0  0  0
  -23.4120  -28.8280   23.3640 O   0  0  0  0  0  0  0  0  0  0  0  0
  -20.9060  -29.8280   21.7470 H   0  0  0  0  0  0  0  0  0  0  0  0
  -18.0290  -28.0640   22.9230 C   0  0  0  0  0  0  0  0  0  0  0  0
  -20.5860  -28.3280   23.1980 C   0  0  0  0  0  3  0  0  0  0  0  0
  -20.6920  -26.8960   22.6240 C   0  0  0  0  0  2  0  0  0  0  0  0
  -19.5910  -26.5690   21.6090 C   0  0  0  0  0  2  0  0  0  0  0  0
  -18.2090  -26.7120   22.2500 C   0  0  0  0  0  2  0  0  0  0  0  0
  -19.1450  -28.8270   23.3540 C   0  0  0  0  0  0  0  0  0  0  0  0
  -18.9240  -30.0940   23.9390 C   0  0  0  0  0  3  0  0  0  0  0  0
  -17.6180  -30.5930   24.1000 C   0  0  0  0  0  3  0  0  0  0  0  0
  -16.5160  -29.8260   23.6850 C   0  0  0  0  0  3  0  0  0  0  0  0
  -16.7220  -28.5620   23.1030 C   0  0  0  0  0  3  0  0  0  0  0  0
  -25.8710  -32.5050   23.8470 C   0  0  0  0  0  3  0  0  0  0  0  0
  -25.5650  -33.9020   24.1860 N   0  0  0  0  0  0  0  0  0  0  0  0
  -25.8910  -34.9570   23.4270 C   0  0  0  0  0  0  0  0  0  0  0  0
  -26.5560  -34.8570   22.3930 O   0  0  0  0  0  0  0  0  0  0  0  0
  -24.9780  -34.0550   24.9920 H   0  0  0  0  0  0  0  0  0  0  0  0
  -24.1560  -36.7450   23.0800 C   0  0  0  0  0  1  0  0  0  0  0  0
  -25.4010  -36.3430   23.8890 C   0  0  0  0  0  3  0  0  0  0  0  0
  -27.5390  -37.2240   24.7100 C   0  0  0  0  0  1  0  0  0  0  0  0
  -26.4310  -37.3980   23.7760 N   0  0  0  0  0  0  0  0  0  0  0  0
  -26.0250  -38.3200   23.9270 H   0  0  0  0  0  0  0  0  0  0  0  0
  -26.3980  -31.7270   25.1140 C   0  0  1  0  0  0  0  0  0  0  0  0
  -25.3150  -31.4810   26.1920 C   0  0  0  0  0  1  0  0  0  0  0  0
  -26.9770  -30.3540   24.7050 C   0  0  0  0  0  1  0  0  0  0  0  0
  -27.5550  -32.5170   25.7730 C   0  0  0  0  0  1  0  0  0  0  0  0
  1  2  2  0
  3  4  1  0
  3  1  1  0
  5  6  1  0
  5  4  1  0
  6  7  1  0
  7  8  1  0
  8 17  1  0
  9 17  1  0
 10 15  1  0
 11 12  1  0
 11 10  1  0
 13 12  1  0
 13 22  1  0
 13 14  1  0
 15  9  1  0
 15 14  1  0
 16  9  2  0
 17 18  1  0
 19 20  2  0
 20 39  1  0
 21 20  1  0
 21 24  1  0
 22 19  1  0
 22 23  1  0
 23 21  2  0
 24 25  1  0
 25 26  2  0
 27 30  1  0
 27 26  1  0
 28 27  2  0
 29 28  1  0
 29 24  2  0
 30 31  1  0
 31 32  1  0
 32 33  2  0
 34 33  1  0
 34 38  1  0
 35 34  2  0
 36 31  2  0
 36 35  1  0
 37 36  1  0
 39 40  1  0
 40 43  1  0
 40 42  1  0
 41 39  2  0
 44 45  1  0
 44 19  1  0
 46 44  1  0
 47  1  1  0
 47 48  1  0
 49 48  1  0
 50 61  2  0
 51 49  1  0
 51 56  1  0
 52 60  1  0
 52 62  1  0
 53 59  1  0
 53 55  1  0
 54 60  1  0
 55 54  1  0
 56 55  2  0
 57 58  1  0
 57 51  2  0
 58 53  2  0
 59 52  1  0
 60 50  1  0
 62 64  2  0
 63 62  1  0
 65 63  1  0
 66 75  2  0
 66 71  1  0
 67 63  1  0
 67 71  1  0
 68 67  1  0
 69 70  1  0
 69 68  1  0
 70 66  1  0
 71 72  2  0
 72 73  1  0
 74 73  2  0
 75 74  1  0
 76 50  1  0
 76 77  1  0
 76 86  1  0
 77 80  1  0
 78 82  1  0
 78 77  1  0
 79 78  2  0
 82 81  1  0
 84 82  1  0
 84 85  1  0
 84 83  1  0
 86 89  1  1
 86 87  1  0
 88 86  1  0
M  ISO  4   9 100  17 100  48 101  49 101
M  END
>  <TORSDO>  (40) 
F 24

>  <SCORE>  (40) 
-12.390

>  <name>  (40) 
44

>  <ligand_id>  (40) 
44

>  <original_smiles>  (40) 
[H]c1c([H])c([H])c2c(c1[H])C([H])([H])C([H])([H])C([H])([H])C2([H])N([H])C(=O)C1([H])N(C(=O)C([H])(N([H])C(=O)C([H])(N([H])C([H])([H])[H])C([H])([H])[H])C(C([H])([H])[H])(C([H])([H])[H])C([H])([H])[H])C([H])([H])c2c([H])c(OC([H])([H])C([H])([H])C(=O)C([H])([H])C([H])([H])C([H])([H])C([H])([H])C([H])([H])C([H])([H])N([H])C(=O)N3C([H])([H])C([H])([H])C([H])([H])C([H])(n4nc(-c5c([H])c([H])c(Oc6c([H])c([H])c(F)c([H])c6F)c([H])c5[H])c(C(=O)N([H])[H])c4N([H])[H])C3([H])[H])c([H])c([H])c2C1([H])[H]

>  <smiles>  (40) 
[H]c1c([H])c([H])c2c(c1[H])C([H])([H])C([H])([H])C([H])([H])C2([H])N([H])C(=O)C1([H])N(C(=O)C([H])(N([H])C(=O)C([H])(N([H])C([H])([H])[H])C([H])([H])[H])C(C([H])([H])[H])(C([H])([H])[H])C([H])([H])[H])C([H])([H])c2c([H])c(OC([H])([H])C([H])([H])C(=O)C([H])([H])C([H])([H])C([H])([H])C([H])([H])C([H])([H])C([H])([H])N([H])C(=O)N3C([H])([H])C([H])([H])C([H])([H])C([H])(n4nc(-c5c([H])c([H])c(Oc6c([H])c([H])c(F)c([H])c6F)c([H])c5[H])c(C(=O)N([H])[H])c4N([H])[H])C3([H])[H])c([H])c([H])c2C1([H])[H]

$$$$
45:0:0
     RDKit          3D

 92100  0  0  1  0  0  0  0  0999 V2000
  -26.8900  -21.5450   18.5050 C   0  0  0  0  0  3  0  0  0  0  0  0
  -27.2610  -20.4340   19.2820 C   0  0  0  0  0  3  0  0  0  0  0  0
  -27.2130  -22.8440   18.9350 C   0  0  0  0  0  3  0  0  0  0  0  0
  -28.2790  -21.9320   20.9200 C   0  0  0  0  0  3  0  0  0  0  0  0
  -27.9560  -20.6270   20.4930 C   0  0  0  0  0  0  0  0  0  0  0  0
  -27.9100  -23.0620   20.1480 C   0  0  0  0  0  0  0  0  0  0  0  0
  -29.0410  -24.5790   21.9020 C   0  0  0  0  0  1  0  0  0  0  0  0
  -28.1840  -24.5020   20.6200 C   0  0  0  0  0  3  0  0  0  0  0  0
  -28.7610  -25.4120   19.4910 C   0  0  0  0  0  2  0  0  0  0  0  0
  -28.6460  -26.8180   19.7440 O   0  0  0  0  0  0  0  0  0  0  0  0
  -24.5750  -31.6230   22.9640 C   0  0  0  0  0  0  0  0  0  0  0  0
  -27.4160  -27.4470   19.7120 C   0  0  0  0  0  0  0  0  0  0  0  0
  -23.4190  -30.2450   21.2650 C   0  0  0  0  0  3  0  0  0  0  0  0
  -24.9390  -28.8290   19.7680 C   0  0  0  0  0  0  0  0  0  0  0  0
  -25.9200  -30.7230   21.0700 C   0  0  0  0  0  2  0  0  0  0  0  0
  -26.0670  -29.3810   20.3860 C   0  0  0  0  0  0  0  0  0  0  0  0
  -27.3020  -28.6980   20.3570 C   0  0  0  0  0  3  0  0  0  0  0  0
  -26.2750  -26.9150   19.0660 C   0  0  0  0  0  3  0  0  0  0  0  0
  -25.0430  -27.5960   19.0940 C   0  0  0  0  0  3  0  0  0  0  0  0
  -23.6490  -29.6210   19.8600 C   0  0  0  0  0  2  0  0  0  0  0  0
  -24.6560  -30.8770   21.8250 N   0  0  0  0  0  0  0  0  0  0  0  0
  -23.4900  -31.8220   23.5260 O   0  0  0  0  0  0  0  0  0  0  0  0
  -22.8220  -29.1610   22.1900 C   0  0  0  0  0  0  0  0  0  0  0  0
  -21.4970  -28.9580   22.0940 N   0  0  0  0  0  0  0  0  0  0  0  0
  -23.5440  -28.5050   22.9440 O   0  0  0  0  0  0  0  0  0  0  0  0
  -20.9740  -29.5400   21.4570 H   0  0  0  0  0  0  0  0  0  0  0  0
  -18.1650  -27.6960   22.6350 C   0  0  0  0  0  0  0  0  0  0  0  0
  -20.7260  -27.9620   22.8320 C   0  0  0  0  0  3  0  0  0  0  0  0
  -20.8200  -26.5740   22.1540 C   0  0  0  0  0  2  0  0  0  0  0  0
  -19.6860  -26.3200   21.1580 C   0  0  0  0  0  2  0  0  0  0  0  0
  -18.3360  -26.3900   21.8770 C   0  0  0  0  0  2  0  0  0  0  0  0
  -19.2920  -28.4380   23.0790 C   0  0  0  0  0  0  0  0  0  0  0  0
  -19.0840  -29.6540   23.7670 C   0  0  0  0  0  3  0  0  0  0  0  0
  -17.7820  -30.1310   24.0070 C   0  0  0  0  0  3  0  0  0  0  0  0
  -16.6700  -29.3890   23.5710 C   0  0  0  0  0  3  0  0  0  0  0  0
  -16.8620  -28.1720   22.8930 C   0  0  0  0  0  3  0  0  0  0  0  0
  -25.8360  -32.2830   23.6020 C   0  0  0  0  0  3  0  0  0  0  0  0
  -25.4560  -33.6350   24.0280 N   0  0  0  0  0  0  0  0  0  0  0  0
  -25.7170  -34.7550   23.3390 C   0  0  0  0  0  0  0  0  0  0  0  0
  -26.3790  -34.7610   22.2970 O   0  0  0  0  0  0  0  0  0  0  0  0
  -24.8610  -33.6900   24.8400 H   0  0  0  0  0  0  0  0  0  0  0  0
  -23.8830  -36.4670   23.1390 C   0  0  0  0  0  1  0  0  0  0  0  0
  -25.1620  -36.0800   23.8970 C   0  0  0  0  0  3  0  0  0  0  0  0
  -27.2600  -37.0320   24.7500 C   0  0  0  0  0  1  0  0  0  0  0  0
  -26.1320  -37.1960   23.8370 N   0  0  0  0  0  0  0  0  0  0  0  0
  -25.6780  -38.0810   24.0480 H   0  0  0  0  0  0  0  0  0  0  0  0
  -26.4180  -31.4580   24.8150 C   0  0  1  0  0  0  0  0  0  0  0  0
  -25.3650  -31.1000   25.8900 C   0  0  0  0  0  1  0  0  0  0  0  0
  -27.0490  -30.1390   24.3140 C   0  0  0  0  0  1  0  0  0  0  0  0
  -27.5520  -32.2590   25.5000 C   0  0  0  0  0  1  0  0  0  0  0  0
  -28.3560  -19.4250   21.3290 C   0  0  0  0  0  2  0  0  0  0  0  0
  -29.5610  -18.6940   20.7190 C   0  0  0  0  0  2  0  0  0  0  0  0
  -29.7620  -17.2810   21.2900 C   0  0  0  0  0  2  0  0  0  0  0  0
  -30.9010  -16.5260   20.5780 C   0  0  0  0  0  2  0  0  0  0  0  0
  -31.2140  -14.1440   19.9190 C   0  0  0  0  0  0  0  0  0  0  0  0
  -30.8340  -11.9010   18.9680 C   0  0  0  0  0  2  0  0  0  0  0  0
  -29.8670  -12.0130   17.7730 C   0  0  0  0  0  2  0  0  0  0  0  0
  -28.4040  -11.9380   18.2530 C   0  0  0  0  0  2  0  0  0  0  0  0
  -28.1160  -12.9110   19.4270 C   0  0  0  0  0  3  0  0  0  0  0  0
  -29.1920  -12.7770   20.5270 C   0  0  0  0  0  2  0  0  0  0  0  0
  -30.5170  -12.9810   19.9120 N   0  0  0  0  0  0  0  0  0  0  0  0
  -32.2160  -14.3500   19.2240 O   0  0  0  0  0  0  0  0  0  0  0  0
  -30.6980  -15.0900   20.7140 N   0  0  0  0  0  0  0  0  0  0  0  0
  -29.9460  -14.7900   21.3180 H   0  0  0  0  0  0  0  0  0  0  0  0
  -25.7950  -13.6570   20.2580 C   0  0  0  0  0  0  0  0  0  0  0  0
  -24.7050  -12.9510   20.6840 C   0  0  0  0  0  0  0  0  0  0  0  0
  -25.0780  -11.5720   20.6210 C   0  0  0  0  0  0  0  0  0  0  0  0
  -26.7710  -12.7160   19.9690 N   0  0  0  0  0  0  0  0  0  0  0  0
  -26.3440  -11.4550   20.2390 N   0  0  0  0  0  0  0  0  0  0  0  0
  -24.2900  -10.3570   20.8480 C   0  0  0  0  0  0  0  0  0  0  0  0
  -24.6790   -9.3910   21.8020 C   0  0  0  0  0  3  0  0  0  0  0  0
  -23.8950   -8.2370   22.0160 C   0  0  0  0  0  3  0  0  0  0  0  0
  -22.7080   -8.0380   21.2720 C   0  0  0  0  0  0  0  0  0  0  0  0
  -22.3350   -8.9920   20.3080 C   0  0  0  0  0  3  0  0  0  0  0  0
  -23.1190  -10.1380   20.0940 C   0  0  0  0  0  3  0  0  0  0  0  0
  -21.8990   -6.9340   21.3910 O   0  0  0  0  0  0  0  0  0  0  0  0
  -21.7680   -6.2610   22.5790 C   0  0  0  0  0  0  0  0  0  0  0  0
  -21.3310   -6.9050   23.7560 C   0  0  0  0  0  3  0  0  0  0  0  0
  -21.1480   -6.1620   24.9400 C   0  0  0  0  0  3  0  0  0  0  0  0
  -21.3870   -4.7750   24.9440 C   0  0  0  0  0  0  0  0  0  0  0  0
  -21.8180   -4.1300   23.7720 C   0  0  0  0  0  3  0  0  0  0  0  0
  -22.0060   -4.8710   22.5920 C   0  0  0  0  0  0  0  0  0  0  0  0
  -22.4000   -4.2400   21.4590 F   0  0  0  0  0  0  0  0  0  0  0  0
  -21.2030   -4.0580   26.0790 F   0  0  0  0  0  0  0  0  0  0  0  0
  -23.3580  -13.5090   21.0430 C   0  0  0  0  0  0  0  0  0  0  0  0
  -22.6510  -12.8650   21.9630 N   0  0  0  0  0  0  0  0  0  0  0  0
  -22.9460  -14.5540   20.5390 O   0  0  0  0  0  0  0  0  0  0  0  0
  -22.9940  -12.0180   22.3900 H   0  0  0  0  0  0  0  0  0  0  0  0
  -21.7510  -13.2260   22.2460 H   0  0  0  0  0  0  0  0  0  0  0  0
  -26.0360  -15.0170   20.0750 N   0  0  0  0  0  0  0  0  0  0  0  0
  -25.3210  -15.7190   20.2330 H   0  0  0  0  0  0  0  0  0  0  0  0
  -26.9010  -15.3950   19.7110 H   0  0  0  0  0  0  0  0  0  0  0  0
  1  3  2  0
  1  2  1  0
  2  5  2  0
  3  6  1  0
  5  4  1  0
  5 51  1  0
  6  8  1  0
  6  4  2  0
  8  7  1  0
  9 10  1  0
  9  8  1  0
 11 22  2  0
 12 10  1  0
 12 17  1  0
 13 21  1  0
 13 23  1  0
 14 20  1  0
 14 16  1  0
 15 21  1  0
 16 15  1  0
 17 16  2  0
 18 19  1  0
 18 12  2  0
 19 14  2  0
 20 13  1  0
 21 11  1  0
 23 25  2  0
 24 23  1  0
 26 24  1  0
 27 36  2  0
 27 32  1  0
 28 24  1  0
 28 32  1  0
 29 28  1  0
 30 31  1  0
 30 29  1  0
 31 27  1  0
 32 33  2  0
 33 34  1  0
 35 34  2  0
 36 35  1  0
 37 11  1  0
 37 38  1  0
 37 47  1  0
 38 41  1  0
 39 43  1  0
 39 38  1  0
 40 39  2  0
 43 42  1  0
 45 43  1  0
 45 46  1  0
 45 44  1  0
 47 50  1  1
 47 48  1  0
 49 47  1  0
 52 53  1  0
 52 51  1  0
 54 63  1  0
 54 53  1  0
 55 63  1  0
 56 61  1  0
 57 58  1  0
 57 56  1  0
 59 58  1  0
 59 68  1  0
 59 60  1  0
 61 55  1  0
 61 60  1  0
 62 55  2  0
 63 64  1  0
 65 66  2  0
 66 85  1  0
 67 66  1  0
 67 70  1  0
 68 69  1  0
 68 65  1  0
 69 67  2  0
 70 71  1  0
 71 72  2  0
 73 76  1  0
 73 72  1  0
 74 73  2  0
 75 74  1  0
 75 70  2  0
 76 77  1  0
 77 82  2  0
 77 78  1  0
 78 79  2  0
 79 80  1  0
 80 84  1  0
 81 80  2  0
 82 81  1  0
 83 82  1  0
 85 86  1  0
 86 89  1  0
 86 88  1  0
 87 85  2  0
 90 91  1  0
 90 65  1  0
 92 90  1  0
M  ISO  4   9 101  10 101  55 100  63 100
M  END
>  <TORSDO>  (41) 
F 22

>  <SCORE>  (41) 
-11.288

>  <name>  (41) 
45

>  <ligand_id>  (41) 
45

>  <original_smiles>  (41) 
[H]c1c([H])c([H])c2c(c1[H])C([H])([H])C([H])([H])C([H])([H])C2([H])N([H])C(=O)C1([H])N(C(=O)C([H])(N([H])C(=O)C([H])(N([H])C([H])([H])[H])C([H])([H])[H])C(C([H])([H])[H])(C([H])([H])[H])C([H])([H])[H])C([H])([H])c2c([H])c(OC([H])([H])C([H])(c3c([H])c([H])c([H])c(C([H])([H])C([H])([H])C([H])([H])C([H])([H])N([H])C(=O)N4C([H])([H])C([H])([H])C([H])([H])C([H])(n5nc(-c6c([H])c([H])c(Oc7c([H])c([H])c(F)c([H])c7F)c([H])c6[H])c(C(=O)N([H])[H])c5N([H])[H])C4([H])[H])c3[H])C([H])([H])[H])c([H])c([H])c2C1([H])[H]

>  <smiles>  (41) 
[H]c1c([H])c([H])c2c(c1[H])C([H])([H])C([H])([H])C([H])([H])C2([H])N([H])C(=O)C1([H])N(C(=O)C([H])(N([H])C(=O)C([H])(N([H])C([H])([H])[H])C([H])([H])[H])C(C([H])([H])[H])(C([H])([H])[H])C([H])([H])[H])C([H])([H])c2c([H])c(OC([H])([H])C([H])(c3c([H])c([H])c([H])c(C([H])([H])C([H])([H])C([H])([H])C([H])([H])N([H])C(=O)N4C([H])([H])C([H])([H])C([H])([H])C([H])(n5nc(-c6c([H])c([H])c(Oc7c([H])c([H])c(F)c([H])c7F)c([H])c6[H])c(C(=O)N([H])[H])c5N([H])[H])C4([H])[H])c3[H])C([H])([H])[H])c([H])c([H])c2C1([H])[H]

$$$$
46:0:0
     RDKit          3D

 95103  0  0  1  0  0  0  0  0999 V2000
  -23.6410  -23.1650   20.7140 C   0  0  0  0  0  3  0  0  0  0  0  0
  -24.6920  -23.9900   21.1600 C   0  0  0  0  0  3  0  0  0  0  0  0
  -23.8780  -22.1990   19.7160 C   0  0  0  0  0  3  0  0  0  0  0  0
  -26.2100  -22.8710   19.6300 C   0  0  0  0  0  3  0  0  0  0  0  0
  -25.9860  -23.8480   20.6210 C   0  0  0  0  0  0  0  0  0  0  0  0
  -25.1700  -22.0360   19.1610 C   0  0  0  0  0  0  0  0  0  0  0  0
  -25.3870  -21.0370   18.0700 C   0  0  0  0  0  0  0  0  0  0  0  0
  -24.4490  -20.5200   17.4550 O   0  0  0  0  0  0  0  0  0  0  0  0
  -26.8220  -20.6160   17.7010 C   0  0  0  0  0  2  0  0  0  0  0  0
  -27.2430  -19.2680   18.3210 C   0  0  0  0  0  2  0  0  0  0  0  0
  -28.4550  -19.3820   19.2620 C   0  0  0  0  0  2  0  0  0  0  0  0
  -28.7480  -18.0390   19.9370 C   0  0  0  0  0  2  0  0  0  0  0  0
  -29.9500  -18.0410   20.8970 C   0  0  0  0  0  2  0  0  0  0  0  0
  -30.8980  -15.7620   20.7830 C   0  0  0  0  0  0  0  0  0  0  0  0
  -30.8880  -13.4860   19.8430 C   0  0  0  0  0  2  0  0  0  0  0  0
  -30.0560  -13.4770   18.5450 C   0  0  0  0  0  2  0  0  0  0  0  0
  -28.5570  -13.2700   18.8430 C   0  0  0  0  0  2  0  0  0  0  0  0
  -28.0340  -14.2080   19.9670 C   0  0  0  0  0  3  0  0  0  0  0  0
  -28.9840  -14.1760   21.1900 C   0  0  0  0  0  2  0  0  0  0  0  0
  -30.3450  -14.5220   20.7320 N   0  0  0  0  0  0  0  0  0  0  0  0
  -31.9650  -16.0640   20.2410 O   0  0  0  0  0  0  0  0  0  0  0  0
  -30.1220  -16.6750   21.3740 N   0  0  0  0  0  0  0  0  0  0  0  0
  -29.3430  -16.2920   21.8900 H   0  0  0  0  0  0  0  0  0  0  0  0
  -25.5660  -14.7210   20.5150 C   0  0  0  0  0  0  0  0  0  0  0  0
  -24.5020  -13.9040   20.7900 C   0  0  0  0  0  0  0  0  0  0  0  0
  -25.0130  -12.5720   20.7550 C   0  0  0  0  0  0  0  0  0  0  0  0
  -26.6570  -13.8820   20.3390 N   0  0  0  0  0  0  0  0  0  0  0  0
  -26.3220  -12.5820   20.5370 N   0  0  0  0  0  0  0  0  0  0  0  0
  -24.3220  -11.2800   20.8660 C   0  0  0  0  0  0  0  0  0  0  0  0
  -24.6740  -10.3390   21.8590 C   0  0  0  0  0  3  0  0  0  0  0  0
  -23.9820   -9.1120   21.9590 C   0  0  0  0  0  3  0  0  0  0  0  0
  -22.9280   -8.8170   21.0610 C   0  0  0  0  0  0  0  0  0  0  0  0
  -22.5990   -9.7480   20.0600 C   0  0  0  0  0  3  0  0  0  0  0  0
  -23.2910  -10.9660   19.9600 C   0  0  0  0  0  3  0  0  0  0  0  0
  -22.2220   -7.6390   21.0630 O   0  0  0  0  0  0  0  0  0  0  0  0
  -21.9530   -6.9630   22.2260 C   0  0  0  0  0  0  0  0  0  0  0  0
  -21.2380   -7.5600   23.2880 C   0  0  0  0  0  3  0  0  0  0  0  0
  -20.9260   -6.8060   24.4370 C   0  0  0  0  0  3  0  0  0  0  0  0
  -21.3200   -5.4570   24.5240 C   0  0  0  0  0  0  0  0  0  0  0  0
  -22.0270   -4.8620   23.4650 C   0  0  0  0  0  3  0  0  0  0  0  0
  -22.3410   -5.6120   22.3190 C   0  0  0  0  0  0  0  0  0  0  0  0
  -23.0050   -5.0270   21.2920 F   0  0  0  0  0  0  0  0  0  0  0  0
  -21.0130   -4.7300   25.6230 F   0  0  0  0  0  0  0  0  0  0  0  0
  -23.0740  -14.3280   20.9830 C   0  0  0  0  0  0  0  0  0  0  0  0
  -22.3290  -13.6010   21.8070 N   0  0  0  0  0  0  0  0  0  0  0  0
  -22.6240  -15.3380   20.4440 O   0  0  0  0  0  0  0  0  0  0  0  0
  -22.7090  -12.7890   22.2680 H   0  0  0  0  0  0  0  0  0  0  0  0
  -21.3700  -13.8650   21.9880 H   0  0  0  0  0  0  0  0  0  0  0  0
  -25.6910  -16.0990   20.3850 N   0  0  0  0  0  0  0  0  0  0  0  0
  -24.8940  -16.7210   20.4540 H   0  0  0  0  0  0  0  0  0  0  0  0
  -26.5510  -16.5760   20.1470 H   0  0  0  0  0  0  0  0  0  0  0  0
  -27.0550  -24.7770   21.0220 C   0  0  0  0  0  3  0  0  0  0  0  0
  -28.2730  -24.8640   20.4500 C   0  0  0  0  0  3  0  0  0  0  0  0
  -29.3110  -25.9040   20.7980 C   0  0  0  0  0  2  0  0  0  0  0  0
  -29.2310  -26.9980   19.8850 O   0  0  0  0  0  0  0  0  0  0  0  0
  -25.3280  -31.2960   23.9460 C   0  0  0  0  0  0  0  0  0  0  0  0
  -28.0660  -27.7130   20.0070 C   0  0  0  0  0  0  0  0  0  0  0  0
  -24.1640  -30.3130   21.9960 C   0  0  0  0  0  3  0  0  0  0  0  0
  -25.6590  -29.1450   20.2910 C   0  0  0  0  0  0  0  0  0  0  0  0
  -26.6860  -30.7140   21.9460 C   0  0  0  0  0  2  0  0  0  0  0  0
  -26.7950  -29.5270   21.0180 C   0  0  0  0  0  0  0  0  0  0  0  0
  -28.0020  -28.8120   20.8840 C   0  0  0  0  0  3  0  0  0  0  0  0
  -26.9250  -27.3470   19.2620 C   0  0  0  0  0  3  0  0  0  0  0  0
  -25.7160  -28.0510   19.4100 C   0  0  0  0  0  3  0  0  0  0  0  0
  -24.4060  -29.9640   20.5020 C   0  0  0  0  0  2  0  0  0  0  0  0
  -25.4100  -30.7730   22.6910 N   0  0  0  0  0  0  0  0  0  0  0  0
  -24.2340  -31.4390   24.5090 O   0  0  0  0  0  0  0  0  0  0  0  0
  -23.4930  -29.1000   22.6810 C   0  0  0  0  0  0  0  0  0  0  0  0
  -22.2080  -28.8720   22.3630 N   0  0  0  0  0  0  0  0  0  0  0  0
  -24.1290  -28.3770   23.4530 O   0  0  0  0  0  0  0  0  0  0  0  0
  -21.7550  -29.5180   21.7330 H   0  0  0  0  0  0  0  0  0  0  0  0
  -18.9450  -27.3440   22.1160 C   0  0  0  0  0  0  0  0  0  0  0  0
  -21.3870  -27.7640   22.8500 C   0  0  0  0  0  3  0  0  0  0  0  0
  -21.7300  -26.4490   22.1100 C   0  0  0  0  0  2  0  0  0  0  0  0
  -20.8390  -26.1950   20.8910 C   0  0  0  0  0  2  0  0  0  0  0  0
  -19.3670  -26.1300   21.3070 C   0  0  0  0  0  2  0  0  0  0  0  0
  -19.8970  -28.1220   22.8280 C   0  0  0  0  0  0  0  0  0  0  0  0
  -19.4600  -29.2630   23.5340 C   0  0  0  0  0  3  0  0  0  0  0  0
  -18.1010  -29.6310   23.5360 C   0  0  0  0  0  3  0  0  0  0  0  0
  -17.1600  -28.8510   22.8430 C   0  0  0  0  0  3  0  0  0  0  0  0
  -17.5820  -27.7080   22.1400 C   0  0  0  0  0  3  0  0  0  0  0  0
  -26.6000  -31.7620   24.7220 C   0  0  0  0  0  3  0  0  0  0  0  0
  -26.3890  -33.1600   25.1180 N   0  0  0  0  0  0  0  0  0  0  0  0
  -26.8870  -34.2180   24.4640 C   0  0  0  0  0  0  0  0  0  0  0  0
  -27.6400  -34.1120   23.4920 O   0  0  0  0  0  0  0  0  0  0  0  0
  -25.7380  -33.3240   25.8730 H   0  0  0  0  0  0  0  0  0  0  0  0
  -25.3620  -36.1780   24.0790 C   0  0  0  0  0  1  0  0  0  0  0  0
  -26.4840  -35.6170   24.9660 C   0  0  0  0  0  3  0  0  0  0  0  0
  -28.6040  -36.2530   26.0300 C   0  0  0  0  0  1  0  0  0  0  0  0
  -27.6110  -36.5740   25.0080 N   0  0  0  0  0  0  0  0  0  0  0  0
  -27.2760  -37.5190   25.1780 H   0  0  0  0  0  0  0  0  0  0  0  0
  -26.9250  -30.8620   25.9790 C   0  0  1  0  0  0  0  0  0  0  0  0
  -25.7050  -30.6180   26.8970 C   0  0  0  0  0  1  0  0  0  0  0  0
  -27.4670  -29.4830   25.5370 C   0  0  0  0  0  1  0  0  0  0  0  0
  -28.0380  -31.5260   26.8260 C   0  0  0  0  0  1  0  0  0  0  0  0
  1  2  1  0
  3  1  2  0
  4  5  1  0
  5 52  1  0
  5  2  2  0
  6  4  2  0
  6  3  1  0
  7  6  1  0
  8  7  2  0
  9  7  1  0
  9 10  1  0
 10 11  1  0
 11 12  1  0
 12 13  1  0
 13 22  1  0
 14 22  1  0
 15 20  1  0
 16 17  1  0
 16 15  1  0
 18 17  1  0
 18 27  1  0
 18 19  1  0
 20 14  1  0
 20 19  1  0
 21 14  2  0
 22 23  1  0
 24 25  2  0
 25 44  1  0
 26 25  1  0
 26 29  1  0
 27 24  1  0
 27 28  1  0
 28 26  2  0
 29 30  1  0
 30 31  2  0
 32 35  1  0
 32 31  1  0
 33 32  2  0
 34 33  1  0
 34 29  2  0
 35 36  1  0
 36 41  2  0
 36 37  1  0
 37 38  2  0
 38 39  1  0
 39 43  1  0
 40 39  2  0
 41 40  1  0
 42 41  1  0
 44 45  1  0
 45 48  1  0
 45 47  1  0
 46 44  2  0
 49 50  1  0
 49 24  1  0
 51 49  1  0
 53 54  1  0
 53 52  2  0
 55 57  1  0
 55 54  1  0
 56 67  2  0
 57 62  1  0
 58 68  1  0
 58 66  1  0
 59 65  1  0
 59 61  1  0
 60 66  1  0
 61 60  1  0
 62 61  2  0
 63 64  1  0
 63 57  2  0
 64 59  2  0
 65 58  1  0
 66 56  1  0
 68 70  2  0
 69 68  1  0
 71 69  1  0
 72 81  2  0
 72 77  1  0
 73 69  1  0
 74 73  1  0
 75 76  1  0
 75 74  1  0
 76 72  1  0
 77 73  1  0
 77 78  2  0
 78 79  1  0
 80 79  2  0
 81 80  1  0
 82 56  1  0
 82 83  1  0
 82 92  1  0
 83 86  1  0
 84 88  1  0
 84 83  1  0
 85 84  2  0
 88 87  1  0
 88 90  1  0
 90 91  1  0
 90 89  1  0
 92 95  1  1
 92 93  1  0
 94 92  1  0
M  ISO  4  14 100  22 100  54 101  55 101
M  END
>  <TORSDO>  (42) 
F 24

>  <SCORE>  (42) 
-9.321

>  <name>  (42) 
46

>  <ligand_id>  (42) 
46

>  <original_smiles>  (42) 
[H]C(=C([H])C([H])([H])Oc1c([H])c([H])c2c(c1[H])C([H])([H])N(C(=O)C([H])(N([H])C(=O)C([H])(N([H])C([H])([H])[H])C([H])([H])[H])C(C([H])([H])[H])(C([H])([H])[H])C([H])([H])[H])C([H])(C(=O)N([H])C1([H])c3c([H])c([H])c([H])c([H])c3C([H])([H])C([H])([H])C1([H])[H])C2([H])[H])c1c([H])c([H])c([H])c(C(=O)C([H])([H])C([H])([H])C([H])([H])C([H])([H])C([H])([H])N([H])C(=O)N2C([H])([H])C([H])([H])C([H])([H])C([H])(n3nc(-c4c([H])c([H])c(Oc5c([H])c([H])c(F)c([H])c5F)c([H])c4[H])c(C(=O)N([H])[H])c3N([H])[H])C2([H])[H])c1[H]

>  <smiles>  (42) 
[H]C(=C([H])C([H])([H])Oc1c([H])c([H])c2c(c1[H])C([H])([H])N(C(=O)C([H])(N([H])C(=O)C([H])(N([H])C([H])([H])[H])C([H])([H])[H])C(C([H])([H])[H])(C([H])([H])[H])C([H])([H])[H])C([H])(C(=O)N([H])C1([H])c3c([H])c([H])c([H])c([H])c3C([H])([H])C([H])([H])C1([H])[H])C2([H])[H])c1c([H])c([H])c([H])c(C(=O)C([H])([H])C([H])([H])C([H])([H])C([H])([H])C([H])([H])N([H])C(=O)N2C([H])([H])C([H])([H])C([H])([H])C([H])(n3nc(-c4c([H])c([H])c(Oc5c([H])c([H])c(F)c([H])c5F)c([H])c4[H])c(C(=O)N([H])[H])c3N([H])[H])C2([H])[H])c1[H]

$$$$
47:0:0
     RDKit          3D

 87 94  0  0  1  0  0  0  0  0999 V2000
  -29.0860  -23.9790   20.4880 C   0  0  0  0  0  0  0  0  0  0  0  0
  -29.7530  -24.2510   21.4920 O   0  0  0  0  0  0  0  0  0  0  0  0
  -29.1740  -22.5390   19.8410 C   0  0  0  0  0  3  0  0  0  0  0  0
  -29.3240  -21.2330   20.7500 C   0  0  0  0  0  3  0  0  0  0  0  0
  -29.6440  -19.8560   20.0030 C   0  0  0  0  0  2  0  0  0  0  0  0
  -29.6400  -18.4710   20.8030 C   0  0  0  0  0  3  0  0  0  0  0  0
  -30.2230  -17.1880   20.0470 C   0  0  0  0  0  3  0  0  0  0  0  0
  -30.6270  -14.6590   20.2740 C   0  0  0  0  0  0  0  0  0  0  0  0
  -30.3270  -12.4210   19.2420 C   0  0  0  0  0  2  0  0  0  0  0  0
  -29.3780  -12.5600   18.0310 C   0  0  0  0  0  2  0  0  0  0  0  0
  -27.9140  -12.4070   18.4850 C   0  0  0  0  0  2  0  0  0  0  0  0
  -27.5780  -13.2860   19.7200 C   0  0  0  0  0  3  0  0  0  0  0  0
  -28.6490  -13.1600   20.8250 C   0  0  0  0  0  2  0  0  0  0  0  0
  -29.9550  -13.4630   20.2230 N   0  0  0  0  0  0  0  0  0  0  0  0
  -31.7880  -14.7490   19.8640 O   0  0  0  0  0  0  0  0  0  0  0  0
  -29.9070  -15.7950   20.5490 N   0  0  0  0  0  0  0  0  0  0  0  0
  -28.9730  -15.6420   20.9020 H   0  0  0  0  0  0  0  0  0  0  0  0
  -25.2050  -13.8990   20.4860 C   0  0  0  0  0  0  0  0  0  0  0  0
  -24.1390  -13.1330   20.8750 C   0  0  0  0  0  0  0  0  0  0  0  0
  -24.5920  -11.7790   20.8380 C   0  0  0  0  0  0  0  0  0  0  0  0
  -26.2370  -13.0110   20.2340 N   0  0  0  0  0  0  0  0  0  0  0  0
  -25.8760  -11.7310   20.5050 N   0  0  0  0  0  0  0  0  0  0  0  0
  -23.8610  -10.5220   21.0410 C   0  0  0  0  0  0  0  0  0  0  0  0
  -24.3140   -9.5410   21.9500 C   0  0  0  0  0  3  0  0  0  0  0  0
  -23.5830   -8.3490   22.1410 C   0  0  0  0  0  3  0  0  0  0  0  0
  -22.3830   -8.1300   21.4230 C   0  0  0  0  0  0  0  0  0  0  0  0
  -21.9490   -9.0980   20.5000 C   0  0  0  0  0  3  0  0  0  0  0  0
  -22.6820  -10.2820   20.3070 C   0  0  0  0  0  3  0  0  0  0  0  0
  -21.6200   -6.9920   21.5240 O   0  0  0  0  0  0  0  0  0  0  0  0
  -21.6140   -6.2280   22.6630 C   0  0  0  0  0  0  0  0  0  0  0  0
  -21.2680   -6.7680   23.9200 C   0  0  0  0  0  3  0  0  0  0  0  0
  -21.2090   -5.9310   25.0530 C   0  0  0  0  0  3  0  0  0  0  0  0
  -21.4870   -4.5570   24.9290 C   0  0  0  0  0  0  0  0  0  0  0  0
  -21.8250   -4.0170   23.6760 C   0  0  0  0  0  3  0  0  0  0  0  0
  -21.8880   -4.8510   22.5460 C   0  0  0  0  0  0  0  0  0  0  0  0
  -22.1950   -4.3220   21.3360 F   0  0  0  0  0  0  0  0  0  0  0  0
  -21.4220   -3.7510   26.0150 F   0  0  0  0  0  0  0  0  0  0  0  0
  -22.7510  -13.6210   21.1720 C   0  0  0  0  0  0  0  0  0  0  0  0
  -22.0330  -12.9320   22.0520 N   0  0  0  0  0  0  0  0  0  0  0  0
  -22.3120  -14.6480   20.6570 O   0  0  0  0  0  0  0  0  0  0  0  0
  -22.4030  -12.1040   22.4950 H   0  0  0  0  0  0  0  0  0  0  0  0
  -21.1010  -13.2400   22.2880 H   0  0  0  0  0  0  0  0  0  0  0  0
  -25.3740  -15.2680   20.3050 N   0  0  0  0  0  0  0  0  0  0  0  0
  -24.5990  -15.9190   20.3860 H   0  0  0  0  0  0  0  0  0  0  0  0
  -26.2200  -15.7050   19.9630 H   0  0  0  0  0  0  0  0  0  0  0  0
  -28.1490  -25.0590   19.8230 C   0  0  0  0  0  2  0  0  0  0  0  0
  -28.3220  -26.4780   20.2230 O   0  0  0  0  0  0  0  0  0  0  0  0
  -24.6090  -31.8720   23.2300 C   0  0  0  0  0  0  0  0  0  0  0  0
  -27.2010  -27.3240   20.1540 C   0  0  0  0  0  0  0  0  0  0  0  0
  -23.3920  -30.4770   21.5950 C   0  0  0  0  0  3  0  0  0  0  0  0
  -24.8330  -28.9330   20.1550 C   0  0  0  0  0  0  0  0  0  0  0  0
  -25.9290  -30.7960   21.3970 C   0  0  0  0  0  2  0  0  0  0  0  0
  -26.0020  -29.4180   20.7510 C   0  0  0  0  0  0  0  0  0  0  0  0
  -27.1850  -28.6220   20.7490 C   0  0  0  0  0  3  0  0  0  0  0  0
  -26.0090  -26.9030   19.5130 C   0  0  0  0  0  3  0  0  0  0  0  0
  -24.8350  -27.6790   19.5290 C   0  0  0  0  0  3  0  0  0  0  0  0
  -23.5980  -29.8070   20.2130 C   0  0  0  0  0  2  0  0  0  0  0  0
  -24.6630  -31.0640   22.1320 N   0  0  0  0  0  0  0  0  0  0  0  0
  -23.5300  -32.1510   23.7740 O   0  0  0  0  0  0  0  0  0  0  0  0
  -22.7370  -29.4560   22.5570 C   0  0  0  0  0  0  0  0  0  0  0  0
  -21.4110  -29.2810   22.4420 N   0  0  0  0  0  0  0  0  0  0  0  0
  -23.4220  -28.8290   23.3700 O   0  0  0  0  0  0  0  0  0  0  0  0
  -20.9160  -29.8410   21.7620 H   0  0  0  0  0  0  0  0  0  0  0  0
  -18.0380  -28.0800   22.9550 C   0  0  0  0  0  0  0  0  0  0  0  0
  -20.5970  -28.3450   23.2210 C   0  0  0  0  0  3  0  0  0  0  0  0
  -20.7010  -26.9100   22.6530 C   0  0  0  0  0  2  0  0  0  0  0  0
  -19.5990  -26.5820   21.6420 C   0  0  0  0  0  2  0  0  0  0  0  0
  -18.2170  -26.7280   22.2870 C   0  0  0  0  0  2  0  0  0  0  0  0
  -19.1580  -28.8450   23.3790 C   0  0  0  0  0  0  0  0  0  0  0  0
  -18.9370  -30.1080   23.9660 C   0  0  0  0  0  3  0  0  0  0  0  0
  -17.6340  -30.6100   24.1350 C   0  0  0  0  0  3  0  0  0  0  0  0
  -16.5280  -29.8420   23.7300 C   0  0  0  0  0  3  0  0  0  0  0  0
  -16.7300  -28.5800   23.1420 C   0  0  0  0  0  3  0  0  0  0  0  0
  -25.8980  -32.5020   23.8420 C   0  0  0  0  0  3  0  0  0  0  0  0
  -26.4270  -31.7260   25.1090 C   0  0  1  0  0  0  0  0  0  0  0  0
  -25.3460  -31.4880   26.1890 C   0  0  0  0  0  1  0  0  0  0  0  0
  -27.0040  -30.3490   24.7040 C   0  0  0  0  0  1  0  0  0  0  0  0
  -27.5840  -32.5190   25.7630 C   0  0  0  0  0  1  0  0  0  0  0  0
  -25.5900  -33.8990   24.1820 N   0  0  0  0  0  0  0  0  0  0  0  0
  -25.9120  -34.9560   23.4270 C   0  0  0  0  0  0  0  0  0  0  0  0
  -26.5700  -34.8600   22.3860 O   0  0  0  0  0  0  0  0  0  0  0  0
  -24.9980  -34.0470   24.9860 H   0  0  0  0  0  0  0  0  0  0  0  0
  -24.1730  -36.7480   23.1110 C   0  0  0  0  0  1  0  0  0  0  0  0
  -25.4280  -36.3410   23.8990 C   0  0  0  0  0  3  0  0  0  0  0  0
  -27.5740  -37.2260   24.6960 C   0  0  0  0  0  1  0  0  0  0  0  0
  -26.4560  -37.3990   23.7750 N   0  0  0  0  0  0  0  0  0  0  0  0
  -26.0490  -38.3160   23.9410 H   0  0  0  0  0  0  0  0  0  0  0  0
  1  2  2  0
  3  1  1  0
  3  4  2  0
  5  4  1  0
  5  6  1  0
  7 16  1  0
  7  6  2  0
  8 16  1  0
  9 14  1  0
 10 11  1  0
 10  9  1  0
 12 11  1  0
 12 21  1  0
 12 13  1  0
 14  8  1  0
 14 13  1  0
 15  8  2  0
 16 17  1  0
 18 19  2  0
 19 38  1  0
 20 19  1  0
 20 23  1  0
 21 18  1  0
 21 22  1  0
 22 20  2  0
 23 24  1  0
 24 25  2  0
 26 29  1  0
 26 25  1  0
 27 26  2  0
 28 27  1  0
 28 23  2  0
 29 30  1  0
 30 31  1  0
 31 32  2  0
 33 32  1  0
 33 37  1  0
 34 33  2  0
 35 30  2  0
 35 34  1  0
 36 35  1  0
 38 39  1  0
 39 42  1  0
 39 41  1  0
 40 38  2  0
 43 44  1  0
 43 18  1  0
 45 43  1  0
 46 47  1  0
 46  1  1  0
 48 59  2  0
 49 47  1  0
 49 54  1  0
 50 58  1  0
 50 60  1  0
 51 57  1  0
 51 53  1  0
 52 58  1  0
 53 52  1  0
 54 53  2  0
 55 56  1  0
 55 49  2  0
 56 51  2  0
 57 50  1  0
 58 48  1  0
 60 62  2  0
 61 60  1  0
 63 61  1  0
 64 73  2  0
 64 69  1  0
 65 61  1  0
 65 69  1  0
 66 65  1  0
 67 68  1  0
 67 66  1  0
 68 64  1  0
 69 70  2  0
 70 71  1  0
 72 71  2  0
 73 72  1  0
 74 48  1  0
 74 79  1  0
 74 75  1  0
 75 78  1  1
 75 76  1  0
 77 75  1  0
 79 82  1  0
 80 84  1  0
 80 79  1  0
 81 80  2  0
 84 83  1  0
 86 84  1  0
 86 87  1  0
 86 85  1  0
M  ISO  4   8 100  16 100  46 101  47 101
M  END
>  <TORSDO>  (43) 
F 22

>  <SCORE>  (43) 
-12.872

>  <name>  (43) 
47

>  <ligand_id>  (43) 
47

>  <original_smiles>  (43) 
[H]c1c([H])c([H])c2c(c1[H])C([H])([H])C([H])([H])C([H])([H])C2([H])N([H])C(=O)C1([H])N(C(=O)C([H])(N([H])C(=O)C([H])(N([H])C([H])([H])[H])C([H])([H])[H])C(C([H])([H])[H])(C([H])([H])[H])C([H])([H])[H])C([H])([H])c2c([H])c(OC([H])([H])C(=O)C([H])([H])C([H])([H])C([H])([H])C([H])([H])C([H])([H])N([H])C(=O)N3C([H])([H])C([H])([H])C([H])([H])C([H])(n4nc(-c5c([H])c([H])c(Oc6c([H])c([H])c(F)c([H])c6F)c([H])c5[H])c(C(=O)N([H])[H])c4N([H])[H])C3([H])[H])c([H])c([H])c2C1([H])[H]

>  <smiles>  (43) 
[H]c1c([H])c([H])c2c(c1[H])C([H])([H])C([H])([H])C([H])([H])C2([H])N([H])C(=O)C1([H])N(C(=O)C([H])(N([H])C(=O)C([H])(N([H])C([H])([H])[H])C([H])([H])[H])C(C([H])([H])[H])(C([H])([H])[H])C([H])([H])[H])C([H])([H])c2c([H])c(OC([H])([H])C(=O)C([H])([H])C([H])([H])C([H])([H])C([H])([H])C([H])([H])N([H])C(=O)N3C([H])([H])C([H])([H])C([H])([H])C([H])(n4nc(-c5c([H])c([H])c(Oc6c([H])c([H])c(F)c([H])c6F)c([H])c5[H])c(C(=O)N([H])[H])c4N([H])[H])C3([H])[H])c([H])c([H])c2C1([H])[H]

$$$$
48:0:0
     RDKit          3D

 93 93  0  0  1  0  0  0  0  0999 V2000
  -20.8340  -25.8620   18.7380 C   0  0  0  0  0  3  0  0  0  0  0  0
  -20.9680  -27.1510   19.3560 C   0  0  0  0  0  3  0  0  0  0  0  0
  -21.7630  -24.7280   18.7280 C   0  0  0  0  0  3  0  0  0  0  0  0
  -23.1450  -26.2170   19.7020 C   0  0  0  0  0  3  0  0  0  0  0  0
  -22.1330  -27.4960   20.0750 C   0  0  0  0  0  3  0  0  0  0  0  0
  -23.1410  -24.6750   19.2070 C   0  0  0  0  0  0  0  0  0  0  0  0
  -22.1180  -29.1300   21.2340 C   0  0  0  0  0  2  0  0  0  0  0  0
  -21.5940  -30.1380   20.7680 O   0  0  0  0  0  0  0  0  0  0  0  0
  -22.9870  -29.3200   23.1750 C   0  0  0  0  0 15  0  0  0  0  0  0
  -25.0590  -28.4880   23.8290 C   0  0  0  0  0 15  0  0  0  0  0  0
  -26.5090  -27.5790   22.9030 O   0  0  0  0  0  1  0  0  0  0  0  0
  -24.9430  -31.1540   23.2790 C   0  0  0  0  0  0  0  0  0  0  0  0
  -27.1830  -27.3750   21.5640 C   0  0  0  0  0  3  0  0  0  0  0  0
  -24.4470  -28.7830   21.4720 C   0  0  0  0  0  2  0  0  0  0  0  0
  -25.8910  -28.7150   19.7320 C   0  0  0  0  0  3  0  0  0  0  0  0
  -26.3770  -30.4780   21.5150 C   0  0  0  0  0  2  0  0  0  0  0  0
  -26.8180  -29.3190   20.6320 C   0  0  0  0  0  3  0  0  0  0  0  0
  -27.8220  -28.5220   21.1530 C   0  0  0  0  0  2  0  0  0  0  0  0
  -26.6710  -26.6070   20.4420 C   0  0  0  0  0  2  0  0  0  0  0  0
  -26.0950  -27.3620   19.4070 C   0  0  0  0  0  2  0  0  0  0  0  0
  -24.4610  -29.0660   19.9670 C   0  0  0  0  0  2  0  0  0  0  0  0
  -25.0680  -30.2720   22.1050 N   0  0  0  0  0  0  0  0  0  0  0  0
  -23.8410  -31.5500   23.7030 O   0  0  0  0  0  0  0  0  0  0  0  0
  -23.8030  -27.0760   22.3000 C   0  0  0  0  0  2  0  0  0  0  0  0
  -22.5470  -26.7320   22.9500 N   0  0  0  0  0  0  0  0  0  0  0  0
  -24.4730  -26.3120   22.8550 O   0  0  0  0  0  1  0  0  0  0  0  0
  -22.8310  -25.8660   23.4060 H   0  0  0  0  0  0  0  0  0  0  0  0
  -18.4840  -26.9820   22.3020 C   0  0  0  0  0  0  0  0  0  0  0  0
  -21.0100  -26.6830   23.0470 C   0  0  0  0  0  0  0  0  0  0  0  0
  -20.9110  -25.2940   22.4560 C   0  0  0  0  0  3  0  0  0  0  0  0
  -19.7360  -24.8860   21.6200 C   0  0  0  0  0  3  0  0  0  0  0  0
  -18.4780  -25.6740   21.5800 C   0  0  0  0  0  3  0  0  0  0  0  0
  -19.6650  -27.5870   22.8740 C   0  0  0  0  0  0  0  0  0  0  0  0
  -19.4070  -28.9000   23.3930 C   0  0  0  0  0  3  0  0  0  0  0  0
  -18.0890  -29.4560   23.4920 C   0  0  0  0  0  3  0  0  0  0  0  0
  -16.9580  -28.7360   23.0550 C   0  0  0  0  0  3  0  0  0  0  0  0
  -17.1780  -27.5310   22.3750 C   0  0  0  0  0  3  0  0  0  0  0  0
  -26.1490  -31.6330   24.2700 C   0  0  0  0  0  3  0  0  0  0  0  0
  -25.8920  -33.0620   24.4940 N   0  0  0  0  0  0  0  0  0  0  0  0
  -26.4340  -34.0450   23.7880 C   0  0  0  0  0  0  0  0  0  0  0  0
  -27.2500  -33.8360   22.8870 O   0  0  0  0  0  0  0  0  0  0  0  0
  -25.1470  -33.2660   25.1270 H   0  0  0  0  0  0  0  0  0  0  0  0
  -24.9430  -35.9730   23.1350 C   0  0  0  0  0  1  0  0  0  0  0  0
  -26.0090  -35.4860   24.1290 C   0  0  0  0  0  3  0  0  0  0  0  0
  -28.0910  -36.2430   25.1960 C   0  0  0  0  0  1  0  0  0  0  0  0
  -27.1430  -36.4270   24.1080 N   0  0  0  0  0  0  0  0  0  0  0  0
  -26.8050  -37.3820   24.1370 H   0  0  0  0  0  0  0  0  0  0  0  0
  -26.3430  -31.0100   25.7830 C   0  0  1  0  0  0  0  0  0  0  0  0
  -25.0010  -30.8650   26.5820 C   0  0  0  0  0  1  0  0  0  0  0  0
  -27.1270  -29.6420   25.8810 C   0  0  0  0  0  1  0  0  0  0  0  0
  -27.3170  -31.9090   26.6040 C   0  0  0  0  0  1  0  0  0  0  0  0
  -24.1010  -22.9590   19.2110 C   0  0  0  0  0  1  0  0  0  0  0  0
  -25.5890  -21.6820   18.6500 C   0  0  0  0  0 15  0  0  0  0  0  0
  -26.2960  -19.7620   18.8480 C   0  0  0  0  0 15  0  0  0  0  0  0
  -27.9560  -18.5290   18.7630 C   0  0  0  0  0  1  0  0  0  0  0  0
  -29.9170  -15.7060   19.2060 C   0  0  0  0  0  0  0  0  0  0  0  0
  -30.6680  -13.1360   18.7910 C   0  0  0  0  0  2  0  0  0  0  0  0
  -29.8110  -12.2980   17.7950 C   0  0  0  0  0  2  0  0  0  0  0  0
  -28.4950  -11.8580   18.4570 C   0  0  0  0  0  2  0  0  0  0  0  0
  -27.9330  -12.9980   19.3260 C   0  0  0  0  0  3  0  0  0  0  0  0
  -28.9450  -13.5540   20.3170 C   0  0  0  0  0  2  0  0  0  0  0  0
  -29.8400  -14.2590   19.4260 N   0  0  0  0  0  0  0  0  0  0  0  0
  -31.1510  -15.8610   18.9780 O   0  0  0  0  0  0  0  0  0  0  0  0
  -28.7600  -16.8600   19.1020 N   0  0  0  0  0  0  0  0  0  0  0  0
  -29.6000  -17.3970   19.0310 H   0  0  0  0  0  0  0  0  0  0  0  0
  -25.8100  -13.6430   20.4830 C   0  0  0  0  0  0  0  0  0  0  0  0
  -24.7620  -12.9020   20.9310 C   0  0  0  0  0  0  0  0  0  0  0  0
  -25.1200  -11.5310   20.7250 C   0  0  0  0  0  0  0  0  0  0  0  0
  -26.7080  -12.7170   19.9990 N   0  0  0  0  0  0  0  0  0  0  0  0
  -26.3390  -11.4380   20.2260 N   0  0  0  0  0  0  0  0  0  0  0  0
  -24.3460  -10.3090   20.9020 C   0  0  0  0  0  0  0  0  0  0  0  0
  -24.6390   -9.3960   21.9360 C   0  0  0  0  0  3  0  0  0  0  0  0
  -23.8650   -8.2270   22.0940 C   0  0  0  0  0  3  0  0  0  0  0  0
  -22.7850   -7.9700   21.2130 C   0  0  0  0  0  0  0  0  0  0  0  0
  -22.5170   -8.8720   20.1670 C   0  0  0  0  0  3  0  0  0  0  0  0
  -23.2940  -10.0310   20.0110 C   0  0  0  0  0  3  0  0  0  0  0  0
  -21.9900   -6.8510   21.2750 O   0  0  0  0  0  0  0  0  0  0  0  0
  -21.5380   -6.3630   22.4720 C   0  0  0  0  0  0  0  0  0  0  0  0
  -20.7050   -7.1230   23.3220 C   0  0  0  0  0  3  0  0  0  0  0  0
  -20.2060   -6.5560   24.5100 C   0  0  0  0  0  3  0  0  0  0  0  0
  -20.5290   -5.2270   24.8450 C   0  0  0  0  0  0  0  0  0  0  0  0
  -21.3530   -4.4660   23.9970 C   0  0  0  0  0  3  0  0  0  0  0  0
  -21.8540   -5.0330   22.8120 C   0  0  0  0  0  0  0  0  0  0  0  0
  -22.6330   -4.2910   21.9880 F   0  0  0  0  0  0  0  0  0  0  0  0
  -20.0420   -4.6750   25.9810 F   0  0  0  0  0  0  0  0  0  0  0  0
  -23.4550  -13.4440   21.4210 C   0  0  0  0  0  0  0  0  0  0  0  0
  -22.7950  -12.7190   22.3190 N   0  0  0  0  0  0  0  0  0  0  0  0
  -23.0340  -14.5400   21.0480 O   0  0  0  0  0  0  0  0  0  0  0  0
  -23.1550  -11.8300   22.6370 H   0  0  0  0  0  0  0  0  0  0  0  0
  -21.9190  -13.0550   22.6960 H   0  0  0  0  0  0  0  0  0  0  0  0
  -26.0580  -15.0090   20.4000 N   0  0  0  0  0  0  0  0  0  0  0  0
  -25.3760  -15.6980   20.6900 H   0  0  0  0  0  0  0  0  0  0  0  0
  -26.8960  -15.4260   20.0050 H   0  0  0  0  0  0  0  0  0  0  0  0
  1  2  1  0
  2  5  2  0
  3  1  2  0
  3  6  1  0
  4  5  1  0
  6 52  1  0
  6  4  2  0
  8  7  2  0
 12 23  2  0
 13 11  1  0
 14 22  1  0
 15 20  1  0
 15 21  1  0
 15 17  1  0
 16 22  1  0
 17 18  1  0
 17 16  1  0
 18 13  1  0
 19 13  1  0
 20 19  1  0
 21 14  1  0
 22 12  1  0
 24 26  1  0
 24 25  1  0
 25 29  1  0
 25 27  1  0
 28 37  2  0
 28 33  1  0
 30 29  2  0
 31 30  1  0
 32 31  2  0
 32 28  1  0
 33 29  1  0
 33 34  2  0
 34 35  1  0
 36 35  2  0
 37 36  1  0
 38 12  1  0
 38 39  1  0
 38 48  1  0
 39 42  1  0
 40 44  1  0
 40 39  1  0
 41 40  2  0
 44 43  1  0
 46 44  1  0
 46 47  1  0
 46 45  1  0
 48 50  1  6
 48 49  1  0
 48 51  1  0
 55 64  1  0
 56 62  1  0
 57 62  1  0
 58 59  1  0
 58 57  1  0
 60 59  1  0
 60 69  1  0
 60 61  1  0
 62 61  1  0
 63 56  2  0
 64 56  1  0
 65 64  1  0
 66 67  2  0
 67 86  1  0
 68 71  1  0
 68 67  1  0
 69 70  1  0
 69 66  1  0
 70 68  2  0
 71 72  1  0
 72 73  2  0
 74 77  1  0
 74 73  1  0
 75 74  2  0
 76 75  1  0
 76 71  2  0
 77 78  1  0
 78 83  2  0
 78 79  1  0
 79 80  2  0
 80 81  1  0
 81 85  1  0
 82 81  2  0
 83 82  1  0
 84 83  1  0
 86 87  1  0
 87 89  1  0
 87 90  1  0
 88 86  2  0
 91 66  1  0
 91 92  1  0
 93 91  1  0
M  ISO  4  10 101  11 101  56 100  64 100
M  END
>  <TORSDO>  (44) 
F 23

>  <SCORE>  (44) 
-11.240

>  <name>  (44) 
48

>  <ligand_id>  (44) 
48

>  <original_smiles>  (44) 
[H]c1c([H])c(C(=O)C([H])([H])C([H])([H])Oc2c([H])c([H])c3c(c2[H])C([H])([H])N(C(=O)C([H])(N([H])C(=O)C([H])(N([H])C([H])([H])[H])C([H])([H])[H])C(C([H])([H])[H])(C([H])([H])[H])C([H])([H])[H])C([H])(C(=O)N([H])C2([H])c4c([H])c([H])c([H])c([H])c4C([H])([H])C([H])([H])C2([H])[H])C3([H])[H])c([H])c(C([H])([H])C([H])([H])C([H])([H])C([H])([H])N([H])C(=O)N2C([H])([H])C([H])([H])C([H])([H])C([H])(n3nc(-c4c([H])c([H])c(Oc5c([H])c([H])c(F)c([H])c5F)c([H])c4[H])c(C(=O)N([H])[H])c3N([H])[H])C2([H])[H])c1[H]

>  <smiles>  (44) 
[H]c1c([H])c(C(=O)C([H])([H])C([H])([H])Oc2c([H])c([H])c3c(c2[H])C([H])([H])N(C(=O)C([H])(N([H])C(=O)C([H])(N([H])C([H])([H])[H])C([H])([H])[H])C(C([H])([H])[H])(C([H])([H])[H])C([H])([H])[H])C([H])(C(=O)N([H])C2([H])c4c([H])c([H])c([H])c([H])c4C([H])([H])C([H])([H])C2([H])[H])C3([H])[H])c([H])c(C([H])([H])C([H])([H])C([H])([H])C([H])([H])N([H])C(=O)N2C([H])([H])C([H])([H])C([H])([H])C([H])(n3nc(-c4c([H])c([H])c(Oc5c([H])c([H])c(F)c([H])c5F)c([H])c4[H])c(C(=O)N([H])[H])c3N([H])[H])C2([H])[H])c1[H]

$$$$
49:0:0
     RDKit          3D

100108  0  0  1  0  0  0  0  0999 V2000
  -33.9650  -23.1450   19.7670 C   0  0  0  0  0  2  0  0  0  0  0  0
  -30.5850  -23.8000   21.4380 C   0  0  0  0  0  3  0  0  0  0  0  0
  -31.1500  -25.7290   20.0560 C   0  0  0  0  0  3  0  0  0  0  0  0
  -31.8360  -23.2240   21.1530 C   0  0  0  0  0  3  0  0  0  0  0  0
  -32.4010  -25.1510   19.7680 C   0  0  0  0  0  3  0  0  0  0  0  0
  -30.2220  -25.0340   20.8560 C   0  0  0  0  0  0  0  0  0  0  0  0
  -32.7260  -23.8720   20.2730 C   0  0  0  0  0  0  0  0  0  0  0  0
  -28.8170  -25.5760   21.0580 C   0  0  0  0  0  2  0  0  0  0  0  0
  -27.9060  -25.3490   19.8360 C   0  0  0  0  0  2  0  0  0  0  0  0
  -27.9400  -26.4600   18.9320 O   0  0  0  0  0  0  0  0  0  0  0  0
  -24.5100  -31.3290   22.7690 C   0  0  0  0  0  0  0  0  0  0  0  0
  -26.8240  -27.2470   19.0420 C   0  0  0  0  0  0  0  0  0  0  0  0
  -23.1670  -30.1890   21.0290 C   0  0  0  0  0  3  0  0  0  0  0  0
  -24.4880  -28.7950   19.3500 C   0  0  0  0  0  0  0  0  0  0  0  0
  -25.6890  -30.4920   20.7440 C   0  0  0  0  0  2  0  0  0  0  0  0
  -25.6910  -29.2110   19.9390 C   0  0  0  0  0  0  0  0  0  0  0  0
  -26.8630  -28.4450   19.7830 C   0  0  0  0  0  3  0  0  0  0  0  0
  -25.6130  -26.8340   18.4480 C   0  0  0  0  0  3  0  0  0  0  0  0
  -24.4440  -27.6040   18.5990 C   0  0  0  0  0  3  0  0  0  0  0  0
  -23.2820  -29.6790   19.5660 C   0  0  0  0  0  2  0  0  0  0  0  0
  -24.4760  -30.6750   21.5740 N   0  0  0  0  0  0  0  0  0  0  0  0
  -23.4700  -31.5720   23.3950 O   0  0  0  0  0  0  0  0  0  0  0  0
  -22.5190  -29.0820   21.8900 C   0  0  0  0  0  0  0  0  0  0  0  0
  -21.1780  -29.0150   21.8680 N   0  0  0  0  0  0  0  0  0  0  0  0
  -23.2160  -28.2940   22.5350 O   0  0  0  0  0  0  0  0  0  0  0  0
  -20.6800  -29.7020   21.3180 H   0  0  0  0  0  0  0  0  0  0  0  0
  -17.7670  -28.0560   22.5750 C   0  0  0  0  0  0  0  0  0  0  0  0
  -20.3530  -28.0320   22.5690 C   0  0  0  0  0  3  0  0  0  0  0  0
  -20.2370  -26.7220   21.7530 C   0  0  0  0  0  2  0  0  0  0  0  0
  -19.0030  -26.6840   20.8450 C   0  0  0  0  0  2  0  0  0  0  0  0
  -17.7220  -26.8370   21.6690 C   0  0  0  0  0  2  0  0  0  0  0  0
  -19.0020  -28.6270   22.9830 C   0  0  0  0  0  0  0  0  0  0  0  0
  -18.9850  -29.7840   23.7930 C   0  0  0  0  0  3  0  0  0  0  0  0
  -17.7680  -30.3620   24.2000 C   0  0  0  0  0  3  0  0  0  0  0  0
  -16.5500  -29.7830   23.8050 C   0  0  0  0  0  3  0  0  0  0  0  0
  -16.5510  -28.6330   22.9970 C   0  0  0  0  0  3  0  0  0  0  0  0
  -25.8510  -31.8260   23.3930 C   0  0  0  0  0  3  0  0  0  0  0  0
  -25.6270  -33.1880   23.8930 N   0  0  0  0  0  0  0  0  0  0  0  0
  -25.9940  -34.3040   23.2510 C   0  0  0  0  0  0  0  0  0  0  0  0
  -26.6290  -34.2890   22.1910 O   0  0  0  0  0  0  0  0  0  0  0  0
  -25.0650  -33.2780   24.7280 H   0  0  0  0  0  0  0  0  0  0  0  0
  -24.3500  -36.2020   23.1670 C   0  0  0  0  0  1  0  0  0  0  0  0
  -25.5950  -35.6510   23.8800 C   0  0  0  0  0  3  0  0  0  0  0  0
  -27.7970  -36.3300   24.7270 C   0  0  0  0  0  1  0  0  0  0  0  0
  -26.6760  -36.6590   23.8490 N   0  0  0  0  0  0  0  0  0  0  0  0
  -26.3230  -37.5750   24.1140 H   0  0  0  0  0  0  0  0  0  0  0  0
  -26.3860  -30.8870   24.5420 C   0  0  1  0  0  0  0  0  0  0  0  0
  -25.3310  -30.5780   25.6310 C   0  0  0  0  0  1  0  0  0  0  0  0
  -26.8790  -29.5420   23.9620 C   0  0  0  0  0  1  0  0  0  0  0  0
  -27.6060  -31.5460   25.2300 C   0  0  0  0  0  1  0  0  0  0  0  0
  -33.3610  -20.6650   19.6480 C   0  0  0  0  0  1  0  0  0  0  0  0
  -33.6280  -21.9480   18.8300 C   0  0  0  0  0  3  0  0  0  0  0  0
  -32.4800  -22.2930   17.8370 C   0  0  0  0  0  2  0  0  0  0  0  0
  -31.8770  -21.1230   17.0570 C   0  0  0  0  0  0  0  0  0  0  0  0
  -30.5560  -20.9610   17.2030 N   0  0  0  0  0  0  0  0  0  0  0  0
  -32.5760  -20.4090   16.3340 O   0  0  0  0  0  0  0  0  0  0  0  0
  -30.0870  -21.6100   17.8230 H   0  0  0  0  0  0  0  0  0  0  0  0
  -29.7010  -19.9920   16.5280 C   0  0  0  0  0  2  0  0  0  0  0  0
  -29.8420  -18.5630   17.0800 C   0  0  0  0  0  2  0  0  0  0  0  0
  -29.9340  -18.4540   18.6130 C   0  0  0  0  0  2  0  0  0  0  0  0
  -29.9600  -16.9840   19.0460 C   0  0  0  0  0  2  0  0  0  0  0  0
  -30.4210  -16.7500   20.5000 C   0  0  0  0  0  2  0  0  0  0  0  0
  -30.9590  -14.3380   20.2750 C   0  0  0  0  0  0  0  0  0  0  0  0
  -30.6460  -12.1310   19.2330 C   0  0  0  0  0  2  0  0  0  0  0  0
  -29.7000  -12.2910   18.0240 C   0  0  0  0  0  2  0  0  0  0  0  0
  -28.2250  -12.1890   18.4610 C   0  0  0  0  0  2  0  0  0  0  0  0
  -27.9020  -13.0970   19.6770 C   0  0  0  0  0  3  0  0  0  0  0  0
  -28.9540  -12.9040   20.7930 C   0  0  0  0  0  2  0  0  0  0  0  0
  -30.2900  -13.1580   20.2190 N   0  0  0  0  0  0  0  0  0  0  0  0
  -32.0420  -14.5410   19.7130 O   0  0  0  0  0  0  0  0  0  0  0  0
  -30.2680  -15.3360   20.8400 N   0  0  0  0  0  0  0  0  0  0  0  0
  -29.4250  -15.0730   21.3320 H   0  0  0  0  0  0  0  0  0  0  0  0
  -25.5330  -13.7840   20.4120 C   0  0  0  0  0  0  0  0  0  0  0  0
  -24.4460  -13.0460   20.7990 C   0  0  0  0  0  0  0  0  0  0  0  0
  -24.8650  -11.6810   20.7630 C   0  0  0  0  0  0  0  0  0  0  0  0
  -26.5460  -12.8690   20.1700 N   0  0  0  0  0  0  0  0  0  0  0  0
  -26.1470  -11.5990   20.4360 N   0  0  0  0  0  0  0  0  0  0  0  0
  -24.1050  -10.4420   20.9670 C   0  0  0  0  0  0  0  0  0  0  0  0
  -24.5210   -9.4670   21.9010 C   0  0  0  0  0  3  0  0  0  0  0  0
  -23.7650   -8.2910   22.0960 C   0  0  0  0  0  3  0  0  0  0  0  0
  -22.5790   -8.0810   21.3530 C   0  0  0  0  0  0  0  0  0  0  0  0
  -22.1810   -9.0420   20.4090 C   0  0  0  0  0  3  0  0  0  0  0  0
  -22.9360  -10.2120   20.2130 C   0  0  0  0  0  3  0  0  0  0  0  0
  -21.7930   -6.9580   21.4530 O   0  0  0  0  0  0  0  0  0  0  0  0
  -21.7320   -6.2240   22.6100 C   0  0  0  0  0  0  0  0  0  0  0  0
  -21.3270   -6.7990   23.8350 C   0  0  0  0  0  3  0  0  0  0  0  0
  -21.2120   -5.9940   24.9850 C   0  0  0  0  0  3  0  0  0  0  0  0
  -21.4900   -4.6160   24.9120 C   0  0  0  0  0  0  0  0  0  0  0  0
  -21.8880   -4.0410   23.6930 C   0  0  0  0  0  3  0  0  0  0  0  0
  -22.0060   -4.8440   22.5440 C   0  0  0  0  0  0  0  0  0  0  0  0
  -22.3690   -4.2820   21.3660 F   0  0  0  0  0  0  0  0  0  0  0  0
  -21.3730   -3.8420   26.0160 F   0  0  0  0  0  0  0  0  0  0  0  0
  -23.0700  -13.5650   21.0970 C   0  0  0  0  0  0  0  0  0  0  0  0
  -22.3410  -12.8950   21.9830 N   0  0  0  0  0  0  0  0  0  0  0  0
  -22.6490  -14.5990   20.5780 O   0  0  0  0  0  0  0  0  0  0  0  0
  -22.6930  -12.0580   22.4230 H   0  0  0  0  0  0  0  0  0  0  0  0
  -21.4150  -13.2240   22.2240 H   0  0  0  0  0  0  0  0  0  0  0  0
  -25.7400  -15.1490   20.2250 N   0  0  0  0  0  0  0  0  0  0  0  0
  -25.0040  -15.8390   20.3390 H   0  0  0  0  0  0  0  0  0  0  0  0
  -26.6040  -15.5510   19.8860 H   0  0  0  0  0  0  0  0  0  0  0  0
  1  7  1  0
  3  6  1  0
  4  2  1  0
  5  3  2  0
  5  7  1  0
  6  8  1  0
  6  2  2  0
  7  4  2  0
  9  8  1  0
 10 12  1  0
 10  9  1  0
 11 22  2  0
 12 17  1  0
 13 21  1  0
 13 23  1  0
 14 20  1  0
 14 16  1  0
 15 21  1  0
 16 15  1  0
 17 16  2  0
 18 19  1  0
 18 12  2  0
 19 14  2  0
 20 13  1  0
 21 11  1  0
 23 25  2  0
 24 23  1  0
 26 24  1  0
 27 32  2  0
 27 36  1  0
 28 24  1  0
 28 32  1  0
 29 28  1  0
 30 31  1  0
 30 29  1  0
 31 27  1  0
 32 33  1  0
 33 34  2  0
 35 34  1  0
 36 35  2  0
 37 11  1  0
 37 38  1  0
 37 47  1  0
 38 41  1  0
 39 43  1  0
 39 38  1  0
 40 39  2  0
 43 42  1  0
 45 43  1  0
 45 46  1  0
 45 44  1  0
 47 50  1  1
 47 48  1  0
 49 47  1  0
 52 51  1  0
 52  1  1  0
 53 52  1  0
 54 55  1  0
 54 53  1  0
 55 57  1  0
 56 54  2  0
 58 59  1  0
 58 55  1  0
 59 60  1  0
 60 61  1  0
 61 62  1  0
 62 71  1  0
 63 71  1  0
 64 69  1  0
 65 66  1  0
 65 64  1  0
 67 66  1  0
 67 76  1  0
 67 68  1  0
 69 63  1  0
 69 68  1  0
 70 63  2  0
 71 72  1  0
 73 74  2  0
 74 93  1  0
 75 74  1  0
 75 78  1  0
 76 73  1  0
 76 77  1  0
 77 75  2  0
 78 79  1  0
 79 80  2  0
 81 84  1  0
 81 80  1  0
 82 81  2  0
 83 82  1  0
 83 78  2  0
 84 85  1  0
 85 86  1  0
 86 87  2  0
 88 87  1  0
 88 92  1  0
 89 88  2  0
 90 85  2  0
 90 89  1  0
 91 90  1  0
 93 94  1  0
 94 97  1  0
 94 96  1  0
 95 93  2  0
 98 99  1  0
 98 73  1  0
100 98  1  0
M  ISO  4   9 101  10 101  63 100  71 100
M  END
>  <TORSDO>  (45) 
F 27

>  <SCORE>  (45) 
-10.045

>  <name>  (45) 
49

>  <ligand_id>  (45) 
49

>  <original_smiles>  (45) 
[H]c1c([H])c([H])c2c(c1[H])C([H])([H])C([H])([H])C([H])([H])C2([H])N([H])C(=O)C1([H])N(C(=O)C([H])(N([H])C(=O)C([H])(N([H])C([H])([H])[H])C([H])([H])[H])C(C([H])([H])[H])(C([H])([H])[H])C([H])([H])[H])C([H])([H])c2c([H])c(OC([H])([H])C([H])([H])c3c([H])c([H])c(C([H])([H])C([H])(C([H])([H])[H])C([H])([H])C(=O)N([H])C([H])([H])C([H])([H])C([H])([H])C([H])([H])C([H])([H])N([H])C(=O)N4C([H])([H])C([H])([H])C([H])([H])C([H])(n5nc(-c6c([H])c([H])c(Oc7c([H])c([H])c(F)c([H])c7F)c([H])c6[H])c(C(=O)N([H])[H])c5N([H])[H])C4([H])[H])c([H])c3[H])c([H])c([H])c2C1([H])[H]

>  <smiles>  (45) 
[H]c1c([H])c([H])c2c(c1[H])C([H])([H])C([H])([H])C([H])([H])C2([H])N([H])C(=O)C1([H])N(C(=O)C([H])(N([H])C(=O)C([H])(N([H])C([H])([H])[H])C([H])([H])[H])C(C([H])([H])[H])(C([H])([H])[H])C([H])([H])[H])C([H])([H])c2c([H])c(OC([H])([H])C([H])([H])c3c([H])c([H])c(C([H])([H])C([H])(C([H])([H])[H])C([H])([H])C(=O)N([H])C([H])([H])C([H])([H])C([H])([H])C([H])([H])C([H])([H])N([H])C(=O)N4C([H])([H])C([H])([H])C([H])([H])C([H])(n5nc(-c6c([H])c([H])c(Oc7c([H])c([H])c(F)c([H])c7F)c([H])c6[H])c(C(=O)N([H])[H])c5N([H])[H])C4([H])[H])c([H])c3[H])c([H])c([H])c2C1([H])[H]

$$$$
50:0:0
     RDKit          3D

 97105  0  0  1  0  0  0  0  0999 V2000
  -33.2380  -25.3030   21.2390 C   0  0  0  0  0  3  0  0  0  0  0  0
  -32.0390  -26.0050   21.4360 C   0  0  0  0  0  3  0  0  0  0  0  0
  -33.2460  -24.1310   20.4660 C   0  0  0  0  0  3  0  0  0  0  0  0
  -30.8390  -24.3150   20.1560 C   0  0  0  0  0  3  0  0  0  0  0  0
  -30.8250  -25.5420   20.8770 C   0  0  0  0  0  0  0  0  0  0  0  0
  -32.0540  -23.6240   19.8940 C   0  0  0  0  0  0  0  0  0  0  0  0
  -32.1780  -22.3560   19.0870 C   0  0  0  0  0  0  0  0  0  0  0  0
  -33.2370  -21.7180   19.1260 O   0  0  0  0  0  0  0  0  0  0  0  0
  -30.1750  -22.9170   17.4880 C   0  0  0  0  0  1  0  0  0  0  0  0
  -31.7250  -21.0840   16.9520 C   0  0  0  0  0  1  0  0  0  0  0  0
  -31.0470  -21.8080   18.1490 C   0  0  1  0  0  0  0  0  0  0  0  0
  -30.1190  -20.7800   18.8790 C   0  0  0  0  0  2  0  0  0  0  0  0
  -30.7790  -19.7010   19.7850 C   0  0  0  0  0  2  0  0  0  0  0  0
  -30.0020  -18.3630   19.8530 C   0  0  0  0  0  2  0  0  0  0  0  0
  -30.5320  -17.3950   20.9390 C   0  0  0  0  0  2  0  0  0  0  0  0
  -30.6780  -15.0110   20.1620 C   0  0  0  0  0  0  0  0  0  0  0  0
  -30.4320  -12.7780   19.1470 C   0  0  0  0  0  2  0  0  0  0  0  0
  -29.4760  -12.8390   17.9390 C   0  0  0  0  0  2  0  0  0  0  0  0
  -28.0180  -12.6540   18.3950 C   0  0  0  0  0  2  0  0  0  0  0  0
  -27.6460  -13.5850   19.5800 C   0  0  0  0  0  3  0  0  0  0  0  0
  -28.7110  -13.5100   20.6970 C   0  0  0  0  0  2  0  0  0  0  0  0
  -30.0240  -13.8170   20.1030 N   0  0  0  0  0  0  0  0  0  0  0  0
  -31.7550  -15.2090   19.5990 O   0  0  0  0  0  0  0  0  0  0  0  0
  -30.0420  -16.0100   20.8070 N   0  0  0  0  0  0  0  0  0  0  0  0
  -29.1710  -15.7780   21.2620 H   0  0  0  0  0  0  0  0  0  0  0  0
  -25.2440  -14.1560   20.2970 C   0  0  0  0  0  0  0  0  0  0  0  0
  -24.2030  -13.3700   20.7150 C   0  0  0  0  0  0  0  0  0  0  0  0
  -24.7020  -12.0310   20.7350 C   0  0  0  0  0  0  0  0  0  0  0  0
  -26.3090  -13.2950   20.0890 N   0  0  0  0  0  0  0  0  0  0  0  0
  -25.9870  -12.0160   20.4100 N   0  0  0  0  0  0  0  0  0  0  0  0
  -24.0160  -10.7580   20.9890 C   0  0  0  0  0  0  0  0  0  0  0  0
  -24.4440   -9.8800   22.0080 C   0  0  0  0  0  3  0  0  0  0  0  0
  -23.7570   -8.6700   22.2450 C   0  0  0  0  0  3  0  0  0  0  0  0
  -22.6300   -8.3290   21.4610 C   0  0  0  0  0  0  0  0  0  0  0  0
  -22.2220   -9.1950   20.4330 C   0  0  0  0  0  3  0  0  0  0  0  0
  -22.9080  -10.3980   20.1950 C   0  0  0  0  0  3  0  0  0  0  0  0
  -21.9160   -7.1640   21.6030 O   0  0  0  0  0  0  0  0  0  0  0  0
  -21.7970   -6.5360   22.8160 C   0  0  0  0  0  0  0  0  0  0  0  0
  -21.2190   -7.1770   23.9340 C   0  0  0  0  0  3  0  0  0  0  0  0
  -21.0550   -6.4730   25.1440 C   0  0  0  0  0  3  0  0  0  0  0  0
  -21.4570   -5.1260   25.2340 C   0  0  0  0  0  0  0  0  0  0  0  0
  -22.0290   -4.4850   24.1220 C   0  0  0  0  0  3  0  0  0  0  0  0
  -22.1960   -5.1880   22.9160 C   0  0  0  0  0  0  0  0  0  0  0  0
  -22.7290   -4.5600   21.8390 F   0  0  0  0  0  0  0  0  0  0  0  0
  -21.2920   -4.4450   26.3920 F   0  0  0  0  0  0  0  0  0  0  0  0
  -22.7980  -13.8210   20.9900 C   0  0  0  0  0  0  0  0  0  0  0  0
  -22.1010  -13.1420   21.8970 N   0  0  0  0  0  0  0  0  0  0  0  0
  -22.3250  -14.8090   20.4310 O   0  0  0  0  0  0  0  0  0  0  0  0
  -22.4940  -12.3410   22.3680 H   0  0  0  0  0  0  0  0  0  0  0  0
  -21.1620  -13.4360   22.1250 H   0  0  0  0  0  0  0  0  0  0  0  0
  -25.3690  -15.5220   20.0610 N   0  0  0  0  0  0  0  0  0  0  0  0
  -24.5870  -16.1610   20.1530 H   0  0  0  0  0  0  0  0  0  0  0  0
  -26.2070  -15.9690   19.7100 H   0  0  0  0  0  0  0  0  0  0  0  0
  -29.5900  -26.3730   21.0950 C   0  0  0  0  0  0  0  0  0  0  0  0
  -29.5680  -27.3220   21.8880 O   0  0  0  0  0  0  0  0  0  0  0  0
  -28.3260  -26.1120   20.2600 C   0  0  0  0  0  2  0  0  0  0  0  0
  -28.1490  -27.1750   19.3180 O   0  0  0  0  0  0  0  0  0  0  0  0
  -24.5480  -31.8990   23.2320 C   0  0  0  0  0  0  0  0  0  0  0  0
  -26.9930  -27.8870   19.4990 C   0  0  0  0  0  0  0  0  0  0  0  0
  -23.2440  -30.7230   21.4870 C   0  0  0  0  0  3  0  0  0  0  0  0
  -24.6090  -29.3620   19.8160 C   0  0  0  0  0  0  0  0  0  0  0  0
  -25.7570  -31.0970   21.2060 C   0  0  0  0  0  2  0  0  0  0  0  0
  -25.7980  -29.8140   20.4040 C   0  0  0  0  0  0  0  0  0  0  0  0
  -26.9920  -29.0820   20.2480 C   0  0  0  0  0  3  0  0  0  0  0  0
  -25.7920  -27.4350   18.9130 C   0  0  0  0  0  3  0  0  0  0  0  0
  -24.5980  -28.1660   19.0740 C   0  0  0  0  0  3  0  0  0  0  0  0
  -23.3770  -30.2120   20.0260 C   0  0  0  0  0  2  0  0  0  0  0  0
  -24.5380  -31.2450   22.0350 N   0  0  0  0  0  0  0  0  0  0  0  0
  -23.5010  -32.1080   23.8570 O   0  0  0  0  0  0  0  0  0  0  0  0
  -22.6270  -29.5960   22.3460 C   0  0  0  0  0  0  0  0  0  0  0  0
  -21.2990  -29.4240   22.2410 N   0  0  0  0  0  0  0  0  0  0  0  0
  -23.3380  -28.8790   23.0560 O   0  0  0  0  0  0  0  0  0  0  0  0
  -20.7860  -30.0560   21.6420 H   0  0  0  0  0  0  0  0  0  0  0  0
  -17.9440  -28.1760   22.7170 C   0  0  0  0  0  0  0  0  0  0  0  0
  -20.5100  -28.4000   22.9240 C   0  0  0  0  0  3  0  0  0  0  0  0
  -20.5860  -27.0490   22.1790 C   0  0  0  0  0  2  0  0  0  0  0  0
  -19.4490  -26.8470   21.1730 C   0  0  0  0  0  2  0  0  0  0  0  0
  -18.0920  -26.9160   21.8780 C   0  0  0  0  0  2  0  0  0  0  0  0
  -19.0800  -28.8800   23.1930 C   0  0  0  0  0  0  0  0  0  0  0  0
  -18.8880  -30.0650   23.9370 C   0  0  0  0  0  3  0  0  0  0  0  0
  -17.5930  -30.5450   24.2060 C   0  0  0  0  0  3  0  0  0  0  0  0
  -16.4710  -29.8350   23.7450 C   0  0  0  0  0  3  0  0  0  0  0  0
  -16.6480  -28.6490   23.0100 C   0  0  0  0  0  3  0  0  0  0  0  0
  -25.8740  -32.4360   23.8560 C   0  0  0  0  0  3  0  0  0  0  0  0
  -25.6280  -33.8150   24.3000 N   0  0  0  0  0  0  0  0  0  0  0  0
  -26.0040  -34.9080   23.6240 C   0  0  0  0  0  0  0  0  0  0  0  0
  -26.6680  -34.8590   22.5840 O   0  0  0  0  0  0  0  0  0  0  0  0
  -25.0420  -33.9310   25.1130 H   0  0  0  0  0  0  0  0  0  0  0  0
  -24.3590  -36.8000   23.4120 C   0  0  0  0  0  1  0  0  0  0  0  0
  -25.5780  -36.2760   24.1880 C   0  0  0  0  0  3  0  0  0  0  0  0
  -27.7450  -37.0000   25.0910 C   0  0  0  0  0  1  0  0  0  0  0  0
  -26.6590  -37.2880   24.1590 N   0  0  0  0  0  0  0  0  0  0  0  0
  -26.2920  -38.2100   24.3770 H   0  0  0  0  0  0  0  0  0  0  0  0
  -26.4040  -31.5500   25.0490 C   0  0  1  0  0  0  0  0  0  0  0  0
  -25.3390  -31.2680   26.1330 C   0  0  0  0  0  1  0  0  0  0  0  0
  -26.9270  -30.1880   24.5310 C   0  0  0  0  0  1  0  0  0  0  0  0
  -27.6000  -32.2550   25.7350 C   0  0  0  0  0  1  0  0  0  0  0  0
  1  2  1  0
  3  1  2  0
  4  5  1  0
  5 54  1  0
  5  2  2  0
  6  4  2  0
  6  3  1  0
  7  8  2  0
  7  6  1  0
 11  9  1  6
 10 11  1  0
 11 12  1  0
 11  7  1  0
 12 13  1  0
 13 14  1  0
 14 15  1  0
 16 24  1  0
 17 22  1  0
 18 19  1  0
 18 17  1  0
 20 19  1  0
 20 29  1  0
 20 21  1  0
 22 16  1  0
 22 21  1  0
 23 16  2  0
 24 15  1  0
 24 25  1  0
 26 27  2  0
 27 28  1  0
 27 46  1  0
 28 31  1  0
 29 26  1  0
 29 30  1  0
 30 28  2  0
 31 32  1  0
 32 33  2  0
 34 37  1  0
 34 33  1  0
 35 34  2  0
 36 35  1  0
 36 31  2  0
 37 38  1  0
 38 43  2  0
 38 39  1  0
 39 40  2  0
 40 41  1  0
 41 45  1  0
 42 41  2  0
 43 42  1  0
 44 43  1  0
 46 47  1  0
 47 50  1  0
 47 49  1  0
 48 46  2  0
 51 52  1  0
 51 26  1  0
 53 51  1  0
 54 55  2  0
 56 54  1  0
 57 59  1  0
 57 56  1  0
 58 69  2  0
 59 64  1  0
 60 68  1  0
 60 70  1  0
 61 67  1  0
 61 63  1  0
 62 68  1  0
 63 62  1  0
 64 63  2  0
 65 66  1  0
 65 59  2  0
 66 61  2  0
 67 60  1  0
 68 58  1  0
 70 72  2  0
 71 70  1  0
 73 71  1  0
 74 83  2  0
 74 79  1  0
 75 71  1  0
 75 79  1  0
 76 75  1  0
 77 78  1  0
 77 76  1  0
 78 74  1  0
 79 80  2  0
 80 81  1  0
 82 81  2  0
 83 82  1  0
 84 58  1  0
 84 85  1  0
 84 94  1  0
 85 88  1  0
 86 90  1  0
 86 85  1  0
 87 86  2  0
 90 89  1  0
 92 90  1  0
 92 93  1  0
 92 91  1  0
 94 97  1  1
 94 95  1  0
 96 94  1  0
M  ISO  4  16 100  24 100  56 101  57 101
M  END
>  <TORSDO>  (46) 
F 24

>  <SCORE>  (46) 
-9.964

>  <name>  (46) 
50

>  <ligand_id>  (46) 
50

>  <original_smiles>  (46) 
[H]c1c([H])c(C(=O)C([H])([H])Oc2c([H])c([H])c3c(c2[H])C([H])([H])N(C(=O)C([H])(N([H])C(=O)C([H])(N([H])C([H])([H])[H])C([H])([H])[H])C(C([H])([H])[H])(C([H])([H])[H])C([H])([H])[H])C([H])(C(=O)N([H])C2([H])c4c([H])c([H])c([H])c([H])c4C([H])([H])C([H])([H])C2([H])[H])C3([H])[H])c([H])c(C(=O)C(C([H])([H])[H])(C([H])([H])[H])C([H])([H])C([H])([H])C([H])([H])C([H])([H])N([H])C(=O)N2C([H])([H])C([H])([H])C([H])([H])C([H])(n3nc(-c4c([H])c([H])c(Oc5c([H])c([H])c(F)c([H])c5F)c([H])c4[H])c(C(=O)N([H])[H])c3N([H])[H])C2([H])[H])c1[H]

>  <smiles>  (46) 
[H]c1c([H])c(C(=O)C([H])([H])Oc2c([H])c([H])c3c(c2[H])C([H])([H])N(C(=O)C([H])(N([H])C(=O)C([H])(N([H])C([H])([H])[H])C([H])([H])[H])C(C([H])([H])[H])(C([H])([H])[H])C([H])([H])[H])C([H])(C(=O)N([H])C2([H])c4c([H])c([H])c([H])c([H])c4C([H])([H])C([H])([H])C2([H])[H])C3([H])[H])c([H])c(C(=O)C(C([H])([H])[H])(C([H])([H])[H])C([H])([H])C([H])([H])C([H])([H])C([H])([H])N([H])C(=O)N2C([H])([H])C([H])([H])C([H])([H])C([H])(n3nc(-c4c([H])c([H])c(Oc5c([H])c([H])c(F)c([H])c5F)c([H])c4[H])c(C(=O)N([H])[H])c3N([H])[H])C2([H])[H])c1[H]

$$$$
51:0:0
     RDKit          3D

 97105  0  0  1  0  0  0  0  0999 V2000
  -30.4860  -20.6910   16.4100 C   0  0  0  0  0  3  0  0  0  0  0  0
  -31.0320  -21.9840   16.2930 C   0  0  0  0  0  3  0  0  0  0  0  0
  -29.9710  -21.1280   18.7360 C   0  0  0  0  0  3  0  0  0  0  0  0
  -29.9500  -20.2460   17.6370 C   0  0  0  0  0  0  0  0  0  0  0  0
  -31.0980  -22.8460   17.4080 C   0  0  0  0  0  0  0  0  0  0  0  0
  -30.5970  -22.3960   18.6610 C   0  0  0  0  0  0  0  0  0  0  0  0
  -31.7110  -24.2270   17.1970 C   0  0  0  0  0  1  0  0  0  0  0  0
  -32.1670  -23.6110   20.3060 C   0  0  0  0  0  1  0  0  0  0  0  0
  -30.7190  -23.1900   19.9650 C   0  0  0  0  0  3  0  0  0  0  0  0
  -29.7500  -24.3010   19.9900 N   0  0  0  0  0  4  0  0  0  0  0  0
  -29.8910  -24.8950   19.1880 H   0  0  0  0  0  0  0  0  0  0  0  0
  -28.8320  -23.8950   19.8880 H   0  0  0  0  0  0  0  0  0  0  0  0
  -29.7670  -25.1310   21.2160 C   0  0  0  0  0  2  0  0  0  0  0  0
  -28.5140  -25.9950   21.3030 C   0  0  0  0  0  2  0  0  0  0  0  0
  -28.4160  -26.7780   20.1180 O   0  0  0  0  0  0  0  0  0  0  0  0
  -24.6060  -31.8850   23.2120 C   0  0  0  0  0  0  0  0  0  0  0  0
  -27.2610  -27.5070   20.1050 C   0  0  0  0  0  0  0  0  0  0  0  0
  -23.3970  -30.4800   21.5720 C   0  0  0  0  0  3  0  0  0  0  0  0
  -24.8530  -28.9590   20.1350 C   0  0  0  0  0  0  0  0  0  0  0  0
  -25.9120  -30.8690   21.3570 C   0  0  0  0  0  2  0  0  0  0  0  0
  -26.0050  -29.5010   20.7180 C   0  0  0  0  0  0  0  0  0  0  0  0
  -27.2150  -28.7810   20.7060 C   0  0  0  0  0  3  0  0  0  0  0  0
  -26.1000  -26.9640   19.5170 C   0  0  0  0  0  3  0  0  0  0  0  0
  -24.8910  -27.6850   19.5360 C   0  0  0  0  0  3  0  0  0  0  0  0
  -23.6020  -29.8050   20.1900 C   0  0  0  0  0  2  0  0  0  0  0  0
  -24.6570  -31.0900   22.1080 N   0  0  0  0  0  0  0  0  0  0  0  0
  -23.5280  -32.1500   23.7610 O   0  0  0  0  0  0  0  0  0  0  0  0
  -22.7580  -29.4520   22.5330 C   0  0  0  0  0  0  0  0  0  0  0  0
  -21.4330  -29.2700   22.4150 N   0  0  0  0  0  0  0  0  0  0  0  0
  -23.4500  -28.8220   23.3360 O   0  0  0  0  0  0  0  0  0  0  0  0
  -20.9370  -29.8260   21.7320 H   0  0  0  0  0  0  0  0  0  0  0  0
  -18.0640  -28.0840   22.9370 C   0  0  0  0  0  0  0  0  0  0  0  0
  -20.6230  -28.3310   23.1880 C   0  0  0  0  0  3  0  0  0  0  0  0
  -20.7180  -26.9040   22.6010 C   0  0  0  0  0  2  0  0  0  0  0  0
  -19.6070  -26.5910   21.5950 C   0  0  0  0  0  2  0  0  0  0  0  0
  -18.2310  -26.7370   22.2530 C   0  0  0  0  0  2  0  0  0  0  0  0
  -19.1870  -28.8380   23.3620 C   0  0  0  0  0  0  0  0  0  0  0  0
  -18.9800  -30.1000   23.9610 C   0  0  0  0  0  3  0  0  0  0  0  0
  -17.6780  -30.6060   24.1390 C   0  0  0  0  0  3  0  0  0  0  0  0
  -16.5670  -29.8470   23.7330 C   0  0  0  0  0  3  0  0  0  0  0  0
  -16.7600  -28.5880   23.1370 C   0  0  0  0  0  3  0  0  0  0  0  0
  -25.8960  -32.5190   23.8260 C   0  0  0  0  0  3  0  0  0  0  0  0
  -25.5870  -33.9120   24.1670 N   0  0  0  0  0  0  0  0  0  0  0  0
  -25.9130  -34.9670   23.4080 C   0  0  0  0  0  0  0  0  0  0  0  0
  -26.5790  -34.8700   22.3740 O   0  0  0  0  0  0  0  0  0  0  0  0
  -24.9970  -34.0620   24.9720 H   0  0  0  0  0  0  0  0  0  0  0  0
  -24.1800  -36.7510   23.0590 C   0  0  0  0  0  1  0  0  0  0  0  0
  -25.4210  -36.3510   23.8700 C   0  0  0  0  0  3  0  0  0  0  0  0
  -27.5550  -37.2320   24.7080 C   0  0  0  0  0  1  0  0  0  0  0  0
  -26.4530  -37.4070   23.7650 N   0  0  0  0  0  0  0  0  0  0  0  0
  -26.0460  -38.3260   23.9200 H   0  0  0  0  0  0  0  0  0  0  0  0
  -26.4310  -31.7370   25.0870 C   0  0  1  0  0  0  0  0  0  0  0  0
  -25.3490  -31.4830   26.1630 C   0  0  0  0  0  1  0  0  0  0  0  0
  -27.0170  -30.3660   24.6730 C   0  0  0  0  0  1  0  0  0  0  0  0
  -27.5900  -32.5280   25.7400 C   0  0  0  0  0  1  0  0  0  0  0  0
  -29.4030  -18.8140   17.7210 C   0  0  0  0  0  2  0  0  0  0  0  0
  -28.6250  -18.3510   18.9890 C   0  0  0  0  0  2  0  0  0  0  0  0
  -29.3900  -18.1710   20.3290 C   0  0  0  0  0  2  0  0  0  0  0  0
  -30.4300  -17.0330   20.4110 C   0  0  0  0  0  2  0  0  0  0  0  0
  -30.6550  -14.5690   20.4110 C   0  0  0  0  0  0  0  0  0  0  0  0
  -30.3650  -12.3770   19.3580 C   0  0  0  0  0  2  0  0  0  0  0  0
  -29.4320  -12.5620   18.1440 C   0  0  0  0  0  2  0  0  0  0  0  0
  -27.9520  -12.4450   18.5690 C   0  0  0  0  0  2  0  0  0  0  0  0
  -27.6070  -13.2820   19.8290 C   0  0  0  0  0  3  0  0  0  0  0  0
  -28.6720  -13.1150   20.9370 C   0  0  0  0  0  2  0  0  0  0  0  0
  -29.9850  -13.3920   20.3430 N   0  0  0  0  0  0  0  0  0  0  0  0
  -31.8520  -14.6780   20.1360 O   0  0  0  0  0  0  0  0  0  0  0  0
  -29.8880  -15.6690   20.5180 N   0  0  0  0  0  0  0  0  0  0  0  0
  -28.8890  -15.5450   20.5960 H   0  0  0  0  0  0  0  0  0  0  0  0
  -25.2040  -13.8580   20.5410 C   0  0  0  0  0  0  0  0  0  0  0  0
  -24.1450  -13.0730   20.9010 C   0  0  0  0  0  0  0  0  0  0  0  0
  -24.6200  -11.7260   20.8790 C   0  0  0  0  0  0  0  0  0  0  0  0
  -26.2610  -12.9890   20.3140 N   0  0  0  0  0  0  0  0  0  0  0  0
  -25.9150  -11.7030   20.5830 N   0  0  0  0  0  0  0  0  0  0  0  0
  -23.9080  -10.4540   21.0640 C   0  0  0  0  0  0  0  0  0  0  0  0
  -24.3490   -9.4890   21.9960 C   0  0  0  0  0  3  0  0  0  0  0  0
  -23.6350   -8.2840   22.1700 C   0  0  0  0  0  3  0  0  0  0  0  0
  -22.4670   -8.0350   21.4110 C   0  0  0  0  0  0  0  0  0  0  0  0
  -22.0450   -8.9880   20.4680 C   0  0  0  0  0  3  0  0  0  0  0  0
  -22.7590  -10.1850   20.2920 C   0  0  0  0  0  3  0  0  0  0  0  0
  -21.7230   -6.8830   21.4960 O   0  0  0  0  0  0  0  0  0  0  0  0
  -21.6860   -6.1330   22.6440 C   0  0  0  0  0  0  0  0  0  0  0  0
  -21.2640   -6.6800   23.8770 C   0  0  0  0  0  3  0  0  0  0  0  0
  -21.1730   -5.8570   25.0170 C   0  0  0  0  0  3  0  0  0  0  0  0
  -21.4940   -4.4890   24.9270 C   0  0  0  0  0  0  0  0  0  0  0  0
  -21.9110   -3.9420   23.7010 C   0  0  0  0  0  3  0  0  0  0  0  0
  -22.0040   -4.7630   22.5610 C   0  0  0  0  0  0  0  0  0  0  0  0
  -22.3850   -4.2270   21.3770 F   0  0  0  0  0  0  0  0  0  0  0  0
  -21.3990   -3.6970   26.0210 F   0  0  0  0  0  0  0  0  0  0  0  0
  -22.7390  -13.5340   21.1560 C   0  0  0  0  0  0  0  0  0  0  0  0
  -22.0100  -12.8340   22.0170 N   0  0  0  0  0  0  0  0  0  0  0  0
  -22.2960  -14.5520   20.6280 O   0  0  0  0  0  0  0  0  0  0  0  0
  -22.3830  -12.0100   22.4670 H   0  0  0  0  0  0  0  0  0  0  0  0
  -21.0680  -13.1280   22.2320 H   0  0  0  0  0  0  0  0  0  0  0  0
  -25.3500  -15.2310   20.3630 N   0  0  0  0  0  0  0  0  0  0  0  0
  -24.5750  -15.8760   20.4740 H   0  0  0  0  0  0  0  0  0  0  0  0
  -26.1960  -15.6830   20.0430 H   0  0  0  0  0  0  0  0  0  0  0  0
  1  4  1  0
  2  1  2  0
  2  5  1  0
  4 56  1  0
  4  3  2  0
  5  6  2  0
  6  3  1  0
  6  9  1  0
  7  5  1  0
  9 10  1  0
  9  8  1  0
 10 13  1  0
 11 10  1  0
 12 10  1  0
 13 14  1  0
 15 14  1  0
 16 27  2  0
 17 15  1  0
 17 22  1  0
 18 26  1  0
 18 28  1  0
 19 25  1  0
 19 21  1  0
 20 26  1  0
 21 20  1  0
 22 21  2  0
 23 24  1  0
 23 17  2  0
 24 19  2  0
 25 18  1  0
 26 16  1  0
 28 30  2  0
 29 28  1  0
 31 29  1  0
 32 41  2  0
 32 37  1  0
 33 29  1  0
 33 37  1  0
 34 33  1  0
 35 36  1  0
 35 34  1  0
 36 32  1  0
 37 38  2  0
 38 39  1  0
 40 39  2  0
 41 40  1  0
 42 16  1  0
 42 43  1  0
 42 52  1  0
 43 46  1  0
 44 48  1  0
 44 43  1  0
 45 44  2  0
 48 47  1  0
 50 48  1  0
 50 51  1  0
 50 49  1  0
 52 55  1  1
 52 53  1  0
 54 52  1  0
 56 57  1  0
 57 58  1  0
 58 59  1  0
 59 68  1  0
 60 68  1  0
 61 66  1  0
 62 63  1  0
 62 61  1  0
 64 63  1  0
 64 73  1  0
 64 65  1  0
 66 60  1  0
 66 65  1  0
 67 60  2  0
 68 69  1  0
 70 71  2  0
 71 90  1  0
 72 71  1  0
 72 75  1  0
 73 70  1  0
 73 74  1  0
 74 72  2  0
 75 76  1  0
 76 77  2  0
 78 81  1  0
 78 77  1  0
 79 78  2  0
 80 79  1  0
 80 75  2  0
 81 82  1  0
 82 83  1  0
 83 84  2  0
 85 84  1  0
 85 89  1  0
 86 85  2  0
 87 82  2  0
 87 86  1  0
 88 87  1  0
 90 91  1  0
 91 94  1  0
 91 93  1  0
 92 90  2  0
 95 96  1  0
 95 70  1  0
 97 95  1  0
M  ISO  4  14 101  15 101  60 100  68 100
M  END
>  <TORSDO>  (47) 
F 24

>  <SCORE>  (47) 
-12.441

>  <name>  (47) 
51

>  <ligand_id>  (47) 
51

>  <original_smiles>  (47) 
[H]c1c([H])c([H])c2c(c1[H])C([H])([H])C([H])([H])C([H])([H])C2([H])N([H])C(=O)C1([H])N(C(=O)C([H])(N([H])C(=O)C([H])(N([H])C([H])([H])[H])C([H])([H])[H])C(C([H])([H])[H])(C([H])([H])[H])C([H])([H])[H])C([H])([H])c2c([H])c(OC([H])([H])C([H])([H])[N+]([H])([H])C([H])(c3c([H])c(C([H])([H])C([H])([H])C([H])([H])C([H])([H])N([H])C(=O)N4C([H])([H])C([H])([H])C([H])([H])C([H])(n5nc(-c6c([H])c([H])c(Oc7c([H])c([H])c(F)c([H])c7F)c([H])c6[H])c(C(=O)N([H])[H])c5N([H])[H])C4([H])[H])c([H])c([H])c3C([H])([H])[H])C([H])([H])[H])c([H])c([H])c2C1([H])[H]

>  <smiles>  (47) 
[H]c1c([H])c([H])c2c(c1[H])C([H])([H])C([H])([H])C([H])([H])C2([H])N([H])C(=O)C1([H])N(C(=O)C([H])(N([H])C(=O)C([H])(N([H])C([H])([H])[H])C([H])([H])[H])C(C([H])([H])[H])(C([H])([H])[H])C([H])([H])[H])C([H])([H])c2c([H])c(OC([H])([H])C([H])([H])[N+]([H])([H])C([H])(c3c([H])c(C([H])([H])C([H])([H])C([H])([H])C([H])([H])N([H])C(=O)N4C([H])([H])C([H])([H])C([H])([H])C([H])(n5nc(-c6c([H])c([H])c(Oc7c([H])c([H])c(F)c([H])c7F)c([H])c6[H])c(C(=O)N([H])[H])c5N([H])[H])C4([H])[H])c([H])c([H])c3C([H])([H])[H])C([H])([H])[H])c([H])c([H])c2C1([H])[H]

$$$$
52:0:0
     RDKit          3D

 97100  0  0  1  0  0  0  0  0999 V2000
  -22.5220  -26.3830   19.2460 C   0  0  0  0  0  3  0  0  0  0  0  0
  -22.1920  -26.8150   17.9540 C   0  0  0  0  0  3  0  0  0  0  0  0
  -21.8930  -26.6520   20.5620 C   0  0  0  0  0  0  0  0  0  0  0  0
  -20.6860  -26.0130   20.7340 N   0  0  0  0  0  0  0  0  0  0  0  0
  -22.3910  -27.3510   21.4450 O   0  0  0  0  0  0  0  0  0  0  0  0
  -20.3680  -25.4800   19.9370 H   0  0  0  0  0  0  0  0  0  0  0  0
  -19.7370  -26.0280   21.9070 C   0  0  0  0  0  2  0  0  0  0  0  0
  -18.1680  -26.1760   21.6010 C   0  0  0  0  0  2  0  0  0  0  0  0
  -17.4910  -25.1520   20.5690 C   0  0  0  0  0  2  0  0  0  0  0  0
  -16.5490  -23.9580   21.0810 C   0  0  0  0  0  3  0  0  0  0  0  0
  -17.2160  -22.8420   22.0240 C   0  0  0  0  0  3  0  0  0  0  0  0
  -16.3780  -21.5920   22.5970 C   0  0  0  0  0  2  0  0  0  0  0  0
  -15.8060  -20.8880   25.1190 C   0  0  0  0  0  0  0  0  0  0  0  0
  -14.0790  -20.4350   26.8780 C   0  0  0  0  0  2  0  0  0  0  0  0
  -12.7510  -20.0910   26.1540 C   0  0  0  0  0  2  0  0  0  0  0  0
  -12.0010  -21.3630   25.6920 C   0  0  0  0  0  2  0  0  0  0  0  0
  -12.9400  -22.3750   24.9890 C   0  0  0  0  0  3  0  0  0  0  0  0
  -14.1830  -22.6280   25.8680 C   0  0  0  0  0  2  0  0  0  0  0  0
  -14.8640  -21.3330   26.0060 N   0  0  0  0  0  0  0  0  0  0  0  0
  -16.3400  -19.7760   25.2500 O   0  0  0  0  0  0  0  0  0  0  0  0
  -15.9490  -21.7320   24.0330 N   0  0  0  0  0  0  0  0  0  0  0  0
  -15.4640  -22.6010   24.2000 H   0  0  0  0  0  0  0  0  0  0  0  0
  -12.3510  -24.3900   23.5110 C   0  0  0  0  0  0  0  0  0  0  0  0
  -11.4850  -25.4320   23.6960 C   0  0  0  0  0  0  0  0  0  0  0  0
  -10.9060  -25.2350   24.9860 C   0  0  0  0  0  0  0  0  0  0  0  0
  -12.2700  -23.6240   24.6630 N   0  0  0  0  0  0  0  0  0  0  0  0
  -11.4320  -24.1710   25.5740 N   0  0  0  0  0  0  0  0  0  0  0  0
   -9.8320  -25.9590   25.6740 C   0  0  0  0  0  0  0  0  0  0  0  0
  -10.1090  -27.0350   26.5450 C   0  0  0  0  0  3  0  0  0  0  0  0
   -9.0560  -27.7270   27.1800 C   0  0  0  0  0  3  0  0  0  0  0  0
   -7.7130  -27.3470   26.9460 C   0  0  0  0  0  0  0  0  0  0  0  0
   -7.4460  -26.2600   26.0950 C   0  0  0  0  0  3  0  0  0  0  0  0
   -8.4940  -25.5680   25.4670 C   0  0  0  0  0  3  0  0  0  0  0  0
   -6.6280  -27.9440   27.5390 O   0  0  0  0  0  0  0  0  0  0  0  0
   -6.2900  -29.2450   27.2700 C   0  0  0  0  0  0  0  0  0  0  0  0
   -5.9420  -29.6710   25.9690 C   0  0  0  0  0  3  0  0  0  0  0  0
   -5.5320  -31.0010   25.7510 C   0  0  0  0  0  3  0  0  0  0  0  0
   -5.4590  -31.9030   26.8300 C   0  0  0  0  0  0  0  0  0  0  0  0
   -5.8010  -31.4780   28.1260 C   0  0  0  0  0  3  0  0  0  0  0  0
   -6.2120  -30.1520   28.3450 C   0  0  0  0  0  0  0  0  0  0  0  0
   -6.5200  -29.7430   29.6000 F   0  0  0  0  0  0  0  0  0  0  0  0
   -5.0580  -33.1790   26.6220 F   0  0  0  0  0  0  0  0  0  0  0  0
  -11.1450  -26.5000   22.6990 C   0  0  0  0  0  0  0  0  0  0  0  0
  -11.3760  -27.7590   23.0540 N   0  0  0  0  0  0  0  0  0  0  0  0
  -10.7140  -26.2200   21.5810 O   0  0  0  0  0  0  0  0  0  0  0  0
  -11.7470  -27.9830   23.9650 H   0  0  0  0  0  0  0  0  0  0  0  0
  -11.1820  -28.5090   22.4040 H   0  0  0  0  0  0  0  0  0  0  0  0
  -13.1830  -24.0210   22.4590 N   0  0  0  0  0  0  0  0  0  0  0  0
  -13.2240  -24.5400   21.5880 H   0  0  0  0  0  0  0  0  0  0  0  0
  -13.7480  -23.1820   22.4470 H   0  0  0  0  0  0  0  0  0  0  0  0
  -23.0320  -26.5480   16.5110 C   0  0  0  0  0  2  0  0  0  0  0  0
  -21.7540  -25.9220   15.9660 N   0  0  0  0  0  4  0  0  0  0  0  0
  -21.9860  -25.1050   15.4270 H   0  0  0  0  0  0  0  0  0  0  0  0
  -21.2690  -26.5640   15.3640 H   0  0  0  0  0  0  0  0  0  0  0  0
  -21.1400  -25.6530   16.7180 H   0  0  0  0  0  0  0  0  0  0  0  0
  -26.0450  -25.3800   16.9660 C   0  0  0  0  0 15  0  0  0  0  0  0
  -27.5230  -26.3970   17.8930 O   0  0  0  0  0  1  0  0  0  0  0  0
  -31.6770  -27.9160   14.9010 C   0  0  0  0  0  0  0  0  0  0  0  0
  -28.3760  -26.7450   19.1210 C   0  0  0  0  0  3  0  0  0  0  0  0
  -30.3910  -25.9740   15.5600 C   0  0  0  0  0  3  0  0  0  0  0  0
  -30.1410  -25.4000   18.0600 C   0  0  0  0  0  3  0  0  0  0  0  0
  -31.6050  -27.3010   17.3340 C   0  0  0  0  0  2  0  0  0  0  0  0
  -30.5360  -26.7310   18.2460 C   0  0  0  0  0  3  0  0  0  0  0  0
  -29.6210  -27.4840   18.9970 C   0  0  0  0  0  2  0  0  0  0  0  0
  -28.5800  -25.6370   19.9030 C   0  0  0  0  0  2  0  0  0  0  0  0
  -29.2650  -24.8010   19.0130 C   0  0  0  0  0  2  0  0  0  0  0  0
  -30.3580  -24.8600   16.6790 C   0  0  0  0  0  2  0  0  0  0  0  0
  -31.2950  -27.0840   15.9060 N   0  0  0  0  0  0  0  0  0  0  0  0
  -31.3450  -27.7070   13.7220 O   0  0  0  0  0  0  0  0  0  0  0  0
  -29.0580  -26.6470   15.1860 C   0  0  0  0  0  0  0  0  0  0  0  0
  -28.5620  -26.3640   14.0190 N   0  0  0  0  0  0  0  0  0  0  0  0
  -28.4510  -27.4240   15.9210 O   0  0  0  0  0  0  0  0  0  0  0  0
  -29.0790  -25.8060   13.3500 H   0  0  0  0  0  0  0  0  0  0  0  0
  -27.4390  -27.3200   11.0010 C   0  0  0  0  0  0  0  0  0  0  0  0
  -27.1900  -26.6720   13.7190 C   0  0  0  0  0  2  0  0  0  0  0  0
  -25.7920  -25.2790   13.8590 C   0  0  0  0  0 15  0  0  0  0  0  0
  -25.7550  -24.5540   11.5030 C   0  0  0  0  0  1  0  0  0  0  0  0
  -26.9020  -25.7370   10.5400 C   0  0  0  0  0  2  0  0  0  0  0  0
  -27.6360  -27.6420   12.4180 C   0  0  0  0  0  0  0  0  0  0  0  0
  -28.2780  -28.8950   12.7350 C   0  0  0  0  0  3  0  0  0  0  0  0
  -28.5850  -29.9110   11.7980 C   0  0  0  0  0  3  0  0  0  0  0  0
  -28.1670  -29.7280   10.4740 C   0  0  0  0  0  3  0  0  0  0  0  0
  -27.6050  -28.4670   10.0950 C   0  0  0  0  0  3  0  0  0  0  0  0
  -32.5690  -29.1390   15.1890 C   0  0  0  0  0  3  0  0  0  0  0  0
  -31.8170  -30.5140   15.0220 C   0  0  1  0  0  0  0  0  0  0  0  0
  -31.8430  -31.0800   13.5810 C   0  0  0  0  0  1  0  0  0  0  0  0
  -30.3360  -30.3920   15.4510 C   0  0  0  0  0  1  0  0  0  0  0  0
  -32.4640  -31.5550   15.9610 C   0  0  0  0  0  1  0  0  0  0  0  0
  -33.6870  -29.0380   14.2470 N   0  0  0  0  0  0  0  0  0  0  0  0
  -34.8610  -28.4670   14.5370 C   0  0  0  0  0  0  0  0  0  0  0  0
  -35.1460  -28.0670   15.6690 O   0  0  0  0  0  0  0  0  0  0  0  0
  -33.4990  -29.2940   13.2890 H   0  0  0  0  0  0  0  0  0  0  0  0
  -36.0140  -26.8590   12.9850 C   0  0  0  0  0  1  0  0  0  0  0  0
  -35.8830  -28.3350   13.3940 C   0  0  0  0  0  3  0  0  0  0  0  0
  -37.2460  -30.3410   13.7730 C   0  0  0  0  0  1  0  0  0  0  0  0
  -37.2130  -28.8810   13.7380 N   0  0  0  0  0  0  0  0  0  0  0  0
  -37.9140  -28.5630   13.0740 H   0  0  0  0  0  0  0  0  0  0  0  0
  1  3  1  0
  2  1  2  0
  3  4  1  0
  3  5  2  0
  4  7  1  0
  6  4  1  0
  8  7  1  0
  9 10  1  0
  9  8  1  0
 10 11  2  0
 11 12  1  0
 12 21  1  0
 13 20  2  0
 13 19  1  0
 15 14  1  0
 16 15  1  0
 17 26  1  0
 17 16  1  0
 17 18  1  0
 18 19  1  0
 19 14  1  0
 21 22  1  0
 21 13  1  0
 23 24  2  0
 23 26  1  0
 24 25  1  0
 25 27  2  0
 25 28  1  0
 26 27  1  0
 28 29  1  0
 29 30  2  0
 31 30  1  0
 31 34  1  0
 32 31  2  0
 33 28  2  0
 33 32  1  0
 35 34  1  0
 35 40  1  0
 36 35  2  0
 37 36  1  0
 37 38  2  0
 38 39  1  0
 39 40  2  0
 40 41  1  0
 42 38  1  0
 43 44  1  0
 43 24  1  0
 44 46  1  0
 45 43  2  0
 47 44  1  0
 48 23  1  0
 49 48  1  0
 50 48  1  0
 51  2  1  0
 52 51  1  0
 52 55  1  0
 53 52  1  0
 54 52  1  0
 58 68  1  0
 59 57  1  0
 59 65  1  0
 60 70  1  0
 60 68  1  0
 60 67  1  0
 61 67  1  0
 61 63  1  0
 61 66  1  0
 63 62  1  0
 63 64  1  0
 64 59  1  0
 66 65  1  0
 68 62  1  0
 69 58  2  0
 70 72  2  0
 71 70  1  0
 73 71  1  0
 74 79  1  0
 75 71  1  0
 78 74  1  0
 78 77  1  0
 79 80  2  0
 79 75  1  0
 81 80  1  0
 82 81  2  0
 83 82  1  0
 83 74  2  0
 84 58  1  0
 85 84  1  0
 85 87  1  1
 85 88  1  0
 86 85  1  0
 89 90  1  0
 89 84  1  0
 90 91  2  0
 92 89  1  0
 94 93  1  0
 94 96  1  0
 94 90  1  0
 96 95  1  0
 97 96  1  0
M  ISO  4  13 100  21 100  56 101  57 101
M  END
>  <TORSDO>  (48) 
F 26

>  <SCORE>  (48) 
-4.787

>  <name>  (48) 
52

>  <ligand_id>  (48) 
52

>  <original_smiles>  (48) 
[H]C(C(=O)N([H])C([H])([H])C([H])([H])C([H])([H])C([H])([H])C([H])([H])C([H])([H])N([H])C(=O)N1C([H])([H])C([H])([H])C([H])([H])C([H])(n2nc(-c3c([H])c([H])c(Oc4c([H])c([H])c(F)c([H])c4F)c([H])c3[H])c(C(=O)N([H])[H])c2N([H])[H])C1([H])[H])=C([H])C([H])(C([H])([H])Oc1c([H])c([H])c2c(c1[H])C([H])([H])N(C(=O)C([H])(N([H])C(=O)C([H])(N([H])C([H])([H])[H])C([H])([H])[H])C(C([H])([H])[H])(C([H])([H])[H])C([H])([H])[H])C([H])(C(=O)N([H])C1([H])c3c([H])c([H])c([H])c([H])c3C([H])([H])C([H])([H])C1([H])[H])C2([H])[H])[N+]([H])([H])[H]

>  <smiles>  (48) 
[H]C(C(=O)N([H])C([H])([H])C([H])([H])C([H])([H])C([H])([H])C([H])([H])C([H])([H])N([H])C(=O)N1C([H])([H])C([H])([H])C([H])([H])C([H])(n2nc(-c3c([H])c([H])c(Oc4c([H])c([H])c(F)c([H])c4F)c([H])c3[H])c(C(=O)N([H])[H])c2N([H])[H])C1([H])[H])=C([H])C([H])(C([H])([H])Oc1c([H])c([H])c2c(c1[H])C([H])([H])N(C(=O)C([H])(N([H])C(=O)C([H])(N([H])C([H])([H])[H])C([H])([H])[H])C(C([H])([H])[H])(C([H])([H])[H])C([H])([H])[H])C([H])(C(=O)N([H])C1([H])c3c([H])c([H])c([H])c([H])c3C([H])([H])C([H])([H])C1([H])[H])C2([H])[H])[N+]([H])([H])[H]

$$$$
53:0:0
     RDKit          3D

 97105  0  0  1  0  0  0  0  0999 V2000
  -34.1970  -25.2250   20.5810 C   0  0  0  0  0  2  0  0  0  0  0  0
  -33.4160  -23.3840   19.0220 C   0  0  0  0  0  3  0  0  0  0  0  0
  -33.2850  -22.9880   21.4210 C   0  0  0  0  0  3  0  0  0  0  0  0
  -32.8000  -22.1420   18.7840 C   0  0  0  0  0  3  0  0  0  0  0  0
  -32.6640  -21.7440   21.1820 C   0  0  0  0  0  3  0  0  0  0  0  0
  -33.6410  -23.8250   20.3420 C   0  0  0  0  0  0  0  0  0  0  0  0
  -32.4040  -21.3200   19.8580 C   0  0  0  0  0  0  0  0  0  0  0  0
  -31.6660  -20.0250   19.5430 C   0  0  0  0  0  2  0  0  0  0  0  0
  -31.7900  -18.9080   20.5930 C   0  0  0  0  0  2  0  0  0  0  0  0
  -31.0650  -17.6290   20.1490 C   0  0  0  0  0  2  0  0  0  0  0  0
  -31.2920  -16.4620   21.1260 C   0  0  0  0  0  2  0  0  0  0  0  0
  -30.9570  -14.4510   19.7040 C   0  0  0  0  0  0  0  0  0  0  0  0
  -30.5270  -12.3500   18.4910 C   0  0  0  0  0  2  0  0  0  0  0  0
  -29.4640  -12.5450   17.3960 C   0  0  0  0  0  2  0  0  0  0  0  0
  -28.0510  -12.3520   17.9760 C   0  0  0  0  0  2  0  0  0  0  0  0
  -27.8210  -13.1770   19.2680 C   0  0  0  0  0  3  0  0  0  0  0  0
  -28.9840  -12.9780   20.2640 C   0  0  0  0  0  2  0  0  0  0  0  0
  -30.2480  -13.3020   19.5760 N   0  0  0  0  0  0  0  0  0  0  0  0
  -31.9050  -14.7480   18.9710 O   0  0  0  0  0  0  0  0  0  0  0  0
  -30.5890  -15.2490   20.7120 N   0  0  0  0  0  0  0  0  0  0  0  0
  -29.7980  -14.9530   21.2650 H   0  0  0  0  0  0  0  0  0  0  0  0
  -25.4970  -13.7110   20.2430 C   0  0  0  0  0  0  0  0  0  0  0  0
  -24.4910  -12.9030   20.7030 C   0  0  0  0  0  0  0  0  0  0  0  0
  -24.9760  -11.5650   20.5870 C   0  0  0  0  0  0  0  0  0  0  0  0
  -26.5300  -12.8610   19.8780 N   0  0  0  0  0  0  0  0  0  0  0  0
  -26.2260  -11.5640   20.1400 N   0  0  0  0  0  0  0  0  0  0  0  0
  -24.3030  -10.2800   20.8200 C   0  0  0  0  0  0  0  0  0  0  0  0
  -24.7670   -9.3700   21.7960 C   0  0  0  0  0  3  0  0  0  0  0  0
  -24.0930   -8.1500   22.0130 C   0  0  0  0  0  3  0  0  0  0  0  0
  -22.9420   -7.8290   21.2550 C   0  0  0  0  0  0  0  0  0  0  0  0
  -22.4980   -8.7280   20.2700 C   0  0  0  0  0  3  0  0  0  0  0  0
  -23.1720   -9.9410   20.0500 C   0  0  0  0  0  3  0  0  0  0  0  0
  -22.2370   -6.6560   21.3790 O   0  0  0  0  0  0  0  0  0  0  0  0
  -22.1070   -6.0200   22.5890 C   0  0  0  0  0  0  0  0  0  0  0  0
  -21.4940   -6.6450   23.6960 C   0  0  0  0  0  3  0  0  0  0  0  0
  -21.3170   -5.9310   24.8980 C   0  0  0  0  0  3  0  0  0  0  0  0
  -21.7430   -4.5920   24.9920 C   0  0  0  0  0  0  0  0  0  0  0  0
  -22.3480   -3.9670   23.8870 C   0  0  0  0  0  3  0  0  0  0  0  0
  -22.5260   -4.6790   22.6890 C   0  0  0  0  0  0  0  0  0  0  0  0
  -23.0910   -4.0640   21.6210 F   0  0  0  0  0  0  0  0  0  0  0  0
  -21.5660   -3.9040   26.1440 F   0  0  0  0  0  0  0  0  0  0  0  0
  -23.1210  -13.3370   21.1370 C   0  0  0  0  0  0  0  0  0  0  0  0
  -22.5120  -12.6070   22.0640 N   0  0  0  0  0  0  0  0  0  0  0  0
  -22.6030  -14.3610   20.6900 O   0  0  0  0  0  0  0  0  0  0  0  0
  -22.9440  -11.7800   22.4460 H   0  0  0  0  0  0  0  0  0  0  0  0
  -21.5960  -12.8780   22.3950 H   0  0  0  0  0  0  0  0  0  0  0  0
  -25.6130  -15.0880   20.0850 N   0  0  0  0  0  0  0  0  0  0  0  0
  -24.8510  -15.7250   20.2900 H   0  0  0  0  0  0  0  0  0  0  0  0
  -26.4210  -15.5520   19.6900 H   0  0  0  0  0  0  0  0  0  0  0  0
  -33.2060  -26.2230   21.2370 C   0  0  0  0  0  2  0  0  0  0  0  0
  -31.8620  -26.4290   20.5190 C   0  0  0  0  0  0  0  0  0  0  0  0
  -31.7980  -26.1190   19.2190 N   0  0  0  0  0  0  0  0  0  0  0  0
  -30.8860  -26.8430   21.1490 O   0  0  0  0  0  0  0  0  0  0  0  0
  -32.6470  -25.7600   18.8020 H   0  0  0  0  0  0  0  0  0  0  0  0
  -30.5920  -25.9590   18.4210 C   0  0  0  0  0  2  0  0  0  0  0  0
  -29.7290  -27.2240   18.3540 C   0  0  0  0  0  2  0  0  0  0  0  0
  -28.5870  -26.8700   17.5820 O   0  0  0  0  0  0  0  0  0  0  0  0
  -24.3230  -30.1580   22.2930 C   0  0  0  0  0  0  0  0  0  0  0  0
  -27.3490  -27.3410   17.9440 C   0  0  0  0  0  0  0  0  0  0  0  0
  -23.2020  -28.9520   20.4430 C   0  0  0  0  0  3  0  0  0  0  0  0
  -24.7190  -28.1810   18.5450 C   0  0  0  0  0  0  0  0  0  0  0  0
  -25.5450  -29.9210   20.1420 C   0  0  0  0  0  2  0  0  0  0  0  0
  -25.8140  -28.8040   19.1580 C   0  0  0  0  0  0  0  0  0  0  0  0
  -27.1280  -28.3880   18.8680 C   0  0  0  0  0  3  0  0  0  0  0  0
  -26.2390  -26.7290   17.3280 C   0  0  0  0  0  3  0  0  0  0  0  0
  -24.9260  -27.1350   17.6270 C   0  0  0  0  0  3  0  0  0  0  0  0
  -23.3470  -28.6930   18.9190 C   0  0  0  0  0  2  0  0  0  0  0  0
  -24.3780  -29.6810   21.0180 N   0  0  0  0  0  0  0  0  0  0  0  0
  -23.2980  -30.0380   22.9770 O   0  0  0  0  0  0  0  0  0  0  0  0
  -22.9090  -27.6100   21.1510 C   0  0  0  0  0  0  0  0  0  0  0  0
  -21.6320  -27.1950   21.1340 N   0  0  0  0  0  0  0  0  0  0  0  0
  -23.8170  -26.9590   21.6740 O   0  0  0  0  0  0  0  0  0  0  0  0
  -20.9480  -27.7880   20.6850 H   0  0  0  0  0  0  0  0  0  0  0  0
  -18.6270  -25.2860   21.7510 C   0  0  0  0  0  0  0  0  0  0  0  0
  -21.1250  -25.9490   21.7050 C   0  0  0  0  0  3  0  0  0  0  0  0
  -21.3160  -24.7710   20.7220 C   0  0  0  0  0  2  0  0  0  0  0  0
  -20.0940  -24.5270   19.8310 C   0  0  0  0  0  2  0  0  0  0  0  0
  -18.8570  -24.2280   20.6860 C   0  0  0  0  0  2  0  0  0  0  0  0
  -19.6880  -26.1070   22.2150 C   0  0  0  0  0  0  0  0  0  0  0  0
  -19.4150  -27.1020   23.1800 C   0  0  0  0  0  3  0  0  0  0  0  0
  -18.1120  -27.2820   23.6790 C   0  0  0  0  0  3  0  0  0  0  0  0
  -17.0680  -26.4540   23.2300 C   0  0  0  0  0  3  0  0  0  0  0  0
  -17.3270  -25.4580   22.2710 C   0  0  0  0  0  3  0  0  0  0  0  0
  -25.5370  -30.8960   22.9440 C   0  0  0  0  0  3  0  0  0  0  0  0
  -26.3210  -30.0050   23.9840 C   0  0  1  0  0  0  0  0  0  0  0  0
  -25.4110  -29.3520   25.0520 C   0  0  0  0  0  1  0  0  0  0  0  0
  -27.0880  -28.8750   23.2610 C   0  0  0  0  0  1  0  0  0  0  0  0
  -27.3820  -30.8650   24.7130 C   0  0  0  0  0  1  0  0  0  0  0  0
  -25.0230  -32.1140   23.5810 N   0  0  0  0  0  0  0  0  0  0  0  0
  -25.1340  -33.3460   23.0670 C   0  0  0  0  0  0  0  0  0  0  0  0
  -25.7530  -33.5840   22.0250 O   0  0  0  0  0  0  0  0  0  0  0  0
  -24.4560  -31.9920   24.4070 H   0  0  0  0  0  0  0  0  0  0  0  0
  -23.1210  -34.8480   23.1430 C   0  0  0  0  0  1  0  0  0  0  0  0
  -24.4520  -34.4960   23.8280 C   0  0  0  0  0  3  0  0  0  0  0  0
  -26.4440  -35.5290   24.8210 C   0  0  0  0  0  1  0  0  0  0  0  0
  -25.2910  -35.7100   23.9440 N   0  0  0  0  0  0  0  0  0  0  0  0
  -24.7460  -36.4920   24.2970 H   0  0  0  0  0  0  0  0  0  0  0  0
  1 50  1  0
  2  6  1  0
  4  2  2  0
  4  7  1  0
  5  3  1  0
  6  1  1  0
  6  3  2  0
  7  5  2  0
  8  7  1  0
  8  9  1  0
 10  9  1  0
 10 11  1  0
 12 20  1  0
 13 18  1  0
 14 15  1  0
 14 13  1  0
 16 15  1  0
 16 25  1  0
 16 17  1  0
 18 12  1  0
 18 17  1  0
 19 12  2  0
 20 11  1  0
 20 21  1  0
 22 23  2  0
 23 42  1  0
 24 23  1  0
 24 27  1  0
 25 26  1  0
 25 22  1  0
 26 24  2  0
 27 28  1  0
 28 29  2  0
 30 33  1  0
 30 29  1  0
 31 30  2  0
 32 31  1  0
 32 27  2  0
 33 34  1  0
 34 39  2  0
 34 35  1  0
 35 36  2  0
 36 37  1  0
 37 41  1  0
 38 37  2  0
 39 38  1  0
 40 39  1  0
 42 43  1  0
 43 46  1  0
 43 45  1  0
 44 42  2  0
 47 22  1  0
 47 48  1  0
 49 47  1  0
 51 53  2  0
 51 50  1  0
 52 51  1  0
 54 52  1  0
 55 52  1  0
 56 55  1  0
 57 59  1  0
 57 56  1  0
 58 69  2  0
 59 64  1  0
 60 68  1  0
 60 70  1  0
 61 67  1  0
 61 63  1  0
 62 68  1  0
 63 62  1  0
 64 63  2  0
 65 66  1  0
 65 59  2  0
 66 61  2  0
 67 60  1  0
 68 58  1  0
 70 72  2  0
 71 70  1  0
 73 71  1  0
 74 79  2  0
 74 83  1  0
 75 71  1  0
 75 79  1  0
 76 75  1  0
 77 78  1  0
 77 76  1  0
 78 74  1  0
 79 80  1  0
 80 81  2  0
 82 81  1  0
 83 82  2  0
 84 58  1  0
 84 89  1  0
 84 85  1  0
 85 88  1  1
 85 86  1  0
 87 85  1  0
 89 92  1  0
 90 89  1  0
 90 94  1  0
 91 90  2  0
 94 93  1  0
 94 96  1  0
 96 97  1  0
 96 95  1  0
M  ISO  4  12 100  20 100  56 101  57 101
M  END
>  <TORSDO>  (49) 
F 25

>  <SCORE>  (49) 
-4.217

>  <name>  (49) 
53

>  <ligand_id>  (49) 
53

>  <original_smiles>  (49) 
[H]c1c([H])c([H])c2c(c1[H])C([H])([H])C([H])([H])C([H])([H])C2([H])N([H])C(=O)C1([H])N(C(=O)C([H])(N([H])C(=O)C([H])(N([H])C([H])([H])[H])C([H])([H])[H])C(C([H])([H])[H])(C([H])([H])[H])C([H])([H])[H])C([H])([H])c2c([H])c(OC([H])([H])C([H])([H])N([H])C(=O)C([H])([H])C([H])([H])c3c([H])c([H])c(C([H])([H])C([H])([H])C([H])([H])C([H])([H])N([H])C(=O)N4C([H])([H])C([H])([H])C([H])([H])C([H])(n5nc(-c6c([H])c([H])c(Oc7c([H])c([H])c(F)c([H])c7F)c([H])c6[H])c(C(=O)N([H])[H])c5N([H])[H])C4([H])[H])c([H])c3[H])c([H])c([H])c2C1([H])[H]

>  <smiles>  (49) 
[H]c1c([H])c([H])c2c(c1[H])C([H])([H])C([H])([H])C([H])([H])C2([H])N([H])C(=O)C1([H])N(C(=O)C([H])(N([H])C(=O)C([H])(N([H])C([H])([H])[H])C([H])([H])[H])C(C([H])([H])[H])(C([H])([H])[H])C([H])([H])[H])C([H])([H])c2c([H])c(OC([H])([H])C([H])([H])N([H])C(=O)C([H])([H])C([H])([H])c3c([H])c([H])c(C([H])([H])C([H])([H])C([H])([H])C([H])([H])N([H])C(=O)N4C([H])([H])C([H])([H])C([H])([H])C([H])(n5nc(-c6c([H])c([H])c(Oc7c([H])c([H])c(F)c([H])c7F)c([H])c6[H])c(C(=O)N([H])[H])c5N([H])[H])C4([H])[H])c([H])c3[H])c([H])c([H])c2C1([H])[H]

$$$$
54:0:0
     RDKit          3D

102100  0  0  1  0  0  0  0  0999 V2000
  -21.5590  -25.8440   18.3080 C   0  0  0  0  0  2  0  0  0  0  0  0
  -20.7980  -23.3120   17.8410 C   0  0  0  0  0  3  0  0  0  0  0  0
  -19.0110  -24.5260   19.7430 C   0  0  0  0  0  1  0  0  0  0  0  0
  -22.0880  -24.2360   17.8350 C   0  0  0  0  0  2  0  0  0  0  0  0
  -20.2730  -26.3280   19.4710 C   0  0  0  0  0  1  0  0  0  0  0  0
  -19.4510  -23.3260   18.7210 C   0  0  0  0  0  0  0  0  0  0  0  0
  -18.6410  -22.2320   18.6460 O   0  0  0  0  0  0  0  0  0  0  0  0
  -17.8440  -22.3280   19.1610 H   0  0  0  0  0  0  0  0  0  0  0  0
  -23.9390  -23.3660   17.8630 C   0  0  0  0  0  1  0  0  0  0  0  0
  -24.5670  -24.1120   16.7690 N   0  0  0  0  0  4  0  0  0  0  0  0
  -24.3050  -23.7070   15.8880 H   0  0  0  0  0  0  0  0  0  0  0  0
  -25.5660  -24.0920   16.8550 H   0  0  0  0  0  0  0  0  0  0  0  0
  -24.2560  -25.0650   16.7850 H   0  0  0  0  0  0  0  0  0  0  0  0
  -25.1800  -21.6170   17.9500 C   0  0  0  0  0 15  0  0  0  0  0  0
  -27.0420  -20.6010   18.3590 C   0  0  0  0  0 15  0  0  0  0  0  0
  -28.4400  -18.9820   18.1770 C   0  0  0  0  0 15  0  0  0  0  0  0
  -30.8100  -16.5160   19.1030 C   0  0  0  0  0  0  0  0  0  0  0  0
  -31.7550  -13.9200   19.0100 C   0  0  0  0  0  2  0  0  0  0  0  0
  -31.0110  -13.0510   17.9480 C   0  0  0  0  0  2  0  0  0  0  0  0
  -29.5820  -12.7200   18.4200 C   0  0  0  0  0  2  0  0  0  0  0  0
  -28.9870  -13.9230   19.1790 C   0  0  0  0  0  3  0  0  0  0  0  0
  -29.8800  -14.4320   20.2940 C   0  0  0  0  0  2  0  0  0  0  0  0
  -30.8630  -15.0980   19.4980 N   0  0  0  0  0  0  0  0  0  0  0  0
  -32.0430  -16.6960   18.8330 O   0  0  0  0  0  0  0  0  0  0  0  0
  -29.4840  -17.5220   18.9320 N   0  0  0  0  0  2  0  0  0  0  0  0
  -28.7400  -16.9000   19.2490 H   0  0  0  0  0  0  0  0  0  0  0  0
  -26.7900  -14.7620   19.9970 C   0  0  0  0  0  0  0  0  0  0  0  0
  -25.6690  -14.1130   20.4010 C   0  0  0  0  0  0  0  0  0  0  0  0
  -25.9980  -12.7200   20.3960 C   0  0  0  0  0  0  0  0  0  0  0  0
  -27.6870  -13.7570   19.7080 N   0  0  0  0  0  0  0  0  0  0  0  0
  -27.2550  -12.5290   20.0400 N   0  0  0  0  0  0  0  0  0  0  0  0
  -25.1690  -11.5500   20.6340 C   0  0  0  0  0  0  0  0  0  0  0  0
  -25.4420  -10.6550   21.6890 C   0  0  0  0  0  3  0  0  0  0  0  0
  -24.6110   -9.5360   21.9000 C   0  0  0  0  0  3  0  0  0  0  0  0
  -23.4970   -9.3150   21.0550 C   0  0  0  0  0  0  0  0  0  0  0  0
  -23.2510  -10.1970   19.9890 C   0  0  0  0  0  3  0  0  0  0  0  0
  -24.0830  -11.3050   19.7750 C   0  0  0  0  0  3  0  0  0  0  0  0
  -22.6480   -8.2450   21.1690 O   0  0  0  0  0  0  0  0  0  0  0  0
  -22.2250   -7.7980   22.3930 C   0  0  0  0  0  0  0  0  0  0  0  0
  -21.5030   -8.6250   23.2820 C   0  0  0  0  0  3  0  0  0  0  0  0
  -21.0270   -8.1000   24.4990 C   0  0  0  0  0  3  0  0  0  0  0  0
  -21.2620   -6.7500   24.8240 C   0  0  0  0  0  0  0  0  0  0  0  0
  -21.9760   -5.9260   23.9370 C   0  0  0  0  0  3  0  0  0  0  0  0
  -22.4550   -6.4490   22.7240 C   0  0  0  0  0  0  0  0  0  0  0  0
  -23.1240   -5.6460   21.8630 F   0  0  0  0  0  0  0  0  0  0  0  0
  -20.7980   -6.2430   25.9900 F   0  0  0  0  0  0  0  0  0  0  0  0
  -24.3460  -14.7480   20.6800 C   0  0  0  0  0  0  0  0  0  0  0  0
  -23.5840  -14.1900   21.6110 N   0  0  0  0  0  0  0  0  0  0  0  0
  -24.0090  -15.7800   20.1030 O   0  0  0  0  0  0  0  0  0  0  0  0
  -23.8770  -13.3540   22.0940 H   0  0  0  0  0  0  0  0  0  0  0  0
  -22.6930  -14.6040   21.8410 H   0  0  0  0  0  0  0  0  0  0  0  0
  -27.1240  -16.1040   19.8360 N   0  0  0  0  0  0  0  0  0  0  0  0
  -26.2700  -16.5910   19.5810 H   0  0  0  0  0  0  0  0  0  0  0  0
  -27.3040  -16.4590   20.7710 H   0  0  0  0  0  0  0  0  0  0  0  0
  -20.0640  -28.0870   20.4520 C   0  0  0  0  0  1  0  0  0  0  0  0
  -18.7950  -28.8320   20.2390 N   0  0  0  0  0  4  0  0  0  0  0  0
  -18.1830  -28.7120   21.0290 H   0  0  0  0  0  0  0  0  0  0  0  0
  -18.3260  -28.4310   19.4440 H   0  0  0  0  0  0  0  0  0  0  0  0
  -18.9380  -29.8100   20.0600 H   0  0  0  0  0  0  0  0  0  0  0  0
  -21.0540  -28.5240   22.3650 C   0  0  0  0  0  2  0  0  0  0  0  0
  -23.2990  -28.2370   22.7510 C   0  0  0  0  0 15  0  0  0  0  0  0
  -24.9150  -27.5900   21.8510 O   0  0  0  0  0  1  0  0  0  0  0  0
  -24.3890  -31.3730   22.3110 C   0  0  0  0  0  0  0  0  0  0  0  0
  -25.6010  -27.1750   20.5720 C   0  0  0  0  0  3  0  0  0  0  0  0
  -23.0910  -29.7020   20.3370 C   0  0  0  0  0  3  0  0  0  0  0  0
  -24.5390  -28.6970   18.8630 C   0  0  0  0  0  3  0  0  0  0  0  0
  -25.5690  -30.4100   20.4160 C   0  0  0  0  0  2  0  0  0  0  0  0
  -25.6230  -29.1050   19.6840 C   0  0  0  0  0  3  0  0  0  0  0  0
  -26.4850  -28.1410   20.1790 C   0  0  0  0  0  2  0  0  0  0  0  0
  -25.0440  -26.4790   19.4300 C   0  0  0  0  0  2  0  0  0  0  0  0
  -24.3940  -27.3380   18.5240 C   0  0  0  0  0  2  0  0  0  0  0  0
  -23.3700  -29.5820   18.8750 C   0  0  0  0  0  2  0  0  0  0  0  0
  -24.2890  -30.5670   21.1090 N   0  0  0  0  0  0  0  0  0  0  0  0
  -23.4320  -31.9020   22.8900 O   0  0  0  0  0  0  0  0  0  0  0  0
  -22.3480  -28.0770   20.7850 C   0  0  0  0  0  0  0  0  0  0  0  0
  -21.8150  -27.5810   22.0720 N   0  0  1  0  0  4  0  0  0  0  0  0
  -22.7290  -27.0160   20.5390 O   0  0  0  0  0  0  0  0  0  0  0  0
  -21.8930  -26.5810   21.9660 H   0  0  0  0  0  0  0  0  0  0  0  0
  -17.6290  -27.4750   23.0180 C   0  0  0  0  0  3  0  0  0  0  0  0
  -20.8380  -27.8740   23.4420 C   0  0  1  0  0  0  0  0  0  0  0  0
  -21.5360  -26.4030   23.5360 C   0  0  0  0  0  2  0  0  0  0  0  0
  -20.9540  -25.1990   22.5280 C   0  0  0  0  0  1  0  0  0  0  0  0
  -17.7570  -25.6840   22.0650 C   0  0  0  0  0 15  0  0  0  0  0  0
  -18.9560  -28.2910   23.5880 C   0  0  0  0  0  0  0  0  0  0  0  0
  -18.7320  -29.6110   24.1010 C   0  0  0  0  0  3  0  0  0  0  0  0
  -17.4580  -30.1360   24.3690 C   0  0  0  0  0  3  0  0  0  0  0  0
  -16.3320  -29.3230   24.1870 C   0  0  0  0  0  3  0  0  0  0  0  0
  -16.4160  -28.0490   23.5380 C   0  0  0  0  0  3  0  0  0  0  0  0
  -25.7040  -31.6410   23.1870 C   0  0  0  0  0  3  0  0  0  0  0  0
  -26.0480  -30.6210   24.3820 C   0  0  1  0  0  0  0  0  0  0  0  0
  -24.8480  -30.2900   25.3280 C   0  0  0  0  0  1  0  0  0  0  0  0
  -26.7510  -29.3350   23.8590 C   0  0  0  0  0  1  0  0  0  0  0  0
  -27.1180  -31.2470   25.3110 C   0  0  0  0  0  1  0  0  0  0  0  0
  -25.5290  -32.9670   23.8140 N   0  0  0  0  0  0  0  0  0  0  0  0
  -25.9930  -34.1070   23.3000 C   0  0  0  0  0  0  0  0  0  0  0  0
  -26.6760  -34.1300   22.2750 O   0  0  0  0  0  0  0  0  0  0  0  0
  -24.9000  -33.0160   24.6020 H   0  0  0  0  0  0  0  0  0  0  0  0
  -24.4630  -36.1030   23.3070 C   0  0  0  0  0  1  0  0  0  0  0  0
  -25.6410  -35.4200   24.0230 C   0  0  0  0  0  3  0  0  0  0  0  0
  -27.8290  -35.9010   25.0250 C   0  0  0  0  0  1  0  0  0  0  0  0
  -26.7820  -36.3600   24.1150 N   0  0  0  0  0  0  0  0  0  0  0  0
  -26.4700  -37.2770   24.4280 H   0  0  0  0  0  0  0  0  0  0  0  0
  1  5  1  0
  2  6  2  0
  4  2  1  0
  4  1  1  0
  6  3  1  0
  7  6  1  0
  7  8  1  0
 10 13  1  0
 10 12  1  0
 10  9  1  0
 11 10  1  0
 17 23  1  0
 18 23  1  0
 19 20  1  0
 19 18  1  0
 21 20  1  0
 21 30  1  0
 21 22  1  0
 23 22  1  0
 24 17  2  0
 25 17  1  0
 25 26  1  0
 27 28  2  0
 28 47  1  0
 29 28  1  0
 29 32  1  0
 30 27  1  0
 30 31  1  0
 31 29  2  0
 32 33  1  0
 33 34  2  0
 35 38  1  0
 35 34  1  0
 36 35  2  0
 37 36  1  0
 37 32  2  0
 38 39  1  0
 39 44  2  0
 39 40  1  0
 40 41  2  0
 41 42  1  0
 42 46  1  0
 43 42  2  0
 44 43  1  0
 45 44  1  0
 47 48  1  0
 48 51  1  0
 48 50  1  0
 49 47  2  0
 52 27  1  0
 52 54  1  0
 53 52  1  0
 56 55  1  0
 56 57  1  0
 58 56  1  0
 59 56  1  0
 60 80  1  0
 63 74  2  0
 64 62  1  0
 65 75  1  0
 65 73  1  0
 66 71  1  0
 66 72  1  0
 66 68  1  0
 67 73  1  0
 68 69  1  0
 68 67  1  0
 69 64  1  0
 70 64  1  0
 71 70  1  0
 72 65  1  0
 73 63  1  0
 75 76  1  0
 76 60  1  0
 76 80  1  0
 77 75  2  0
 76 78  1  6
 79 88  2  0
 79 84  1  0
 80 81  1  6
 80 84  1  0
 82 81  1  0
 84 85  2  0
 85 86  1  0
 87 86  2  0
 88 87  1  0
 89 63  1  0
 89 94  1  0
 89 90  1  0
 90 93  1  1
 90 91  1  0
 92 90  1  0
 94 97  1  0
 95 94  1  0
 95 99  1  0
 96 95  2  0
 99 98  1  0
 99101  1  0
101102  1  0
101100  1  0
M  ISO  4  17 100  25 100  61 101  62 101
M  END
>  <TORSDO>  (50) 
F 26

>  <SCORE>  (50) 
-9.238

>  <name>  (50) 
54

>  <ligand_id>  (50) 
54

>  <original_smiles>  (50) 
[H]Oc1c([H])c(C([H])(C([H])([H])C([H])([H])Oc2c([H])c([H])c3c(c2[H])C([H])([H])N(C(=O)C([H])(N([H])C(=O)C([H])(N([H])C([H])([H])[H])C([H])([H])[H])C(C([H])([H])[H])(C([H])([H])[H])C([H])([H])[H])C([H])(C(=O)N([H])C2([H])c4c([H])c([H])c([H])c([H])c4C([H])([H])C([H])([H])C2([H])[H])C3([H])[H])[N+]([H])([H])[H])c([H])c(C([H])(C([H])([H])C([H])([H])C([H])([H])N([H])C(=O)N2C([H])([H])C([H])([H])C([H])([H])C([H])(n3nc(-c4c([H])c([H])c(Oc5c([H])c([H])c(F)c([H])c5F)c([H])c4[H])c(C(=O)N([H])[H])c3N([H])[H])C2([H])[H])[N+]([H])([H])[H])c1[H]

>  <smiles>  (50) 
[H]Oc1c([H])c(C([H])(C([H])([H])C([H])([H])Oc2c([H])c([H])c3c(c2[H])C([H])([H])N(C(=O)C([H])(N([H])C(=O)C([H])(N([H])C([H])([H])[H])C([H])([H])[H])C(C([H])([H])[H])(C([H])([H])[H])C([H])([H])[H])C([H])(C(=O)N([H])C2([H])c4c([H])c([H])c([H])c([H])c4C([H])([H])C([H])([H])C2([H])[H])C3([H])[H])[N+]([H])([H])[H])c([H])c(C([H])(C([H])([H])C([H])([H])C([H])([H])N([H])C(=O)N2C([H])([H])C([H])([H])C([H])([H])C([H])(n3nc(-c4c([H])c([H])c(Oc5c([H])c([H])c(F)c([H])c5F)c([H])c4[H])c(C(=O)N([H])[H])c3N([H])[H])C2([H])[H])[N+]([H])([H])[H])c1[H]

$$$$
55:0:0
     RDKit          3D

106114  0  0  1  0  0  0  0  0999 V2000
  -24.7700  -26.2790   25.0720 C   0  0  0  0  0  0  0  0  0  0  0  0
  -24.3570  -27.1440   25.8530 O   0  0  0  0  0  0  0  0  0  0  0  0
  -26.7400  -25.3180   26.2840 C   0  0  0  0  0  3  0  0  0  0  0  0
  -28.0790  -24.8790   26.3190 C   0  0  0  0  0  3  0  0  0  0  0  0
  -26.9980  -25.8790   23.9330 C   0  0  0  0  0  3  0  0  0  0  0  0
  -26.1880  -25.8220   25.0870 C   0  0  0  0  0  0  0  0  0  0  0  0
  -28.8860  -24.9270   25.1620 C   0  0  0  0  0  0  0  0  0  0  0  0
  -28.3290  -25.4150   23.9510 C   0  0  0  0  0  0  0  0  0  0  0  0
  -30.4830  -22.9520   25.0220 C   0  0  0  0  0  1  0  0  0  0  0  0
  -30.3290  -24.4580   25.2720 C   0  0  0  0  0  2  0  0  0  0  0  0
  -29.0850  -25.4570   22.6310 C   0  0  0  0  0  2  0  0  0  0  0  0
  -29.4660  -26.8930   22.2260 C   0  0  0  0  0  2  0  0  0  0  0  0
  -29.5890  -27.0920   20.7030 C   0  0  0  0  0  2  0  0  0  0  0  0
  -28.3990  -26.7050   20.0120 O   0  0  0  0  0  0  0  0  0  0  0  0
  -24.6100  -31.8690   23.2150 C   0  0  0  0  0  0  0  0  0  0  0  0
  -27.2630  -27.4820   20.0950 C   0  0  0  0  0  0  0  0  0  0  0  0
  -23.3960  -30.4920   21.5530 C   0  0  0  0  0  3  0  0  0  0  0  0
  -24.8460  -28.9540   20.1240 C   0  0  0  0  0  0  0  0  0  0  0  0
  -25.9150  -30.8520   21.3540 C   0  0  0  0  0  2  0  0  0  0  0  0
  -25.9990  -29.4850   20.7120 C   0  0  0  0  0  0  0  0  0  0  0  0
  -27.2080  -28.7610   20.6970 C   0  0  0  0  0  3  0  0  0  0  0  0
  -26.0880  -26.9540   19.5170 C   0  0  0  0  0  3  0  0  0  0  0  0
  -24.8810  -27.6810   19.5310 C   0  0  0  0  0  3  0  0  0  0  0  0
  -23.6020  -29.8120   20.1720 C   0  0  0  0  0  2  0  0  0  0  0  0
  -24.6600  -31.0820   22.1030 N   0  0  0  0  0  0  0  0  0  0  0  0
  -23.5320  -32.1440   23.7600 O   0  0  0  0  0  0  0  0  0  0  0  0
  -22.7400  -29.4690   22.5040 C   0  0  0  0  0  0  0  0  0  0  0  0
  -21.4130  -29.3060   22.3780 N   0  0  0  0  0  0  0  0  0  0  0  0
  -23.4230  -28.8200   23.3000 O   0  0  0  0  0  0  0  0  0  0  0  0
  -20.9330  -29.8720   21.6930 H   0  0  0  0  0  0  0  0  0  0  0  0
  -18.0280  -28.1400   22.8480 C   0  0  0  0  0  0  0  0  0  0  0  0
  -20.5860  -28.3680   23.1360 C   0  0  0  0  0  3  0  0  0  0  0  0
  -20.6770  -26.9490   22.5350 C   0  0  0  0  0  2  0  0  0  0  0  0
  -19.5740  -26.6450   21.5170 C   0  0  0  0  0  2  0  0  0  0  0  0
  -18.1930  -26.7960   22.1600 C   0  0  0  0  0  2  0  0  0  0  0  0
  -19.1520  -28.8850   23.2920 C   0  0  0  0  0  0  0  0  0  0  0  0
  -18.9460  -30.1450   23.8940 C   0  0  0  0  0  3  0  0  0  0  0  0
  -17.6470  -30.6600   24.0580 C   0  0  0  0  0  3  0  0  0  0  0  0
  -16.5360  -29.9090   23.6340 C   0  0  0  0  0  3  0  0  0  0  0  0
  -16.7270  -28.6520   23.0340 C   0  0  0  0  0  3  0  0  0  0  0  0
  -25.9010  -32.4820   23.8450 C   0  0  0  0  0  3  0  0  0  0  0  0
  -25.5880  -33.8620   24.2390 N   0  0  0  0  0  0  0  0  0  0  0  0
  -25.9050  -34.9470   23.5190 C   0  0  0  0  0  0  0  0  0  0  0  0
  -26.5570  -34.8930   22.4730 O   0  0  0  0  0  0  0  0  0  0  0  0
  -25.0000  -33.9780   25.0510 H   0  0  0  0  0  0  0  0  0  0  0  0
  -24.1510  -36.7290   23.2660 C   0  0  0  0  0  1  0  0  0  0  0  0
  -25.4130  -36.3120   24.0380 C   0  0  0  0  0  3  0  0  0  0  0  0
  -27.5620  -37.1810   24.8470 C   0  0  0  0  0  1  0  0  0  0  0  0
  -26.4320  -37.3790   23.9430 N   0  0  0  0  0  0  0  0  0  0  0  0
  -26.0240  -38.2880   24.1460 H   0  0  0  0  0  0  0  0  0  0  0  0
  -26.4450  -31.6540   25.0730 C   0  0  1  0  0  0  0  0  0  0  0  0
  -25.3770  -31.3530   26.1480 C   0  0  0  0  0  1  0  0  0  0  0  0
  -27.0250  -30.3010   24.6000 C   0  0  0  0  0  1  0  0  0  0  0  0
  -27.6030  -32.4220   25.7520 C   0  0  0  0  0  1  0  0  0  0  0  0
  -23.7670  -25.4930   24.1700 C   0  0  0  0  0  0  0  0  0  0  0  0
  -24.1610  -25.3540   22.8950 N   0  0  0  0  0  0  0  0  0  0  0  0
  -22.7140  -25.0220   24.6140 O   0  0  0  0  0  0  0  0  0  0  0  0
  -25.0160  -25.8200   22.6300 H   0  0  0  0  0  0  0  0  0  0  0  0
  -23.5290  -24.5110   21.8890 C   0  0  0  0  0  2  0  0  0  0  0  0
  -23.9530  -23.0350   22.0150 C   0  0  0  0  0  2  0  0  0  0  0  0
  -25.4770  -22.8110   22.0410 C   0  0  0  0  0  2  0  0  0  0  0  0
  -25.8430  -21.3200   22.1020 C   0  0  0  0  0  2  0  0  0  0  0  0
  -27.3590  -21.0640   22.1420 C   0  0  0  0  0  2  0  0  0  0  0  0
  -27.6830  -19.5640   22.2410 C   0  0  0  0  0  2  0  0  0  0  0  0
  -29.1820  -19.2450   22.1560 C   0  0  0  0  0  2  0  0  0  0  0  0
  -29.4480  -17.7450   22.3580 C   0  0  0  0  0  2  0  0  0  0  0  0
  -30.9300  -17.3730   22.2060 C   0  0  0  0  0  2  0  0  0  0  0  0
  -31.2530  -15.9260   22.6240 C   0  0  0  0  0  2  0  0  0  0  0  0
  -30.7940  -14.3280   20.7500 C   0  0  0  0  0  0  0  0  0  0  0  0
  -30.4190  -12.3060   19.3810 C   0  0  0  0  0  2  0  0  0  0  0  0
  -29.4800  -12.5450   18.1870 C   0  0  0  0  0  2  0  0  0  0  0  0
  -28.0090  -12.3830   18.6080 C   0  0  0  0  0  2  0  0  0  0  0  0
  -27.6670  -13.2020   19.8790 C   0  0  0  0  0  3  0  0  0  0  0  0
  -28.7030  -12.9420   20.9940 C   0  0  0  0  0  2  0  0  0  0  0  0
  -30.0500  -13.2290   20.4630 N   0  0  0  0  0  0  0  0  0  0  0  0
  -31.7710  -14.6840   20.0830 O   0  0  0  0  0  0  0  0  0  0  0  0
  -30.4710  -14.9220   21.9060 N   0  0  0  0  0  0  0  0  0  0  0  0
  -29.6720  -14.5370   22.3880 H   0  0  0  0  0  0  0  0  0  0  0  0
  -25.2610  -13.8160   20.5670 C   0  0  0  0  0  0  0  0  0  0  0  0
  -24.1850  -13.0440   20.9160 C   0  0  0  0  0  0  0  0  0  0  0  0
  -24.6400  -11.6910   20.8720 C   0  0  0  0  0  0  0  0  0  0  0  0
  -26.3050  -12.9320   20.3370 N   0  0  0  0  0  0  0  0  0  0  0  0
  -25.9330  -11.6480   20.5740 N   0  0  0  0  0  0  0  0  0  0  0  0
  -23.9060  -10.4300   21.0390 C   0  0  0  0  0  0  0  0  0  0  0  0
  -24.3610   -9.4210   21.9170 C   0  0  0  0  0  3  0  0  0  0  0  0
  -23.6290   -8.2250   22.0750 C   0  0  0  0  0  3  0  0  0  0  0  0
  -22.4270   -8.0280   21.3550 C   0  0  0  0  0  0  0  0  0  0  0  0
  -21.9900   -9.0250   20.4640 C   0  0  0  0  0  3  0  0  0  0  0  0
  -22.7230  -10.2140   20.3050 C   0  0  0  0  0  3  0  0  0  0  0  0
  -21.6640   -6.8880   21.4240 O   0  0  0  0  0  0  0  0  0  0  0  0
  -21.6860   -6.0730   22.5280 C   0  0  0  0  0  0  0  0  0  0  0  0
  -21.4010   -6.5640   23.8210 C   0  0  0  0  0  3  0  0  0  0  0  0
  -21.3660   -5.6790   24.9180 C   0  0  0  0  0  3  0  0  0  0  0  0
  -21.6040   -4.3060   24.7220 C   0  0  0  0  0  0  0  0  0  0  0  0
  -21.8820   -3.8150   23.4350 C   0  0  0  0  0  3  0  0  0  0  0  0
  -21.9190   -4.6960   22.3400 C   0  0  0  0  0  0  0  0  0  0  0  0
  -22.1660   -4.2150   21.0980 F   0  0  0  0  0  0  0  0  0  0  0  0
  -21.5630   -3.4540   25.7740 F   0  0  0  0  0  0  0  0  0  0  0  0
  -22.7880  -13.5250   21.1830 C   0  0  0  0  0  0  0  0  0  0  0  0
  -22.0520  -12.8240   22.0390 N   0  0  0  0  0  0  0  0  0  0  0  0
  -22.3570  -14.5550   20.6690 O   0  0  0  0  0  0  0  0  0  0  0  0
  -22.4140  -11.9910   22.4770 H   0  0  0  0  0  0  0  0  0  0  0  0
  -21.1140  -13.1270   22.2600 H   0  0  0  0  0  0  0  0  0  0  0  0
  -25.4360  -15.1870   20.4100 N   0  0  0  0  0  0  0  0  0  0  0  0
  -24.6760  -15.8480   20.5250 H   0  0  0  0  0  0  0  0  0  0  0  0
  -26.3020  -15.6250   20.1190 H   0  0  0  0  0  0  0  0  0  0  0  0
  1  6  1  0
  1  2  2  0
  3  4  1  0
  5  8  2  0
  5  6  1  0
  6  3  2  0
  7 10  1  0
  7  4  2  0
  8  7  1  0
  9 10  1  0
 11  8  1  0
 12 11  1  0
 13 12  1  0
 14 16  1  0
 14 13  1  0
 15 26  2  0
 16 21  1  0
 17 25  1  0
 17 27  1  0
 18 24  1  0
 18 20  1  0
 19 25  1  0
 20 19  1  0
 21 20  2  0
 22 23  1  0
 22 16  2  0
 23 18  2  0
 24 17  1  0
 25 15  1  0
 27 29  2  0
 28 27  1  0
 30 28  1  0
 31 40  2  0
 31 36  1  0
 32 28  1  0
 32 36  1  0
 33 32  1  0
 34 35  1  0
 34 33  1  0
 35 31  1  0
 36 37  2  0
 37 38  1  0
 39 38  2  0
 40 39  1  0
 41 15  1  0
 41 42  1  0
 41 51  1  0
 42 45  1  0
 43 47  1  0
 43 42  1  0
 44 43  2  0
 47 46  1  0
 49 47  1  0
 49 50  1  0
 49 48  1  0
 51 54  1  1
 51 52  1  0
 53 51  1  0
 55 57  2  0
 55  1  1  0
 56 55  1  0
 58 56  1  0
 59 60  1  0
 59 56  1  0
 60 61  1  0
 61 62  1  0
 62 63  1  0
 63 64  1  0
 65 64  1  0
 65 66  1  0
 67 66  1  0
 67 68  1  0
 69 77  1  0
 70 75  1  0
 71 72  1  0
 71 70  1  0
 73 72  1  0
 73 82  1  0
 73 74  1  0
 75 69  1  0
 75 74  1  0
 76 69  2  0
 77 78  1  0
 77 68  1  0
 79 80  2  0
 80 99  1  0
 81 80  1  0
 81 84  1  0
 82 79  1  0
 82 83  1  0
 83 81  2  0
 84 85  1  0
 85 86  2  0
 87 90  1  0
 87 86  1  0
 88 87  2  0
 89 88  1  0
 89 84  2  0
 90 91  1  0
 91 92  1  0
 92 93  2  0
 94 93  1  0
 94 98  1  0
 95 94  2  0
 96 91  2  0
 96 95  1  0
 97 96  1  0
 99100  1  0
100103  1  0
100102  1  0
101 99  2  0
104105  1  0
104 79  1  0
106104  1  0
M  ISO  4  13 101  14 101  69 100  77 100
M  END
>  <TORSDO>  (51) 
F 32

>  <SCORE>  (51) 
10.071

>  <name>  (51) 
55

>  <ligand_id>  (51) 
55

>  <original_smiles>  (51) 
[H]c1c([H])c([H])c2c(c1[H])C([H])([H])C([H])([H])C([H])([H])C2([H])N([H])C(=O)C1([H])N(C(=O)C([H])(N([H])C(=O)C([H])(N([H])C([H])([H])[H])C([H])([H])[H])C(C([H])([H])[H])(C([H])([H])[H])C([H])([H])[H])C([H])([H])c2c([H])c(OC([H])([H])C([H])([H])C([H])([H])c3c([H])c(C(=O)C(=O)N([H])C([H])([H])C([H])([H])C([H])([H])C([H])([H])C([H])([H])C([H])([H])C([H])([H])C([H])([H])C([H])([H])C([H])([H])N([H])C(=O)N4C([H])([H])C([H])([H])C([H])([H])C([H])(n5nc(-c6c([H])c([H])c(Oc7c([H])c([H])c(F)c([H])c7F)c([H])c6[H])c(C(=O)N([H])[H])c5N([H])[H])C4([H])[H])c([H])c([H])c3C([H])([H])C([H])([H])[H])c([H])c([H])c2C1([H])[H]

>  <smiles>  (51) 
[H]c1c([H])c([H])c2c(c1[H])C([H])([H])C([H])([H])C([H])([H])C2([H])N([H])C(=O)C1([H])N(C(=O)C([H])(N([H])C(=O)C([H])(N([H])C([H])([H])[H])C([H])([H])[H])C(C([H])([H])[H])(C([H])([H])[H])C([H])([H])[H])C([H])([H])c2c([H])c(OC([H])([H])C([H])([H])C([H])([H])c3c([H])c(C(=O)C(=O)N([H])C([H])([H])C([H])([H])C([H])([H])C([H])([H])C([H])([H])C([H])([H])C([H])([H])C([H])([H])C([H])([H])C([H])([H])N([H])C(=O)N4C([H])([H])C([H])([H])C([H])([H])C([H])(n5nc(-c6c([H])c([H])c(Oc7c([H])c([H])c(F)c([H])c7F)c([H])c6[H])c(C(=O)N([H])[H])c5N([H])[H])C4([H])[H])c([H])c([H])c3C([H])([H])C([H])([H])[H])c([H])c([H])c2C1([H])[H]

$$$$
56:0:0
     RDKit          3D

102110  0  0  1  0  0  0  0  0999 V2000
  -27.4730  -24.5040   22.7090 C   0  0  0  0  0  3  0  0  0  0  0  0
  -26.8350  -25.7510   22.6780 C   0  0  0  0  0  3  0  0  0  0  0  0
  -28.5570  -25.0130   20.5860 C   0  0  0  0  0  3  0  0  0  0  0  0
  -28.3790  -24.1410   21.6850 C   0  0  0  0  0  0  0  0  0  0  0  0
  -27.8870  -26.2590   20.5250 C   0  0  0  0  0  0  0  0  0  0  0  0
  -27.0620  -26.6350   21.6140 C   0  0  0  0  0  0  0  0  0  0  0  0
  -26.4520  -27.8780   21.6810 N   0  0  0  0  0  0  0  0  0  0  0  0
  -25.6850  -27.9470   22.3390 H   0  0  0  0  0  0  0  0  0  0  0  0
  -26.1670  -28.2500   20.7830 H   0  0  0  0  0  0  0  0  0  0  0  0
  -29.2020  -22.8590   21.7690 C   0  0  0  0  0  2  0  0  0  0  0  0
  -30.4460  -22.9570   22.6830 C   0  0  0  0  0  2  0  0  0  0  0  0
  -31.3760  -21.7380   22.6540 C   0  0  0  0  0  2  0  0  0  0  0  0
  -31.9310  -21.4590   21.2450 C   0  0  0  0  0  2  0  0  0  0  0  0
  -33.2270  -20.7640   21.3030 N   0  0  0  0  0  4  0  0  0  0  0  0
  -33.2030  -20.1370   22.0900 H   0  0  0  0  0  0  0  0  0  0  0  0
  -33.9650  -21.4320   21.4610 H   0  0  0  0  0  0  0  0  0  0  0  0
  -33.5440  -19.9600   20.1060 C   0  0  0  0  0  2  0  0  0  0  0  0
  -34.7380  -19.0460   20.3970 C   0  0  0  0  0  2  0  0  0  0  0  0
  -35.3870  -18.4460   19.1390 C   0  0  0  0  0  2  0  0  0  0  0  0
  -36.0430  -17.0960   19.4600 C   0  0  0  0  0  2  0  0  0  0  0  0
  -35.3490  -15.9350   18.7250 C   0  0  0  0  0  2  0  0  0  0  0  0
  -35.4000  -14.6200   19.5070 C   0  0  0  0  0  2  0  0  0  0  0  0
  -33.7550  -12.8290   19.0420 C   0  0  0  0  0  0  0  0  0  0  0  0
  -33.2700  -10.7500   20.2130 C   0  0  0  0  0  2  0  0  0  0  0  0
  -32.3580   -9.7550   19.4900 C   0  0  0  0  0  2  0  0  0  0  0  0
  -30.8900  -10.0570   19.8150 C   0  0  0  0  0  2  0  0  0  0  0  0
  -30.5220  -11.5420   19.5590 C   0  0  0  0  0  3  0  0  0  0  0  0
  -31.5500  -12.5100   20.2020 C   0  0  0  0  0  2  0  0  0  0  0  0
  -32.9140  -12.1140   19.8160 N   0  0  0  0  0  0  0  0  0  0  0  0
  -34.4860  -12.3400   18.1750 O   0  0  0  0  0  0  0  0  0  0  0  0
  -34.0770  -13.9950   19.6190 N   0  0  0  0  0  0  0  0  0  0  0  0
  -33.5020  -14.2660   20.4040 H   0  0  0  0  0  0  0  0  0  0  0  0
  -28.4830  -13.0280   20.0890 C   0  0  0  0  0  0  0  0  0  0  0  0
  -27.2030  -12.7240   20.4680 C   0  0  0  0  0  0  0  0  0  0  0  0
  -27.1490  -11.3000   20.5760 C   0  0  0  0  0  0  0  0  0  0  0  0
  -29.1510  -11.8170   19.9950 N   0  0  0  0  0  0  0  0  0  0  0  0
  -28.3470  -10.7770   20.3410 N   0  0  0  0  0  0  0  0  0  0  0  0
  -26.0160  -10.4030   20.8380 C   0  0  0  0  0  0  0  0  0  0  0  0
  -26.0040   -9.5320   21.9510 C   0  0  0  0  0  3  0  0  0  0  0  0
  -24.8950   -8.6930   22.1910 C   0  0  0  0  0  3  0  0  0  0  0  0
  -23.7800   -8.7210   21.3200 C   0  0  0  0  0  0  0  0  0  0  0  0
  -23.8060   -9.5750   20.2020 C   0  0  0  0  0  3  0  0  0  0  0  0
  -24.9130  -10.4050   19.9600 C   0  0  0  0  0  3  0  0  0  0  0  0
  -22.6700   -7.9240   21.4610 O   0  0  0  0  0  0  0  0  0  0  0  0
  -22.2790   -7.4460   22.6860 C   0  0  0  0  0  0  0  0  0  0  0  0
  -21.8990   -8.3100   23.7370 C   0  0  0  0  0  3  0  0  0  0  0  0
  -21.4380   -7.7760   24.9570 C   0  0  0  0  0  3  0  0  0  0  0  0
  -21.3440   -6.3810   25.1230 C   0  0  0  0  0  0  0  0  0  0  0  0
  -21.7160   -5.5200   24.0770 C   0  0  0  0  0  3  0  0  0  0  0  0
  -22.1780   -6.0510   22.8600 C   0  0  0  0  0  0  0  0  0  0  0  0
  -22.5150   -5.2170   21.8470 F   0  0  0  0  0  0  0  0  0  0  0  0
  -20.8930   -5.8660   26.2930 F   0  0  0  0  0  0  0  0  0  0  0  0
  -26.0630  -13.6900   20.6300 C   0  0  0  0  0  0  0  0  0  0  0  0
  -25.1220  -13.3860   21.5160 N   0  0  0  0  0  0  0  0  0  0  0  0
  -26.0280  -14.7490   20.0030 O   0  0  0  0  0  0  0  0  0  0  0  0
  -25.1610  -12.5270   22.0440 H   0  0  0  0  0  0  0  0  0  0  0  0
  -24.3510  -14.0210   21.6680 H   0  0  0  0  0  0  0  0  0  0  0  0
  -29.1300  -14.2260   19.7990 N   0  0  0  0  0  0  0  0  0  0  0  0
  -28.6510  -15.1190   19.8100 H   0  0  0  0  0  0  0  0  0  0  0  0
  -30.0930  -14.2950   19.4940 H   0  0  0  0  0  0  0  0  0  0  0  0
  -28.1090  -27.1870   19.3230 C   0  0  0  0  0  2  0  0  0  0  0  0
  -26.9980  -27.2810   18.4200 O   0  0  0  0  0  0  0  0  0  0  0  0
  -24.2550  -31.7940   23.2250 C   0  0  0  0  0  0  0  0  0  0  0  0
  -25.9300  -28.0360   18.8440 C   0  0  0  0  0  0  0  0  0  0  0  0
  -22.6410  -30.7020   21.6980 C   0  0  0  0  0  3  0  0  0  0  0  0
  -23.6580  -29.4700   19.7060 C   0  0  0  0  0  0  0  0  0  0  0  0
  -25.0550  -31.1270   20.9610 C   0  0  0  0  0  2  0  0  0  0  0  0
  -24.9380  -29.9040   20.0750 C   0  0  0  0  0  0  0  0  0  0  0  0
  -26.0820  -29.2080   19.6210 C   0  0  0  0  0  3  0  0  0  0  0  0
  -24.6400  -27.6170   18.4720 C   0  0  0  0  0  3  0  0  0  0  0  0
  -23.5030  -28.3290   18.9000 C   0  0  0  0  0  3  0  0  0  0  0  0
  -22.4880  -30.2870   20.2110 C   0  0  0  0  0  2  0  0  0  0  0  0
  -24.0160  -31.2090   22.0160 N   0  0  0  0  0  0  0  0  0  0  0  0
  -23.3430  -31.9530   24.0500 O   0  0  0  0  0  0  0  0  0  0  0  0
  -22.2040  -29.5170   22.5900 C   0  0  0  0  0  0  0  0  0  0  0  0
  -20.9410  -29.0880   22.4370 N   0  0  0  0  0  0  0  0  0  0  0  0
  -22.9950  -28.9920   23.3770 O   0  0  0  0  0  0  0  0  0  0  0  0
  -20.3510  -29.5830   21.7840 H   0  0  0  0  0  0  0  0  0  0  0  0
  -18.0380  -26.9390   22.4950 C   0  0  0  0  0  0  0  0  0  0  0  0
  -20.3240  -27.9630   23.1370 C   0  0  0  0  0  3  0  0  0  0  0  0
  -20.9390  -26.6200   22.6820 C   0  0  0  0  0  2  0  0  0  0  0  0
  -20.1650  -25.9580   21.5390 C   0  0  0  0  0  2  0  0  0  0  0  0
  -18.7130  -25.6920   21.9510 C   0  0  0  0  0  2  0  0  0  0  0  0
  -18.7950  -28.0120   23.0360 C   0  0  0  0  0  0  0  0  0  0  0  0
  -18.1180  -29.1640   23.4930 C   0  0  0  0  0  3  0  0  0  0  0  0
  -16.7160  -29.2520   23.4200 C   0  0  0  0  0  3  0  0  0  0  0  0
  -15.9710  -28.1790   22.8990 C   0  0  0  0  0  3  0  0  0  0  0  0
  -16.6310  -27.0260   22.4400 C   0  0  0  0  0  3  0  0  0  0  0  0
  -25.6720  -32.3140   23.6210 C   0  0  0  0  0  3  0  0  0  0  0  0
  -25.5320  -33.7170   24.0280 N   0  0  0  0  0  0  0  0  0  0  0  0
  -25.9290  -34.7650   23.2950 C   0  0  0  0  0  0  0  0  0  0  0  0
  -26.5210  -34.6470   22.2190 O   0  0  0  0  0  0  0  0  0  0  0  0
  -25.0000  -33.8890   24.8680 H   0  0  0  0  0  0  0  0  0  0  0  0
  -24.4140  -36.7630   23.0950 C   0  0  0  0  0  1  0  0  0  0  0  0
  -25.6190  -36.1710   23.8440 C   0  0  0  0  0  3  0  0  0  0  0  0
  -27.8860  -36.7150   24.6100 C   0  0  0  0  0  1  0  0  0  0  0  0
  -26.7640  -37.1020   23.7580 N   0  0  0  0  0  0  0  0  0  0  0  0
  -26.4840  -38.0440   24.0170 H   0  0  0  0  0  0  0  0  0  0  0  0
  -26.3490  -31.4730   24.7700 C   0  0  1  0  0  0  0  0  0  0  0  0
  -25.4160  -31.1780   25.9670 C   0  0  0  0  0  1  0  0  0  0  0  0
  -26.8380  -30.1230   24.2230 C   0  0  0  0  0  1  0  0  0  0  0  0
  -27.6000  -32.2100   25.3010 C   0  0  0  0  0  1  0  0  0  0  0  0
  2  1  1  0
  3  4  1  0
  4 10  1  0
  4  1  2  0
  5  3  2  0
  5  6  1  0
  6  7  1  0
  6  2  2  0
  7  8  1  0
  9  7  1  0
 10 11  1  0
 12 11  1  0
 13 14  1  0
 13 12  1  0
 14 16  1  0
 14 15  1  0
 17 18  1  0
 17 14  1  0
 19 20  1  0
 19 18  1  0
 21 20  1  0
 21 22  1  0
 22 31  1  0
 23 31  1  0
 23 29  1  0
 25 26  1  0
 25 24  1  0
 27 26  1  0
 27 36  1  0
 27 28  1  0
 29 28  1  0
 29 24  1  0
 30 23  2  0
 31 32  1  0
 33 34  2  0
 34 35  1  0
 34 53  1  0
 35 38  1  0
 36 33  1  0
 36 37  1  0
 37 35  2  0
 38 39  1  0
 39 40  2  0
 41 44  1  0
 41 40  1  0
 42 41  2  0
 43 42  1  0
 43 38  2  0
 44 45  1  0
 45 50  2  0
 45 46  1  0
 46 47  2  0
 47 48  1  0
 48 52  1  0
 49 48  2  0
 50 49  1  0
 51 50  1  0
 53 54  1  0
 54 57  1  0
 54 56  1  0
 55 53  2  0
 58 59  1  0
 58 33  1  0
 60 58  1  0
 61  5  1  0
 62 64  1  0
 62 61  1  0
 63 74  2  0
 64 69  1  0
 65 73  1  0
 65 75  1  0
 66 68  1  0
 66 72  1  0
 67 73  1  0
 68 67  1  0
 69 68  2  0
 70 64  2  0
 70 71  1  0
 71 66  2  0
 72 65  1  0
 73 63  1  0
 75 77  2  0
 76 75  1  0
 78 76  1  0
 79 84  1  0
 80 76  1  0
 81 80  1  0
 82 83  1  0
 82 81  1  0
 83 79  1  0
 84 80  1  0
 84 85  2  0
 86 85  1  0
 87 86  2  0
 88 79  2  0
 88 87  1  0
 89 63  1  0
 89 90  1  0
 89 99  1  0
 90 93  1  0
 91 95  1  0
 91 90  1  0
 92 91  2  0
 95 94  1  0
 97 95  1  0
 97 98  1  0
 97 96  1  0
 99102  1  1
 99100  1  0
101 99  1  0
M  ISO  4  23 100  31 100  61 101  62 101
M  END
>  <TORSDO>  (52) 
F 29

>  <SCORE>  (52) 
-6.680

>  <name>  (52) 
56

>  <ligand_id>  (52) 
56

>  <original_smiles>  (52) 
[H]c1c([H])c([H])c2c(c1[H])C([H])([H])C([H])([H])C([H])([H])C2([H])N([H])C(=O)C1([H])N(C(=O)C([H])(N([H])C(=O)C([H])(N([H])C([H])([H])[H])C([H])([H])[H])C(C([H])([H])[H])(C([H])([H])[H])C([H])([H])[H])C([H])([H])c2c([H])c(OC([H])([H])c3c([H])c(C([H])([H])C([H])([H])C([H])([H])C([H])([H])[N+]([H])([H])C([H])([H])C([H])([H])C([H])([H])C([H])([H])C([H])([H])C([H])([H])N([H])C(=O)N4C([H])([H])C([H])([H])C([H])([H])C([H])(n5nc(-c6c([H])c([H])c(Oc7c([H])c([H])c(F)c([H])c7F)c([H])c6[H])c(C(=O)N([H])[H])c5N([H])[H])C4([H])[H])c([H])c([H])c3N([H])[H])c([H])c([H])c2C1([H])[H]

>  <smiles>  (52) 
[H]c1c([H])c([H])c2c(c1[H])C([H])([H])C([H])([H])C([H])([H])C2([H])N([H])C(=O)C1([H])N(C(=O)C([H])(N([H])C(=O)C([H])(N([H])C([H])([H])[H])C([H])([H])[H])C(C([H])([H])[H])(C([H])([H])[H])C([H])([H])[H])C([H])([H])c2c([H])c(OC([H])([H])c3c([H])c(C([H])([H])C([H])([H])C([H])([H])C([H])([H])[N+]([H])([H])C([H])([H])C([H])([H])C([H])([H])C([H])([H])C([H])([H])C([H])([H])N([H])C(=O)N4C([H])([H])C([H])([H])C([H])([H])C([H])(n5nc(-c6c([H])c([H])c(Oc7c([H])c([H])c(F)c([H])c7F)c([H])c6[H])c(C(=O)N([H])[H])c5N([H])[H])C4([H])[H])c([H])c([H])c3N([H])[H])c([H])c([H])c2C1([H])[H]

$$$$
57:0:0
     RDKit          3D

 96103  0  0  1  0  0  0  0  0999 V2000
  -28.0630  -17.6530   19.0760 C   0  0  0  0  0  3  0  0  0  0  0  0
  -30.2760  -18.2990   19.5980 C   0  0  0  0  0  3  0  0  0  0  0  0
  -27.6560  -19.0310   19.2370 C   0  0  0  0  0  3  0  0  0  0  0  0
  -29.8680  -19.6810   19.7690 C   0  0  0  0  0  3  0  0  0  0  0  0
  -29.4070  -17.2050   19.2260 C   0  0  0  0  0  0  0  0  0  0  0  0
  -28.5250  -20.1250   19.5670 C   0  0  0  0  0  0  0  0  0  0  0  0
  -29.9770  -15.7560   18.8360 C   0  0  0  0  0  0  0  0  0  0  0  0
  -31.1340  -15.7610   18.4160 O   0  0  0  0  0  0  0  0  0  0  0  0
  -29.1480  -14.3030   18.7260 C   0  0  0  0  0  1  0  0  0  0  0  0
  -29.1690  -11.5890   19.5110 C   0  0  0  0  0  1  0  0  0  0  0  0
  -30.3080  -10.4460   19.7410 C   0  0  0  0  0  2  0  0  0  0  0  0
  -31.5730  -10.5220   20.6700 C   0  0  0  0  0  2  0  0  0  0  0  0
  -31.4130  -10.8300   22.1790 C   0  0  0  0  0  2  0  0  0  0  0  0
  -32.2570  -12.0400   22.7070 C   0  0  0  0  0  2  0  0  0  0  0  0
  -31.7790  -13.6860   20.9850 C   0  0  0  0  0  0  0  0  0  0  0  0
  -31.1280  -12.7380   18.6250 C   0  0  0  0  0  2  0  0  0  0  0  0
  -29.6670  -12.5570   17.3730 C   0  0  0  0  0  3  0  0  0  0  0  0
  -27.8530  -12.8290   18.0010 C   0  0  0  0  0  3  0  0  0  0  0  0
  -27.6110  -13.3190   19.8360 C   0  0  0  0  0  0  0  0  0  0  0  0
  -29.1450  -13.4320   21.0330 C   0  0  0  0  0  3  0  0  0  0  0  0
  -30.7810  -13.1780   20.3460 N   0  0  0  0  0  0  0  0  0  0  0  0
  -32.7370  -14.1700   20.3900 O   0  0  0  0  0  0  0  0  0  0  0  0
  -31.7180  -13.3300   22.2710 N   0  0  0  0  0  0  0  0  0  0  0  0
  -30.7800  -13.4250   22.6280 H   0  0  0  0  0  0  0  0  0  0  0  0
  -25.4840  -13.8000   20.8870 C   0  0  0  0  0  0  0  0  0  0  0  0
  -24.4510  -12.9960   21.1950 C   0  0  0  0  0  0  0  0  0  0  0  0
  -24.9090  -11.6530   21.0190 C   0  0  0  0  0  0  0  0  0  0  0  0
  -26.4510  -12.9260   20.4700 N   0  0  0  0  0  0  0  0  0  0  0  0
  -26.1620  -11.6240   20.6150 N   0  0  0  0  0  0  0  0  0  0  0  0
  -24.1980  -10.3930   21.1370 C   0  0  0  0  0  0  0  0  0  0  0  0
  -24.6070   -9.4080   22.0590 C   0  0  0  0  0  3  0  0  0  0  0  0
  -23.8640   -8.2170   22.1840 C   0  0  0  0  0  3  0  0  0  0  0  0
  -22.7140   -8.0140   21.3810 C   0  0  0  0  0  0  0  0  0  0  0  0
  -22.3440   -8.9900   20.4390 C   0  0  0  0  0  3  0  0  0  0  0  0
  -23.0860  -10.1710   20.3100 C   0  0  0  0  0  3  0  0  0  0  0  0
  -21.9360   -6.8860   21.4240 O   0  0  0  0  0  0  0  0  0  0  0  0
  -21.7430   -6.1920   22.5900 C   0  0  0  0  0  0  0  0  0  0  0  0
  -21.2010   -6.8030   23.7420 C   0  0  0  0  0  3  0  0  0  0  0  0
  -20.9490   -6.0300   24.8940 C   0  0  0  0  0  3  0  0  0  0  0  0
  -21.2360   -4.6520   24.8960 C   0  0  0  0  0  0  0  0  0  0  0  0
  -21.7780   -4.0440   23.7470 C   0  0  0  0  0  3  0  0  0  0  0  0
  -22.0260   -4.8120   22.5980 C   0  0  0  0  0  0  0  0  0  0  0  0
  -22.5260   -4.2190   21.4880 F   0  0  0  0  0  0  0  0  0  0  0  0
  -20.9890   -3.9090   25.9980 F   0  0  0  0  0  0  0  0  0  0  0  0
  -23.0850  -13.4750   21.5190 C   0  0  0  0  0  0  0  0  0  0  0  0
  -22.4040  -12.7620   22.4000 N   0  0  0  0  0  0  0  0  0  0  0  0
  -22.6490  -14.5180   21.0320 O   0  0  0  0  0  0  0  0  0  0  0  0
  -22.8130  -11.9360   22.8130 H   0  0  0  0  0  0  0  0  0  0  0  0
  -21.4710  -13.0370   22.6690 H   0  0  0  0  0  0  0  0  0  0  0  0
  -25.6440  -15.1920   20.8700 N   0  0  0  0  0  0  0  0  0  0  0  0
  -24.9150  -15.7930   21.2400 H   0  0  0  0  0  0  0  0  0  0  0  0
  -26.4790  -15.7040   20.6210 H   0  0  0  0  0  0  0  0  0  0  0  0
  -27.9430  -21.6520   19.5990 C   0  0  0  0  0  2  0  0  0  0  0  0
  -28.6730  -23.0850   19.9990 C   0  0  0  0  0  3  0  0  0  0  0  0
  -27.8490  -24.5300   19.8220 C   0  0  0  0  0  3  0  0  0  0  0  0
  -28.2030  -25.9880   20.2340 O   0  0  0  0  0  0  0  0  0  0  0  0
  -24.6300  -31.7540   23.2260 C   0  0  0  0  0  0  0  0  0  0  0  0
  -27.1800  -27.0010   20.2040 C   0  0  0  0  0  0  0  0  0  0  0  0
  -23.4340  -30.3550   21.5930 C   0  0  0  0  0  3  0  0  0  0  0  0
  -24.8770  -28.7660   20.1940 C   0  0  0  0  0  0  0  0  0  0  0  0
  -25.9940  -30.5890   21.4590 C   0  0  0  0  0  2  0  0  0  0  0  0
  -26.0580  -29.1950   20.8100 C   0  0  0  0  0  0  0  0  0  0  0  0
  -27.2120  -28.3230   20.8140 C   0  0  0  0  0  3  0  0  0  0  0  0
  -25.9710  -26.6870   19.5480 C   0  0  0  0  0  3  0  0  0  0  0  0
  -24.8420  -27.5220   19.5590 C   0  0  0  0  0  3  0  0  0  0  0  0
  -23.6600  -29.6720   20.2230 C   0  0  0  0  0  2  0  0  0  0  0  0
  -24.7050  -30.9210   22.1460 N   0  0  0  0  0  0  0  0  0  0  0  0
  -23.5430  -32.0530   23.7390 O   0  0  0  0  0  0  0  0  0  0  0  0
  -22.7400  -29.3570   22.5540 C   0  0  0  0  0  0  0  0  0  0  0  0
  -21.4100  -29.2010   22.4240 N   0  0  0  0  0  0  0  0  0  0  0  0
  -23.4010  -28.7260   23.3840 O   0  0  0  0  0  0  0  0  0  0  0  0
  -20.9300  -29.7650   21.7360 H   0  0  0  0  0  0  0  0  0  0  0  0
  -18.0100  -28.0710   22.9490 C   0  0  0  0  0  0  0  0  0  0  0  0
  -20.5750  -28.2790   23.1990 C   0  0  0  0  0  3  0  0  0  0  0  0
  -20.6440  -26.8450   22.6240 C   0  0  0  0  0  2  0  0  0  0  0  0
  -19.5280  -26.5450   21.6170 C   0  0  0  0  0  2  0  0  0  0  0  0
  -18.1530  -26.7200   22.2700 C   0  0  0  0  0  2  0  0  0  0  0  0
  -19.1470  -28.8100   23.3720 C   0  0  0  0  0  0  0  0  0  0  0  0
  -18.9580  -30.0750   23.9690 C   0  0  0  0  0  3  0  0  0  0  0  0
  -17.6650  -30.6020   24.1460 C   0  0  0  0  0  3  0  0  0  0  0  0
  -16.5420  -29.8610   23.7380 C   0  0  0  0  0  3  0  0  0  0  0  0
  -16.7160  -28.5970   23.1460 C   0  0  0  0  0  3  0  0  0  0  0  0
  -25.9080  -32.3870   23.8560 C   0  0  0  0  0  3  0  0  0  0  0  0
  -26.4040  -31.6260   25.1470 C   0  0  1  0  0  0  0  0  0  0  0  0
  -25.2950  -31.4070   26.2000 C   0  0  0  0  0  1  0  0  0  0  0  0
  -26.9900  -30.2400   24.7850 C   0  0  0  0  0  1  0  0  0  0  0  0
  -27.5480  -32.4230   25.8160 C   0  0  0  0  0  1  0  0  0  0  0  0
  -25.6010  -33.7900   24.1740 N   0  0  0  0  0  0  0  0  0  0  0  0
  -25.9320  -34.8370   23.4070 C   0  0  0  0  0  0  0  0  0  0  0  0
  -26.5950  -34.7250   22.3730 O   0  0  0  0  0  0  0  0  0  0  0  0
  -25.0140  -33.9510   24.9780 H   0  0  0  0  0  0  0  0  0  0  0  0
  -24.2030  -36.6330   23.0580 C   0  0  0  0  0  1  0  0  0  0  0  0
  -25.4510  -36.2310   23.8590 C   0  0  0  0  0  3  0  0  0  0  0  0
  -27.5910  -37.1240   24.6650 C   0  0  0  0  0  1  0  0  0  0  0  0
  -26.4840  -37.2800   23.7270 N   0  0  0  0  0  0  0  0  0  0  0  0
  -26.0770  -38.2030   23.8660 H   0  0  0  0  0  0  0  0  0  0  0  0
  1  5  2  0
  1  3  1  0
  2  4  2  0
  3  6  2  0
  5  2  1  0
  6 53  1  0
  6  4  1  0
  7  5  1  0
  8  7  2  0
  9  7  1  0
 10 11  1  0
 11 12  1  0
 12 13  1  0
 13 14  1  0
 15 23  1  0
 16 21  1  0
 17 18  2  0
 17 16  1  0
 18 19  1  0
 19 28  1  0
 19 20  2  0
 21 15  1  0
 21 20  1  0
 22 15  2  0
 23 24  1  0
 23 14  1  0
 25 26  2  0
 26 45  1  0
 27 30  1  0
 27 26  1  0
 28 29  1  0
 28 25  1  0
 29 27  2  0
 30 31  1  0
 31 32  2  0
 33 36  1  0
 33 32  1  0
 34 33  2  0
 35 34  1  0
 35 30  2  0
 36 37  1  0
 37 42  2  0
 37 38  1  0
 38 39  2  0
 39 40  1  0
 40 44  1  0
 41 40  2  0
 42 41  1  0
 43 42  1  0
 45 46  1  0
 46 49  1  0
 46 48  1  0
 47 45  2  0
 50 25  1  0
 50 51  1  0
 52 50  1  0
 53 54  1  0
 55 54  2  0
 55 56  1  0
 57 68  2  0
 58 56  1  0
 58 63  1  0
 59 67  1  0
 59 69  1  0
 60 66  1  0
 60 62  1  0
 61 67  1  0
 62 63  2  0
 62 61  1  0
 64 65  1  0
 64 58  2  0
 65 60  2  0
 66 59  1  0
 67 57  1  0
 69 71  2  0
 70 69  1  0
 72 70  1  0
 73 82  2  0
 73 78  1  0
 74 70  1  0
 74 78  1  0
 75 74  1  0
 76 77  1  0
 76 75  1  0
 77 73  1  0
 78 79  2  0
 79 80  1  0
 81 80  2  0
 82 81  1  0
 83 57  1  0
 83 88  1  0
 83 84  1  0
 84 87  1  1
 84 85  1  0
 86 84  1  0
 88 91  1  0
 89 93  1  0
 89 88  1  0
 90 89  2  0
 93 92  1  0
 95 93  1  0
 95 96  1  0
 95 94  1  0
M  ISO  4  15 100  23 100  55 101  56 101
M  END
>  <TORSDO>  (53) 
F 26

>  <SCORE>  (53) 
-11.035

>  <name>  (53) 
57

>  <ligand_id>  (53) 
57

>  <original_smiles>  (53) 
[H]c1c([H])c([H])c2c(c1[H])C([H])([H])C([H])([H])C([H])([H])C2([H])N([H])C(=O)C1([H])N(C(=O)C([H])(N([H])C(=O)C([H])(N([H])C([H])([H])[H])C([H])([H])[H])C(C([H])([H])[H])(C([H])([H])[H])C([H])([H])[H])C([H])([H])c2c([H])c(OC([H])([H])C([H])([H])C([H])([H])c3c([H])c([H])c(C(=O)C([H])([H])C([H])([H])C([H])([H])C([H])([H])C([H])([H])C([H])([H])N([H])C(=O)N4C([H])([H])C([H])([H])C([H])([H])C([H])(n5nc(-c6c([H])c([H])c(Oc7c([H])c([H])c(F)c([H])c7F)c([H])c6[H])c(C(=O)N([H])[H])c5N([H])[H])C4([H])[H])c([H])c3[H])c([H])c([H])c2C1([H])[H]

>  <smiles>  (53) 
[H]c1c([H])c([H])c2c(c1[H])C([H])([H])C([H])([H])C([H])([H])C2([H])N([H])C(=O)C1([H])N(C(=O)C([H])(N([H])C(=O)C([H])(N([H])C([H])([H])[H])C([H])([H])[H])C(C([H])([H])[H])(C([H])([H])[H])C([H])([H])[H])C([H])([H])c2c([H])c(OC([H])([H])C([H])([H])C([H])([H])c3c([H])c([H])c(C(=O)C([H])([H])C([H])([H])C([H])([H])C([H])([H])C([H])([H])C([H])([H])N([H])C(=O)N4C([H])([H])C([H])([H])C([H])([H])C([H])(n5nc(-c6c([H])c([H])c(Oc7c([H])c([H])c(F)c([H])c7F)c([H])c6[H])c(C(=O)N([H])[H])c5N([H])[H])C4([H])[H])c([H])c3[H])c([H])c([H])c2C1([H])[H]

$$$$
58:0:0
     RDKit          3D

 91 99  0  0  1  0  0  0  0  0999 V2000
  -28.1810  -22.5360   17.6090 C   0  0  0  0  0  3  0  0  0  0  0  0
  -28.4160  -21.5230   18.5540 C   0  0  0  0  0  3  0  0  0  0  0  0
  -28.7340  -23.8140   17.7920 C   0  0  0  0  0  3  0  0  0  0  0  0
  -29.7570  -23.0650   19.8790 C   0  0  0  0  0  3  0  0  0  0  0  0
  -29.2240  -21.7650   19.6910 C   0  0  0  0  0  0  0  0  0  0  0  0
  -29.5150  -24.0930   18.9330 C   0  0  0  0  0  0  0  0  0  0  0  0
  -29.5420  -20.6450   20.6940 C   0  0  0  0  0  2  0  0  0  0  0  0
  -29.4040  -19.2160   20.1100 C   0  0  0  0  0  2  0  0  0  0  0  0
  -29.8300  -18.0270   21.0070 C   0  0  0  0  0  2  0  0  0  0  0  0
  -29.7850  -16.7240   20.1770 C   0  0  0  0  0  2  0  0  0  0  0  0
  -30.6420  -14.4370   20.4930 C   0  0  0  0  0  0  0  0  0  0  0  0
  -30.3560  -12.2760   19.3610 C   0  0  0  0  0  2  0  0  0  0  0  0
  -29.4260  -12.5080   18.1500 C   0  0  0  0  0  2  0  0  0  0  0  0
  -27.9480  -12.3700   18.5640 C   0  0  0  0  0  2  0  0  0  0  0  0
  -27.6070  -13.1980   19.8340 C   0  0  0  0  0  3  0  0  0  0  0  0
  -28.6530  -12.9570   20.9510 C   0  0  0  0  0  2  0  0  0  0  0  0
  -29.9890  -13.2480   20.4020 N   0  0  0  0  0  0  0  0  0  0  0  0
  -31.7550  -14.6370   19.9990 O   0  0  0  0  0  0  0  0  0  0  0  0
  -29.8860  -15.4610   20.9240 N   0  0  0  0  0  0  0  0  0  0  0  0
  -29.0500  -15.1830   21.4170 H   0  0  0  0  0  0  0  0  0  0  0  0
  -25.2010  -13.8120   20.5190 C   0  0  0  0  0  0  0  0  0  0  0  0
  -24.1280  -13.0430   20.8840 C   0  0  0  0  0  0  0  0  0  0  0  0
  -24.5870  -11.6910   20.8640 C   0  0  0  0  0  0  0  0  0  0  0  0
  -26.2470  -12.9290   20.3000 N   0  0  0  0  0  0  0  0  0  0  0  0
  -25.8810  -11.6480   20.5640 N   0  0  0  0  0  0  0  0  0  0  0  0
  -23.8600  -10.4290   21.0600 C   0  0  0  0  0  0  0  0  0  0  0  0
  -24.3000   -9.4580   21.9860 C   0  0  0  0  0  3  0  0  0  0  0  0
  -23.5720   -8.2610   22.1670 C   0  0  0  0  0  3  0  0  0  0  0  0
  -22.3930   -8.0300   21.4200 C   0  0  0  0  0  0  0  0  0  0  0  0
  -21.9720   -8.9900   20.4840 C   0  0  0  0  0  3  0  0  0  0  0  0
  -22.7000  -10.1770   20.3020 C   0  0  0  0  0  3  0  0  0  0  0  0
  -21.6380   -6.8840   21.5120 O   0  0  0  0  0  0  0  0  0  0  0  0
  -21.6110   -6.1270   22.6540 C   0  0  0  0  0  0  0  0  0  0  0  0
  -21.2240   -6.6690   23.8990 C   0  0  0  0  0  3  0  0  0  0  0  0
  -21.1460   -5.8390   25.0350 C   0  0  0  0  0  3  0  0  0  0  0  0
  -21.4440   -4.4670   24.9280 C   0  0  0  0  0  0  0  0  0  0  0  0
  -21.8240   -3.9230   23.6880 C   0  0  0  0  0  3  0  0  0  0  0  0
  -21.9040   -4.7510   22.5530 C   0  0  0  0  0  0  0  0  0  0  0  0
  -22.2520   -4.2180   21.3570 F   0  0  0  0  0  0  0  0  0  0  0  0
  -21.3590   -3.6670   26.0170 F   0  0  0  0  0  0  0  0  0  0  0  0
  -22.7290  -13.5260   21.1460 C   0  0  0  0  0  0  0  0  0  0  0  0
  -21.9940  -12.8380   22.0120 N   0  0  0  0  0  0  0  0  0  0  0  0
  -22.2970  -14.5480   20.6150 O   0  0  0  0  0  0  0  0  0  0  0  0
  -22.3580  -12.0120   22.4640 H   0  0  0  0  0  0  0  0  0  0  0  0
  -21.0570  -13.1460   22.2300 H   0  0  0  0  0  0  0  0  0  0  0  0
  -25.3680  -15.1810   20.3360 N   0  0  0  0  0  0  0  0  0  0  0  0
  -24.5970  -15.8350   20.4410 H   0  0  0  0  0  0  0  0  0  0  0  0
  -26.2200  -15.6160   20.0040 H   0  0  0  0  0  0  0  0  0  0  0  0
  -30.1470  -25.4740   19.0820 C   0  0  0  0  0  2  0  0  0  0  0  0
  -29.1550  -26.6560   19.0190 C   0  0  0  0  0  2  0  0  0  0  0  0
  -28.3870  -26.7020   20.2110 O   0  0  0  0  0  0  0  0  0  0  0  0
  -24.5820  -31.8740   23.2250 C   0  0  0  0  0  0  0  0  0  0  0  0
  -27.2400  -27.4510   20.1550 C   0  0  0  0  0  0  0  0  0  0  0  0
  -23.3750  -30.4620   21.5860 C   0  0  0  0  0  3  0  0  0  0  0  0
  -24.8330  -28.9260   20.1580 C   0  0  0  0  0  0  0  0  0  0  0  0
  -25.8960  -30.8330   21.3830 C   0  0  0  0  0  2  0  0  0  0  0  0
  -25.9850  -29.4610   20.7510 C   0  0  0  0  0  0  0  0  0  0  0  0
  -27.1900  -28.7250   20.7570 C   0  0  0  0  0  3  0  0  0  0  0  0
  -26.0750  -26.9190   19.5630 C   0  0  0  0  0  3  0  0  0  0  0  0
  -24.8710  -27.6520   19.5650 C   0  0  0  0  0  3  0  0  0  0  0  0
  -23.5840  -29.7770   20.2080 C   0  0  0  0  0  2  0  0  0  0  0  0
  -24.6350  -31.0720   22.1230 N   0  0  0  0  0  0  0  0  0  0  0  0
  -23.5020  -32.1460   23.7660 O   0  0  0  0  0  0  0  0  0  0  0  0
  -22.7270  -29.4450   22.5500 C   0  0  0  0  0  0  0  0  0  0  0  0
  -21.4010  -29.2690   22.4310 N   0  0  0  0  0  0  0  0  0  0  0  0
  -23.4110  -28.8160   23.3620 O   0  0  0  0  0  0  0  0  0  0  0  0
  -20.9100  -29.8300   21.7490 H   0  0  0  0  0  0  0  0  0  0  0  0
  -18.0230  -28.0970   22.9470 C   0  0  0  0  0  0  0  0  0  0  0  0
  -20.5840  -28.3350   23.2050 C   0  0  0  0  0  3  0  0  0  0  0  0
  -20.6720  -26.9050   22.6240 C   0  0  0  0  0  2  0  0  0  0  0  0
  -19.5610  -26.5930   21.6160 C   0  0  0  0  0  2  0  0  0  0  0  0
  -18.1850  -26.7470   22.2700 C   0  0  0  0  0  2  0  0  0  0  0  0
  -19.1500  -28.8500   23.3730 C   0  0  0  0  0  0  0  0  0  0  0  0
  -18.9450  -30.1140   23.9660 C   0  0  0  0  0  3  0  0  0  0  0  0
  -17.6450  -30.6250   24.1400 C   0  0  0  0  0  3  0  0  0  0  0  0
  -16.5320  -29.8700   23.7310 C   0  0  0  0  0  3  0  0  0  0  0  0
  -16.7220  -28.6070   23.1420 C   0  0  0  0  0  3  0  0  0  0  0  0
  -25.8690  -32.5050   23.8400 C   0  0  0  0  0  3  0  0  0  0  0  0
  -25.5590  -33.9010   24.1790 N   0  0  0  0  0  0  0  0  0  0  0  0
  -25.8860  -34.9560   23.4230 C   0  0  0  0  0  0  0  0  0  0  0  0
  -26.5540  -34.8600   22.3890 O   0  0  0  0  0  0  0  0  0  0  0  0
  -24.9670  -34.0490   24.9830 H   0  0  0  0  0  0  0  0  0  0  0  0
  -24.1520  -36.7440   23.0770 C   0  0  0  0  0  1  0  0  0  0  0  0
  -25.3940  -36.3410   23.8860 C   0  0  0  0  0  3  0  0  0  0  0  0
  -27.5290  -37.2250   24.7180 C   0  0  0  0  0  1  0  0  0  0  0  0
  -26.4240  -37.3970   23.7770 N   0  0  0  0  0  0  0  0  0  0  0  0
  -26.0170  -38.3160   23.9310 H   0  0  0  0  0  0  0  0  0  0  0  0
  -26.3990  -31.7280   25.1070 C   0  0  1  0  0  0  0  0  0  0  0  0
  -25.3170  -31.4810   26.1830 C   0  0  0  0  0  1  0  0  0  0  0  0
  -26.9820  -30.3550   24.6980 C   0  0  0  0  0  1  0  0  0  0  0  0
  -27.5550  -32.5200   25.7640 C   0  0  0  0  0  1  0  0  0  0  0  0
  1  3  2  0
  1  2  1  0
  2  5  2  0
  3  6  1  0
  5  4  1  0
  5  7  1  0
  6 49  1  0
  6  4  2  0
  8  7  1  0
  8  9  1  0
 10 19  1  0
 10  9  1  0
 11 19  1  0
 12 17  1  0
 13 14  1  0
 13 12  1  0
 15 14  1  0
 15 24  1  0
 15 16  1  0
 17 11  1  0
 17 16  1  0
 18 11  2  0
 19 20  1  0
 21 22  2  0
 22 41  1  0
 23 22  1  0
 23 26  1  0
 24 21  1  0
 24 25  1  0
 25 23  2  0
 26 27  1  0
 27 28  2  0
 29 32  1  0
 29 28  1  0
 30 29  2  0
 31 30  1  0
 31 26  2  0
 32 33  1  0
 33 34  1  0
 34 35  2  0
 36 35  1  0
 36 40  1  0
 37 36  2  0
 38 33  2  0
 38 37  1  0
 39 38  1  0
 41 42  1  0
 42 45  1  0
 42 44  1  0
 43 41  2  0
 46 47  1  0
 46 21  1  0
 48 46  1  0
 50 49  1  0
 50 51  1  0
 52 63  2  0
 53 51  1  0
 53 58  1  0
 54 62  1  0
 54 64  1  0
 55 61  1  0
 55 57  1  0
 56 62  1  0
 57 58  2  0
 57 56  1  0
 59 60  1  0
 59 53  2  0
 60 55  2  0
 61 54  1  0
 62 52  1  0
 64 66  2  0
 65 64  1  0
 67 65  1  0
 68 77  2  0
 68 73  1  0
 69 65  1  0
 69 73  1  0
 70 69  1  0
 71 72  1  0
 71 70  1  0
 72 68  1  0
 73 74  2  0
 74 75  1  0
 76 75  2  0
 77 76  1  0
 78 52  1  0
 78 79  1  0
 78 88  1  0
 79 82  1  0
 80 84  1  0
 80 79  1  0
 81 80  2  0
 84 83  1  0
 86 84  1  0
 86 87  1  0
 86 85  1  0
 88 91  1  1
 88 89  1  0
 90 88  1  0
M  ISO  4  11 100  19 100  50 101  51 101
M  END
>  <TORSDO>  (54) 
F 22

>  <SCORE>  (54) 
-12.991

>  <name>  (54) 
58

>  <ligand_id>  (54) 
58

>  <original_smiles>  (54) 
[H]c1c([H])c(C([H])([H])C([H])([H])Oc2c([H])c([H])c3c(c2[H])C([H])([H])N(C(=O)C([H])(N([H])C(=O)C([H])(N([H])C([H])([H])[H])C([H])([H])[H])C(C([H])([H])[H])(C([H])([H])[H])C([H])([H])[H])C([H])(C(=O)N([H])C2([H])c4c([H])c([H])c([H])c([H])c4C([H])([H])C([H])([H])C2([H])[H])C3([H])[H])c([H])c(C([H])([H])C([H])([H])C([H])([H])C([H])([H])N([H])C(=O)N2C([H])([H])C([H])([H])C([H])([H])C([H])(n3nc(-c4c([H])c([H])c(Oc5c([H])c([H])c(F)c([H])c5F)c([H])c4[H])c(C(=O)N([H])[H])c3N([H])[H])C2([H])[H])c1[H]

>  <smiles>  (54) 
[H]c1c([H])c(C([H])([H])C([H])([H])Oc2c([H])c([H])c3c(c2[H])C([H])([H])N(C(=O)C([H])(N([H])C(=O)C([H])(N([H])C([H])([H])[H])C([H])([H])[H])C(C([H])([H])[H])(C([H])([H])[H])C([H])([H])[H])C([H])(C(=O)N([H])C2([H])c4c([H])c([H])c([H])c([H])c4C([H])([H])C([H])([H])C2([H])[H])C3([H])[H])c([H])c(C([H])([H])C([H])([H])C([H])([H])C([H])([H])N([H])C(=O)N2C([H])([H])C([H])([H])C([H])([H])C([H])(n3nc(-c4c([H])c([H])c(Oc5c([H])c([H])c(F)c([H])c5F)c([H])c4[H])c(C(=O)N([H])[H])c3N([H])[H])C2([H])[H])c1[H]

$$$$
59:0:0
     RDKit          3D

 93101  0  0  1  0  0  0  0  0999 V2000
  -30.2810  -20.5270   19.9820 C   0  0  0  0  0  3  0  0  0  0  0  0
  -30.2270  -21.9190   20.1780 C   0  0  0  0  0  3  0  0  0  0  0  0
  -27.9780  -20.3340   20.7220 C   0  0  0  0  0  3  0  0  0  0  0  0
  -29.1660  -19.7140   20.2740 C   0  0  0  0  0  0  0  0  0  0  0  0
  -29.0490  -22.5380   20.6430 C   0  0  0  0  0  0  0  0  0  0  0  0
  -27.9090  -21.7340   20.9060 C   0  0  0  0  0  0  0  0  0  0  0  0
  -26.6030  -22.3400   21.3950 C   0  0  0  0  0  1  0  0  0  0  0  0
  -29.2140  -18.1940   20.0840 C   0  0  0  0  0  2  0  0  0  0  0  0
  -30.2770  -17.4430   20.9390 C   0  0  0  0  0  3  0  0  0  0  0  0
  -30.8020  -14.9530   20.4090 C   0  0  0  0  0  0  0  0  0  0  0  0
  -30.5270  -12.7880   19.2710 C   0  0  0  0  0  2  0  0  0  0  0  0
  -29.5790  -12.9820   18.0710 C   0  0  0  0  0  2  0  0  0  0  0  0
  -28.1110  -12.8140   18.5090 C   0  0  0  0  0  2  0  0  0  0  0  0
  -27.7620  -13.6460   19.7730 C   0  0  0  0  0  3  0  0  0  0  0  0
  -28.8280  -13.4520   20.8750 C   0  0  0  0  0  2  0  0  0  0  0  0
  -30.1430  -13.7720   20.2950 N   0  0  0  0  0  0  0  0  0  0  0  0
  -31.9480  -15.1010   19.9830 O   0  0  0  0  0  0  0  0  0  0  0  0
  -30.0540  -15.9770   20.8650 N   0  0  0  0  0  0  0  0  0  0  0  0
  -29.1460  -15.6810   21.1870 H   0  0  0  0  0  0  0  0  0  0  0  0
  -25.3800  -14.2060   20.5680 C   0  0  0  0  0  0  0  0  0  0  0  0
  -24.3190  -13.4110   20.9070 C   0  0  0  0  0  0  0  0  0  0  0  0
  -24.7770  -12.0640   20.7770 C   0  0  0  0  0  0  0  0  0  0  0  0
  -26.4190  -13.3410   20.2590 N   0  0  0  0  0  0  0  0  0  0  0  0
  -26.0610  -12.0440   20.4410 N   0  0  0  0  0  0  0  0  0  0  0  0
  -24.0530  -10.7920   20.8950 C   0  0  0  0  0  0  0  0  0  0  0  0
  -24.4840   -9.7770   21.7770 C   0  0  0  0  0  3  0  0  0  0  0  0
  -23.7600   -8.5710   21.8880 C   0  0  0  0  0  3  0  0  0  0  0  0
  -22.5910   -8.3700   21.1170 C   0  0  0  0  0  0  0  0  0  0  0  0
  -22.1790   -9.3740   20.2230 C   0  0  0  0  0  3  0  0  0  0  0  0
  -22.9020  -10.5730   20.1100 C   0  0  0  0  0  3  0  0  0  0  0  0
  -21.8410   -7.2210   21.1390 O   0  0  0  0  0  0  0  0  0  0  0  0
  -21.7710   -6.4280   22.2550 C   0  0  0  0  0  0  0  0  0  0  0  0
  -21.3090   -6.9230   23.4940 C   0  0  0  0  0  3  0  0  0  0  0  0
  -21.1900   -6.0560   24.5990 C   0  0  0  0  0  3  0  0  0  0  0  0
  -21.5210   -4.6940   24.4660 C   0  0  0  0  0  0  0  0  0  0  0  0
  -21.9760   -4.1970   23.2300 C   0  0  0  0  0  3  0  0  0  0  0  0
  -22.0970   -5.0610   22.1280 C   0  0  0  0  0  0  0  0  0  0  0  0
  -22.5160   -4.5740   20.9360 F   0  0  0  0  0  0  0  0  0  0  0  0
  -21.3980   -3.8590   25.5240 F   0  0  0  0  0  0  0  0  0  0  0  0
  -22.9280  -13.8700   21.2370 C   0  0  0  0  0  0  0  0  0  0  0  0
  -22.2240  -13.1320   22.0880 N   0  0  0  0  0  0  0  0  0  0  0  0
  -22.4720  -14.9170   20.7760 O   0  0  0  0  0  0  0  0  0  0  0  0
  -22.6050  -12.2840   22.4840 H   0  0  0  0  0  0  0  0  0  0  0  0
  -21.2920  -13.4200   22.3500 H   0  0  0  0  0  0  0  0  0  0  0  0
  -25.5440  -15.5850   20.4760 N   0  0  0  0  0  0  0  0  0  0  0  0
  -24.7780  -16.2300   20.6340 H   0  0  0  0  0  0  0  0  0  0  0  0
  -26.3830  -16.0420   20.1410 H   0  0  0  0  0  0  0  0  0  0  0  0
  -32.2010  -18.0130   19.2220 C   0  0  0  0  0  1  0  0  0  0  0  0
  -31.7340  -17.9370   20.6950 C   0  0  0  0  0  2  0  0  0  0  0  0
  -29.0730  -24.0480   20.8810 C   0  0  0  0  0  2  0  0  0  0  0  0
  -28.8390  -24.8880   19.6090 C   0  0  0  0  0  2  0  0  0  0  0  0
  -28.9330  -26.3980   19.8890 C   0  0  0  0  0  2  0  0  0  0  0  0
  -28.4700  -27.1570   18.7740 O   0  0  0  0  0  0  0  0  0  0  0  0
  -24.5400  -31.4840   22.8220 C   0  0  0  0  0  0  0  0  0  0  0  0
  -27.2590  -27.7620   18.9810 C   0  0  0  0  0  0  0  0  0  0  0  0
  -23.3130  -30.2070   21.0930 C   0  0  0  0  0  3  0  0  0  0  0  0
  -24.7610  -29.0030   19.3720 C   0  0  0  0  0  0  0  0  0  0  0  0
  -25.7720  -30.8210   20.7610 C   0  0  0  0  0  2  0  0  0  0  0  0
  -25.9140  -29.5570   19.9430 C   0  0  0  0  0  0  0  0  0  0  0  0
  -27.1680  -28.9420   19.7490 C   0  0  0  0  0  3  0  0  0  0  0  0
  -26.0960  -27.2110   18.4100 C   0  0  0  0  0  3  0  0  0  0  0  0
  -24.8440  -27.8250   18.6060 C   0  0  0  0  0  3  0  0  0  0  0  0
  -23.4590  -29.7300   19.6220 C   0  0  0  0  0  2  0  0  0  0  0  0
  -24.5640  -30.8460   21.6180 N   0  0  0  0  0  0  0  0  0  0  0  0
  -23.4910  -31.5870   23.4710 O   0  0  0  0  0  0  0  0  0  0  0  0
  -22.8290  -29.0140   21.9490 C   0  0  0  0  0  0  0  0  0  0  0  0
  -21.5210  -28.7240   21.8810 N   0  0  0  0  0  0  0  0  0  0  0  0
  -23.6240  -28.3600   22.6290 O   0  0  0  0  0  0  0  0  0  0  0  0
  -20.9350  -29.3120   21.3050 H   0  0  0  0  0  0  0  0  0  0  0  0
  -18.3200  -27.1210   22.3650 C   0  0  0  0  0  0  0  0  0  0  0  0
  -20.8470  -27.6240   22.5700 C   0  0  0  0  0  3  0  0  0  0  0  0
  -21.0710  -26.2840   21.8300 C   0  0  0  0  0  2  0  0  0  0  0  0
  -19.9600  -25.9580   20.8280 C   0  0  0  0  0  2  0  0  0  0  0  0
  -18.6030  -25.8810   21.5340 C   0  0  0  0  0  2  0  0  0  0  0  0
  -19.3730  -27.9480   22.8380 C   0  0  0  0  0  0  0  0  0  0  0  0
  -19.0540  -29.1090   23.5760 C   0  0  0  0  0  3  0  0  0  0  0  0
  -17.7150  -29.4450   23.8450 C   0  0  0  0  0  3  0  0  0  0  0  0
  -16.6770  -28.6140   23.3890 C   0  0  0  0  0  3  0  0  0  0  0  0
  -16.9810  -27.4540   22.6540 C   0  0  0  0  0  3  0  0  0  0  0  0
  -25.8210  -32.1390   23.4260 C   0  0  0  0  0  3  0  0  0  0  0  0
  -25.4360  -33.4520   23.9590 N   0  0  0  0  0  0  0  0  0  0  0  0
  -25.6750  -34.6210   23.3470 C   0  0  0  0  0  0  0  0  0  0  0  0
  -26.3150  -34.7080   22.2950 O   0  0  0  0  0  0  0  0  0  0  0  0
  -24.8580  -33.4540   24.7870 H   0  0  0  0  0  0  0  0  0  0  0  0
  -23.8220  -36.3210   23.2890 C   0  0  0  0  0  1  0  0  0  0  0  0
  -25.1130  -35.8940   24.0060 C   0  0  0  0  0  3  0  0  0  0  0  0
  -27.2120  -36.8000   24.9040 C   0  0  0  0  0  1  0  0  0  0  0  0
  -26.0720  -37.0210   24.0180 N   0  0  0  0  0  0  0  0  0  0  0  0
  -25.6120  -37.8820   24.3030 H   0  0  0  0  0  0  0  0  0  0  0  0
  -26.5020  -31.2580   24.5450 C   0  0  1  0  0  0  0  0  0  0  0  0
  -25.5280  -30.7990   25.6540 C   0  0  0  0  0  1  0  0  0  0  0  0
  -27.1430  -29.9930   23.9260 C   0  0  0  0  0  1  0  0  0  0  0  0
  -27.6480  -32.0530   25.2130 C   0  0  0  0  0  1  0  0  0  0  0  0
  1  2  2  0
  1  4  1  0
  2  5  1  0
  3  6  1  0
  4  3  2  0
  5 50  1  0
  5  6  2  0
  6  7  1  0
  8  4  1  0
  9  8  1  0
 10 18  1  0
 11 16  1  0
 12 13  1  0
 12 11  1  0
 14 13  1  0
 14 23  1  0
 14 15  1  0
 16 10  1  0
 16 15  1  0
 17 10  2  0
 18  9  1  0
 18 19  1  0
 20 21  2  0
 21 40  1  0
 22 25  1  0
 22 21  1  0
 23 24  1  0
 23 20  1  0
 24 22  2  0
 25 26  1  0
 26 27  2  0
 28 31  1  0
 28 27  1  0
 29 28  2  0
 30 29  1  0
 30 25  2  0
 31 32  1  0
 32 33  1  0
 33 34  2  0
 35 34  1  0
 35 39  1  0
 36 35  2  0
 37 32  2  0
 37 36  1  0
 38 37  1  0
 40 41  1  0
 41 44  1  0
 41 43  1  0
 42 40  2  0
 45 20  1  0
 45 46  1  0
 47 45  1  0
 48 49  1  0
 49  9  1  0
 51 52  1  0
 51 50  1  0
 53 55  1  0
 53 52  1  0
 54 65  2  0
 55 60  1  0
 56 64  1  0
 56 66  1  0
 57 63  1  0
 57 59  1  0
 58 64  1  0
 59 58  1  0
 60 59  2  0
 61 62  1  0
 61 55  2  0
 62 57  2  0
 63 56  1  0
 64 54  1  0
 66 68  2  0
 67 66  1  0
 69 67  1  0
 70 79  2  0
 70 75  1  0
 71 67  1  0
 71 75  1  0
 72 71  1  0
 73 74  1  0
 73 72  1  0
 74 70  1  0
 75 76  2  0
 76 77  1  0
 78 77  2  0
 79 78  1  0
 80 54  1  0
 80 81  1  0
 80 90  1  0
 81 84  1  0
 82 81  1  0
 82 86  1  0
 83 82  2  0
 86 85  1  0
 86 88  1  0
 88 89  1  0
 88 87  1  0
 90 93  1  1
 90 91  1  0
 92 90  1  0
M  ISO  4  10 100  18 100  52 101  53 101
M  END
>  <TORSDO>  (55) 
F 22

>  <SCORE>  (55) 
-10.584

>  <name>  (55) 
59

>  <ligand_id>  (55) 
59

>  <original_smiles>  (55) 
[H]c1c([H])c([H])c2c(c1[H])C([H])([H])C([H])([H])C([H])([H])C2([H])N([H])C(=O)C1([H])N(C(=O)C([H])(N([H])C(=O)C([H])(N([H])C([H])([H])[H])C([H])([H])[H])C(C([H])([H])[H])(C([H])([H])[H])C([H])([H])[H])C([H])([H])c2c([H])c(OC([H])([H])C([H])([H])C([H])([H])c3c([H])c([H])c(C([H])([H])C([H])(N([H])C(=O)N4C([H])([H])C([H])([H])C([H])([H])C([H])(n5nc(-c6c([H])c([H])c(Oc7c([H])c([H])c(F)c([H])c7F)c([H])c6[H])c(C(=O)N([H])[H])c5N([H])[H])C4([H])[H])C([H])([H])C([H])([H])[H])c([H])c3C([H])([H])[H])c([H])c([H])c2C1([H])[H]

>  <smiles>  (55) 
[H]c1c([H])c([H])c2c(c1[H])C([H])([H])C([H])([H])C([H])([H])C2([H])N([H])C(=O)C1([H])N(C(=O)C([H])(N([H])C(=O)C([H])(N([H])C([H])([H])[H])C([H])([H])[H])C(C([H])([H])[H])(C([H])([H])[H])C([H])([H])[H])C([H])([H])c2c([H])c(OC([H])([H])C([H])([H])C([H])([H])c3c([H])c([H])c(C([H])([H])C([H])(N([H])C(=O)N4C([H])([H])C([H])([H])C([H])([H])C([H])(n5nc(-c6c([H])c([H])c(Oc7c([H])c([H])c(F)c([H])c7F)c([H])c6[H])c(C(=O)N([H])[H])c5N([H])[H])C4([H])[H])C([H])([H])C([H])([H])[H])c([H])c3C([H])([H])[H])c([H])c([H])c2C1([H])[H]

$$$$
60:0:0
     RDKit          3D

103111  0  0  1  0  0  0  0  0999 V2000
  -27.2450  -24.2350   23.6260 C   0  0  0  0  0  3  0  0  0  0  0  0
  -29.2420  -25.2600   22.6830 C   0  0  0  0  0  3  0  0  0  0  0  0
  -26.4580  -24.8340   22.6170 C   0  0  0  0  0  3  0  0  0  0  0  0
  -28.4610  -25.8440   21.6680 C   0  0  0  0  0  3  0  0  0  0  0  0
  -28.6450  -24.4260   23.6500 C   0  0  0  0  0  0  0  0  0  0  0  0
  -27.0710  -25.6090   21.6060 C   0  0  0  0  0  0  0  0  0  0  0  0
  -29.4980  -23.6830   24.6320 C   0  0  0  0  0  0  0  0  0  0  0  0
  -30.2910  -22.7740   24.0550 N   0  0  0  0  0  0  0  0  0  0  0  0
  -29.4580  -23.9190   25.8410 O   0  0  0  0  0  0  0  0  0  0  0  0
  -30.2550  -22.7500   23.0480 H   0  0  0  0  0  0  0  0  0  0  0  0
  -31.2380  -21.8590   24.6820 C   0  0  0  0  0  2  0  0  0  0  0  0
  -31.1750  -20.4820   23.9850 C   0  0  0  0  0  2  0  0  0  0  0  0
  -30.7330  -20.5580   22.5090 C   0  0  0  0  0  2  0  0  0  0  0  0
  -30.7470  -19.2000   21.7880 C   0  0  0  0  0  2  0  0  0  0  0  0
  -29.5660  -19.0430   20.8100 C   0  0  0  0  0  2  0  0  0  0  0  0
  -29.8510  -18.1400   19.5950 C   0  0  0  0  0  2  0  0  0  0  0  0
  -30.3540  -15.7130   19.4070 C   0  0  0  0  0  0  0  0  0  0  0  0
  -30.5900  -13.2640   19.2370 C   0  0  0  0  0  2  0  0  0  0  0  0
  -29.7070  -12.7180   18.0980 C   0  0  0  0  0  2  0  0  0  0  0  0
  -28.2840  -12.4250   18.6120 C   0  0  0  0  0  2  0  0  0  0  0  0
  -27.6800  -13.6190   19.3980 C   0  0  0  0  0  3  0  0  0  0  0  0
  -28.6780  -14.1400   20.4560 C   0  0  0  0  0  2  0  0  0  0  0  0
  -29.9450  -14.4690   19.7760 N   0  0  0  0  0  0  0  0  0  0  0  0
  -31.3370  -15.9160   18.6890 O   0  0  0  0  0  0  0  0  0  0  0  0
  -29.6060  -16.7240   19.8690 N   0  0  0  0  0  0  0  0  0  0  0  0
  -28.8310  -16.4820   20.4690 H   0  0  0  0  0  0  0  0  0  0  0  0
  -25.3570  -14.0950   20.4060 C   0  0  0  0  0  0  0  0  0  0  0  0
  -24.3560  -13.2620   20.8330 C   0  0  0  0  0  0  0  0  0  0  0  0
  -24.8460  -11.9340   20.6540 C   0  0  0  0  0  0  0  0  0  0  0  0
  -26.3930  -13.2690   19.9990 N   0  0  0  0  0  0  0  0  0  0  0  0
  -26.0920  -11.9600   20.1980 N   0  0  0  0  0  0  0  0  0  0  0  0
  -24.1820  -10.6370   20.8360 C   0  0  0  0  0  0  0  0  0  0  0  0
  -24.7260   -9.6390   21.6760 C   0  0  0  0  0  3  0  0  0  0  0  0
  -24.0570   -8.4090   21.8490 C   0  0  0  0  0  3  0  0  0  0  0  0
  -22.8320   -8.1660   21.1820 C   0  0  0  0  0  0  0  0  0  0  0  0
  -22.3090   -9.1530   20.3310 C   0  0  0  0  0  3  0  0  0  0  0  0
  -22.9770  -10.3770   20.1550 C   0  0  0  0  0  3  0  0  0  0  0  0
  -22.1300   -6.9860   21.2670 O   0  0  0  0  0  0  0  0  0  0  0  0
  -21.7810   -6.4430   22.4770 C   0  0  0  0  0  0  0  0  0  0  0  0
  -21.1100   -7.1950   23.4650 C   0  0  0  0  0  3  0  0  0  0  0  0
  -20.7030   -6.5780   24.6650 C   0  0  0  0  0  3  0  0  0  0  0  0
  -20.9590   -5.2110   24.8760 C   0  0  0  0  0  0  0  0  0  0  0  0
  -21.6220   -4.4580   23.8920 C   0  0  0  0  0  3  0  0  0  0  0  0
  -22.0290   -5.0720   22.6940 C   0  0  0  0  0  0  0  0  0  0  0  0
  -22.6480   -4.3380   21.7390 F   0  0  0  0  0  0  0  0  0  0  0  0
  -20.5630   -4.6160   26.0270 F   0  0  0  0  0  0  0  0  0  0  0  0
  -22.9880  -13.6740   21.2950 C   0  0  0  0  0  0  0  0  0  0  0  0
  -22.4200  -12.9520   22.2570 N   0  0  0  0  0  0  0  0  0  0  0  0
  -22.4310  -14.6720   20.8420 O   0  0  0  0  0  0  0  0  0  0  0  0
  -22.8860  -12.1480   22.6490 H   0  0  0  0  0  0  0  0  0  0  0  0
  -21.5080  -13.2150   22.6030 H   0  0  0  0  0  0  0  0  0  0  0  0
  -25.4650  -15.4780   20.3130 N   0  0  0  0  0  0  0  0  0  0  0  0
  -24.7010  -16.1000   20.5500 H   0  0  0  0  0  0  0  0  0  0  0  0
  -26.2640  -15.9670   19.9280 H   0  0  0  0  0  0  0  0  0  0  0  0
  -26.2670  -26.1490   20.4240 C   0  0  0  0  0  2  0  0  0  0  0  0
  -26.6940  -25.5130   19.0670 C   0  0  0  0  0  3  0  0  0  0  0  0
  -25.5450  -24.7480   18.3620 C   0  0  0  0  0  2  0  0  0  0  0  0
  -25.1480  -23.4960   19.0330 N   0  0  0  0  0  4  0  0  0  0  0  0
  -25.9250  -22.8630   19.1050 H   0  0  0  0  0  0  0  0  0  0  0  0
  -24.4180  -23.0500   18.5030 H   0  0  0  0  0  0  0  0  0  0  0  0
  -24.7930  -23.6820   19.9570 H   0  0  0  0  0  0  0  0  0  0  0  0
  -27.3280  -26.5380   18.0940 C   0  0  0  0  0  2  0  0  0  0  0  0
  -26.3420  -27.3880   17.5040 O   0  0  0  0  0  0  0  0  0  0  0  0
  -25.3800  -29.9080   24.0850 C   0  0  0  0  0  0  0  0  0  0  0  0
  -25.5760  -28.1170   18.3720 C   0  0  0  0  0  0  0  0  0  0  0  0
  -23.4550  -30.1180   22.5460 C   0  0  0  0  0  3  0  0  0  0  0  0
  -23.9380  -29.6310   20.0930 C   0  0  0  0  0  0  0  0  0  0  0  0
  -25.8420  -30.0970   21.6470 C   0  0  0  0  0  2  0  0  0  0  0  0
  -25.2930  -29.4540   20.3920 C   0  0  0  0  0  0  0  0  0  0  0  0
  -26.1190  -28.7000   19.5370 C   0  0  0  0  0  3  0  0  0  0  0  0
  -24.2160  -28.3190   18.0650 C   0  0  0  0  0  3  0  0  0  0  0  0
  -23.3910  -29.0640   18.9290 C   0  0  0  0  0  3  0  0  0  0  0  0
  -23.1240  -30.4530   21.0650 C   0  0  0  0  0  2  0  0  0  0  0  0
  -24.9260  -30.0080   22.8040 N   0  0  0  0  0  0  0  0  0  0  0  0
  -24.6010  -29.9540   25.0470 O   0  0  0  0  0  0  0  0  0  0  0  0
  -22.6660  -28.8540   22.9490 C   0  0  0  0  0  0  0  0  0  0  0  0
  -21.3630  -28.8440   22.6260 N   0  0  0  0  0  0  0  0  0  0  0  0
  -23.2250  -27.9050   23.5020 O   0  0  0  0  0  0  0  0  0  0  0  0
  -20.9850  -29.6710   22.1860 H   0  0  0  0  0  0  0  0  0  0  0  0
  -18.0580  -27.6000   21.8450 C   0  0  0  0  0  0  0  0  0  0  0  0
  -20.4290  -27.7470   22.8650 C   0  0  0  0  0  3  0  0  0  0  0  0
  -20.7680  -26.5220   21.9870 C   0  0  0  0  0  2  0  0  0  0  0  0
  -19.9980  -26.4830   20.6610 C   0  0  0  0  0  2  0  0  0  0  0  0
  -18.4880  -26.4730   20.9220 C   0  0  0  0  0  2  0  0  0  0  0  0
  -18.9720  -28.2080   22.7480 C   0  0  0  0  0  0  0  0  0  0  0  0
  -18.5290  -29.2690   23.5650 C   0  0  0  0  0  3  0  0  0  0  0  0
  -17.2000  -29.7270   23.4890 C   0  0  0  0  0  3  0  0  0  0  0  0
  -16.2960  -29.1120   22.6040 C   0  0  0  0  0  3  0  0  0  0  0  0
  -16.7210  -28.0480   21.7910 C   0  0  0  0  0  3  0  0  0  0  0  0
  -26.9000  -29.7560   24.4080 C   0  0  0  0  0  3  0  0  0  0  0  0
  -27.2600  -28.3770   25.0880 C   0  0  1  0  0  0  0  0  0  0  0  0
  -26.4740  -28.1040   26.3920 C   0  0  0  0  0  1  0  0  0  0  0  0
  -26.9850  -27.2090   24.1150 C   0  0  0  0  0  1  0  0  0  0  0  0
  -28.7720  -28.3330   25.4190 C   0  0  0  0  0  1  0  0  0  0  0  0
  -27.2860  -30.8790   25.2740 N   0  0  0  0  0  0  0  0  0  0  0  0
  -27.9550  -31.9610   24.8540 C   0  0  0  0  0  0  0  0  0  0  0  0
  -28.3780  -32.0840   23.7020 O   0  0  0  0  0  0  0  0  0  0  0  0
  -26.9360  -30.8670   26.2220 H   0  0  0  0  0  0  0  0  0  0  0  0
  -27.1930  -34.2280   25.6240 C   0  0  0  0  0  1  0  0  0  0  0  0
  -28.1910  -33.0880   25.8790 C   0  0  0  0  0  3  0  0  0  0  0  0
  -30.5570  -32.6790   26.3890 C   0  0  0  0  0  1  0  0  0  0  0  0
  -29.5710  -33.6190   25.8590 N   0  0  0  0  0  0  0  0  0  0  0  0
  -29.6360  -34.4800   26.3930 H   0  0  0  0  0  0  0  0  0  0  0  0
  1  5  1  0
  2  5  2  0
  3  1  2  0
  4  2  1  0
  5  7  1  0
  6  4  2  0
  6  3  1  0
  7  9  2  0
  8  7  1  0
  8 11  1  0
 10  8  1  0
 12 11  1  0
 13 12  1  0
 14 13  1  0
 15 14  1  0
 16 25  1  0
 16 15  1  0
 17 23  1  0
 17 25  1  0
 18 23  1  0
 19 20  1  0
 19 18  1  0
 21 20  1  0
 21 30  1  0
 21 22  1  0
 23 22  1  0
 24 17  2  0
 25 26  1  0
 27 28  2  0
 28 47  1  0
 29 28  1  0
 29 32  1  0
 30 31  1  0
 30 27  1  0
 31 29  2  0
 32 33  1  0
 33 34  2  0
 35 38  1  0
 35 34  1  0
 36 35  2  0
 37 36  1  0
 37 32  2  0
 38 39  1  0
 39 44  2  0
 39 40  1  0
 40 41  2  0
 41 42  1  0
 42 46  1  0
 43 42  2  0
 44 43  1  0
 45 44  1  0
 47 48  1  0
 48 51  1  0
 48 50  1  0
 49 47  2  0
 52 27  1  0
 52 53  1  0
 54 52  1  0
 55  6  1  0
 56 62  1  0
 56 55  1  0
 57 58  1  0
 57 56  1  0
 58 59  1  0
 58 61  1  0
 60 58  1  0
 63 62  1  0
 63 65  1  0
 64 75  2  0
 65 70  1  0
 66 74  1  0
 66 76  1  0
 67 69  1  0
 67 73  1  0
 68 74  1  0
 69 68  1  0
 70 69  2  0
 71 65  2  0
 71 72  1  0
 72 67  2  0
 73 66  1  0
 74 64  1  0
 76 78  2  0
 77 76  1  0
 79 77  1  0
 80 85  1  0
 81 77  1  0
 82 81  1  0
 83 84  1  0
 83 82  1  0
 84 80  1  0
 85 81  1  0
 85 86  2  0
 87 86  1  0
 88 87  2  0
 89 80  2  0
 89 88  1  0
 90 64  1  0
 90 91  1  0
 90 95  1  0
 91 94  1  1
 91 92  1  0
 93 91  1  0
 95 98  1  0
 96 95  1  0
 96100  1  0
 97 96  2  0
100 99  1  0
102100  1  0
102101  1  0
102103  1  0
M  ISO  4  17 100  25 100  62 101  63 101
M  END
>  <TORSDO>  (56) 
F 28

>  <SCORE>  (56) 
-5.728

>  <name>  (56) 
60

>  <ligand_id>  (56) 
60

>  <original_smiles>  (56) 
[H]c1c([H])c([H])c2c(c1[H])C([H])([H])C([H])([H])C([H])([H])C2([H])N([H])C(=O)C1([H])N(C(=O)C([H])(N([H])C(=O)C([H])(N([H])C([H])([H])[H])C([H])([H])[H])C(C([H])([H])[H])(C([H])([H])[H])C([H])([H])[H])C([H])([H])c2c([H])c(OC([H])([H])C([H])(C([H])([H])c3c([H])c([H])c(C(=O)N([H])C([H])([H])C([H])([H])C([H])([H])C([H])([H])C([H])([H])C([H])([H])N([H])C(=O)N4C([H])([H])C([H])([H])C([H])([H])C([H])(n5nc(-c6c([H])c([H])c(Oc7c([H])c([H])c(F)c([H])c7F)c([H])c6[H])c(C(=O)N([H])[H])c5N([H])[H])C4([H])[H])c([H])c3[H])C([H])([H])[N+]([H])([H])[H])c([H])c([H])c2C1([H])[H]

>  <smiles>  (56) 
[H]c1c([H])c([H])c2c(c1[H])C([H])([H])C([H])([H])C([H])([H])C2([H])N([H])C(=O)C1([H])N(C(=O)C([H])(N([H])C(=O)C([H])(N([H])C([H])([H])[H])C([H])([H])[H])C(C([H])([H])[H])(C([H])([H])[H])C([H])([H])[H])C([H])([H])c2c([H])c(OC([H])([H])C([H])(C([H])([H])c3c([H])c([H])c(C(=O)N([H])C([H])([H])C([H])([H])C([H])([H])C([H])([H])C([H])([H])C([H])([H])N([H])C(=O)N4C([H])([H])C([H])([H])C([H])([H])C([H])(n5nc(-c6c([H])c([H])c(Oc7c([H])c([H])c(F)c([H])c7F)c([H])c6[H])c(C(=O)N([H])[H])c5N([H])[H])C4([H])[H])c([H])c3[H])C([H])([H])[N+]([H])([H])[H])c([H])c([H])c2C1([H])[H]

$$$$
61:0:0
     RDKit          3D

105113  0  0  1  0  0  0  0  0999 V2000
  -27.6510  -24.0800   12.7660 C   0  0  0  0  0  0  0  0  0  0  0  0
  -28.0700  -22.8080   12.7980 N   0  0  0  0  0  0  0  0  0  0  0  0
  -28.1290  -24.9180   12.0000 O   0  0  0  0  0  0  0  0  0  0  0  0
  -27.6320  -22.1810   13.4620 H   0  0  0  0  0  0  0  0  0  0  0  0
  -29.1390  -22.2420   11.9720 C   0  0  0  0  0  2  0  0  0  0  0  0
  -30.4810  -22.1280   12.7290 C   0  0  0  0  0  2  0  0  0  0  0  0
  -30.2530  -21.0690   16.4120 C   0  0  0  0  0  3  0  0  0  0  0  0
  -30.2060  -19.0690   15.0270 C   0  0  0  0  0  3  0  0  0  0  0  0
  -30.3800  -21.8680   15.2590 C   0  0  0  0  0  3  0  0  0  0  0  0
  -30.3380  -19.8660   13.8730 C   0  0  0  0  0  3  0  0  0  0  0  0
  -30.1280  -19.6630   16.3090 C   0  0  0  0  0  0  0  0  0  0  0  0
  -30.3960  -21.2710   13.9820 C   0  0  0  0  0  0  0  0  0  0  0  0
  -29.9300  -18.7970   17.5120 C   0  0  0  0  0  0  0  0  0  0  0  0
  -30.1440  -17.5780   17.4970 O   0  0  0  0  0  0  0  0  0  0  0  0
  -29.3570  -19.4600   18.7790 C   0  0  0  0  0  2  0  0  0  0  0  0
  -29.2940  -18.5610   20.0320 C   0  0  0  0  0  2  0  0  0  0  0  0
  -30.6760  -18.3260   20.6730 C   0  0  0  0  0  2  0  0  0  0  0  0
  -30.6690  -17.3210   21.8430 C   0  0  0  0  0  2  0  0  0  0  0  0
  -30.7590  -15.2000   20.5470 C   0  0  0  0  0  0  0  0  0  0  0  0
  -30.4730  -13.1910   19.1550 C   0  0  0  0  0  2  0  0  0  0  0  0
  -29.5010  -13.4860   17.9960 C   0  0  0  0  0  2  0  0  0  0  0  0
  -28.0430  -13.2530   18.4350 C   0  0  0  0  0  2  0  0  0  0  0  0
  -27.7030  -13.9590   19.7740 C   0  0  0  0  0  3  0  0  0  0  0  0
  -28.7810  -13.6620   20.8400 C   0  0  0  0  0  2  0  0  0  0  0  0
  -30.0940  -14.0460   20.2890 N   0  0  0  0  0  0  0  0  0  0  0  0
  -31.8040  -15.5240   19.9750 O   0  0  0  0  0  0  0  0  0  0  0  0
  -30.1830  -16.0010   21.4520 N   0  0  0  0  0  0  0  0  0  0  0  0
  -29.3360  -15.6660   21.8850 H   0  0  0  0  0  0  0  0  0  0  0  0
  -25.3010  -14.4130   20.5820 C   0  0  0  0  0  0  0  0  0  0  0  0
  -24.2650  -13.5710   20.8890 C   0  0  0  0  0  0  0  0  0  0  0  0
  -24.7680  -12.2470   20.7110 C   0  0  0  0  0  0  0  0  0  0  0  0
  -26.3680  -13.5950   20.2450 N   0  0  0  0  0  0  0  0  0  0  0  0
  -26.0520  -12.2820   20.3750 N   0  0  0  0  0  0  0  0  0  0  0  0
  -24.0870  -10.9470   20.7840 C   0  0  0  0  0  0  0  0  0  0  0  0
  -24.5580   -9.9120   21.6220 C   0  0  0  0  0  3  0  0  0  0  0  0
  -23.8740   -8.6790   21.6890 C   0  0  0  0  0  3  0  0  0  0  0  0
  -22.7060   -8.4720   20.9170 C   0  0  0  0  0  0  0  0  0  0  0  0
  -22.2550   -9.4970   20.0670 C   0  0  0  0  0  3  0  0  0  0  0  0
  -22.9390  -10.7230   19.9980 C   0  0  0  0  0  3  0  0  0  0  0  0
  -21.9930   -7.2970   20.8970 O   0  0  0  0  0  0  0  0  0  0  0  0
  -21.9240   -6.4790   21.9960 C   0  0  0  0  0  0  0  0  0  0  0  0
  -21.4370   -6.9390   23.2390 C   0  0  0  0  0  3  0  0  0  0  0  0
  -21.3190   -6.0460   24.3240 C   0  0  0  0  0  3  0  0  0  0  0  0
  -21.6770   -4.6940   24.1650 C   0  0  0  0  0  0  0  0  0  0  0  0
  -22.1560   -4.2330   22.9270 C   0  0  0  0  0  3  0  0  0  0  0  0
  -22.2770   -5.1220   21.8440 C   0  0  0  0  0  0  0  0  0  0  0  0
  -22.7200   -4.6680   20.6470 F   0  0  0  0  0  0  0  0  0  0  0  0
  -21.5550   -3.8340   25.2030 F   0  0  0  0  0  0  0  0  0  0  0  0
  -22.8610  -13.9710   21.2370 C   0  0  0  0  0  0  0  0  0  0  0  0
  -22.1800  -13.1690   22.0500 N   0  0  0  0  0  0  0  0  0  0  0  0
  -22.3750  -15.0240   20.8290 O   0  0  0  0  0  0  0  0  0  0  0  0
  -22.5850  -12.3150   22.3990 H   0  0  0  0  0  0  0  0  0  0  0  0
  -21.2390  -13.4130   22.3230 H   0  0  0  0  0  0  0  0  0  0  0  0
  -25.4180  -15.7990   20.5450 N   0  0  0  0  0  0  0  0  0  0  0  0
  -24.6340  -16.4120   20.7360 H   0  0  0  0  0  0  0  0  0  0  0  0
  -26.2530  -16.2980   20.2640 H   0  0  0  0  0  0  0  0  0  0  0  0
  -26.5240  -24.4820   13.7220 C   0  0  0  0  0  2  0  0  0  0  0  0
  -27.0540  -25.1360   15.0150 C   0  0  0  0  0  2  0  0  0  0  0  0
  -27.4600  -24.0990   16.0760 C   0  0  0  0  0  2  0  0  0  0  0  0
  -28.2310  -24.6940   17.2660 C   0  0  0  0  0  2  0  0  0  0  0  0
  -28.4800  -23.6430   18.3620 C   0  0  0  0  0  2  0  0  0  0  0  0
  -29.3300  -24.1380   19.5440 C   0  0  0  0  0  2  0  0  0  0  0  0
  -28.5480  -24.9050   20.6320 C   0  0  0  0  0  2  0  0  0  0  0  0
  -29.0970  -26.3110   20.9340 C   0  0  0  0  0  2  0  0  0  0  0  0
  -28.8300  -27.2270   19.8790 O   0  0  0  0  0  0  0  0  0  0  0  0
  -24.6430  -31.9290   23.2140 C   0  0  0  0  0  0  0  0  0  0  0  0
  -27.6110  -27.8480   19.9660 C   0  0  0  0  0  0  0  0  0  0  0  0
  -23.5460  -30.5150   21.5080 C   0  0  0  0  0  3  0  0  0  0  0  0
  -25.1100  -29.1460   20.0460 C   0  0  0  0  0  0  0  0  0  0  0  0
  -26.0370  -31.0720   21.3390 C   0  0  0  0  0  2  0  0  0  0  0  0
  -26.2270  -29.7370   20.6530 C   0  0  0  0  0  0  0  0  0  0  0  0
  -27.4830  -29.0930   20.6160 C   0  0  0  0  0  3  0  0  0  0  0  0
  -26.4770  -27.2580   19.3730 C   0  0  0  0  0  3  0  0  0  0  0  0
  -25.2270  -27.9000   19.4110 C   0  0  0  0  0  3  0  0  0  0  0  0
  -23.8080  -29.9070   20.1070 C   0  0  0  0  0  2  0  0  0  0  0  0
  -24.7600  -31.1850   22.0790 N   0  0  0  0  0  0  0  0  0  0  0  0
  -23.5450  -32.0990   23.7580 O   0  0  0  0  0  0  0  0  0  0  0  0
  -22.9700  -29.4090   22.4240 C   0  0  0  0  0  0  0  0  0  0  0  0
  -21.6720  -29.1120   22.2550 N   0  0  0  0  0  0  0  0  0  0  0  0
  -23.6880  -28.8190   23.2360 O   0  0  0  0  0  0  0  0  0  0  0  0
  -21.1550  -29.6480   21.5720 H   0  0  0  0  0  0  0  0  0  0  0  0
  -18.4110  -27.5960   22.5990 C   0  0  0  0  0  0  0  0  0  0  0  0
  -20.9210  -28.0860   22.9750 C   0  0  0  0  0  3  0  0  0  0  0  0
  -21.1800  -26.6850   22.3750 C   0  0  0  0  0  2  0  0  0  0  0  0
  -20.1510  -26.2810   21.3150 C   0  0  0  0  0  2  0  0  0  0  0  0
  -18.7380  -26.2820   21.9080 C   0  0  0  0  0  2  0  0  0  0  0  0
  -19.4360  -28.4480   23.0860 C   0  0  0  0  0  0  0  0  0  0  0  0
  -19.0790  -29.6730   23.6900 C   0  0  0  0  0  3  0  0  0  0  0  0
  -17.7290  -30.0490   23.8120 C   0  0  0  0  0  3  0  0  0  0  0  0
  -16.7170  -29.1920   23.3450 C   0  0  0  0  0  3  0  0  0  0  0  0
  -17.0590  -27.9670   22.7450 C   0  0  0  0  0  3  0  0  0  0  0  0
  -25.8800  -32.6240   23.8670 C   0  0  0  0  0  3  0  0  0  0  0  0
  -25.4960  -34.0070   24.1770 N   0  0  0  0  0  0  0  0  0  0  0  0
  -25.8100  -35.0690   23.4230 C   0  0  0  0  0  0  0  0  0  0  0  0
  -26.5230  -34.9910   22.4190 O   0  0  0  0  0  0  0  0  0  0  0  0
  -24.8660  -34.1360   24.9530 H   0  0  0  0  0  0  0  0  0  0  0  0
  -24.0140  -36.7770   22.9900 C   0  0  0  0  0  1  0  0  0  0  0  0
  -25.2390  -36.4330   23.8530 C   0  0  0  0  0  3  0  0  0  0  0  0
  -27.2940  -37.4210   24.7600 C   0  0  0  0  0  1  0  0  0  0  0  0
  -26.2240  -37.5350   23.7730 N   0  0  0  0  0  0  0  0  0  0  0  0
  -25.7700  -38.4350   23.8980 H   0  0  0  0  0  0  0  0  0  0  0  0
  -26.3980  -31.8800   25.1580 C   0  0  1  0  0  0  0  0  0  0  0  0
  -25.2840  -31.5720   26.1870 C   0  0  0  0  0  1  0  0  0  0  0  0
  -27.0770  -30.5430   24.7790 C   0  0  0  0  0  1  0  0  0  0  0  0
  -27.4800  -32.7380   25.8560 C   0  0  0  0  0  1  0  0  0  0  0  0
  1  2  1  0
  1 57  1  0
  2  4  1  0
  3  1  2  0
  5  6  1  0
  5  2  1  0
  6 12  1  0
  8 11  2  0
  9  7  2  0
 10 12  2  0
 10  8  1  0
 11  7  1  0
 11 13  1  0
 12  9  1  0
 13 15  1  0
 14 13  2  0
 15 16  1  0
 16 17  1  0
 17 18  1  0
 19 27  1  0
 20 25  1  0
 21 22  1  0
 21 20  1  0
 23 22  1  0
 23 32  1  0
 23 24  1  0
 25 19  1  0
 25 24  1  0
 26 19  2  0
 27 18  1  0
 27 28  1  0
 29 30  2  0
 30 49  1  0
 31 34  1  0
 31 30  1  0
 32 33  1  0
 32 29  1  0
 33 31  2  0
 34 35  1  0
 35 36  2  0
 37 36  1  0
 38 37  2  0
 39 38  1  0
 39 34  2  0
 40 37  1  0
 40 41  1  0
 41 42  1  0
 42 43  2  0
 44 43  1  0
 44 48  1  0
 45 44  2  0
 46 41  2  0
 46 45  1  0
 47 46  1  0
 49 50  1  0
 50 53  1  0
 50 52  1  0
 51 49  2  0
 54 29  1  0
 54 55  1  0
 56 54  1  0
 57 58  1  0
 58 59  1  0
 59 60  1  0
 60 61  1  0
 61 62  1  0
 62 63  1  0
 63 64  1  0
 65 67  1  0
 65 64  1  0
 66 77  2  0
 67 72  1  0
 68 76  1  0
 68 78  1  0
 69 75  1  0
 69 71  1  0
 70 76  1  0
 71 70  1  0
 72 71  2  0
 73 74  1  0
 73 67  2  0
 74 69  2  0
 75 68  1  0
 76 66  1  0
 78 80  2  0
 79 78  1  0
 81 79  1  0
 82 91  2  0
 82 87  1  0
 83 79  1  0
 83 87  1  0
 84 83  1  0
 85 86  1  0
 85 84  1  0
 86 82  1  0
 87 88  2  0
 88 89  1  0
 90 89  2  0
 91 90  1  0
 92 66  1  0
 92 93  1  0
 92102  1  0
 93 96  1  0
 94 98  1  0
 94 93  1  0
 95 94  2  0
 98 97  1  0
100 98  1  0
100101  1  0
100 99  1  0
102105  1  1
102103  1  0
104102  1  0
M  ISO  4  19 100  27 100  64 101  65 101
M  END
>  <TORSDO>  (57) 
F 32

>  <SCORE>  (57) 
-6.739

>  <name>  (57) 
61

>  <ligand_id>  (57) 
61

>  <original_smiles>  (57) 
[H]c1c([H])c([H])c2c(c1[H])C([H])([H])C([H])([H])C([H])([H])C2([H])N([H])C(=O)C1([H])N(C(=O)C([H])(N([H])C(=O)C([H])(N([H])C([H])([H])[H])C([H])([H])[H])C(C([H])([H])[H])(C([H])([H])[H])C([H])([H])[H])C([H])([H])c2c([H])c(OC([H])([H])C([H])([H])C([H])([H])C([H])([H])C([H])([H])C([H])([H])C([H])([H])C([H])([H])C(=O)N([H])C([H])([H])C([H])([H])c3c([H])c([H])c(C(=O)C([H])([H])C([H])([H])C([H])([H])C([H])([H])N([H])C(=O)N4C([H])([H])C([H])([H])C([H])([H])C([H])(n5nc(-c6c([H])c([H])c(Oc7c([H])c([H])c(F)c([H])c7F)c([H])c6[H])c(C(=O)N([H])[H])c5N([H])[H])C4([H])[H])c([H])c3[H])c([H])c([H])c2C1([H])[H]

>  <smiles>  (57) 
[H]c1c([H])c([H])c2c(c1[H])C([H])([H])C([H])([H])C([H])([H])C2([H])N([H])C(=O)C1([H])N(C(=O)C([H])(N([H])C(=O)C([H])(N([H])C([H])([H])[H])C([H])([H])[H])C(C([H])([H])[H])(C([H])([H])[H])C([H])([H])[H])C([H])([H])c2c([H])c(OC([H])([H])C([H])([H])C([H])([H])C([H])([H])C([H])([H])C([H])([H])C([H])([H])C([H])([H])C(=O)N([H])C([H])([H])C([H])([H])c3c([H])c([H])c(C(=O)C([H])([H])C([H])([H])C([H])([H])C([H])([H])N([H])C(=O)N4C([H])([H])C([H])([H])C([H])([H])C([H])(n5nc(-c6c([H])c([H])c(Oc7c([H])c([H])c(F)c([H])c7F)c([H])c6[H])c(C(=O)N([H])[H])c5N([H])[H])C4([H])[H])c([H])c3[H])c([H])c([H])c2C1([H])[H]

$$$$
62:0:0
     RDKit          3D

 91 98  0  0  1  0  0  0  0  0999 V2000
  -29.6970  -23.1080   20.6680 N   0  0  0  0  0  4  0  0  0  0  0  0
  -29.5030  -23.1960   21.6550 H   0  0  0  0  0  0  0  0  0  0  0  0
  -30.6810  -22.9160   20.5740 H   0  0  0  0  0  0  0  0  0  0  0  0
  -29.4460  -24.4170   19.9650 C   0  0  0  0  0  2  0  0  0  0  0  0
  -28.3500  -25.3320   20.5910 C   0  0  0  0  0  2  0  0  0  0  0  0
  -28.4250  -26.7000   20.1100 O   0  0  0  0  0  0  0  0  0  0  0  0
  -24.6290  -31.9040   23.2270 C   0  0  0  0  0  0  0  0  0  0  0  0
  -27.2570  -27.4430   20.1340 C   0  0  0  0  0  0  0  0  0  0  0  0
  -23.4140  -30.5020   21.5910 C   0  0  0  0  0  3  0  0  0  0  0  0
  -24.8600  -28.9650   20.1570 C   0  0  0  0  0  0  0  0  0  0  0  0
  -25.9390  -30.8590   21.3770 C   0  0  0  0  0  2  0  0  0  0  0  0
  -26.0240  -29.4850   20.7370 C   0  0  0  0  0  0  0  0  0  0  0  0
  -27.2260  -28.7350   20.7170 C   0  0  0  0  0  3  0  0  0  0  0  0
  -26.0760  -26.9480   19.5350 C   0  0  0  0  0  3  0  0  0  0  0  0
  -24.8830  -27.6960   19.5490 C   0  0  0  0  0  3  0  0  0  0  0  0
  -23.6170  -29.8250   20.2100 C   0  0  0  0  0  2  0  0  0  0  0  0
  -24.6790  -31.1040   22.1230 N   0  0  0  0  0  0  0  0  0  0  0  0
  -23.5500  -32.1720   23.7750 O   0  0  0  0  0  0  0  0  0  0  0  0
  -22.7690  -29.4790   22.5560 C   0  0  0  0  0  0  0  0  0  0  0  0
  -21.4440  -29.2910   22.4330 N   0  0  0  0  0  0  0  0  0  0  0  0
  -23.4570  -28.8550   23.3670 O   0  0  0  0  0  0  0  0  0  0  0  0
  -20.9500  -29.8460   21.7500 H   0  0  0  0  0  0  0  0  0  0  0  0
  -18.0770  -28.0750   22.9410 C   0  0  0  0  0  0  0  0  0  0  0  0
  -20.6340  -28.3500   23.2060 C   0  0  0  0  0  3  0  0  0  0  0  0
  -20.7450  -26.9180   22.6350 C   0  0  0  0  0  2  0  0  0  0  0  0
  -19.6430  -26.5850   21.6230 C   0  0  0  0  0  2  0  0  0  0  0  0
  -18.2610  -26.7250   22.2670 C   0  0  0  0  0  2  0  0  0  0  0  0
  -19.1920  -28.8440   23.3670 C   0  0  0  0  0  0  0  0  0  0  0  0
  -18.9680  -30.1070   23.9550 C   0  0  0  0  0  3  0  0  0  0  0  0
  -17.6610  -30.6040   24.1200 C   0  0  0  0  0  3  0  0  0  0  0  0
  -16.5600  -29.8320   23.7090 C   0  0  0  0  0  3  0  0  0  0  0  0
  -16.7680  -28.5690   23.1270 C   0  0  0  0  0  3  0  0  0  0  0  0
  -25.9180  -32.5370   23.8370 C   0  0  0  0  0  3  0  0  0  0  0  0
  -26.4460  -31.7660   25.1090 C   0  0  1  0  0  0  0  0  0  0  0  0
  -25.3620  -31.5260   26.1860 C   0  0  0  0  0  1  0  0  0  0  0  0
  -27.0250  -30.3880   24.7090 C   0  0  0  0  0  1  0  0  0  0  0  0
  -27.6010  -32.5610   25.7610 C   0  0  0  0  0  1  0  0  0  0  0  0
  -25.6100  -33.9350   24.1690 N   0  0  0  0  0  0  0  0  0  0  0  0
  -25.9340  -34.9870   23.4060 C   0  0  0  0  0  0  0  0  0  0  0  0
  -26.6000  -34.8840   22.3720 O   0  0  0  0  0  0  0  0  0  0  0  0
  -25.0190  -34.0870   24.9740 H   0  0  0  0  0  0  0  0  0  0  0  0
  -24.2010  -36.7760   23.0570 C   0  0  0  0  0  1  0  0  0  0  0  0
  -25.4450  -36.3740   23.8640 C   0  0  0  0  0  3  0  0  0  0  0  0
  -27.5840  -37.2610   24.6810 C   0  0  0  0  0  1  0  0  0  0  0  0
  -26.4770  -37.4300   23.7460 N   0  0  0  0  0  0  0  0  0  0  0  0
  -26.0690  -38.3480   23.9010 H   0  0  0  0  0  0  0  0  0  0  0  0
  -28.9850  -21.8800   20.1990 C   0  0  0  0  0  3  0  0  0  0  0  0
  -27.6570  -21.8570   20.9660 C   0  0  0  0  0  3  0  0  0  0  0  0
  -27.5380  -22.2620   22.1270 O   0  0  0  0  0  0  0  0  0  0  0  0
  -29.8030  -20.5510   20.4380 C   0  0  0  0  0  3  0  0  0  0  0  0
  -29.0900  -19.2260   20.0010 C   0  0  0  0  0  3  0  0  0  0  0  0
  -29.9390  -17.9160   19.8360 C   0  0  0  0  0  2  0  0  0  0  0  0
  -30.1720  -17.0240   21.0960 C   0  0  0  0  0  2  0  0  0  0  0  0
  -30.6350  -14.5760   20.4450 C   0  0  0  0  0  0  0  0  0  0  0  0
  -30.3910  -12.3960   19.3000 C   0  0  0  0  0  2  0  0  0  0  0  0
  -29.4430  -12.5670   18.0930 C   0  0  0  0  0  2  0  0  0  0  0  0
  -27.9670  -12.4300   18.5200 C   0  0  0  0  0  2  0  0  0  0  0  0
  -27.6230  -13.2730   19.7750 C   0  0  0  0  0  3  0  0  0  0  0  0
  -28.6750  -13.0530   20.8850 C   0  0  0  0  0  2  0  0  0  0  0  0
  -29.9960  -13.3800   20.3200 N   0  0  0  0  0  0  0  0  0  0  0  0
  -31.7790  -14.7710   20.0250 O   0  0  0  0  0  0  0  0  0  0  0  0
  -29.8630  -15.5850   20.9110 N   0  0  0  0  0  0  0  0  0  0  0  0
  -28.9340  -15.3040   21.1850 H   0  0  0  0  0  0  0  0  0  0  0  0
  -25.2180  -13.8900   20.4580 C   0  0  0  0  0  0  0  0  0  0  0  0
  -24.1480  -13.1220   20.8320 C   0  0  0  0  0  0  0  0  0  0  0  0
  -24.6100  -11.7700   20.8240 C   0  0  0  0  0  0  0  0  0  0  0  0
  -26.2660  -13.0060   20.2490 N   0  0  0  0  0  0  0  0  0  0  0  0
  -25.9040  -11.7270   20.5280 N   0  0  0  0  0  0  0  0  0  0  0  0
  -23.8830  -10.5110   21.0280 C   0  0  0  0  0  0  0  0  0  0  0  0
  -24.3190   -9.5510   21.9680 C   0  0  0  0  0  3  0  0  0  0  0  0
  -23.5940   -8.3540   22.1570 C   0  0  0  0  0  3  0  0  0  0  0  0
  -22.4180   -8.1100   21.4070 C   0  0  0  0  0  0  0  0  0  0  0  0
  -22.0040   -9.0580   20.4550 C   0  0  0  0  0  3  0  0  0  0  0  0
  -22.7300  -10.2460   20.2640 C   0  0  0  0  0  3  0  0  0  0  0  0
  -21.6660   -6.9660   21.5060 O   0  0  0  0  0  0  0  0  0  0  0  0
  -21.6290   -6.2250   22.6600 C   0  0  0  0  0  0  0  0  0  0  0  0
  -21.2290   -6.7850   23.8920 C   0  0  0  0  0  3  0  0  0  0  0  0
  -21.1390   -5.9700   25.0390 C   0  0  0  0  0  3  0  0  0  0  0  0
  -21.4420   -4.5980   24.9550 C   0  0  0  0  0  0  0  0  0  0  0  0
  -21.8350   -4.0380   23.7270 C   0  0  0  0  0  3  0  0  0  0  0  0
  -21.9260   -4.8490   22.5820 C   0  0  0  0  0  0  0  0  0  0  0  0
  -22.2860   -4.3000   21.3970 F   0  0  0  0  0  0  0  0  0  0  0  0
  -21.3480   -3.8140   26.0540 F   0  0  0  0  0  0  0  0  0  0  0  0
  -22.7480  -13.6020   21.0850 C   0  0  0  0  0  0  0  0  0  0  0  0
  -22.0130  -12.9170   21.9550 N   0  0  0  0  0  0  0  0  0  0  0  0
  -22.3130  -14.6180   20.5450 O   0  0  0  0  0  0  0  0  0  0  0  0
  -22.3760  -12.0950   22.4120 H   0  0  0  0  0  0  0  0  0  0  0  0
  -21.0730  -13.2220   22.1660 H   0  0  0  0  0  0  0  0  0  0  0  0
  -25.3850  -15.2580   20.2590 N   0  0  0  0  0  0  0  0  0  0  0  0
  -24.6170  -15.9140   20.3450 H   0  0  0  0  0  0  0  0  0  0  0  0
  -26.2330  -15.6870   19.9090 H   0  0  0  0  0  0  0  0  0  0  0  0
  1  2  1  0
  3  1  1  0
  4  5  1  0
  4  1  1  0
  6  8  1  0
  6  5  1  0
  7 18  2  0
  8 13  1  0
  9 17  1  0
  9 19  1  0
 10 16  1  0
 10 12  1  0
 11 17  1  0
 12 11  1  0
 13 12  2  0
 14 15  1  0
 14  8  2  0
 15 10  2  0
 16  9  1  0
 17  7  1  0
 19 21  2  0
 20 19  1  0
 22 20  1  0
 23 32  2  0
 23 28  1  0
 24 20  1  0
 24 28  1  0
 25 24  1  0
 26 27  1  0
 26 25  1  0
 27 23  1  0
 28 29  2  0
 29 30  1  0
 31 30  2  0
 32 31  1  0
 33  7  1  0
 33 38  1  0
 33 34  1  0
 34 37  1  1
 34 35  1  0
 36 34  1  0
 38 41  1  0
 39 43  1  0
 39 38  1  0
 40 39  2  0
 43 42  1  0
 45 43  1  0
 45 46  1  0
 45 44  1  0
 47 50  1  0
 47  1  1  0
 47 48  1  0
 48 49  2  0
 51 50  2  0
 52 51  1  0
 52 53  1  0
 54 62  1  0
 55 60  1  0
 56 57  1  0
 56 55  1  0
 58 57  1  0
 58 67  1  0
 58 59  1  0
 60 54  1  0
 60 59  1  0
 61 54  2  0
 62 53  1  0
 62 63  1  0
 64 65  2  0
 65 84  1  0
 66 65  1  0
 66 69  1  0
 67 64  1  0
 67 68  1  0
 68 66  2  0
 69 70  1  0
 70 71  2  0
 72 75  1  0
 72 71  1  0
 73 72  2  0
 74 73  1  0
 74 69  2  0
 75 76  1  0
 76 77  1  0
 77 78  2  0
 79 78  1  0
 79 83  1  0
 80 79  2  0
 81 76  2  0
 81 80  1  0
 82 81  1  0
 84 85  1  0
 85 88  1  0
 85 87  1  0
 86 84  2  0
 89 90  1  0
 89 64  1  0
 91 89  1  0
M  ISO  4   5 101   6 101  54 100  62 100
M  END
>  <TORSDO>  (58) 
F 24

>  <SCORE>  (58) 
-12.202

>  <name>  (58) 
62

>  <ligand_id>  (58) 
62

>  <original_smiles>  (58) 
[H]C(=O)C([H])(C([H])([H])C([H])([H])C([H])([H])C([H])([H])N([H])C(=O)N1C([H])([H])C([H])([H])C([H])([H])C([H])(n2nc(-c3c([H])c([H])c(Oc4c([H])c([H])c(F)c([H])c4F)c([H])c3[H])c(C(=O)N([H])[H])c2N([H])[H])C1([H])[H])[N+]([H])([H])C([H])([H])C([H])([H])Oc1c([H])c([H])c2c(c1[H])C([H])([H])N(C(=O)C([H])(N([H])C(=O)C([H])(N([H])C([H])([H])[H])C([H])([H])[H])C(C([H])([H])[H])(C([H])([H])[H])C([H])([H])[H])C([H])(C(=O)N([H])C1([H])c3c([H])c([H])c([H])c([H])c3C([H])([H])C([H])([H])C1([H])[H])C2([H])[H]

>  <smiles>  (58) 
[H]C(=O)C([H])(C([H])([H])C([H])([H])C([H])([H])C([H])([H])N([H])C(=O)N1C([H])([H])C([H])([H])C([H])([H])C([H])(n2nc(-c3c([H])c([H])c(Oc4c([H])c([H])c(F)c([H])c4F)c([H])c3[H])c(C(=O)N([H])[H])c2N([H])[H])C1([H])[H])[N+]([H])([H])C([H])([H])C([H])([H])Oc1c([H])c([H])c2c(c1[H])C([H])([H])N(C(=O)C([H])(N([H])C(=O)C([H])(N([H])C([H])([H])[H])C([H])([H])[H])C(C([H])([H])[H])(C([H])([H])[H])C([H])([H])[H])C([H])(C(=O)N([H])C1([H])c3c([H])c([H])c([H])c([H])c3C([H])([H])C([H])([H])C1([H])[H])C2([H])[H]

$$$$
63:0:0
     RDKit          3D

 92 99  0  0  1  0  0  0  0  0999 V2000
  -26.3330  -21.5740   19.5190 C   0  0  0  0  0  1  0  0  0  0  0  0
  -27.7550  -21.9850   19.0930 C   0  0  0  0  0  3  0  0  0  0  0  0
  -28.3190  -23.0330   19.9750 N   0  0  0  0  0  4  0  0  0  0  0  0
  -28.1240  -22.7970   20.9360 H   0  0  0  0  0  0  0  0  0  0  0  0
  -29.3230  -23.0270   19.8640 H   0  0  0  0  0  0  0  0  0  0  0  0
  -27.8390  -24.3980   19.6670 C   0  0  0  0  0  2  0  0  0  0  0  0
  -28.4190  -25.4800   20.6010 C   0  0  0  0  0  2  0  0  0  0  0  0
  -28.4330  -26.7820   20.0060 O   0  0  0  0  0  0  0  0  0  0  0  0
  -24.6570  -31.9030   23.1930 C   0  0  0  0  0  0  0  0  0  0  0  0
  -27.2560  -27.4910   20.0470 C   0  0  0  0  0  0  0  0  0  0  0  0
  -23.4330  -30.5250   21.5490 C   0  0  0  0  0  3  0  0  0  0  0  0
  -24.8640  -28.9940   20.1010 C   0  0  0  0  0  0  0  0  0  0  0  0
  -25.9550  -30.8750   21.3290 C   0  0  0  0  0  2  0  0  0  0  0  0
  -26.0300  -29.5060   20.6890 C   0  0  0  0  0  0  0  0  0  0  0  0
  -27.2270  -28.7590   20.6670 C   0  0  0  0  0  3  0  0  0  0  0  0
  -26.0820  -27.0090   19.4260 C   0  0  0  0  0  3  0  0  0  0  0  0
  -24.8830  -27.7400   19.4720 C   0  0  0  0  0  3  0  0  0  0  0  0
  -23.6250  -29.8590   20.1620 C   0  0  0  0  0  2  0  0  0  0  0  0
  -24.7020  -31.1130   22.0830 N   0  0  0  0  0  0  0  0  0  0  0  0
  -23.5800  -32.1780   23.7410 O   0  0  0  0  0  0  0  0  0  0  0  0
  -22.7840  -29.4970   22.4990 C   0  0  0  0  0  0  0  0  0  0  0  0
  -21.4600  -29.3170   22.3670 N   0  0  0  0  0  0  0  0  0  0  0  0
  -23.4660  -28.8610   23.3070 O   0  0  0  0  0  0  0  0  0  0  0  0
  -20.9770  -29.8840   21.6840 H   0  0  0  0  0  0  0  0  0  0  0  0
  -18.0810  -28.1250   22.8380 C   0  0  0  0  0  0  0  0  0  0  0  0
  -20.6380  -28.3750   23.1240 C   0  0  0  0  0  3  0  0  0  0  0  0
  -20.7400  -26.9480   22.5400 C   0  0  0  0  0  2  0  0  0  0  0  0
  -19.6420  -26.6330   21.5180 C   0  0  0  0  0  2  0  0  0  0  0  0
  -18.2580  -26.7780   22.1560 C   0  0  0  0  0  2  0  0  0  0  0  0
  -19.2010  -28.8820   23.2760 C   0  0  0  0  0  0  0  0  0  0  0  0
  -18.9820  -30.1450   23.8690 C   0  0  0  0  0  3  0  0  0  0  0  0
  -17.6770  -30.6490   24.0300 C   0  0  0  0  0  3  0  0  0  0  0  0
  -16.5730  -29.8890   23.6080 C   0  0  0  0  0  3  0  0  0  0  0  0
  -16.7770  -28.6270   23.0210 C   0  0  0  0  0  3  0  0  0  0  0  0
  -25.9520  -32.5120   23.8150 C   0  0  0  0  0  3  0  0  0  0  0  0
  -26.4750  -31.7150   25.0710 C   0  0  1  0  0  0  0  0  0  0  0  0
  -25.3880  -31.4550   26.1420 C   0  0  0  0  0  1  0  0  0  0  0  0
  -27.0500  -30.3450   24.6420 C   0  0  0  0  0  1  0  0  0  0  0  0
  -27.6400  -32.4880   25.7360 C   0  0  0  0  0  1  0  0  0  0  0  0
  -25.6560  -33.9050   24.1660 N   0  0  0  0  0  0  0  0  0  0  0  0
  -25.9840  -34.9640   23.4110 C   0  0  0  0  0  0  0  0  0  0  0  0
  -26.6430  -34.8690   22.3710 O   0  0  0  0  0  0  0  0  0  0  0  0
  -25.0730  -34.0520   24.9760 H   0  0  0  0  0  0  0  0  0  0  0  0
  -24.2530  -36.7590   23.0950 C   0  0  0  0  0  1  0  0  0  0  0  0
  -25.5050  -36.3490   23.8850 C   0  0  0  0  0  3  0  0  0  0  0  0
  -27.6600  -37.2160   24.6850 C   0  0  0  0  0  1  0  0  0  0  0  0
  -26.5370  -37.4020   23.7680 N   0  0  0  0  0  0  0  0  0  0  0  0
  -26.1360  -38.3200   23.9390 H   0  0  0  0  0  0  0  0  0  0  0  0
  -28.7150  -20.7860   18.9850 C   0  0  0  0  0  2  0  0  0  0  0  0
  -28.8010  -19.8900   20.2330 C   0  0  0  0  0  2  0  0  0  0  0  0
  -30.0110  -18.9520   20.1470 C   0  0  0  0  0  2  0  0  0  0  0  0
  -30.0480  -17.8990   21.2590 C   0  0  0  0  0  2  0  0  0  0  0  0
  -31.4070  -17.1830   21.2800 C   0  0  0  0  0  2  0  0  0  0  0  0
  -31.3960  -15.8300   22.0100 C   0  0  0  0  0  2  0  0  0  0  0  0
  -30.7400  -14.2220   20.2120 C   0  0  0  0  0  0  0  0  0  0  0  0
  -30.2350  -12.1980   18.8950 C   0  0  0  0  0  2  0  0  0  0  0  0
  -29.2330  -12.4330   17.7530 C   0  0  0  0  0  2  0  0  0  0  0  0
  -27.7890  -12.3030   18.2660 C   0  0  0  0  0  2  0  0  0  0  0  0
  -27.5340  -13.1470   19.5420 C   0  0  0  0  0  3  0  0  0  0  0  0
  -28.6310  -12.8960   20.5980 C   0  0  0  0  0  2  0  0  0  0  0  0
  -29.9480  -13.1440   19.9850 N   0  0  0  0  0  0  0  0  0  0  0  0
  -31.6790  -14.5390   19.4760 O   0  0  0  0  0  0  0  0  0  0  0  0
  -30.5200  -14.8440   21.3790 N   0  0  0  0  0  0  0  0  0  0  0  0
  -29.7310  -14.5160   21.9180 H   0  0  0  0  0  0  0  0  0  0  0  0
  -25.1810  -13.7970   20.3720 C   0  0  0  0  0  0  0  0  0  0  0  0
  -24.1190  -13.0390   20.7890 C   0  0  0  0  0  0  0  0  0  0  0  0
  -24.5550  -11.6800   20.7290 C   0  0  0  0  0  0  0  0  0  0  0  0
  -26.1990  -12.8970   20.0850 N   0  0  0  0  0  0  0  0  0  0  0  0
  -25.8260  -11.6190   20.3560 N   0  0  0  0  0  0  0  0  0  0  0  0
  -23.8180  -10.4290   20.9500 C   0  0  0  0  0  0  0  0  0  0  0  0
  -24.2740   -9.4540   21.8660 C   0  0  0  0  0  3  0  0  0  0  0  0
  -23.5380   -8.2680   22.0740 C   0  0  0  0  0  3  0  0  0  0  0  0
  -22.3340   -8.0470   21.3670 C   0  0  0  0  0  0  0  0  0  0  0  0
  -21.8970   -9.0090   20.4400 C   0  0  0  0  0  3  0  0  0  0  0  0
  -22.6320  -10.1870   20.2300 C   0  0  0  0  0  3  0  0  0  0  0  0
  -21.5680   -6.9120   21.4850 O   0  0  0  0  0  0  0  0  0  0  0  0
  -21.5520   -6.1700   22.6390 C   0  0  0  0  0  0  0  0  0  0  0  0
  -21.1960   -6.7360   23.8820 C   0  0  0  0  0  3  0  0  0  0  0  0
  -21.1270   -5.9220   25.0310 C   0  0  0  0  0  3  0  0  0  0  0  0
  -21.4020   -4.5450   24.9370 C   0  0  0  0  0  0  0  0  0  0  0  0
  -21.7510   -3.9790   23.6980 C   0  0  0  0  0  3  0  0  0  0  0  0
  -21.8230   -4.7890   22.5510 C   0  0  0  0  0  0  0  0  0  0  0  0
  -22.1400   -4.2350   21.3570 F   0  0  0  0  0  0  0  0  0  0  0  0
  -21.3270   -3.7610   26.0380 F   0  0  0  0  0  0  0  0  0  0  0  0
  -22.7460  -13.5380   21.1320 C   0  0  0  0  0  0  0  0  0  0  0  0
  -22.0480  -12.8460   22.0290 N   0  0  0  0  0  0  0  0  0  0  0  0
  -22.3010  -14.5730   20.6430 O   0  0  0  0  0  0  0  0  0  0  0  0
  -22.4220  -12.0050   22.4460 H   0  0  0  0  0  0  0  0  0  0  0  0
  -21.1270  -13.1600   22.2980 H   0  0  0  0  0  0  0  0  0  0  0  0
  -25.3630  -15.1630   20.1940 N   0  0  0  0  0  0  0  0  0  0  0  0
  -24.6190  -15.8340   20.3510 H   0  0  0  0  0  0  0  0  0  0  0  0
  -26.2110  -15.5870   19.8390 H   0  0  0  0  0  0  0  0  0  0  0  0
  2  1  1  0
  2  3  1  0
  3  4  1  0
  5  3  1  0
  6  3  1  0
  6  7  1  0
  8 10  1  0
  8  7  1  0
  9 20  2  0
 10 15  1  0
 11 19  1  0
 11 21  1  0
 12 18  1  0
 12 14  1  0
 13 19  1  0
 14 13  1  0
 15 14  2  0
 16 17  1  0
 16 10  2  0
 17 12  2  0
 18 11  1  0
 19  9  1  0
 21 23  2  0
 22 21  1  0
 24 22  1  0
 25 34  2  0
 25 30  1  0
 26 22  1  0
 26 30  1  0
 27 26  1  0
 28 29  1  0
 28 27  1  0
 29 25  1  0
 30 31  2  0
 31 32  1  0
 33 32  2  0
 34 33  1  0
 35  9  1  0
 35 40  1  0
 35 36  1  0
 36 39  1  1
 36 37  1  0
 38 36  1  0
 40 43  1  0
 41 45  1  0
 41 40  1  0
 42 41  2  0
 45 44  1  0
 47 45  1  0
 47 48  1  0
 47 46  1  0
 49  2  1  0
 49 50  1  0
 51 50  1  0
 51 52  1  0
 52 53  1  0
 53 54  1  0
 55 63  1  0
 56 61  1  0
 57 58  1  0
 57 56  1  0
 59 58  1  0
 59 68  1  0
 59 60  1  0
 61 55  1  0
 61 60  1  0
 62 55  2  0
 63 64  1  0
 63 54  1  0
 65 66  2  0
 66 85  1  0
 67 66  1  0
 67 70  1  0
 68 69  1  0
 68 65  1  0
 69 67  2  0
 70 71  1  0
 71 72  2  0
 73 76  1  0
 73 72  1  0
 74 73  2  0
 75 74  1  0
 75 70  2  0
 76 77  1  0
 77 78  1  0
 78 79  2  0
 80 79  1  0
 80 84  1  0
 81 80  2  0
 82 77  2  0
 82 81  1  0
 83 82  1  0
 85 86  1  0
 86 89  1  0
 86 88  1  0
 87 85  2  0
 90 91  1  0
 90 65  1  0
 92 90  1  0
M  ISO  4   7 101   8 101  55 100  63 100
M  END
>  <TORSDO>  (59) 
F 25

>  <SCORE>  (59) 
-11.362

>  <name>  (59) 
63

>  <ligand_id>  (59) 
63

>  <original_smiles>  (59) 
[H]c1c([H])c([H])c2c(c1[H])C([H])([H])C([H])([H])C([H])([H])C2([H])N([H])C(=O)C1([H])N(C(=O)C([H])(N([H])C(=O)C([H])(N([H])C([H])([H])[H])C([H])([H])[H])C(C([H])([H])[H])(C([H])([H])[H])C([H])([H])[H])C([H])([H])c2c([H])c(OC([H])([H])C([H])([H])[N+]([H])([H])C([H])(C([H])([H])[H])C([H])([H])C([H])([H])C([H])([H])C([H])([H])C([H])([H])C([H])([H])N([H])C(=O)N3C([H])([H])C([H])([H])C([H])([H])C([H])(n4nc(-c5c([H])c([H])c(Oc6c([H])c([H])c(F)c([H])c6F)c([H])c5[H])c(C(=O)N([H])[H])c4N([H])[H])C3([H])[H])c([H])c([H])c2C1([H])[H]

>  <smiles>  (59) 
[H]c1c([H])c([H])c2c(c1[H])C([H])([H])C([H])([H])C([H])([H])C2([H])N([H])C(=O)C1([H])N(C(=O)C([H])(N([H])C(=O)C([H])(N([H])C([H])([H])[H])C([H])([H])[H])C(C([H])([H])[H])(C([H])([H])[H])C([H])([H])[H])C([H])([H])c2c([H])c(OC([H])([H])C([H])([H])[N+]([H])([H])C([H])(C([H])([H])[H])C([H])([H])C([H])([H])C([H])([H])C([H])([H])C([H])([H])C([H])([H])N([H])C(=O)N3C([H])([H])C([H])([H])C([H])([H])C([H])(n4nc(-c5c([H])c([H])c(Oc6c([H])c([H])c(F)c([H])c6F)c([H])c5[H])c(C(=O)N([H])[H])c4N([H])[H])C3([H])[H])c([H])c([H])c2C1([H])[H]

$$$$
64:0:0
     RDKit          3D

 92100  0  0  1  0  0  0  0  0999 V2000
  -30.8990  -21.6300   21.6580 C   0  0  0  0  0  3  0  0  0  0  0  0
  -30.7310  -22.9890   21.3270 C   0  0  0  0  0  3  0  0  0  0  0  0
  -28.4850  -21.3660   21.7470 C   0  0  0  0  0  3  0  0  0  0  0  0
  -29.7750  -20.8200   21.9080 C   0  0  0  0  0  0  0  0  0  0  0  0
  -29.4420  -23.5610   21.2430 C   0  0  0  0  0  0  0  0  0  0  0  0
  -28.3050  -22.7270   21.4160 C   0  0  0  0  0  0  0  0  0  0  0  0
  -26.8790  -23.2410   21.2860 C   0  0  0  0  0  1  0  0  0  0  0  0
  -29.9320  -19.4000   22.4390 C   0  0  0  0  0  2  0  0  0  0  0  0
  -29.7830  -18.2850   21.3920 C   0  0  0  0  0  2  0  0  0  0  0  0
  -31.0520  -18.0590   20.5570 C   0  0  0  0  0  2  0  0  0  0  0  0
  -30.9330  -16.8950   19.5630 C   0  0  0  0  0  2  0  0  0  0  0  0
  -31.4070  -14.5090   20.0490 C   0  0  0  0  0  0  0  0  0  0  0  0
  -31.0190  -12.2920   19.0880 C   0  0  0  0  0  2  0  0  0  0  0  0
  -30.0730  -12.4850   17.8830 C   0  0  0  0  0  2  0  0  0  0  0  0
  -28.6000  -12.4310   18.3350 C   0  0  0  0  0  2  0  0  0  0  0  0
  -28.3100  -13.3450   19.5560 C   0  0  0  0  0  3  0  0  0  0  0  0
  -29.3760  -13.1520   20.6610 C   0  0  0  0  0  2  0  0  0  0  0  0
  -30.7040  -13.3480   20.0570 N   0  0  0  0  0  0  0  0  0  0  0  0
  -32.5700  -14.6010   19.6500 O   0  0  0  0  0  0  0  0  0  0  0  0
  -30.6510  -15.6030   20.2010 N   0  0  0  0  0  0  0  0  0  0  0  0
  -29.6980  -15.4390   20.4880 H   0  0  0  0  0  0  0  0  0  0  0  0
  -25.9890  -14.0830   20.3890 C   0  0  0  0  0  0  0  0  0  0  0  0
  -24.8770  -13.3700   20.7480 C   0  0  0  0  0  0  0  0  0  0  0  0
  -25.2340  -11.9920   20.6190 C   0  0  0  0  0  0  0  0  0  0  0  0
  -26.9570  -13.1440   20.0680 N   0  0  0  0  0  0  0  0  0  0  0  0
  -26.5070  -11.8780   20.2640 N   0  0  0  0  0  0  0  0  0  0  0  0
  -24.4220  -10.7780   20.7560 C   0  0  0  0  0  0  0  0  0  0  0  0
  -24.7830   -9.7460   21.6500 C   0  0  0  0  0  3  0  0  0  0  0  0
  -23.9760   -8.5940   21.7780 C   0  0  0  0  0  3  0  0  0  0  0  0
  -22.7930   -8.4670   21.0120 C   0  0  0  0  0  0  0  0  0  0  0  0
  -22.4510   -9.4880   20.1060 C   0  0  0  0  0  3  0  0  0  0  0  0
  -23.2580  -10.6310   19.9760 C   0  0  0  0  0  3  0  0  0  0  0  0
  -21.9620   -7.3740   21.0510 O   0  0  0  0  0  0  0  0  0  0  0  0
  -21.8120   -6.6260   22.1900 C   0  0  0  0  0  0  0  0  0  0  0  0
  -21.3560   -7.1940   23.4000 C   0  0  0  0  0  3  0  0  0  0  0  0
  -21.1490   -6.3750   24.5280 C   0  0  0  0  0  3  0  0  0  0  0  0
  -21.3880   -4.9910   24.4470 C   0  0  0  0  0  0  0  0  0  0  0  0
  -21.8350   -4.4220   23.2410 C   0  0  0  0  0  3  0  0  0  0  0  0
  -22.0450   -5.2380   22.1150 C   0  0  0  0  0  0  0  0  0  0  0  0
  -22.4570   -4.6830   20.9500 F   0  0  0  0  0  0  0  0  0  0  0  0
  -21.1810   -4.2020   25.5270 F   0  0  0  0  0  0  0  0  0  0  0  0
  -23.5280  -13.9290   21.0970 C   0  0  0  0  0  0  0  0  0  0  0  0
  -22.7850  -13.2450   21.9590 N   0  0  0  0  0  0  0  0  0  0  0  0
  -23.1450  -15.0080   20.6440 O   0  0  0  0  0  0  0  0  0  0  0  0
  -23.1060  -12.3710   22.3480 H   0  0  0  0  0  0  0  0  0  0  0  0
  -21.8790  -13.6000   22.2350 H   0  0  0  0  0  0  0  0  0  0  0  0
  -26.2490  -15.4470   20.2890 N   0  0  0  0  0  0  0  0  0  0  0  0
  -25.5360  -16.1460   20.4640 H   0  0  0  0  0  0  0  0  0  0  0  0
  -27.1140  -15.8460   19.9440 H   0  0  0  0  0  0  0  0  0  0  0  0
  -29.3300  -25.0750   21.0550 C   0  0  0  0  0  2  0  0  0  0  0  0
  -28.7720  -25.5190   19.6960 C   0  0  0  0  0  2  0  0  0  0  0  0
  -28.6930  -26.9500   19.6850 O   0  0  0  0  0  0  0  0  0  0  0  0
  -24.6090  -31.6910   23.0590 C   0  0  0  0  0  0  0  0  0  0  0  0
  -27.4590  -27.5610   19.7470 C   0  0  0  0  0  0  0  0  0  0  0  0
  -23.4650  -30.3170   21.3510 C   0  0  0  0  0  3  0  0  0  0  0  0
  -24.9820  -28.9270   19.8500 C   0  0  0  0  0  0  0  0  0  0  0  0
  -25.9660  -30.8140   21.1630 C   0  0  0  0  0  2  0  0  0  0  0  0
  -26.1150  -29.4820   20.4570 C   0  0  0  0  0  0  0  0  0  0  0  0
  -27.3540  -28.8080   20.4020 C   0  0  0  0  0  3  0  0  0  0  0  0
  -26.3070  -27.0200   19.1270 C   0  0  0  0  0  3  0  0  0  0  0  0
  -25.0730  -27.6930   19.1850 C   0  0  0  0  0  3  0  0  0  0  0  0
  -23.6980  -29.7190   19.9390 C   0  0  0  0  0  2  0  0  0  0  0  0
  -24.6980  -30.9530   21.9180 N   0  0  0  0  0  0  0  0  0  0  0  0
  -23.5200  -31.8810   23.6160 O   0  0  0  0  0  0  0  0  0  0  0  0
  -22.8720  -29.2160   22.2600 C   0  0  0  0  0  0  0  0  0  0  0  0
  -21.5490  -29.0060   22.1600 N   0  0  0  0  0  0  0  0  0  0  0  0
  -23.5950  -28.5600   23.0130 O   0  0  0  0  0  0  0  0  0  0  0  0
  -21.0240  -29.5920   21.5280 H   0  0  0  0  0  0  0  0  0  0  0  0
  -18.2210  -27.7130   22.7010 C   0  0  0  0  0  0  0  0  0  0  0  0
  -20.7820  -27.9980   22.8890 C   0  0  0  0  0  3  0  0  0  0  0  0
  -20.8840  -26.6160   22.2040 C   0  0  0  0  0  2  0  0  0  0  0  0
  -19.7470  -26.3500   21.2120 C   0  0  0  0  0  2  0  0  0  0  0  0
  -18.3910  -26.4200   21.9200 C   0  0  0  0  0  2  0  0  0  0  0  0
  -19.3430  -28.4610   23.1420 C   0  0  0  0  0  0  0  0  0  0  0  0
  -19.1290  -29.6740   23.8340 C   0  0  0  0  0  3  0  0  0  0  0  0
  -17.8250  -30.1380   24.0880 C   0  0  0  0  0  3  0  0  0  0  0  0
  -16.7170  -29.3860   23.6610 C   0  0  0  0  0  3  0  0  0  0  0  0
  -16.9160  -28.1740   22.9740 C   0  0  0  0  0  3  0  0  0  0  0  0
  -25.8670  -32.3510   23.7070 C   0  0  0  0  0  3  0  0  0  0  0  0
  -25.5070  -33.7290   24.0690 N   0  0  0  0  0  0  0  0  0  0  0  0
  -25.8150  -34.8110   23.3430 C   0  0  0  0  0  0  0  0  0  0  0  0
  -26.5040  -34.7570   22.3200 O   0  0  0  0  0  0  0  0  0  0  0  0
  -24.8930  -33.8420   24.8630 H   0  0  0  0  0  0  0  0  0  0  0  0
  -24.0250  -36.5450   23.0090 C   0  0  0  0  0  1  0  0  0  0  0  0
  -25.2710  -36.1690   23.8270 C   0  0  0  0  0  3  0  0  0  0  0  0
  -27.3590  -37.1100   24.7090 C   0  0  0  0  0  1  0  0  0  0  0  0
  -26.2660  -37.2600   23.7530 N   0  0  0  0  0  0  0  0  0  0  0  0
  -25.8250  -38.1610   23.9140 H   0  0  0  0  0  0  0  0  0  0  0  0
  -26.4050  -31.5660   24.9660 C   0  0  1  0  0  0  0  0  0  0  0  0
  -25.3180  -31.2680   26.0230 C   0  0  0  0  0  1  0  0  0  0  0  0
  -27.0330  -30.2180   24.5380 C   0  0  0  0  0  1  0  0  0  0  0  0
  -27.5310  -32.3790   25.6490 C   0  0  0  0  0  1  0  0  0  0  0  0
  1  4  1  0
  2  1  2  0
  3  4  2  0
  4  8  1  0
  5  2  1  0
  5  6  2  0
  6  3  1  0
  7  6  1  0
  9  8  1  0
 10  9  1  0
 11 20  1  0
 11 10  1  0
 12 18  1  0
 12 20  1  0
 13 18  1  0
 14 15  1  0
 14 13  1  0
 16 15  1  0
 16 25  1  0
 16 17  1  0
 18 17  1  0
 19 12  2  0
 20 21  1  0
 22 23  2  0
 23 42  1  0
 24 23  1  0
 24 27  1  0
 25 26  1  0
 25 22  1  0
 26 24  2  0
 27 28  1  0
 28 29  2  0
 30 33  1  0
 30 29  1  0
 31 30  2  0
 32 31  1  0
 32 27  2  0
 33 34  1  0
 34 35  1  0
 35 36  2  0
 37 36  1  0
 37 41  1  0
 38 37  2  0
 39 34  2  0
 39 38  1  0
 40 39  1  0
 42 43  1  0
 43 46  1  0
 43 45  1  0
 44 42  2  0
 47 22  1  0
 47 48  1  0
 49 47  1  0
 50  5  1  0
 51 50  1  0
 52 51  1  0
 52 54  1  0
 53 64  2  0
 54 59  1  0
 55 63  1  0
 55 65  1  0
 56 62  1  0
 56 58  1  0
 57 63  1  0
 58 57  1  0
 59 58  2  0
 60 61  1  0
 60 54  2  0
 61 56  2  0
 62 55  1  0
 63 53  1  0
 65 67  2  0
 66 65  1  0
 68 66  1  0
 69 78  2  0
 69 74  1  0
 70 66  1  0
 70 74  1  0
 71 70  1  0
 72 73  1  0
 72 71  1  0
 73 69  1  0
 74 75  2  0
 75 76  1  0
 77 76  2  0
 78 77  1  0
 79 53  1  0
 79 80  1  0
 79 89  1  0
 80 83  1  0
 81 85  1  0
 81 80  1  0
 82 81  2  0
 85 84  1  0
 87 85  1  0
 87 88  1  0
 87 86  1  0
 89 92  1  1
 89 90  1  0
 91 89  1  0
M  ISO  4  12 100  20 100  51 101  52 101
M  END
>  <TORSDO>  (60) 
F 22

>  <SCORE>  (60) 
-11.097

>  <name>  (60) 
64

>  <ligand_id>  (60) 
64

>  <original_smiles>  (60) 
[H]c1c([H])c([H])c2c(c1[H])C([H])([H])C([H])([H])C([H])([H])C2([H])N([H])C(=O)C1([H])N(C(=O)C([H])(N([H])C(=O)C([H])(N([H])C([H])([H])[H])C([H])([H])[H])C(C([H])([H])[H])(C([H])([H])[H])C([H])([H])[H])C([H])([H])c2c([H])c(OC([H])([H])C([H])([H])c3c([H])c([H])c(C([H])([H])C([H])([H])C([H])([H])C([H])([H])N([H])C(=O)N4C([H])([H])C([H])([H])C([H])([H])C([H])(n5nc(-c6c([H])c([H])c(Oc7c([H])c([H])c(F)c([H])c7F)c([H])c6[H])c(C(=O)N([H])[H])c5N([H])[H])C4([H])[H])c([H])c3C([H])([H])[H])c([H])c([H])c2C1([H])[H]

>  <smiles>  (60) 
[H]c1c([H])c([H])c2c(c1[H])C([H])([H])C([H])([H])C([H])([H])C2([H])N([H])C(=O)C1([H])N(C(=O)C([H])(N([H])C(=O)C([H])(N([H])C([H])([H])[H])C([H])([H])[H])C(C([H])([H])[H])(C([H])([H])[H])C([H])([H])[H])C([H])([H])c2c([H])c(OC([H])([H])C([H])([H])c3c([H])c([H])c(C([H])([H])C([H])([H])C([H])([H])C([H])([H])N([H])C(=O)N4C([H])([H])C([H])([H])C([H])([H])C([H])(n5nc(-c6c([H])c([H])c(Oc7c([H])c([H])c(F)c([H])c7F)c([H])c6[H])c(C(=O)N([H])[H])c5N([H])[H])C4([H])[H])c([H])c3C([H])([H])[H])c([H])c([H])c2C1([H])[H]

$$$$
65:0:0
     RDKit          3D

107115  0  0  1  0  0  0  0  0999 V2000
  -24.3580  -22.4520   19.1810 C   0  0  0  0  0  3  0  0  0  0  0  0
  -24.5710  -21.0800   19.4160 C   0  0  0  0  0  3  0  0  0  0  0  0
  -24.9610  -22.1310   16.8450 C   0  0  0  0  0  3  0  0  0  0  0  0
  -24.5120  -22.9770   17.8830 C   0  0  0  0  0  0  0  0  0  0  0  0
  -24.9420  -20.2170   18.3620 C   0  0  0  0  0  0  0  0  0  0  0  0
  -25.1810  -20.7560   17.0710 C   0  0  0  0  0  0  0  0  0  0  0  0
  -25.6540  -19.8960   15.9090 C   0  0  0  0  0  1  0  0  0  0  0  0
  -24.2380  -24.4260   17.6090 C   0  0  0  0  0  0  0  0  0  0  0  0
  -23.7110  -24.6650   16.4050 N   0  0  0  0  0  0  0  0  0  0  0  0
  -24.4880  -25.3010   18.4380 O   0  0  0  0  0  0  0  0  0  0  0  0
  -23.4720  -23.8520   15.8570 H   0  0  0  0  0  0  0  0  0  0  0  0
  -23.6180  -25.9590   15.7410 C   0  0  0  0  0  2  0  0  0  0  0  0
  -23.6200  -25.7640   14.2120 C   0  0  0  0  0  2  0  0  0  0  0  0
  -24.7360  -26.3790   13.5680 O   0  0  0  0  0  0  0  0  0  0  0  0
  -27.1890  -26.8010    6.9120 C   0  0  0  0  0  0  0  0  0  0  0  0
  -25.2960  -25.7060   12.5050 C   0  0  0  0  0  0  0  0  0  0  0  0
  -26.9870  -24.5160    7.8370 C   0  0  0  0  0  3  0  0  0  0  0  0
  -26.5230  -24.3740   10.3370 C   0  0  0  0  0  0  0  0  0  0  0  0
  -27.3790  -26.5170    9.3800 C   0  0  0  0  0  2  0  0  0  0  0  0
  -26.6170  -25.7660   10.4490 C   0  0  0  0  0  0  0  0  0  0  0  0
  -26.0160  -26.4330   11.5360 C   0  0  0  0  0  3  0  0  0  0  0  0
  -25.2040  -24.3030   12.3760 C   0  0  0  0  0  3  0  0  0  0  0  0
  -25.8140  -23.6350   11.2990 C   0  0  0  0  0  3  0  0  0  0  0  0
  -27.2110  -23.7320    9.1560 C   0  0  0  0  0  2  0  0  0  0  0  0
  -27.1630  -25.9940    8.0110 N   0  0  0  0  0  0  0  0  0  0  0  0
  -27.1120  -26.3280    5.7700 O   0  0  0  0  0  0  0  0  0  0  0  0
  -25.6050  -24.1250    7.2650 C   0  0  0  0  0  0  0  0  0  0  0  0
  -25.5880  -23.1030    6.3920 N   0  0  0  0  0  0  0  0  0  0  0  0
  -24.5810  -24.7120    7.6250 O   0  0  0  0  0  0  0  0  0  0  0  0
  -26.4720  -22.6840    6.1390 H   0  0  0  0  0  0  0  0  0  0  0  0
  -24.4730  -20.7320    3.9070 C   0  0  0  0  0  0  0  0  0  0  0  0
  -24.4000  -22.5380    5.7540 C   0  0  0  0  0  3  0  0  0  0  0  0
  -23.7440  -21.4560    6.6440 C   0  0  0  0  0  2  0  0  0  0  0  0
  -24.2360  -20.0400    6.3320 C   0  0  0  0  0  2  0  0  0  0  0  0
  -23.9480  -19.6810    4.8710 C   0  0  0  0  0  2  0  0  0  0  0  0
  -24.7000  -22.0680    4.3260 C   0  0  0  0  0  0  0  0  0  0  0  0
  -25.2240  -22.9970    3.3990 C   0  0  0  0  0  3  0  0  0  0  0  0
  -25.5150  -22.6100    2.0780 C   0  0  0  0  0  3  0  0  0  0  0  0
  -25.2730  -21.2890    1.6640 C   0  0  0  0  0  3  0  0  0  0  0  0
  -24.7500  -20.3540    2.5760 C   0  0  0  0  0  3  0  0  0  0  0  0
  -27.3400  -28.3510    7.0370 C   0  0  0  0  0  3  0  0  0  0  0  0
  -28.4220  -28.7640    6.1340 N   0  0  0  0  0  0  0  0  0  0  0  0
  -29.6850  -28.9950    6.5180 C   0  0  0  0  0  0  0  0  0  0  0  0
  -30.0470  -28.9520    7.6970 O   0  0  0  0  0  0  0  0  0  0  0  0
  -28.2140  -28.7620    5.1470 H   0  0  0  0  0  0  0  0  0  0  0  0
  -31.5360  -28.0730    5.0850 C   0  0  0  0  0  1  0  0  0  0  0  0
  -30.7110  -29.3280    5.4170 C   0  0  0  0  0  3  0  0  0  0  0  0
  -30.9410  -31.7350    5.8430 C   0  0  0  0  0  1  0  0  0  0  0  0
  -31.6160  -30.4410    5.7740 N   0  0  0  0  0  0  0  0  0  0  0  0
  -32.3770  -30.5160    5.1030 H   0  0  0  0  0  0  0  0  0  0  0  0
  -26.0090  -29.1350    6.7120 C   0  0  1  0  0  0  0  0  0  0  0  0
  -25.2590  -28.5980    5.4710 C   0  0  0  0  0  1  0  0  0  0  0  0
  -25.0350  -29.0790    7.9130 C   0  0  0  0  0  1  0  0  0  0  0  0
  -26.3270  -30.6290    6.4680 C   0  0  0  0  0  1  0  0  0  0  0  0
  -25.0050  -18.7180   18.6340 C   0  0  0  0  0  2  0  0  0  0  0  0
  -26.4620  -18.2110   18.7210 C   0  0  0  0  0  2  0  0  0  0  0  0
  -27.4340  -19.3280   18.7390 N   0  0  0  0  0  4  0  0  0  0  0  0
  -27.0980  -20.0910   18.1730 H   0  0  0  0  0  0  0  0  0  0  0  0
  -27.5140  -19.6380   19.6990 H   0  0  0  0  0  0  0  0  0  0  0  0
  -28.8200  -18.9790   18.3670 C   0  0  0  0  0  2  0  0  0  0  0  0
  -29.4290  -18.0840   19.4460 C   0  0  0  0  0  0  0  0  0  0  0  0
  -30.2270  -17.0840   19.0510 N   0  0  0  0  0  0  0  0  0  0  0  0
  -29.1600  -18.2950   20.6290 O   0  0  0  0  0  0  0  0  0  0  0  0
  -30.4230  -16.9940   18.0620 H   0  0  0  0  0  0  0  0  0  0  0  0
  -30.7280  -16.0280   19.9270 C   0  0  0  0  0  2  0  0  0  0  0  0
  -32.2550  -16.0550   20.1240 C   0  0  0  0  0  2  0  0  0  0  0  0
  -33.0530  -15.2350   19.0950 C   0  0  0  0  0  2  0  0  0  0  0  0
  -34.4700  -14.9140   19.6090 C   0  0  0  0  0  2  0  0  0  0  0  0
  -35.0230  -13.5470   19.1700 C   0  0  0  0  0  2  0  0  0  0  0  0
  -36.5570  -12.9700   17.2820 C   0  0  0  0  0  0  0  0  0  0  0  0
  -37.8350  -12.4560   15.2320 C   0  0  0  0  0  2  0  0  0  0  0  0
  -38.7760  -13.6140   14.8520 C   0  0  0  0  0  2  0  0  0  0  0  0
  -38.0390  -14.6670   14.0040 C   0  0  0  0  0  2  0  0  0  0  0  0
  -36.6830  -15.0910   14.6300 C   0  0  0  0  0  3  0  0  0  0  0  0
  -35.8540  -13.8520   15.0260 C   0  0  0  0  0  2  0  0  0  0  0  0
  -36.6710  -13.0190   15.9290 N   0  0  0  0  0  0  0  0  0  0  0  0
  -37.3840  -12.4150   18.0120 O   0  0  0  0  0  0  0  0  0  0  0  0
  -35.4480  -13.5390   17.7720 N   0  0  0  0  0  0  0  0  0  0  0  0
  -34.8230  -13.9540   17.0980 H   0  0  0  0  0  0  0  0  0  0  0  0
  -35.6420  -17.3210   13.8800 C   0  0  0  0  0  0  0  0  0  0  0  0
  -34.9830  -17.6850   12.7380 C   0  0  0  0  0  0  0  0  0  0  0  0
  -34.9180  -16.5090   11.9300 C   0  0  0  0  0  0  0  0  0  0  0  0
  -35.9360  -15.9750   13.7380 N   0  0  0  0  0  0  0  0  0  0  0  0
  -35.4510  -15.4770   12.5730 N   0  0  0  0  0  0  0  0  0  0  0  0
  -34.4330  -16.3160   10.5570 C   0  0  0  0  0  0  0  0  0  0  0  0
  -33.4980  -15.3050   10.2410 C   0  0  0  0  0  3  0  0  0  0  0  0
  -33.0330  -15.1500    8.9160 C   0  0  0  0  0  3  0  0  0  0  0  0
  -33.5000  -16.0120    7.8950 C   0  0  0  0  0  0  0  0  0  0  0  0
  -34.4480  -17.0000    8.2120 C   0  0  0  0  0  3  0  0  0  0  0  0
  -34.9130  -17.1510    9.5300 C   0  0  0  0  0  3  0  0  0  0  0  0
  -33.1240  -15.9200    6.5770 O   0  0  0  0  0  0  0  0  0  0  0  0
  -31.9390  -15.3370    6.2060 C   0  0  0  0  0  0  0  0  0  0  0  0
  -30.7040  -15.7430    6.7570 C   0  0  0  0  0  3  0  0  0  0  0  0
  -29.5040  -15.1650    6.2970 C   0  0  0  0  0  3  0  0  0  0  0  0
  -29.5340  -14.1920    5.2810 C   0  0  0  0  0  0  0  0  0  0  0  0
  -30.7630  -13.7900    4.7270 C   0  0  0  0  0  3  0  0  0  0  0  0
  -31.9610  -14.3640    5.1870 C   0  0  0  0  0  0  0  0  0  0  0  0
  -33.1400  -13.9890    4.6350 F   0  0  0  0  0  0  0  0  0  0  0  0
  -28.3810  -13.6410    4.8330 F   0  0  0  0  0  0  0  0  0  0  0  0
  -34.5210  -19.0670   12.3720 C   0  0  0  0  0  0  0  0  0  0  0  0
  -33.4130  -19.1710   11.6470 N   0  0  0  0  0  0  0  0  0  0  0  0
  -35.1160  -20.0660   12.7750 O   0  0  0  0  0  0  0  0  0  0  0  0
  -32.9130  -18.3510   11.3350 H   0  0  0  0  0  0  0  0  0  0  0  0
  -33.0600  -20.0840   11.3990 H   0  0  0  0  0  0  0  0  0  0  0  0
  -36.0360  -18.0260   15.0130 N   0  0  0  0  0  0  0  0  0  0  0  0
  -35.9840  -19.0340   15.0380 H   0  0  0  0  0  0  0  0  0  0  0  0
  -36.6100  -17.6330   15.7490 H   0  0  0  0  0  0  0  0  0  0  0  0
  1  2  1  0
  3  6  2  0
  3  4  1  0
  4  1  2  0
  5 55  1  0
  5  2  2  0
  6  5  1  0
  7  6  1  0
  8  4  1  0
  8 10  2  0
  9  8  1  0
 11  9  1  0
 12  9  1  0
 13 12  1  0
 14 13  1  0
 15 25  1  0
 16 14  1  0
 17 27  1  0
 17 25  1  0
 17 24  1  0
 18 20  2  0
 18 23  1  0
 19 20  1  0
 20 21  1  0
 21 16  2  0
 22 16  1  0
 23 22  2  0
 24 18  1  0
 25 19  1  0
 26 15  2  0
 27 29  2  0
 28 27  1  0
 30 28  1  0
 31 36  1  0
 31 35  1  0
 32 28  1  0
 32 33  1  0
 34 33  1  0
 35 34  1  0
 36 32  1  0
 37 36  2  0
 38 37  1  0
 39 38  2  0
 39 40  1  0
 40 31  2  0
 41 15  1  0
 42 43  1  0
 42 41  1  0
 43 44  2  0
 45 42  1  0
 47 46  1  0
 47 49  1  0
 47 43  1  0
 49 48  1  0
 50 49  1  0
 51 41  1  0
 51 53  1  1
 52 51  1  0
 54 51  1  0
 55 56  1  0
 56 57  1  0
 57 59  1  0
 58 57  1  0
 60 57  1  0
 60 61  1  0
 61 63  2  0
 62 61  1  0
 62 65  1  0
 64 62  1  0
 65 66  1  0
 67 68  1  0
 67 66  1  0
 69 68  1  0
 70 78  1  0
 70 77  2  0
 71 76  1  0
 72 71  1  0
 73 74  1  0
 73 72  1  0
 74 83  1  0
 74 75  1  0
 75 76  1  0
 76 70  1  0
 78 69  1  0
 79 78  1  0
 80105  1  0
 81 80  2  0
 82 84  2  0
 82 81  1  0
 83 80  1  0
 84 83  1  0
 85 82  1  0
 86 85  1  0
 87 86  2  0
 88 89  2  0
 88 87  1  0
 89 90  1  0
 90 85  2  0
 91 88  1  0
 92 91  1  0
 92 93  1  0
 94 93  2  0
 95 94  1  0
 96 97  1  0
 96 95  2  0
 97 92  2  0
 98 97  1  0
 99 95  1  0
100 81  1  0
100102  2  0
101100  1  0
103101  1  0
104101  1  0
105106  1  0
105107  1  0
M  ISO  4  13 101  14 101  70 100  78 100
M  END
>  <TORSDO>  (61) 
F 29

>  <SCORE>  (61) 
0.774

>  <name>  (61) 
65

>  <ligand_id>  (61) 
65

>  <original_smiles>  (61) 
[H]c1c([H])c([H])c2c(c1[H])C([H])([H])C([H])([H])C([H])([H])C2([H])N([H])C(=O)C1([H])N(C(=O)C([H])(N([H])C(=O)C([H])(N([H])C([H])([H])[H])C([H])([H])[H])C(C([H])([H])[H])(C([H])([H])[H])C([H])([H])[H])C([H])([H])c2c([H])c(OC([H])([H])C([H])([H])N([H])C(=O)c3c([H])c([H])c(C([H])([H])C([H])([H])[N+]([H])([H])C([H])([H])C(=O)N([H])C([H])([H])C([H])([H])C([H])([H])C([H])([H])C([H])([H])N([H])C(=O)N4C([H])([H])C([H])([H])C([H])([H])C([H])(n5nc(-c6c([H])c([H])c(Oc7c([H])c([H])c(F)c([H])c7F)c([H])c6[H])c(C(=O)N([H])[H])c5N([H])[H])C4([H])[H])c(C([H])([H])[H])c3[H])c([H])c([H])c2C1([H])[H]

>  <smiles>  (61) 
[H]c1c([H])c([H])c2c(c1[H])C([H])([H])C([H])([H])C([H])([H])C2([H])N([H])C(=O)C1([H])N(C(=O)C([H])(N([H])C(=O)C([H])(N([H])C([H])([H])[H])C([H])([H])[H])C(C([H])([H])[H])(C([H])([H])[H])C([H])([H])[H])C([H])([H])c2c([H])c(OC([H])([H])C([H])([H])N([H])C(=O)c3c([H])c([H])c(C([H])([H])C([H])([H])[N+]([H])([H])C([H])([H])C(=O)N([H])C([H])([H])C([H])([H])C([H])([H])C([H])([H])C([H])([H])N([H])C(=O)N4C([H])([H])C([H])([H])C([H])([H])C([H])(n5nc(-c6c([H])c([H])c(Oc7c([H])c([H])c(F)c([H])c7F)c([H])c6[H])c(C(=O)N([H])[H])c5N([H])[H])C4([H])[H])c(C([H])([H])[H])c3[H])c([H])c([H])c2C1([H])[H]

$$$$
66:0:0
     RDKit          3D

101109  0  0  1  0  0  0  0  0999 V2000
  -31.0900  -21.5000   22.8260 C   0  0  0  0  0  3  0  0  0  0  0  0
  -31.2810  -21.4490   20.4010 C   0  0  0  0  0  3  0  0  0  0  0  0
  -31.1160  -22.1820   21.5920 C   0  0  0  0  0  0  0  0  0  0  0  0
  -31.2360  -20.0960   22.8700 C   0  0  0  0  0  0  0  0  0  0  0  0
  -31.4000  -20.0480   20.4280 C   0  0  0  0  0  0  0  0  0  0  0  0
  -31.3970  -19.3680   21.6690 C   0  0  0  0  0  0  0  0  0  0  0  0
  -32.1110  -24.3120   20.7050 C   0  0  0  0  0  1  0  0  0  0  0  0
  -30.9610  -23.6930   21.5250 C   0  0  0  0  0  3  0  0  0  0  0  0
  -29.6120  -24.0020   20.9930 N   0  0  0  0  0  4  0  0  0  0  0  0
  -29.4410  -23.3840   20.2150 H   0  0  0  0  0  0  0  0  0  0  0  0
  -28.9460  -23.7610   21.7120 H   0  0  0  0  0  0  0  0  0  0  0  0
  -29.3860  -25.4000   20.5550 C   0  0  0  0  0  2  0  0  0  0  0  0
  -27.9510  -25.6450   20.0700 C   0  0  0  0  0  2  0  0  0  0  0  0
  -27.9230  -26.9900   19.6190 O   0  0  0  0  0  0  0  0  0  0  0  0
  -24.4240  -32.0060   23.1820 C   0  0  0  0  0  0  0  0  0  0  0  0
  -26.7390  -27.6680   19.7510 C   0  0  0  0  0  0  0  0  0  0  0  0
  -23.0640  -30.6930   21.5830 C   0  0  0  0  0  3  0  0  0  0  0  0
  -24.3720  -29.1780   20.0030 C   0  0  0  0  0  0  0  0  0  0  0  0
  -25.5670  -31.0230   21.2000 C   0  0  0  0  0  2  0  0  0  0  0  0
  -25.5780  -29.6740   20.5150 C   0  0  0  0  0  0  0  0  0  0  0  0
  -26.7640  -28.9290   20.3800 C   0  0  0  0  0  3  0  0  0  0  0  0
  -25.5190  -27.1700   19.2420 C   0  0  0  0  0  3  0  0  0  0  0  0
  -24.3360  -27.9240   19.3650 C   0  0  0  0  0  3  0  0  0  0  0  0
  -23.1520  -30.0530   20.1700 C   0  0  0  0  0  2  0  0  0  0  0  0
  -24.3750  -31.2510   22.0470 N   0  0  0  0  0  0  0  0  0  0  0  0
  -23.3940  -32.2790   23.8130 O   0  0  0  0  0  0  0  0  0  0  0  0
  -22.4630  -29.6510   22.5530 C   0  0  0  0  0  0  0  0  0  0  0  0
  -21.1380  -29.4540   22.4690 N   0  0  0  0  0  0  0  0  0  0  0  0
  -23.1850  -29.0230   23.3320 O   0  0  0  0  0  0  0  0  0  0  0  0
  -20.6190  -30.0180   21.8110 H   0  0  0  0  0  0  0  0  0  0  0  0
  -17.8130  -28.1390   22.9830 C   0  0  0  0  0  0  0  0  0  0  0  0
  -20.3580  -28.4940   23.2500 C   0  0  0  0  0  3  0  0  0  0  0  0
  -20.5120  -27.0610   22.6890 C   0  0  0  0  0  2  0  0  0  0  0  0
  -19.4220  -26.6850   21.6810 C   0  0  0  0  0  2  0  0  0  0  0  0
  -18.0380  -26.7880   22.3250 C   0  0  0  0  0  2  0  0  0  0  0  0
  -18.9020  -28.9470   23.4030 C   0  0  0  0  0  0  0  0  0  0  0  0
  -18.6390  -30.2090   23.9770 C   0  0  0  0  0  3  0  0  0  0  0  0
  -17.3180  -30.6660   24.1350 C   0  0  0  0  0  3  0  0  0  0  0  0
  -16.2420  -29.8560   23.7320 C   0  0  0  0  0  3  0  0  0  0  0  0
  -16.4900  -28.5950   23.1620 C   0  0  0  0  0  3  0  0  0  0  0  0
  -25.7690  -32.5830   23.7280 C   0  0  0  0  0  3  0  0  0  0  0  0
  -25.5190  -33.9690   24.1440 N   0  0  0  0  0  0  0  0  0  0  0  0
  -25.8540  -35.0500   23.4280 C   0  0  0  0  0  0  0  0  0  0  0  0
  -26.4830  -34.9810   22.3670 O   0  0  0  0  0  0  0  0  0  0  0  0
  -24.9600  -34.0970   24.9760 H   0  0  0  0  0  0  0  0  0  0  0  0
  -24.1770  -36.9120   23.2260 C   0  0  0  0  0  1  0  0  0  0  0  0
  -25.4280  -36.4250   23.9730 C   0  0  0  0  0  3  0  0  0  0  0  0
  -27.6140  -37.1970   24.7850 C   0  0  0  0  0  1  0  0  0  0  0  0
  -26.4920  -37.4490   23.8850 N   0  0  0  0  0  0  0  0  0  0  0  0
  -26.1200  -38.3730   24.0920 H   0  0  0  0  0  0  0  0  0  0  0  0
  -26.3690  -31.7410   24.9190 C   0  0  1  0  0  0  0  0  0  0  0  0
  -25.3610  -31.4740   26.0610 C   0  0  0  0  0  1  0  0  0  0  0  0
  -26.8850  -30.3740   24.4120 C   0  0  0  0  0  1  0  0  0  0  0  0
  -27.5880  -32.4780   25.5230 C   0  0  0  0  0  1  0  0  0  0  0  0
  -31.5090  -18.0080   21.7130 O   0  0  0  0  0  0  0  0  0  0  0  0
  -31.3380  -17.6050   20.8720 H   0  0  0  0  0  0  0  0  0  0  0  0
  -31.1590  -19.3870   24.2140 C   0  0  0  0  0  2  0  0  0  0  0  0
  -29.5640  -18.7810   26.1200 C   0  0  0  0  0  1  0  0  0  0  0  0
  -29.7020  -19.1490   24.6390 C   0  0  0  0  0  2  0  0  0  0  0  0
  -31.4830  -19.3170   19.0950 C   0  0  0  0  0  2  0  0  0  0  0  0
  -30.0880  -19.0320   18.4950 C   0  0  0  0  0  2  0  0  0  0  0  0
  -29.2930  -17.9220   19.2170 C   0  0  0  0  0  2  0  0  0  0  0  0
  -29.8810  -16.5400   18.9090 C   0  0  0  0  0  2  0  0  0  0  0  0
  -30.3510  -14.4480   20.0670 C   0  0  0  0  0  0  0  0  0  0  0  0
  -30.0230  -12.2750   19.0470 C   0  0  0  0  0  2  0  0  0  0  0  0
  -29.0200  -12.4870   17.8940 C   0  0  0  0  0  2  0  0  0  0  0  0
  -27.5740  -12.3230   18.3990 C   0  0  0  0  0  2  0  0  0  0  0  0
  -27.2830  -13.1440   19.6860 C   0  0  0  0  0  3  0  0  0  0  0  0
  -28.4110  -12.9910   20.7350 C   0  0  0  0  0  2  0  0  0  0  0  0
  -29.6970  -13.2660   20.0780 N   0  0  0  0  0  0  0  0  0  0  0  0
  -31.5450  -14.5620   19.7930 O   0  0  0  0  0  0  0  0  0  0  0  0
  -29.5410  -15.5020   19.8870 N   0  0  0  0  0  0  0  0  0  0  0  0
  -28.5640  -15.3490   20.0820 H   0  0  0  0  0  0  0  0  0  0  0  0
  -24.9370  -13.6670   20.6100 C   0  0  0  0  0  0  0  0  0  0  0  0
  -23.9080  -12.8550   21.0000 C   0  0  0  0  0  0  0  0  0  0  0  0
  -24.3820  -11.5160   20.8550 C   0  0  0  0  0  0  0  0  0  0  0  0
  -25.9740  -12.8180   20.2490 N   0  0  0  0  0  0  0  0  0  0  0  0
  -25.6480  -11.5160   20.4570 N   0  0  0  0  0  0  0  0  0  0  0  0
  -23.6880  -10.2310   21.0130 C   0  0  0  0  0  0  0  0  0  0  0  0
  -24.1910   -9.2190   21.8620 C   0  0  0  0  0  3  0  0  0  0  0  0
  -23.4920   -8.0010   22.0120 C   0  0  0  0  0  3  0  0  0  0  0  0
  -22.2800   -7.7870   21.3160 C   0  0  0  0  0  0  0  0  0  0  0  0
  -21.7960   -8.7880   20.4580 C   0  0  0  0  0  3  0  0  0  0  0  0
  -22.4940   -9.9980   20.3030 C   0  0  0  0  0  3  0  0  0  0  0  0
  -21.5500   -6.6240   21.3790 O   0  0  0  0  0  0  0  0  0  0  0  0
  -21.5910   -5.8070   22.4810 C   0  0  0  0  0  0  0  0  0  0  0  0
  -21.2110   -6.2640   23.7610 C   0  0  0  0  0  3  0  0  0  0  0  0
  -21.2010   -5.3730   24.8530 C   0  0  0  0  0  3  0  0  0  0  0  0
  -21.5630   -4.0250   24.6640 C   0  0  0  0  0  0  0  0  0  0  0  0
  -21.9390   -3.5660   23.3890 C   0  0  0  0  0  3  0  0  0  0  0  0
  -21.9490   -4.4550   22.2990 C   0  0  0  0  0  0  0  0  0  0  0  0
  -22.2900   -4.0030   21.0680 F   0  0  0  0  0  0  0  0  0  0  0  0
  -21.5470   -3.1660   25.7110 F   0  0  0  0  0  0  0  0  0  0  0  0
  -22.5240  -13.2940   21.3910 C   0  0  0  0  0  0  0  0  0  0  0  0
  -21.8650  -12.5330   22.2580 N   0  0  0  0  0  0  0  0  0  0  0  0
  -22.0410  -14.3400   20.9650 O   0  0  0  0  0  0  0  0  0  0  0  0
  -22.2740  -11.6870   22.6250 H   0  0  0  0  0  0  0  0  0  0  0  0
  -20.9400  -12.8040   22.5590 H   0  0  0  0  0  0  0  0  0  0  0  0
  -25.0710  -15.0490   20.5050 N   0  0  0  0  0  0  0  0  0  0  0  0
  -24.3060  -15.6840   20.7050 H   0  0  0  0  0  0  0  0  0  0  0  0
  -25.8800  -15.5170   20.1210 H   0  0  0  0  0  0  0  0  0  0  0  0
  1  4  1  0
  2  5  2  0
  2  3  1  0
  3  1  2  0
  4 57  1  0
  5  6  1  0
  6 55  1  0
  6  4  2  0
  8  7  1  0
  8  3  1  0
  9  8  1  0
  9 11  1  0
 10  9  1  0
 12  9  1  0
 13 12  1  0
 14 16  1  0
 14 13  1  0
 15 26  2  0
 16 21  1  0
 17 25  1  0
 17 27  1  0
 18 24  1  0
 18 20  1  0
 19 25  1  0
 20 19  1  0
 21 20  2  0
 22 23  1  0
 22 16  2  0
 23 18  2  0
 24 17  1  0
 25 15  1  0
 27 29  2  0
 28 27  1  0
 30 28  1  0
 31 40  2  0
 31 36  1  0
 32 28  1  0
 32 36  1  0
 33 32  1  0
 34 35  1  0
 34 33  1  0
 35 31  1  0
 36 37  2  0
 37 38  1  0
 39 38  2  0
 40 39  1  0
 41 15  1  0
 41 42  1  0
 41 51  1  0
 42 45  1  0
 43 47  1  0
 43 42  1  0
 44 43  2  0
 47 46  1  0
 49 47  1  0
 49 50  1  0
 49 48  1  0
 51 54  1  1
 51 52  1  0
 53 51  1  0
 56 55  1  0
 57 59  1  0
 59 58  1  0
 60  5  1  0
 61 60  1  0
 61 62  1  0
 63 62  1  0
 63 72  1  0
 64 70  1  0
 65 70  1  0
 66 67  1  0
 66 65  1  0
 68 67  1  0
 68 77  1  0
 68 69  1  0
 70 69  1  0
 71 64  2  0
 72 64  1  0
 72 73  1  0
 74 75  2  0
 75 94  1  0
 76 75  1  0
 76 79  1  0
 77 78  1  0
 77 74  1  0
 78 76  2  0
 79 80  1  0
 80 81  2  0
 82 85  1  0
 82 81  1  0
 83 82  2  0
 84 83  1  0
 84 79  2  0
 85 86  1  0
 86 87  1  0
 87 88  2  0
 89 88  1  0
 89 93  1  0
 90 89  2  0
 91 86  2  0
 91 90  1  0
 92 91  1  0
 94 95  1  0
 95 98  1  0
 95 97  1  0
 96 94  2  0
 99 74  1  0
 99100  1  0
101 99  1  0
M  ISO  4  13 101  14 101  64 100  72 100
M  END
>  <TORSDO>  (62) 
F 27

>  <SCORE>  (62) 
-7.714

>  <name>  (62) 
66

>  <ligand_id>  (62) 
66

>  <original_smiles>  (62) 
[H]Oc1c(C([H])([H])C([H])([H])C([H])([H])[H])c([H])c(C([H])(C([H])([H])[H])[N+]([H])([H])C([H])([H])C([H])([H])Oc2c([H])c([H])c3c(c2[H])C([H])([H])N(C(=O)C([H])(N([H])C(=O)C([H])(N([H])C([H])([H])[H])C([H])([H])[H])C(C([H])([H])[H])(C([H])([H])[H])C([H])([H])[H])C([H])(C(=O)N([H])C2([H])c4c([H])c([H])c([H])c([H])c4C([H])([H])C([H])([H])C2([H])[H])C3([H])[H])c([H])c1C([H])([H])C([H])([H])C([H])([H])C([H])([H])N([H])C(=O)N1C([H])([H])C([H])([H])C([H])([H])C([H])(n2nc(-c3c([H])c([H])c(Oc4c([H])c([H])c(F)c([H])c4F)c([H])c3[H])c(C(=O)N([H])[H])c2N([H])[H])C1([H])[H]

>  <smiles>  (62) 
[H]Oc1c(C([H])([H])C([H])([H])C([H])([H])[H])c([H])c(C([H])(C([H])([H])[H])[N+]([H])([H])C([H])([H])C([H])([H])Oc2c([H])c([H])c3c(c2[H])C([H])([H])N(C(=O)C([H])(N([H])C(=O)C([H])(N([H])C([H])([H])[H])C([H])([H])[H])C(C([H])([H])[H])(C([H])([H])[H])C([H])([H])[H])C([H])(C(=O)N([H])C2([H])c4c([H])c([H])c([H])c([H])c4C([H])([H])C([H])([H])C2([H])[H])C3([H])[H])c([H])c1C([H])([H])C([H])([H])C([H])([H])C([H])([H])N([H])C(=O)N1C([H])([H])C([H])([H])C([H])([H])C([H])(n2nc(-c3c([H])c([H])c(Oc4c([H])c([H])c(F)c([H])c4F)c([H])c3[H])c(C(=O)N([H])[H])c2N([H])[H])C1([H])[H]

$$$$
67:0:0
     RDKit          3D

 97104  0  0  1  0  0  0  0  0999 V2000
  -21.6270  -28.3060   18.7600 C   0  0  0  0  0  1  0  0  0  0  0  0
  -22.9400  -27.7600   17.0850 C   0  0  0  0  0  1  0  0  0  0  0  0
  -23.8400  -27.2900   20.0210 C   0  0  0  0  0  3  0  0  0  0  0  0
  -22.5670  -28.0950   20.2240 C   0  0  0  0  0  3  0  0  0  0  0  0
  -24.4460  -27.4770   17.3750 C   0  0  0  0  0  3  0  0  0  0  0  0
  -24.6920  -27.0500   18.7900 C   0  0  0  0  0  0  0  0  0  0  0  0
  -23.0400  -29.2040   21.4830 C   0  0  0  0  0  0  0  0  0  0  0  0
  -24.3220  -29.3250   22.3230 N   0  0  0  0  0  0  0  0  0  0  0  0
  -22.1740  -30.0390   21.7450 O   0  0  0  0  0  0  0  0  0  0  0  0
  -24.9970  -28.6450   21.9960 H   0  0  0  0  0  0  0  0  0  0  0  0
  -24.9640  -30.1490   23.7270 C   0  0  0  0  0  2  0  0  0  0  0  0
  -24.9560  -31.8840   24.5100 C   0  0  0  0  0  2  0  0  0  0  0  0
  -26.1030  -33.3970   24.6740 C   0  0  0  0  0  2  0  0  0  0  0  0
  -27.7930  -33.8820   25.4190 C   0  0  0  0  0  2  0  0  0  0  0  0
  -28.5790  -33.3740   28.4600 C   0  0  0  0  0  0  0  0  0  0  0  0
  -29.6640  -34.1430   30.7620 C   0  0  0  0  0  2  0  0  0  0  0  0
  -29.6520  -35.6990   30.8520 C   0  0  0  0  0  2  0  0  0  0  0  0
  -30.7080  -36.3250   29.9130 C   0  0  0  0  0  2  0  0  0  0  0  0
  -30.7230  -35.5890   28.5540 C   0  0  0  0  0  3  0  0  0  0  0  0
  -30.9160  -34.0890   28.7470 C   0  0  0  0  0  2  0  0  0  0  0  0
  -29.6610  -33.7040   29.3050 N   0  0  0  0  0  0  0  0  0  0  0  0
  -27.6580  -32.8890   29.1710 O   0  0  0  0  0  0  0  0  0  0  0  0
  -28.6260  -33.7290   26.9510 N   0  0  0  0  0  0  0  0  0  0  0  0
  -29.5700  -34.0520   26.7900 H   0  0  0  0  0  0  0  0  0  0  0  0
  -31.4930  -36.7840   26.4700 C   0  0  0  0  0  0  0  0  0  0  0  0
  -32.7330  -36.9680   25.9410 C   0  0  0  0  0  0  0  0  0  0  0  0
  -33.6330  -36.2840   26.8130 C   0  0  0  0  0  0  0  0  0  0  0  0
  -31.6980  -36.0470   27.6180 N   0  0  0  0  0  0  0  0  0  0  0  0
  -32.9800  -35.6710   27.7830 N   0  0  0  0  0  0  0  0  0  0  0  0
  -35.0890  -36.2390   26.8330 C   0  0  0  0  0  0  0  0  0  0  0  0
  -35.7870  -35.0160   26.7480 C   0  0  0  0  0  3  0  0  0  0  0  0
  -37.1970  -35.0040   26.7630 C   0  0  0  0  0  3  0  0  0  0  0  0
  -37.9110  -36.2210   26.8590 C   0  0  0  0  0  0  0  0  0  0  0  0
  -37.2070  -37.4320   26.9710 C   0  0  0  0  0  3  0  0  0  0  0  0
  -35.8040  -37.4430   26.9620 C   0  0  0  0  0  3  0  0  0  0  0  0
  -39.2800  -36.3070   26.9010 O   0  0  0  0  0  0  0  0  0  0  0  0
  -40.0690  -35.5690   26.0580 C   0  0  0  0  0  0  0  0  0  0  0  0
  -39.9390  -35.6500   24.6540 C   0  0  0  0  0  3  0  0  0  0  0  0
  -40.8200  -34.9280   23.8250 C   0  0  0  0  0  3  0  0  0  0  0  0
  -41.8330  -34.1330   24.3950 C   0  0  0  0  0  0  0  0  0  0  0  0
  -41.9640  -34.0540   25.7930 C   0  0  0  0  0  3  0  0  0  0  0  0
  -41.0850  -34.7720   26.6210 C   0  0  0  0  0  0  0  0  0  0  0  0
  -41.2270  -34.7130   27.9680 F   0  0  0  0  0  0  0  0  0  0  0  0
  -42.6840  -33.4460   23.5990 F   0  0  0  0  0  0  0  0  0  0  0  0
  -33.0700  -37.8270   24.7610 C   0  0  0  0  0  0  0  0  0  0  0  0
  -34.1410  -37.4960   24.0510 N   0  0  0  0  0  0  0  0  0  0  0  0
  -32.3540  -38.7740   24.4360 O   0  0  0  0  0  0  0  0  0  0  0  0
  -34.7140  -36.7040   24.3030 H   0  0  0  0  0  0  0  0  0  0  0  0
  -34.3880  -38.0430   23.2370 H   0  0  0  0  0  0  0  0  0  0  0  0
  -30.2260  -37.2080   26.0900 N   0  0  0  0  0  0  0  0  0  0  0  0
  -30.1280  -37.8320   25.2970 H   0  0  0  0  0  0  0  0  0  0  0  0
  -29.4060  -37.1940   26.6830 H   0  0  0  0  0  0  0  0  0  0  0  0
  -25.9580  -26.5960   19.0290 O   0  0  0  0  0  0  0  0  0  0  0  0
  -26.1190  -26.3510   19.9330 H   0  0  0  0  0  0  0  0  0  0  0  0
  -25.5490  -28.6630   16.7580 C   0  0  0  0  0  2  0  0  0  0  0  0
  -27.3420  -28.8180   16.4480 C   0  0  0  0  0  2  0  0  0  0  0  0
  -28.8060  -28.3130   17.0530 O   0  0  0  0  0  0  0  0  0  0  0  0
  -28.6780  -22.8310   20.3000 C   0  0  0  0  0  0  0  0  0  0  0  0
  -29.6110  -27.3620   16.4920 C   0  0  0  0  0  3  0  0  0  0  0  0
  -29.8600  -24.9270   20.7800 C   0  0  0  0  0  3  0  0  0  0  0  0
  -30.6770  -26.2680   18.7210 C   0  0  0  0  0  3  0  0  0  0  0  0
  -29.7000  -24.0260   18.3840 C   0  0  0  0  0  2  0  0  0  0  0  0
  -29.8720  -25.4540   17.9320 C   0  0  0  0  0  0  0  0  0  0  0  0
  -29.3120  -25.9990   16.7570 C   0  0  0  0  0  3  0  0  0  0  0  0
  -30.8240  -27.8550   16.8780 C   0  0  0  0  0  2  0  0  0  0  0  0
  -31.2770  -27.3820   18.1120 C   0  0  0  0  0  2  0  0  0  0  0  0
  -30.9700  -25.8260   20.1440 C   0  0  0  0  0  2  0  0  0  0  0  0
  -29.4160  -23.8700   19.8280 N   0  0  0  0  0  0  0  0  0  0  0  0
  -28.4330  -22.7110   21.5090 O   0  0  0  0  0  0  0  0  0  0  0  0
  -28.5980  -25.6730   21.2790 C   0  0  0  0  0  3  0  0  0  0  0  0
  -28.4820  -26.9980   21.1440 N   0  0  0  0  0  0  0  0  0  0  0  0
  -27.7560  -25.0270   21.8880 O   0  0  0  0  0  0  0  0  0  0  0  0
  -29.2630  -27.4970   20.7400 H   0  0  0  0  0  0  0  0  0  0  0  0
  -26.1150  -27.0390   24.0930 C   0  0  0  0  0  0  0  0  0  0  0  0
  -27.2360  -27.7950   21.3960 C   0  0  0  0  0  3  0  0  0  0  0  0
  -27.7230  -29.5280   21.4560 C   0  0  0  0  0  2  0  0  0  0  0  0
  -28.1830  -30.4760   22.9150 C   0  0  0  0  0  1  0  0  0  0  0  0
  -26.8370  -28.4320   25.2390 C   0  0  0  0  0  1  0  0  0  0  0  0
  -26.3640  -26.8650   22.5440 C   0  0  0  0  0  0  0  0  0  0  0  0
  -26.0020  -25.6440   21.8630 C   0  0  0  0  0  0  0  0  0  0  0  0
  -25.2760  -24.5990   22.4420 C   0  0  0  0  0  3  0  0  0  0  0  0
  -24.8620  -24.7870   23.7640 C   0  0  0  0  0  3  0  0  0  0  0  0
  -25.2690  -25.9380   24.5360 C   0  0  0  0  0  3  0  0  0  0  0  0
  -28.1420  -21.7370   19.3400 C   0  0  0  0  0  3  0  0  0  0  0  0
  -28.5580  -20.4560   19.9140 N   0  0  0  0  0  0  0  0  0  0  0  0
  -29.0690  -19.4420   19.2070 C   0  0  0  0  0  0  0  0  0  0  0  0
  -29.1550  -19.4590   17.9760 O   0  0  0  0  0  0  0  0  0  0  0  0
  -28.5790  -20.3980   20.9220 H   0  0  0  0  0  0  0  0  0  0  0  0
  -30.8280  -18.5730   20.7800 C   0  0  0  0  0  1  0  0  0  0  0  0
  -29.5570  -18.2160   19.9950 C   0  0  0  0  0  3  0  0  0  0  0  0
  -28.6010  -16.2970   18.8010 C   0  0  0  0  0  1  0  0  0  0  0  0
  -29.8130  -17.0380   19.1390 N   0  0  0  0  0  0  0  0  0  0  0  0
  -30.4580  -16.3980   19.5940 H   0  0  0  0  0  0  0  0  0  0  0  0
  -26.5780  -21.7920   19.1430 C   0  0  1  0  0  0  0  0  0  0  0  0
  -25.8350  -22.5620   20.2560 C   0  0  0  0  0  1  0  0  0  0  0  0
  -26.1980  -22.4420   17.7920 C   0  0  0  0  0  1  0  0  0  0  0  0
  -26.0240  -20.3520   19.1070 C   0  0  0  0  0  1  0  0  0  0  0  0
  3  4  1  0
  4  1  1  0
  4  7  1  0
  5  2  1  0
  5  6  1  0
  6 53  1  0
  6  3  2  0
  7  9  2  0
  7  8  1  0
  8 11  1  0
 10  8  1  0
 11 12  1  0
 12 13  1  0
 13 14  1  0
 14 23  1  0
 15 22  2  0
 15 21  1  0
 16 17  1  0
 18 17  1  0
 19 28  1  0
 19 20  1  0
 19 18  1  0
 20 21  1  0
 21 16  1  0
 23 15  1  0
 24 23  1  0
 25 28  1  0
 26 25  2  0
 26 27  1  0
 27 30  1  0
 27 29  2  0
 28 29  1  0
 30 35  1  0
 31 32  1  0
 31 30  2  0
 32 33  2  0
 33 36  1  0
 33 34  1  0
 35 34  2  0
 37 42  1  0
 37 36  1  0
 38 37  2  0
 39 40  2  0
 39 38  1  0
 40 41  1  0
 41 42  2  0
 42 43  1  0
 44 40  1  0
 45 26  1  0
 46 48  1  0
 46 45  1  0
 47 45  2  0
 49 46  1  0
 50 25  1  0
 50 52  1  0
 51 50  1  0
 53 54  1  0
 55  5  1  0
 56 55  1  0
 56 57  1  0
 58 69  2  0
 59 64  1  0
 59 65  1  0
 59 57  1  0
 60 67  1  0
 60 70  1  0
 61 66  1  0
 61 67  1  0
 62 68  1  0
 63 62  1  0
 63 61  1  0
 64 63  2  0
 65 66  1  0
 68 58  1  0
 68 60  1  0
 70 72  1  0
 71 70  1  0
 71 75  1  0
 73 71  1  0
 74 83  1  0
 74 78  1  0
 75 76  1  0
 75 79  1  0
 76 77  1  0
 79 74  2  0
 80 72  1  0
 80 81  2  0
 80 79  1  0
 81 82  1  0
 82 83  2  0
 84 85  1  0
 84 58  1  0
 85 88  1  0
 86 85  1  0
 86 90  1  0
 87 86  2  0
 90 89  1  0
 91 92  1  0
 92 93  1  0
 92 90  1  0
 94 84  1  0
 94 95  1  1
 96 94  1  0
 97 94  1  0
M  ISO  4  15 100  23 100  56 101  57 101
M  END
>  <TORSDO>  (63) 
F 24

>  <SCORE>  (63) 
-3.782

>  <name>  (63) 
67

>  <ligand_id>  (63) 
67

>  <original_smiles>  (63) 
[H]Oc1c([H])c(C(=O)N([H])C([H])([H])C([H])([H])C([H])([H])C([H])([H])N([H])C(=O)N2C([H])([H])C([H])([H])C([H])([H])C([H])(n3nc(-c4c([H])c([H])c(Oc5c([H])c([H])c(F)c([H])c5F)c([H])c4[H])c(C(=O)N([H])[H])c3N([H])[H])C2([H])[H])c([H])c([H])c1C([H])([H])C([H])([H])Oc1c([H])c([H])c2c(c1[H])C([H])([H])N(C(=O)C([H])(N([H])C(=O)C([H])(N([H])C([H])([H])[H])C([H])([H])[H])C(C([H])([H])[H])(C([H])([H])[H])C([H])([H])[H])C([H])(C(=O)N([H])C1([H])c3c([H])c([H])c([H])c([H])c3C([H])([H])C([H])([H])C1([H])[H])C2([H])[H]

>  <smiles>  (63) 
[H]Oc1c([H])c(C(=O)N([H])C([H])([H])C([H])([H])C([H])([H])C([H])([H])N([H])C(=O)N2C([H])([H])C([H])([H])C([H])([H])C([H])(n3nc(-c4c([H])c([H])c(Oc5c([H])c([H])c(F)c([H])c5F)c([H])c4[H])c(C(=O)N([H])[H])c3N([H])[H])C2([H])[H])c([H])c([H])c1C([H])([H])C([H])([H])Oc1c([H])c([H])c2c(c1[H])C([H])([H])N(C(=O)C([H])(N([H])C(=O)C([H])(N([H])C([H])([H])[H])C([H])([H])[H])C(C([H])([H])[H])(C([H])([H])[H])C([H])([H])[H])C([H])(C(=O)N([H])C1([H])c3c([H])c([H])c([H])c([H])c3C([H])([H])C([H])([H])C1([H])[H])C2([H])[H]

$$$$
68:0:0
     RDKit          3D

 97104  0  0  1  0  0  0  0  0999 V2000
  -31.0770  -22.1230   21.8500 C   0  0  0  0  0  3  0  0  0  0  0  0
  -30.2330  -23.1000   22.2620 C   0  0  0  0  0  0  0  0  0  0  0  0
  -31.3200  -21.6430   20.4730 C   0  0  0  0  0  0  0  0  0  0  0  0
  -31.0990  -22.2980   19.4510 O   0  0  0  0  0  0  0  0  0  0  0  0
  -31.9390  -20.2440   20.3440 C   0  0  0  0  0  2  0  0  0  0  0  0
  -30.9000  -19.1330   20.0900 C   0  0  0  0  0  2  0  0  0  0  0  0
  -31.3670  -17.7320   20.5580 C   0  0  0  0  0  2  0  0  0  0  0  0
  -30.4080  -16.6230   20.0830 C   0  0  0  0  0  2  0  0  0  0  0  0
  -31.2950  -14.2820   20.1940 C   0  0  0  0  0  0  0  0  0  0  0  0
  -31.0160  -12.0130   19.2750 C   0  0  0  0  0  2  0  0  0  0  0  0
  -30.0890  -12.1090   18.0440 C   0  0  0  0  0  2  0  0  0  0  0  0
  -28.6070  -12.0310   18.4610 C   0  0  0  0  0  2  0  0  0  0  0  0
  -28.2670  -12.9950   19.6290 C   0  0  0  0  0  3  0  0  0  0  0  0
  -29.2990  -12.8510   20.7710 C   0  0  0  0  0  2  0  0  0  0  0  0
  -30.6440  -13.0860   20.2090 N   0  0  0  0  0  0  0  0  0  0  0  0
  -32.3720  -14.4610   19.6210 O   0  0  0  0  0  0  0  0  0  0  0  0
  -30.5830  -15.3030   20.7050 N   0  0  0  0  0  0  0  0  0  0  0  0
  -29.8090  -15.0130   21.2820 H   0  0  0  0  0  0  0  0  0  0  0  0
  -25.8920  -13.7290   20.2940 C   0  0  0  0  0  0  0  0  0  0  0  0
  -24.7900  -13.0140   20.6840 C   0  0  0  0  0  0  0  0  0  0  0  0
  -25.1920  -11.6450   20.7010 C   0  0  0  0  0  0  0  0  0  0  0  0
  -26.9000  -12.7970   20.1020 N   0  0  0  0  0  0  0  0  0  0  0  0
  -26.4810  -11.5390   20.3990 N   0  0  0  0  0  0  0  0  0  0  0  0
  -24.4100  -10.4240   20.9340 C   0  0  0  0  0  0  0  0  0  0  0  0
  -24.7490   -9.5180   21.9620 C   0  0  0  0  0  3  0  0  0  0  0  0
  -23.9770   -8.3570   22.1760 C   0  0  0  0  0  3  0  0  0  0  0  0
  -22.8470   -8.0970   21.3660 C   0  0  0  0  0  0  0  0  0  0  0  0
  -22.5270   -8.9900   20.3280 C   0  0  0  0  0  3  0  0  0  0  0  0
  -23.3000  -10.1420   20.1120 C   0  0  0  0  0  3  0  0  0  0  0  0
  -22.0480   -6.9860   21.4890 O   0  0  0  0  0  0  0  0  0  0  0  0
  -21.8450   -6.3770   22.7000 C   0  0  0  0  0  0  0  0  0  0  0  0
  -21.2640   -7.0600   23.7900 C   0  0  0  0  0  3  0  0  0  0  0  0
  -21.0080   -6.3760   24.9960 C   0  0  0  0  0  3  0  0  0  0  0  0
  -21.3200   -5.0090   25.1100 C   0  0  0  0  0  0  0  0  0  0  0  0
  -21.8920   -4.3240   24.0230 C   0  0  0  0  0  3  0  0  0  0  0  0
  -22.1500   -5.0060   22.8210 C   0  0  0  0  0  0  0  0  0  0  0  0
  -22.6830   -4.3390   21.7700 F   0  0  0  0  0  0  0  0  0  0  0  0
  -21.0650   -4.3460   26.2630 F   0  0  0  0  0  0  0  0  0  0  0  0
  -23.4150  -13.5590   20.9390 C   0  0  0  0  0  0  0  0  0  0  0  0
  -22.6620  -12.9230   21.8320 N   0  0  0  0  0  0  0  0  0  0  0  0
  -23.0180  -14.5810   20.3820 O   0  0  0  0  0  0  0  0  0  0  0  0
  -22.9980  -12.0990   22.3080 H   0  0  0  0  0  0  0  0  0  0  0  0
  -21.7340  -13.2660   22.0350 H   0  0  0  0  0  0  0  0  0  0  0  0
  -26.1130  -15.0840   20.0700 N   0  0  0  0  0  0  0  0  0  0  0  0
  -25.3690  -15.7700   20.1450 H   0  0  0  0  0  0  0  0  0  0  0  0
  -26.9870  -15.4820   19.7460 H   0  0  0  0  0  0  0  0  0  0  0  0
  -29.2950  -23.9400   21.3840 C   0  0  0  0  0  2  0  0  0  0  0  0
  -29.9560  -25.2230   20.8320 C   0  0  0  0  0  2  0  0  0  0  0  0
  -29.0320  -26.4600   20.7930 C   0  0  0  0  0  2  0  0  0  0  0  0
  -27.9780  -26.3110   19.8420 O   0  0  0  0  0  0  0  0  0  0  0  0
  -24.6520  -31.6870   23.1920 C   0  0  0  0  0  0  0  0  0  0  0  0
  -26.9140  -27.1850   19.9200 C   0  0  0  0  0  0  0  0  0  0  0  0
  -23.3070  -30.4320   21.5340 C   0  0  0  0  0  3  0  0  0  0  0  0
  -24.6170  -28.8410   20.0280 C   0  0  0  0  0  0  0  0  0  0  0  0
  -25.8430  -30.6220   21.2820 C   0  0  0  0  0  2  0  0  0  0  0  0
  -25.8180  -29.2690   20.6050 C   0  0  0  0  0  0  0  0  0  0  0  0
  -26.9670  -28.4530   20.5530 C   0  0  0  0  0  3  0  0  0  0  0  0
  -25.7000  -26.7770   19.3310 C   0  0  0  0  0  3  0  0  0  0  0  0
  -24.5510  -27.5900   19.3870 C   0  0  0  0  0  3  0  0  0  0  0  0
  -23.4350  -29.7800   20.1300 C   0  0  0  0  0  2  0  0  0  0  0  0
  -24.6210  -30.9260   22.0610 N   0  0  0  0  0  0  0  0  0  0  0  0
  -23.6070  -32.0190   23.7700 O   0  0  0  0  0  0  0  0  0  0  0  0
  -22.6060  -29.4320   22.4800 C   0  0  0  0  0  0  0  0  0  0  0  0
  -21.2720  -29.3300   22.3580 N   0  0  0  0  0  0  0  0  0  0  0  0
  -23.2570  -28.7510   23.2790 O   0  0  0  0  0  0  0  0  0  0  0  0
  -20.8120  -29.9270   21.6840 H   0  0  0  0  0  0  0  0  0  0  0  0
  -17.8390  -28.3140   22.8380 C   0  0  0  0  0  0  0  0  0  0  0  0
  -20.4070  -28.4250   23.1140 C   0  0  0  0  0  3  0  0  0  0  0  0
  -20.4310  -27.0010   22.5100 C   0  0  0  0  0  2  0  0  0  0  0  0
  -19.3140  -26.7580   21.4920 C   0  0  0  0  0  2  0  0  0  0  0  0
  -17.9420  -26.9690   22.1390 C   0  0  0  0  0  2  0  0  0  0  0  0
  -18.9980  -29.0060   23.2800 C   0  0  0  0  0  0  0  0  0  0  0  0
  -18.8500  -30.2700   23.8920 C   0  0  0  0  0  3  0  0  0  0  0  0
  -17.5760  -30.8400   24.0660 C   0  0  0  0  0  3  0  0  0  0  0  0
  -16.4310  -30.1440   23.6400 C   0  0  0  0  0  3  0  0  0  0  0  0
  -16.5640  -28.8840   23.0320 C   0  0  0  0  0  3  0  0  0  0  0  0
  -25.9960  -32.1980   23.8000 C   0  0  0  0  0  3  0  0  0  0  0  0
  -26.4900  -31.3410   25.0290 C   0  0  1  0  0  0  0  0  0  0  0  0
  -25.4090  -31.1330   26.1140 C   0  0  0  0  0  1  0  0  0  0  0  0
  -26.9670  -29.9460   24.5630 C   0  0  0  0  0  1  0  0  0  0  0  0
  -27.7070  -32.0290   25.6930 C   0  0  0  0  0  1  0  0  0  0  0  0
  -25.8000  -33.6020   24.1860 N   0  0  0  0  0  0  0  0  0  0  0  0
  -26.2220  -34.6530   23.4710 C   0  0  0  0  0  0  0  0  0  0  0  0
  -26.8880  -34.5370   22.4400 O   0  0  0  0  0  0  0  0  0  0  0  0
  -25.2160  -33.7710   24.9920 H   0  0  0  0  0  0  0  0  0  0  0  0
  -24.6490  -36.5930   23.1820 C   0  0  0  0  0  1  0  0  0  0  0  0
  -25.8460  -36.0560   23.9840 C   0  0  0  0  0  3  0  0  0  0  0  0
  -28.0330  -36.7320   24.8720 C   0  0  0  0  0  1  0  0  0  0  0  0
  -26.9630  -37.0240   23.9210 N   0  0  0  0  0  0  0  0  0  0  0  0
  -26.6320  -37.9690   24.0970 H   0  0  0  0  0  0  0  0  0  0  0  0
  -30.1680  -23.4230   23.7550 C   0  0  0  0  0  2  0  0  0  0  0  0
  -29.7060  -22.2360   24.6260 C   0  0  0  0  0  2  0  0  0  0  0  0
  -30.6460  -21.0120   24.5870 C   0  0  0  0  0  2  0  0  0  0  0  0
  -30.1380  -19.9010   25.4100 N   0  0  0  0  0  4  0  0  0  0  0  0
  -30.0390  -20.1760   26.3700 H   0  0  0  0  0  0  0  0  0  0  0  0
  -30.7760  -19.1250   25.3760 H   0  0  0  0  0  0  0  0  0  0  0  0
  -29.2480  -19.5860   25.0700 H   0  0  0  0  0  0  0  0  0  0  0  0
  1  2  2  0
  2 91  1  0
  3  1  1  0
  4  3  2  0
  5  3  1  0
  6  5  1  0
  6  7  1  0
  8  7  1  0
  8 17  1  0
  9 15  1  0
  9 17  1  0
 10 15  1  0
 11 12  1  0
 11 10  1  0
 13 12  1  0
 13 22  1  0
 13 14  1  0
 15 14  1  0
 16  9  2  0
 17 18  1  0
 19 20  2  0
 20 21  1  0
 20 39  1  0
 21 24  1  0
 22 19  1  0
 22 23  1  0
 23 21  2  0
 24 25  1  0
 25 26  2  0
 27 30  1  0
 27 26  1  0
 28 27  2  0
 29 28  1  0
 29 24  2  0
 30 31  1  0
 31 36  2  0
 31 32  1  0
 32 33  2  0
 33 34  1  0
 34 38  1  0
 35 34  2  0
 36 35  1  0
 37 36  1  0
 39 40  1  0
 40 43  1  0
 40 42  1  0
 41 39  2  0
 44 45  1  0
 44 19  1  0
 46 44  1  0
 47  2  1  0
 48 47  1  0
 49 48  1  0
 50 52  1  0
 50 49  1  0
 51 62  2  0
 52 57  1  0
 53 61  1  0
 53 63  1  0
 54 60  1  0
 54 56  1  0
 55 61  1  0
 56 55  1  0
 57 56  2  0
 58 59  1  0
 58 52  2  0
 59 54  2  0
 60 53  1  0
 61 51  1  0
 63 65  2  0
 64 63  1  0
 66 64  1  0
 67 76  2  0
 67 72  1  0
 68 64  1  0
 68 72  1  0
 69 68  1  0
 70 71  1  0
 70 69  1  0
 71 67  1  0
 72 73  2  0
 73 74  1  0
 75 74  2  0
 76 75  1  0
 77 51  1  0
 77 82  1  0
 77 78  1  0
 78 81  1  1
 78 79  1  0
 80 78  1  0
 82 85  1  0
 83 87  1  0
 83 82  1  0
 84 83  2  0
 87 86  1  0
 89 87  1  0
 89 90  1  0
 89 88  1  0
 91 92  1  0
 93 92  1  0
 93 94  1  0
 94 95  1  0
 96 94  1  0
 97 94  1  0
M  ISO  4   9 100  17 100  49 101  50 101
M  END
>  <TORSDO>  (64) 
F 28

>  <SCORE>  (64) 
-9.740

>  <name>  (64) 
68

>  <ligand_id>  (64) 
68

>  <original_smiles>  (64) 
[H]C(C(=O)C([H])([H])C([H])([H])C([H])([H])C([H])([H])N([H])C(=O)N1C([H])([H])C([H])([H])C([H])([H])C([H])(n2nc(-c3c([H])c([H])c(Oc4c([H])c([H])c(F)c([H])c4F)c([H])c3[H])c(C(=O)N([H])[H])c2N([H])[H])C1([H])[H])=C(C([H])([H])C([H])([H])C([H])([H])Oc1c([H])c([H])c2c(c1[H])C([H])([H])N(C(=O)C([H])(N([H])C(=O)C([H])(N([H])C([H])([H])[H])C([H])([H])[H])C(C([H])([H])[H])(C([H])([H])[H])C([H])([H])[H])C([H])(C(=O)N([H])C1([H])c3c([H])c([H])c([H])c([H])c3C([H])([H])C([H])([H])C1([H])[H])C2([H])[H])C([H])([H])C([H])([H])C([H])([H])[N+]([H])([H])[H]

>  <smiles>  (64) 
[H]C(C(=O)C([H])([H])C([H])([H])C([H])([H])C([H])([H])N([H])C(=O)N1C([H])([H])C([H])([H])C([H])([H])C([H])(n2nc(-c3c([H])c([H])c(Oc4c([H])c([H])c(F)c([H])c4F)c([H])c3[H])c(C(=O)N([H])[H])c2N([H])[H])C1([H])[H])=C(C([H])([H])C([H])([H])C([H])([H])Oc1c([H])c([H])c2c(c1[H])C([H])([H])N(C(=O)C([H])(N([H])C(=O)C([H])(N([H])C([H])([H])[H])C([H])([H])[H])C(C([H])([H])[H])(C([H])([H])[H])C([H])([H])[H])C([H])(C(=O)N([H])C1([H])c3c([H])c([H])c([H])c([H])c3C([H])([H])C([H])([H])C1([H])[H])C2([H])[H])C([H])([H])C([H])([H])C([H])([H])[N+]([H])([H])[H]

$$$$
69:0:0
     RDKit          3D

 95104  0  0  1  0  0  0  0  0999 V2000
  -30.2630  -21.8790   23.9580 C   0  0  0  0  0  3  0  0  0  0  0  0
  -29.4600  -22.8090   23.3500 C   0  0  0  0  0  0  0  0  0  0  0  0
  -28.9590  -22.3670   22.0740 C   0  0  0  0  0  0  0  0  0  0  0  0
  -29.3530  -21.0660   21.7890 C   0  0  0  0  0  0  0  0  0  0  0  0
  -29.1440  -24.1180   24.0110 C   0  0  0  0  0  1  0  0  0  0  0  0
  -30.4010  -20.4280   23.0300 S   0  0  0  0  0  0  0  0  0  0  0  0
  -28.0170  -23.2100   21.2230 C   0  0  0  0  0  2  0  0  0  0  0  0
  -28.6340  -24.3900   20.4160 C   0  0  0  0  0  2  0  0  0  0  0  0
  -28.6300  -25.7790   21.1050 C   0  0  0  0  0  2  0  0  0  0  0  0
  -28.6310  -26.8940   20.1880 O   0  0  0  0  0  0  0  0  0  0  0  0
  -24.5960  -31.9260   23.2160 C   0  0  0  0  0  0  0  0  0  0  0  0
  -27.4570  -27.6130   20.1600 C   0  0  0  0  0  0  0  0  0  0  0  0
  -23.4750  -30.5120   21.5180 C   0  0  0  0  0  3  0  0  0  0  0  0
  -25.0210  -29.0410   20.1140 C   0  0  0  0  0  0  0  0  0  0  0  0
  -25.9920  -30.9610   21.3880 C   0  0  0  0  0  2  0  0  0  0  0  0
  -26.1430  -29.5980   20.7410 C   0  0  0  0  0  0  0  0  0  0  0  0
  -27.3670  -28.8890   20.7620 C   0  0  0  0  0  3  0  0  0  0  0  0
  -26.3210  -27.0710   19.5250 C   0  0  0  0  0  3  0  0  0  0  0  0
  -25.1020  -27.7770   19.5050 C   0  0  0  0  0  3  0  0  0  0  0  0
  -23.7470  -29.8580   20.1360 C   0  0  0  0  0  2  0  0  0  0  0  0
  -24.7050  -31.1490   22.0990 N   0  0  0  0  0  0  0  0  0  0  0  0
  -23.4920  -32.1550   23.7340 O   0  0  0  0  0  0  0  0  0  0  0  0
  -22.8350  -29.4580   22.4480 C   0  0  0  0  0  0  0  0  0  0  0  0
  -21.5090  -29.2760   22.3250 N   0  0  0  0  0  0  0  0  0  0  0  0
  -23.5260  -28.8090   23.2380 O   0  0  0  0  0  0  0  0  0  0  0  0
  -21.0110  -29.8580   21.6680 H   0  0  0  0  0  0  0  0  0  0  0  0
  -18.1360  -28.0730   22.8320 C   0  0  0  0  0  0  0  0  0  0  0  0
  -20.7020  -28.3060   23.0650 C   0  0  0  0  0  3  0  0  0  0  0  0
  -20.7830  -26.9010   22.4230 C   0  0  0  0  0  2  0  0  0  0  0  0
  -19.6620  -26.6340   21.4150 C   0  0  0  0  0  2  0  0  0  0  0  0
  -18.2930  -26.7570   22.0910 C   0  0  0  0  0  2  0  0  0  0  0  0
  -19.2690  -28.8100   23.2760 C   0  0  0  0  0  0  0  0  0  0  0  0
  -19.0680  -30.0440   23.9310 C   0  0  0  0  0  3  0  0  0  0  0  0
  -17.7690  -30.5470   24.1390 C   0  0  0  0  0  3  0  0  0  0  0  0
  -16.6530  -29.8060   23.7100 C   0  0  0  0  0  3  0  0  0  0  0  0
  -16.8390  -28.5720   23.0650 C   0  0  0  0  0  3  0  0  0  0  0  0
  -25.8440  -32.5860   23.8810 C   0  0  0  0  0  3  0  0  0  0  0  0
  -25.4990  -33.9800   24.1860 N   0  0  0  0  0  0  0  0  0  0  0  0
  -25.8440  -35.0330   23.4310 C   0  0  0  0  0  0  0  0  0  0  0  0
  -26.5560  -34.9320   22.4260 O   0  0  0  0  0  0  0  0  0  0  0  0
  -24.8700  -34.1340   24.9610 H   0  0  0  0  0  0  0  0  0  0  0  0
  -24.0990  -36.7920   22.9940 C   0  0  0  0  0  1  0  0  0  0  0  0
  -25.3140  -36.4160   23.8580 C   0  0  0  0  0  3  0  0  0  0  0  0
  -27.3990  -37.3450   24.7600 C   0  0  0  0  0  1  0  0  0  0  0  0
  -26.3300  -37.4870   23.7750 N   0  0  0  0  0  0  0  0  0  0  0  0
  -25.9020  -38.3990   23.9010 H   0  0  0  0  0  0  0  0  0  0  0  0
  -26.3320  -31.8330   25.1780 C   0  0  1  0  0  0  0  0  0  0  0  0
  -25.2100  -31.5810   26.2120 C   0  0  0  0  0  1  0  0  0  0  0  0
  -26.9530  -30.4640   24.8120 C   0  0  0  0  0  1  0  0  0  0  0  0
  -27.4500  -32.6490   25.8710 C   0  0  0  0  0  1  0  0  0  0  0  0
  -28.9760  -20.1390   20.6580 C   0  0  0  0  0  2  0  0  0  0  0  0
  -30.1630  -19.6580   19.8030 C   0  0  0  0  0  2  0  0  0  0  0  0
  -31.8940  -17.7800   18.0970 C   0  0  0  0  0  2  0  0  0  0  0  0
  -32.2130  -18.2410   19.5220 C   0  0  0  0  0  2  0  0  0  0  0  0
  -30.6360  -16.9040   18.2150 C   0  0  0  0  0  2  0  0  0  0  0  0
  -30.8520  -18.3140   20.2220 C   0  0  0  0  0  3  0  0  0  0  0  0
  -30.1520  -17.0380   19.6770 C   0  0  0  0  0  3  0  0  0  0  0  0
  -31.1460  -14.7380   20.3430 C   0  0  0  0  0  0  0  0  0  0  0  0
  -30.8830  -12.4830   19.3940 C   0  0  0  0  0  2  0  0  0  0  0  0
  -29.9840  -12.6540   18.1490 C   0  0  0  0  0  2  0  0  0  0  0  0
  -28.4920  -12.5840   18.5350 C   0  0  0  0  0  2  0  0  0  0  0  0
  -28.1450  -13.4710   19.7600 C   0  0  0  0  0  3  0  0  0  0  0  0
  -29.1690  -13.2850   20.9040 C   0  0  0  0  0  2  0  0  0  0  0  0
  -30.5090  -13.5330   20.3510 N   0  0  0  0  0  0  0  0  0  0  0  0
  -32.3130  -14.8710   19.9700 O   0  0  0  0  0  0  0  0  0  0  0  0
  -30.3030  -15.7900   20.4790 N   0  0  0  0  0  0  0  0  0  0  0  0
  -29.4480  -15.5140   20.9330 H   0  0  0  0  0  0  0  0  0  0  0  0
  -25.7680  -14.1800   20.4510 C   0  0  0  0  0  0  0  0  0  0  0  0
  -24.6620  -13.4440   20.7880 C   0  0  0  0  0  0  0  0  0  0  0  0
  -25.0630  -12.0730   20.7370 C   0  0  0  0  0  0  0  0  0  0  0  0
  -26.7760  -13.2540   20.2170 N   0  0  0  0  0  0  0  0  0  0  0  0
  -26.3540  -11.9860   20.4470 N   0  0  0  0  0  0  0  0  0  0  0  0
  -24.2830  -10.8400   20.8900 C   0  0  0  0  0  0  0  0  0  0  0  0
  -24.6550   -9.8420   21.8170 C   0  0  0  0  0  3  0  0  0  0  0  0
  -23.8750   -8.6740   21.9590 C   0  0  0  0  0  3  0  0  0  0  0  0
  -22.7180   -8.4940   21.1660 C   0  0  0  0  0  0  0  0  0  0  0  0
  -22.3630   -9.4820   20.2310 C   0  0  0  0  0  3  0  0  0  0  0  0
  -23.1420  -10.6420   20.0880 C   0  0  0  0  0  3  0  0  0  0  0  0
  -21.9150   -7.3760   21.2140 O   0  0  0  0  0  0  0  0  0  0  0  0
  -21.7840   -6.6350   22.3590 C   0  0  0  0  0  0  0  0  0  0  0  0
  -21.3270   -7.2060   23.5680 C   0  0  0  0  0  3  0  0  0  0  0  0
  -21.1370   -6.3930   24.7030 C   0  0  0  0  0  3  0  0  0  0  0  0
  -21.3950   -5.0120   24.6310 C   0  0  0  0  0  0  0  0  0  0  0  0
  -21.8490   -4.4390   23.4290 C   0  0  0  0  0  3  0  0  0  0  0  0
  -22.0400   -5.2510   22.2950 C   0  0  0  0  0  0  0  0  0  0  0  0
  -22.4520   -4.6910   21.1340 F   0  0  0  0  0  0  0  0  0  0  0  0
  -21.2100   -4.2300   25.7210 F   0  0  0  0  0  0  0  0  0  0  0  0
  -23.2820  -13.9750   21.0500 C   0  0  0  0  0  0  0  0  0  0  0  0
  -22.5200  -13.2980   21.9040 N   0  0  0  0  0  0  0  0  0  0  0  0
  -22.8860  -15.0200   20.5350 O   0  0  0  0  0  0  0  0  0  0  0  0
  -22.8610  -12.4550   22.3390 H   0  0  0  0  0  0  0  0  0  0  0  0
  -21.5940  -13.6310   22.1250 H   0  0  0  0  0  0  0  0  0  0  0  0
  -25.9940  -15.5440   20.3060 N   0  0  0  0  0  0  0  0  0  0  0  0
  -25.2460  -16.2230   20.4170 H   0  0  0  0  0  0  0  0  0  0  0  0
  -26.8520  -15.9520   19.9500 H   0  0  0  0  0  0  0  0  0  0  0  0
  2  1  2  0
  2  5  1  0
  3  2  1  0
  4  3  2  0
  4  6  1  0
  6  1  1  0
  7  3  1  0
  8  9  1  0
  8  7  1  0
 10  9  1  0
 11 22  2  0
 12 10  1  0
 12 17  1  0
 13 21  1  0
 13 23  1  0
 14 20  1  0
 14 16  1  0
 15 21  1  0
 16 17  2  0
 16 15  1  0
 18 12  2  0
 19 18  1  0
 19 14  2  0
 20 13  1  0
 21 11  1  0
 23 25  2  0
 24 23  1  0
 26 24  1  0
 27 36  2  0
 27 32  1  0
 28 24  1  0
 28 32  1  0
 29 28  1  0
 30 31  1  0
 30 29  1  0
 31 27  1  0
 32 33  2  0
 33 34  1  0
 35 34  2  0
 36 35  1  0
 37 11  1  0
 37 38  1  0
 37 47  1  0
 38 41  1  0
 39 43  1  0
 39 38  1  0
 40 39  2  0
 43 42  1  0
 45 43  1  0
 45 46  1  0
 45 44  1  0
 47 50  1  1
 47 48  1  0
 49 47  1  0
 51  4  1  0
 52 51  1  0
 53 55  1  0
 53 54  1  0
 54 56  1  0
 55 57  1  0
 56 52  1  0
 57 56  1  0
 57 66  1  0
 58 64  1  0
 58 66  1  0
 59 64  1  0
 60 61  1  0
 60 59  1  0
 62 61  1  0
 62 71  1  0
 62 63  1  0
 64 63  1  0
 65 58  2  0
 66 67  1  0
 68 69  2  0
 69 88  1  0
 70 69  1  0
 70 73  1  0
 71 72  1  0
 71 68  1  0
 72 70  2  0
 73 74  1  0
 74 75  2  0
 76 79  1  0
 76 75  1  0
 77 76  2  0
 78 77  1  0
 78 73  2  0
 79 80  1  0
 80 81  1  0
 81 82  2  0
 83 82  1  0
 83 87  1  0
 84 83  2  0
 85 80  2  0
 85 84  1  0
 86 85  1  0
 88 89  1  0
 89 92  1  0
 89 91  1  0
 90 88  2  0
 93 94  1  0
 93 68  1  0
 95 93  1  0
M  ISO  4   9 101  10 101  58 100  66 100
M  END
>  <TORSDO>  (65) 
F 22

>  <SCORE>  (65) 
-12.251

>  <name>  (65) 
69

>  <ligand_id>  (65) 
69

>  <original_smiles>  (65) 
[H]c1sc(C([H])([H])C([H])([H])C2([H])C([H])([H])C([H])([H])C([H])([H])C2([H])N([H])C(=O)N2C([H])([H])C([H])([H])C([H])([H])C([H])(n3nc(-c4c([H])c([H])c(Oc5c([H])c([H])c(F)c([H])c5F)c([H])c4[H])c(C(=O)N([H])[H])c3N([H])[H])C2([H])[H])c(C([H])([H])C([H])([H])C([H])([H])Oc2c([H])c([H])c3c(c2[H])C([H])([H])N(C(=O)C([H])(N([H])C(=O)C([H])(N([H])C([H])([H])[H])C([H])([H])[H])C(C([H])([H])[H])(C([H])([H])[H])C([H])([H])[H])C([H])(C(=O)N([H])C2([H])c4c([H])c([H])c([H])c([H])c4C([H])([H])C([H])([H])C2([H])[H])C3([H])[H])c1C([H])([H])[H]

>  <smiles>  (65) 
[H]c1sc(C([H])([H])C([H])([H])C2([H])C([H])([H])C([H])([H])C([H])([H])C2([H])N([H])C(=O)N2C([H])([H])C([H])([H])C([H])([H])C([H])(n3nc(-c4c([H])c([H])c(Oc5c([H])c([H])c(F)c([H])c5F)c([H])c4[H])c(C(=O)N([H])[H])c3N([H])[H])C2([H])[H])c(C([H])([H])C([H])([H])C([H])([H])Oc2c([H])c([H])c3c(c2[H])C([H])([H])N(C(=O)C([H])(N([H])C(=O)C([H])(N([H])C([H])([H])[H])C([H])([H])[H])C(C([H])([H])[H])(C([H])([H])[H])C([H])([H])[H])C([H])(C(=O)N([H])C2([H])c4c([H])c([H])c([H])c([H])c4C([H])([H])C([H])([H])C2([H])[H])C3([H])[H])c1C([H])([H])[H]

$$$$
70:0:0
     RDKit          3D

 95103  0  0  1  0  0  0  0  0999 V2000
  -30.0450  -21.3560   19.7580 C   0  0  0  0  0  3  0  0  0  0  0  0
  -30.0010  -22.6840   19.3080 C   0  0  0  0  0  3  0  0  0  0  0  0
  -27.6200  -21.2280   19.6290 C   0  0  0  0  0  3  0  0  0  0  0  0
  -28.8550  -20.6110   19.9290 C   0  0  0  0  0  0  0  0  0  0  0  0
  -27.5710  -22.5670   19.1870 C   0  0  0  0  0  0  0  0  0  0  0  0
  -28.7630  -23.3120   19.0450 C   0  0  0  0  0  0  0  0  0  0  0  0
  -26.2290  -23.2090   18.8950 C   0  0  0  0  0  1  0  0  0  0  0  0
  -28.8830  -19.2000   20.4130 C   0  0  0  0  0  0  0  0  0  0  0  0
  -27.8670  -18.5150   20.5660 O   0  0  0  0  0  0  0  0  0  0  0  0
  -30.2640  -18.6150   20.7250 C   0  0  0  0  0  2  0  0  0  0  0  0
  -30.2690  -17.1390   21.1410 C   0  0  0  0  0  2  0  0  0  0  0  0
  -31.6950  -16.5690   21.0500 C   0  0  0  0  0  2  0  0  0  0  0  0
  -31.8210  -15.1250   21.5510 C   0  0  0  0  0  2  0  0  0  0  0  0
  -30.7680  -13.7870   19.7150 C   0  0  0  0  0  0  0  0  0  0  0  0
  -30.1490  -11.7370   18.5060 C   0  0  0  0  0  2  0  0  0  0  0  0
  -29.0600  -11.9110   17.4370 C   0  0  0  0  0  2  0  0  0  0  0  0
  -27.6620  -11.7920   18.0660 C   0  0  0  0  0  2  0  0  0  0  0  0
  -27.4940  -12.7120   19.3000 C   0  0  0  0  0  3  0  0  0  0  0  0
  -28.6670  -12.5350   20.2880 C   0  0  0  0  0  2  0  0  0  0  0  0
  -29.9410  -12.7280   19.5670 N   0  0  0  0  0  0  0  0  0  0  0  0
  -31.5680  -14.1630   18.8520 O   0  0  0  0  0  0  0  0  0  0  0  0
  -30.8140  -14.2380   20.9740 N   0  0  0  0  0  0  0  0  0  0  0  0
  -30.1660  -13.8070   21.6180 H   0  0  0  0  0  0  0  0  0  0  0  0
  -25.2410  -13.4120   20.3380 C   0  0  0  0  0  0  0  0  0  0  0  0
  -24.1980  -12.6800   20.8380 C   0  0  0  0  0  0  0  0  0  0  0  0
  -24.5870  -11.3110   20.7220 C   0  0  0  0  0  0  0  0  0  0  0  0
  -26.2050  -12.4910   19.9550 N   0  0  0  0  0  0  0  0  0  0  0  0
  -25.8200  -11.2200   20.2400 N   0  0  0  0  0  0  0  0  0  0  0  0
  -23.8370  -10.0760   20.9900 C   0  0  0  0  0  0  0  0  0  0  0  0
  -24.3100   -9.1060   21.8990 C   0  0  0  0  0  3  0  0  0  0  0  0
  -23.5610   -7.9360   22.1520 C   0  0  0  0  0  3  0  0  0  0  0  0
  -22.3240   -7.7300   21.4970 C   0  0  0  0  0  0  0  0  0  0  0  0
  -21.8680   -8.6880   20.5750 C   0  0  0  0  0  3  0  0  0  0  0  0
  -22.6170   -9.8490   20.3200 C   0  0  0  0  0  3  0  0  0  0  0  0
  -21.5420   -6.6120   21.6610 O   0  0  0  0  0  0  0  0  0  0  0  0
  -21.5390   -5.9010   22.8340 C   0  0  0  0  0  0  0  0  0  0  0  0
  -21.1850   -6.4950   24.0650 C   0  0  0  0  0  3  0  0  0  0  0  0
  -21.1290   -5.7110   25.2350 C   0  0  0  0  0  3  0  0  0  0  0  0
  -21.4170   -4.3340   25.1750 C   0  0  0  0  0  0  0  0  0  0  0  0
  -21.7640   -3.7400   23.9490 C   0  0  0  0  0  3  0  0  0  0  0  0
  -21.8220   -4.5210   22.7820 C   0  0  0  0  0  0  0  0  0  0  0  0
  -22.1370   -3.9390   21.5990 F   0  0  0  0  0  0  0  0  0  0  0  0
  -21.3560   -3.5790   26.2970 F   0  0  0  0  0  0  0  0  0  0  0  0
  -22.8750  -13.2100   21.3090 C   0  0  0  0  0  0  0  0  0  0  0  0
  -22.2480  -12.5330   22.2650 N   0  0  0  0  0  0  0  0  0  0  0  0
  -22.4100  -14.2590   20.8630 O   0  0  0  0  0  0  0  0  0  0  0  0
  -22.6390  -11.6830   22.6440 H   0  0  0  0  0  0  0  0  0  0  0  0
  -21.3650  -12.8680   22.6230 H   0  0  0  0  0  0  0  0  0  0  0  0
  -25.4450  -14.7780   20.1610 N   0  0  0  0  0  0  0  0  0  0  0  0
  -24.7400  -15.4690   20.3890 H   0  0  0  0  0  0  0  0  0  0  0  0
  -26.2790  -15.1810   19.7520 H   0  0  0  0  0  0  0  0  0  0  0  0
  -28.6660  -24.6260   18.6540 O   0  0  0  0  0  0  0  0  0  0  0  0
  -29.8190  -25.4460   18.8210 C   0  0  0  0  0  2  0  0  0  0  0  0
  -29.3450  -26.8770   19.0400 C   0  0  0  0  0  2  0  0  0  0  0  0
  -28.7620  -26.9650   20.3410 O   0  0  0  0  0  0  0  0  0  0  0  0
  -24.6340  -31.8840   23.3830 C   0  0  0  0  0  0  0  0  0  0  0  0
  -27.5440  -27.5880   20.3700 C   0  0  0  0  0  0  0  0  0  0  0  0
  -23.5320  -30.4450   21.6980 C   0  0  0  0  0  3  0  0  0  0  0  0
  -25.0850  -28.9560   20.3320 C   0  0  0  0  0  0  0  0  0  0  0  0
  -26.0450  -30.8960   21.5880 C   0  0  0  0  0  2  0  0  0  0  0  0
  -26.1980  -29.5290   20.9620 C   0  0  0  0  0  0  0  0  0  0  0  0
  -27.4270  -28.8420   20.9960 C   0  0  0  0  0  3  0  0  0  0  0  0
  -26.4120  -27.0030   19.7610 C   0  0  0  0  0  3  0  0  0  0  0  0
  -25.1810  -27.6840   19.7410 C   0  0  0  0  0  3  0  0  0  0  0  0
  -23.8110  -29.7700   20.3280 C   0  0  0  0  0  2  0  0  0  0  0  0
  -24.7520  -31.0900   22.2820 N   0  0  0  0  0  0  0  0  0  0  0  0
  -23.5270  -32.1200   23.8860 O   0  0  0  0  0  0  0  0  0  0  0  0
  -22.8860  -29.4000   22.6350 C   0  0  0  0  0  0  0  0  0  0  0  0
  -21.5840  -29.1420   22.4300 N   0  0  0  0  0  0  0  0  0  0  0  0
  -23.5530  -28.8250   23.4990 O   0  0  0  0  0  0  0  0  0  0  0  0
  -21.1080  -29.6600   21.7060 H   0  0  0  0  0  0  0  0  0  0  0  0
  -18.2670  -27.7420   22.7100 C   0  0  0  0  0  0  0  0  0  0  0  0
  -20.7740  -28.1700   23.1640 C   0  0  0  0  0  3  0  0  0  0  0  0
  -21.0110  -26.7370   22.6360 C   0  0  0  0  0  2  0  0  0  0  0  0
  -20.0110  -26.3200   21.5520 C   0  0  0  0  0  2  0  0  0  0  0  0
  -18.5790  -26.3910   22.0890 C   0  0  0  0  0  2  0  0  0  0  0  0
  -19.2990  -28.5850   23.2000 C   0  0  0  0  0  0  0  0  0  0  0  0
  -18.9580  -29.8460   23.7360 C   0  0  0  0  0  3  0  0  0  0  0  0
  -17.6170  -30.2660   23.7890 C   0  0  0  0  0  3  0  0  0  0  0  0
  -16.5970  -29.4230   23.3160 C   0  0  0  0  0  3  0  0  0  0  0  0
  -16.9220  -28.1620   22.7830 C   0  0  0  0  0  3  0  0  0  0  0  0
  -25.8790  -32.5540   24.0460 C   0  0  0  0  0  3  0  0  0  0  0  0
  -25.5360  -33.9570   24.3110 N   0  0  0  0  0  0  0  0  0  0  0  0
  -25.8890  -34.9860   23.5270 C   0  0  0  0  0  0  0  0  0  0  0  0
  -26.6090  -34.8550   22.5330 O   0  0  0  0  0  0  0  0  0  0  0  0
  -24.9020  -34.1330   25.0760 H   0  0  0  0  0  0  0  0  0  0  0  0
  -24.1460  -36.7280   23.0280 C   0  0  0  0  0  1  0  0  0  0  0  0
  -25.3580  -36.3810   23.9070 C   0  0  0  0  0  3  0  0  0  0  0  0
  -27.4420  -37.3370   24.7880 C   0  0  0  0  0  1  0  0  0  0  0  0
  -26.3770  -37.4470   23.7950 N   0  0  0  0  0  0  0  0  0  0  0  0
  -25.9500  -38.3650   23.8880 H   0  0  0  0  0  0  0  0  0  0  0  0
  -26.3420  -31.8320   25.3710 C   0  0  1  0  0  0  0  0  0  0  0  0
  -25.1940  -31.5790   26.3750 C   0  0  0  0  0  1  0  0  0  0  0  0
  -26.9970  -30.4690   25.0480 C   0  0  0  0  0  1  0  0  0  0  0  0
  -27.4210  -32.6830   26.0810 C   0  0  0  0  0  1  0  0  0  0  0  0
  1  4  1  0
  2  1  2  0
  3  4  2  0
  4  8  1  0
  5  3  1  0
  6  5  2  0
  6  2  1  0
  7  5  1  0
  8  9  2  0
  8 10  1  0
 10 11  1  0
 12 11  1  0
 12 13  1  0
 14 22  1  0
 15 20  1  0
 16 17  1  0
 16 15  1  0
 18 17  1  0
 18 27  1  0
 18 19  1  0
 20 14  1  0
 20 19  1  0
 21 14  2  0
 22 13  1  0
 22 23  1  0
 24 25  2  0
 25 44  1  0
 26 25  1  0
 26 29  1  0
 27 28  1  0
 27 24  1  0
 28 26  2  0
 29 30  1  0
 30 31  2  0
 32 35  1  0
 32 31  1  0
 33 32  2  0
 34 33  1  0
 34 29  2  0
 35 36  1  0
 36 37  1  0
 37 38  2  0
 39 38  1  0
 39 43  1  0
 40 39  2  0
 41 36  2  0
 41 40  1  0
 42 41  1  0
 44 45  1  0
 45 48  1  0
 45 47  1  0
 46 44  2  0
 49 24  1  0
 49 50  1  0
 51 49  1  0
 52 53  1  0
 52  6  1  0
 53 54  1  0
 54 55  1  0
 55 57  1  0
 56 67  2  0
 57 62  1  0
 58 66  1  0
 58 68  1  0
 59 61  1  0
 60 66  1  0
 61 62  2  0
 61 60  1  0
 63 57  2  0
 64 63  1  0
 64 59  2  0
 65 59  1  0
 65 58  1  0
 66 56  1  0
 68 70  2  0
 69 68  1  0
 71 69  1  0
 72 81  2  0
 72 77  1  0
 73 69  1  0
 73 77  1  0
 74 73  1  0
 75 76  1  0
 75 74  1  0
 76 72  1  0
 77 78  2  0
 78 79  1  0
 80 79  2  0
 81 80  1  0
 82 56  1  0
 82 83  1  0
 82 92  1  0
 83 86  1  0
 84 88  1  0
 84 83  1  0
 85 84  2  0
 88 87  1  0
 90 91  1  0
 90 88  1  0
 90 89  1  0
 92 95  1  1
 92 93  1  0
 94 92  1  0
M  ISO  4  14 100  22 100  54 101  55 101
M  END
>  <TORSDO>  (66) 
F 24

>  <SCORE>  (66) 
-11.234

>  <name>  (66) 
70

>  <ligand_id>  (66) 
70

>  <original_smiles>  (66) 
[H]c1c([H])c([H])c2c(c1[H])C([H])([H])C([H])([H])C([H])([H])C2([H])N([H])C(=O)C1([H])N(C(=O)C([H])(N([H])C(=O)C([H])(N([H])C([H])([H])[H])C([H])([H])[H])C(C([H])([H])[H])(C([H])([H])[H])C([H])([H])[H])C([H])([H])c2c([H])c(OC([H])([H])C([H])([H])Oc3c([H])c([H])c(C(=O)C([H])([H])C([H])([H])C([H])([H])C([H])([H])N([H])C(=O)N4C([H])([H])C([H])([H])C([H])([H])C([H])(n5nc(-c6c([H])c([H])c(Oc7c([H])c([H])c(F)c([H])c7F)c([H])c6[H])c(C(=O)N([H])[H])c5N([H])[H])C4([H])[H])c([H])c3C([H])([H])[H])c([H])c([H])c2C1([H])[H]

>  <smiles>  (66) 
[H]c1c([H])c([H])c2c(c1[H])C([H])([H])C([H])([H])C([H])([H])C2([H])N([H])C(=O)C1([H])N(C(=O)C([H])(N([H])C(=O)C([H])(N([H])C([H])([H])[H])C([H])([H])[H])C(C([H])([H])[H])(C([H])([H])[H])C([H])([H])[H])C([H])([H])c2c([H])c(OC([H])([H])C([H])([H])Oc3c([H])c([H])c(C(=O)C([H])([H])C([H])([H])C([H])([H])C([H])([H])N([H])C(=O)N4C([H])([H])C([H])([H])C([H])([H])C([H])(n5nc(-c6c([H])c([H])c(Oc7c([H])c([H])c(F)c([H])c7F)c([H])c6[H])c(C(=O)N([H])[H])c5N([H])[H])C4([H])[H])c([H])c3C([H])([H])[H])c([H])c([H])c2C1([H])[H]

$$$$
72:0:0
     RDKit          3D

 96 94  0  0  1  0  0  0  0  0999 V2000
  -26.8500  -15.4260   20.2820 C   0  0  0  0  0 15  0  0  0  0  0  0
  -23.4710  -15.5150   18.8630 C   0  0  0  0  0 15  0  0  0  0  0  0
  -26.3380  -13.5500   21.3040 C   0  0  0  0  0  1  0  0  0  0  0  0
  -25.4350  -16.6910   19.1950 C   0  0  0  0  0 15  0  0  0  0  0  0
  -22.6870  -13.6080   19.8350 C   0  0  0  0  0  1  0  0  0  0  0  0
  -24.3740  -12.4750   21.5250 C   0  0  0  0  0  1  0  0  0  0  0  0
  -21.1620  -13.4140   19.7910 C   0  0  0  0  0  1  0  0  0  0  0  0
  -24.1990  -11.3190   22.5400 C   0  0  0  0  0  1  0  0  0  0  0  0
  -27.5610  -13.0000   21.9820 C   0  0  0  0  0  0  0  0  0  0  0  0
  -27.5950  -11.8310   22.3690 O   0  0  0  0  0  0  0  0  0  0  0  0
  -28.8120  -13.9070   22.2490 C   0  0  0  0  0  2  0  0  0  0  0  0
  -29.8820  -14.1360   21.1170 C   0  0  0  0  0  2  0  0  0  0  0  0
  -29.5480  -15.3190   20.1710 C   0  0  0  0  0  2  0  0  0  0  0  0
  -30.6540  -16.2960   19.7040 C   0  0  0  0  0  2  0  0  0  0  0  0
  -31.4180  -15.8060   18.4220 C   0  0  0  0  0  2  0  0  0  0  0  0
  -33.3550  -14.1790   18.8360 C   0  0  0  0  0  0  0  0  0  0  0  0
  -34.8720  -12.5480   19.9730 C   0  0  0  0  0  2  0  0  0  0  0  0
  -34.8050  -11.1520   19.3300 C   0  0  0  0  0  2  0  0  0  0  0  0
  -33.5600  -10.3360   19.7870 C   0  0  0  0  0  2  0  0  0  0  0  0
  -32.1370  -11.1220   19.7210 C   0  0  0  0  0  3  0  0  0  0  0  0
  -32.5000  -12.5090   20.4500 C   0  0  0  0  0  2  0  0  0  0  0  0
  -33.5740  -13.2010   19.7450 N   0  0  0  0  0  0  0  0  0  0  0  0
  -34.2560  -14.7090   18.1870 O   0  0  0  0  0  0  0  0  0  0  0  0
  -32.0620  -14.5090   18.6780 N   0  0  0  0  0  0  0  0  0  0  0  0
  -31.4350  -13.8180   19.0590 H   0  0  0  0  0  0  0  0  0  0  0  0
  -28.8940  -10.4210   20.5210 C   0  0  0  0  0  2  0  0  0  0  0  0
  -28.7920   -9.7180   20.8690 C   0  0  0  0  0  2  0  0  0  0  0  0
  -30.9390   -9.1310   21.0540 C   0  0  0  0  0  3  0  0  0  0  0  0
  -30.8640  -10.3560   20.3440 N   0  0  0  0  0  0  0  0  0  0  0  0
  -31.7860   -9.8010   21.0970 N   0  0  0  0  0  2  0  0  0  0  0  0
  -31.5270   -7.5210   21.8840 C   0  0  0  0  0  0  0  0  0  0  0  0
  -31.5130   -7.1800   23.3420 C   0  0  0  0  0  3  0  0  0  0  0  0
  -31.4550   -5.8590   24.0140 C   0  0  0  0  0  3  0  0  0  0  0  0
  -31.3720   -4.6220   23.3170 C   0  0  0  0  0  0  0  0  0  0  0  0
  -31.3740   -4.8400   21.9220 C   0  0  0  0  0  3  0  0  0  0  0  0
  -31.5020   -6.1530   21.3130 C   0  0  0  0  0  3  0  0  0  0  0  0
  -31.4020   -3.2900   23.8120 O   0  0  0  0  0  0  0  0  0  0  0  0
  -30.8100   -2.8020   24.9830 C   0  0  0  0  0  0  0  0  0  0  0  0
  -29.4940   -2.2840   24.9720 C   0  0  0  0  0  3  0  0  0  0  0  0
  -28.9070   -1.7560   26.1440 C   0  0  0  0  0  3  0  0  0  0  0  0
  -29.6310   -1.7140   27.3490 C   0  0  0  0  0  0  0  0  0  0  0  0
  -30.9630   -2.1660   27.3690 C   0  0  0  0  0  3  0  0  0  0  0  0
  -31.5540   -2.6880   26.1960 C   0  0  0  0  0  0  0  0  0  0  0  0
  -32.8490   -3.0840   26.2540 F   0  0  0  0  0  0  0  0  0  0  0  0
  -29.0500   -1.2300   28.4770 F   0  0  0  0  0  0  0  0  0  0  0  0
  -27.3520   -8.8140   21.0560 C   0  0  0  0  0  0  0  0  0  0  0  0
  -27.0220   -7.9990   22.0890 N   0  0  0  0  0  0  0  0  0  0  0  0
  -26.6890   -8.6490   20.0560 O   0  0  0  0  0  0  0  0  0  0  0  0
  -27.6190   -7.9110   22.8980 H   0  0  0  0  0  0  0  0  0  0  0  0
  -26.2000   -7.4150   22.0250 H   0  0  0  0  0  0  0  0  0  0  0  0
  -27.6750  -11.1910   20.3220 N   0  0  0  0  0  0  0  0  0  0  0  0
  -26.9860  -10.5320   19.9670 H   0  0  0  0  0  0  0  0  0  0  0  0
  -27.8410  -11.9360   19.6490 H   0  0  0  0  0  0  0  0  0  0  0  0
  -25.8560  -19.1200   19.2230 C   0  0  0  0  0 15  0  0  0  0  0  0
  -25.9550  -21.6880   19.9040 C   0  0  0  0  0 15  0  0  0  0  0  0
  -26.5210  -23.9760   19.9600 O   0  0  0  0  0  1  0  0  0  0  0  0
  -24.6010  -31.8810   23.2590 C   0  0  0  0  0  0  0  0  0  0  0  0
  -26.1100  -25.7860   20.0750 C   0  0  0  0  0  0  0  0  0  0  0  0
  -23.2770  -30.5540   21.7030 C   0  0  0  0  0  3  0  0  0  0  0  0
  -24.4530  -28.7100   20.1570 C   0  0  0  0  0  0  0  0  0  0  0  0
  -25.8410  -30.2140   21.5150 C   0  0  0  0  0  2  0  0  0  0  0  0
  -25.6780  -28.6930   20.8190 C   0  0  0  0  0  0  0  0  0  0  0  0
  -26.4750  -27.2970   20.7230 C   0  0  0  0  0  3  0  0  0  0  0  0
  -25.0020  -26.3280   19.3100 C   0  0  0  0  0  3  0  0  0  0  0  0
  -24.2410  -27.5730   19.3520 C   0  0  0  0  0  3  0  0  0  0  0  0
  -23.4120  -29.8670   20.2990 C   0  0  0  0  0  2  0  0  0  0  0  0
  -24.6310  -30.9540   22.2000 N   0  0  0  0  0  0  0  0  0  0  0  0
  -23.5370  -32.2310   23.8100 O   0  0  0  0  0  0  0  0  0  0  0  0
  -22.5640  -29.6180   22.7210 C   0  0  0  0  0  0  0  0  0  0  0  0
  -21.2410  -29.3890   22.5980 N   0  0  0  0  0  0  0  0  0  0  0  0
  -23.2250  -29.0980   23.6250 O   0  0  0  0  0  0  0  0  0  0  0  0
  -20.7390  -29.8600   21.8570 H   0  0  0  0  0  0  0  0  0  0  0  0
  -17.9870  -27.8090   23.0690 C   0  0  0  0  0  0  0  0  0  0  0  0
  -20.4790  -28.4250   23.4120 C   0  0  0  0  0  3  0  0  0  0  0  0
  -20.7800  -26.9710   22.9710 C   0  0  0  0  0  2  0  0  0  0  0  0
  -19.7840  -26.4400   21.9340 C   0  0  0  0  0  2  0  0  0  0  0  0
  -18.3650  -26.4500   22.5050 C   0  0  0  0  0  2  0  0  0  0  0  0
  -18.9780  -28.7430   23.4800 C   0  0  0  0  0  0  0  0  0  0  0  0
  -18.5690  -30.0000   23.9750 C   0  0  0  0  0  3  0  0  0  0  0  0
  -17.2020  -30.3290   24.0580 C   0  0  0  0  0  3  0  0  0  0  0  0
  -16.2270  -29.3990   23.6550 C   0  0  0  0  0  3  0  0  0  0  0  0
  -16.6220  -28.1400   23.1700 C   0  0  0  0  0  3  0  0  0  0  0  0
  -25.8730  -32.5680   23.8570 C   0  0  0  0  0  3  0  0  0  0  0  0
  -25.5950  -34.0100   24.1200 N   0  0  0  0  0  0  0  0  0  0  0  0
  -25.9090  -35.0420   23.3210 C   0  0  0  0  0  0  0  0  0  0  0  0
  -26.4980  -34.8840   22.2500 O   0  0  0  0  0  0  0  0  0  0  0  0
  -25.0580  -34.2030   24.9520 H   0  0  0  0  0  0  0  0  0  0  0  0
  -24.2110  -36.9040   23.0770 C   0  0  0  0  0  1  0  0  0  0  0  0
  -25.5160  -36.4730   23.7680 C   0  0  0  0  0  3  0  0  0  0  0  0
  -27.7400  -37.3560   24.3460 C   0  0  0  0  0  1  0  0  0  0  0  0
  -26.5580  -37.4940   23.5020 N   0  0  0  0  0  0  0  0  0  0  0  0
  -26.1810  -38.4270   23.6380 H   0  0  0  0  0  0  0  0  0  0  0  0
  -26.3440  -31.9120   25.2180 C   0  0  1  0  0  0  0  0  0  0  0  0
  -25.2360  -31.7930   26.2910 C   0  0  0  0  0  1  0  0  0  0  0  0
  -26.9050  -30.4970   24.9770 C   0  0  0  0  0  1  0  0  0  0  0  0
  -27.4940  -32.7390   25.8400 C   0  0  0  0  0  1  0  0  0  0  0  0
  3  9  1  0
  6  8  1  0
  7  5  1  0
  9 11  1  0
  9 10  2  0
 12 11  1  0
 13 12  1  0
 14 13  1  0
 15 24  1  0
 15 14  1  0
 16 22  1  0
 18 19  1  0
 18 17  1  0
 20 19  1  0
 20 29  1  0
 20 21  1  0
 22 17  1  0
 22 21  1  0
 23 16  2  0
 24 16  1  0
 24 25  1  0
 26 27  1  0
 27 46  1  0
 28 30  1  0
 28 31  1  0
 29 28  1  0
 29 30  1  0
 31 32  1  0
 32 33  2  0
 34 37  1  0
 34 33  1  0
 35 34  2  0
 36 31  2  0
 36 35  1  0
 37 38  1  0
 38 43  1  0
 39 38  2  0
 39 40  1  0
 40 41  2  0
 41 42  1  0
 41 45  1  0
 43 44  1  0
 43 42  2  0
 46 47  1  0
 47 49  1  0
 48 46  2  0
 50 47  1  0
 51 26  1  0
 52 51  1  0
 53 51  1  0
 56 58  1  0
 57 68  2  0
 58 63  1  0
 59 67  1  0
 59 69  1  0
 60 66  1  0
 60 62  1  0
 61 67  1  0
 62 61  1  0
 63 62  2  0
 64 65  1  0
 64 58  2  0
 65 60  2  0
 66 59  1  0
 67 57  1  0
 69 71  2  0
 70 69  1  0
 72 70  1  0
 73 82  2  0
 73 78  1  0
 74 70  1  0
 74 78  1  0
 75 74  1  0
 76 77  1  0
 76 75  1  0
 77 73  1  0
 78 79  2  0
 79 80  1  0
 81 80  2  0
 82 81  1  0
 83 57  1  0
 83 84  1  0
 83 93  1  0
 84 87  1  0
 85 89  1  0
 85 84  1  0
 86 85  2  0
 89 88  1  0
 91 92  1  0
 91 89  1  0
 91 90  1  0
 93 96  1  1
 93 94  1  0
 95 93  1  0
M  ISO  4  16 100  24 100  55 101  56 101
M  END
>  <TORSDO>  (67) 
F 24

>  <SCORE>  (67) 
6.980

>  <name>  (67) 
72

>  <ligand_id>  (67) 
72

>  <original_smiles>  (67) 
[H]c1c([H])c([H])c2c(c1[H])C([H])([H])C([H])([H])C([H])([H])C2([H])N([H])C(=O)C1([H])N(C(=O)C([H])(N([H])C(=O)C([H])(N([H])C([H])([H])[H])C([H])([H])[H])C(C([H])([H])[H])(C([H])([H])[H])C([H])([H])[H])C([H])([H])c2c([H])c(OC([H])([H])C([H])([H])c3c([H])c(C(=O)C([H])([H])C([H])([H])C([H])([H])C([H])([H])C([H])([H])N([H])C(=O)N4C([H])([H])C([H])([H])C([H])([H])C([H])(n5nc(-c6c([H])c([H])c(Oc7c([H])c([H])c(F)c([H])c7F)c([H])c6[H])c(C(=O)N([H])[H])c5N([H])[H])C4([H])[H])c(C([H])([H])[H])c(C([H])([H])[H])c3[H])c([H])c([H])c2C1([H])[H]

>  <smiles>  (67) 
[H]c1c([H])c([H])c2c(c1[H])C([H])([H])C([H])([H])C([H])([H])C2([H])N([H])C(=O)C1([H])N(C(=O)C([H])(N([H])C(=O)C([H])(N([H])C([H])([H])[H])C([H])([H])[H])C(C([H])([H])[H])(C([H])([H])[H])C([H])([H])[H])C([H])([H])c2c([H])c(OC([H])([H])C([H])([H])c3c([H])c(C(=O)C([H])([H])C([H])([H])C([H])([H])C([H])([H])C([H])([H])N([H])C(=O)N4C([H])([H])C([H])([H])C([H])([H])C([H])(n5nc(-c6c([H])c([H])c(Oc7c([H])c([H])c(F)c([H])c7F)c([H])c6[H])c(C(=O)N([H])[H])c5N([H])[H])C4([H])[H])c(C([H])([H])[H])c(C([H])([H])[H])c3[H])c([H])c([H])c2C1([H])[H]

$$$$
73:0:0
     RDKit          3D

 92 99  0  0  1  0  0  0  0  0999 V2000
  -28.7820  -22.1200   18.7050 C   0  0  0  0  0  3  0  0  0  0  0  0
  -28.9160  -23.1210   19.8040 N   0  0  0  0  0  4  0  0  0  0  0  0
  -28.7970  -22.6450   20.6830 H   0  0  0  0  0  0  0  0  0  0  0  0
  -29.8610  -23.4710   19.7770 H   0  0  0  0  0  0  0  0  0  0  0  0
  -27.9740  -24.2820   19.7610 C   0  0  0  0  0  2  0  0  0  0  0  0
  -28.3310  -25.4070   20.7640 C   0  0  0  0  0  2  0  0  0  0  0  0
  -28.3930  -26.6980   20.1450 O   0  0  0  0  0  0  0  0  0  0  0  0
  -24.6060  -31.8590   23.2340 C   0  0  0  0  0  0  0  0  0  0  0  0
  -27.2230  -27.4170   20.1500 C   0  0  0  0  0  0  0  0  0  0  0  0
  -23.3870  -30.4590   21.5970 C   0  0  0  0  0  3  0  0  0  0  0  0
  -24.8320  -28.9190   20.1650 C   0  0  0  0  0  0  0  0  0  0  0  0
  -25.9090  -30.8160   21.3860 C   0  0  0  0  0  2  0  0  0  0  0  0
  -25.9900  -29.4440   20.7530 C   0  0  0  0  0  0  0  0  0  0  0  0
  -27.1900  -28.7010   20.7390 C   0  0  0  0  0  3  0  0  0  0  0  0
  -26.0520  -26.9080   19.5490 C   0  0  0  0  0  3  0  0  0  0  0  0
  -24.8590  -27.6540   19.5570 C   0  0  0  0  0  3  0  0  0  0  0  0
  -23.5900  -29.7780   20.2160 C   0  0  0  0  0  2  0  0  0  0  0  0
  -24.6520  -31.0580   22.1330 N   0  0  0  0  0  0  0  0  0  0  0  0
  -23.5280  -32.1370   23.7790 O   0  0  0  0  0  0  0  0  0  0  0  0
  -22.7400  -29.4380   22.5570 C   0  0  0  0  0  0  0  0  0  0  0  0
  -21.4150  -29.2640   22.4350 N   0  0  0  0  0  0  0  0  0  0  0  0
  -23.4250  -28.8050   23.3670 O   0  0  0  0  0  0  0  0  0  0  0  0
  -20.9260  -29.8270   21.7520 H   0  0  0  0  0  0  0  0  0  0  0  0
  -18.0360  -28.0910   22.9420 C   0  0  0  0  0  0  0  0  0  0  0  0
  -20.5960  -28.3290   23.2060 C   0  0  0  0  0  3  0  0  0  0  0  0
  -20.6860  -26.9000   22.6260 C   0  0  0  0  0  2  0  0  0  0  0  0
  -19.5780  -26.5880   21.6140 C   0  0  0  0  0  2  0  0  0  0  0  0
  -18.1990  -26.7430   22.2640 C   0  0  0  0  0  2  0  0  0  0  0  0
  -19.1610  -28.8450   23.3700 C   0  0  0  0  0  0  0  0  0  0  0  0
  -18.9550  -30.1090   23.9630 C   0  0  0  0  0  3  0  0  0  0  0  0
  -17.6550  -30.6230   24.1270 C   0  0  0  0  0  3  0  0  0  0  0  0
  -16.5430  -29.8690   23.7140 C   0  0  0  0  0  3  0  0  0  0  0  0
  -16.7350  -28.6030   23.1320 C   0  0  0  0  0  3  0  0  0  0  0  0
  -25.8990  -32.4810   23.8500 C   0  0  0  0  0  3  0  0  0  0  0  0
  -26.4270  -31.6950   25.1120 C   0  0  1  0  0  0  0  0  0  0  0  0
  -25.3430  -31.4520   26.1860 C   0  0  0  0  0  1  0  0  0  0  0  0
  -27.0020  -30.3220   24.6960 C   0  0  0  0  0  1  0  0  0  0  0  0
  -27.5840  -32.4830   25.7730 C   0  0  0  0  0  1  0  0  0  0  0  0
  -25.5990  -33.8770   24.1930 N   0  0  0  0  0  0  0  0  0  0  0  0
  -25.9200  -34.9320   23.4330 C   0  0  0  0  0  0  0  0  0  0  0  0
  -26.5770  -34.8330   22.3920 O   0  0  0  0  0  0  0  0  0  0  0  0
  -25.0220  -34.0260   25.0080 H   0  0  0  0  0  0  0  0  0  0  0  0
  -24.1850  -36.7200   23.0980 C   0  0  0  0  0  1  0  0  0  0  0  0
  -25.4330  -36.3160   23.8990 C   0  0  0  0  0  3  0  0  0  0  0  0
  -27.5760  -37.2000   24.7110 C   0  0  0  0  0  1  0  0  0  0  0  0
  -26.4640  -37.3710   23.7790 N   0  0  0  0  0  0  0  0  0  0  0  0
  -26.0550  -38.2900   23.9340 H   0  0  0  0  0  0  0  0  0  0  0  0
  -29.2930  -22.7610   17.3980 C   0  0  0  0  0  3  0  0  0  0  0  0
  -29.4670  -22.1510   16.3400 O   0  0  0  0  0  0  0  0  0  0  0  0
  -29.5630  -20.7990   18.9930 C   0  0  0  0  0  2  0  0  0  0  0  0
  -28.7730  -19.7080   19.7470 C   0  0  0  0  0  2  0  0  0  0  0  0
  -29.5280  -18.3530   19.8300 C   0  0  0  0  0  2  0  0  0  0  0  0
  -29.5750  -17.7750   21.2550 C   0  0  0  0  0  2  0  0  0  0  0  0
  -30.5650  -16.6040   21.4880 C   0  0  0  0  0  2  0  0  0  0  0  0
  -30.7610  -14.3820   20.2970 C   0  0  0  0  0  0  0  0  0  0  0  0
  -30.4420  -12.2780   19.0420 C   0  0  0  0  0  2  0  0  0  0  0  0
  -29.4620  -12.5200   17.8740 C   0  0  0  0  0  2  0  0  0  0  0  0
  -27.9970  -12.3840   18.3400 C   0  0  0  0  0  2  0  0  0  0  0  0
  -27.7060  -13.2080   19.6220 C   0  0  0  0  0  3  0  0  0  0  0  0
  -28.7680  -12.9070   20.7000 C   0  0  0  0  0  2  0  0  0  0  0  0
  -30.0880  -13.2140   20.1210 N   0  0  0  0  0  0  0  0  0  0  0  0
  -31.8600  -14.6150   19.7820 O   0  0  0  0  0  0  0  0  0  0  0  0
  -30.0880  -15.3000   21.0210 N   0  0  0  0  0  0  0  0  0  0  0  0
  -29.1990  -14.9900   21.3850 H   0  0  0  0  0  0  0  0  0  0  0  0
  -25.3420  -13.8780   20.3900 C   0  0  0  0  0  0  0  0  0  0  0  0
  -24.2650  -13.1330   20.7900 C   0  0  0  0  0  0  0  0  0  0  0  0
  -24.6960  -11.7710   20.7500 C   0  0  0  0  0  0  0  0  0  0  0  0
  -26.3580  -12.9710   20.1300 N   0  0  0  0  0  0  0  0  0  0  0  0
  -25.9750  -11.6990   20.4050 N   0  0  0  0  0  0  0  0  0  0  0  0
  -23.9520  -10.5240   20.9650 C   0  0  0  0  0  0  0  0  0  0  0  0
  -24.3940   -9.5520   21.8870 C   0  0  0  0  0  3  0  0  0  0  0  0
  -23.6520   -8.3670   22.0860 C   0  0  0  0  0  3  0  0  0  0  0  0
  -22.4530   -8.1500   21.3630 C   0  0  0  0  0  0  0  0  0  0  0  0
  -22.0310   -9.1130   20.4330 C   0  0  0  0  0  3  0  0  0  0  0  0
  -22.7730  -10.2880   20.2310 C   0  0  0  0  0  3  0  0  0  0  0  0
  -21.6810   -7.0180   21.4710 O   0  0  0  0  0  0  0  0  0  0  0  0
  -21.6530   -6.2750   22.6250 C   0  0  0  0  0  0  0  0  0  0  0  0
  -21.2890   -6.8380   23.8670 C   0  0  0  0  0  3  0  0  0  0  0  0
  -21.2060   -6.0220   25.0140 C   0  0  0  0  0  3  0  0  0  0  0  0
  -21.4740   -4.6430   24.9190 C   0  0  0  0  0  0  0  0  0  0  0  0
  -21.8310   -4.0800   23.6820 C   0  0  0  0  0  3  0  0  0  0  0  0
  -21.9180   -4.8940   22.5380 C   0  0  0  0  0  0  0  0  0  0  0  0
  -22.2410   -4.3420   21.3440 F   0  0  0  0  0  0  0  0  0  0  0  0
  -21.3900   -3.8560   26.0190 F   0  0  0  0  0  0  0  0  0  0  0  0
  -22.8850  -13.6400   21.0980 C   0  0  0  0  0  0  0  0  0  0  0  0
  -22.1670  -12.9630   21.9860 N   0  0  0  0  0  0  0  0  0  0  0  0
  -22.4550  -14.6720   20.5870 O   0  0  0  0  0  0  0  0  0  0  0  0
  -22.5290  -12.1300   22.4240 H   0  0  0  0  0  0  0  0  0  0  0  0
  -21.2390  -13.2800   22.2310 H   0  0  0  0  0  0  0  0  0  0  0  0
  -25.5380  -15.2450   20.2060 N   0  0  0  0  0  0  0  0  0  0  0  0
  -24.7880  -15.9210   20.3140 H   0  0  0  0  0  0  0  0  0  0  0  0
  -26.3960  -15.6570   19.8620 H   0  0  0  0  0  0  0  0  0  0  0  0
  1 48  1  0
  1 50  1  0
  1  2  1  0
  2  3  1  0
  4  2  1  0
  5  2  1  0
  5  6  1  0
  7  9  1  0
  7  6  1  0
  8 19  2  0
  9 14  1  0
 10 18  1  0
 10 20  1  0
 11 17  1  0
 11 13  1  0
 12 18  1  0
 13 12  1  0
 14 13  2  0
 15 16  1  0
 15  9  2  0
 16 11  2  0
 17 10  1  0
 18  8  1  0
 20 22  2  0
 21 20  1  0
 23 21  1  0
 24 33  2  0
 24 29  1  0
 25 21  1  0
 25 29  1  0
 26 25  1  0
 27 28  1  0
 27 26  1  0
 28 24  1  0
 29 30  2  0
 30 31  1  0
 32 31  2  0
 33 32  1  0
 34  8  1  0
 34 39  1  0
 34 35  1  0
 35 38  1  1
 35 36  1  0
 37 35  1  0
 39 42  1  0
 40 44  1  0
 40 39  1  0
 41 40  2  0
 44 43  1  0
 46 44  1  0
 46 47  1  0
 46 45  1  0
 49 48  2  0
 50 51  1  0
 51 52  1  0
 52 53  1  0
 53 54  1  0
 55 63  1  0
 56 61  1  0
 57 58  1  0
 57 56  1  0
 59 58  1  0
 59 68  1  0
 59 60  1  0
 61 55  1  0
 61 60  1  0
 62 55  2  0
 63 64  1  0
 63 54  1  0
 65 66  2  0
 66 85  1  0
 67 66  1  0
 67 70  1  0
 68 65  1  0
 68 69  1  0
 69 67  2  0
 70 71  1  0
 71 72  2  0
 73 76  1  0
 73 72  1  0
 74 73  2  0
 75 74  1  0
 75 70  2  0
 76 77  1  0
 77 78  1  0
 78 79  2  0
 80 79  1  0
 80 84  1  0
 81 80  2  0
 82 77  2  0
 82 81  1  0
 83 82  1  0
 85 86  1  0
 86 89  1  0
 86 88  1  0
 87 85  2  0
 90 91  1  0
 90 65  1  0
 92 90  1  0
M  ISO  4   6 101   7 101  55 100  63 100
M  END
>  <TORSDO>  (68) 
F 25

>  <SCORE>  (68) 
-12.151

>  <name>  (68) 
73

>  <ligand_id>  (68) 
73

>  <original_smiles>  (68) 
[H]C(=O)C([H])(C([H])([H])C([H])([H])C([H])([H])C([H])([H])C([H])([H])N([H])C(=O)N1C([H])([H])C([H])([H])C([H])([H])C([H])(n2nc(-c3c([H])c([H])c(Oc4c([H])c([H])c(F)c([H])c4F)c([H])c3[H])c(C(=O)N([H])[H])c2N([H])[H])C1([H])[H])[N+]([H])([H])C([H])([H])C([H])([H])Oc1c([H])c([H])c2c(c1[H])C([H])([H])N(C(=O)C([H])(N([H])C(=O)C([H])(N([H])C([H])([H])[H])C([H])([H])[H])C(C([H])([H])[H])(C([H])([H])[H])C([H])([H])[H])C([H])(C(=O)N([H])C1([H])c3c([H])c([H])c([H])c([H])c3C([H])([H])C([H])([H])C1([H])[H])C2([H])[H]

>  <smiles>  (68) 
[H]C(=O)C([H])(C([H])([H])C([H])([H])C([H])([H])C([H])([H])C([H])([H])N([H])C(=O)N1C([H])([H])C([H])([H])C([H])([H])C([H])(n2nc(-c3c([H])c([H])c(Oc4c([H])c([H])c(F)c([H])c4F)c([H])c3[H])c(C(=O)N([H])[H])c2N([H])[H])C1([H])[H])[N+]([H])([H])C([H])([H])C([H])([H])Oc1c([H])c([H])c2c(c1[H])C([H])([H])N(C(=O)C([H])(N([H])C(=O)C([H])(N([H])C([H])([H])[H])C([H])([H])[H])C(C([H])([H])[H])(C([H])([H])[H])C([H])([H])[H])C([H])(C(=O)N([H])C1([H])c3c([H])c([H])c([H])c([H])c3C([H])([H])C([H])([H])C1([H])[H])C2([H])[H]

$$$$
74:0:0
     RDKit          3D

 94102  0  0  1  0  0  0  0  0999 V2000
  -29.4380  -20.6000   21.7110 C   0  0  0  0  0  3  0  0  0  0  0  0
  -29.1490  -21.7890   22.4080 C   0  0  0  0  0  3  0  0  0  0  0  0
  -29.4250  -21.8500   19.6330 C   0  0  0  0  0  3  0  0  0  0  0  0
  -29.5800  -20.6010   20.3080 C   0  0  0  0  0  0  0  0  0  0  0  0
  -29.0060  -23.0200   21.7320 C   0  0  0  0  0  0  0  0  0  0  0  0
  -29.1420  -23.0650   20.3190 C   0  0  0  0  0  0  0  0  0  0  0  0
  -30.0270  -25.0740   22.8190 C   0  0  0  0  0  1  0  0  0  0  0  0
  -28.7460  -24.2690   22.5660 C   0  0  0  0  0  2  0  0  0  0  0  0
  -29.0740  -24.4040   19.5460 C   0  0  0  0  0  2  0  0  0  0  0  0
  -27.7320  -25.1820   19.6340 C   0  0  0  0  0  2  0  0  0  0  0  0
  -27.8830  -26.5930   19.3400 O   0  0  0  0  0  0  0  0  0  0  0  0
  -24.5450  -31.6450   23.1420 C   0  0  0  0  0  0  0  0  0  0  0  0
  -26.7570  -27.3860   19.4880 C   0  0  0  0  0  0  0  0  0  0  0  0
  -23.1670  -30.4570   21.4690 C   0  0  0  0  0  3  0  0  0  0  0  0
  -24.4460  -29.0040   19.8070 C   0  0  0  0  0  0  0  0  0  0  0  0
  -25.6910  -30.7230   21.1260 C   0  0  0  0  0  2  0  0  0  0  0  0
  -25.6670  -29.4150   20.3560 C   0  0  0  0  0  0  0  0  0  0  0  0
  -26.8260  -28.6170   20.1890 C   0  0  0  0  0  3  0  0  0  0  0  0
  -25.5160  -27.0030   18.9290 C   0  0  0  0  0  3  0  0  0  0  0  0
  -24.3680  -27.8000   19.0880 C   0  0  0  0  0  3  0  0  0  0  0  0
  -23.2500  -29.9070   20.0210 C   0  0  0  0  0  2  0  0  0  0  0  0
  -24.4900  -30.9510   21.9700 N   0  0  0  0  0  0  0  0  0  0  0  0
  -23.5160  -31.9090   23.7800 O   0  0  0  0  0  0  0  0  0  0  0  0
  -22.5320  -29.3770   22.3750 C   0  0  0  0  0  0  0  0  0  0  0  0
  -21.1990  -29.2340   22.2950 N   0  0  0  0  0  0  0  0  0  0  0  0
  -23.2350  -28.6740   23.1060 O   0  0  0  0  0  0  0  0  0  0  0  0
  -20.6940  -29.8540   21.6780 H   0  0  0  0  0  0  0  0  0  0  0  0
  -17.8340  -28.0100   22.7750 C   0  0  0  0  0  0  0  0  0  0  0  0
  -20.3940  -28.2560   23.0250 C   0  0  0  0  0  3  0  0  0  0  0  0
  -20.4900  -26.8590   22.3720 C   0  0  0  0  0  2  0  0  0  0  0  0
  -19.3740  -26.5880   21.3570 C   0  0  0  0  0  2  0  0  0  0  0  0
  -18.0010  -26.6980   22.0260 C   0  0  0  0  0  2  0  0  0  0  0  0
  -18.9570  -28.7480   23.2290 C   0  0  0  0  0  0  0  0  0  0  0  0
  -18.7460  -29.9790   23.8900 C   0  0  0  0  0  3  0  0  0  0  0  0
  -17.4440  -30.4700   24.1000 C   0  0  0  0  0  3  0  0  0  0  0  0
  -16.3350  -29.7270   23.6610 C   0  0  0  0  0  3  0  0  0  0  0  0
  -16.5290  -28.4990   23.0040 C   0  0  0  0  0  3  0  0  0  0  0  0
  -25.8980  -32.1610   23.7250 C   0  0  0  0  0  3  0  0  0  0  0  0
  -25.6790  -33.5310   24.2080 N   0  0  0  0  0  0  0  0  0  0  0  0
  -26.0850  -34.6360   23.5680 C   0  0  0  0  0  0  0  0  0  0  0  0
  -26.7540  -34.6020   22.5320 O   0  0  0  0  0  0  0  0  0  0  0  0
  -25.0910  -33.6350   25.0210 H   0  0  0  0  0  0  0  0  0  0  0  0
  -24.5150  -36.5900   23.3770 C   0  0  0  0  0  1  0  0  0  0  0  0
  -25.6860  -35.9950   24.1750 C   0  0  0  0  0  3  0  0  0  0  0  0
  -27.8340  -36.6070   25.1930 C   0  0  0  0  0  1  0  0  0  0  0  0
  -26.8000  -36.9660   24.2270 N   0  0  0  0  0  0  0  0  0  0  0  0
  -26.4580  -37.8950   24.4570 H   0  0  0  0  0  0  0  0  0  0  0  0
  -26.4660  -31.2470   24.8780 C   0  0  1  0  0  0  0  0  0  0  0  0
  -25.4430  -30.9520   26.0000 C   0  0  0  0  0  1  0  0  0  0  0  0
  -26.9480  -29.8900   24.3130 C   0  0  0  0  0  1  0  0  0  0  0  0
  -27.7010  -31.9200   25.5190 C   0  0  0  0  0  1  0  0  0  0  0  0
  -29.9390  -19.2920   19.5450 C   0  0  0  0  0  3  0  0  0  0  0  0
  -30.5930  -19.6830   17.0640 C   0  0  0  0  0  1  0  0  0  0  0  0
  -29.4690  -19.3490   18.0590 C   0  0  0  0  0  2  0  0  0  0  0  0
  -29.5060  -17.9240   20.2140 C   0  0  0  0  0  2  0  0  0  0  0  0
  -30.6440  -16.9820   20.7230 C   0  0  0  0  0  2  0  0  0  0  0  0
  -30.9340  -14.4920   20.3990 C   0  0  0  0  0  0  0  0  0  0  0  0
  -30.5860  -12.3520   19.2210 C   0  0  0  0  0  2  0  0  0  0  0  0
  -29.6500  -12.6080   18.0210 C   0  0  0  0  0  2  0  0  0  0  0  0
  -28.1740  -12.4960   18.4510 C   0  0  0  0  0  2  0  0  0  0  0  0
  -27.8590  -13.3090   19.7360 C   0  0  0  0  0  3  0  0  0  0  0  0
  -28.9110  -13.0460   20.8360 C   0  0  0  0  0  2  0  0  0  0  0  0
  -30.2380  -13.3290   20.2660 N   0  0  0  0  0  0  0  0  0  0  0  0
  -32.0820  -14.6300   19.9650 O   0  0  0  0  0  0  0  0  0  0  0  0
  -30.2310  -15.5600   20.8410 N   0  0  0  0  0  0  0  0  0  0  0  0
  -29.2970  -15.3730   21.1710 H   0  0  0  0  0  0  0  0  0  0  0  0
  -25.4690  -13.9550   20.4350 C   0  0  0  0  0  0  0  0  0  0  0  0
  -24.3870  -13.2000   20.8030 C   0  0  0  0  0  0  0  0  0  0  0  0
  -24.8260  -11.8410   20.7770 C   0  0  0  0  0  0  0  0  0  0  0  0
  -26.5000  -13.0560   20.2110 N   0  0  0  0  0  0  0  0  0  0  0  0
  -26.1170  -11.7800   20.4740 N   0  0  0  0  0  0  0  0  0  0  0  0
  -24.0790  -10.5920   20.9670 C   0  0  0  0  0  0  0  0  0  0  0  0
  -24.4980   -9.6150   21.8980 C   0  0  0  0  0  3  0  0  0  0  0  0
  -23.7520   -8.4310   22.0780 C   0  0  0  0  0  3  0  0  0  0  0  0
  -22.5730   -8.2150   21.3260 C   0  0  0  0  0  0  0  0  0  0  0  0
  -22.1720   -9.1790   20.3850 C   0  0  0  0  0  3  0  0  0  0  0  0
  -22.9180  -10.3550   20.2040 C   0  0  0  0  0  3  0  0  0  0  0  0
  -21.7990   -7.0820   21.4160 O   0  0  0  0  0  0  0  0  0  0  0  0
  -21.7370   -6.3420   22.5680 C   0  0  0  0  0  0  0  0  0  0  0  0
  -21.2470   -6.8820   23.7770 C   0  0  0  0  0  3  0  0  0  0  0  0
  -21.1380   -6.0660   24.9200 C   0  0  0  0  0  3  0  0  0  0  0  0
  -21.5050   -4.7090   24.8540 C   0  0  0  0  0  0  0  0  0  0  0  0
  -21.9870   -4.1670   23.6510 C   0  0  0  0  0  3  0  0  0  0  0  0
  -22.1000   -4.9810   22.5090 C   0  0  0  0  0  0  0  0  0  0  0  0
  -22.5460   -4.4490   21.3460 F   0  0  0  0  0  0  0  0  0  0  0  0
  -21.3920   -3.9220   25.9500 F   0  0  0  0  0  0  0  0  0  0  0  0
  -22.9980  -13.7010   21.0700 C   0  0  0  0  0  0  0  0  0  0  0  0
  -22.2610  -13.0250   21.9450 N   0  0  0  0  0  0  0  0  0  0  0  0
  -22.5740  -14.7280   20.5410 O   0  0  0  0  0  0  0  0  0  0  0  0
  -22.6170  -12.1940   22.3940 H   0  0  0  0  0  0  0  0  0  0  0  0
  -21.3290  -13.3420   22.1680 H   0  0  0  0  0  0  0  0  0  0  0  0
  -25.6550  -15.3220   20.2530 N   0  0  0  0  0  0  0  0  0  0  0  0
  -24.8940  -15.9840   20.3550 H   0  0  0  0  0  0  0  0  0  0  0  0
  -26.5100  -15.7470   19.9180 H   0  0  0  0  0  0  0  0  0  0  0  0
  1  2  1  0
  3  4  1  0
  3  6  2  0
  4  1  2  0
  5  2  2  0
  5  8  1  0
  6  5  1  0
  8  7  1  0
  9 10  1  0
  9  6  1  0
 11 13  1  0
 11 10  1  0
 12 23  2  0
 13 18  1  0
 14 22  1  0
 14 24  1  0
 15 21  1  0
 15 17  1  0
 16 22  1  0
 17 16  1  0
 18 17  2  0
 19 20  1  0
 19 13  2  0
 20 15  2  0
 21 14  1  0
 22 12  1  0
 24 26  2  0
 25 24  1  0
 27 25  1  0
 28 37  2  0
 28 33  1  0
 29 25  1  0
 29 33  1  0
 30 29  1  0
 31 32  1  0
 31 30  1  0
 32 28  1  0
 33 34  2  0
 34 35  1  0
 36 35  2  0
 37 36  1  0
 38 12  1  0
 38 39  1  0
 38 48  1  0
 39 42  1  0
 40 44  1  0
 40 39  1  0
 41 40  2  0
 44 43  1  0
 44 46  1  0
 46 47  1  0
 46 45  1  0
 48 51  1  1
 48 49  1  0
 50 48  1  0
 52 54  1  0
 52 55  1  0
 52  4  1  0
 53 54  1  0
 55 56  1  0
 56 65  1  0
 57 65  1  0
 58 63  1  0
 59 60  1  0
 59 58  1  0
 61 60  1  0
 61 70  1  0
 61 62  1  0
 63 57  1  0
 63 62  1  0
 64 57  2  0
 65 66  1  0
 67 68  2  0
 68 87  1  0
 69 68  1  0
 69 72  1  0
 70 67  1  0
 70 71  1  0
 71 69  2  0
 72 73  1  0
 73 74  2  0
 75 78  1  0
 75 74  1  0
 76 75  2  0
 77 76  1  0
 77 72  2  0
 78 79  1  0
 79 80  1  0
 80 81  2  0
 82 81  1  0
 82 86  1  0
 83 82  2  0
 84 79  2  0
 84 83  1  0
 85 84  1  0
 87 88  1  0
 88 91  1  0
 88 90  1  0
 89 87  2  0
 92 93  1  0
 92 67  1  0
 94 92  1  0
M  ISO  4  10 101  11 101  57 100  65 100
M  END
>  <TORSDO>  (69) 
F 23

>  <SCORE>  (69) 
-12.026

>  <name>  (69) 
74

>  <ligand_id>  (69) 
74

>  <original_smiles>  (69) 
[H]c1c([H])c([H])c2c(c1[H])C([H])([H])C([H])([H])C([H])([H])C2([H])N([H])C(=O)C1([H])N(C(=O)C([H])(N([H])C(=O)C([H])(N([H])C([H])([H])[H])C([H])([H])[H])C(C([H])([H])[H])(C([H])([H])[H])C([H])([H])[H])C([H])([H])c2c([H])c(OC([H])([H])C([H])([H])c3c([H])c(C([H])(C([H])([H])C([H])([H])[H])C([H])([H])C([H])([H])N([H])C(=O)N4C([H])([H])C([H])([H])C([H])([H])C([H])(n5nc(-c6c([H])c([H])c(Oc7c([H])c([H])c(F)c([H])c7F)c([H])c6[H])c(C(=O)N([H])[H])c5N([H])[H])C4([H])[H])c([H])c([H])c3C([H])([H])C([H])([H])[H])c([H])c([H])c2C1([H])[H]

>  <smiles>  (69) 
[H]c1c([H])c([H])c2c(c1[H])C([H])([H])C([H])([H])C([H])([H])C2([H])N([H])C(=O)C1([H])N(C(=O)C([H])(N([H])C(=O)C([H])(N([H])C([H])([H])[H])C([H])([H])[H])C(C([H])([H])[H])(C([H])([H])[H])C([H])([H])[H])C([H])([H])c2c([H])c(OC([H])([H])C([H])([H])c3c([H])c(C([H])(C([H])([H])C([H])([H])[H])C([H])([H])C([H])([H])N([H])C(=O)N4C([H])([H])C([H])([H])C([H])([H])C([H])(n5nc(-c6c([H])c([H])c(Oc7c([H])c([H])c(F)c([H])c7F)c([H])c6[H])c(C(=O)N([H])[H])c5N([H])[H])C4([H])[H])c([H])c([H])c3C([H])([H])C([H])([H])[H])c([H])c([H])c2C1([H])[H]

$$$$
75:0:0
     RDKit          3D

 94101  0  0  1  0  0  0  0  0999 V2000
  -26.1190  -18.1850   21.2570 C   0  0  0  0  0  2  0  0  0  0  0  0
  -26.2220  -16.6810   21.5580 C   0  0  0  0  0  2  0  0  0  0  0  0
  -24.9240  -15.9370   21.2120 C   0  0  0  0  0  2  0  0  0  0  0  0
  -25.1730  -14.6270   20.4410 C   0  0  0  0  0  2  0  0  0  0  0  0
  -24.0360  -13.6030   20.6080 C   0  0  0  0  0  2  0  0  0  0  0  0
  -22.6890  -14.1110   20.0470 C   0  0  0  0  0  2  0  0  0  0  0  0
  -21.5630  -12.2120   21.3120 C   0  0  0  0  0  1  0  0  0  0  0  0
  -21.4560  -13.6800   20.8720 C   0  0  0  0  0  3  0  0  0  0  0  0
  -20.1110  -13.9250   20.1400 C   0  0  0  0  0  2  0  0  0  0  0  0
  -19.0210  -15.6020   18.6950 C   0  0  0  0  0  0  0  0  0  0  0  0
  -16.6650  -15.3300   18.0140 C   0  0  0  0  0  2  0  0  0  0  0  0
  -15.8630  -16.6410   17.9850 C   0  0  0  0  0  2  0  0  0  0  0  0
  -15.2680  -16.9380   19.3700 C   0  0  0  0  0  2  0  0  0  0  0  0
  -16.3430  -16.8930   20.4780 C   0  0  0  0  0  3  0  0  0  0  0  0
  -17.1830  -15.6090   20.3950 C   0  0  0  0  0  2  0  0  0  0  0  0
  -17.7200  -15.4310   19.0320 N   0  0  0  0  0  0  0  0  0  0  0  0
  -19.3990  -15.9360   17.5680 O   0  0  0  0  0  0  0  0  0  0  0  0
  -19.9130  -15.2950   19.6460 N   0  0  0  0  0  0  0  0  0  0  0  0
  -20.7920  -15.7670   19.5010 H   0  0  0  0  0  0  0  0  0  0  0  0
  -16.2740  -17.6650   22.9340 C   0  0  0  0  0  0  0  0  0  0  0  0
  -15.2900  -17.6000   23.8840 C   0  0  0  0  0  0  0  0  0  0  0  0
  -14.1910  -16.9260   23.2720 C   0  0  0  0  0  0  0  0  0  0  0  0
  -15.7540  -17.0470   21.8080 N   0  0  0  0  0  0  0  0  0  0  0  0
  -14.5100  -16.5510   22.0400 N   0  0  0  0  0  0  0  0  0  0  0  0
  -12.8300  -16.6730   23.7630 C   0  0  0  0  0  0  0  0  0  0  0  0
  -12.3000  -15.3650   23.8270 C   0  0  0  0  0  3  0  0  0  0  0  0
  -10.9950  -15.1470   24.3160 C   0  0  0  0  0  3  0  0  0  0  0  0
  -10.2070  -16.2380   24.7530 C   0  0  0  0  0  0  0  0  0  0  0  0
  -10.7310  -17.5400   24.6660 C   0  0  0  0  0  3  0  0  0  0  0  0
  -12.0280  -17.7580   24.1710 C   0  0  0  0  0  3  0  0  0  0  0  0
   -8.9200  -16.1210   25.2200 O   0  0  0  0  0  0  0  0  0  0  0  0
   -8.4900  -14.9930   25.8720 C   0  0  0  0  0  0  0  0  0  0  0  0
   -9.0940  -14.5510   27.0690 C   0  0  0  0  0  3  0  0  0  0  0  0
   -8.5770  -13.4270   27.7430 C   0  0  0  0  0  3  0  0  0  0  0  0
   -7.4540  -12.7490   27.2290 C   0  0  0  0  0  0  0  0  0  0  0  0
   -6.8480  -13.1920   26.0400 C   0  0  0  0  0  3  0  0  0  0  0  0
   -7.3640  -14.3130   25.3650 C   0  0  0  0  0  0  0  0  0  0  0  0
   -6.7610  -14.7500   24.2330 F   0  0  0  0  0  0  0  0  0  0  0  0
   -6.9540  -11.6730   27.8800 F   0  0  0  0  0  0  0  0  0  0  0  0
  -15.3300  -18.2130   25.2560 C   0  0  0  0  0  0  0  0  0  0  0  0
  -14.7500  -17.5380   26.2420 N   0  0  0  0  0  0  0  0  0  0  0  0
  -15.9230  -19.2690   25.4690 O   0  0  0  0  0  0  0  0  0  0  0  0
  -14.2750  -16.6660   26.0650 H   0  0  0  0  0  0  0  0  0  0  0  0
  -14.7790  -17.9010   27.1840 H   0  0  0  0  0  0  0  0  0  0  0  0
  -17.5520  -18.2140   22.9300 N   0  0  0  0  0  0  0  0  0  0  0  0
  -17.9250  -18.7090   23.7320 H   0  0  0  0  0  0  0  0  0  0  0  0
  -18.1830  -18.2060   22.1380 H   0  0  0  0  0  0  0  0  0  0  0  0
  -27.3820  -18.9670   21.6540 C   0  0  0  0  0  2  0  0  0  0  0  0
  -27.4930  -20.2990   20.8960 C   0  0  0  0  0  2  0  0  0  0  0  0
  -28.7080  -21.1340   21.3280 C   0  0  0  0  0  2  0  0  0  0  0  0
  -28.8310  -22.4340   20.5190 C   0  0  0  0  0  2  0  0  0  0  0  0
  -29.7380  -23.4680   21.1970 C   0  0  0  0  0  2  0  0  0  0  0  0
  -30.0870  -24.6500   20.2670 C   0  0  0  0  0  2  0  0  0  0  0  0
  -30.3150  -25.8470   21.0100 O   0  0  0  0  0  0  0  0  0  0  0  0
  -26.1250  -28.2560   26.1930 C   0  0  0  0  0  0  0  0  0  0  0  0
  -29.2300  -26.6430   21.3120 C   0  0  0  0  0  0  0  0  0  0  0  0
  -25.3460  -28.7210   23.8920 C   0  0  0  0  0  3  0  0  0  0  0  0
  -27.0360  -28.2680   22.0420 C   0  0  0  0  0  0  0  0  0  0  0  0
  -27.8390  -28.4630   24.4000 C   0  0  0  0  0  2  0  0  0  0  0  0
  -28.0100  -27.9380   22.9910 C   0  0  0  0  0  0  0  0  0  0  0  0
  -29.1110  -27.1330   22.6290 C   0  0  0  0  0  3  0  0  0  0  0  0
  -28.2360  -26.9880   20.3620 C   0  0  0  0  0  3  0  0  0  0  0  0
  -27.1420  -27.7940   20.7240 C   0  0  0  0  0  3  0  0  0  0  0  0
  -25.8950  -29.1450   22.5050 C   0  0  0  0  0  2  0  0  0  0  0  0
  -26.4380  -28.4440   24.8810 N   0  0  0  0  0  0  0  0  0  0  0  0
  -24.9560  -28.3530   26.5920 O   0  0  0  0  0  0  0  0  0  0  0  0
  -24.3780  -27.5320   23.6980 C   0  0  0  0  0  0  0  0  0  0  0  0
  -23.2220  -27.7990   23.0690 N   0  0  0  0  0  0  0  0  0  0  0  0
  -24.6820  -26.4000   24.0840 O   0  0  0  0  0  0  0  0  0  0  0  0
  -23.0460  -28.7550   22.7920 H   0  0  0  0  0  0  0  0  0  0  0  0
  -20.0210  -27.4150   21.4460 C   0  0  0  0  0  0  0  0  0  0  0  0
  -22.1740  -26.8310   22.7480 C   0  0  0  0  0  3  0  0  0  0  0  0
  -22.5650  -25.9780   21.5200 C   0  0  0  0  0  2  0  0  0  0  0  0
  -22.0450  -26.5500   20.1980 C   0  0  0  0  0  2  0  0  0  0  0  0
  -20.5180  -26.6600   20.2240 C   0  0  0  0  0  2  0  0  0  0  0  0
  -20.8050  -27.5080   22.6250 C   0  0  0  0  0  0  0  0  0  0  0  0
  -20.3110  -28.2520   23.7190 C   0  0  0  0  0  3  0  0  0  0  0  0
  -19.0590  -28.8900   23.6480 C   0  0  0  0  0  3  0  0  0  0  0  0
  -18.2790  -28.7800   22.4840 C   0  0  0  0  0  3  0  0  0  0  0  0
  -18.7580  -28.0410   21.3880 C   0  0  0  0  0  3  0  0  0  0  0  0
  -27.2210  -27.9350   27.2570 C   0  0  0  0  0  3  0  0  0  0  0  0
  -27.0280  -28.8610   28.3820 N   0  0  0  0  0  0  0  0  0  0  0  0
  -27.8320  -29.8960   28.6590 C   0  0  0  0  0  0  0  0  0  0  0  0
  -28.8670  -30.1280   28.0300 O   0  0  0  0  0  0  0  0  0  0  0  0
  -26.1700  -28.7650   28.9040 H   0  0  0  0  0  0  0  0  0  0  0  0
  -26.8740  -32.1430   29.2580 C   0  0  0  0  0  1  0  0  0  0  0  0
  -27.4190  -30.8200   29.8200 C   0  0  0  0  0  3  0  0  0  0  0  0
  -28.9100  -29.9330   31.5570 C   0  0  0  0  0  1  0  0  0  0  0  0
  -28.5200  -31.0990   30.7680 N   0  0  0  0  0  0  0  0  0  0  0  0
  -28.2600  -31.8430   31.4110 H   0  0  0  0  0  0  0  0  0  0  0  0
  -27.1890  -26.4370   27.7530 C   0  0  1  0  0  0  0  0  0  0  0  0
  -25.7880  -25.9630   28.2040 C   0  0  0  0  0  1  0  0  0  0  0  0
  -27.6740  -25.4850   26.6360 C   0  0  0  0  0  1  0  0  0  0  0  0
  -28.1610  -26.2570   28.9430 C   0  0  0  0  0  1  0  0  0  0  0  0
  1  2  1  0
  1 48  1  0
  3  2  1  0
  4  5  1  0
  4  3  1  0
  6  5  1  0
  6  8  1  0
  8  7  1  0
  9  8  1  0
 10 16  1  0
 10 18  1  0
 11 16  1  0
 12 11  1  0
 12 13  1  0
 14 13  1  0
 14 23  1  0
 15 14  1  0
 16 15  1  0
 17 10  2  0
 18  9  1  0
 19 18  1  0
 20 21  2  0
 21 40  1  0
 22 25  1  0
 22 21  1  0
 23 24  1  0
 23 20  1  0
 24 22  2  0
 25 26  2  0
 25 30  1  0
 26 27  1  0
 27 28  2  0
 28 31  1  0
 29 28  1  0
 30 29  2  0
 31 32  1  0
 32 33  1  0
 33 34  2  0
 35 34  1  0
 35 39  1  0
 36 35  2  0
 37 32  2  0
 37 36  1  0
 38 37  1  0
 40 42  2  0
 40 41  1  0
 41 44  1  0
 43 41  1  0
 45 20  1  0
 45 46  1  0
 47 45  1  0
 49 50  1  0
 49 48  1  0
 51 52  1  0
 51 50  1  0
 53 54  1  0
 53 52  1  0
 54 56  1  0
 55 66  2  0
 56 61  1  0
 57 67  1  0
 57 65  1  0
 58 64  1  0
 58 60  1  0
 59 65  1  0
 60 59  1  0
 61 60  2  0
 62 63  1  0
 62 56  2  0
 63 58  2  0
 64 57  1  0
 65 55  1  0
 67 69  2  0
 68 67  1  0
 70 68  1  0
 71 76  1  0
 72 68  1  0
 73 72  1  0
 74 75  1  0
 74 73  1  0
 75 71  1  0
 76 72  1  0
 76 77  2  0
 78 77  1  0
 79 78  2  0
 80 71  2  0
 80 79  1  0
 81 55  1  0
 81 91  1  0
 81 82  1  0
 82 83  1  0
 82 85  1  0
 83 87  1  0
 84 83  2  0
 87 86  1  0
 87 89  1  0
 89 90  1  0
 89 88  1  0
 91 92  1  1
 91 94  1  0
 93 91  1  0
M  ISO  4  10 100  18 100  53 101  54 101
M  END
>  <TORSDO>  (70) 
F 29

>  <SCORE>  (70) 
53.669

>  <name>  (70) 
75

>  <ligand_id>  (70) 
75

>  <original_smiles>  (70) 
[H]c1c([H])c([H])c2c(c1[H])C([H])([H])C([H])([H])C([H])([H])C2([H])N([H])C(=O)C1([H])N(C(=O)C([H])(N([H])C(=O)C([H])(N([H])C([H])([H])[H])C([H])([H])[H])C(C([H])([H])[H])(C([H])([H])[H])C([H])([H])[H])C([H])([H])c2c([H])c(OC([H])([H])C([H])([H])C([H])([H])C([H])([H])C([H])([H])C([H])([H])C([H])([H])C([H])([H])C([H])([H])C([H])([H])C([H])([H])C([H])([H])C([H])(C([H])([H])[H])C([H])([H])N([H])C(=O)N3C([H])([H])C([H])([H])C([H])([H])C([H])(n4nc(-c5c([H])c([H])c(Oc6c([H])c([H])c(F)c([H])c6F)c([H])c5[H])c(C(=O)N([H])[H])c4N([H])[H])C3([H])[H])c([H])c([H])c2C1([H])[H]

>  <smiles>  (70) 
[H]c1c([H])c([H])c2c(c1[H])C([H])([H])C([H])([H])C([H])([H])C2([H])N([H])C(=O)C1([H])N(C(=O)C([H])(N([H])C(=O)C([H])(N([H])C([H])([H])[H])C([H])([H])[H])C(C([H])([H])[H])(C([H])([H])[H])C([H])([H])[H])C([H])([H])c2c([H])c(OC([H])([H])C([H])([H])C([H])([H])C([H])([H])C([H])([H])C([H])([H])C([H])([H])C([H])([H])C([H])([H])C([H])([H])C([H])([H])C([H])([H])C([H])(C([H])([H])[H])C([H])([H])N([H])C(=O)N3C([H])([H])C([H])([H])C([H])([H])C([H])(n4nc(-c5c([H])c([H])c(Oc6c([H])c([H])c(F)c([H])c6F)c([H])c5[H])c(C(=O)N([H])[H])c4N([H])[H])C3([H])[H])c([H])c([H])c2C1([H])[H]

$$$$
76:0:0
     RDKit          3D

 96104  0  0  1  0  0  0  0  0999 V2000
  -29.2940  -20.1200   17.9390 C   0  0  0  0  0  3  0  0  0  0  0  0
  -28.2930  -21.0480   17.6010 C   0  0  0  0  0  3  0  0  0  0  0  0
  -29.0180  -20.6960   20.2890 C   0  0  0  0  0  3  0  0  0  0  0  0
  -29.6640  -19.9440   19.2880 C   0  0  0  0  0  0  0  0  0  0  0  0
  -27.6510  -21.8110   18.5980 C   0  0  0  0  0  0  0  0  0  0  0  0
  -28.0070  -21.6230   19.9600 C   0  0  0  0  0  0  0  0  0  0  0  0
  -27.3580  -22.4120   21.0870 C   0  0  0  0  0  1  0  0  0  0  0  0
  -30.7860  -18.9910   19.6570 C   0  0  0  0  0  2  0  0  0  0  0  0
  -30.3450  -17.8660   20.6070 C   0  0  0  0  0  2  0  0  0  0  0  0
  -31.5620  -17.1270   21.1800 C   0  0  0  0  0  2  0  0  0  0  0  0
  -31.2290  -15.9150   22.0720 C   0  0  0  0  0  2  0  0  0  0  0  0
  -30.7840  -14.1990   20.3000 C   0  0  0  0  0  0  0  0  0  0  0  0
  -30.2760  -12.2290   18.9110 C   0  0  0  0  0  2  0  0  0  0  0  0
  -29.2930  -12.5670   17.7750 C   0  0  0  0  0  2  0  0  0  0  0  0
  -27.8380  -12.4530   18.2620 C   0  0  0  0  0  2  0  0  0  0  0  0
  -27.5950  -13.2180   19.5880 C   0  0  0  0  0  3  0  0  0  0  0  0
  -28.6740  -12.8580   20.6310 C   0  0  0  0  0  2  0  0  0  0  0  0
  -30.0000  -13.1240   20.0410 N   0  0  0  0  0  0  0  0  0  0  0  0
  -31.7730  -14.4940   19.6230 O   0  0  0  0  0  0  0  0  0  0  0  0
  -30.4520  -14.8710   21.4060 N   0  0  0  0  0  0  0  0  0  0  0  0
  -29.6370  -14.5330   21.8980 H   0  0  0  0  0  0  0  0  0  0  0  0
  -25.2250  -13.8670   20.3590 C   0  0  0  0  0  0  0  0  0  0  0  0
  -24.1580  -13.1110   20.7650 C   0  0  0  0  0  0  0  0  0  0  0  0
  -24.5990  -11.7530   20.7290 C   0  0  0  0  0  0  0  0  0  0  0  0
  -26.2510  -12.9710   20.1060 N   0  0  0  0  0  0  0  0  0  0  0  0
  -25.8780  -11.6950   20.3820 N   0  0  0  0  0  0  0  0  0  0  0  0
  -23.8640  -10.5020   20.9490 C   0  0  0  0  0  0  0  0  0  0  0  0
  -24.3100   -9.5370   21.8790 C   0  0  0  0  0  3  0  0  0  0  0  0
  -23.5750   -8.3490   22.0840 C   0  0  0  0  0  3  0  0  0  0  0  0
  -22.3810   -8.1190   21.3590 C   0  0  0  0  0  0  0  0  0  0  0  0
  -21.9560   -9.0720   20.4170 C   0  0  0  0  0  3  0  0  0  0  0  0
  -22.6910  -10.2510   20.2100 C   0  0  0  0  0  3  0  0  0  0  0  0
  -21.6150   -6.9830   21.4750 O   0  0  0  0  0  0  0  0  0  0  0  0
  -21.5910   -6.2460   22.6320 C   0  0  0  0  0  0  0  0  0  0  0  0
  -21.2170   -6.8140   23.8690 C   0  0  0  0  0  3  0  0  0  0  0  0
  -21.1370   -6.0050   25.0200 C   0  0  0  0  0  3  0  0  0  0  0  0
  -21.4230   -4.6290   24.9340 C   0  0  0  0  0  0  0  0  0  0  0  0
  -21.7900   -4.0600   23.7020 C   0  0  0  0  0  3  0  0  0  0  0  0
  -21.8710   -4.8670   22.5530 C   0  0  0  0  0  0  0  0  0  0  0  0
  -22.2050   -4.3110   21.3630 F   0  0  0  0  0  0  0  0  0  0  0  0
  -21.3400   -3.8490   26.0370 F   0  0  0  0  0  0  0  0  0  0  0  0
  -22.7740  -13.6070   21.0770 C   0  0  0  0  0  0  0  0  0  0  0  0
  -22.0640  -12.9210   21.9660 N   0  0  0  0  0  0  0  0  0  0  0  0
  -22.3360  -14.6370   20.5680 O   0  0  0  0  0  0  0  0  0  0  0  0
  -22.4330  -12.0860   22.3960 H   0  0  0  0  0  0  0  0  0  0  0  0
  -21.1360  -13.2340   22.2170 H   0  0  0  0  0  0  0  0  0  0  0  0
  -25.4030  -15.2340   20.1680 N   0  0  0  0  0  0  0  0  0  0  0  0
  -24.6540  -15.9060   20.2940 H   0  0  0  0  0  0  0  0  0  0  0  0
  -26.2580  -15.6560   19.8260 H   0  0  0  0  0  0  0  0  0  0  0  0
  -26.6280  -22.8520   18.1540 C   0  0  0  0  0  2  0  0  0  0  0  0
  -27.2670  -24.0710   17.4620 C   0  0  0  0  0  2  0  0  0  0  0  0
  -28.4060  -24.7140   18.2800 C   0  0  0  0  0  2  0  0  0  0  0  0
  -29.6000  -26.2550   16.6440 C   0  0  0  0  0  1  0  0  0  0  0  0
  -28.7190  -26.1770   17.9000 C   0  0  0  0  0  3  0  0  0  0  0  0
  -29.3620  -26.9440   19.0830 C   0  0  0  0  0  2  0  0  0  0  0  0
  -28.6320  -26.8770   20.3120 O   0  0  0  0  0  0  0  0  0  0  0  0
  -24.6750  -31.9870   23.3260 C   0  0  0  0  0  0  0  0  0  0  0  0
  -27.4500  -27.5730   20.3370 C   0  0  0  0  0  0  0  0  0  0  0  0
  -23.5180  -30.5370   21.6900 C   0  0  0  0  0  3  0  0  0  0  0  0
  -25.0190  -29.0000   20.3250 C   0  0  0  0  0  0  0  0  0  0  0  0
  -26.0360  -30.9500   21.5100 C   0  0  0  0  0  2  0  0  0  0  0  0
  -26.1600  -29.5660   20.9100 C   0  0  0  0  0  0  0  0  0  0  0  0
  -27.3820  -28.8570   20.9190 C   0  0  0  0  0  3  0  0  0  0  0  0
  -26.2800  -26.9930   19.8050 C   0  0  0  0  0  3  0  0  0  0  0  0
  -25.0700  -27.7070   19.7820 C   0  0  0  0  0  3  0  0  0  0  0  0
  -23.7600  -29.8340   20.3290 C   0  0  0  0  0  2  0  0  0  0  0  0
  -24.7610  -31.1720   22.2370 N   0  0  0  0  0  0  0  0  0  0  0  0
  -23.5820  -32.2500   23.8450 O   0  0  0  0  0  0  0  0  0  0  0  0
  -22.8700  -29.5210   22.6580 C   0  0  0  0  0  0  0  0  0  0  0  0
  -21.5520  -29.3070   22.5050 N   0  0  0  0  0  0  0  0  0  0  0  0
  -23.5500  -28.9250   23.4960 O   0  0  0  0  0  0  0  0  0  0  0  0
  -21.0640  -29.8410   21.8000 H   0  0  0  0  0  0  0  0  0  0  0  0
  -18.1970  -28.0500   22.9520 C   0  0  0  0  0  0  0  0  0  0  0  0
  -20.7400  -28.3680   23.2780 C   0  0  0  0  0  3  0  0  0  0  0  0
  -20.8880  -26.9280   22.7310 C   0  0  0  0  0  2  0  0  0  0  0  0
  -19.8170  -26.5610   21.7000 C   0  0  0  0  0  2  0  0  0  0  0  0
  -18.4180  -26.6910   22.3090 C   0  0  0  0  0  2  0  0  0  0  0  0
  -19.2870  -28.8430   23.3920 C   0  0  0  0  0  0  0  0  0  0  0  0
  -19.0290  -30.1160   23.9470 C   0  0  0  0  0  3  0  0  0  0  0  0
  -17.7110  -30.5930   24.0680 C   0  0  0  0  0  3  0  0  0  0  0  0
  -16.6330  -29.7970   23.6440 C   0  0  0  0  0  3  0  0  0  0  0  0
  -16.8770  -28.5260   23.0910 C   0  0  0  0  0  3  0  0  0  0  0  0
  -25.9380  -32.6510   23.9540 C   0  0  0  0  0  3  0  0  0  0  0  0
  -26.4510  -31.9110   25.2490 C   0  0  1  0  0  0  0  0  0  0  0  0
  -25.3450  -31.6520   26.2980 C   0  0  0  0  0  1  0  0  0  0  0  0
  -27.0770  -30.5460   24.8770 C   0  0  0  0  0  1  0  0  0  0  0  0
  -27.5660  -32.7450   25.9250 C   0  0  0  0  0  1  0  0  0  0  0  0
  -25.6030  -34.0500   24.2480 N   0  0  0  0  0  0  0  0  0  0  0  0
  -25.9330  -35.0890   23.4690 C   0  0  0  0  0  0  0  0  0  0  0  0
  -26.6230  -34.9730   22.4530 O   0  0  0  0  0  0  0  0  0  0  0  0
  -24.9850  -34.2090   25.0300 H   0  0  0  0  0  0  0  0  0  0  0  0
  -24.1760  -36.8390   23.0470 C   0  0  0  0  0  1  0  0  0  0  0  0
  -25.4130  -36.4770   23.8870 C   0  0  0  0  0  3  0  0  0  0  0  0
  -27.5200  -37.4180   24.7260 C   0  0  0  0  0  1  0  0  0  0  0  0
  -26.4270  -37.5470   23.7630 N   0  0  0  0  0  0  0  0  0  0  0  0
  -26.0030  -38.4620   23.8890 H   0  0  0  0  0  0  0  0  0  0  0  0
  1  4  1  0
  2  1  2  0
  2  5  1  0
  4  8  1  0
  4  3  2  0
  5  6  2  0
  6  3  1  0
  6  7  1  0
  8  9  1  0
  9 10  1  0
 10 11  1  0
 12 20  1  0
 13 18  1  0
 14 15  1  0
 14 13  1  0
 16 15  1  0
 16 25  1  0
 16 17  1  0
 18 12  1  0
 18 17  1  0
 19 12  2  0
 20 21  1  0
 20 11  1  0
 22 23  2  0
 23 42  1  0
 24 23  1  0
 24 27  1  0
 25 22  1  0
 25 26  1  0
 26 24  2  0
 27 28  1  0
 28 29  2  0
 30 33  1  0
 30 29  1  0
 31 30  2  0
 32 31  1  0
 32 27  2  0
 33 34  1  0
 34 35  1  0
 35 36  2  0
 37 36  1  0
 37 41  1  0
 38 37  2  0
 39 34  2  0
 39 38  1  0
 40 39  1  0
 42 43  1  0
 43 46  1  0
 43 45  1  0
 44 42  2  0
 47 48  1  0
 47 22  1  0
 49 47  1  0
 50  5  1  0
 51 50  1  0
 51 52  1  0
 54 53  1  0
 54 52  1  0
 54 55  1  0
 55 56  1  0
 56 58  1  0
 57 68  2  0
 58 63  1  0
 59 67  1  0
 59 69  1  0
 60 66  1  0
 60 62  1  0
 61 67  1  0
 62 63  2  0
 62 61  1  0
 64 58  2  0
 65 64  1  0
 65 60  2  0
 66 59  1  0
 67 57  1  0
 69 71  2  0
 70 69  1  0
 72 70  1  0
 73 82  2  0
 73 78  1  0
 74 70  1  0
 74 78  1  0
 75 74  1  0
 76 77  1  0
 76 75  1  0
 77 73  1  0
 78 79  2  0
 79 80  1  0
 81 80  2  0
 82 81  1  0
 83 57  1  0
 83 88  1  0
 83 84  1  0
 84 87  1  1
 84 85  1  0
 86 84  1  0
 88 91  1  0
 89 93  1  0
 89 88  1  0
 90 89  2  0
 93 92  1  0
 95 93  1  0
 95 96  1  0
 95 94  1  0
M  ISO  4  12 100  20 100  55 101  56 101
M  END
>  <TORSDO>  (71) 
F 25

>  <SCORE>  (71) 
-12.060

>  <name>  (71) 
76

>  <ligand_id>  (71) 
76

>  <original_smiles>  (71) 
[H]c1c([H])c([H])c2c(c1[H])C([H])([H])C([H])([H])C([H])([H])C2([H])N([H])C(=O)C1([H])N(C(=O)C([H])(N([H])C(=O)C([H])(N([H])C([H])([H])[H])C([H])([H])[H])C(C([H])([H])[H])(C([H])([H])[H])C([H])([H])[H])C([H])([H])c2c([H])c(OC([H])([H])C([H])(C([H])([H])[H])C([H])([H])C([H])([H])C([H])([H])c3c([H])c([H])c(C([H])([H])C([H])([H])C([H])([H])C([H])([H])N([H])C(=O)N4C([H])([H])C([H])([H])C([H])([H])C([H])(n5nc(-c6c([H])c([H])c(Oc7c([H])c([H])c(F)c([H])c7F)c([H])c6[H])c(C(=O)N([H])[H])c5N([H])[H])C4([H])[H])c([H])c3C([H])([H])[H])c([H])c([H])c2C1([H])[H]

>  <smiles>  (71) 
[H]c1c([H])c([H])c2c(c1[H])C([H])([H])C([H])([H])C([H])([H])C2([H])N([H])C(=O)C1([H])N(C(=O)C([H])(N([H])C(=O)C([H])(N([H])C([H])([H])[H])C([H])([H])[H])C(C([H])([H])[H])(C([H])([H])[H])C([H])([H])[H])C([H])([H])c2c([H])c(OC([H])([H])C([H])(C([H])([H])[H])C([H])([H])C([H])([H])C([H])([H])c3c([H])c([H])c(C([H])([H])C([H])([H])C([H])([H])C([H])([H])N([H])C(=O)N4C([H])([H])C([H])([H])C([H])([H])C([H])(n5nc(-c6c([H])c([H])c(Oc7c([H])c([H])c(F)c([H])c7F)c([H])c6[H])c(C(=O)N([H])[H])c5N([H])[H])C4([H])[H])c([H])c3C([H])([H])[H])c([H])c([H])c2C1([H])[H]

$$$$
77:0:0
     RDKit          3D

 98106  0  0  1  0  0  0  0  0999 V2000
  -26.4920  -22.7340   22.6360 C   0  0  0  0  0  3  0  0  0  0  0  0
  -25.1850  -24.0770   21.0860 C   0  0  0  0  0  3  0  0  0  0  0  0
  -24.2530  -22.0130   21.9660 C   0  0  0  0  0  3  0  0  0  0  0  0
  -26.3730  -23.8860   21.8240 C   0  0  0  0  0  0  0  0  0  0  0  0
  -25.4280  -21.8030   22.7210 C   0  0  0  0  0  0  0  0  0  0  0  0
  -24.1350  -23.1430   21.1390 C   0  0  0  0  0  0  0  0  0  0  0  0
  -22.9760  -23.3470   20.3930 N   0  0  0  0  0  0  0  0  0  0  0  0
  -22.7780  -24.2700   20.0190 H   0  0  0  0  0  0  0  0  0  0  0  0
  -22.1360  -22.8370   20.6460 H   0  0  0  0  0  0  0  0  0  0  0  0
  -24.5180  -20.7870   24.8350 C   0  0  0  0  0  1  0  0  0  0  0  0
  -25.5070  -20.6120   23.6720 C   0  0  0  0  0  3  0  0  0  0  0  0
  -25.2910  -19.2500   22.9710 C   0  0  0  0  0  2  0  0  0  0  0  0
  -26.4100  -18.8240   22.0040 C   0  0  0  0  0  2  0  0  0  0  0  0
  -27.7380  -18.5400   22.7260 C   0  0  0  0  0  2  0  0  0  0  0  0
  -28.7340  -17.7320   21.8870 C   0  0  0  0  0  2  0  0  0  0  0  0
  -29.9850  -17.3750   22.7130 C   0  0  0  0  0  2  0  0  0  0  0  0
  -30.9640  -16.4250   22.0110 C   0  0  0  0  0  2  0  0  0  0  0  0
  -30.7760  -14.3640   20.6600 C   0  0  0  0  0  0  0  0  0  0  0  0
  -30.4080  -12.2900   19.3920 C   0  0  0  0  0  2  0  0  0  0  0  0
  -29.4720  -12.5260   18.1900 C   0  0  0  0  0  2  0  0  0  0  0  0
  -27.9990  -12.3750   18.6110 C   0  0  0  0  0  2  0  0  0  0  0  0
  -27.6610  -13.2030   19.8780 C   0  0  0  0  0  3  0  0  0  0  0  0
  -28.7010  -12.9660   20.9950 C   0  0  0  0  0  2  0  0  0  0  0  0
  -30.0460  -13.2400   20.4510 N   0  0  0  0  0  0  0  0  0  0  0  0
  -31.8030  -14.6370   20.0320 O   0  0  0  0  0  0  0  0  0  0  0  0
  -30.3260  -15.1700   21.6260 N   0  0  0  0  0  0  0  0  0  0  0  0
  -29.5000  -14.8760   22.1270 H   0  0  0  0  0  0  0  0  0  0  0  0
  -25.2590  -13.8160   20.5690 C   0  0  0  0  0  0  0  0  0  0  0  0
  -24.1820  -13.0440   20.9180 C   0  0  0  0  0  0  0  0  0  0  0  0
  -24.6370  -11.6910   20.8740 C   0  0  0  0  0  0  0  0  0  0  0  0
  -26.3020  -12.9320   20.3400 N   0  0  0  0  0  0  0  0  0  0  0  0
  -25.9300  -11.6480   20.5780 N   0  0  0  0  0  0  0  0  0  0  0  0
  -23.9030  -10.4310   21.0410 C   0  0  0  0  0  0  0  0  0  0  0  0
  -24.3600   -9.4230   21.9190 C   0  0  0  0  0  3  0  0  0  0  0  0
  -23.6310   -8.2250   22.0750 C   0  0  0  0  0  3  0  0  0  0  0  0
  -22.4290   -8.0280   21.3540 C   0  0  0  0  0  0  0  0  0  0  0  0
  -21.9910   -9.0250   20.4640 C   0  0  0  0  0  3  0  0  0  0  0  0
  -22.7210  -10.2150   20.3060 C   0  0  0  0  0  3  0  0  0  0  0  0
  -21.6640   -6.8890   21.4240 O   0  0  0  0  0  0  0  0  0  0  0  0
  -21.6850   -6.0750   22.5280 C   0  0  0  0  0  0  0  0  0  0  0  0
  -21.4000   -6.5640   23.8220 C   0  0  0  0  0  3  0  0  0  0  0  0
  -21.3670   -5.6790   24.9180 C   0  0  0  0  0  3  0  0  0  0  0  0
  -21.6050   -4.3050   24.7220 C   0  0  0  0  0  0  0  0  0  0  0  0
  -21.8820   -3.8150   23.4330 C   0  0  0  0  0  3  0  0  0  0  0  0
  -21.9190   -4.6980   22.3400 C   0  0  0  0  0  0  0  0  0  0  0  0
  -22.1670   -4.2180   21.0980 F   0  0  0  0  0  0  0  0  0  0  0  0
  -21.5640   -3.4530   25.7730 F   0  0  0  0  0  0  0  0  0  0  0  0
  -22.7850  -13.5280   21.1820 C   0  0  0  0  0  0  0  0  0  0  0  0
  -22.0450  -12.8300   22.0380 N   0  0  0  0  0  0  0  0  0  0  0  0
  -22.3550  -14.5590   20.6680 O   0  0  0  0  0  0  0  0  0  0  0  0
  -22.4060  -11.9990   22.4810 H   0  0  0  0  0  0  0  0  0  0  0  0
  -21.1070  -13.1350   22.2560 H   0  0  0  0  0  0  0  0  0  0  0  0
  -25.4300  -15.1850   20.4110 N   0  0  0  0  0  0  0  0  0  0  0  0
  -24.6630  -15.8410   20.5180 H   0  0  0  0  0  0  0  0  0  0  0  0
  -26.2940  -15.6230   20.1120 H   0  0  0  0  0  0  0  0  0  0  0  0
  -27.4590  -24.9660   21.8100 C   0  0  0  0  0  2  0  0  0  0  0  0
  -28.1090  -25.2500   20.4230 C   0  0  0  0  0  2  0  0  0  0  0  0
  -28.3430  -26.6550   20.1740 O   0  0  0  0  0  0  0  0  0  0  0  0
  -24.6140  -31.8700   23.2100 C   0  0  0  0  0  0  0  0  0  0  0  0
  -27.2160  -27.4460   20.0960 C   0  0  0  0  0  0  0  0  0  0  0  0
  -23.4000  -30.4980   21.5500 C   0  0  0  0  0  3  0  0  0  0  0  0
  -24.8460  -28.9840   20.0990 C   0  0  0  0  0  0  0  0  0  0  0  0
  -25.9300  -30.8420   21.3640 C   0  0  0  0  0  2  0  0  0  0  0  0
  -26.0060  -29.4810   20.7090 C   0  0  0  0  0  0  0  0  0  0  0  0
  -27.1960  -28.7180   20.7110 C   0  0  0  0  0  3  0  0  0  0  0  0
  -26.0560  -26.9970   19.4310 C   0  0  0  0  0  3  0  0  0  0  0  0
  -24.8670  -27.7410   19.4510 C   0  0  0  0  0  3  0  0  0  0  0  0
  -23.6050  -29.8410   20.1590 C   0  0  0  0  0  2  0  0  0  0  0  0
  -24.6660  -31.0830   22.0990 N   0  0  0  0  0  0  0  0  0  0  0  0
  -23.5340  -32.1420   23.7520 O   0  0  0  0  0  0  0  0  0  0  0  0
  -22.7410  -29.4660   22.4940 C   0  0  0  0  0  0  0  0  0  0  0  0
  -21.4140  -29.3000   22.3660 N   0  0  0  0  0  0  0  0  0  0  0  0
  -23.4190  -28.8180   23.2970 O   0  0  0  0  0  0  0  0  0  0  0  0
  -20.9270  -29.8730   21.6910 H   0  0  0  0  0  0  0  0  0  0  0  0
  -18.0270  -28.1380   22.8460 C   0  0  0  0  0  0  0  0  0  0  0  0
  -20.5870  -28.3640   23.1250 C   0  0  0  0  0  3  0  0  0  0  0  0
  -20.6750  -26.9350   22.5410 C   0  0  0  0  0  2  0  0  0  0  0  0
  -19.5730  -26.6290   21.5230 C   0  0  0  0  0  2  0  0  0  0  0  0
  -18.1890  -26.7940   22.1560 C   0  0  0  0  0  2  0  0  0  0  0  0
  -19.1530  -28.8830   23.2850 C   0  0  0  0  0  0  0  0  0  0  0  0
  -18.9480  -30.1450   23.8850 C   0  0  0  0  0  3  0  0  0  0  0  0
  -17.6490  -30.6600   24.0530 C   0  0  0  0  0  3  0  0  0  0  0  0
  -16.5360  -29.9090   23.6340 C   0  0  0  0  0  3  0  0  0  0  0  0
  -16.7270  -28.6510   23.0350 C   0  0  0  0  0  3  0  0  0  0  0  0
  -25.9040  -32.4830   23.8380 C   0  0  0  0  0  3  0  0  0  0  0  0
  -26.4460  -31.6580   25.0690 C   0  0  1  0  0  0  0  0  0  0  0  0
  -25.3700  -31.3700   26.1430 C   0  0  0  0  0  1  0  0  0  0  0  0
  -27.0310  -30.3020   24.6080 C   0  0  0  0  0  1  0  0  0  0  0  0
  -27.6050  -32.4290   25.7440 C   0  0  0  0  0  1  0  0  0  0  0  0
  -25.5870  -33.8620   24.2330 N   0  0  0  0  0  0  0  0  0  0  0  0
  -25.9020  -34.9480   23.5150 C   0  0  0  0  0  0  0  0  0  0  0  0
  -26.5600  -34.8940   22.4720 O   0  0  0  0  0  0  0  0  0  0  0  0
  -25.0030  -33.9770   25.0490 H   0  0  0  0  0  0  0  0  0  0  0  0
  -24.1490  -36.7310   23.2640 C   0  0  0  0  0  1  0  0  0  0  0  0
  -25.4100  -36.3120   24.0350 C   0  0  0  0  0  3  0  0  0  0  0  0
  -27.5580  -37.1820   24.8460 C   0  0  0  0  0  1  0  0  0  0  0  0
  -26.4300  -37.3800   23.9410 N   0  0  0  0  0  0  0  0  0  0  0  0
  -26.0200  -38.2890   24.1390 H   0  0  0  0  0  0  0  0  0  0  0  0
  1  5  1  0
  2  6  2  0
  2  4  1  0
  3  5  2  0
  4  1  2  0
  5 11  1  0
  6  3  1  0
  7  9  1  0
  7  6  1  0
  8  7  1  0
 11 10  1  0
 12 11  1  0
 13 14  1  0
 13 12  1  0
 15 16  1  0
 15 14  1  0
 17 16  1  0
 18 26  1  0
 19 24  1  0
 20 21  1  0
 20 19  1  0
 22 21  1  0
 22 31  1  0
 22 23  1  0
 24 18  1  0
 24 23  1  0
 25 18  2  0
 26 17  1  0
 26 27  1  0
 28 29  2  0
 29 48  1  0
 30 29  1  0
 30 33  1  0
 31 28  1  0
 31 32  1  0
 32 30  2  0
 33 34  1  0
 34 35  2  0
 36 39  1  0
 36 35  1  0
 37 36  2  0
 38 37  1  0
 38 33  2  0
 39 40  1  0
 40 41  1  0
 41 42  2  0
 43 42  1  0
 43 47  1  0
 44 43  2  0
 45 40  2  0
 45 44  1  0
 46 45  1  0
 48 49  1  0
 49 52  1  0
 49 51  1  0
 50 48  2  0
 53 54  1  0
 53 28  1  0
 55 53  1  0
 56  4  1  0
 57 56  1  0
 58 57  1  0
 59 70  2  0
 60 58  1  0
 60 65  1  0
 61 69  1  0
 61 71  1  0
 62 68  1  0
 62 64  1  0
 63 69  1  0
 64 65  2  0
 64 63  1  0
 66 67  1  0
 66 60  2  0
 67 62  2  0
 68 61  1  0
 69 59  1  0
 71 73  2  0
 72 71  1  0
 74 72  1  0
 75 84  2  0
 75 80  1  0
 76 72  1  0
 76 80  1  0
 77 76  1  0
 78 79  1  0
 78 77  1  0
 79 75  1  0
 80 81  2  0
 81 82  1  0
 83 82  2  0
 84 83  1  0
 85 59  1  0
 85 90  1  0
 85 86  1  0
 86 89  1  1
 86 87  1  0
 88 86  1  0
 90 93  1  0
 91 95  1  0
 91 90  1  0
 92 91  2  0
 95 94  1  0
 97 95  1  0
 97 98  1  0
 97 96  1  0
M  ISO  4  18 100  26 100  57 101  58 101
M  END
>  <TORSDO>  (72) 
F 26

>  <SCORE>  (72) 
38.305

>  <name>  (72) 
77

>  <ligand_id>  (72) 
77

>  <original_smiles>  (72) 
[H]c1c([H])c([H])c2c(c1[H])C([H])([H])C([H])([H])C([H])([H])C2([H])N([H])C(=O)C1([H])N(C(=O)C([H])(N([H])C(=O)C([H])(N([H])C([H])([H])[H])C([H])([H])[H])C(C([H])([H])[H])(C([H])([H])[H])C([H])([H])[H])C([H])([H])c2c([H])c(OC([H])([H])C([H])([H])c3c([H])c(N([H])[H])c([H])c(C([H])(C([H])([H])[H])C([H])([H])C([H])([H])C([H])([H])C([H])([H])C([H])([H])C([H])([H])N([H])C(=O)N4C([H])([H])C([H])([H])C([H])([H])C([H])(n5nc(-c6c([H])c([H])c(Oc7c([H])c([H])c(F)c([H])c7F)c([H])c6[H])c(C(=O)N([H])[H])c5N([H])[H])C4([H])[H])c3[H])c([H])c([H])c2C1([H])[H]

>  <smiles>  (72) 
[H]c1c([H])c([H])c2c(c1[H])C([H])([H])C([H])([H])C([H])([H])C2([H])N([H])C(=O)C1([H])N(C(=O)C([H])(N([H])C(=O)C([H])(N([H])C([H])([H])[H])C([H])([H])[H])C(C([H])([H])[H])(C([H])([H])[H])C([H])([H])[H])C([H])([H])c2c([H])c(OC([H])([H])C([H])([H])c3c([H])c(N([H])[H])c([H])c(C([H])(C([H])([H])[H])C([H])([H])C([H])([H])C([H])([H])C([H])([H])C([H])([H])C([H])([H])N([H])C(=O)N4C([H])([H])C([H])([H])C([H])([H])C([H])(n5nc(-c6c([H])c([H])c(Oc7c([H])c([H])c(F)c([H])c7F)c([H])c6[H])c(C(=O)N([H])[H])c5N([H])[H])C4([H])[H])c3[H])c([H])c([H])c2C1([H])[H]

$$$$
78:0:0
     RDKit          3D

 93101  0  0  1  0  0  0  0  0999 V2000
  -32.9070  -23.0970   20.9840 C   0  0  0  0  0  3  0  0  0  0  0  0
  -32.9980  -21.7620   21.4170 C   0  0  0  0  0  3  0  0  0  0  0  0
  -31.6890  -23.7970   21.0920 C   0  0  0  0  0  3  0  0  0  0  0  0
  -30.6590  -21.8410   22.1030 C   0  0  0  0  0  3  0  0  0  0  0  0
  -31.8680  -21.1270   21.9710 C   0  0  0  0  0  0  0  0  0  0  0  0
  -30.5470  -23.1770   21.6490 C   0  0  0  0  0  0  0  0  0  0  0  0
  -28.3040  -23.4230   22.6590 C   0  0  0  0  0  1  0  0  0  0  0  0
  -29.3280  -23.8800   21.7240 N   0  0  0  0  0  0  0  0  0  0  0  0
  -28.9000  -24.5920   20.5190 C   0  0  0  0  0  2  0  0  0  0  0  0
  -28.8140  -26.1130   20.7210 C   0  0  0  0  0  2  0  0  0  0  0  0
  -28.2750  -26.6620   19.5260 O   0  0  0  0  0  0  0  0  0  0  0  0
  -24.5640  -31.6380   23.0390 C   0  0  0  0  0  0  0  0  0  0  0  0
  -27.1160  -27.3750   19.6730 C   0  0  0  0  0  0  0  0  0  0  0  0
  -23.3080  -30.3190   21.3620 C   0  0  0  0  0  3  0  0  0  0  0  0
  -24.7180  -28.8460   19.8310 C   0  0  0  0  0  0  0  0  0  0  0  0
  -25.8230  -30.6880   21.1130 C   0  0  0  0  0  2  0  0  0  0  0  0
  -25.8880  -29.3470   20.4180 C   0  0  0  0  0  0  0  0  0  0  0  0
  -27.0910  -28.6130   20.3480 C   0  0  0  0  0  3  0  0  0  0  0  0
  -25.9360  -26.8790   19.0830 C   0  0  0  0  0  3  0  0  0  0  0  0
  -24.7330  -27.6050   19.1690 C   0  0  0  0  0  3  0  0  0  0  0  0
  -23.4780  -29.7020   19.9480 C   0  0  0  0  0  2  0  0  0  0  0  0
  -24.5840  -30.8930   21.8980 N   0  0  0  0  0  0  0  0  0  0  0  0
  -23.5000  -31.8870   23.6200 O   0  0  0  0  0  0  0  0  0  0  0  0
  -22.6800  -29.2550   22.2910 C   0  0  0  0  0  0  0  0  0  0  0  0
  -21.3500  -29.0970   22.2040 N   0  0  0  0  0  0  0  0  0  0  0  0
  -23.3850  -28.5770   23.0440 O   0  0  0  0  0  0  0  0  0  0  0  0
  -20.8420  -29.6990   21.5710 H   0  0  0  0  0  0  0  0  0  0  0  0
  -17.9760  -27.9460   22.7860 C   0  0  0  0  0  0  0  0  0  0  0  0
  -20.5480  -28.1280   22.9510 C   0  0  0  0  0  3  0  0  0  0  0  0
  -20.5880  -26.7360   22.2790 C   0  0  0  0  0  2  0  0  0  0  0  0
  -19.4320  -26.5060   21.3010 C   0  0  0  0  0  2  0  0  0  0  0  0
  -18.0860  -26.6400   22.0200 C   0  0  0  0  0  2  0  0  0  0  0  0
  -19.1330  -28.6530   23.2100 C   0  0  0  0  0  0  0  0  0  0  0  0
  -18.9750  -29.8810   23.8890 C   0  0  0  0  0  3  0  0  0  0  0  0
  -17.6930  -30.4010   24.1480 C   0  0  0  0  0  3  0  0  0  0  0  0
  -16.5510  -29.6900   23.7410 C   0  0  0  0  0  3  0  0  0  0  0  0
  -16.6940  -28.4650   23.0650 C   0  0  0  0  0  3  0  0  0  0  0  0
  -25.8720  -32.2310   23.6520 C   0  0  0  0  0  3  0  0  0  0  0  0
  -25.5760  -33.6100   24.0640 N   0  0  0  0  0  0  0  0  0  0  0  0
  -25.9080  -34.7000   23.3610 C   0  0  0  0  0  0  0  0  0  0  0  0
  -26.5670  -34.6510   22.3180 O   0  0  0  0  0  0  0  0  0  0  0  0
  -24.9940  -33.7220   24.8820 H   0  0  0  0  0  0  0  0  0  0  0  0
  -24.1910  -36.5210   23.1220 C   0  0  0  0  0  1  0  0  0  0  0  0
  -25.4350  -36.0640   23.9010 C   0  0  0  0  0  3  0  0  0  0  0  0
  -27.5810  -36.8850   24.7650 C   0  0  0  0  0  1  0  0  0  0  0  0
  -26.4750  -37.1130   23.8390 N   0  0  0  0  0  0  0  0  0  0  0  0
  -26.0760  -38.0270   24.0390 H   0  0  0  0  0  0  0  0  0  0  0  0
  -26.4290  -31.3880   24.8640 C   0  0  1  0  0  0  0  0  0  0  0  0
  -25.3720  -31.0910   25.9530 C   0  0  0  0  0  1  0  0  0  0  0  0
  -26.9950  -30.0350   24.3720 C   0  0  0  0  0  1  0  0  0  0  0  0
  -27.6030  -32.1440   25.5310 C   0  0  0  0  0  1  0  0  0  0  0  0
  -31.9130  -19.6590   22.3570 C   0  0  0  0  0  2  0  0  0  0  0  0
  -31.1100  -18.8210   21.3500 C   0  0  0  0  0  2  0  0  0  0  0  0
  -30.9960  -17.3270   21.6920 C   0  0  0  0  0  2  0  0  0  0  0  0
  -30.0670  -16.6400   20.6790 C   0  0  0  0  0  2  0  0  0  0  0  0
  -30.5670  -14.2740   20.1440 C   0  0  0  0  0  0  0  0  0  0  0  0
  -30.2040  -12.1730   18.9170 C   0  0  0  0  0  2  0  0  0  0  0  0
  -29.1980  -12.4260   17.7770 C   0  0  0  0  0  2  0  0  0  0  0  0
  -27.7480  -12.2720   18.2800 C   0  0  0  0  0  2  0  0  0  0  0  0
  -27.4820  -13.0720   19.5840 C   0  0  0  0  0  3  0  0  0  0  0  0
  -28.5890  -12.7870   20.6260 C   0  0  0  0  0  2  0  0  0  0  0  0
  -29.8920  -13.1030   20.0100 N   0  0  0  0  0  0  0  0  0  0  0  0
  -31.6070  -14.5370   19.5340 O   0  0  0  0  0  0  0  0  0  0  0  0
  -29.9320  -15.2000   20.8740 N   0  0  0  0  0  0  0  0  0  0  0  0
  -29.1070  -14.8840   21.3640 H   0  0  0  0  0  0  0  0  0  0  0  0
  -25.0960  -13.6640   20.3620 C   0  0  0  0  0  0  0  0  0  0  0  0
  -24.0570  -12.8850   20.7970 C   0  0  0  0  0  0  0  0  0  0  0  0
  -24.5410  -11.5400   20.7840 C   0  0  0  0  0  0  0  0  0  0  0  0
  -26.1490  -12.7960   20.1190 N   0  0  0  0  0  0  0  0  0  0  0  0
  -25.8180  -11.5150   20.4250 N   0  0  0  0  0  0  0  0  0  0  0  0
  -23.8480  -10.2700   21.0390 C   0  0  0  0  0  0  0  0  0  0  0  0
  -24.3060   -9.3660   22.0220 C   0  0  0  0  0  3  0  0  0  0  0  0
  -23.6150   -8.1590   22.2620 C   0  0  0  0  0  3  0  0  0  0  0  0
  -22.4520   -7.8480   21.5180 C   0  0  0  0  0  0  0  0  0  0  0  0
  -22.0120   -8.7430   20.5270 C   0  0  0  0  0  3  0  0  0  0  0  0
  -22.7040   -9.9410   20.2850 C   0  0  0  0  0  3  0  0  0  0  0  0
  -21.7300   -6.6890   21.6650 O   0  0  0  0  0  0  0  0  0  0  0  0
  -21.6670   -6.0250   22.8630 C   0  0  0  0  0  0  0  0  0  0  0  0
  -21.1790   -6.6460   24.0340 C   0  0  0  0  0  3  0  0  0  0  0  0
  -21.0670   -5.9080   25.2300 C   0  0  0  0  0  3  0  0  0  0  0  0
  -21.4350   -4.5500   25.2540 C   0  0  0  0  0  0  0  0  0  0  0  0
  -21.9160   -3.9270   24.0890 C   0  0  0  0  0  3  0  0  0  0  0  0
  -22.0290   -4.6630   22.8960 C   0  0  0  0  0  0  0  0  0  0  0  0
  -22.4740   -4.0540   21.7710 F   0  0  0  0  0  0  0  0  0  0  0  0
  -21.3200   -3.8370   26.3990 F   0  0  0  0  0  0  0  0  0  0  0  0
  -22.6630  -13.3440   21.1150 C   0  0  0  0  0  0  0  0  0  0  0  0
  -21.9850  -12.6620   22.0300 N   0  0  0  0  0  0  0  0  0  0  0  0
  -22.1800  -14.3440   20.5830 O   0  0  0  0  0  0  0  0  0  0  0  0
  -22.3870  -11.8550   22.4840 H   0  0  0  0  0  0  0  0  0  0  0  0
  -21.0520  -12.9510   22.2840 H   0  0  0  0  0  0  0  0  0  0  0  0
  -25.2300  -15.0320   20.1380 N   0  0  0  0  0  0  0  0  0  0  0  0
  -24.4600  -15.6810   20.2560 H   0  0  0  0  0  0  0  0  0  0  0  0
  -26.0650  -15.4700   19.7690 H   0  0  0  0  0  0  0  0  0  0  0  0
  1  3  2  0
  1  2  1  0
  2  5  2  0
  3  6  1  0
  5  4  1  0
  5 52  1  0
  6  8  1  0
  6  4  2  0
  8  7  1  0
  9 10  1  0
  9  8  1  0
 11 13  1  0
 11 10  1  0
 12 23  2  0
 13 18  1  0
 14 22  1  0
 14 24  1  0
 15 21  1  0
 15 17  1  0
 16 22  1  0
 17 16  1  0
 18 17  2  0
 19 20  1  0
 19 13  2  0
 20 15  2  0
 21 14  1  0
 22 12  1  0
 24 26  2  0
 25 24  1  0
 27 25  1  0
 28 37  2  0
 28 33  1  0
 29 25  1  0
 29 33  1  0
 30 29  1  0
 31 32  1  0
 31 30  1  0
 32 28  1  0
 33 34  2  0
 34 35  1  0
 36 35  2  0
 37 36  1  0
 38 12  1  0
 38 39  1  0
 38 48  1  0
 39 42  1  0
 40 44  1  0
 40 39  1  0
 41 40  2  0
 44 43  1  0
 46 44  1  0
 46 47  1  0
 46 45  1  0
 48 51  1  1
 48 49  1  0
 50 48  1  0
 53 54  1  0
 53 52  1  0
 55 64  1  0
 55 54  1  0
 56 64  1  0
 57 62  1  0
 58 59  1  0
 58 57  1  0
 60 59  1  0
 60 69  1  0
 60 61  1  0
 62 56  1  0
 62 61  1  0
 63 56  2  0
 64 65  1  0
 66 67  2  0
 67 86  1  0
 68 67  1  0
 68 71  1  0
 69 66  1  0
 69 70  1  0
 70 68  2  0
 71 72  1  0
 72 73  2  0
 74 77  1  0
 74 73  1  0
 75 74  2  0
 76 75  1  0
 76 71  2  0
 77 78  1  0
 78 83  2  0
 78 79  1  0
 79 80  2  0
 80 81  1  0
 81 85  1  0
 82 81  2  0
 83 82  1  0
 84 83  1  0
 86 87  1  0
 87 90  1  0
 87 89  1  0
 88 86  2  0
 91 92  1  0
 91 66  1  0
 93 91  1  0
M  ISO  4  10 101  11 101  56 100  64 100
M  END
>  <TORSDO>  (73) 
F 23

>  <SCORE>  (73) 
-10.643

>  <name>  (73) 
78

>  <ligand_id>  (73) 
78

>  <original_smiles>  (73) 
[H]c1c([H])c(N(C([H])([H])[H])C([H])([H])C([H])([H])Oc2c([H])c([H])c3c(c2[H])C([H])([H])N(C(=O)C([H])(N([H])C(=O)C([H])(N([H])C([H])([H])[H])C([H])([H])[H])C(C([H])([H])[H])(C([H])([H])[H])C([H])([H])[H])C([H])(C(=O)N([H])C2([H])c4c([H])c([H])c([H])c([H])c4C([H])([H])C([H])([H])C2([H])[H])C3([H])[H])c([H])c(C([H])([H])C([H])([H])C([H])([H])C([H])([H])N([H])C(=O)N2C([H])([H])C([H])([H])C([H])([H])C([H])(n3nc(-c4c([H])c([H])c(Oc5c([H])c([H])c(F)c([H])c5F)c([H])c4[H])c(C(=O)N([H])[H])c3N([H])[H])C2([H])[H])c1[H]

>  <smiles>  (73) 
[H]c1c([H])c(N(C([H])([H])[H])C([H])([H])C([H])([H])Oc2c([H])c([H])c3c(c2[H])C([H])([H])N(C(=O)C([H])(N([H])C(=O)C([H])(N([H])C([H])([H])[H])C([H])([H])[H])C(C([H])([H])[H])(C([H])([H])[H])C([H])([H])[H])C([H])(C(=O)N([H])C2([H])c4c([H])c([H])c([H])c([H])c4C([H])([H])C([H])([H])C2([H])[H])C3([H])[H])c([H])c(C([H])([H])C([H])([H])C([H])([H])C([H])([H])N([H])C(=O)N2C([H])([H])C([H])([H])C([H])([H])C([H])(n3nc(-c4c([H])c([H])c(Oc5c([H])c([H])c(F)c([H])c5F)c([H])c4[H])c(C(=O)N([H])[H])c3N([H])[H])C2([H])[H])c1[H]

$$$$
79:0:0
     RDKit          3D

 99107  0  0  1  0  0  0  0  0999 V2000
  -25.5390  -24.0610   22.1240 C   0  0  0  0  0  3  0  0  0  0  0  0
  -26.8550  -25.4410   23.6370 C   0  0  0  0  0  3  0  0  0  0  0  0
  -24.3600  -24.2940   22.8750 C   0  0  0  0  0  0  0  0  0  0  0  0
  -26.7730  -24.6220   22.4980 C   0  0  0  0  0  0  0  0  0  0  0  0
  -25.7030  -25.7000   24.4020 C   0  0  0  0  0  0  0  0  0  0  0  0
  -24.4600  -25.1250   24.0350 C   0  0  0  0  0  0  0  0  0  0  0  0
  -25.8190  -26.6060   25.6190 C   0  0  0  0  0  1  0  0  0  0  0  0
  -23.0590  -23.6820   22.4090 C   0  0  0  0  0  0  0  0  0  0  0  0
  -21.9960  -24.3020   22.3030 O   0  0  0  0  0  0  0  0  0  0  0  0
  -23.0260  -22.1920   22.0310 C   0  0  0  0  0  2  0  0  0  0  0  0
  -24.1080  -21.8040   21.0010 C   0  0  0  0  0  2  0  0  0  0  0  0
  -24.8420  -20.4930   21.3530 C   0  0  0  0  0  2  0  0  0  0  0  0
  -25.9140  -20.1380   20.3110 C   0  0  0  0  0  2  0  0  0  0  0  0
  -27.0880  -19.2930   20.8420 C   0  0  0  0  0  2  0  0  0  0  0  0
  -28.9350  -17.9890   19.7350 C   0  0  0  0  0  0  0  0  0  0  0  0
  -29.6870  -15.6660   19.4260 C   0  0  0  0  0  2  0  0  0  0  0  0
  -28.8750  -15.0110   18.2900 C   0  0  0  0  0  2  0  0  0  0  0  0
  -27.5550  -14.4160   18.8260 C   0  0  0  0  0  2  0  0  0  0  0  0
  -26.7730  -15.4000   19.7370 C   0  0  0  0  0  3  0  0  0  0  0  0
  -27.7120  -16.0340   20.7830 C   0  0  0  0  0  2  0  0  0  0  0  0
  -28.8260  -16.6740   20.0660 N   0  0  0  0  0  0  0  0  0  0  0  0
  -29.9070  -18.4510   19.1330 O   0  0  0  0  0  0  0  0  0  0  0  0
  -27.7950  -18.6930   19.7120 N   0  0  0  0  0  0  0  0  0  0  0  0
  -27.8310  -19.3530   18.9470 H   0  0  0  0  0  0  0  0  0  0  0  0
  -24.4560  -15.3130   20.8570 C   0  0  0  0  0  0  0  0  0  0  0  0
  -23.6870  -14.2660   21.2880 C   0  0  0  0  0  0  0  0  0  0  0  0
  -24.4400  -13.0840   21.0130 C   0  0  0  0  0  0  0  0  0  0  0  0
  -25.6270  -14.7500   20.3690 N   0  0  0  0  0  0  0  0  0  0  0  0
  -25.6300  -13.4000   20.5140 N   0  0  0  0  0  0  0  0  0  0  0  0
  -24.0760  -11.6670   21.1430 C   0  0  0  0  0  0  0  0  0  0  0  0
  -24.3870  -10.9270   22.3050 C   0  0  0  0  0  3  0  0  0  0  0  0
  -24.0120   -9.5720   22.4110 C   0  0  0  0  0  3  0  0  0  0  0  0
  -23.3150   -8.9430   21.3530 C   0  0  0  0  0  0  0  0  0  0  0  0
  -23.0270   -9.6770   20.1880 C   0  0  0  0  0  3  0  0  0  0  0  0
  -23.4060  -11.0260   20.0820 C   0  0  0  0  0  3  0  0  0  0  0  0
  -22.9310   -7.6230   21.3570 O   0  0  0  0  0  0  0  0  0  0  0  0
  -22.2220   -7.0840   22.4000 C   0  0  0  0  0  0  0  0  0  0  0  0
  -20.9260   -7.5350   22.7320 C   0  0  0  0  0  3  0  0  0  0  0  0
  -20.2070   -6.9050   23.7670 C   0  0  0  0  0  3  0  0  0  0  0  0
  -20.7750   -5.8210   24.4620 C   0  0  0  0  0  0  0  0  0  0  0  0
  -22.0640   -5.3680   24.1290 C   0  0  0  0  0  3  0  0  0  0  0  0
  -22.7840   -5.9960   23.0990 C   0  0  0  0  0  0  0  0  0  0  0  0
  -24.0170   -5.5430   22.7670 F   0  0  0  0  0  0  0  0  0  0  0  0
  -20.0800   -5.2110   25.4510 F   0  0  0  0  0  0  0  0  0  0  0  0
  -22.2900  -14.3510   21.8280 C   0  0  0  0  0  0  0  0  0  0  0  0
  -21.9350  -13.4650   22.7530 N   0  0  0  0  0  0  0  0  0  0  0  0
  -21.5170  -15.2370   21.4690 O   0  0  0  0  0  0  0  0  0  0  0  0
  -22.5760  -12.7510   23.0690 H   0  0  0  0  0  0  0  0  0  0  0  0
  -21.0090  -13.5050   23.1510 H   0  0  0  0  0  0  0  0  0  0  0  0
  -24.2450  -16.6850   20.8160 N   0  0  0  0  0  0  0  0  0  0  0  0
  -23.3650  -17.1070   21.0890 H   0  0  0  0  0  0  0  0  0  0  0  0
  -24.8920  -17.3470   20.4070 H   0  0  0  0  0  0  0  0  0  0  0  0
  -23.3860  -25.3970   24.8370 O   0  0  0  0  0  0  0  0  0  0  0  0
  -23.6160  -25.9500   25.5740 H   0  0  0  0  0  0  0  0  0  0  0  0
  -28.0070  -24.3340   21.6670 C   0  0  0  0  0  2  0  0  0  0  0  0
  -29.2440  -24.0970   22.5410 C   0  0  0  0  0  2  0  0  0  0  0  0
  -30.4810  -23.7890   21.6860 C   0  0  0  0  0  2  0  0  0  0  0  0
  -31.7110  -24.6310   22.0510 C   0  0  0  0  0  2  0  0  0  0  0  0
  -31.9140  -25.6570   21.0860 O   0  0  0  0  0  0  0  0  0  0  0  0
  -26.6590  -30.1450   22.7640 C   0  0  0  0  0  0  0  0  0  0  0  0
  -30.7870  -26.3250   20.6860 C   0  0  0  0  0  0  0  0  0  0  0  0
  -26.4900  -29.0680   20.5420 C   0  0  0  0  0  3  0  0  0  0  0  0
  -28.5570  -27.7860   19.7770 C   0  0  0  0  0  0  0  0  0  0  0  0
  -28.7660  -29.4410   21.6410 C   0  0  0  0  0  2  0  0  0  0  0  0
  -29.2470  -28.2000   20.9240 C   0  0  0  0  0  0  0  0  0  0  0  0
  -30.3620  -27.4720   21.3830 C   0  0  0  0  0  3  0  0  0  0  0  0
  -30.0900  -25.9140   19.5310 C   0  0  0  0  0  3  0  0  0  0  0  0
  -28.9710  -26.6380   19.0770 C   0  0  0  0  0  3  0  0  0  0  0  0
  -27.3810  -28.6320   19.3460 C   0  0  0  0  0  2  0  0  0  0  0  0
  -27.2920  -29.5540   21.7110 N   0  0  0  0  0  0  0  0  0  0  0  0
  -25.4340  -30.3280   22.7540 O   0  0  0  0  0  0  0  0  0  0  0  0
  -25.5410  -27.9010   20.8960 C   0  0  0  0  0  0  0  0  0  0  0  0
  -24.5450  -27.6540   20.0290 N   0  0  0  0  0  0  0  0  0  0  0  0
  -25.7230  -27.2220   21.9090 O   0  0  0  0  0  0  0  0  0  0  0  0
  -24.4600  -28.2570   19.2230 H   0  0  0  0  0  0  0  0  0  0  0  0
  -21.6180  -26.2300   18.4630 C   0  0  0  0  0  0  0  0  0  0  0  0
  -23.5590  -26.5780   20.1330 C   0  0  0  0  0  3  0  0  0  0  0  0
  -24.1310  -25.2470   19.5970 C   0  0  0  0  0  2  0  0  0  0  0  0
  -23.8030  -25.0000   18.1200 C   0  0  0  0  0  2  0  0  0  0  0  0
  -22.2870  -24.9870   17.9020 C   0  0  0  0  0  2  0  0  0  0  0  0
  -22.2220  -26.9850   19.5020 C   0  0  0  0  0  0  0  0  0  0  0  0
  -21.5760  -28.1510   19.9680 C   0  0  0  0  0  3  0  0  0  0  0  0
  -20.3490  -28.5600   19.4150 C   0  0  0  0  0  3  0  0  0  0  0  0
  -19.7460  -27.8010   18.3980 C   0  0  0  0  0  3  0  0  0  0  0  0
  -20.3780  -26.6370   17.9250 C   0  0  0  0  0  3  0  0  0  0  0  0
  -27.4450  -30.6420   24.0180 C   0  0  0  0  0  3  0  0  0  0  0  0
  -27.0800  -29.8540   25.3360 C   0  0  1  0  0  0  0  0  0  0  0  0
  -25.5610  -29.7650   25.6050 C   0  0  0  0  0  1  0  0  0  0  0  0
  -27.6350  -28.4110   25.2780 C   0  0  0  0  0  1  0  0  0  0  0  0
  -27.7420  -30.5380   26.5550 C   0  0  0  0  0  1  0  0  0  0  0  0
  -27.1690  -32.0750   24.1760 N   0  0  0  0  0  0  0  0  0  0  0  0
  -27.9650  -33.0560   23.7290 C   0  0  0  0  0  0  0  0  0  0  0  0
  -29.0590  -32.8440   23.2000 O   0  0  0  0  0  0  0  0  0  0  0  0
  -26.2650  -32.3230   24.5500 H   0  0  0  0  0  0  0  0  0  0  0  0
  -26.8530  -34.9950   22.5730 C   0  0  0  0  0  1  0  0  0  0  0  0
  -27.4670  -34.5060   23.8960 C   0  0  0  0  0  3  0  0  0  0  0  0
  -28.9740  -35.2110   25.7010 C   0  0  0  0  0  1  0  0  0  0  0  0
  -28.5240  -35.4450   24.3310 N   0  0  0  0  0  0  0  0  0  0  0  0
  -28.2010  -36.4060   24.2630 H   0  0  0  0  0  0  0  0  0  0  0  0
  1  4  2  0
  1  3  1  0
  2  5  2  0
  3  6  2  0
  4  2  1  0
  5  7  1  0
  6  5  1  0
  6 53  1  0
  8  3  1  0
  9  8  2  0
 10  8  1  0
 11 12  1  0
 11 10  1  0
 13 14  1  0
 13 12  1  0
 15 21  1  0
 16 21  1  0
 17 18  1  0
 17 16  1  0
 19 18  1  0
 19 28  1  0
 19 20  1  0
 21 20  1  0
 22 15  2  0
 23 15  1  0
 23 14  1  0
 24 23  1  0
 25 26  2  0
 26 45  1  0
 27 30  1  0
 27 26  1  0
 28 29  1  0
 28 25  1  0
 29 27  2  0
 30 31  1  0
 31 32  2  0
 33 36  1  0
 33 32  1  0
 34 33  2  0
 35 34  1  0
 35 30  2  0
 36 37  1  0
 37 38  2  0
 37 42  1  0
 38 39  1  0
 39 40  2  0
 40 44  1  0
 41 40  1  0
 42 41  2  0
 43 42  1  0
 45 46  1  0
 46 48  1  0
 46 49  1  0
 47 45  2  0
 50 25  1  0
 50 51  1  0
 52 50  1  0
 53 54  1  0
 55  4  1  0
 55 56  1  0
 57 58  1  0
 57 56  1  0
 59 58  1  0
 61 59  1  0
 61 66  1  0
 62 72  1  0
 62 70  1  0
 63 65  1  0
 64 70  1  0
 65 66  2  0
 65 64  1  0
 67 61  2  0
 68 67  1  0
 68 63  2  0
 69 63  1  0
 69 62  1  0
 70 60  1  0
 71 60  2  0
 72 74  2  0
 73 72  1  0
 75 73  1  0
 76 81  1  0
 77 73  1  0
 78 77  1  0
 79 78  1  0
 80 79  1  0
 80 76  1  0
 81 82  2  0
 81 77  1  0
 83 82  1  0
 84 83  2  0
 85 84  1  0
 85 76  2  0
 86 60  1  0
 86 91  1  0
 86 87  1  0
 87 88  1  1
 87 90  1  0
 89 87  1  0
 91 94  1  0
 92 96  1  0
 92 91  1  0
 93 92  2  0
 96 95  1  0
 96 98  1  0
 98 97  1  0
 99 98  1  0
M  ISO  4  15 100  23 100  58 101  59 101
M  END
>  <TORSDO>  (74) 
F 27

>  <SCORE>  (74) 
20.935

>  <name>  (74) 
79

>  <ligand_id>  (74) 
79

>  <original_smiles>  (74) 
[H]Oc1c(C(=O)C([H])([H])C([H])([H])C([H])([H])C([H])([H])C([H])([H])N([H])C(=O)N2C([H])([H])C([H])([H])C([H])([H])C([H])(n3nc(-c4c([H])c([H])c(Oc5c([H])c([H])c(F)c([H])c5F)c([H])c4[H])c(C(=O)N([H])[H])c3N([H])[H])C2([H])[H])c([H])c(C([H])([H])C([H])([H])C([H])([H])C([H])([H])Oc2c([H])c([H])c3c(c2[H])C([H])([H])N(C(=O)C([H])(N([H])C(=O)C([H])(N([H])C([H])([H])[H])C([H])([H])[H])C(C([H])([H])[H])(C([H])([H])[H])C([H])([H])[H])C([H])(C(=O)N([H])C2([H])c4c([H])c([H])c([H])c([H])c4C([H])([H])C([H])([H])C2([H])[H])C3([H])[H])c([H])c1C([H])([H])[H]

>  <smiles>  (74) 
[H]Oc1c(C(=O)C([H])([H])C([H])([H])C([H])([H])C([H])([H])C([H])([H])N([H])C(=O)N2C([H])([H])C([H])([H])C([H])([H])C([H])(n3nc(-c4c([H])c([H])c(Oc5c([H])c([H])c(F)c([H])c5F)c([H])c4[H])c(C(=O)N([H])[H])c3N([H])[H])C2([H])[H])c([H])c(C([H])([H])C([H])([H])C([H])([H])C([H])([H])Oc2c([H])c([H])c3c(c2[H])C([H])([H])N(C(=O)C([H])(N([H])C(=O)C([H])(N([H])C([H])([H])[H])C([H])([H])[H])C(C([H])([H])[H])(C([H])([H])[H])C([H])([H])[H])C([H])(C(=O)N([H])C2([H])c4c([H])c([H])c([H])c([H])c4C([H])([H])C([H])([H])C2([H])[H])C3([H])[H])c([H])c1C([H])([H])[H]

$$$$
80:0:0
     RDKit          3D

 98107  0  0  1  0  0  0  0  0999 V2000
  -22.9220  -25.0230   16.3430 C   0  0  0  0  0  0  0  0  0  0  0  0
  -22.2440  -25.6950   15.5210 O   0  0  0  0  0  0  0  0  0  0  0  0
  -26.5160  -24.1510   15.5350 C   0  0  0  0  0  3  0  0  0  0  0  0
  -25.1370  -24.3310   15.3100 C   0  0  0  0  0  3  0  0  0  0  0  0
  -27.2010  -24.7120   16.6260 C   0  0  0  0  0  3  0  0  0  0  0  0
  -25.1120  -25.6430   17.3820 C   0  0  0  0  0  3  0  0  0  0  0  0
  -24.4340  -25.0520   16.2840 C   0  0  0  0  0  0  0  0  0  0  0  0
  -26.5310  -25.5200   17.6100 C   0  0  0  0  0  0  0  0  0  0  0  0
  -27.2880  -25.9120   18.9740 C   0  0  0  0  0  2  0  0  0  0  0  0
  -27.9100  -27.2210   19.3750 O   0  0  0  0  0  0  0  0  0  0  0  0
  -25.1490  -31.9470   24.2840 C   0  0  0  0  0  0  0  0  0  0  0  0
  -27.0290  -28.1950   19.8440 C   0  0  0  0  0  0  0  0  0  0  0  0
  -23.7080  -31.0710   22.4900 C   0  0  0  0  0  3  0  0  0  0  0  0
  -24.9440  -29.9610   20.5620 C   0  0  0  0  0  0  0  0  0  0  0  0
  -26.2940  -31.2270   22.1850 C   0  0  0  0  0  2  0  0  0  0  0  0
  -26.1980  -30.1050   21.1710 C   0  0  0  0  0  0  0  0  0  0  0  0
  -27.2610  -29.2170   20.8160 C   0  0  0  0  0  3  0  0  0  0  0  0
  -25.7750  -28.2040   19.2340 C   0  0  0  0  0  3  0  0  0  0  0  0
  -24.7090  -28.9840   19.6180 C   0  0  0  0  0  3  0  0  0  0  0  0
  -23.8470  -30.9270   20.9610 C   0  0  0  0  0  2  0  0  0  0  0  0
  -25.0610  -31.3680   23.0550 N   0  0  0  0  0  0  0  0  0  0  0  0
  -24.1290  -32.1280   24.9650 O   0  0  0  0  0  0  0  0  0  0  0  0
  -23.0180  -29.8450   23.1170 C   0  0  0  0  0  0  0  0  0  0  0  0
  -21.7050  -29.6330   22.8250 N   0  0  0  0  0  0  0  0  0  0  0  0
  -23.6530  -29.1070   23.8940 O   0  0  0  0  0  0  0  0  0  0  0  0
  -21.2550  -30.2300   22.1460 H   0  0  0  0  0  0  0  0  0  0  0  0
  -18.3100  -28.1290   22.7600 C   0  0  0  0  0  0  0  0  0  0  0  0
  -20.8240  -28.5520   23.3260 C   0  0  0  0  0  3  0  0  0  0  0  0
  -21.0630  -27.2100   22.6050 C   0  0  0  0  0  3  0  0  0  0  0  0
  -19.9690  -26.5110   21.8320 C   0  0  0  0  0  3  0  0  0  0  0  0
  -18.5800  -27.0970   21.6920 C   0  0  0  0  0  2  0  0  0  0  0  0
  -19.3450  -28.9320   23.3680 C   0  0  0  0  0  0  0  0  0  0  0  0
  -18.9500  -30.1440   23.9660 C   0  0  0  0  0  3  0  0  0  0  0  0
  -17.6110  -30.5080   24.1300 C   0  0  0  0  0  3  0  0  0  0  0  0
  -16.6590  -29.6310   23.6470 C   0  0  0  0  0  3  0  0  0  0  0  0
  -16.9630  -28.4560   22.9380 C   0  0  0  0  0  3  0  0  0  0  0  0
  -26.5120  -32.3660   24.8980 C   0  0  0  0  0  3  0  0  0  0  0  0
  -26.4020  -33.7940   25.2330 N   0  0  0  0  0  0  0  0  0  0  0  0
  -26.8850  -34.7910   24.4810 C   0  0  0  0  0  0  0  0  0  0  0  0
  -27.5050  -34.6070   23.4310 O   0  0  0  0  0  0  0  0  0  0  0  0
  -25.8600  -34.0250   26.0530 H   0  0  0  0  0  0  0  0  0  0  0  0
  -25.3880  -36.8110   24.1550 C   0  0  0  0  0  1  0  0  0  0  0  0
  -26.5780  -36.2360   24.9480 C   0  0  0  0  0  3  0  0  0  0  0  0
  -28.8210  -36.8170   25.7650 C   0  0  0  0  0  1  0  0  0  0  0  0
  -27.7380  -37.1470   24.8430 N   0  0  0  0  0  0  0  0  0  0  0  0
  -27.4680  -38.1140   25.0060 H   0  0  0  0  0  0  0  0  0  0  0  0
  -26.8990  -31.5180   26.1710 C   0  0  1  0  0  0  0  0  0  0  0  0
  -25.7440  -31.4310   27.1940 C   0  0  0  0  0  1  0  0  0  0  0  0
  -27.2930  -30.0750   25.7660 C   0  0  0  0  0  1  0  0  0  0  0  0
  -28.1370  -32.1360   26.8540 C   0  0  0  0  0  1  0  0  0  0  0  0
  -20.5530  -23.3850   18.9200 C   0  0  0  0  0  3  0  0  0  0  0  0
  -20.9940  -24.3160   17.9320 C   0  0  0  0  0  3  0  0  0  0  0  0
  -21.4320  -22.3060   19.3470 C   0  0  0  0  0  3  0  0  0  0  0  0
  -23.2430  -23.4730   18.3110 C   0  0  0  0  0  3  0  0  0  0  0  0
  -22.3470  -24.1940   17.4930 C   0  0  0  0  0  0  0  0  0  0  0  0
  -22.8100  -22.3290   19.0150 C   0  0  0  0  0  0  0  0  0  0  0  0
  -23.9750  -21.3400   19.5590 C   0  0  0  0  0  3  0  0  0  0  0  0
  -24.7450  -20.1020   18.6840 C   0  0  0  0  0  3  0  0  0  0  0  0
  -25.7000  -18.7300   18.9950 C   0  0  0  0  0  2  0  0  0  0  0  0
  -27.2270  -18.2200   18.4150 C   0  0  0  0  0  2  0  0  0  0  0  0
  -29.6740  -16.7060   19.1310 C   0  0  0  0  0  0  0  0  0  0  0  0
  -30.7290  -14.4040   19.0460 C   0  0  0  0  0  2  0  0  0  0  0  0
  -29.9340  -13.5570   18.0060 C   0  0  0  0  0  2  0  0  0  0  0  0
  -28.6130  -13.0360   18.6070 C   0  0  0  0  0  2  0  0  0  0  0  0
  -27.8290  -14.1470   19.3510 C   0  0  0  0  0  3  0  0  0  0  0  0
  -28.7460  -14.8200   20.3770 C   0  0  0  0  0  2  0  0  0  0  0  0
  -29.8020  -15.4210   19.6070 N   0  0  0  0  0  0  0  0  0  0  0  0
  -30.7530  -17.1560   18.6620 O   0  0  0  0  0  0  0  0  0  0  0  0
  -28.3870  -17.3840   19.1580 N   0  0  0  0  0  0  0  0  0  0  0  0
  -28.9290  -18.2280   19.2140 H   0  0  0  0  0  0  0  0  0  0  0  0
  -25.5490  -14.4640   20.4730 C   0  0  0  0  0  0  0  0  0  0  0  0
  -24.6210  -13.6220   20.9330 C   0  0  0  0  0  0  0  0  0  0  0  0
  -25.1470  -12.3060   20.6820 C   0  0  0  0  0  0  0  0  0  0  0  0
  -26.6040  -13.7110   19.9920 N   0  0  0  0  0  0  0  0  0  0  0  0
  -26.3690  -12.3920   20.1600 N   0  0  0  0  0  0  0  0  0  0  0  0
  -24.5320  -11.0090   20.8300 C   0  0  0  0  0  0  0  0  0  0  0  0
  -24.8590  -10.1730   21.9150 C   0  0  0  0  0  3  0  0  0  0  0  0
  -24.2430   -8.9150   22.0460 C   0  0  0  0  0  3  0  0  0  0  0  0
  -23.2870   -8.4880   21.0930 C   0  0  0  0  0  0  0  0  0  0  0  0
  -22.9820   -9.3240   20.0050 C   0  0  0  0  0  3  0  0  0  0  0  0
  -23.5990  -10.5740   19.8700 C   0  0  0  0  0  3  0  0  0  0  0  0
  -22.6590   -7.2700   21.1290 O   0  0  0  0  0  0  0  0  0  0  0  0
  -22.1320   -6.7670   22.2900 C   0  0  0  0  0  0  0  0  0  0  0  0
  -21.0530   -7.3940   22.9520 C   0  0  0  0  0  3  0  0  0  0  0  0
  -20.5000   -6.8060   24.1060 C   0  0  0  0  0  3  0  0  0  0  0  0
  -21.0120   -5.5880   24.5920 C   0  0  0  0  0  0  0  0  0  0  0  0
  -22.0840   -4.9610   23.9330 C   0  0  0  0  0  3  0  0  0  0  0  0
  -22.6390   -5.5470   22.7810 C   0  0  0  0  0  0  0  0  0  0  0  0
  -23.6570   -4.9290   22.1350 F   0  0  0  0  0  0  0  0  0  0  0  0
  -20.4750   -5.0180   25.6960 F   0  0  0  0  0  0  0  0  0  0  0  0
  -23.2610  -13.9760   21.4700 C   0  0  0  0  0  0  0  0  0  0  0  0
  -22.7050  -13.1750   22.3510 N   0  0  0  0  0  0  0  0  0  0  0  0
  -22.7040  -15.0310   21.1290 O   0  0  0  0  0  0  0  0  0  0  0  0
  -23.1690  -12.3250   22.6600 H   0  0  0  0  0  0  0  0  0  0  0  0
  -21.7940  -13.3970   22.7440 H   0  0  0  0  0  0  0  0  0  0  0  0
  -25.6020  -15.8450   20.4100 N   0  0  0  0  0  0  0  0  0  0  0  0
  -24.8770  -16.3900   20.8400 H   0  0  0  0  0  0  0  0  0  0  0  0
  -26.4360  -16.3620   20.2050 H   0  0  0  0  0  0  0  0  0  0  0  0
  1 55  1  0
  2  1  2  0
  3  5  1  0
  4  3  2  0
  4  7  1  0
  5  8  2  0
  6  8  1  0
  7  1  1  0
  7  6  2  0
  8  9  1  0
  9 10  1  0
 10 12  1  0
 11 22  2  0
 12 17  1  0
 13 21  1  0
 13 23  1  0
 14 20  1  0
 14 16  1  0
 15 21  1  0
 16 15  1  0
 17 16  2  0
 18 19  1  0
 18 12  2  0
 19 14  2  0
 20 13  1  0
 21 11  1  0
 23 25  2  0
 24 23  1  0
 26 24  1  0
 27 36  2  0
 27 32  1  0
 28 24  1  0
 28 32  1  0
 29 28  1  0
 30 29  2  0
 31 30  1  0
 31 27  1  0
 32 33  2  0
 33 34  1  0
 35 34  2  0
 36 35  1  0
 37 11  1  0
 37 38  1  0
 37 47  1  0
 38 41  1  0
 39 43  1  0
 39 38  1  0
 40 39  2  0
 43 42  1  0
 45 43  1  0
 45 46  1  0
 45 44  1  0
 47 50  1  1
 47 48  1  0
 49 47  1  0
 51 53  1  0
 52 51  2  0
 54 56  1  0
 55 52  1  0
 55 54  2  0
 56 53  2  0
 56 57  1  0
 58 59  1  0
 58 57  2  0
 60 59  1  0
 60 69  1  0
 61 69  1  0
 61 67  1  0
 62 67  1  0
 63 64  1  0
 63 62  1  0
 65 64  1  0
 65 74  1  0
 65 66  1  0
 67 66  1  0
 68 61  2  0
 69 70  1  0
 71 72  2  0
 72 91  1  0
 73 76  1  0
 73 72  1  0
 74 75  1  0
 74 71  1  0
 75 73  2  0
 76 77  1  0
 77 78  2  0
 79 82  1  0
 79 78  1  0
 80 79  2  0
 81 80  1  0
 81 76  2  0
 82 83  1  0
 83 88  2  0
 83 84  1  0
 84 85  2  0
 85 86  1  0
 86 90  1  0
 87 86  2  0
 88 87  1  0
 89 88  1  0
 91 92  1  0
 92 94  1  0
 92 95  1  0
 93 91  2  0
 96 71  1  0
 96 97  1  0
 98 96  1  0
M  ISO  4   9 101  10 101  61 100  69 100
M  END
>  <TORSDO>  (75) 
F 23

>  <SCORE>  (75) 
-4.175

>  <name>  (75) 
80

>  <ligand_id>  (75) 
80

>  <original_smiles>  (75) 
[H]c1c([H])c(C(=O)c2c([H])c([H])c([H])c(C([H])([H])C([H])([H])C([H])([H])C([H])([H])N([H])C(=O)N3C([H])([H])C([H])([H])C([H])([H])C([H])(n4nc(-c5c([H])c([H])c(Oc6c([H])c([H])c(F)c([H])c6F)c([H])c5[H])c(C(=O)N([H])[H])c4N([H])[H])C3([H])[H])c2[H])c([H])c(C([H])([H])Oc2c([H])c([H])c3c(c2[H])C([H])([H])N(C(=O)C([H])(N([H])C(=O)C([H])(N([H])C([H])([H])[H])C([H])([H])[H])C(C([H])([H])[H])(C([H])([H])[H])C([H])([H])[H])C([H])(C(=O)N([H])C2([H])c4c([H])c([H])c([H])c([H])c4C([H])([H])C([H])([H])C2([H])[H])C3([H])[H])c1[H]

>  <smiles>  (75) 
[H]c1c([H])c(C(=O)c2c([H])c([H])c([H])c(C([H])([H])C([H])([H])C([H])([H])C([H])([H])N([H])C(=O)N3C([H])([H])C([H])([H])C([H])([H])C([H])(n4nc(-c5c([H])c([H])c(Oc6c([H])c([H])c(F)c([H])c6F)c([H])c5[H])c(C(=O)N([H])[H])c4N([H])[H])C3([H])[H])c2[H])c([H])c(C([H])([H])Oc2c([H])c([H])c3c(c2[H])C([H])([H])N(C(=O)C([H])(N([H])C(=O)C([H])(N([H])C([H])([H])[H])C([H])([H])[H])C(C([H])([H])[H])(C([H])([H])[H])C([H])([H])[H])C([H])(C(=O)N([H])C2([H])c4c([H])c([H])c([H])c([H])c4C([H])([H])C([H])([H])C2([H])[H])C3([H])[H])c1[H]

$$$$
81:0:0
     RDKit          3D

 97105  0  0  1  0  0  0  0  0999 V2000
  -25.7090  -19.9620   23.4490 C   0  0  0  0  0  2  0  0  0  0  0  0
  -25.5720  -19.0580   22.3550 C   0  0  0  0  0  2  0  0  0  0  0  0
  -24.9320  -21.7500   22.0520 C   0  0  0  0  0  2  0  0  0  0  0  0
  -25.5310  -21.3550   23.2490 C   0  0  0  0  0  3  0  0  0  0  0  0
  -25.6430  -19.6650   21.0730 C   0  0  0  0  0  3  0  0  0  0  0  0
  -25.1250  -20.9820   20.8860 C   0  0  0  0  0  3  0  0  0  0  0  0
  -24.8570  -21.6230   19.5160 C   0  0  0  0  0  1  0  0  0  0  0  0
  -26.3870  -22.4160   23.8720 C   0  0  0  0  0  0  0  0  0  0  0  0
  -27.3770  -22.7380   23.0130 N   0  0  0  0  0  0  0  0  0  0  0  0
  -26.0890  -22.9380   24.9550 O   0  0  0  0  0  0  0  0  0  0  0  0
  -27.4130  -22.1800   22.1730 H   0  0  0  0  0  0  0  0  0  0  0  0
  -28.1990  -23.9190   22.9420 C   0  0  0  0  0  2  0  0  0  0  0  0
  -28.2740  -24.5270   21.5040 C   0  0  0  0  0  2  0  0  0  0  0  0
  -28.2150  -26.0510   21.5600 C   0  0  0  0  0  2  0  0  0  0  0  0
  -28.3050  -26.6620   20.2630 O   0  0  0  0  0  0  0  0  0  0  0  0
  -24.6070  -31.8780   23.2230 C   0  0  0  0  0  0  0  0  0  0  0  0
  -27.2280  -27.4950   20.0890 C   0  0  0  0  0  0  0  0  0  0  0  0
  -23.4080  -30.4900   21.5750 C   0  0  0  0  0  3  0  0  0  0  0  0
  -24.8350  -28.9690   20.1190 C   0  0  0  0  0  0  0  0  0  0  0  0
  -25.9200  -30.8500   21.3770 C   0  0  0  0  0  2  0  0  0  0  0  0
  -25.9920  -29.4960   20.7140 C   0  0  0  0  0  0  0  0  0  0  0  0
  -27.1990  -28.7710   20.6890 C   0  0  0  0  0  3  0  0  0  0  0  0
  -26.0720  -26.9970   19.4620 C   0  0  0  0  0  3  0  0  0  0  0  0
  -24.8680  -27.7160   19.4860 C   0  0  0  0  0  3  0  0  0  0  0  0
  -23.5960  -29.8310   20.1780 C   0  0  0  0  0  2  0  0  0  0  0  0
  -24.6690  -31.0940   22.1160 N   0  0  0  0  0  0  0  0  0  0  0  0
  -23.5330  -32.1540   23.7760 O   0  0  0  0  0  0  0  0  0  0  0  0
  -22.7480  -29.4730   22.5170 C   0  0  0  0  0  0  0  0  0  0  0  0
  -21.4190  -29.3620   22.4120 N   0  0  0  0  0  0  0  0  0  0  0  0
  -23.4270  -28.8030   23.2980 O   0  0  0  0  0  0  0  0  0  0  0  0
  -20.9360  -29.9760   21.7700 H   0  0  0  0  0  0  0  0  0  0  0  0
  -18.0240  -28.1330   22.8630 C   0  0  0  0  0  0  0  0  0  0  0  0
  -20.5820  -28.3560   23.0570 C   0  0  0  0  0  0  0  0  0  0  0  0
  -20.7500  -27.0330   22.3000 C   0  0  0  0  0  3  0  0  0  0  0  0
  -19.5160  -26.2800   21.8330 C   0  0  0  0  0  3  0  0  0  0  0  0
  -18.1220  -26.8460   22.0730 C   0  0  0  0  0  3  0  0  0  0  0  0
  -19.1650  -28.8760   23.2660 C   0  0  0  0  0  0  0  0  0  0  0  0
  -18.9780  -30.1300   23.8710 C   0  0  0  0  0  3  0  0  0  0  0  0
  -17.6780  -30.6600   24.0260 C   0  0  0  0  0  3  0  0  0  0  0  0
  -16.5450  -29.9220   23.6480 C   0  0  0  0  0  3  0  0  0  0  0  0
  -16.7150  -28.6420   23.0950 C   0  0  0  0  0  3  0  0  0  0  0  0
  -25.9040  -32.4830   23.8440 C   0  0  0  0  0  3  0  0  0  0  0  0
  -25.6090  -33.8600   24.2450 N   0  0  0  0  0  0  0  0  0  0  0  0
  -25.9070  -34.9460   23.5170 C   0  0  0  0  0  0  0  0  0  0  0  0
  -26.5490  -34.8920   22.4660 O   0  0  0  0  0  0  0  0  0  0  0  0
  -25.0430  -33.9860   25.0700 H   0  0  0  0  0  0  0  0  0  0  0  0
  -24.1530  -36.7260   23.2630 C   0  0  0  0  0  1  0  0  0  0  0  0
  -25.4150  -36.3080   24.0330 C   0  0  0  0  0  3  0  0  0  0  0  0
  -27.5590  -37.1800   24.8470 C   0  0  0  0  0  1  0  0  0  0  0  0
  -26.4310  -37.3770   23.9410 N   0  0  0  0  0  0  0  0  0  0  0  0
  -26.0180  -38.2820   24.1460 H   0  0  0  0  0  0  0  0  0  0  0  0
  -26.4530  -31.6550   25.0720 C   0  0  1  0  0  0  0  0  0  0  0  0
  -25.3780  -31.3690   26.1450 C   0  0  0  0  0  1  0  0  0  0  0  0
  -27.0410  -30.2970   24.6190 C   0  0  0  0  0  1  0  0  0  0  0  0
  -27.6140  -32.4290   25.7580 C   0  0  0  0  0  1  0  0  0  0  0  0
  -26.4100  -18.9410   19.9330 C   0  0  0  0  0  2  0  0  0  0  0  0
  -27.8330  -18.6450   20.3980 C   0  0  0  0  0  2  0  0  0  0  0  0
  -28.2700  -17.1620   20.6390 C   0  0  0  0  0  2  0  0  0  0  0  0
  -29.7630  -16.7540   20.6320 C   0  0  0  0  0  2  0  0  0  0  0  0
  -30.6500  -14.3800   20.5350 C   0  0  0  0  0  0  0  0  0  0  0  0
  -30.4410  -12.2250   19.3800 C   0  0  0  0  0  2  0  0  0  0  0  0
  -29.5050  -12.5130   18.1920 C   0  0  0  0  0  2  0  0  0  0  0  0
  -28.0150  -12.3850   18.5990 C   0  0  0  0  0  2  0  0  0  0  0  0
  -27.6600  -13.1710   19.8920 C   0  0  0  0  0  3  0  0  0  0  0  0
  -28.7080  -12.8400   20.9840 C   0  0  0  0  0  2  0  0  0  0  0  0
  -30.0600  -13.1600   20.4460 N   0  0  0  0  0  0  0  0  0  0  0  0
  -31.7860  -14.6560   20.1130 O   0  0  0  0  0  0  0  0  0  0  0  0
  -29.7700  -15.3120   20.9150 N   0  0  0  0  0  0  0  0  0  0  0  0
  -28.8810  -14.9270   21.2100 H   0  0  0  0  0  0  0  0  0  0  0  0
  -25.2590  -13.8020   20.5570 C   0  0  0  0  0  0  0  0  0  0  0  0
  -24.1800  -13.0320   20.8910 C   0  0  0  0  0  0  0  0  0  0  0  0
  -24.6420  -11.6790   20.8890 C   0  0  0  0  0  0  0  0  0  0  0  0
  -26.3000  -12.9160   20.3450 N   0  0  0  0  0  0  0  0  0  0  0  0
  -25.9260  -11.6360   20.5670 N   0  0  0  0  0  0  0  0  0  0  0  0
  -23.9060  -10.4150   21.0360 C   0  0  0  0  0  0  0  0  0  0  0  0
  -24.3550   -9.4150   21.9200 C   0  0  0  0  0  3  0  0  0  0  0  0
  -23.6250   -8.2240   22.0750 C   0  0  0  0  0  3  0  0  0  0  0  0
  -22.4310   -8.0260   21.3510 C   0  0  0  0  0  0  0  0  0  0  0  0
  -21.9860   -9.0240   20.4670 C   0  0  0  0  0  3  0  0  0  0  0  0
  -22.7160  -10.2110   20.3060 C   0  0  0  0  0  3  0  0  0  0  0  0
  -21.6670   -6.8880   21.4260 O   0  0  0  0  0  0  0  0  0  0  0  0
  -21.6850   -6.0720   22.5270 C   0  0  0  0  0  0  0  0  0  0  0  0
  -21.4010   -6.5630   23.8200 C   0  0  0  0  0  3  0  0  0  0  0  0
  -21.3660   -5.6780   24.9170 C   0  0  0  0  0  3  0  0  0  0  0  0
  -21.6040   -4.3050   24.7220 C   0  0  0  0  0  0  0  0  0  0  0  0
  -21.8840   -3.8130   23.4360 C   0  0  0  0  0  3  0  0  0  0  0  0
  -21.9200   -4.6940   22.3400 C   0  0  0  0  0  0  0  0  0  0  0  0
  -22.1680   -4.2150   21.0970 F   0  0  0  0  0  0  0  0  0  0  0  0
  -21.5630   -3.4550   25.7720 F   0  0  0  0  0  0  0  0  0  0  0  0
  -22.7940  -13.5260   21.2000 C   0  0  0  0  0  0  0  0  0  0  0  0
  -22.0480  -12.8130   22.0400 N   0  0  0  0  0  0  0  0  0  0  0  0
  -22.3520  -14.5450   20.6740 O   0  0  0  0  0  0  0  0  0  0  0  0
  -22.4100  -11.9810   22.4770 H   0  0  0  0  0  0  0  0  0  0  0  0
  -21.1140  -13.1200   22.2710 H   0  0  0  0  0  0  0  0  0  0  0  0
  -25.4200  -15.1690   20.4010 N   0  0  0  0  0  0  0  0  0  0  0  0
  -24.6270  -15.7920   20.5110 H   0  0  0  0  0  0  0  0  0  0  0  0
  -26.2420  -15.6300   20.0410 H   0  0  0  0  0  0  0  0  0  0  0  0
  2  1  1  0
  3  4  1  0
  4  1  1  0
  4  8  1  0
  5 56  1  0
  5  2  1  0
  6  7  1  0
  6  5  1  0
  6  3  1  0
  8 10  2  0
  9  8  1  0
 11  9  1  0
 12  9  1  0
 13 14  1  0
 13 12  1  0
 15 14  1  0
 16 27  2  0
 17 15  1  0
 17 22  1  0
 18 26  1  0
 18 28  1  0
 19 25  1  0
 19 21  1  0
 20 26  1  0
 21 20  1  0
 22 21  2  0
 23 24  1  0
 23 17  2  0
 24 19  2  0
 25 18  1  0
 26 16  1  0
 28 30  2  0
 29 28  1  0
 29 33  1  0
 31 29  1  0
 32 41  2  0
 32 37  1  0
 33 37  1  0
 34 33  2  0
 35 36  2  0
 35 34  1  0
 36 32  1  0
 37 38  2  0
 38 39  1  0
 40 39  2  0
 41 40  1  0
 42 16  1  0
 42 43  1  0
 42 52  1  0
 43 46  1  0
 44 48  1  0
 44 43  1  0
 45 44  2  0
 48 47  1  0
 50 48  1  0
 50 51  1  0
 50 49  1  0
 52 55  1  1
 52 53  1  0
 54 52  1  0
 56 57  1  0
 57 58  1  0
 59 58  1  0
 59 68  1  0
 60 68  1  0
 61 66  1  0
 62 63  1  0
 62 61  1  0
 64 63  1  0
 64 73  1  0
 64 65  1  0
 66 60  1  0
 66 65  1  0
 67 60  2  0
 68 69  1  0
 70 71  2  0
 71 90  1  0
 72 71  1  0
 72 75  1  0
 73 70  1  0
 73 74  1  0
 74 72  2  0
 75 76  1  0
 76 77  2  0
 78 81  1  0
 78 77  1  0
 79 78  2  0
 80 79  1  0
 80 75  2  0
 81 82  1  0
 82 83  1  0
 83 84  2  0
 85 84  1  0
 85 89  1  0
 86 85  2  0
 87 82  2  0
 87 86  1  0
 88 87  1  0
 90 91  1  0
 91 94  1  0
 91 93  1  0
 92 90  2  0
 95 96  1  0
 95 70  1  0
 97 95  1  0
M  ISO  4  14 101  15 101  60 100  68 100
M  END
>  <TORSDO>  (76) 
F 24

>  <SCORE>  (76) 
44.351

>  <name>  (76) 
81

>  <ligand_id>  (76) 
81

>  <original_smiles>  (76) 
[H]c1c([H])c([H])c2c(c1[H])C([H])([H])C([H])([H])C([H])([H])C2([H])N([H])C(=O)C1([H])N(C(=O)C([H])(N([H])C(=O)C([H])(N([H])C([H])([H])[H])C([H])([H])[H])C(C([H])([H])[H])(C([H])([H])[H])C([H])([H])[H])C([H])([H])c2c([H])c(OC([H])([H])C([H])([H])C([H])([H])N([H])C(=O)c3c([H])c([H])c(C([H])([H])C([H])([H])C([H])([H])C([H])([H])N([H])C(=O)N4C([H])([H])C([H])([H])C([H])([H])C([H])(n5nc(-c6c([H])c([H])c(Oc7c([H])c([H])c(F)c([H])c7F)c([H])c6[H])c(C(=O)N([H])[H])c5N([H])[H])C4([H])[H])c(C([H])([H])[H])c3[H])c([H])c([H])c2C1([H])[H]

>  <smiles>  (76) 
[H]c1c([H])c([H])c2c(c1[H])C([H])([H])C([H])([H])C([H])([H])C2([H])N([H])C(=O)C1([H])N(C(=O)C([H])(N([H])C(=O)C([H])(N([H])C([H])([H])[H])C([H])([H])[H])C(C([H])([H])[H])(C([H])([H])[H])C([H])([H])[H])C([H])([H])c2c([H])c(OC([H])([H])C([H])([H])C([H])([H])N([H])C(=O)c3c([H])c([H])c(C([H])([H])C([H])([H])C([H])([H])C([H])([H])N([H])C(=O)N4C([H])([H])C([H])([H])C([H])([H])C([H])(n5nc(-c6c([H])c([H])c(Oc7c([H])c([H])c(F)c([H])c7F)c([H])c6[H])c(C(=O)N([H])[H])c5N([H])[H])C4([H])[H])c(C([H])([H])[H])c3[H])c([H])c([H])c2C1([H])[H]

$$$$
82:0:0
     RDKit          3D

 96104  0  0  1  0  0  0  0  0999 V2000
  -30.0150  -24.1980   16.7840 C   0  0  0  0  0  3  0  0  0  0  0  0
  -30.0890  -22.8160   17.0200 C   0  0  0  0  0  3  0  0  0  0  0  0
  -30.3990  -25.0940   17.7900 C   0  0  0  0  0  3  0  0  0  0  0  0
  -30.5260  -22.3090   18.2640 C   0  0  0  0  0  0  0  0  0  0  0  0
  -30.8690  -24.6230   19.0340 C   0  0  0  0  0  0  0  0  0  0  0  0
  -30.9320  -23.2190   19.2880 C   0  0  0  0  0  0  0  0  0  0  0  0
  -31.4470  -22.6940   20.6300 C   0  0  0  0  0  1  0  0  0  0  0  0
  -30.5450  -20.8080   18.4170 C   0  0  0  0  0  0  0  0  0  0  0  0
  -29.8360  -20.3070   19.4370 N   0  0  0  0  0  0  0  0  0  0  0  0
  -31.0740  -20.0990   17.5570 O   0  0  0  0  0  0  0  0  0  0  0  0
  -29.4330  -20.9840   20.0700 H   0  0  0  0  0  0  0  0  0  0  0  0
  -29.2680  -18.9600   19.4560 C   0  0  0  0  0  2  0  0  0  0  0  0
  -30.0450  -17.9150   20.2860 C   0  0  0  0  0  2  0  0  0  0  0  0
  -29.3690  -16.5440   20.0960 C   0  0  0  0  0  2  0  0  0  0  0  0
  -30.6140  -14.4740   20.5030 C   0  0  0  0  0  0  0  0  0  0  0  0
  -30.3560  -12.3310   19.3390 C   0  0  0  0  0  2  0  0  0  0  0  0
  -29.4100  -12.5930   18.1470 C   0  0  0  0  0  2  0  0  0  0  0  0
  -27.9360  -12.4370   18.5720 C   0  0  0  0  0  2  0  0  0  0  0  0
  -27.6020  -13.2270   19.8640 C   0  0  0  0  0  3  0  0  0  0  0  0
  -28.6600  -12.9550   20.9620 C   0  0  0  0  0  2  0  0  0  0  0  0
  -29.9920  -13.2700   20.4100 N   0  0  0  0  0  0  0  0  0  0  0  0
  -31.7110  -14.7250   19.9960 O   0  0  0  0  0  0  0  0  0  0  0  0
  -29.8190  -15.4500   20.9620 N   0  0  0  0  0  0  0  0  0  0  0  0
  -29.0810  -15.0900   21.5510 H   0  0  0  0  0  0  0  0  0  0  0  0
  -25.1930  -13.8170   20.5570 C   0  0  0  0  0  0  0  0  0  0  0  0
  -24.1300  -13.0350   20.9230 C   0  0  0  0  0  0  0  0  0  0  0  0
  -24.6030  -11.6870   20.8890 C   0  0  0  0  0  0  0  0  0  0  0  0
  -26.2470  -12.9440   20.3310 N   0  0  0  0  0  0  0  0  0  0  0  0
  -25.8930  -11.6580   20.5830 N   0  0  0  0  0  0  0  0  0  0  0  0
  -23.8870  -10.4180   21.0730 C   0  0  0  0  0  0  0  0  0  0  0  0
  -24.3300   -9.4520   22.0030 C   0  0  0  0  0  3  0  0  0  0  0  0
  -23.6180   -8.2470   22.1770 C   0  0  0  0  0  3  0  0  0  0  0  0
  -22.4480   -8.0000   21.4200 C   0  0  0  0  0  0  0  0  0  0  0  0
  -22.0240   -8.9550   20.4790 C   0  0  0  0  0  3  0  0  0  0  0  0
  -22.7380  -10.1520   20.3040 C   0  0  0  0  0  3  0  0  0  0  0  0
  -21.7070   -6.8460   21.5030 O   0  0  0  0  0  0  0  0  0  0  0  0
  -21.6690   -6.0950   22.6500 C   0  0  0  0  0  0  0  0  0  0  0  0
  -21.2330   -6.6350   23.8800 C   0  0  0  0  0  3  0  0  0  0  0  0
  -21.1440   -5.8100   25.0190 C   0  0  0  0  0  3  0  0  0  0  0  0
  -21.4810   -4.4460   24.9300 C   0  0  0  0  0  0  0  0  0  0  0  0
  -21.9100   -3.9060   23.7040 C   0  0  0  0  0  3  0  0  0  0  0  0
  -22.0020   -4.7290   22.5670 C   0  0  0  0  0  0  0  0  0  0  0  0
  -22.3960   -4.1990   21.3840 F   0  0  0  0  0  0  0  0  0  0  0  0
  -21.3880   -3.6500   26.0200 F   0  0  0  0  0  0  0  0  0  0  0  0
  -22.7280  -13.4980   21.1950 C   0  0  0  0  0  0  0  0  0  0  0  0
  -22.0060  -12.7890   22.0570 N   0  0  0  0  0  0  0  0  0  0  0  0
  -22.2810  -14.5230   20.6810 O   0  0  0  0  0  0  0  0  0  0  0  0
  -22.3780  -11.9570   22.4910 H   0  0  0  0  0  0  0  0  0  0  0  0
  -21.0680  -13.0830   22.2850 H   0  0  0  0  0  0  0  0  0  0  0  0
  -25.3460  -15.1890   20.3820 N   0  0  0  0  0  0  0  0  0  0  0  0
  -24.5710  -15.8360   20.4830 H   0  0  0  0  0  0  0  0  0  0  0  0
  -26.1920  -15.6340   20.0490 H   0  0  0  0  0  0  0  0  0  0  0  0
  -31.3290  -25.6690   20.0460 C   0  0  0  0  0  2  0  0  0  0  0  0
  -30.3670  -25.8580   21.2320 C   0  0  0  0  0  2  0  0  0  0  0  0
  -29.3700  -27.0140   21.0630 C   0  0  0  0  0  2  0  0  0  0  0  0
  -28.3620  -26.7010   20.1040 O   0  0  0  0  0  0  0  0  0  0  0  0
  -24.5590  -31.8740   23.2170 C   0  0  0  0  0  0  0  0  0  0  0  0
  -27.2190  -27.4710   20.1350 C   0  0  0  0  0  0  0  0  0  0  0  0
  -23.3430  -30.4680   21.5780 C   0  0  0  0  0  3  0  0  0  0  0  0
  -24.7960  -28.9340   20.1480 C   0  0  0  0  0  0  0  0  0  0  0  0
  -25.8590  -30.8470   21.3630 C   0  0  0  0  0  2  0  0  0  0  0  0
  -25.9480  -29.4770   20.7300 C   0  0  0  0  0  0  0  0  0  0  0  0
  -27.1560  -28.7560   20.7250 C   0  0  0  0  0  3  0  0  0  0  0  0
  -26.0550  -26.9390   19.5430 C   0  0  0  0  0  3  0  0  0  0  0  0
  -24.8430  -27.6600   19.5510 C   0  0  0  0  0  3  0  0  0  0  0  0
  -23.5450  -29.7810   20.1990 C   0  0  0  0  0  2  0  0  0  0  0  0
  -24.6050  -31.0780   22.1110 N   0  0  0  0  0  0  0  0  0  0  0  0
  -23.4820  -32.1450   23.7650 O   0  0  0  0  0  0  0  0  0  0  0  0
  -22.7020  -29.4480   22.5440 C   0  0  0  0  0  0  0  0  0  0  0  0
  -21.3780  -29.2650   22.4240 N   0  0  0  0  0  0  0  0  0  0  0  0
  -23.3920  -28.8230   23.3540 O   0  0  0  0  0  0  0  0  0  0  0  0
  -20.8840  -29.8190   21.7390 H   0  0  0  0  0  0  0  0  0  0  0  0
  -18.0050  -28.0840   22.9410 C   0  0  0  0  0  0  0  0  0  0  0  0
  -20.5640  -28.3290   23.1970 C   0  0  0  0  0  3  0  0  0  0  0  0
  -20.6580  -26.8990   22.6160 C   0  0  0  0  0  2  0  0  0  0  0  0
  -19.5480  -26.5840   21.6080 C   0  0  0  0  0  2  0  0  0  0  0  0
  -18.1710  -26.7350   22.2610 C   0  0  0  0  0  2  0  0  0  0  0  0
  -19.1290  -28.8400   23.3660 C   0  0  0  0  0  0  0  0  0  0  0  0
  -18.9210  -30.1040   23.9600 C   0  0  0  0  0  3  0  0  0  0  0  0
  -17.6200  -30.6120   24.1340 C   0  0  0  0  0  3  0  0  0  0  0  0
  -16.5100  -29.8530   23.7250 C   0  0  0  0  0  3  0  0  0  0  0  0
  -16.7030  -28.5910   23.1340 C   0  0  0  0  0  3  0  0  0  0  0  0
  -25.8510  -32.5040   23.8280 C   0  0  0  0  0  3  0  0  0  0  0  0
  -25.5440  -33.9000   24.1610 N   0  0  0  0  0  0  0  0  0  0  0  0
  -25.8820  -34.9530   23.4040 C   0  0  0  0  0  0  0  0  0  0  0  0
  -26.5530  -34.8490   22.3720 O   0  0  0  0  0  0  0  0  0  0  0  0
  -24.9480  -34.0560   24.9610 H   0  0  0  0  0  0  0  0  0  0  0  0
  -24.1640  -36.7520   23.0380 C   0  0  0  0  0  1  0  0  0  0  0  0
  -25.3950  -36.3410   23.8610 C   0  0  0  0  0  3  0  0  0  0  0  0
  -27.5250  -37.2130   24.7170 C   0  0  0  0  0  1  0  0  0  0  0  0
  -26.4330  -37.3910   23.7620 N   0  0  0  0  0  0  0  0  0  0  0  0
  -26.0310  -38.3120   23.9090 H   0  0  0  0  0  0  0  0  0  0  0  0
  -26.3800  -31.7290   25.0970 C   0  0  1  0  0  0  0  0  0  0  0  0
  -25.2980  -31.4850   26.1750 C   0  0  0  0  0  1  0  0  0  0  0  0
  -26.9610  -30.3540   24.6920 C   0  0  0  0  0  1  0  0  0  0  0  0
  -27.5350  -32.5240   25.7520 C   0  0  0  0  0  1  0  0  0  0  0  0
  1  2  2  0
  1  3  1  0
  2  4  1  0
  3  5  2  0
  4  8  1  0
  4  6  2  0
  5  6  1  0
  5 53  1  0
  6  7  1  0
  8  9  1  0
  9 12  1  0
  9 11  1  0
 10  8  2  0
 12 13  1  0
 14 13  1  0
 14 23  1  0
 15 23  1  0
 16 21  1  0
 17 18  1  0
 17 16  1  0
 19 18  1  0
 19 28  1  0
 19 20  1  0
 21 15  1  0
 21 20  1  0
 22 15  2  0
 23 24  1  0
 25 26  2  0
 26 45  1  0
 27 26  1  0
 27 30  1  0
 28 25  1  0
 28 29  1  0
 29 27  2  0
 30 31  1  0
 31 32  2  0
 33 36  1  0
 33 32  1  0
 34 33  2  0
 35 34  1  0
 35 30  2  0
 36 37  1  0
 37 38  1  0
 38 39  2  0
 40 39  1  0
 40 44  1  0
 41 40  2  0
 42 37  2  0
 42 41  1  0
 43 42  1  0
 45 46  1  0
 46 49  1  0
 46 48  1  0
 47 45  2  0
 50 51  1  0
 50 25  1  0
 52 50  1  0
 53 54  1  0
 55 54  1  0
 56 58  1  0
 56 55  1  0
 57 68  2  0
 58 63  1  0
 59 67  1  0
 59 69  1  0
 60 66  1  0
 60 62  1  0
 61 67  1  0
 62 61  1  0
 63 62  2  0
 64 65  1  0
 64 58  2  0
 65 60  2  0
 66 59  1  0
 67 57  1  0
 69 71  2  0
 70 69  1  0
 72 70  1  0
 73 82  2  0
 73 78  1  0
 74 70  1  0
 74 78  1  0
 75 74  1  0
 76 77  1  0
 76 75  1  0
 77 73  1  0
 78 79  2  0
 79 80  1  0
 81 80  2  0
 82 81  1  0
 83 57  1  0
 83 84  1  0
 83 93  1  0
 84 87  1  0
 85 89  1  0
 85 84  1  0
 86 85  2  0
 89 88  1  0
 91 89  1  0
 91 92  1  0
 91 90  1  0
 93 96  1  1
 93 94  1  0
 95 93  1  0
M  ISO  4  15 100  23 100  55 101  56 101
M  END
>  <TORSDO>  (77) 
F 23

>  <SCORE>  (77) 
-12.813

>  <name>  (77) 
82

>  <ligand_id>  (77) 
82

>  <original_smiles>  (77) 
[H]c1c([H])c(C(=O)N([H])C([H])([H])C([H])([H])C([H])([H])N([H])C(=O)N2C([H])([H])C([H])([H])C([H])([H])C([H])(n3nc(-c4c([H])c([H])c(Oc5c([H])c([H])c(F)c([H])c5F)c([H])c4[H])c(C(=O)N([H])[H])c3N([H])[H])C2([H])[H])c(C([H])([H])[H])c(C([H])([H])C([H])([H])C([H])([H])Oc2c([H])c([H])c3c(c2[H])C([H])([H])N(C(=O)C([H])(N([H])C(=O)C([H])(N([H])C([H])([H])[H])C([H])([H])[H])C(C([H])([H])[H])(C([H])([H])[H])C([H])([H])[H])C([H])(C(=O)N([H])C2([H])c4c([H])c([H])c([H])c([H])c4C([H])([H])C([H])([H])C2([H])[H])C3([H])[H])c1[H]

>  <smiles>  (77) 
[H]c1c([H])c(C(=O)N([H])C([H])([H])C([H])([H])C([H])([H])N([H])C(=O)N2C([H])([H])C([H])([H])C([H])([H])C([H])(n3nc(-c4c([H])c([H])c(Oc5c([H])c([H])c(F)c([H])c5F)c([H])c4[H])c(C(=O)N([H])[H])c3N([H])[H])C2([H])[H])c(C([H])([H])[H])c(C([H])([H])C([H])([H])C([H])([H])Oc2c([H])c([H])c3c(c2[H])C([H])([H])N(C(=O)C([H])(N([H])C(=O)C([H])(N([H])C([H])([H])[H])C([H])([H])[H])C(C([H])([H])[H])(C([H])([H])[H])C([H])([H])[H])C([H])(C(=O)N([H])C2([H])c4c([H])c([H])c([H])c([H])c4C([H])([H])C([H])([H])C2([H])[H])C3([H])[H])c1[H]

$$$$
83:0:0
     RDKit          3D

 98105  0  0  1  0  0  0  0  0999 V2000
  -28.1910  -23.8800   19.2670 C   0  0  0  0  0  0  0  0  0  0  0  0
  -26.9820  -23.3430   19.0400 N   0  0  0  0  0  0  0  0  0  0  0  0
  -28.9730  -23.4350   20.1090 O   0  0  0  0  0  0  0  0  0  0  0  0
  -26.4150  -23.7700   18.3170 H   0  0  0  0  0  0  0  0  0  0  0  0
  -26.3180  -22.2950   19.8130 C   0  0  0  0  0  2  0  0  0  0  0  0
  -26.4240  -20.9070   19.1510 C   0  0  0  0  0  2  0  0  0  0  0  0
  -27.8410  -20.3110   19.1120 C   0  0  0  0  0  2  0  0  0  0  0  0
  -28.4200  -19.9890   20.5050 C   0  0  0  0  0  2  0  0  0  0  0  0
  -29.7610  -19.2190   20.4580 C   0  0  0  0  0  2  0  0  0  0  0  0
  -29.6130  -17.7160   20.1260 C   0  0  0  0  0  2  0  0  0  0  0  0
  -31.5470  -14.5270   20.1440 C   0  0  0  0  0  0  0  0  0  0  0  0
  -31.2690  -12.1940   19.3890 C   0  0  0  0  0  2  0  0  0  0  0  0
  -30.3520  -12.2060   18.1450 C   0  0  0  0  0  2  0  0  0  0  0  0
  -28.8680  -12.1720   18.5690 C   0  0  0  0  0  2  0  0  0  0  0  0
  -28.5260  -13.2380   19.6430 C   0  0  0  0  0  3  0  0  0  0  0  0
  -29.5430  -13.1610   20.8040 C   0  0  0  0  0  2  0  0  0  0  0  0
  -30.8940  -13.3380   20.2320 N   0  0  0  0  0  0  0  0  0  0  0  0
  -32.7010  -14.6330   19.7100 O   0  0  0  0  0  0  0  0  0  0  0  0
  -30.9090  -16.8840   20.2120 C   0  0  0  0  0  0  0  0  0  0  0  0
  -30.7210  -15.5660   20.3740 N   0  0  0  0  0  0  0  0  0  0  0  0
  -32.0120  -17.4330   20.0940 O   0  0  0  0  0  0  0  0  0  0  0  0
  -29.7750  -15.2910   20.5890 H   0  0  0  0  0  0  0  0  0  0  0  0
  -26.2050  -14.0900   20.3730 C   0  0  0  0  0  0  0  0  0  0  0  0
  -25.0620  -13.4220   20.7310 C   0  0  0  0  0  0  0  0  0  0  0  0
  -25.3790  -12.0320   20.6590 C   0  0  0  0  0  0  0  0  0  0  0  0
  -27.1490  -13.1080   20.1150 N   0  0  0  0  0  0  0  0  0  0  0  0
  -26.6550  -11.8650   20.3390 N   0  0  0  0  0  0  0  0  0  0  0  0
  -24.5290  -10.8450   20.8170 C   0  0  0  0  0  0  0  0  0  0  0  0
  -24.8480   -9.8250   21.7400 C   0  0  0  0  0  3  0  0  0  0  0  0
  -24.0040   -8.7020   21.8900 C   0  0  0  0  0  3  0  0  0  0  0  0
  -22.8260   -8.5910   21.1140 C   0  0  0  0  0  0  0  0  0  0  0  0
  -22.5220   -9.6000   20.1840 C   0  0  0  0  0  3  0  0  0  0  0  0
  -23.3670  -10.7130   20.0330 C   0  0  0  0  0  3  0  0  0  0  0  0
  -21.9640   -7.5230   21.1700 O   0  0  0  0  0  0  0  0  0  0  0  0
  -21.8040   -6.7910   22.3180 C   0  0  0  0  0  0  0  0  0  0  0  0
  -21.3880   -7.3830   23.5310 C   0  0  0  0  0  3  0  0  0  0  0  0
  -21.1700   -6.5800   24.6680 C   0  0  0  0  0  3  0  0  0  0  0  0
  -21.3590   -5.1880   24.5940 C   0  0  0  0  0  0  0  0  0  0  0  0
  -21.7660   -4.5960   23.3860 C   0  0  0  0  0  3  0  0  0  0  0  0
  -21.9860   -5.3950   22.2510 C   0  0  0  0  0  0  0  0  0  0  0  0
  -22.3580   -4.8160   21.0830 F   0  0  0  0  0  0  0  0  0  0  0  0
  -21.1390   -4.4160   25.6830 F   0  0  0  0  0  0  0  0  0  0  0  0
  -23.7230  -14.0330   21.0280 C   0  0  0  0  0  0  0  0  0  0  0  0
  -22.9440  -13.3950   21.8970 N   0  0  0  0  0  0  0  0  0  0  0  0
  -23.3800  -15.1030   20.5310 O   0  0  0  0  0  0  0  0  0  0  0  0
  -23.2390  -12.5270   22.3140 H   0  0  0  0  0  0  0  0  0  0  0  0
  -22.0440  -13.7790   22.1490 H   0  0  0  0  0  0  0  0  0  0  0  0
  -26.5110  -15.4370   20.2190 N   0  0  0  0  0  0  0  0  0  0  0  0
  -25.8040  -16.1550   20.3280 H   0  0  0  0  0  0  0  0  0  0  0  0
  -27.3750  -15.7840   19.8210 H   0  0  0  0  0  0  0  0  0  0  0  0
  -28.5690  -25.0990   18.3970 C   0  0  0  0  0  3  0  0  0  0  0  0
  -29.5980  -24.7160   17.2990 C   0  0  0  0  0  2  0  0  0  0  0  0
  -29.0220  -23.9460   16.1730 N   0  0  0  0  0  4  0  0  0  0  0  0
  -28.6660  -23.0520   16.4630 H   0  0  0  0  0  0  0  0  0  0  0  0
  -29.7350  -23.7770   15.4860 H   0  0  0  0  0  0  0  0  0  0  0  0
  -28.2880  -24.4630   15.7210 H   0  0  0  0  0  0  0  0  0  0  0  0
  -29.1130  -26.2960   19.2350 C   0  0  0  0  0  2  0  0  0  0  0  0
  -28.4200  -26.7060   20.4220 O   0  0  0  0  0  0  0  0  0  0  0  0
  -24.6140  -31.9190   23.3810 C   0  0  0  0  0  0  0  0  0  0  0  0
  -27.2660  -27.4520   20.3380 C   0  0  0  0  0  0  0  0  0  0  0  0
  -23.4210  -30.5250   21.7240 C   0  0  0  0  0  3  0  0  0  0  0  0
  -24.8810  -28.9730   20.3290 C   0  0  0  0  0  0  0  0  0  0  0  0
  -25.9550  -30.8590   21.5670 C   0  0  0  0  0  2  0  0  0  0  0  0
  -26.0360  -29.4870   20.9300 C   0  0  0  0  0  0  0  0  0  0  0  0
  -27.2290  -28.7290   20.9410 C   0  0  0  0  0  3  0  0  0  0  0  0
  -26.0840  -26.9460   19.7550 C   0  0  0  0  0  3  0  0  0  0  0  0
  -24.8980  -27.6980   19.7450 C   0  0  0  0  0  3  0  0  0  0  0  0
  -23.6440  -29.8380   20.3520 C   0  0  0  0  0  2  0  0  0  0  0  0
  -24.6800  -31.1170   22.2820 N   0  0  0  0  0  0  0  0  0  0  0  0
  -23.5260  -32.2050   23.9010 O   0  0  0  0  0  0  0  0  0  0  0  0
  -22.7410  -29.5160   22.6780 C   0  0  0  0  0  0  0  0  0  0  0  0
  -21.4150  -29.3550   22.5290 N   0  0  0  0  0  0  0  0  0  0  0  0
  -23.4020  -28.8800   23.5020 O   0  0  0  0  0  0  0  0  0  0  0  0
  -20.9510  -29.9210   21.8320 H   0  0  0  0  0  0  0  0  0  0  0  0
  -18.0170  -28.2150   22.9740 C   0  0  0  0  0  0  0  0  0  0  0  0
  -20.5710  -28.4330   23.2900 C   0  0  0  0  0  3  0  0  0  0  0  0
  -20.6620  -26.9960   22.7260 C   0  0  0  0  0  2  0  0  0  0  0  0
  -19.5720  -26.6750   21.6980 C   0  0  0  0  0  2  0  0  0  0  0  0
  -18.1830  -26.8560   22.3190 C   0  0  0  0  0  2  0  0  0  0  0  0
  -19.1400  -28.9620   23.4190 C   0  0  0  0  0  0  0  0  0  0  0  0
  -18.9350  -30.2330   23.9960 C   0  0  0  0  0  3  0  0  0  0  0  0
  -17.6380  -30.7550   24.1430 C   0  0  0  0  0  3  0  0  0  0  0  0
  -16.5260  -30.0060   23.7160 C   0  0  0  0  0  3  0  0  0  0  0  0
  -16.7170  -28.7390   23.1370 C   0  0  0  0  0  3  0  0  0  0  0  0
  -25.8970  -32.5360   24.0230 C   0  0  0  0  0  3  0  0  0  0  0  0
  -26.3660  -31.7770   25.3240 C   0  0  1  0  0  0  0  0  0  0  0  0
  -25.2410  -31.5670   26.3640 C   0  0  0  0  0  1  0  0  0  0  0  0
  -26.9420  -30.3880   24.9640 C   0  0  0  0  0  1  0  0  0  0  0  0
  -27.5050  -32.5700   26.0090 C   0  0  0  0  0  1  0  0  0  0  0  0
  -25.6060  -33.9450   24.3190 N   0  0  0  0  0  0  0  0  0  0  0  0
  -25.9760  -34.9770   23.5460 C   0  0  0  0  0  0  0  0  0  0  0  0
  -26.6680  -34.8390   22.5330 O   0  0  0  0  0  0  0  0  0  0  0  0
  -24.9900  -34.1240   25.0980 H   0  0  0  0  0  0  0  0  0  0  0  0
  -24.2860  -36.7900   23.1210 C   0  0  0  0  0  1  0  0  0  0  0  0
  -25.5040  -36.3810   23.9650 C   0  0  0  0  0  3  0  0  0  0  0  0
  -27.6380  -37.2420   24.8230 C   0  0  0  0  0  1  0  0  0  0  0  0
  -26.5570  -37.4150   23.8520 N   0  0  0  0  0  0  0  0  0  0  0  0
  -26.1660  -38.3430   23.9740 H   0  0  0  0  0  0  0  0  0  0  0  0
  1  3  2  0
  2  1  1  0
  2  5  1  0
  4  2  1  0
  6  5  1  0
  7  6  1  0
  7  8  1  0
  9  8  1  0
 10 19  1  0
 10  9  1  0
 11 17  1  0
 11 20  1  0
 12 17  1  0
 13 14  1  0
 13 12  1  0
 15 14  1  0
 15 26  1  0
 15 16  1  0
 17 16  1  0
 18 11  2  0
 19 20  1  0
 20 22  1  0
 21 19  2  0
 23 24  2  0
 24 43  1  0
 25 24  1  0
 25 28  1  0
 26 27  1  0
 26 23  1  0
 27 25  2  0
 28 29  1  0
 29 30  2  0
 31 34  1  0
 31 30  1  0
 32 31  2  0
 33 32  1  0
 33 28  2  0
 34 35  1  0
 35 36  1  0
 36 37  2  0
 38 37  1  0
 38 42  1  0
 39 38  2  0
 40 35  2  0
 40 39  1  0
 41 40  1  0
 43 44  1  0
 44 47  1  0
 44 46  1  0
 45 43  2  0
 48 49  1  0
 48 23  1  0
 50 48  1  0
 51 52  1  0
 51 57  1  0
 51  1  1  0
 53 54  1  0
 53 52  1  0
 55 53  1  0
 56 53  1  0
 57 58  1  0
 59 70  2  0
 60 58  1  0
 60 65  1  0
 61 69  1  0
 61 71  1  0
 62 68  1  0
 62 64  1  0
 63 69  1  0
 64 65  2  0
 64 63  1  0
 66 60  2  0
 67 66  1  0
 67 62  2  0
 68 61  1  0
 69 59  1  0
 71 73  2  0
 72 71  1  0
 74 72  1  0
 75 84  2  0
 75 80  1  0
 76 72  1  0
 76 80  1  0
 77 76  1  0
 78 79  1  0
 78 77  1  0
 79 75  1  0
 80 81  2  0
 81 82  1  0
 83 82  2  0
 84 83  1  0
 85 59  1  0
 85 90  1  0
 85 86  1  0
 86 89  1  1
 86 87  1  0
 88 86  1  0
 90 93  1  0
 91 95  1  0
 91 90  1  0
 92 91  2  0
 95 94  1  0
 97 95  1  0
 97 98  1  0
 97 96  1  0
M  ISO  4  11 100  20 100  57 101  58 101
M  END
>  <TORSDO>  (78) 
F 26

>  <SCORE>  (78) 
-10.927

>  <name>  (78) 
83

>  <ligand_id>  (78) 
83

>  <original_smiles>  (78) 
[H]c1c([H])c([H])c2c(c1[H])C([H])([H])C([H])([H])C([H])([H])C2([H])N([H])C(=O)C1([H])N(C(=O)C([H])(N([H])C(=O)C([H])(N([H])C([H])([H])[H])C([H])([H])[H])C(C([H])([H])[H])(C([H])([H])[H])C([H])([H])[H])C([H])([H])c2c([H])c(OC([H])([H])C([H])(C(=O)N([H])C([H])([H])C([H])([H])C([H])([H])C([H])([H])C([H])([H])C([H])([H])C(=O)N([H])C(=O)N3C([H])([H])C([H])([H])C([H])([H])C([H])(n4nc(-c5c([H])c([H])c(Oc6c([H])c([H])c(F)c([H])c6F)c([H])c5[H])c(C(=O)N([H])[H])c4N([H])[H])C3([H])[H])C([H])([H])[N+]([H])([H])[H])c([H])c([H])c2C1([H])[H]

>  <smiles>  (78) 
[H]c1c([H])c([H])c2c(c1[H])C([H])([H])C([H])([H])C([H])([H])C2([H])N([H])C(=O)C1([H])N(C(=O)C([H])(N([H])C(=O)C([H])(N([H])C([H])([H])[H])C([H])([H])[H])C(C([H])([H])[H])(C([H])([H])[H])C([H])([H])[H])C([H])([H])c2c([H])c(OC([H])([H])C([H])(C(=O)N([H])C([H])([H])C([H])([H])C([H])([H])C([H])([H])C([H])([H])C([H])([H])C(=O)N([H])C(=O)N3C([H])([H])C([H])([H])C([H])([H])C([H])(n4nc(-c5c([H])c([H])c(Oc6c([H])c([H])c(F)c([H])c6F)c([H])c5[H])c(C(=O)N([H])[H])c4N([H])[H])C3([H])[H])C([H])([H])[N+]([H])([H])[H])c([H])c([H])c2C1([H])[H]

$$$$
84:0:0
     RDKit          3D

 95103  0  0  1  0  0  0  0  0999 V2000
  -27.1710  -21.0780   20.2780 C   0  0  0  0  0  3  0  0  0  0  0  0
  -26.2680  -22.1500   20.4320 C   0  0  0  0  0  3  0  0  0  0  0  0
  -28.7680  -22.5890   19.2430 C   0  0  0  0  0  3  0  0  0  0  0  0
  -28.4280  -21.2870   19.6720 C   0  0  0  0  0  0  0  0  0  0  0  0
  -27.8590  -23.6620   19.3660 C   0  0  0  0  0  0  0  0  0  0  0  0
  -26.5970  -23.4520   19.9750 C   0  0  0  0  0  0  0  0  0  0  0  0
  -24.4540  -24.3340   20.6460 C   0  0  0  0  0  1  0  0  0  0  0  0
  -25.7480  -24.5340   20.0880 O   0  0  0  0  0  0  0  0  0  0  0  0
  -29.4210  -20.1880   19.5160 C   0  0  0  0  0  0  0  0  0  0  0  0
  -30.6390  -20.3880   19.5470 O   0  0  0  0  0  0  0  0  0  0  0  0
  -28.8900  -18.7750   19.2220 C   0  0  0  0  0  2  0  0  0  0  0  0
  -29.9060  -17.9070   18.4390 C   0  0  0  0  0  2  0  0  0  0  0  0
  -31.0600  -17.3190   19.2840 C   0  0  0  0  0  2  0  0  0  0  0  0
  -31.4600  -14.8520   19.3100 C   0  0  0  0  0  0  0  0  0  0  0  0
  -31.2760  -12.4210   18.9500 C   0  0  0  0  0  2  0  0  0  0  0  0
  -30.2860  -12.1480   17.7990 C   0  0  0  0  0  2  0  0  0  0  0  0
  -28.8380  -12.0880   18.3220 C   0  0  0  0  0  2  0  0  0  0  0  0
  -28.4830  -13.2910   19.2350 C   0  0  0  0  0  3  0  0  0  0  0  0
  -29.5770  -13.5050   20.3050 C   0  0  0  0  0  2  0  0  0  0  0  0
  -30.8670  -13.6680   19.6110 N   0  0  0  0  0  0  0  0  0  0  0  0
  -32.5040  -14.9390   18.6550 O   0  0  0  0  0  0  0  0  0  0  0  0
  -30.7740  -15.9430   19.6880 N   0  0  0  0  0  0  0  0  0  0  0  0
  -29.9370  -15.7800   20.2300 H   0  0  0  0  0  0  0  0  0  0  0  0
  -26.2570  -14.1020   20.2470 C   0  0  0  0  0  0  0  0  0  0  0  0
  -25.1500  -13.4220   20.6820 C   0  0  0  0  0  0  0  0  0  0  0  0
  -25.4450  -12.0360   20.5090 C   0  0  0  0  0  0  0  0  0  0  0  0
  -27.1620  -13.1330   19.8410 N   0  0  0  0  0  0  0  0  0  0  0  0
  -26.6820  -11.8810   20.0520 N   0  0  0  0  0  0  0  0  0  0  0  0
  -24.6050  -10.8470   20.7000 C   0  0  0  0  0  0  0  0  0  0  0  0
  -24.9710   -9.8200   21.5990 C   0  0  0  0  0  3  0  0  0  0  0  0
  -24.1380   -8.6940   21.7770 C   0  0  0  0  0  3  0  0  0  0  0  0
  -22.9240   -8.5880   21.0580 C   0  0  0  0  0  0  0  0  0  0  0  0
  -22.5740   -9.6030   20.1490 C   0  0  0  0  0  3  0  0  0  0  0  0
  -23.4070  -10.7200   19.9680 C   0  0  0  0  0  3  0  0  0  0  0  0
  -22.0670   -7.5180   21.1460 O   0  0  0  0  0  0  0  0  0  0  0  0
  -21.8960   -6.8280   22.3190 C   0  0  0  0  0  0  0  0  0  0  0  0
  -21.4090   -7.4540   23.4870 C   0  0  0  0  0  3  0  0  0  0  0  0
  -21.1800   -6.6930   24.6510 C   0  0  0  0  0  3  0  0  0  0  0  0
  -21.4300   -5.3090   24.6480 C   0  0  0  0  0  0  0  0  0  0  0  0
  -21.9120   -4.6820   23.4850 C   0  0  0  0  0  3  0  0  0  0  0  0
  -22.1400   -5.4400   22.3230 C   0  0  0  0  0  0  0  0  0  0  0  0
  -22.5830   -4.8290   21.1970 F   0  0  0  0  0  0  0  0  0  0  0  0
  -21.2050   -4.5760   25.7630 F   0  0  0  0  0  0  0  0  0  0  0  0
  -23.8540  -14.0240   21.1430 C   0  0  0  0  0  0  0  0  0  0  0  0
  -23.1570  -13.3540   22.0550 N   0  0  0  0  0  0  0  0  0  0  0  0
  -23.4750  -15.1190   20.7300 O   0  0  0  0  0  0  0  0  0  0  0  0
  -23.4800  -12.4690   22.4120 H   0  0  0  0  0  0  0  0  0  0  0  0
  -22.2880  -13.7370   22.4010 H   0  0  0  0  0  0  0  0  0  0  0  0
  -26.5610  -15.4560   20.1400 N   0  0  0  0  0  0  0  0  0  0  0  0
  -25.8850  -16.1800   20.3600 H   0  0  0  0  0  0  0  0  0  0  0  0
  -27.4080  -15.8160   19.7210 H   0  0  0  0  0  0  0  0  0  0  0  0
  -28.2580  -25.0250   18.8110 C   0  0  0  0  0  2  0  0  0  0  0  0
  -28.1490  -25.0770   17.2760 C   0  0  0  0  0  2  0  0  0  0  0  0
  -28.6660  -26.3890   16.6590 C   0  0  0  0  0  2  0  0  0  0  0  0
  -27.6230  -27.0270   15.9260 O   0  0  0  0  0  0  0  0  0  0  0  0
  -25.6060  -28.9380   22.4620 C   0  0  0  0  0  0  0  0  0  0  0  0
  -26.6420  -27.5570   16.7230 C   0  0  0  0  0  0  0  0  0  0  0  0
  -23.8220  -28.9180   20.7450 C   0  0  0  0  0  3  0  0  0  0  0  0
  -24.6140  -28.6620   18.3330 C   0  0  0  0  0  0  0  0  0  0  0  0
  -26.2560  -29.3410   20.0960 C   0  0  0  0  0  2  0  0  0  0  0  0
  -25.9460  -28.6990   18.7620 C   0  0  0  0  0  0  0  0  0  0  0  0
  -26.9660  -28.1460   17.9610 C   0  0  0  0  0  3  0  0  0  0  0  0
  -25.3010  -27.5280   16.2930 C   0  0  0  0  0  3  0  0  0  0  0  0
  -24.2820  -28.0740   17.0980 C   0  0  0  0  0  3  0  0  0  0  0  0
  -23.5880  -29.2820   19.2520 C   0  0  0  0  0  2  0  0  0  0  0  0
  -25.2590  -29.0380   21.1480 N   0  0  0  0  0  0  0  0  0  0  0  0
  -24.7440  -28.7930   23.3390 O   0  0  0  0  0  0  0  0  0  0  0  0
  -23.2300  -27.5160   21.0060 C   0  0  0  0  0  0  0  0  0  0  0  0
  -21.8920  -27.4190   20.9750 N   0  0  0  0  0  0  0  0  0  0  0  0
  -23.9660  -26.5450   21.2050 O   0  0  0  0  0  0  0  0  0  0  0  0
  -21.3590  -28.2650   20.8210 H   0  0  0  0  0  0  0  0  0  0  0  0
  -18.5480  -26.0580   20.8790 C   0  0  0  0  0  0  0  0  0  0  0  0
  -21.1130  -26.1950   21.1520 C   0  0  0  0  0  3  0  0  0  0  0  0
  -21.1950  -25.2960   19.8950 C   0  0  0  0  0  2  0  0  0  0  0  0
  -20.0490  -25.5300   18.9080 C   0  0  0  0  0  2  0  0  0  0  0  0
  -18.6970  -25.2790   19.5830 C   0  0  0  0  0  2  0  0  0  0  0  0
  -19.6830  -26.5010   21.6080 C   0  0  0  0  0  0  0  0  0  0  0  0
  -19.4900  -27.2490   22.7890 C   0  0  0  0  0  3  0  0  0  0  0  0
  -18.1940  -27.5530   23.2440 C   0  0  0  0  0  3  0  0  0  0  0  0
  -17.0730  -27.1000   22.5270 C   0  0  0  0  0  3  0  0  0  0  0  0
  -17.2520  -26.3520   21.3510 C   0  0  0  0  0  3  0  0  0  0  0  0
  -27.0930  -29.0270   22.9270 C   0  0  0  0  0  3  0  0  0  0  0  0
  -27.1370  -29.8960   24.1100 N   0  0  0  0  0  0  0  0  0  0  0  0
  -27.6150  -31.1480   24.1160 C   0  0  0  0  0  0  0  0  0  0  0  0
  -28.1390  -31.6690   23.1290 O   0  0  0  0  0  0  0  0  0  0  0  0
  -26.6770  -29.5530   24.9410 H   0  0  0  0  0  0  0  0  0  0  0  0
  -26.3410  -32.9600   25.3060 C   0  0  0  0  0  1  0  0  0  0  0  0
  -27.4920  -31.9480   25.4270 C   0  0  0  0  0  3  0  0  0  0  0  0
  -29.8090  -31.7470   26.2120 C   0  0  0  0  0  1  0  0  0  0  0  0
  -28.7360  -32.6510   25.8060 N   0  0  0  0  0  0  0  0  0  0  0  0
  -28.5630  -33.3010   26.5690 H   0  0  0  0  0  0  0  0  0  0  0  0
  -27.7310  -27.6190   23.2430 C   0  0  1  0  0  0  0  0  0  0  0  0
  -26.9010  -26.7710   24.2330 C   0  0  0  0  0  1  0  0  0  0  0  0
  -27.9030  -26.7950   21.9440 C   0  0  0  0  0  1  0  0  0  0  0  0
  -29.1440  -27.8060   23.8420 C   0  0  0  0  0  1  0  0  0  0  0  0
  1  2  1  0
  3  5  2  0
  3  4  1  0
  4  1  2  0
  5  6  1  0
  6  8  1  0
  6  2  2  0
  8  7  1  0
  9 10  2  0
  9  4  1  0
 11  9  1  0
 12 11  1  0
 12 13  1  0
 13 22  1  0
 14 20  1  0
 14 22  1  0
 15 20  1  0
 16 17  1  0
 16 15  1  0
 18 17  1  0
 18 27  1  0
 18 19  1  0
 20 19  1  0
 21 14  2  0
 22 23  1  0
 24 25  2  0
 25 44  1  0
 26 25  1  0
 26 29  1  0
 27 28  1  0
 27 24  1  0
 28 26  2  0
 29 30  1  0
 30 31  2  0
 32 35  1  0
 32 31  1  0
 33 32  2  0
 34 33  1  0
 34 29  2  0
 35 36  1  0
 36 41  2  0
 36 37  1  0
 37 38  2  0
 39 38  1  0
 39 43  1  0
 40 39  2  0
 41 40  1  0
 42 41  1  0
 44 45  1  0
 45 48  1  0
 45 47  1  0
 46 44  2  0
 49 24  1  0
 49 50  1  0
 51 49  1  0
 52  5  1  0
 53 52  1  0
 54 53  1  0
 55 54  1  0
 55 57  1  0
 56 67  2  0
 57 62  1  0
 58 68  1  0
 58 66  1  0
 59 61  1  0
 59 65  1  0
 60 66  1  0
 61 60  1  0
 62 61  2  0
 63 57  2  0
 63 64  1  0
 64 59  2  0
 65 58  1  0
 66 56  1  0
 68 70  2  0
 69 68  1  0
 71 69  1  0
 72 81  2  0
 72 77  1  0
 73 69  1  0
 73 77  1  0
 74 73  1  0
 75 76  1  0
 75 74  1  0
 76 72  1  0
 77 78  2  0
 78 79  1  0
 80 79  2  0
 81 80  1  0
 82 56  1  0
 82 92  1  0
 82 83  1  0
 83 84  1  0
 83 86  1  0
 84 88  1  0
 85 84  2  0
 88 87  1  0
 88 90  1  0
 90 89  1  0
 90 91  1  0
 92 95  1  1
 92 93  1  0
 94 92  1  0
M  ISO  4  14 100  22 100  54 101  55 101
M  END
>  <TORSDO>  (79) 
F 24

>  <SCORE>  (79) 
-8.286

>  <name>  (79) 
84

>  <ligand_id>  (79) 
84

>  <original_smiles>  (79) 
[H]c1c([H])c([H])c2c(c1[H])C([H])([H])C([H])([H])C([H])([H])C2([H])N([H])C(=O)C1([H])N(C(=O)C([H])(N([H])C(=O)C([H])(N([H])C([H])([H])[H])C([H])([H])[H])C(C([H])([H])[H])(C([H])([H])[H])C([H])([H])[H])C([H])([H])c2c([H])c(OC([H])([H])C([H])([H])C([H])([H])c3c([H])c(C(=O)C([H])([H])C([H])([H])C([H])([H])N([H])C(=O)N4C([H])([H])C([H])([H])C([H])([H])C([H])(n5nc(-c6c([H])c([H])c(Oc7c([H])c([H])c(F)c([H])c7F)c([H])c6[H])c(C(=O)N([H])[H])c5N([H])[H])C4([H])[H])c([H])c([H])c3OC([H])([H])[H])c([H])c([H])c2C1([H])[H]

>  <smiles>  (79) 
[H]c1c([H])c([H])c2c(c1[H])C([H])([H])C([H])([H])C([H])([H])C2([H])N([H])C(=O)C1([H])N(C(=O)C([H])(N([H])C(=O)C([H])(N([H])C([H])([H])[H])C([H])([H])[H])C(C([H])([H])[H])(C([H])([H])[H])C([H])([H])[H])C([H])([H])c2c([H])c(OC([H])([H])C([H])([H])C([H])([H])c3c([H])c(C(=O)C([H])([H])C([H])([H])C([H])([H])N([H])C(=O)N4C([H])([H])C([H])([H])C([H])([H])C([H])(n5nc(-c6c([H])c([H])c(Oc7c([H])c([H])c(F)c([H])c7F)c([H])c6[H])c(C(=O)N([H])[H])c5N([H])[H])C4([H])[H])c([H])c([H])c3OC([H])([H])[H])c([H])c([H])c2C1([H])[H]

$$$$
85:0:0
     RDKit          3D

102109  0  0  1  0  0  0  0  0999 V2000
  -24.1940  -22.1880   17.4080 C   0  0  0  0  0  2  0  0  0  0  0  0
  -23.2410  -22.5460   18.5660 C   0  0  0  0  0  2  0  0  0  0  0  0
  -23.8090  -23.6280   19.5010 C   0  0  0  0  0  2  0  0  0  0  0  0
  -24.9480  -23.1160   20.4180 C   0  0  0  0  0  2  0  0  0  0  0  0
  -25.2790  -25.3520   21.5960 C   0  0  0  0  0  1  0  0  0  0  0  0
  -25.9700  -24.1900   20.8580 C   0  0  0  0  0  3  0  0  0  0  0  0
  -26.7730  -24.6420   19.6960 N   0  0  0  0  0  4  0  0  0  0  0  0
  -27.0140  -23.8270   19.1530 H   0  0  0  0  0  0  0  0  0  0  0  0
  -26.1660  -25.2060   19.1270 H   0  0  0  0  0  0  0  0  0  0  0  0
  -28.0220  -25.3920   19.9860 C   0  0  0  0  0  2  0  0  0  0  0  0
  -28.5150  -26.2240   18.7730 C   0  0  0  0  0  2  0  0  0  0  0  0
  -28.4120  -27.6340   18.9890 O   0  0  0  0  0  0  0  0  0  0  0  0
  -24.6440  -31.7800   23.3420 C   0  0  0  0  0  0  0  0  0  0  0  0
  -27.1780  -28.2090   19.2160 C   0  0  0  0  0  0  0  0  0  0  0  0
  -23.3380  -30.6090   21.5930 C   0  0  0  0  0  3  0  0  0  0  0  0
  -24.7070  -29.4700   19.7670 C   0  0  0  0  0  0  0  0  0  0  0  0
  -25.7930  -31.1950   21.2130 C   0  0  0  0  0  2  0  0  0  0  0  0
  -25.8860  -29.9710   20.3280 C   0  0  0  0  0  0  0  0  0  0  0  0
  -27.1220  -29.3400   20.0610 C   0  0  0  0  0  3  0  0  0  0  0  0
  -25.9770  -27.7340   18.6380 C   0  0  0  0  0  3  0  0  0  0  0  0
  -24.7450  -28.3460   18.9220 C   0  0  0  0  0  3  0  0  0  0  0  0
  -23.4270  -30.2100   20.0960 C   0  0  0  0  0  2  0  0  0  0  0  0
  -24.6160  -31.1950   22.1110 N   0  0  0  0  0  0  0  0  0  0  0  0
  -23.6180  -31.8710   24.0310 O   0  0  0  0  0  0  0  0  0  0  0  0
  -22.8600  -29.3870   22.4040 C   0  0  0  0  0  0  0  0  0  0  0  0
  -21.5910  -28.9970   22.2020 N   0  0  0  0  0  0  0  0  0  0  0  0
  -23.6300  -28.8000   23.1710 O   0  0  0  0  0  0  0  0  0  0  0  0
  -21.0280  -29.5320   21.5580 H   0  0  0  0  0  0  0  0  0  0  0  0
  -18.5490  -27.0560   22.2410 C   0  0  0  0  0  0  0  0  0  0  0  0
  -20.9360  -27.8490   22.8250 C   0  0  0  0  0  3  0  0  0  0  0  0
  -21.4200  -26.5240   22.1960 C   0  0  0  0  0  2  0  0  0  0  0  0
  -20.5370  -26.0470   21.0420 C   0  0  0  0  0  2  0  0  0  0  0  0
  -19.0970  -25.8370   21.5210 C   0  0  0  0  0  2  0  0  0  0  0  0
  -19.4120  -28.0100   22.8400 C   0  0  0  0  0  0  0  0  0  0  0  0
  -18.8500  -29.1470   23.4590 C   0  0  0  0  0  3  0  0  0  0  0  0
  -17.4550  -29.3340   23.4930 C   0  0  0  0  0  3  0  0  0  0  0  0
  -16.6050  -28.3760   22.9140 C   0  0  0  0  0  3  0  0  0  0  0  0
  -17.1520  -27.2380   22.2950 C   0  0  0  0  0  3  0  0  0  0  0  0
  -25.9590  -32.3830   23.9310 C   0  0  0  0  0  3  0  0  0  0  0  0
  -26.5850  -31.5030   25.0790 C   0  0  1  0  0  0  0  0  0  0  0  0
  -25.5690  -31.0940   26.1700 C   0  0  0  0  0  1  0  0  0  0  0  0
  -27.2000  -30.2080   24.4990 C   0  0  0  0  0  1  0  0  0  0  0  0
  -27.7390  -32.2730   25.7640 C   0  0  0  0  0  1  0  0  0  0  0  0
  -25.6420  -33.7300   24.4210 N   0  0  0  0  0  0  0  0  0  0  0  0
  -25.9000  -34.8640   23.7530 C   0  0  0  0  0  0  0  0  0  0  0  0
  -26.5060  -34.8840   22.6780 O   0  0  0  0  0  0  0  0  0  0  0  0
  -25.1010  -33.7850   25.2720 H   0  0  0  0  0  0  0  0  0  0  0  0
  -24.1130  -36.6290   23.6880 C   0  0  0  0  0  1  0  0  0  0  0  0
  -25.4120  -36.1830   24.3770 C   0  0  0  0  0  3  0  0  0  0  0  0
  -27.5720  -37.0520   25.1640 C   0  0  0  0  0  1  0  0  0  0  0  0
  -26.4100  -37.2720   24.3060 N   0  0  0  0  0  0  0  0  0  0  0  0
  -25.9900  -38.1590   24.5660 H   0  0  0  0  0  0  0  0  0  0  0  0
  -24.2540  -20.6790   17.1070 C   0  0  0  0  0  2  0  0  0  0  0  0
  -25.2460  -20.3270   15.9810 C   0  0  0  0  0  2  0  0  0  0  0  0
  -26.3600  -19.3570   16.4100 C   0  0  0  0  0  2  0  0  0  0  0  0
  -27.5170  -19.2960   15.3940 C   0  0  0  0  0  2  0  0  0  0  0  0
  -28.7020  -18.4200   15.8590 C   0  0  0  0  0  2  0  0  0  0  0  0
  -29.8000  -19.2040   16.6140 C   0  0  0  0  0  2  0  0  0  0  0  0
  -30.0130  -18.7830   18.0830 C   0  0  0  0  0  2  0  0  0  0  0  0
  -30.6990  -17.4160   18.2930 C   0  0  0  0  0  2  0  0  0  0  0  0
  -30.8750  -17.1070   19.7900 C   0  0  0  0  0  2  0  0  0  0  0  0
  -31.4150  -15.7020   20.1170 C   0  0  0  0  0  2  0  0  0  0  0  0
  -31.4820  -15.4730   21.6430 C   0  0  0  0  0  2  0  0  0  0  0  0
  -32.0430  -14.1080   22.1010 C   0  0  0  0  0  2  0  0  0  0  0  0
  -31.7480  -12.1140   20.6010 C   0  0  0  0  0  0  0  0  0  0  0  0
  -30.8230  -11.0860   18.5770 C   0  0  0  0  0  2  0  0  0  0  0  0
  -30.0810  -12.2110   17.8230 C   0  0  0  0  0  2  0  0  0  0  0  0
  -28.6260  -12.3350   18.3230 C   0  0  0  0  0  2  0  0  0  0  0  0
  -28.5260  -12.4010   19.8710 C   0  0  0  0  0  3  0  0  0  0  0  0
  -29.3840  -11.2880   20.5220 C   0  0  0  0  0  2  0  0  0  0  0  0
  -30.7540  -11.4130   20.0030 N   0  0  0  0  0  0  0  0  0  0  0  0
  -32.9120  -12.1370   20.1900 O   0  0  0  0  0  0  0  0  0  0  0  0
  -31.3130  -12.9710   21.5370 N   0  0  0  0  0  0  0  0  0  0  0  0
  -30.3360  -12.8960   21.7780 H   0  0  0  0  0  0  0  0  0  0  0  0
  -26.2610  -13.3760   20.6130 C   0  0  0  0  0  0  0  0  0  0  0  0
  -25.0690  -12.7820   20.9270 C   0  0  0  0  0  0  0  0  0  0  0  0
  -25.2900  -11.3730   20.8130 C   0  0  0  0  0  0  0  0  0  0  0  0
  -27.1400  -12.3430   20.3270 N   0  0  0  0  0  0  0  0  0  0  0  0
  -26.5570  -11.1310   20.5040 N   0  0  0  0  0  0  0  0  0  0  0  0
  -24.3520  -10.2500   20.9160 C   0  0  0  0  0  0  0  0  0  0  0  0
  -24.5770   -9.1840   21.8140 C   0  0  0  0  0  3  0  0  0  0  0  0
  -23.6520   -8.1220   21.9080 C   0  0  0  0  0  3  0  0  0  0  0  0
  -22.4870   -8.1210   21.1040 C   0  0  0  0  0  0  0  0  0  0  0  0
  -22.2790   -9.1740   20.1980 C   0  0  0  0  0  3  0  0  0  0  0  0
  -23.2030  -10.2260   20.1010 C   0  0  0  0  0  3  0  0  0  0  0  0
  -21.5440   -7.1200   21.1080 O   0  0  0  0  0  0  0  0  0  0  0  0
  -21.2020   -6.4590   22.2610 C   0  0  0  0  0  0  0  0  0  0  0  0
  -20.7670   -7.1480   23.4140 C   0  0  0  0  0  3  0  0  0  0  0  0
  -20.3570   -6.4280   24.5530 C   0  0  0  0  0  3  0  0  0  0  0  0
  -20.3690   -5.0210   24.5400 C   0  0  0  0  0  0  0  0  0  0  0  0
  -20.7960   -4.3310   23.3920 C   0  0  0  0  0  3  0  0  0  0  0  0
  -21.2060   -5.0480   22.2540 C   0  0  0  0  0  0  0  0  0  0  0  0
  -21.5950   -4.3790   21.1430 F   0  0  0  0  0  0  0  0  0  0  0  0
  -19.9700   -4.3290   25.6330 F   0  0  0  0  0  0  0  0  0  0  0  0
  -23.7710  -13.4750   21.2260 C   0  0  0  0  0  0  0  0  0  0  0  0
  -22.9450  -12.8920   22.0870 N   0  0  0  0  0  0  0  0  0  0  0  0
  -23.5040  -14.5710   20.7340 O   0  0  0  0  0  0  0  0  0  0  0  0
  -23.1700  -12.0010   22.5040 H   0  0  0  0  0  0  0  0  0  0  0  0
  -22.0760  -13.3430   22.3340 H   0  0  0  0  0  0  0  0  0  0  0  0
  -26.6630  -14.7090   20.5300 N   0  0  0  0  0  0  0  0  0  0  0  0
  -26.0120  -15.4740   20.6740 H   0  0  0  0  0  0  0  0  0  0  0  0
  -27.5730  -15.0160   20.2100 H   0  0  0  0  0  0  0  0  0  0  0  0
  1  2  1  0
  2  3  1  0
  3  4  1  0
  4  6  1  0
  6  5  1  0
  7 10  1  0
  7  6  1  0
  8  7  1  0
  9  7  1  0
 11 12  1  0
 11 10  1  0
 12 14  1  0
 13 24  2  0
 14 19  1  0
 15 23  1  0
 15 25  1  0
 16 22  1  0
 16 18  1  0
 17 23  1  0
 18 17  1  0
 19 18  2  0
 20 21  1  0
 20 14  2  0
 21 16  2  0
 22 15  1  0
 23 13  1  0
 25 27  2  0
 26 25  1  0
 28 26  1  0
 29 38  2  0
 29 34  1  0
 30 26  1  0
 30 34  1  0
 31 30  1  0
 32 33  1  0
 32 31  1  0
 33 29  1  0
 34 35  2  0
 35 36  1  0
 37 36  2  0
 38 37  1  0
 39 13  1  0
 39 44  1  0
 39 40  1  0
 40 43  1  1
 40 41  1  0
 42 40  1  0
 44 47  1  0
 45 49  1  0
 45 44  1  0
 46 45  2  0
 49 48  1  0
 51 49  1  0
 51 52  1  0
 51 50  1  0
 53  1  1  0
 54 55  1  0
 54 53  1  0
 56 57  1  0
 56 55  1  0
 57 58  1  0
 58 59  1  0
 59 60  1  0
 60 61  1  0
 61 62  1  0
 62 63  1  0
 63 64  1  0
 65 73  1  0
 66 71  1  0
 67 68  1  0
 67 66  1  0
 69 68  1  0
 69 78  1  0
 69 70  1  0
 71 70  1  0
 71 65  1  0
 72 65  2  0
 73 74  1  0
 73 64  1  0
 75 76  2  0
 76 95  1  0
 77 80  1  0
 77 76  1  0
 78 79  1  0
 78 75  1  0
 79 77  2  0
 80 81  1  0
 81 82  2  0
 83 86  1  0
 83 82  1  0
 84 83  2  0
 85 84  1  0
 85 80  2  0
 86 87  1  0
 87 88  1  0
 88 89  2  0
 90 89  1  0
 90 94  1  0
 91 90  2  0
 92 87  2  0
 92 91  1  0
 93 92  1  0
 95 96  1  0
 96 99  1  0
 96 98  1  0
 97 95  2  0
100 75  1  0
100101  1  0
102100  1  0
M  ISO  4  11 101  12 101  65 100  73 100
M  END
>  <TORSDO>  (80) 
F 35

>  <SCORE>  (80) 
-5.096

>  <name>  (80) 
85

>  <ligand_id>  (80) 
85

>  <original_smiles>  (80) 
[H]c1c([H])c([H])c2c(c1[H])C([H])([H])C([H])([H])C([H])([H])C2([H])N([H])C(=O)C1([H])N(C(=O)C([H])(N([H])C(=O)C([H])(N([H])C([H])([H])[H])C([H])([H])[H])C(C([H])([H])[H])(C([H])([H])[H])C([H])([H])[H])C([H])([H])c2c([H])c(OC([H])([H])C([H])([H])[N+]([H])([H])C([H])(C([H])([H])[H])C([H])([H])C([H])([H])C([H])([H])C([H])([H])C([H])([H])C([H])([H])C([H])([H])C([H])([H])C([H])([H])C([H])([H])C([H])([H])C([H])([H])C([H])([H])C([H])([H])C([H])([H])C([H])([H])N([H])C(=O)N3C([H])([H])C([H])([H])C([H])([H])C([H])(n4nc(-c5c([H])c([H])c(Oc6c([H])c([H])c(F)c([H])c6F)c([H])c5[H])c(C(=O)N([H])[H])c4N([H])[H])C3([H])[H])c([H])c([H])c2C1([H])[H]

>  <smiles>  (80) 
[H]c1c([H])c([H])c2c(c1[H])C([H])([H])C([H])([H])C([H])([H])C2([H])N([H])C(=O)C1([H])N(C(=O)C([H])(N([H])C(=O)C([H])(N([H])C([H])([H])[H])C([H])([H])[H])C(C([H])([H])[H])(C([H])([H])[H])C([H])([H])[H])C([H])([H])c2c([H])c(OC([H])([H])C([H])([H])[N+]([H])([H])C([H])(C([H])([H])[H])C([H])([H])C([H])([H])C([H])([H])C([H])([H])C([H])([H])C([H])([H])C([H])([H])C([H])([H])C([H])([H])C([H])([H])C([H])([H])C([H])([H])C([H])([H])C([H])([H])C([H])([H])C([H])([H])N([H])C(=O)N3C([H])([H])C([H])([H])C([H])([H])C([H])(n4nc(-c5c([H])c([H])c(Oc6c([H])c([H])c(F)c([H])c6F)c([H])c5[H])c(C(=O)N([H])[H])c4N([H])[H])C3([H])[H])c([H])c([H])c2C1([H])[H]

$$$$
86:0:0
     RDKit          3D

 91 98  0  0  1  0  0  0  0  0999 V2000
  -29.6570  -23.3240   20.5430 N   0  0  0  0  0  4  0  0  0  0  0  0
  -29.7830  -23.1810   19.5470 H   0  0  0  0  0  0  0  0  0  0  0  0
  -30.5030  -23.0060   20.9890 H   0  0  0  0  0  0  0  0  0  0  0  0
  -28.5620  -22.4130   20.9350 C   0  0  0  0  0  2  0  0  0  0  0  0
  -28.6700  -21.2190   19.9930 C   0  0  0  0  0  0  0  0  0  0  0  0
  -29.1020  -21.3610   18.8440 O   0  0  0  0  0  0  0  0  0  0  0  0
  -28.3010  -19.8360   20.5170 C   0  0  0  0  0  2  0  0  0  0  0  0
  -29.5700  -18.9880   20.7160 C   0  0  0  0  0  2  0  0  0  0  0  0
  -29.2690  -17.5210   21.0470 C   0  0  0  0  0  2  0  0  0  0  0  0
  -30.5460  -16.6670   21.0180 C   0  0  0  0  0  2  0  0  0  0  0  0
  -30.7820  -14.3160   20.2860 C   0  0  0  0  0  0  0  0  0  0  0  0
  -30.4010  -12.1910   19.1060 C   0  0  0  0  0  2  0  0  0  0  0  0
  -29.4380  -12.4090   17.9210 C   0  0  0  0  0  2  0  0  0  0  0  0
  -27.9680  -12.3130   18.3750 C   0  0  0  0  0  2  0  0  0  0  0  0
  -27.6740  -13.1500   19.6490 C   0  0  0  0  0  3  0  0  0  0  0  0
  -28.7420  -12.9020   20.7400 C   0  0  0  0  0  2  0  0  0  0  0  0
  -30.0710  -13.1670   20.1560 N   0  0  0  0  0  0  0  0  0  0  0  0
  -31.8340  -14.5450   19.6810 O   0  0  0  0  0  0  0  0  0  0  0  0
  -30.2120  -15.2510   21.0540 N   0  0  0  0  0  0  0  0  0  0  0  0
  -29.3850  -14.9730   21.5580 H   0  0  0  0  0  0  0  0  0  0  0  0
  -25.2990  -13.7980   20.4060 C   0  0  0  0  0  0  0  0  0  0  0  0
  -24.2270  -13.0450   20.7960 C   0  0  0  0  0  0  0  0  0  0  0  0
  -24.6610  -11.6870   20.7500 C   0  0  0  0  0  0  0  0  0  0  0  0
  -26.3250  -12.9010   20.1510 N   0  0  0  0  0  0  0  0  0  0  0  0
  -25.9420  -11.6240   20.4120 N   0  0  0  0  0  0  0  0  0  0  0  0
  -23.9190  -10.4360   20.9570 C   0  0  0  0  0  0  0  0  0  0  0  0
  -24.3480   -9.4710   21.8930 C   0  0  0  0  0  3  0  0  0  0  0  0
  -23.6080   -8.2830   22.0850 C   0  0  0  0  0  3  0  0  0  0  0  0
  -22.4290   -8.0540   21.3390 C   0  0  0  0  0  0  0  0  0  0  0  0
  -22.0190   -9.0080   20.3930 C   0  0  0  0  0  3  0  0  0  0  0  0
  -22.7570  -10.1880   20.2000 C   0  0  0  0  0  3  0  0  0  0  0  0
  -21.6610   -6.9190   21.4390 O   0  0  0  0  0  0  0  0  0  0  0  0
  -21.5920   -6.1950   22.6010 C   0  0  0  0  0  0  0  0  0  0  0  0
  -21.1720   -6.7760   23.8180 C   0  0  0  0  0  3  0  0  0  0  0  0
  -21.0560   -5.9810   24.9740 C   0  0  0  0  0  3  0  0  0  0  0  0
  -21.3470   -4.6030   24.9150 C   0  0  0  0  0  0  0  0  0  0  0  0
  -21.7540   -4.0220   23.7020 C   0  0  0  0  0  3  0  0  0  0  0  0
  -21.8770   -4.8140   22.5490 C   0  0  0  0  0  0  0  0  0  0  0  0
  -22.2540   -4.2470   21.3780 F   0  0  0  0  0  0  0  0  0  0  0  0
  -21.2270   -3.8370   26.0220 F   0  0  0  0  0  0  0  0  0  0  0  0
  -22.8460  -13.5460   21.1100 C   0  0  0  0  0  0  0  0  0  0  0  0
  -22.1350  -12.8570   21.9930 N   0  0  0  0  0  0  0  0  0  0  0  0
  -22.4110  -14.5800   20.6060 O   0  0  0  0  0  0  0  0  0  0  0  0
  -22.5130  -12.0180   22.4110 H   0  0  0  0  0  0  0  0  0  0  0  0
  -21.2100  -13.1650   22.2540 H   0  0  0  0  0  0  0  0  0  0  0  0
  -25.4870  -15.1650   20.2290 N   0  0  0  0  0  0  0  0  0  0  0  0
  -24.7460  -15.8390   20.3860 H   0  0  0  0  0  0  0  0  0  0  0  0
  -26.3310  -15.5870   19.8610 H   0  0  0  0  0  0  0  0  0  0  0  0
  -29.4450  -24.7540   20.8420 C   0  0  0  0  0  2  0  0  0  0  0  0
  -28.5380  -25.4340   19.8030 C   0  0  0  0  0  2  0  0  0  0  0  0
  -28.4540  -26.8120   20.1590 O   0  0  0  0  0  0  0  0  0  0  0  0
  -24.5940  -31.8750   23.2540 C   0  0  0  0  0  0  0  0  0  0  0  0
  -27.2420  -27.4660   20.1400 C   0  0  0  0  0  0  0  0  0  0  0  0
  -23.3880  -30.4860   21.6040 C   0  0  0  0  0  3  0  0  0  0  0  0
  -24.8400  -28.9580   20.1700 C   0  0  0  0  0  0  0  0  0  0  0  0
  -25.9120  -30.8470   21.4080 C   0  0  0  0  0  2  0  0  0  0  0  0
  -25.9950  -29.4810   20.7610 C   0  0  0  0  0  0  0  0  0  0  0  0
  -27.1950  -28.7420   20.7430 C   0  0  0  0  0  3  0  0  0  0  0  0
  -26.0670  -26.9510   19.5400 C   0  0  0  0  0  3  0  0  0  0  0  0
  -24.8690  -27.6900   19.5690 C   0  0  0  0  0  3  0  0  0  0  0  0
  -23.6000  -29.8190   20.2190 C   0  0  0  0  0  2  0  0  0  0  0  0
  -24.6500  -31.0830   22.1470 N   0  0  0  0  0  0  0  0  0  0  0  0
  -23.5110  -32.1420   23.7950 O   0  0  0  0  0  0  0  0  0  0  0  0
  -22.7400  -29.4540   22.5530 C   0  0  0  0  0  0  0  0  0  0  0  0
  -21.4140  -29.2820   22.4290 N   0  0  0  0  0  0  0  0  0  0  0  0
  -23.4250  -28.8160   23.3580 O   0  0  0  0  0  0  0  0  0  0  0  0
  -20.9240  -29.8480   21.7510 H   0  0  0  0  0  0  0  0  0  0  0  0
  -18.0320  -28.1080   22.9290 C   0  0  0  0  0  0  0  0  0  0  0  0
  -20.5960  -28.3410   23.1940 C   0  0  0  0  0  3  0  0  0  0  0  0
  -20.6850  -26.9190   22.5980 C   0  0  0  0  0  2  0  0  0  0  0  0
  -19.5740  -26.6150   21.5870 C   0  0  0  0  0  2  0  0  0  0  0  0
  -18.2030  -26.7580   22.2530 C   0  0  0  0  0  2  0  0  0  0  0  0
  -19.1610  -28.8540   23.3610 C   0  0  0  0  0  0  0  0  0  0  0  0
  -18.9560  -30.1140   23.9670 C   0  0  0  0  0  3  0  0  0  0  0  0
  -17.6580  -30.6280   24.1410 C   0  0  0  0  0  3  0  0  0  0  0  0
  -16.5460  -29.8770   23.7250 C   0  0  0  0  0  3  0  0  0  0  0  0
  -16.7320  -28.6200   23.1230 C   0  0  0  0  0  3  0  0  0  0  0  0
  -25.8800  -32.5030   23.8780 C   0  0  0  0  0  3  0  0  0  0  0  0
  -26.4020  -31.7180   25.1440 C   0  0  1  0  0  0  0  0  0  0  0  0
  -25.3140  -31.4670   26.2130 C   0  0  0  0  0  1  0  0  0  0  0  0
  -26.9880  -30.3480   24.7340 C   0  0  0  0  0  1  0  0  0  0  0  0
  -27.5560  -32.5050   25.8090 C   0  0  0  0  0  1  0  0  0  0  0  0
  -25.5710  -33.8970   24.2180 N   0  0  0  0  0  0  0  0  0  0  0  0
  -25.9030  -34.9540   23.4640 C   0  0  0  0  0  0  0  0  0  0  0  0
  -26.5800  -34.8570   22.4370 O   0  0  0  0  0  0  0  0  0  0  0  0
  -24.9730  -34.0450   25.0180 H   0  0  0  0  0  0  0  0  0  0  0  0
  -24.1780  -36.7460   23.1140 C   0  0  0  0  0  1  0  0  0  0  0  0
  -25.4150  -36.3390   23.9290 C   0  0  0  0  0  3  0  0  0  0  0  0
  -27.5470  -37.2180   24.7770 C   0  0  0  0  0  1  0  0  0  0  0  0
  -26.4490  -37.3930   23.8280 N   0  0  0  0  0  0  0  0  0  0  0  0
  -26.0430  -38.3120   23.9790 H   0  0  0  0  0  0  0  0  0  0  0  0
  1 49  1  0
  1  4  1  0
  1  3  1  0
  2  1  1  0
  5  7  1  0
  5  4  1  0
  6  5  2  0
  7  8  1  0
  8  9  1  0
 10  9  1  0
 10 19  1  0
 11 19  1  0
 12 17  1  0
 13 14  1  0
 13 12  1  0
 15 14  1  0
 15 24  1  0
 15 16  1  0
 17 11  1  0
 17 16  1  0
 18 11  2  0
 19 20  1  0
 21 22  2  0
 22 41  1  0
 23 22  1  0
 23 26  1  0
 24 21  1  0
 24 25  1  0
 25 23  2  0
 26 27  1  0
 27 28  2  0
 29 32  1  0
 29 28  1  0
 30 29  2  0
 31 30  1  0
 31 26  2  0
 32 33  1  0
 33 34  1  0
 34 35  2  0
 36 35  1  0
 36 40  1  0
 37 36  2  0
 38 33  2  0
 38 37  1  0
 39 38  1  0
 41 42  1  0
 42 45  1  0
 42 44  1  0
 43 41  2  0
 46 47  1  0
 46 21  1  0
 48 46  1  0
 50 51  1  0
 50 49  1  0
 52 63  2  0
 53 51  1  0
 53 58  1  0
 54 62  1  0
 54 64  1  0
 55 61  1  0
 55 57  1  0
 56 62  1  0
 57 56  1  0
 58 57  2  0
 59 60  1  0
 59 53  2  0
 60 55  2  0
 61 54  1  0
 62 52  1  0
 64 66  2  0
 65 64  1  0
 67 65  1  0
 68 77  2  0
 68 73  1  0
 69 65  1  0
 69 73  1  0
 70 69  1  0
 71 72  1  0
 71 70  1  0
 72 68  1  0
 73 74  2  0
 74 75  1  0
 76 75  2  0
 77 76  1  0
 78 52  1  0
 78 83  1  0
 78 79  1  0
 79 82  1  1
 79 80  1  0
 81 79  1  0
 83 86  1  0
 84 88  1  0
 84 83  1  0
 85 84  2  0
 88 87  1  0
 90 88  1  0
 90 91  1  0
 90 89  1  0
M  ISO  4  11 100  19 100  50 101  51 101
M  END
>  <TORSDO>  (81) 
F 24

>  <SCORE>  (81) 
-12.313

>  <name>  (81) 
86

>  <ligand_id>  (81) 
86

>  <original_smiles>  (81) 
[H]c1c([H])c([H])c2c(c1[H])C([H])([H])C([H])([H])C([H])([H])C2([H])N([H])C(=O)C1([H])N(C(=O)C([H])(N([H])C(=O)C([H])(N([H])C([H])([H])[H])C([H])([H])[H])C(C([H])([H])[H])(C([H])([H])[H])C([H])([H])[H])C([H])([H])c2c([H])c(OC([H])([H])C([H])([H])[N+]([H])([H])C([H])([H])C(=O)C([H])([H])C([H])([H])C([H])([H])C([H])([H])N([H])C(=O)N3C([H])([H])C([H])([H])C([H])([H])C([H])(n4nc(-c5c([H])c([H])c(Oc6c([H])c([H])c(F)c([H])c6F)c([H])c5[H])c(C(=O)N([H])[H])c4N([H])[H])C3([H])[H])c([H])c([H])c2C1([H])[H]

>  <smiles>  (81) 
[H]c1c([H])c([H])c2c(c1[H])C([H])([H])C([H])([H])C([H])([H])C2([H])N([H])C(=O)C1([H])N(C(=O)C([H])(N([H])C(=O)C([H])(N([H])C([H])([H])[H])C([H])([H])[H])C(C([H])([H])[H])(C([H])([H])[H])C([H])([H])[H])C([H])([H])c2c([H])c(OC([H])([H])C([H])([H])[N+]([H])([H])C([H])([H])C(=O)C([H])([H])C([H])([H])C([H])([H])C([H])([H])N([H])C(=O)N3C([H])([H])C([H])([H])C([H])([H])C([H])(n4nc(-c5c([H])c([H])c(Oc6c([H])c([H])c(F)c([H])c6F)c([H])c5[H])c(C(=O)N([H])[H])c4N([H])[H])C3([H])[H])c([H])c([H])c2C1([H])[H]

$$$$
87:0:0
     RDKit          3D

 89 96  0  0  1  0  0  0  0  0999 V2000
  -30.6000  -23.1230   21.2360 C   0  0  0  0  0  0  0  0  0  0  0  0
  -31.1070  -23.0670   22.3600 O   0  0  0  0  0  0  0  0  0  0  0  0
  -30.2540  -21.8530   20.4470 C   0  0  0  0  0  2  0  0  0  0  0  0
  -30.4810  -20.5340   21.2200 C   0  0  0  0  0  2  0  0  0  0  0  0
  -30.0630  -19.3030   20.4000 C   0  0  0  0  0  2  0  0  0  0  0  0
  -30.1920  -17.9460   21.1290 C   0  0  0  0  0  2  0  0  0  0  0  0
  -29.8040  -16.7910   20.1850 C   0  0  0  0  0  2  0  0  0  0  0  0
  -30.5920  -14.4490   20.3170 C   0  0  0  0  0  0  0  0  0  0  0  0
  -30.2760  -12.3100   19.1450 C   0  0  0  0  0  2  0  0  0  0  0  0
  -29.3040  -12.5730   17.9740 C   0  0  0  0  0  2  0  0  0  0  0  0
  -27.8360  -12.4480   18.4290 C   0  0  0  0  0  2  0  0  0  0  0  0
  -27.5450  -13.2380   19.7320 C   0  0  0  0  0  3  0  0  0  0  0  0
  -28.6250  -12.9520   20.8030 C   0  0  0  0  0  2  0  0  0  0  0  0
  -29.9430  -13.2570   20.2200 N   0  0  0  0  0  0  0  0  0  0  0  0
  -31.6950  -14.6640   19.8060 O   0  0  0  0  0  0  0  0  0  0  0  0
  -29.8330  -15.4520   20.7860 N   0  0  0  0  0  0  0  0  0  0  0  0
  -28.9860  -15.1570   21.2460 H   0  0  0  0  0  0  0  0  0  0  0  0
  -25.1650  -13.8470   20.4990 C   0  0  0  0  0  0  0  0  0  0  0  0
  -24.1050  -13.0730   20.8900 C   0  0  0  0  0  0  0  0  0  0  0  0
  -24.5610  -11.7200   20.8350 C   0  0  0  0  0  0  0  0  0  0  0  0
  -26.2020  -12.9650   20.2360 N   0  0  0  0  0  0  0  0  0  0  0  0
  -25.8420  -11.6810   20.4920 N   0  0  0  0  0  0  0  0  0  0  0  0
  -23.8370  -10.4590   21.0360 C   0  0  0  0  0  0  0  0  0  0  0  0
  -24.3070   -9.4710   21.9280 C   0  0  0  0  0  3  0  0  0  0  0  0
  -23.5860   -8.2720   22.1180 C   0  0  0  0  0  3  0  0  0  0  0  0
  -22.3800   -8.0520   21.4110 C   0  0  0  0  0  0  0  0  0  0  0  0
  -21.9270   -9.0290   20.5060 C   0  0  0  0  0  3  0  0  0  0  0  0
  -22.6490  -10.2190   20.3170 C   0  0  0  0  0  3  0  0  0  0  0  0
  -21.6260   -6.9080   21.5080 O   0  0  0  0  0  0  0  0  0  0  0  0
  -21.6450   -6.1290   22.6360 C   0  0  0  0  0  0  0  0  0  0  0  0
  -21.3140   -6.6480   23.9070 C   0  0  0  0  0  3  0  0  0  0  0  0
  -21.2780   -5.7950   25.0280 C   0  0  0  0  0  3  0  0  0  0  0  0
  -21.5630   -4.4250   24.8820 C   0  0  0  0  0  0  0  0  0  0  0  0
  -21.8870   -3.9050   23.6160 C   0  0  0  0  0  3  0  0  0  0  0  0
  -21.9240   -4.7550   22.4970 C   0  0  0  0  0  0  0  0  0  0  0  0
  -22.2170   -4.2450   21.2760 F   0  0  0  0  0  0  0  0  0  0  0  0
  -21.5210   -3.6040   25.9560 F   0  0  0  0  0  0  0  0  0  0  0  0
  -22.7170  -13.5500   21.2050 C   0  0  0  0  0  0  0  0  0  0  0  0
  -22.0150  -12.8460   22.0870 N   0  0  0  0  0  0  0  0  0  0  0  0
  -22.2640  -14.5790   20.7040 O   0  0  0  0  0  0  0  0  0  0  0  0
  -22.3990  -12.0150   22.5100 H   0  0  0  0  0  0  0  0  0  0  0  0
  -21.0830  -13.1430   22.3400 H   0  0  0  0  0  0  0  0  0  0  0  0
  -25.3280  -15.2180   20.3290 N   0  0  0  0  0  0  0  0  0  0  0  0
  -24.5620  -15.8710   20.4500 H   0  0  0  0  0  0  0  0  0  0  0  0
  -26.1720  -15.6590   19.9840 H   0  0  0  0  0  0  0  0  0  0  0  0
  -30.3040  -24.4730   20.5710 C   0  0  0  0  0  2  0  0  0  0  0  0
  -29.8950  -25.5580   21.5890 C   0  0  0  0  0  2  0  0  0  0  0  0
  -29.4470  -26.8910   20.9640 C   0  0  0  0  0  2  0  0  0  0  0  0
  -28.3470  -26.6610   20.0830 O   0  0  0  0  0  0  0  0  0  0  0  0
  -24.5920  -31.8870   23.2290 C   0  0  0  0  0  0  0  0  0  0  0  0
  -27.2240  -27.4610   20.1460 C   0  0  0  0  0  0  0  0  0  0  0  0
  -23.3660  -30.4840   21.5960 C   0  0  0  0  0  3  0  0  0  0  0  0
  -24.8100  -28.9410   20.1670 C   0  0  0  0  0  0  0  0  0  0  0  0
  -25.8850  -30.8520   21.3690 C   0  0  0  0  0  2  0  0  0  0  0  0
  -25.9690  -29.4790   20.7400 C   0  0  0  0  0  0  0  0  0  0  0  0
  -27.1780  -28.7530   20.7240 C   0  0  0  0  0  3  0  0  0  0  0  0
  -26.0490  -26.9370   19.5660 C   0  0  0  0  0  3  0  0  0  0  0  0
  -24.8430  -27.6660   19.5780 C   0  0  0  0  0  3  0  0  0  0  0  0
  -23.5630  -29.7950   20.2180 C   0  0  0  0  0  2  0  0  0  0  0  0
  -24.6320  -31.0880   22.1240 N   0  0  0  0  0  0  0  0  0  0  0  0
  -23.5180  -32.1620   23.7800 O   0  0  0  0  0  0  0  0  0  0  0  0
  -22.7210  -29.4690   22.5650 C   0  0  0  0  0  0  0  0  0  0  0  0
  -21.3940  -29.2930   22.4500 N   0  0  0  0  0  0  0  0  0  0  0  0
  -23.4110  -28.8400   23.3730 O   0  0  0  0  0  0  0  0  0  0  0  0
  -20.9010  -29.8540   21.7690 H   0  0  0  0  0  0  0  0  0  0  0  0
  -18.0200  -28.1210   22.9670 C   0  0  0  0  0  0  0  0  0  0  0  0
  -20.5800  -28.3610   23.2260 C   0  0  0  0  0  3  0  0  0  0  0  0
  -20.6710  -26.9300   22.6500 C   0  0  0  0  0  2  0  0  0  0  0  0
  -19.5620  -26.6130   21.6420 C   0  0  0  0  0  2  0  0  0  0  0  0
  -18.1840  -26.7690   22.2940 C   0  0  0  0  0  2  0  0  0  0  0  0
  -19.1460  -28.8750   23.3900 C   0  0  0  0  0  0  0  0  0  0  0  0
  -18.9400  -30.1420   23.9790 C   0  0  0  0  0  3  0  0  0  0  0  0
  -17.6400  -30.6540   24.1490 C   0  0  0  0  0  3  0  0  0  0  0  0
  -16.5280  -29.8960   23.7430 C   0  0  0  0  0  3  0  0  0  0  0  0
  -16.7190  -28.6310   23.1580 C   0  0  0  0  0  3  0  0  0  0  0  0
  -25.8890  -32.5110   23.8360 C   0  0  0  0  0  3  0  0  0  0  0  0
  -25.5910  -33.9090   24.1720 N   0  0  0  0  0  0  0  0  0  0  0  0
  -25.9270  -34.9600   23.4120 C   0  0  0  0  0  0  0  0  0  0  0  0
  -26.5890  -34.8550   22.3760 O   0  0  0  0  0  0  0  0  0  0  0  0
  -25.0030  -34.0660   24.9770 H   0  0  0  0  0  0  0  0  0  0  0  0
  -24.2050  -36.7600   23.0680 C   0  0  0  0  0  1  0  0  0  0  0  0
  -25.4480  -36.3490   23.8740 C   0  0  0  0  0  3  0  0  0  0  0  0
  -27.5920  -37.2210   24.6940 C   0  0  0  0  0  1  0  0  0  0  0  0
  -26.4840  -37.3970   23.7570 N   0  0  0  0  0  0  0  0  0  0  0  0
  -26.0840  -38.3190   23.9120 H   0  0  0  0  0  0  0  0  0  0  0  0
  -26.4200  -31.7320   25.1010 C   0  0  1  0  0  0  0  0  0  0  0  0
  -25.3410  -31.4930   26.1820 C   0  0  0  0  0  1  0  0  0  0  0  0
  -26.9920  -30.3550   24.6910 C   0  0  0  0  0  1  0  0  0  0  0  0
  -27.5820  -32.5180   25.7530 C   0  0  0  0  0  1  0  0  0  0  0  0
  1  2  2  0
  3  4  1  0
  3  1  1  0
  5  6  1  0
  5  4  1  0
  7 16  1  0
  7  6  1  0
  8 16  1  0
  9 14  1  0
 10 11  1  0
 10  9  1  0
 12 11  1  0
 12 21  1  0
 12 13  1  0
 14  8  1  0
 14 13  1  0
 15  8  2  0
 16 17  1  0
 18 19  2  0
 19 38  1  0
 20 19  1  0
 20 23  1  0
 21 22  1  0
 21 18  1  0
 22 20  2  0
 23 24  1  0
 24 25  2  0
 26 29  1  0
 26 25  1  0
 27 26  2  0
 28 27  1  0
 28 23  2  0
 29 30  1  0
 30 31  1  0
 31 32  2  0
 33 32  1  0
 33 37  1  0
 34 33  2  0
 35 30  2  0
 35 34  1  0
 36 35  1  0
 38 39  1  0
 39 42  1  0
 39 41  1  0
 40 38  2  0
 43 44  1  0
 43 18  1  0
 45 43  1  0
 46  1  1  0
 46 47  1  0
 48 47  1  0
 49 51  1  0
 49 48  1  0
 50 61  2  0
 51 56  1  0
 52 60  1  0
 52 62  1  0
 53 59  1  0
 53 55  1  0
 54 60  1  0
 55 54  1  0
 56 55  2  0
 57 58  1  0
 57 51  2  0
 58 53  2  0
 59 52  1  0
 60 50  1  0
 62 64  2  0
 63 62  1  0
 65 63  1  0
 66 75  2  0
 66 71  1  0
 67 63  1  0
 67 71  1  0
 68 67  1  0
 69 70  1  0
 69 68  1  0
 70 66  1  0
 71 72  2  0
 72 73  1  0
 74 73  2  0
 75 74  1  0
 76 50  1  0
 76 77  1  0
 76 86  1  0
 77 80  1  0
 78 82  1  0
 78 77  1  0
 79 78  2  0
 82 81  1  0
 84 82  1  0
 84 85  1  0
 84 83  1  0
 86 89  1  1
 86 87  1  0
 88 86  1  0
M  ISO  4   8 100  16 100  48 101  49 101
M  END
>  <TORSDO>  (82) 
F 24

>  <SCORE>  (82) 
-12.137

>  <name>  (82) 
87

>  <ligand_id>  (82) 
87

>  <original_smiles>  (82) 
[H]c1c([H])c([H])c2c(c1[H])C([H])([H])C([H])([H])C([H])([H])C2([H])N([H])C(=O)C1([H])N(C(=O)C([H])(N([H])C(=O)C([H])(N([H])C([H])([H])[H])C([H])([H])[H])C(C([H])([H])[H])(C([H])([H])[H])C([H])([H])[H])C([H])([H])c2c([H])c(OC([H])([H])C([H])([H])C([H])([H])C(=O)C([H])([H])C([H])([H])C([H])([H])C([H])([H])C([H])([H])N([H])C(=O)N3C([H])([H])C([H])([H])C([H])([H])C([H])(n4nc(-c5c([H])c([H])c(Oc6c([H])c([H])c(F)c([H])c6F)c([H])c5[H])c(C(=O)N([H])[H])c4N([H])[H])C3([H])[H])c([H])c([H])c2C1([H])[H]

>  <smiles>  (82) 
[H]c1c([H])c([H])c2c(c1[H])C([H])([H])C([H])([H])C([H])([H])C2([H])N([H])C(=O)C1([H])N(C(=O)C([H])(N([H])C(=O)C([H])(N([H])C([H])([H])[H])C([H])([H])[H])C(C([H])([H])[H])(C([H])([H])[H])C([H])([H])[H])C([H])([H])c2c([H])c(OC([H])([H])C([H])([H])C([H])([H])C(=O)C([H])([H])C([H])([H])C([H])([H])C([H])([H])C([H])([H])N([H])C(=O)N3C([H])([H])C([H])([H])C([H])([H])C([H])(n4nc(-c5c([H])c([H])c(Oc6c([H])c([H])c(F)c([H])c6F)c([H])c5[H])c(C(=O)N([H])[H])c4N([H])[H])C3([H])[H])c([H])c([H])c2C1([H])[H]

$$$$
88:0:0
     RDKit          3D

 89 96  0  0  1  0  0  0  0  0999 V2000
  -29.0090  -22.4540   20.0630 C   0  0  0  0  0  0  0  0  0  0  0  0
  -28.2810  -22.1930   19.1000 O   0  0  0  0  0  0  0  0  0  0  0  0
  -31.2500  -21.6250   21.0210 C   0  0  0  0  0  1  0  0  0  0  0  0
  -29.7560  -21.2840   20.8500 C   0  0  0  0  0  3  0  0  0  0  0  0
  -29.5880  -19.9320   20.1710 N   0  0  0  0  0  4  0  0  0  0  0  0
  -28.6500  -19.9220   19.8010 H   0  0  0  0  0  0  0  0  0  0  0  0
  -30.2020  -19.9170   19.3730 H   0  0  0  0  0  0  0  0  0  0  0  0
  -29.7930  -18.6700   20.9980 C   0  0  0  0  0  3  0  0  0  0  0  0
  -30.0580  -17.3010   20.2170 C   0  0  0  0  0  3  0  0  0  0  0  0
  -29.9660  -15.9310   21.0370 C   0  0  0  0  0  2  0  0  0  0  0  0
  -30.6370  -14.6320   20.4270 C   0  0  0  0  0  0  0  0  0  0  0  0
  -30.3750  -12.4110   19.3270 C   0  0  0  0  0  2  0  0  0  0  0  0
  -29.4330  -12.5690   18.1130 C   0  0  0  0  0  2  0  0  0  0  0  0
  -27.9590  -12.4300   18.5410 C   0  0  0  0  0  2  0  0  0  0  0  0
  -27.6170  -13.2830   19.7940 C   0  0  0  0  0  3  0  0  0  0  0  0
  -28.6760  -13.0970   20.9030 C   0  0  0  0  0  2  0  0  0  0  0  0
  -29.9880  -13.4260   20.3300 N   0  0  0  0  0  0  0  0  0  0  0  0
  -31.7720  -14.7580   19.9590 O   0  0  0  0  0  0  0  0  0  0  0  0
  -25.2270  -13.9040   20.5000 C   0  0  0  0  0  0  0  0  0  0  0  0
  -24.1530  -13.1430   20.8740 C   0  0  0  0  0  0  0  0  0  0  0  0
  -24.6040  -11.7870   20.8530 C   0  0  0  0  0  0  0  0  0  0  0  0
  -26.2660  -13.0150   20.2760 N   0  0  0  0  0  0  0  0  0  0  0  0
  -25.8950  -11.7360   20.5470 N   0  0  0  0  0  0  0  0  0  0  0  0
  -23.8660  -10.5330   21.0520 C   0  0  0  0  0  0  0  0  0  0  0  0
  -24.3040   -9.5550   21.9730 C   0  0  0  0  0  3  0  0  0  0  0  0
  -23.5680   -8.3660   22.1590 C   0  0  0  0  0  3  0  0  0  0  0  0
  -22.3780   -8.1450   21.4250 C   0  0  0  0  0  0  0  0  0  0  0  0
  -21.9590   -9.1100   20.4930 C   0  0  0  0  0  3  0  0  0  0  0  0
  -22.6960  -10.2910   20.3050 C   0  0  0  0  0  3  0  0  0  0  0  0
  -21.6110   -7.0090   21.5220 O   0  0  0  0  0  0  0  0  0  0  0  0
  -21.5930   -6.2490   22.6640 C   0  0  0  0  0  0  0  0  0  0  0  0
  -21.2360   -6.7940   23.9160 C   0  0  0  0  0  3  0  0  0  0  0  0
  -21.1620   -5.9610   25.0510 C   0  0  0  0  0  3  0  0  0  0  0  0
  -21.4350   -4.5860   24.9350 C   0  0  0  0  0  0  0  0  0  0  0  0
  -21.7840   -4.0400   23.6880 C   0  0  0  0  0  3  0  0  0  0  0  0
  -21.8600   -4.8690   22.5550 C   0  0  0  0  0  0  0  0  0  0  0  0
  -22.1780   -4.3340   21.3510 F   0  0  0  0  0  0  0  0  0  0  0  0
  -21.3560   -3.7840   26.0230 F   0  0  0  0  0  0  0  0  0  0  0  0
  -22.7590  -13.6340   21.1410 C   0  0  0  0  0  0  0  0  0  0  0  0
  -22.0270  -12.9520   22.0150 N   0  0  0  0  0  0  0  0  0  0  0  0
  -22.3300  -14.6580   20.6110 O   0  0  0  0  0  0  0  0  0  0  0  0
  -22.3890  -12.1240   22.4660 H   0  0  0  0  0  0  0  0  0  0  0  0
  -21.0920  -13.2610   22.2370 H   0  0  0  0  0  0  0  0  0  0  0  0
  -25.4040  -15.2730   20.3140 N   0  0  0  0  0  0  0  0  0  0  0  0
  -24.6430  -15.9360   20.4190 H   0  0  0  0  0  0  0  0  0  0  0  0
  -26.2610  -15.7000   19.9880 H   0  0  0  0  0  0  0  0  0  0  0  0
  -29.1820  -23.9690   20.4960 C   0  0  0  0  0  3  0  0  0  0  0  0
  -28.1330  -25.0280   19.9390 C   0  0  0  0  0  3  0  0  0  0  0  0
  -28.3170  -26.4760   20.2130 O   0  0  0  0  0  0  0  0  0  0  0  0
  -24.6070  -31.8680   23.2360 C   0  0  0  0  0  0  0  0  0  0  0  0
  -27.1930  -27.3190   20.1530 C   0  0  0  0  0  0  0  0  0  0  0  0
  -23.3880  -30.4720   21.6050 C   0  0  0  0  0  3  0  0  0  0  0  0
  -24.8250  -28.9270   20.1640 C   0  0  0  0  0  0  0  0  0  0  0  0
  -25.9260  -30.7920   21.4010 C   0  0  0  0  0  2  0  0  0  0  0  0
  -25.9990  -29.4140   20.7520 C   0  0  0  0  0  0  0  0  0  0  0  0
  -27.1840  -28.6220   20.7380 C   0  0  0  0  0  3  0  0  0  0  0  0
  -25.9970  -26.8880   19.5300 C   0  0  0  0  0  3  0  0  0  0  0  0
  -24.8260  -27.6680   19.5460 C   0  0  0  0  0  3  0  0  0  0  0  0
  -23.5900  -29.7990   20.2230 C   0  0  0  0  0  2  0  0  0  0  0  0
  -24.6600  -31.0610   22.1380 N   0  0  0  0  0  0  0  0  0  0  0  0
  -23.5290  -32.1460   23.7800 O   0  0  0  0  0  0  0  0  0  0  0  0
  -22.7330  -29.4550   22.5690 C   0  0  0  0  0  0  0  0  0  0  0  0
  -21.4080  -29.2750   22.4490 N   0  0  0  0  0  0  0  0  0  0  0  0
  -23.4180  -28.8310   23.3850 O   0  0  0  0  0  0  0  0  0  0  0  0
  -20.9160  -29.8300   21.7630 H   0  0  0  0  0  0  0  0  0  0  0  0
  -18.0360  -28.0670   22.9570 C   0  0  0  0  0  0  0  0  0  0  0  0
  -20.5930  -28.3390   23.2260 C   0  0  0  0  0  3  0  0  0  0  0  0
  -20.7020  -26.9050   22.6610 C   0  0  0  0  0  2  0  0  0  0  0  0
  -19.6020  -26.5700   21.6490 C   0  0  0  0  0  2  0  0  0  0  0  0
  -18.2190  -26.7130   22.2910 C   0  0  0  0  0  2  0  0  0  0  0  0
  -19.1510  -28.8370   23.3820 C   0  0  0  0  0  0  0  0  0  0  0  0
  -18.9260  -30.1040   23.9640 C   0  0  0  0  0  3  0  0  0  0  0  0
  -17.6180  -30.5990   24.1270 C   0  0  0  0  0  3  0  0  0  0  0  0
  -16.5180  -29.8260   23.7170 C   0  0  0  0  0  3  0  0  0  0  0  0
  -16.7270  -28.5620   23.1370 C   0  0  0  0  0  3  0  0  0  0  0  0
  -25.8960  -32.4980   23.8470 C   0  0  0  0  0  3  0  0  0  0  0  0
  -26.4280  -31.7200   25.1140 C   0  0  1  0  0  0  0  0  0  0  0  0
  -25.3460  -31.4800   26.1940 C   0  0  0  0  0  1  0  0  0  0  0  0
  -27.0050  -30.3440   24.7110 C   0  0  0  0  0  1  0  0  0  0  0  0
  -27.5850  -32.5110   25.7670 C   0  0  0  0  0  1  0  0  0  0  0  0
  -25.5890  -33.8950   24.1880 N   0  0  0  0  0  0  0  0  0  0  0  0
  -25.9070  -34.9520   23.4310 C   0  0  0  0  0  0  0  0  0  0  0  0
  -26.5610  -34.8560   22.3890 O   0  0  0  0  0  0  0  0  0  0  0  0
  -25.0030  -34.0430   24.9980 H   0  0  0  0  0  0  0  0  0  0  0  0
  -24.1650  -36.7400   23.1180 C   0  0  0  0  0  1  0  0  0  0  0  0
  -25.4230  -36.3370   23.9030 C   0  0  0  0  0  3  0  0  0  0  0  0
  -27.5730  -37.2250   24.6890 C   0  0  0  0  0  1  0  0  0  0  0  0
  -26.4500  -37.3950   23.7720 N   0  0  0  0  0  0  0  0  0  0  0  0
  -26.0440  -38.3120   23.9350 H   0  0  0  0  0  0  0  0  0  0  0  0
  1 47  1  0
  1  4  1  0
  2  1  2  0
  4  3  1  0
  5  4  1  0
  5  8  1  0
  6  5  1  0
  7  5  1  0
  9  8  2  0
  9 10  1  0
 11 10  1  0
 12 17  1  0
 13 14  1  0
 13 12  1  0
 15 14  1  0
 15 22  1  0
 15 16  1  0
 17 11  1  0
 17 16  1  0
 18 11  2  0
 19 20  2  0
 20 39  1  0
 21 20  1  0
 21 24  1  0
 22 19  1  0
 22 23  1  0
 23 21  2  0
 24 25  1  0
 25 26  2  0
 27 30  1  0
 27 26  1  0
 28 27  2  0
 29 28  1  0
 29 24  2  0
 30 31  1  0
 31 32  1  0
 32 33  2  0
 34 33  1  0
 34 38  1  0
 35 34  2  0
 36 31  2  0
 36 35  1  0
 37 36  1  0
 39 40  1  0
 40 43  1  0
 40 42  1  0
 41 39  2  0
 44 45  1  0
 44 19  1  0
 46 44  1  0
 48 49  1  0
 48 47  2  0
 50 61  2  0
 51 49  1  0
 51 56  1  0
 52 60  1  0
 52 62  1  0
 53 59  1  0
 53 55  1  0
 54 60  1  0
 55 54  1  0
 56 55  2  0
 57 58  1  0
 57 51  2  0
 58 53  2  0
 59 52  1  0
 60 50  1  0
 62 64  2  0
 63 62  1  0
 65 63  1  0
 66 75  2  0
 66 71  1  0
 67 63  1  0
 67 71  1  0
 68 67  1  0
 69 70  1  0
 69 68  1  0
 70 66  1  0
 71 72  2  0
 72 73  1  0
 74 73  2  0
 75 74  1  0
 76 50  1  0
 76 81  1  0
 76 77  1  0
 77 80  1  1
 77 78  1  0
 79 77  1  0
 81 84  1  0
 82 86  1  0
 82 81  1  0
 83 82  2  0
 86 85  1  0
 88 86  1  0
 88 89  1  0
 88 87  1  0
M  ISO  4  10 100  11 100  48 101  49 101
M  END
>  <TORSDO>  (83) 
F 23

>  <SCORE>  (83) 
-12.623

>  <name>  (83) 
88

>  <ligand_id>  (83) 
88

>  <original_smiles>  (83) 
[H]c1c([H])c([H])c2c(c1[H])C([H])([H])C([H])([H])C([H])([H])C2([H])N([H])C(=O)C1([H])N(C(=O)C([H])(N([H])C(=O)C([H])(N([H])C([H])([H])[H])C([H])([H])[H])C(C([H])([H])[H])(C([H])([H])[H])C([H])([H])[H])C([H])([H])c2c([H])c(OC([H])([H])C([H])([H])C(=O)C([H])(C([H])([H])[H])[N+]([H])([H])C([H])([H])C([H])([H])C([H])([H])C(=O)N3C([H])([H])C([H])([H])C([H])([H])C([H])(n4nc(-c5c([H])c([H])c(Oc6c([H])c([H])c(F)c([H])c6F)c([H])c5[H])c(C(=O)N([H])[H])c4N([H])[H])C3([H])[H])c([H])c([H])c2C1([H])[H]

>  <smiles>  (83) 
[H]c1c([H])c([H])c2c(c1[H])C([H])([H])C([H])([H])C([H])([H])C2([H])N([H])C(=O)C1([H])N(C(=O)C([H])(N([H])C(=O)C([H])(N([H])C([H])([H])[H])C([H])([H])[H])C(C([H])([H])[H])(C([H])([H])[H])C([H])([H])[H])C([H])([H])c2c([H])c(OC([H])([H])C([H])([H])C(=O)C([H])(C([H])([H])[H])[N+]([H])([H])C([H])([H])C([H])([H])C([H])([H])C(=O)N3C([H])([H])C([H])([H])C([H])([H])C([H])(n4nc(-c5c([H])c([H])c(Oc6c([H])c([H])c(F)c([H])c6F)c([H])c5[H])c(C(=O)N([H])[H])c4N([H])[H])C3([H])[H])c([H])c([H])c2C1([H])[H]

$$$$
89:0:0
     RDKit          3D

105112  0  0  1  0  0  0  0  0999 V2000
  -33.4820  -18.5600   25.5490 C   0  0  0  0  0  2  0  0  0  0  0  0
  -32.6400  -17.3080   25.8510 C   0  0  0  0  0  2  0  0  0  0  0  0
  -32.5060  -16.3350   24.6580 C   0  0  0  0  0  2  0  0  0  0  0  0
  -32.1550  -16.9940   23.3090 C   0  0  0  0  0  2  0  0  0  0  0  0
  -30.9770  -17.8810   23.4190 N   0  0  0  0  0  4  0  0  0  0  0  0
  -30.8160  -18.0310   24.4010 H   0  0  0  0  0  0  0  0  0  0  0  0
  -30.1650  -17.4120   23.0490 H   0  0  0  0  0  0  0  0  0  0  0  0
  -31.1140  -19.2170   22.7870 C   0  0  0  0  0  3  0  0  0  0  0  0
  -31.3340  -19.0890   21.2510 C   0  0  0  0  0  3  0  0  0  0  0  0
  -29.7700  -18.1430   19.5360 C   0  0  0  0  0  0  0  0  0  0  0  0
  -28.1620  -17.6210   17.7420 C   0  0  0  0  0  2  0  0  0  0  0  0
  -28.4040  -18.5070   16.5050 C   0  0  0  0  0  2  0  0  0  0  0  0
  -27.6630  -19.8520   16.6370 C   0  0  0  0  0  2  0  0  0  0  0  0
  -27.9230  -20.5410   18.0030 C   0  0  0  0  0  3  0  0  0  0  0  0
  -27.7070  -19.5440   19.1630 C   0  0  0  0  0  2  0  0  0  0  0  0
  -28.5770  -18.3730   18.9340 N   0  0  0  0  0  0  0  0  0  0  0  0
  -30.5440  -17.2440   19.1970 O   0  0  0  0  0  0  0  0  0  0  0  0
  -30.0580  -18.9870   20.5370 N   0  0  0  0  0  0  0  0  0  0  0  0
  -29.3680  -19.7010   20.7140 H   0  0  0  0  0  0  0  0  0  0  0  0
  -27.4550  -23.0740   18.0670 C   0  0  0  0  0  0  0  0  0  0  0  0
  -26.2960  -23.7840   18.2310 C   0  0  0  0  0  0  0  0  0  0  0  0
  -25.2620  -22.8170   18.4160 C   0  0  0  0  0  0  0  0  0  0  0  0
  -27.0970  -21.7370   18.1610 N   0  0  0  0  0  0  0  0  0  0  0  0
  -25.7740  -21.5920   18.4250 N   0  0  0  0  0  0  0  0  0  0  0  0
  -23.8070  -22.9800   18.5290 C   0  0  0  0  0  0  0  0  0  0  0  0
  -23.1020  -22.5520   19.6760 C   0  0  0  0  0  3  0  0  0  0  0  0
  -21.7060  -22.7360   19.7670 C   0  0  0  0  0  3  0  0  0  0  0  0
  -21.0010  -23.3550   18.7090 C   0  0  0  0  0  0  0  0  0  0  0  0
  -21.7040  -23.7590   17.5610 C   0  0  0  0  0  3  0  0  0  0  0  0
  -23.0930  -23.5710   17.4680 C   0  0  0  0  0  3  0  0  0  0  0  0
  -19.6410  -23.5520   18.7000 O   0  0  0  0  0  0  0  0  0  0  0  0
  -18.9380  -23.7740   19.8560 C   0  0  0  0  0  0  0  0  0  0  0  0
  -19.2860  -24.8070   20.7540 C   0  0  0  0  0  3  0  0  0  0  0  0
  -18.4940  -25.0430   21.8950 C   0  0  0  0  0  3  0  0  0  0  0  0
  -17.3520  -24.2580   22.1350 C   0  0  0  0  0  0  0  0  0  0  0  0
  -17.0010  -23.2320   21.2400 C   0  0  0  0  0  3  0  0  0  0  0  0
  -17.7900  -22.9930   20.1020 C   0  0  0  0  0  0  0  0  0  0  0  0
  -17.4350  -22.0180   19.2310 F   0  0  0  0  0  0  0  0  0  0  0  0
  -16.5860  -24.4900   23.2280 F   0  0  0  0  0  0  0  0  0  0  0  0
  -26.1370  -25.2740   18.1310 C   0  0  0  0  0  0  0  0  0  0  0  0
  -25.3440  -25.8680   19.0170 N   0  0  0  0  0  0  0  0  0  0  0  0
  -26.7550  -25.9290   17.2920 O   0  0  0  0  0  0  0  0  0  0  0  0
  -24.8530  -25.3320   19.7180 H   0  0  0  0  0  0  0  0  0  0  0  0
  -25.2280  -26.8700   18.9950 H   0  0  0  0  0  0  0  0  0  0  0  0
  -28.7730  -23.4490   17.8270 N   0  0  0  0  0  0  0  0  0  0  0  0
  -29.0460  -24.4170   17.7010 H   0  0  0  0  0  0  0  0  0  0  0  0
  -29.5370  -22.8000   17.6830 H   0  0  0  0  0  0  0  0  0  0  0  0
  -32.5910  -20.0060   19.1830 C   0  0  0  0  0  1  0  0  0  0  0  0
  -32.1950  -20.2270   20.6510 C   0  0  0  0  0  2  0  0  0  0  0  0
  -29.8950  -20.0980   23.1610 C   0  0  0  0  0  2  0  0  0  0  0  0
  -29.7800  -20.3990   24.6680 C   0  0  0  0  0  2  0  0  0  0  0  0
  -28.5000  -21.6440   26.4890 C   0  0  0  0  0  1  0  0  0  0  0  0
  -28.6260  -21.3630   24.9870 C   0  0  0  0  0  2  0  0  0  0  0  0
  -33.4110  -19.6170   26.6650 C   0  0  0  0  0  2  0  0  0  0  0  0
  -33.4590  -21.0550   26.1210 C   0  0  0  0  0  2  0  0  0  0  0  0
  -32.1090  -21.5370   25.5540 C   0  0  0  0  0  2  0  0  0  0  0  0
  -32.2240  -22.8650   24.7890 C   0  0  0  0  0  2  0  0  0  0  0  0
  -30.8980  -23.2750   24.1200 C   0  0  0  0  0  2  0  0  0  0  0  0
  -30.9920  -24.6220   23.3790 C   0  0  0  0  0  2  0  0  0  0  0  0
  -29.7420  -24.9470   22.6570 N   0  0  0  0  0  4  0  0  0  0  0  0
  -29.5930  -24.2600   21.9340 H   0  0  0  0  0  0  0  0  0  0  0  0
  -28.9810  -24.8720   23.3130 H   0  0  0  0  0  0  0  0  0  0  0  0
  -29.7280  -26.3080   22.0630 C   0  0  0  0  0  2  0  0  0  0  0  0
  -28.4000  -26.6420   21.3570 C   0  0  0  0  0  2  0  0  0  0  0  0
  -28.4610  -28.0100   20.9580 O   0  0  0  0  0  0  0  0  0  0  0  0
  -24.7620  -33.0990   24.2290 C   0  0  0  0  0  0  0  0  0  0  0  0
  -27.2780  -28.7030   21.0150 C   0  0  0  0  0  0  0  0  0  0  0  0
  -23.4880  -31.7220   22.6130 C   0  0  0  0  0  3  0  0  0  0  0  0
  -24.8840  -30.1900   21.1250 C   0  0  0  0  0  0  0  0  0  0  0  0
  -26.0030  -32.0790   22.3250 C   0  0  0  0  0  2  0  0  0  0  0  0
  -26.0610  -30.7160   21.6710 C   0  0  0  0  0  0  0  0  0  0  0  0
  -27.2620  -29.9820   21.6080 C   0  0  0  0  0  3  0  0  0  0  0  0
  -26.0860  -28.1750   20.4710 C   0  0  0  0  0  3  0  0  0  0  0  0
  -24.8900  -28.9170   20.5260 C   0  0  0  0  0  3  0  0  0  0  0  0
  -23.6460  -31.0530   21.2220 C   0  0  0  0  0  2  0  0  0  0  0  0
  -24.7710  -32.3130   23.1150 N   0  0  0  0  0  0  0  0  0  0  0  0
  -23.7020  -33.3720   24.8120 O   0  0  0  0  0  0  0  0  0  0  0  0
  -22.8660  -30.6940   23.5830 C   0  0  0  0  0  0  0  0  0  0  0  0
  -21.5760  -30.3860   23.3800 N   0  0  0  0  0  0  0  0  0  0  0  0
  -23.5440  -30.1730   24.4720 O   0  0  0  0  0  0  0  0  0  0  0  0
  -21.0880  -30.8600   22.6330 H   0  0  0  0  0  0  0  0  0  0  0  0
  -18.4930  -28.5050   23.3880 C   0  0  0  0  0  0  0  0  0  0  0  0
  -20.7900  -29.4170   24.1430 C   0  0  0  0  0  3  0  0  0  0  0  0
  -21.3180  -27.9800   23.9300 C   0  0  0  0  0  2  0  0  0  0  0  0
  -20.6020  -27.2380   22.7980 C   0  0  0  0  0  2  0  0  0  0  0  0
  -19.1000  -27.1470   23.0810 C   0  0  0  0  0  2  0  0  0  0  0  0
  -19.2900  -29.5760   23.8720 C   0  0  0  0  0  0  0  0  0  0  0  0
  -18.6830  -30.8290   24.1050 C   0  0  0  0  0  3  0  0  0  0  0  0
  -17.3080  -31.0190   23.8730 C   0  0  0  0  0  3  0  0  0  0  0  0
  -16.5200  -29.9490   23.4110 C   0  0  0  0  0  3  0  0  0  0  0  0
  -17.1120  -28.6970   23.1700 C   0  0  0  0  0  3  0  0  0  0  0  0
  -26.0750  -33.7120   24.8100 C   0  0  0  0  0  3  0  0  0  0  0  0
  -25.7990  -35.1170   25.1360 N   0  0  0  0  0  0  0  0  0  0  0  0
  -26.1650  -36.1590   24.3780 C   0  0  0  0  0  0  0  0  0  0  0  0
  -26.8410  -36.0360   23.3520 O   0  0  0  0  0  0  0  0  0  0  0  0
  -25.2000  -35.2890   25.9310 H   0  0  0  0  0  0  0  0  0  0  0  0
  -24.4950  -37.9960   23.9940 C   0  0  0  0  0  1  0  0  0  0  0  0
  -25.7080  -37.5580   24.8290 C   0  0  0  0  0  3  0  0  0  0  0  0
  -27.8700  -38.3610   25.6730 C   0  0  0  0  0  1  0  0  0  0  0  0
  -26.7710  -38.5820   24.7370 N   0  0  0  0  0  0  0  0  0  0  0  0
  -26.3930  -39.5100   24.9080 H   0  0  0  0  0  0  0  0  0  0  0  0
  -26.6150  -32.9400   26.0750 C   0  0  1  0  0  0  0  0  0  0  0  0
  -25.5430  -32.7100   27.1670 C   0  0  0  0  0  1  0  0  0  0  0  0
  -27.1800  -31.5600   25.6670 C   0  0  0  0  0  1  0  0  0  0  0  0
  -27.7840  -33.7280   26.7100 C   0  0  0  0  0  1  0  0  0  0  0  0
  1  2  1  0
  1 54  1  0
  3  2  1  0
  4  5  1  0
  4  3  1  0
  5  6  1  0
  7  5  1  0
  8 50  1  0
  8  5  1  0
  9 49  1  0
  9  8  1  0
 10 18  1  0
 11 16  1  0
 12 13  1  0
 12 11  1  0
 14 13  1  0
 14 23  1  0
 14 15  1  0
 16 15  1  0
 16 10  1  0
 17 10  2  0
 18 19  1  0
 18  9  1  0
 20 23  1  0
 20 21  2  0
 21 22  1  0
 22 24  2  0
 22 25  1  0
 23 24  1  0
 25 26  1  0
 26 27  2  0
 28 27  1  0
 29 28  2  0
 30 29  1  0
 30 25  2  0
 31 28  1  0
 31 32  1  0
 32 37  2  0
 32 33  1  0
 33 34  2  0
 34 35  1  0
 35 39  1  0
 36 35  2  0
 37 36  1  0
 38 37  1  0
 40 21  1  0
 40 41  1  0
 41 43  1  0
 42 40  2  0
 44 41  1  0
 45 20  1  0
 46 45  1  0
 47 45  1  0
 48 49  1  0
 50 51  1  0
 51 53  1  0
 53 52  1  0
 55 54  1  0
 56 55  1  0
 57 56  1  0
 58 57  1  0
 59 58  1  0
 60 62  1  0
 60 59  1  0
 61 60  1  0
 63 60  1  0
 64 63  1  0
 65 67  1  0
 65 64  1  0
 66 77  2  0
 67 72  1  0
 68 76  1  0
 68 78  1  0
 69 75  1  0
 69 71  1  0
 70 76  1  0
 71 70  1  0
 72 71  2  0
 73 74  1  0
 73 67  2  0
 74 69  2  0
 75 68  1  0
 76 66  1  0
 78 80  2  0
 79 78  1  0
 81 79  1  0
 82 87  1  0
 83 79  1  0
 84 83  1  0
 85 86  1  0
 85 84  1  0
 86 82  1  0
 87 88  2  0
 87 83  1  0
 89 88  1  0
 90 89  2  0
 91 82  2  0
 91 90  1  0
 92 66  1  0
 92 93  1  0
 92102  1  0
 93 96  1  0
 94 98  1  0
 94 93  1  0
 95 94  2  0
 98 97  1  0
100 98  1  0
100101  1  0
100 99  1  0
102105  1  1
102103  1  0
104102  1  0
M  ISO  4  10 100  18 100  64 101  65 101
M  END
>  <TORSDO>  (84) 
F 35

>  <SCORE>  (84) 
44.224

>  <name>  (84) 
89

>  <ligand_id>  (84) 
89

>  <original_smiles>  (84) 
[H]c1c([H])c([H])c2c(c1[H])C([H])([H])C([H])([H])C([H])([H])C2([H])N([H])C(=O)C1([H])N(C(=O)C([H])(N([H])C(=O)C([H])(N([H])C([H])([H])[H])C([H])([H])[H])C(C([H])([H])[H])(C([H])([H])[H])C([H])([H])[H])C([H])([H])c2c([H])c(OC([H])([H])C([H])([H])[N+]([H])([H])C([H])([H])C([H])([H])C([H])([H])C([H])([H])C([H])([H])C([H])([H])C([H])([H])C([H])([H])C([H])([H])C([H])([H])[N+]([H])([H])C([H])(C([H])([H])C([H])([H])C([H])([H])C([H])([H])[H])C([H])(N([H])C(=O)N3C([H])([H])C([H])([H])C([H])([H])C([H])(n4nc(-c5c([H])c([H])c(Oc6c([H])c([H])c(F)c([H])c6F)c([H])c5[H])c(C(=O)N([H])[H])c4N([H])[H])C3([H])[H])C([H])([H])C([H])([H])[H])c([H])c([H])c2C1([H])[H]

>  <smiles>  (84) 
[H]c1c([H])c([H])c2c(c1[H])C([H])([H])C([H])([H])C([H])([H])C2([H])N([H])C(=O)C1([H])N(C(=O)C([H])(N([H])C(=O)C([H])(N([H])C([H])([H])[H])C([H])([H])[H])C(C([H])([H])[H])(C([H])([H])[H])C([H])([H])[H])C([H])([H])c2c([H])c(OC([H])([H])C([H])([H])[N+]([H])([H])C([H])([H])C([H])([H])C([H])([H])C([H])([H])C([H])([H])C([H])([H])C([H])([H])C([H])([H])C([H])([H])C([H])([H])[N+]([H])([H])C([H])(C([H])([H])C([H])([H])C([H])([H])C([H])([H])[H])C([H])(N([H])C(=O)N3C([H])([H])C([H])([H])C([H])([H])C([H])(n4nc(-c5c([H])c([H])c(Oc6c([H])c([H])c(F)c([H])c6F)c([H])c5[H])c(C(=O)N([H])[H])c4N([H])[H])C3([H])[H])C([H])([H])C([H])([H])[H])c([H])c([H])c2C1([H])[H]

$$$$
90:0:0
     RDKit          3D

 91 98  0  0  1  0  0  0  0  0999 V2000
  -28.4310  -21.8610   21.3800 C   0  0  0  0  0  3  0  0  0  0  0  0
  -29.3180  -22.0000   22.5520 N   0  0  0  0  0  4  0  0  0  0  0  0
  -30.2760  -21.8200   22.3090 H   0  0  0  0  0  0  0  0  0  0  0  0
  -29.0440  -21.3580   23.2750 H   0  0  0  0  0  0  0  0  0  0  0  0
  -29.2600  -22.9280   22.9330 H   0  0  0  0  0  0  0  0  0  0  0  0
  -28.3250  -20.3730   20.8980 C   0  0  0  0  0  2  0  0  0  0  0  0
  -29.6080  -19.4940   20.8080 C   0  0  0  0  0  2  0  0  0  0  0  0
  -29.2840  -17.9770   20.6600 C   0  0  0  0  0  2  0  0  0  0  0  0
  -30.5000  -17.0240   20.7910 C   0  0  0  0  0  2  0  0  0  0  0  0
  -30.8230  -14.5650   20.3700 C   0  0  0  0  0  0  0  0  0  0  0  0
  -30.5380  -12.3730   19.2820 C   0  0  0  0  0  2  0  0  0  0  0  0
  -29.5980  -12.5400   18.0680 C   0  0  0  0  0  2  0  0  0  0  0  0
  -28.1230  -12.4140   18.4970 C   0  0  0  0  0  2  0  0  0  0  0  0
  -27.7780  -13.2820   19.7360 C   0  0  0  0  0  3  0  0  0  0  0  0
  -28.8300  -13.0940   20.8530 C   0  0  0  0  0  2  0  0  0  0  0  0
  -30.1560  -13.3820   20.2800 N   0  0  0  0  0  0  0  0  0  0  0  0
  -31.9560  -14.7340   19.9130 O   0  0  0  0  0  0  0  0  0  0  0  0
  -30.1030  -15.6050   20.8330 N   0  0  0  0  0  0  0  0  0  0  0  0
  -29.1790  -15.3890   21.1770 H   0  0  0  0  0  0  0  0  0  0  0  0
  -25.3810  -13.9030   20.4390 C   0  0  0  0  0  0  0  0  0  0  0  0
  -24.3090  -13.1380   20.8090 C   0  0  0  0  0  0  0  0  0  0  0  0
  -24.7640  -11.7830   20.7860 C   0  0  0  0  0  0  0  0  0  0  0  0
  -26.4230  -13.0170   20.2150 N   0  0  0  0  0  0  0  0  0  0  0  0
  -26.0550  -11.7380   20.4820 N   0  0  0  0  0  0  0  0  0  0  0  0
  -24.0310  -10.5250   20.9790 C   0  0  0  0  0  0  0  0  0  0  0  0
  -24.4340   -9.5770   21.9450 C   0  0  0  0  0  3  0  0  0  0  0  0
  -23.7040   -8.3830   22.1260 C   0  0  0  0  0  3  0  0  0  0  0  0
  -22.5550   -8.1290   21.3390 C   0  0  0  0  0  0  0  0  0  0  0  0
  -22.1710   -9.0660   20.3630 C   0  0  0  0  0  3  0  0  0  0  0  0
  -22.9040  -10.2510   20.1810 C   0  0  0  0  0  3  0  0  0  0  0  0
  -21.7980   -6.9860   21.4260 O   0  0  0  0  0  0  0  0  0  0  0  0
  -21.6870   -6.2850   22.6000 C   0  0  0  0  0  0  0  0  0  0  0  0
  -21.1660   -6.8740   23.7740 C   0  0  0  0  0  3  0  0  0  0  0  0
  -21.0030   -6.0980   24.9380 C   0  0  0  0  0  3  0  0  0  0  0  0
  -21.3520   -4.7330   24.9310 C   0  0  0  0  0  0  0  0  0  0  0  0
  -21.8680   -4.1440   23.7630 C   0  0  0  0  0  3  0  0  0  0  0  0
  -22.0310   -4.9180   22.6000 C   0  0  0  0  0  0  0  0  0  0  0  0
  -22.5080   -4.3410   21.4710 F   0  0  0  0  0  0  0  0  0  0  0  0
  -21.1890   -3.9860   26.0470 F   0  0  0  0  0  0  0  0  0  0  0  0
  -22.9130  -13.6230   21.0780 C   0  0  0  0  0  0  0  0  0  0  0  0
  -22.1770  -12.9300   21.9400 N   0  0  0  0  0  0  0  0  0  0  0  0
  -22.4830  -14.6510   20.5580 O   0  0  0  0  0  0  0  0  0  0  0  0
  -22.5370  -12.0970   22.3840 H   0  0  0  0  0  0  0  0  0  0  0  0
  -21.2410  -13.2380   22.1610 H   0  0  0  0  0  0  0  0  0  0  0  0
  -25.5530  -15.2730   20.2530 N   0  0  0  0  0  0  0  0  0  0  0  0
  -24.7880  -15.9310   20.3540 H   0  0  0  0  0  0  0  0  0  0  0  0
  -26.4060  -15.7050   19.9230 H   0  0  0  0  0  0  0  0  0  0  0  0
  -28.7340  -22.9380   20.2930 C   0  0  0  0  0  2  0  0  0  0  0  0
  -28.3730  -24.3930   20.7390 C   0  0  0  0  0  2  0  0  0  0  0  0
  -28.7000  -25.5130   19.7180 C   0  0  0  0  0  2  0  0  0  0  0  0
  -28.5490  -26.8380   20.2700 O   0  0  0  0  0  0  0  0  0  0  0  0
  -24.5670  -31.9430   23.2580 C   0  0  0  0  0  0  0  0  0  0  0  0
  -27.3380  -27.5110   20.2380 C   0  0  0  0  0  0  0  0  0  0  0  0
  -23.4130  -30.5170   21.5990 C   0  0  0  0  0  3  0  0  0  0  0  0
  -24.9160  -28.9950   20.2080 C   0  0  0  0  0  0  0  0  0  0  0  0
  -25.9390  -30.9070   21.4500 C   0  0  0  0  0  2  0  0  0  0  0  0
  -26.0560  -29.5340   20.8150 C   0  0  0  0  0  0  0  0  0  0  0  0
  -27.2660  -28.8000   20.8240 C   0  0  0  0  0  3  0  0  0  0  0  0
  -26.1690  -26.9840   19.6400 C   0  0  0  0  0  3  0  0  0  0  0  0
  -24.9680  -27.7200   19.6210 C   0  0  0  0  0  3  0  0  0  0  0  0
  -23.6590  -29.8370   20.2260 C   0  0  0  0  0  2  0  0  0  0  0  0
  -24.6570  -31.1380   22.1610 N   0  0  0  0  0  0  0  0  0  0  0  0
  -23.4710  -32.2010   23.7760 O   0  0  0  0  0  0  0  0  0  0  0  0
  -22.7590  -29.4890   22.5500 C   0  0  0  0  0  0  0  0  0  0  0  0
  -21.4380  -29.2940   22.4020 N   0  0  0  0  0  0  0  0  0  0  0  0
  -23.4360  -28.8720   23.3750 O   0  0  0  0  0  0  0  0  0  0  0  0
  -20.9530  -29.8440   21.7080 H   0  0  0  0  0  0  0  0  0  0  0  0
  -18.0670  -28.0800   22.8600 C   0  0  0  0  0  0  0  0  0  0  0  0
  -20.6200  -28.3470   23.1600 C   0  0  0  0  0  3  0  0  0  0  0  0
  -20.7350  -26.9200   22.5750 C   0  0  0  0  0  2  0  0  0  0  0  0
  -19.6440  -26.5980   21.5490 C   0  0  0  0  0  2  0  0  0  0  0  0
  -18.2550  -26.7340   22.1800 C   0  0  0  0  0  2  0  0  0  0  0  0
  -19.1770  -28.8430   23.3050 C   0  0  0  0  0  0  0  0  0  0  0  0
  -18.9480  -30.1040   23.8990 C   0  0  0  0  0  3  0  0  0  0  0  0
  -17.6390  -30.5990   24.0550 C   0  0  0  0  0  3  0  0  0  0  0  0
  -16.5420  -29.8310   23.6280 C   0  0  0  0  0  3  0  0  0  0  0  0
  -16.7570  -28.5740   23.0350 C   0  0  0  0  0  3  0  0  0  0  0  0
  -25.8310  -32.5940   23.9010 C   0  0  0  0  0  3  0  0  0  0  0  0
  -26.3290  -31.8410   25.1950 C   0  0  1  0  0  0  0  0  0  0  0  0
  -25.2140  -31.5940   26.2370 C   0  0  0  0  0  1  0  0  0  0  0  0
  -26.9460  -30.4710   24.8280 C   0  0  0  0  0  1  0  0  0  0  0  0
  -27.4480  -32.6610   25.8800 C   0  0  0  0  0  1  0  0  0  0  0  0
  -25.5000  -33.9920   24.2090 N   0  0  0  0  0  0  0  0  0  0  0  0
  -25.8360  -35.0400   23.4460 C   0  0  0  0  0  0  0  0  0  0  0  0
  -26.5300  -34.9340   22.4300 O   0  0  0  0  0  0  0  0  0  0  0  0
  -24.8870  -34.1470   24.9970 H   0  0  0  0  0  0  0  0  0  0  0  0
  -24.0950  -36.8070   23.0350 C   0  0  0  0  0  1  0  0  0  0  0  0
  -25.3220  -36.4260   23.8790 C   0  0  0  0  0  3  0  0  0  0  0  0
  -27.4230  -37.3470   24.7530 C   0  0  0  0  0  1  0  0  0  0  0  0
  -26.3440  -37.4900   23.7790 N   0  0  0  0  0  0  0  0  0  0  0  0
  -25.9240  -38.4070   23.9060 H   0  0  0  0  0  0  0  0  0  0  0  0
  1 48  1  0
  1  2  1  0
  2  5  1  0
  2  4  1  0
  3  2  1  0
  6  1  1  0
  7  6  1  0
  8  9  1  0
  8  7  1  0
  9 18  1  0
 10 18  1  0
 11 16  1  0
 12 13  1  0
 12 11  1  0
 14 13  1  0
 14 23  1  0
 14 15  1  0
 16 10  1  0
 16 15  1  0
 17 10  2  0
 18 19  1  0
 20 21  2  0
 21 40  1  0
 22 21  1  0
 22 25  1  0
 23 20  1  0
 23 24  1  0
 24 22  2  0
 25 26  1  0
 26 27  2  0
 28 31  1  0
 28 27  1  0
 29 28  2  0
 30 29  1  0
 30 25  2  0
 31 32  1  0
 32 33  1  0
 33 34  2  0
 35 34  1  0
 35 39  1  0
 36 35  2  0
 37 32  2  0
 37 36  1  0
 38 37  1  0
 40 41  1  0
 41 44  1  0
 41 43  1  0
 42 40  2  0
 45 46  1  0
 45 20  1  0
 47 45  1  0
 48 49  1  0
 50 51  1  0
 50 49  1  0
 52 63  2  0
 53 51  1  0
 53 58  1  0
 54 62  1  0
 54 64  1  0
 55 61  1  0
 55 57  1  0
 56 62  1  0
 57 58  2  0
 57 56  1  0
 59 53  2  0
 60 59  1  0
 60 55  2  0
 61 54  1  0
 62 52  1  0
 64 66  2  0
 65 64  1  0
 67 65  1  0
 68 77  2  0
 68 73  1  0
 69 65  1  0
 69 73  1  0
 70 69  1  0
 71 72  1  0
 71 70  1  0
 72 68  1  0
 73 74  2  0
 74 75  1  0
 76 75  2  0
 77 76  1  0
 78 52  1  0
 78 83  1  0
 78 79  1  0
 79 82  1  1
 79 80  1  0
 81 79  1  0
 83 86  1  0
 84 88  1  0
 84 83  1  0
 85 84  2  0
 88 87  1  0
 90 88  1  0
 90 91  1  0
 90 89  1  0
M  ISO  4  10 100  18 100  50 101  51 101
M  END
>  <TORSDO>  (85) 
F 24

>  <SCORE>  (85) 
-12.588

>  <name>  (85) 
90

>  <ligand_id>  (85) 
90

>  <original_smiles>  (85) 
[H]c1c([H])c([H])c2c(c1[H])C([H])([H])C([H])([H])C([H])([H])C2([H])N([H])C(=O)C1([H])N(C(=O)C([H])(N([H])C(=O)C([H])(N([H])C([H])([H])[H])C([H])([H])[H])C(C([H])([H])[H])(C([H])([H])[H])C([H])([H])[H])C([H])([H])c2c([H])c(OC([H])([H])C([H])([H])C([H])([H])C([H])(C([H])([H])C([H])([H])C([H])([H])C([H])([H])N([H])C(=O)N3C([H])([H])C([H])([H])C([H])([H])C([H])(n4nc(-c5c([H])c([H])c(Oc6c([H])c([H])c(F)c([H])c6F)c([H])c5[H])c(C(=O)N([H])[H])c4N([H])[H])C3([H])[H])[N+]([H])([H])[H])c([H])c([H])c2C1([H])[H]

>  <smiles>  (85) 
[H]c1c([H])c([H])c2c(c1[H])C([H])([H])C([H])([H])C([H])([H])C2([H])N([H])C(=O)C1([H])N(C(=O)C([H])(N([H])C(=O)C([H])(N([H])C([H])([H])[H])C([H])([H])[H])C(C([H])([H])[H])(C([H])([H])[H])C([H])([H])[H])C([H])([H])c2c([H])c(OC([H])([H])C([H])([H])C([H])([H])C([H])(C([H])([H])C([H])([H])C([H])([H])C([H])([H])N([H])C(=O)N3C([H])([H])C([H])([H])C([H])([H])C([H])(n4nc(-c5c([H])c([H])c(Oc6c([H])c([H])c(F)c([H])c6F)c([H])c5[H])c(C(=O)N([H])[H])c4N([H])[H])C3([H])[H])[N+]([H])([H])[H])c([H])c([H])c2C1([H])[H]

$$$$
91:0:0
     RDKit          3D

 94102  0  0  1  0  0  0  0  0999 V2000
  -28.7580  -20.7730   20.7920 C   0  0  0  0  0  3  0  0  0  0  0  0
  -28.8270  -19.3740   20.6660 C   0  0  0  0  0  3  0  0  0  0  0  0
  -30.6710  -20.7300   22.2930 C   0  0  0  0  0  3  0  0  0  0  0  0
  -29.6780  -21.4670   21.6120 C   0  0  0  0  0  0  0  0  0  0  0  0
  -29.8040  -18.6400   21.3650 C   0  0  0  0  0  0  0  0  0  0  0  0
  -30.7430  -19.3240   22.1780 C   0  0  0  0  0  0  0  0  0  0  0  0
  -31.8140  -18.5790   22.9580 C   0  0  0  0  0  1  0  0  0  0  0  0
  -29.5730  -22.9550   21.8140 C   0  0  0  0  0  0  0  0  0  0  0  0
  -28.9070  -23.6260   20.8690 N   0  0  0  0  0  0  0  0  0  0  0  0
  -30.0940  -23.5110   22.7830 O   0  0  0  0  0  0  0  0  0  0  0  0
  -28.5390  -23.0890   20.0970 H   0  0  0  0  0  0  0  0  0  0  0  0
  -28.6510  -25.0580   20.8840 C   0  0  0  0  0  2  0  0  0  0  0  0
  -28.3100  -25.5550   19.4700 C   0  0  0  0  0  2  0  0  0  0  0  0
  -28.2570  -26.9770   19.4390 O   0  0  0  0  0  0  0  0  0  0  0  0
  -24.4860  -31.7700   23.0530 C   0  0  0  0  0  0  0  0  0  0  0  0
  -27.0410  -27.6090   19.5520 C   0  0  0  0  0  0  0  0  0  0  0  0
  -23.2180  -30.4740   21.3670 C   0  0  0  0  0  3  0  0  0  0  0  0
  -24.6230  -29.0560   19.7810 C   0  0  0  0  0  0  0  0  0  0  0  0
  -25.7280  -30.8810   21.0860 C   0  0  0  0  0  2  0  0  0  0  0  0
  -25.7960  -29.5600   20.3490 C   0  0  0  0  0  0  0  0  0  0  0  0
  -27.0070  -28.8470   20.2290 C   0  0  0  0  0  3  0  0  0  0  0  0
  -25.8440  -27.1050   18.9900 C   0  0  0  0  0  3  0  0  0  0  0  0
  -24.6380  -27.8240   19.1020 C   0  0  0  0  0  3  0  0  0  0  0  0
  -23.3740  -29.8930   19.9350 C   0  0  0  0  0  2  0  0  0  0  0  0
  -24.4980  -31.0530   21.8940 N   0  0  0  0  0  0  0  0  0  0  0  0
  -23.4280  -31.9910   23.6590 O   0  0  0  0  0  0  0  0  0  0  0  0
  -22.6250  -29.3780   22.2800 C   0  0  0  0  0  0  0  0  0  0  0  0
  -21.3000  -29.1810   22.1900 N   0  0  0  0  0  0  0  0  0  0  0  0
  -23.3500  -28.7110   23.0240 O   0  0  0  0  0  0  0  0  0  0  0  0
  -20.7780  -29.7740   21.5610 H   0  0  0  0  0  0  0  0  0  0  0  0
  -17.9760  -27.8410   22.6420 C   0  0  0  0  0  0  0  0  0  0  0  0
  -20.5240  -28.1810   22.9200 C   0  0  0  0  0  3  0  0  0  0  0  0
  -20.6800  -26.7810   22.2810 C   0  0  0  0  0  2  0  0  0  0  0  0
  -19.5850  -26.4620   21.2580 C   0  0  0  0  0  2  0  0  0  0  0  0
  -18.2010  -26.5280   21.9110 C   0  0  0  0  0  2  0  0  0  0  0  0
  -19.0670  -28.6260   23.1010 C   0  0  0  0  0  0  0  0  0  0  0  0
  -18.8040  -29.8570   23.7420 C   0  0  0  0  0  3  0  0  0  0  0  0
  -17.4830  -30.3010   23.9310 C   0  0  0  0  0  3  0  0  0  0  0  0
  -16.4060  -29.5110   23.4900 C   0  0  0  0  0  3  0  0  0  0  0  0
  -16.6540  -28.2840   22.8510 C   0  0  0  0  0  3  0  0  0  0  0  0
  -25.7950  -32.3660   23.6620 C   0  0  0  0  0  3  0  0  0  0  0  0
  -25.5150  -33.7590   24.0300 N   0  0  0  0  0  0  0  0  0  0  0  0
  -25.8770  -34.8250   23.3040 C   0  0  0  0  0  0  0  0  0  0  0  0
  -26.5520  -34.7380   22.2750 O   0  0  0  0  0  0  0  0  0  0  0  0
  -24.9220  -33.9070   24.8320 H   0  0  0  0  0  0  0  0  0  0  0  0
  -24.1970  -36.6660   22.9770 C   0  0  0  0  0  1  0  0  0  0  0  0
  -25.4120  -36.2080   23.7990 C   0  0  0  0  0  3  0  0  0  0  0  0
  -27.5450  -37.0160   24.7070 C   0  0  0  0  0  1  0  0  0  0  0  0
  -26.4690  -37.2410   23.7430 N   0  0  0  0  0  0  0  0  0  0  0  0
  -26.0800  -38.1640   23.9090 H   0  0  0  0  0  0  0  0  0  0  0  0
  -26.3320  -31.5570   24.9040 C   0  0  1  0  0  0  0  0  0  0  0  0
  -25.2670  -31.3180   25.9990 C   0  0  0  0  0  1  0  0  0  0  0  0
  -26.8710  -30.1770   24.4600 C   0  0  0  0  0  1  0  0  0  0  0  0
  -27.5180  -32.3110   25.5490 C   0  0  0  0  0  1  0  0  0  0  0  0
  -29.7940  -17.1240   21.2510 C   0  0  0  0  0  2  0  0  0  0  0  0
  -31.0290  -16.5610   20.5280 C   0  0  0  0  0  2  0  0  0  0  0  0
  -31.3360  -14.2680   19.6950 C   0  0  0  0  0  0  0  0  0  0  0  0
  -30.8540  -12.0460   18.7250 C   0  0  0  0  0  2  0  0  0  0  0  0
  -29.7970  -12.1030   17.6070 C   0  0  0  0  0  2  0  0  0  0  0  0
  -28.3770  -12.0150   18.1940 C   0  0  0  0  0  2  0  0  0  0  0  0
  -28.1550  -13.0260   19.3480 C   0  0  0  0  0  3  0  0  0  0  0  0
  -29.3000  -12.9390   20.3770 C   0  0  0  0  0  2  0  0  0  0  0  0
  -30.5900  -13.1300   19.6820 N   0  0  0  0  0  0  0  0  0  0  0  0
  -32.1790  -14.5310   18.8260 O   0  0  0  0  0  0  0  0  0  0  0  0
  -31.4330  -14.7130   22.0950 C   0  0  0  0  0  1  0  0  0  0  0  0
  -31.0950  -15.1100   20.7230 N   0  0  0  0  0  0  0  0  0  0  0  0
  -25.9530  -13.7740   20.4620 C   0  0  0  0  0  0  0  0  0  0  0  0
  -24.8600  -13.0700   20.8890 C   0  0  0  0  0  0  0  0  0  0  0  0
  -25.1520  -11.6940   20.6320 C   0  0  0  0  0  0  0  0  0  0  0  0
  -26.8500  -12.8320   19.9790 N   0  0  0  0  0  0  0  0  0  0  0  0
  -26.3750  -11.5680   20.1340 N   0  0  0  0  0  0  0  0  0  0  0  0
  -24.3150  -10.4960   20.7780 C   0  0  0  0  0  0  0  0  0  0  0  0
  -24.7010   -9.4240   21.6130 C   0  0  0  0  0  3  0  0  0  0  0  0
  -23.8700   -8.2910   21.7510 C   0  0  0  0  0  3  0  0  0  0  0  0
  -22.6410   -8.2230   21.0550 C   0  0  0  0  0  0  0  0  0  0  0  0
  -22.2730   -9.2840   20.2070 C   0  0  0  0  0  3  0  0  0  0  0  0
  -23.1030  -10.4080   20.0670 C   0  0  0  0  0  3  0  0  0  0  0  0
  -21.7830   -7.1500   21.1050 O   0  0  0  0  0  0  0  0  0  0  0  0
  -21.6260   -6.4090   22.2480 C   0  0  0  0  0  0  0  0  0  0  0  0
  -21.2040   -6.9930   23.4630 C   0  0  0  0  0  3  0  0  0  0  0  0
  -20.9870   -6.1830   24.5950 C   0  0  0  0  0  3  0  0  0  0  0  0
  -21.1850   -4.7910   24.5140 C   0  0  0  0  0  0  0  0  0  0  0  0
  -21.5980   -4.2080   23.3040 C   0  0  0  0  0  3  0  0  0  0  0  0
  -21.8160   -5.0150   22.1730 C   0  0  0  0  0  0  0  0  0  0  0  0
  -22.1960   -4.4450   21.0040 F   0  0  0  0  0  0  0  0  0  0  0  0
  -20.9700   -4.0110   25.5990 F   0  0  0  0  0  0  0  0  0  0  0  0
  -23.5770  -13.6420   21.4180 C   0  0  0  0  0  0  0  0  0  0  0  0
  -22.9290  -12.9410   22.3420 N   0  0  0  0  0  0  0  0  0  0  0  0
  -23.1650  -14.7410   21.0480 O   0  0  0  0  0  0  0  0  0  0  0  0
  -23.2780  -12.0500   22.6600 H   0  0  0  0  0  0  0  0  0  0  0  0
  -22.0730  -13.3020   22.7390 H   0  0  0  0  0  0  0  0  0  0  0  0
  -26.2510  -15.1320   20.4240 N   0  0  0  0  0  0  0  0  0  0  0  0
  -25.5890  -15.8380   20.7270 H   0  0  0  0  0  0  0  0  0  0  0  0
  -27.1000  -15.5260   20.0390 H   0  0  0  0  0  0  0  0  0  0  0  0
  1  4  1  0
  2  1  2  0
  2  5  1  0
  4  8  1  0
  4  3  2  0
  5  6  2  0
  6  3  1  0
  6  7  1  0
  8 10  2  0
  9 12  1  0
  9  8  1  0
 11  9  1  0
 13 12  1  0
 14 13  1  0
 14 16  1  0
 15 26  2  0
 16 21  1  0
 17 25  1  0
 17 27  1  0
 18 24  1  0
 18 20  1  0
 19 25  1  0
 20 19  1  0
 21 20  2  0
 22 23  1  0
 22 16  2  0
 23 18  2  0
 24 17  1  0
 25 15  1  0
 27 29  2  0
 28 27  1  0
 30 28  1  0
 31 40  2  0
 31 36  1  0
 32 28  1  0
 32 36  1  0
 33 32  1  0
 34 35  1  0
 34 33  1  0
 35 31  1  0
 36 37  2  0
 37 38  1  0
 39 38  2  0
 40 39  1  0
 41 15  1  0
 41 42  1  0
 41 51  1  0
 42 45  1  0
 43 47  1  0
 43 42  1  0
 44 43  2  0
 47 46  1  0
 49 47  1  0
 49 50  1  0
 49 48  1  0
 51 54  1  1
 51 52  1  0
 53 51  1  0
 55  5  1  0
 56 66  1  0
 56 55  1  0
 57 66  1  0
 58 63  1  0
 59 60  1  0
 59 58  1  0
 61 60  1  0
 61 70  1  0
 61 62  1  0
 63 57  1  0
 63 62  1  0
 64 57  2  0
 66 65  1  0
 67 68  2  0
 68 87  1  0
 69 72  1  0
 69 68  1  0
 70 71  1  0
 70 67  1  0
 71 69  2  0
 72 73  1  0
 73 74  2  0
 75 78  1  0
 75 74  1  0
 76 75  2  0
 77 76  1  0
 77 72  2  0
 78 79  1  0
 79 80  1  0
 80 81  2  0
 82 81  1  0
 82 86  1  0
 83 82  2  0
 84 79  2  0
 84 83  1  0
 85 84  1  0
 87 88  1  0
 88 90  1  0
 88 91  1  0
 89 87  2  0
 92 67  1  0
 92 93  1  0
 94 92  1  0
M  ISO  4  13 101  14 101  57 100  66 100
M  END
>  <TORSDO>  (86) 
F 21

>  <SCORE>  (86) 
-11.193

>  <name>  (86) 
91

>  <ligand_id>  (86) 
91

>  <original_smiles>  (86) 
[H]c1c([H])c([H])c2c(c1[H])C([H])([H])C([H])([H])C([H])([H])C2([H])N([H])C(=O)C1([H])N(C(=O)C([H])(N([H])C(=O)C([H])(N([H])C([H])([H])[H])C([H])([H])[H])C(C([H])([H])[H])(C([H])([H])[H])C([H])([H])[H])C([H])([H])c2c([H])c(OC([H])([H])C([H])([H])N([H])C(=O)c3c([H])c([H])c(C([H])([H])C([H])([H])N(C(=O)N4C([H])([H])C([H])([H])C([H])([H])C([H])(n5nc(-c6c([H])c([H])c(Oc7c([H])c([H])c(F)c([H])c7F)c([H])c6[H])c(C(=O)N([H])[H])c5N([H])[H])C4([H])[H])C([H])([H])[H])c(C([H])([H])[H])c3[H])c([H])c([H])c2C1([H])[H]

>  <smiles>  (86) 
[H]c1c([H])c([H])c2c(c1[H])C([H])([H])C([H])([H])C([H])([H])C2([H])N([H])C(=O)C1([H])N(C(=O)C([H])(N([H])C(=O)C([H])(N([H])C([H])([H])[H])C([H])([H])[H])C(C([H])([H])[H])(C([H])([H])[H])C([H])([H])[H])C([H])([H])c2c([H])c(OC([H])([H])C([H])([H])N([H])C(=O)c3c([H])c([H])c(C([H])([H])C([H])([H])N(C(=O)N4C([H])([H])C([H])([H])C([H])([H])C([H])(n5nc(-c6c([H])c([H])c(Oc7c([H])c([H])c(F)c([H])c7F)c([H])c6[H])c(C(=O)N([H])[H])c5N([H])[H])C4([H])[H])C([H])([H])[H])c(C([H])([H])[H])c3[H])c([H])c([H])c2C1([H])[H]

$$$$
92:0:0
     RDKit          3D

 99107  0  0  1  0  0  0  0  0999 V2000
  -24.1970  -24.6800   23.4530 C   0  0  0  0  0  3  0  0  0  0  0  0
  -25.2370  -23.7310   23.4010 C   0  0  0  0  0  3  0  0  0  0  0  0
  -24.1010  -25.6830   22.4690 C   0  0  0  0  0  3  0  0  0  0  0  0
  -26.0270  -24.7250   21.3310 C   0  0  0  0  0  3  0  0  0  0  0  0
  -26.1740  -23.7560   22.3460 C   0  0  0  0  0  0  0  0  0  0  0  0
  -25.0260  -25.7100   21.4060 C   0  0  0  0  0  0  0  0  0  0  0  0
  -27.3430  -22.8610   22.3880 C   0  0  0  0  0  3  0  0  0  0  0  0
  -28.3960  -22.9470   21.5510 C   0  0  0  0  0  3  0  0  0  0  0  0
  -29.5600  -22.0980   21.6910 C   0  0  0  0  0  0  0  0  0  0  0  0
  -30.4580  -22.3740   20.7380 N   0  0  0  0  0  0  0  0  0  0  0  0
  -29.7460  -21.2700   22.5860 O   0  0  0  0  0  0  0  0  0  0  0  0
  -30.1920  -23.0670   20.0500 H   0  0  0  0  0  0  0  0  0  0  0  0
  -31.8270  -21.8760   20.6740 C   0  0  0  0  0  2  0  0  0  0  0  0
  -32.1320  -21.1960   19.3310 C   0  0  0  0  0  2  0  0  0  0  0  0
  -31.4380  -21.8210   18.1040 C   0  0  0  0  0  2  0  0  0  0  0  0
  -31.6120  -20.8940   16.8930 C   0  0  0  0  0  2  0  0  0  0  0  0
  -30.5020  -20.6590   14.5790 C   0  0  0  0  0  0  0  0  0  0  0  0
  -31.3150  -19.4150   12.6060 C   0  0  0  0  0  2  0  0  0  0  0  0
  -30.8150  -17.9540   12.6160 C   0  0  0  0  0  2  0  0  0  0  0  0
  -31.7370  -17.0390   13.4500 C   0  0  0  0  0  2  0  0  0  0  0  0
  -32.0780  -17.6550   14.8330 C   0  0  0  0  0  3  0  0  0  0  0  0
  -32.5580  -19.1020   14.6260 C   0  0  0  0  0  2  0  0  0  0  0  0
  -31.4640  -19.8730   14.0020 N   0  0  0  0  0  0  0  0  0  0  0  0
  -29.5250  -21.0600   13.9380 O   0  0  0  0  0  0  0  0  0  0  0  0
  -30.5750  -21.0300   15.8740 N   0  0  0  0  0  0  0  0  0  0  0  0
  -29.7770  -21.5770   16.1640 H   0  0  0  0  0  0  0  0  0  0  0  0
  -32.9110  -16.0060   16.6320 C   0  0  0  0  0  0  0  0  0  0  0  0
  -34.1440  -15.4660   16.8740 C   0  0  0  0  0  0  0  0  0  0  0  0
  -35.0200  -16.0290   15.8960 C   0  0  0  0  0  0  0  0  0  0  0  0
  -33.0720  -16.8590   15.5500 N   0  0  0  0  0  0  0  0  0  0  0  0
  -34.3660  -16.9020   15.1420 N   0  0  0  0  0  0  0  0  0  0  0  0
  -36.4280  -15.7440   15.5940 C   0  0  0  0  0  0  0  0  0  0  0  0
  -37.3830  -16.7780   15.4770 C   0  0  0  0  0  3  0  0  0  0  0  0
  -38.7340  -16.4770   15.2010 C   0  0  0  0  0  3  0  0  0  0  0  0
  -39.1440  -15.1320   15.0460 C   0  0  0  0  0  0  0  0  0  0  0  0
  -38.1850  -14.1080   15.1410 C   0  0  0  0  0  3  0  0  0  0  0  0
  -36.8400  -14.4090   15.4090 C   0  0  0  0  0  3  0  0  0  0  0  0
  -40.4290  -14.7470   14.7550 O   0  0  0  0  0  0  0  0  0  0  0  0
  -41.5020  -15.5550   15.0300 C   0  0  0  0  0  0  0  0  0  0  0  0
  -41.8410  -15.9240   16.3510 C   0  0  0  0  0  3  0  0  0  0  0  0
  -42.9930  -16.7000   16.5930 C   0  0  0  0  0  3  0  0  0  0  0  0
  -43.8120  -17.0980   15.5190 C   0  0  0  0  0  0  0  0  0  0  0  0
  -43.4790  -16.7270   14.2030 C   0  0  0  0  0  3  0  0  0  0  0  0
  -42.3300  -15.9550   13.9620 C   0  0  0  0  0  0  0  0  0  0  0  0
  -42.0250  -15.5830   12.6940 F   0  0  0  0  0  0  0  0  0  0  0  0
  -44.9240  -17.8360   15.7490 F   0  0  0  0  0  0  0  0  0  0  0  0
  -34.4770  -14.4150   17.8950 C   0  0  0  0  0  0  0  0  0  0  0  0
  -35.6890  -14.4490   18.4400 N   0  0  0  0  0  0  0  0  0  0  0  0
  -33.6440  -13.5800   18.2500 O   0  0  0  0  0  0  0  0  0  0  0  0
  -36.3660  -15.1470   18.1670 H   0  0  0  0  0  0  0  0  0  0  0  0
  -35.9410  -13.7700   19.1440 H   0  0  0  0  0  0  0  0  0  0  0  0
  -31.6660  -15.8240   17.2280 N   0  0  0  0  0  0  0  0  0  0  0  0
  -31.5270  -15.1470   17.9700 H   0  0  0  0  0  0  0  0  0  0  0  0
  -30.8040  -16.2480   16.9090 H   0  0  0  0  0  0  0  0  0  0  0  0
  -25.0070  -26.8220   20.3710 C   0  0  0  0  0  2  0  0  0  0  0  0
  -26.4060  -27.0460   19.7560 C   0  0  0  0  0  2  0  0  0  0  0  0
  -26.5100  -26.9900   18.2170 C   0  0  0  0  0  2  0  0  0  0  0  0
  -26.6930  -28.3360   17.4960 C   0  0  0  0  0  2  0  0  0  0  0  0
  -25.4370  -29.0010   17.3510 O   0  0  0  0  0  0  0  0  0  0  0  0
  -26.0330  -30.4170   24.2990 C   0  0  0  0  0  0  0  0  0  0  0  0
  -24.9080  -29.5780   18.4780 C   0  0  0  0  0  0  0  0  0  0  0  0
  -23.8010  -30.8020   23.2960 C   0  0  0  0  0  3  0  0  0  0  0  0
  -23.7100  -30.7380   20.7500 C   0  0  0  0  0  0  0  0  0  0  0  0
  -25.9220  -31.0070   21.8880 C   0  0  0  0  0  2  0  0  0  0  0  0
  -25.0980  -30.5660   20.7010 C   0  0  0  0  0  0  0  0  0  0  0  0
  -25.7040  -29.9900   19.5690 C   0  0  0  0  0  3  0  0  0  0  0  0
  -23.5150  -29.7850   18.5220 C   0  0  0  0  0  3  0  0  0  0  0  0
  -22.9100  -30.3480   19.6610 C   0  0  0  0  0  3  0  0  0  0  0  0
  -23.1490  -31.3660   22.0040 C   0  0  0  0  0  2  0  0  0  0  0  0
  -25.2940  -30.7060   23.1910 N   0  0  0  0  0  0  0  0  0  0  0  0
  -25.4960  -30.2760   25.4060 O   0  0  0  0  0  0  0  0  0  0  0  0
  -23.1240  -29.4590   23.6490 C   0  0  0  0  0  0  0  0  0  0  0  0
  -21.8170  -29.3510   23.3580 N   0  0  0  0  0  0  0  0  0  0  0  0
  -23.7750  -28.5380   24.1490 O   0  0  0  0  0  0  0  0  0  0  0  0
  -21.3550  -30.1520   22.9530 H   0  0  0  0  0  0  0  0  0  0  0  0
  -18.8800  -27.6150   22.1770 C   0  0  0  0  0  0  0  0  0  0  0  0
  -20.9860  -28.1680   23.5720 C   0  0  0  0  0  3  0  0  0  0  0  0
  -21.6200  -26.9190   22.9180 C   0  0  0  0  0  2  0  0  0  0  0  0
  -21.1240  -26.6690   21.4900 C   0  0  0  0  0  2  0  0  0  0  0  0
  -19.6040  -26.4760   21.4800 C   0  0  0  0  0  2  0  0  0  0  0  0
  -19.5350  -28.4200   23.1470 C   0  0  0  0  0  0  0  0  0  0  0  0
  -18.8290  -29.4920   23.7360 C   0  0  0  0  0  3  0  0  0  0  0  0
  -17.4950  -29.7600   23.3770 C   0  0  0  0  0  3  0  0  0  0  0  0
  -16.8470  -28.9490   22.4280 C   0  0  0  0  0  3  0  0  0  0  0  0
  -17.5380  -27.8770   21.8340 C   0  0  0  0  0  3  0  0  0  0  0  0
  -27.5880  -30.2800   24.2330 C   0  0  0  0  0  3  0  0  0  0  0  0
  -28.0820  -28.7820   24.2410 C   0  0  1  0  0  0  0  0  0  0  0  0
  -27.4260  -27.9170   25.3420 C   0  0  0  0  0  1  0  0  0  0  0  0
  -27.8010  -28.1030   22.8780 C   0  0  0  0  0  1  0  0  0  0  0  0
  -29.6150  -28.7380   24.4480 C   0  0  0  0  0  1  0  0  0  0  0  0
  -28.1470  -31.0200   25.3710 N   0  0  0  0  0  0  0  0  0  0  0  0
  -28.7420  -32.2180   25.2800 C   0  0  0  0  0  0  0  0  0  0  0  0
  -28.9410  -32.7880   24.2040 O   0  0  0  0  0  0  0  0  0  0  0  0
  -27.9770  -30.6350   26.2880 H   0  0  0  0  0  0  0  0  0  0  0  0
  -28.2220  -34.0440   26.9290 C   0  0  0  0  0  1  0  0  0  0  0  0
  -29.1820  -32.8910   26.5930 C   0  0  0  0  0  3  0  0  0  0  0  0
  -31.5700  -32.3350   26.4660 C   0  0  0  0  0  1  0  0  0  0  0  0
  -30.5710  -33.3970   26.5590 N   0  0  0  0  0  0  0  0  0  0  0  0
  -30.7740  -33.9470   27.3900 H   0  0  0  0  0  0  0  0  0  0  0  0
  2  1  1  0
  3  1  2  0
  4  6  2  0
  4  5  1  0
  5  7  1  0
  5  2  2  0
  6  3  1  0
  8  9  1  0
  8  7  2  0
  9 11  2  0
 10  9  1  0
 12 10  1  0
 13 10  1  0
 14 13  1  0
 15 14  1  0
 16 15  1  0
 17 25  1  0
 18 19  1  0
 18 23  1  0
 19 20  1  0
 21 20  1  0
 21 30  1  0
 22 21  1  0
 23 17  1  0
 23 22  1  0
 24 17  2  0
 25 26  1  0
 25 16  1  0
 27 28  2  0
 27 52  1  0
 28 47  1  0
 29 28  1  0
 30 27  1  0
 31 30  1  0
 31 29  2  0
 32 29  1  0
 33 32  1  0
 34 33  2  0
 35 36  2  0
 35 34  1  0
 36 37  1  0
 37 32  2  0
 38 39  1  0
 38 35  1  0
 39 40  1  0
 40 41  2  0
 42 46  1  0
 42 41  1  0
 43 42  2  0
 44 43  1  0
 44 39  2  0
 45 44  1  0
 47 49  2  0
 47 48  1  0
 48 51  1  0
 50 48  1  0
 52 53  1  0
 54 52  1  0
 55  6  1  0
 56 55  1  0
 57 56  1  0
 58 57  1  0
 59 58  1  0
 59 61  1  0
 60 71  2  0
 61 67  2  0
 61 66  1  0
 62 72  1  0
 63 69  1  0
 64 70  1  0
 65 63  1  0
 65 64  1  0
 66 65  2  0
 67 68  1  0
 68 63  2  0
 69 62  1  0
 70 62  1  0
 70 60  1  0
 72 74  2  0
 73 72  1  0
 75 73  1  0
 76 81  1  0
 77 73  1  0
 78 77  1  0
 79 78  1  0
 80 79  1  0
 80 76  1  0
 81 77  1  0
 81 82  2  0
 83 82  1  0
 84 83  2  0
 85 76  2  0
 85 84  1  0
 86 87  1  0
 86 60  1  0
 86 91  1  0
 87 90  1  1
 87 88  1  0
 89 87  1  0
 91 94  1  0
 92 91  1  0
 92 96  1  0
 93 92  2  0
 96 95  1  0
 97 98  1  0
 98 96  1  0
 98 99  1  0
M  ISO  4  17 100  25 100  58 101  59 101
M  END
>  <TORSDO>  (87) 
F 26

>  <SCORE>  (87) 
-2.633

>  <name>  (87) 
92

>  <ligand_id>  (87) 
92

>  <original_smiles>  (87) 
[H]C(C(=O)N([H])C([H])([H])C([H])([H])C([H])([H])C([H])([H])N([H])C(=O)N1C([H])([H])C([H])([H])C([H])([H])C([H])(n2nc(-c3c([H])c([H])c(Oc4c([H])c([H])c(F)c([H])c4F)c([H])c3[H])c(C(=O)N([H])[H])c2N([H])[H])C1([H])[H])=C([H])c1c([H])c([H])c([H])c(C([H])([H])C([H])([H])C([H])([H])C([H])([H])Oc2c([H])c([H])c3c(c2[H])C([H])([H])N(C(=O)C([H])(N([H])C(=O)C([H])(N([H])C([H])([H])[H])C([H])([H])[H])C(C([H])([H])[H])(C([H])([H])[H])C([H])([H])[H])C([H])(C(=O)N([H])C2([H])c4c([H])c([H])c([H])c([H])c4C([H])([H])C([H])([H])C2([H])[H])C3([H])[H])c1[H]

>  <smiles>  (87) 
[H]C(C(=O)N([H])C([H])([H])C([H])([H])C([H])([H])C([H])([H])N([H])C(=O)N1C([H])([H])C([H])([H])C([H])([H])C([H])(n2nc(-c3c([H])c([H])c(Oc4c([H])c([H])c(F)c([H])c4F)c([H])c3[H])c(C(=O)N([H])[H])c2N([H])[H])C1([H])[H])=C([H])c1c([H])c([H])c([H])c(C([H])([H])C([H])([H])C([H])([H])C([H])([H])Oc2c([H])c([H])c3c(c2[H])C([H])([H])N(C(=O)C([H])(N([H])C(=O)C([H])(N([H])C([H])([H])[H])C([H])([H])[H])C(C([H])([H])[H])(C([H])([H])[H])C([H])([H])[H])C([H])(C(=O)N([H])C2([H])c4c([H])c([H])c([H])c([H])c4C([H])([H])C([H])([H])C2([H])[H])C3([H])[H])c1[H]

$$$$
93:0:0
     RDKit          3D

 92 99  0  0  1  0  0  0  0  0999 V2000
  -26.6040  -23.9240   20.7760 C   0  0  0  0  0  0  0  0  0  0  0  0
  -27.2480  -24.7120   19.9090 N   0  0  0  0  0  0  0  0  0  0  0  0
  -25.4070  -23.6880   20.6120 O   0  0  0  0  0  0  0  0  0  0  0  0
  -26.6750  -25.1020   19.1750 H   0  0  0  0  0  0  0  0  0  0  0  0
  -27.3290  -23.2830   21.9660 C   0  0  0  0  0  2  0  0  0  0  0  0
  -27.5100  -21.7700   21.7690 C   0  0  0  0  0  2  0  0  0  0  0  0
  -28.4870  -21.4120   20.6350 C   0  0  0  0  0  2  0  0  0  0  0  0
  -28.3470  -19.9460   20.2260 C   0  0  0  0  0  2  0  0  0  0  0  0
  -29.6220  -19.3590   19.6130 C   0  0  0  0  0  2  0  0  0  0  0  0
  -29.5320  -17.8310   19.5460 C   0  0  0  0  0  2  0  0  0  0  0  0
  -30.9060  -17.1500   19.5920 C   0  0  0  0  0  2  0  0  0  0  0  0
  -31.3570  -14.7010   19.4270 C   0  0  0  0  0  0  0  0  0  0  0  0
  -31.1100  -12.2970   18.9420 C   0  0  0  0  0  2  0  0  0  0  0  0
  -30.1190  -12.1140   17.7750 C   0  0  0  0  0  2  0  0  0  0  0  0
  -28.6620  -12.0840   18.2750 C   0  0  0  0  0  2  0  0  0  0  0  0
  -28.3400  -13.2530   19.2440 C   0  0  0  0  0  3  0  0  0  0  0  0
  -29.4260  -13.3610   20.3330 C   0  0  0  0  0  2  0  0  0  0  0  0
  -30.7360  -13.5180   19.6670 N   0  0  0  0  0  0  0  0  0  0  0  0
  -32.3670  -14.8200   18.7230 O   0  0  0  0  0  0  0  0  0  0  0  0
  -30.7320  -15.7530   19.9590 N   0  0  0  0  0  0  0  0  0  0  0  0
  -29.9560  -15.5390   20.5690 H   0  0  0  0  0  0  0  0  0  0  0  0
  -26.0850  -14.0970   20.1560 C   0  0  0  0  0  0  0  0  0  0  0  0
  -24.9750  -13.4320   20.6030 C   0  0  0  0  0  0  0  0  0  0  0  0
  -25.2860  -12.0400   20.5100 C   0  0  0  0  0  0  0  0  0  0  0  0
  -27.0060  -13.1170   19.8220 N   0  0  0  0  0  0  0  0  0  0  0  0
  -26.5320  -11.8730   20.0870 N   0  0  0  0  0  0  0  0  0  0  0  0
  -24.4530  -10.8540   20.7470 C   0  0  0  0  0  0  0  0  0  0  0  0
  -24.8250   -9.8640   21.6840 C   0  0  0  0  0  3  0  0  0  0  0  0
  -23.9980   -8.7400   21.9030 C   0  0  0  0  0  3  0  0  0  0  0  0
  -22.7870   -8.5990   21.1850 C   0  0  0  0  0  0  0  0  0  0  0  0
  -22.4320   -9.5780   20.2390 C   0  0  0  0  0  3  0  0  0  0  0  0
  -23.2580  -10.6920   20.0170 C   0  0  0  0  0  3  0  0  0  0  0  0
  -21.9360   -7.5280   21.3130 O   0  0  0  0  0  0  0  0  0  0  0  0
  -21.7900   -6.8610   22.5030 C   0  0  0  0  0  0  0  0  0  0  0  0
  -21.3850   -7.5230   23.6830 C   0  0  0  0  0  3  0  0  0  0  0  0
  -21.1810   -6.7890   24.8680 C   0  0  0  0  0  3  0  0  0  0  0  0
  -21.3720   -5.3940   24.8740 C   0  0  0  0  0  0  0  0  0  0  0  0
  -21.7700   -4.7320   23.7000 C   0  0  0  0  0  3  0  0  0  0  0  0
  -21.9770   -5.4640   22.5170 C   0  0  0  0  0  0  0  0  0  0  0  0
  -22.3390   -4.8190   21.3810 F   0  0  0  0  0  0  0  0  0  0  0  0
  -21.1680   -4.6860   26.0090 F   0  0  0  0  0  0  0  0  0  0  0  0
  -23.6650  -14.0440   21.0080 C   0  0  0  0  0  0  0  0  0  0  0  0
  -22.9520  -13.4120   21.9330 N   0  0  0  0  0  0  0  0  0  0  0  0
  -23.2860  -15.1150   20.5380 O   0  0  0  0  0  0  0  0  0  0  0  0
  -23.2760  -12.5440   22.3320 H   0  0  0  0  0  0  0  0  0  0  0  0
  -22.0780  -13.8060   22.2490 H   0  0  0  0  0  0  0  0  0  0  0  0
  -26.3850  -15.4460   19.9910 N   0  0  0  0  0  0  0  0  0  0  0  0
  -25.7230  -16.1870   20.1900 H   0  0  0  0  0  0  0  0  0  0  0  0
  -27.2640  -15.7880   19.6230 H   0  0  0  0  0  0  0  0  0  0  0  0
  -28.6360  -25.1630   19.8910 C   0  0  0  0  0  2  0  0  0  0  0  0
  -28.7090  -26.6900   20.0230 C   0  0  0  0  0  2  0  0  0  0  0  0
  -28.1320  -27.3120   18.8680 O   0  0  0  0  0  0  0  0  0  0  0  0
  -24.6000  -31.7570   23.1510 C   0  0  0  0  0  0  0  0  0  0  0  0
  -26.9700  -27.9950   19.1240 C   0  0  0  0  0  0  0  0  0  0  0  0
  -23.2390  -30.5790   21.4530 C   0  0  0  0  0  3  0  0  0  0  0  0
  -24.5510  -29.3480   19.6460 C   0  0  0  0  0  0  0  0  0  0  0  0
  -25.7100  -31.0760   21.0310 C   0  0  0  0  0  2  0  0  0  0  0  0
  -25.7540  -29.8270   20.1800 C   0  0  0  0  0  0  0  0  0  0  0  0
  -26.9660  -29.1490   19.9320 C   0  0  0  0  0  3  0  0  0  0  0  0
  -25.7600  -27.5350   18.5640 C   0  0  0  0  0  3  0  0  0  0  0  0
  -24.5480  -28.1940   18.8390 C   0  0  0  0  0  3  0  0  0  0  0  0
  -23.3010  -30.1350   19.9660 C   0  0  0  0  0  2  0  0  0  0  0  0
  -24.5400  -31.1440   21.9350 N   0  0  0  0  0  0  0  0  0  0  0  0
  -23.5890  -31.8960   23.8510 O   0  0  0  0  0  0  0  0  0  0  0  0
  -22.7370  -29.3920   22.3060 C   0  0  0  0  0  0  0  0  0  0  0  0
  -21.4320  -29.0980   22.2110 N   0  0  0  0  0  0  0  0  0  0  0  0
  -23.5180  -28.7420   23.0080 O   0  0  0  0  0  0  0  0  0  0  0  0
  -20.8570  -29.6850   21.6230 H   0  0  0  0  0  0  0  0  0  0  0  0
  -18.2460  -27.4290   22.5710 C   0  0  0  0  0  0  0  0  0  0  0  0
  -20.7450  -28.0020   22.8930 C   0  0  0  0  0  3  0  0  0  0  0  0
  -21.0390  -26.6470   22.2070 C   0  0  0  0  0  2  0  0  0  0  0  0
  -19.9910  -26.2530   21.1630 C   0  0  0  0  0  2  0  0  0  0  0  0
  -18.6000  -26.1700   21.7980 C   0  0  0  0  0  2  0  0  0  0  0  0
  -19.2530  -28.2970   23.0710 C   0  0  0  0  0  0  0  0  0  0  0  0
  -18.8670  -29.4720   23.7520 C   0  0  0  0  0  3  0  0  0  0  0  0
  -17.5070  -29.7830   23.9390 C   0  0  0  0  0  3  0  0  0  0  0  0
  -16.5150  -28.9110   23.4570 C   0  0  0  0  0  3  0  0  0  0  0  0
  -16.8850  -27.7360   22.7800 C   0  0  0  0  0  3  0  0  0  0  0  0
  -25.9400  -32.3340   23.7040 C   0  0  0  0  0  3  0  0  0  0  0  0
  -26.6000  -31.4220   24.8090 C   0  0  1  0  0  0  0  0  0  0  0  0
  -25.6330  -31.0330   25.9520 C   0  0  0  0  0  1  0  0  0  0  0  0
  -27.1420  -30.1140   24.1870 C   0  0  0  0  0  1  0  0  0  0  0  0
  -27.8140  -32.1500   25.4330 C   0  0  0  0  0  1  0  0  0  0  0  0
  -25.6570  -33.6760   24.2320 N   0  0  0  0  0  0  0  0  0  0  0  0
  -25.9150  -34.8170   23.5820 C   0  0  0  0  0  0  0  0  0  0  0  0
  -26.4990  -34.8510   22.4940 O   0  0  0  0  0  0  0  0  0  0  0  0
  -25.1330  -33.7190   25.0960 H   0  0  0  0  0  0  0  0  0  0  0  0
  -24.1570  -36.6130   23.5810 C   0  0  0  0  0  1  0  0  0  0  0  0
  -25.4580  -36.1320   24.2420 C   0  0  0  0  0  3  0  0  0  0  0  0
  -27.6500  -36.9350   25.0070 C   0  0  0  0  0  1  0  0  0  0  0  0
  -26.4750  -37.2040   24.1810 N   0  0  0  0  0  0  0  0  0  0  0  0
  -26.0770  -38.0930   24.4750 H   0  0  0  0  0  0  0  0  0  0  0  0
  1  5  1  0
  2  1  1  0
  3  1  2  0
  4  2  1  0
  6  5  1  0
  7  6  1  0
  8  7  1  0
  9  8  1  0
 10 11  1  0
 10  9  1  0
 11 20  1  0
 12 18  1  0
 12 20  1  0
 13 18  1  0
 14 15  1  0
 14 13  1  0
 16 15  1  0
 16 25  1  0
 16 17  1  0
 18 17  1  0
 19 12  2  0
 20 21  1  0
 22 23  2  0
 23 42  1  0
 24 23  1  0
 24 27  1  0
 25 26  1  0
 25 22  1  0
 26 24  2  0
 27 28  1  0
 28 29  2  0
 30 33  1  0
 30 29  1  0
 31 30  2  0
 32 31  1  0
 32 27  2  0
 33 34  1  0
 34 39  2  0
 34 35  1  0
 35 36  2  0
 36 37  1  0
 37 41  1  0
 38 37  2  0
 39 38  1  0
 40 39  1  0
 42 43  1  0
 43 46  1  0
 43 45  1  0
 44 42  2  0
 47 22  1  0
 47 48  1  0
 49 47  1  0
 50  2  1  0
 50 51  1  0
 52 54  1  0
 52 51  1  0
 53 64  2  0
 54 59  1  0
 55 63  1  0
 55 65  1  0
 56 62  1  0
 56 58  1  0
 57 63  1  0
 58 57  1  0
 59 58  2  0
 60 61  1  0
 60 54  2  0
 61 56  2  0
 62 55  1  0
 63 53  1  0
 65 67  2  0
 66 65  1  0
 68 66  1  0
 69 78  2  0
 69 74  1  0
 70 66  1  0
 70 74  1  0
 71 70  1  0
 72 73  1  0
 72 71  1  0
 73 69  1  0
 74 75  2  0
 75 76  1  0
 77 76  2  0
 78 77  1  0
 79 53  1  0
 79 84  1  0
 79 80  1  0
 80 83  1  1
 80 81  1  0
 82 80  1  0
 84 87  1  0
 85 84  1  0
 85 89  1  0
 86 85  2  0
 89 88  1  0
 91 89  1  0
 91 92  1  0
 91 90  1  0
M  ISO  4  12 100  20 100  51 101  52 101
M  END
>  <TORSDO>  (88) 
F 25

>  <SCORE>  (88) 
-9.899

>  <name>  (88) 
93

>  <ligand_id>  (88) 
93

>  <original_smiles>  (88) 
[H]c1c([H])c([H])c2c(c1[H])C([H])([H])C([H])([H])C([H])([H])C2([H])N([H])C(=O)C1([H])N(C(=O)C([H])(N([H])C(=O)C([H])(N([H])C([H])([H])[H])C([H])([H])[H])C(C([H])([H])[H])(C([H])([H])[H])C([H])([H])[H])C([H])([H])c2c([H])c(OC([H])([H])C([H])([H])N([H])C(=O)C([H])([H])C([H])([H])C([H])([H])C([H])([H])C([H])([H])C([H])([H])C([H])([H])N([H])C(=O)N3C([H])([H])C([H])([H])C([H])([H])C([H])(n4nc(-c5c([H])c([H])c(Oc6c([H])c([H])c(F)c([H])c6F)c([H])c5[H])c(C(=O)N([H])[H])c4N([H])[H])C3([H])[H])c([H])c([H])c2C1([H])[H]

>  <smiles>  (88) 
[H]c1c([H])c([H])c2c(c1[H])C([H])([H])C([H])([H])C([H])([H])C2([H])N([H])C(=O)C1([H])N(C(=O)C([H])(N([H])C(=O)C([H])(N([H])C([H])([H])[H])C([H])([H])[H])C(C([H])([H])[H])(C([H])([H])[H])C([H])([H])[H])C([H])([H])c2c([H])c(OC([H])([H])C([H])([H])N([H])C(=O)C([H])([H])C([H])([H])C([H])([H])C([H])([H])C([H])([H])C([H])([H])C([H])([H])N([H])C(=O)N3C([H])([H])C([H])([H])C([H])([H])C([H])(n4nc(-c5c([H])c([H])c(Oc6c([H])c([H])c(F)c([H])c6F)c([H])c5[H])c(C(=O)N([H])[H])c4N([H])[H])C3([H])[H])c([H])c([H])c2C1([H])[H]

$$$$
94:0:0
     RDKit          3D

105114  0  0  1  0  0  0  0  0999 V2000
  -27.3970  -20.7590   16.9380 C   0  0  0  0  0  2  0  0  0  0  0  0
  -25.7240  -21.1960   18.8380 C   0  0  0  0  0  2  0  0  0  0  0  0
  -26.9180  -19.2980   16.9160 C   0  0  0  0  0  2  0  0  0  0  0  0
  -25.3880  -19.6910   18.8390 C   0  0  0  0  0  2  0  0  0  0  0  0
  -26.3510  -21.7410   17.5250 C   0  0  0  0  0  3  0  0  0  0  0  0
  -26.5440  -18.8070   18.3260 C   0  0  0  0  0  3  0  0  0  0  0  0
  -27.7110  -18.7930   19.2530 N   0  0  0  0  0  4  0  0  0  0  0  0
  -27.3850  -18.5230   20.1690 H   0  0  0  0  0  0  0  0  0  0  0  0
  -28.0650  -19.7340   19.3260 H   0  0  0  0  0  0  0  0  0  0  0  0
  -28.8160  -17.8790   18.8590 C   0  0  0  0  0  2  0  0  0  0  0  0
  -30.1460  -18.1720   19.5870 C   0  0  0  0  0  2  0  0  0  0  0  0
  -30.7170  -16.9730   20.3840 C   0  0  0  0  0  2  0  0  0  0  0  0
  -31.7010  -16.0730   19.5980 C   0  0  0  0  0  2  0  0  0  0  0  0
  -32.9960  -15.7270   20.3670 C   0  0  0  0  0  2  0  0  0  0  0  0
  -33.6820  -14.4070   19.9270 C   0  0  0  0  0  2  0  0  0  0  0  0
  -33.5170  -12.0560   20.8480 C   0  0  0  0  0  0  0  0  0  0  0  0
  -32.8880   -9.8120   21.6980 C   0  0  0  0  0  2  0  0  0  0  0  0
  -32.1110   -9.0150   20.6280 C   0  0  0  0  0  2  0  0  0  0  0  0
  -30.6120   -9.3850   20.6290 C   0  0  0  0  0  2  0  0  0  0  0  0
  -30.3670  -10.9190   20.6500 C   0  0  0  0  0  3  0  0  0  0  0  0
  -31.2190  -11.5740   21.7550 C   0  0  0  0  0  2  0  0  0  0  0  0
  -32.6290  -11.2410   21.4790 N   0  0  0  0  0  0  0  0  0  0  0  0
  -34.6810  -11.7300   20.5950 O   0  0  0  0  0  0  0  0  0  0  0  0
  -32.9980  -13.2420   20.4810 N   0  0  0  0  0  0  0  0  0  0  0  0
  -32.0160  -13.3590   20.6790 H   0  0  0  0  0  0  0  0  0  0  0  0
  -28.3100  -12.4660   20.7310 C   0  0  0  0  0  0  0  0  0  0  0  0
  -26.9760  -12.2040   20.8890 C   0  0  0  0  0  0  0  0  0  0  0  0
  -26.8700  -10.7900   21.0570 C   0  0  0  0  0  0  0  0  0  0  0  0
  -28.9510  -11.2380   20.8090 N   0  0  0  0  0  0  0  0  0  0  0  0
  -28.0740  -10.2330   21.0590 N   0  0  0  0  0  0  0  0  0  0  0  0
  -25.6880   -9.9270   21.1570 C   0  0  0  0  0  0  0  0  0  0  0  0
  -25.4790   -9.0940   22.2760 C   0  0  0  0  0  3  0  0  0  0  0  0
  -24.3240   -8.2860   22.3570 C   0  0  0  0  0  3  0  0  0  0  0  0
  -23.3640   -8.3110   21.3180 C   0  0  0  0  0  0  0  0  0  0  0  0
  -23.5910   -9.1230   20.1940 C   0  0  0  0  0  3  0  0  0  0  0  0
  -24.7420   -9.9230   20.1120 C   0  0  0  0  0  3  0  0  0  0  0  0
  -22.2280   -7.5370   21.3020 O   0  0  0  0  0  0  0  0  0  0  0  0
  -21.6360   -7.1030   22.4620 C   0  0  0  0  0  0  0  0  0  0  0  0
  -21.0650   -8.0020   23.3900 C   0  0  0  0  0  3  0  0  0  0  0  0
  -20.4010   -7.5090   24.5310 C   0  0  0  0  0  3  0  0  0  0  0  0
  -20.3000   -6.1210   24.7460 C   0  0  0  0  0  0  0  0  0  0  0  0
  -20.8580   -5.2250   23.8200 C   0  0  0  0  0  3  0  0  0  0  0  0
  -21.5230   -5.7140   22.6810 C   0  0  0  0  0  0  0  0  0  0  0  0
  -22.0430   -4.8440   21.7810 F   0  0  0  0  0  0  0  0  0  0  0  0
  -19.6600   -5.6470   25.8420 F   0  0  0  0  0  0  0  0  0  0  0  0
  -25.8520  -13.1930   20.7860 C   0  0  0  0  0  0  0  0  0  0  0  0
  -24.7810  -12.9890   21.5470 N   0  0  0  0  0  0  0  0  0  0  0  0
  -25.9330  -14.1820   20.0570 O   0  0  0  0  0  0  0  0  0  0  0  0
  -24.7130  -12.1920   22.1630 H   0  0  0  0  0  0  0  0  0  0  0  0
  -24.0030  -13.6330   21.4990 H   0  0  0  0  0  0  0  0  0  0  0  0
  -29.0240  -13.6420   20.5110 N   0  0  0  0  0  0  0  0  0  0  0  0
  -28.5550  -14.5380   20.4340 H   0  0  0  0  0  0  0  0  0  0  0  0
  -30.0290  -13.6900   20.4210 H   0  0  0  0  0  0  0  0  0  0  0  0
  -26.9450  -23.1420   17.8330 C   0  0  0  0  0  2  0  0  0  0  0  0
  -28.2640  -23.5590   17.1410 C   0  0  0  0  0  2  0  0  0  0  0  0
  -30.7460  -24.0090   20.0260 C   0  0  0  0  0  3  0  0  0  0  0  0
  -29.9180  -23.4180   19.0530 C   0  0  0  0  0  3  0  0  0  0  0  0
  -30.1720  -26.2170   19.1710 C   0  0  0  0  0  3  0  0  0  0  0  0
  -30.8720  -25.4110   20.0960 C   0  0  0  0  0  0  0  0  0  0  0  0
  -29.2090  -24.2220   18.1350 C   0  0  0  0  0  0  0  0  0  0  0  0
  -29.3400  -25.6260   18.1960 C   0  0  0  0  0  0  0  0  0  0  0  0
  -28.6580  -26.4140   17.3310 F   0  0  0  0  0  0  0  0  0  0  0  0
  -31.7490  -26.0340   21.1760 C   0  0  0  0  0  2  0  0  0  0  0  0
  -30.9630  -26.9050   22.1690 C   0  0  0  0  0  2  0  0  0  0  0  0
  -29.7850  -26.2160   22.5860 O   0  0  0  0  0  0  0  0  0  0  0  0
  -25.0890  -31.4590   23.7530 C   0  0  0  0  0  0  0  0  0  0  0  0
  -28.6150  -26.8420   22.2500 C   0  0  0  0  0  0  0  0  0  0  0  0
  -24.3900  -29.7040   22.1520 C   0  0  0  0  0  3  0  0  0  0  0  0
  -26.2160  -28.0770   21.4330 C   0  0  0  0  0  0  0  0  0  0  0  0
  -26.8630  -30.2480   22.4960 C   0  0  0  0  0  2  0  0  0  0  0  0
  -27.1640  -28.8030   22.1640 C   0  0  0  0  0  0  0  0  0  0  0  0
  -28.3670  -28.1950   22.5740 C   0  0  0  0  0  3  0  0  0  0  0  0
  -27.6430  -26.1100   21.5410 C   0  0  0  0  0  3  0  0  0  0  0  0
  -26.4470  -26.7240   21.1220 C   0  0  0  0  0  3  0  0  0  0  0  0
  -24.9660  -28.8180   21.0150 C   0  0  0  0  0  2  0  0  0  0  0  0
  -25.4490  -30.4950   22.8580 N   0  0  0  0  0  0  0  0  0  0  0  0
  -23.8980  -31.7250   23.9600 O   0  0  0  0  0  0  0  0  0  0  0  0
  -23.5610  -28.8090   23.0990 C   0  0  0  0  0  0  0  0  0  0  0  0
  -22.3540  -28.4250   22.6520 N   0  0  0  0  0  0  0  0  0  0  0  0
  -24.0130  -28.4510   24.1900 O   0  0  0  0  0  0  0  0  0  0  0  0
  -22.0530  -28.7690   21.7520 H   0  0  0  0  0  0  0  0  0  0  0  0
  -19.0660  -26.9470   22.4680 C   0  0  0  0  0  0  0  0  0  0  0  0
  -21.4160  -27.5510   23.3540 C   0  0  0  0  0  3  0  0  0  0  0  0
  -21.7710  -26.0640   23.1330 C   0  0  0  0  0  2  0  0  0  0  0  0
  -21.0270  -25.4340   21.9510 C   0  0  0  0  0  2  0  0  0  0  0  0
  -19.5130  -25.5280   22.1590 C   0  0  0  0  0  2  0  0  0  0  0  0
  -19.9640  -27.9000   23.0150 C   0  0  0  0  0  0  0  0  0  0  0  0
  -19.5060  -29.2150   23.2510 C   0  0  0  0  0  3  0  0  0  0  0  0
  -18.1790  -29.5800   22.9540 C   0  0  0  0  0  3  0  0  0  0  0  0
  -17.2900  -28.6270   22.4280 C   0  0  0  0  0  3  0  0  0  0  0  0
  -17.7320  -27.3140   22.1890 C   0  0  0  0  0  3  0  0  0  0  0  0
  -26.1540  -32.2870   24.5380 C   0  0  0  0  0  3  0  0  0  0  0  0
  -25.7190  -33.6900   24.5280 N   0  0  0  0  0  0  0  0  0  0  0  0
  -26.1690  -34.6180   23.6720 C   0  0  0  0  0  0  0  0  0  0  0  0
  -27.0580  -34.3940   22.8470 O   0  0  0  0  0  0  0  0  0  0  0  0
  -24.9540  -33.9310   25.1400 H   0  0  0  0  0  0  0  0  0  0  0  0
  -24.4820  -36.1630   22.6270 C   0  0  0  0  0  1  0  0  0  0  0  0
  -25.5280  -36.0180   23.7430 C   0  0  0  0  0  3  0  0  0  0  0  0
  -27.3800  -37.2160   24.8230 C   0  0  0  0  0  1  0  0  0  0  0  0
  -26.5110  -37.1190   23.6530 N   0  0  0  0  0  0  0  0  0  0  0  0
  -26.0400  -38.0120   23.5350 H   0  0  0  0  0  0  0  0  0  0  0  0
  -26.3710  -31.7800   26.0170 C   0  0  1  0  0  0  0  0  0  0  0  0
  -25.0550  -31.5310   26.7880 C   0  0  0  0  0  1  0  0  0  0  0  0
  -27.1820  -30.4630   26.0260 C   0  0  0  0  0  1  0  0  0  0  0  0
  -27.2030  -32.8160   26.8100 C   0  0  0  0  0  1  0  0  0  0  0  0
  1  5  1  0
  2  4  1  0
  3  1  1  0
  3  6  1  0
  5 54  1  0
  5  2  1  0
  6  4  1  0
  6  7  1  0
  7  9  1  0
  7  8  1  0
 10  7  1  0
 10 11  1  0
 11 12  1  0
 13 14  1  0
 13 12  1  0
 15 14  1  0
 15 24  1  0
 16 22  1  0
 18 19  1  0
 18 17  1  0
 20 19  1  0
 20 29  1  0
 20 21  1  0
 22 17  1  0
 22 21  1  0
 23 16  2  0
 24 25  1  0
 24 16  1  0
 26 29  1  0
 26 27  2  0
 27 28  1  0
 28 30  2  0
 28 31  1  0
 29 30  1  0
 31 32  1  0
 32 33  2  0
 34 33  1  0
 35 34  2  0
 36 35  1  0
 36 31  2  0
 37 34  1  0
 37 38  1  0
 38 43  2  0
 38 39  1  0
 39 40  2  0
 40 41  1  0
 41 45  1  0
 42 41  2  0
 43 42  1  0
 44 43  1  0
 46 27  1  0
 46 47  1  0
 47 49  1  0
 48 46  2  0
 50 47  1  0
 51 26  1  0
 52 51  1  0
 53 51  1  0
 55 54  1  0
 55 60  1  0
 56 59  1  0
 57 56  2  0
 58 59  2  0
 59 63  1  0
 60 61  2  0
 60 57  1  0
 61 58  1  0
 62 61  1  0
 63 64  1  0
 64 65  1  0
 66 77  2  0
 67 72  1  0
 67 65  1  0
 68 76  1  0
 68 78  1  0
 69 71  1  0
 70 76  1  0
 71 70  1  0
 71 72  2  0
 73 67  2  0
 74 69  2  0
 74 73  1  0
 75 69  1  0
 75 68  1  0
 76 66  1  0
 78 80  2  0
 79 78  1  0
 81 79  1  0
 82 87  1  0
 83 79  1  0
 84 83  1  0
 85 86  1  0
 85 84  1  0
 86 82  1  0
 87 88  2  0
 87 83  1  0
 89 88  1  0
 90 89  2  0
 91 90  1  0
 91 82  2  0
 92 66  1  0
 92102  1  0
 93 92  1  0
 93 96  1  0
 94 98  1  0
 94 93  1  0
 95 94  2  0
 98 97  1  0
100 98  1  0
100 99  1  0
101100  1  0
102104  1  6
102103  1  0
102105  1  0
M  ISO  4  16 100  24 100  64 101  65 101
M  END
>  <TORSDO>  (89) 
F 28

>  <SCORE>  (89) 
-5.491

>  <name>  (89) 
94

>  <ligand_id>  (89) 
94

>  <original_smiles>  (89) 
[H]c1c([H])c([H])c2c(c1[H])C([H])([H])C([H])([H])C([H])([H])C2([H])N([H])C(=O)C1([H])N(C(=O)C([H])(N([H])C(=O)C([H])(N([H])C([H])([H])[H])C([H])([H])[H])C(C([H])([H])[H])(C([H])([H])[H])C([H])([H])[H])C([H])([H])c2c([H])c(OC([H])([H])C([H])([H])c3c([H])c([H])c(C([H])([H])C([H])([H])C4([H])C([H])([H])C([H])([H])C([H])([N+]([H])([H])C([H])([H])C([H])([H])C([H])([H])C([H])([H])C([H])([H])C([H])([H])N([H])C(=O)N5C([H])([H])C([H])([H])C([H])([H])C([H])(n6nc(-c7c([H])c([H])c(Oc8c([H])c([H])c(F)c([H])c8F)c([H])c7[H])c(C(=O)N([H])[H])c6N([H])[H])C5([H])[H])C([H])([H])C4([H])[H])c(F)c3[H])c([H])c([H])c2C1([H])[H]

>  <smiles>  (89) 
[H]c1c([H])c([H])c2c(c1[H])C([H])([H])C([H])([H])C([H])([H])C2([H])N([H])C(=O)C1([H])N(C(=O)C([H])(N([H])C(=O)C([H])(N([H])C([H])([H])[H])C([H])([H])[H])C(C([H])([H])[H])(C([H])([H])[H])C([H])([H])[H])C([H])([H])c2c([H])c(OC([H])([H])C([H])([H])c3c([H])c([H])c(C([H])([H])C([H])([H])C4([H])C([H])([H])C([H])([H])C([H])([N+]([H])([H])C([H])([H])C([H])([H])C([H])([H])C([H])([H])C([H])([H])C([H])([H])N([H])C(=O)N5C([H])([H])C([H])([H])C([H])([H])C([H])(n6nc(-c7c([H])c([H])c(Oc8c([H])c([H])c(F)c([H])c8F)c([H])c7[H])c(C(=O)N([H])[H])c6N([H])[H])C5([H])[H])C([H])([H])C4([H])[H])c(F)c3[H])c([H])c([H])c2C1([H])[H]

$$$$
95:0:0
     RDKit          3D

 98106  0  0  1  0  0  0  0  0999 V2000
  -30.1770  -22.7740   23.5720 C   0  0  0  0  0  3  0  0  0  0  0  0
  -29.8040  -24.0610   23.1410 C   0  0  0  0  0  3  0  0  0  0  0  0
  -28.3910  -23.0700   21.4270 C   0  0  0  0  0  3  0  0  0  0  0  0
  -29.6660  -21.6150   22.9420 C   0  0  0  0  0  0  0  0  0  0  0  0
  -28.9120  -24.2140   22.0620 C   0  0  0  0  0  0  0  0  0  0  0  0
  -28.7540  -21.7700   21.8550 C   0  0  0  0  0  0  0  0  0  0  0  0
  -30.1010  -20.2640   23.4510 C   0  0  0  0  0  0  0  0  0  0  0  0
  -31.2730  -19.8280   22.9760 N   0  0  0  0  0  0  0  0  0  0  0  0
  -29.4070  -19.6050   24.2290 O   0  0  0  0  0  0  0  0  0  0  0  0
  -31.7770  -20.4520   22.3600 H   0  0  0  0  0  0  0  0  0  0  0  0
  -31.8320  -18.4940   23.1940 C   0  0  0  0  0  2  0  0  0  0  0  0
  -31.0370  -17.4230   22.4180 C   0  0  0  0  0  2  0  0  0  0  0  0
  -31.3020  -17.4520   20.9000 C   0  0  0  0  0  2  0  0  0  0  0  0
  -30.3360  -16.5890   20.0710 C   0  0  0  0  0  2  0  0  0  0  0  0
  -30.8680  -14.1590   20.1140 C   0  0  0  0  0  0  0  0  0  0  0  0
  -30.6100  -11.8100   19.4180 C   0  0  0  0  0  2  0  0  0  0  0  0
  -29.6660  -11.7530   18.1990 C   0  0  0  0  0  2  0  0  0  0  0  0
  -28.1920  -11.6870   18.6450 C   0  0  0  0  0  2  0  0  0  0  0  0
  -27.8400  -12.7610   19.7090 C   0  0  0  0  0  3  0  0  0  0  0  0
  -28.8920  -12.7740   20.8420 C   0  0  0  0  0  2  0  0  0  0  0  0
  -30.2220  -12.9700   20.2350 N   0  0  0  0  0  0  0  0  0  0  0  0
  -31.9420  -14.2930   19.5180 O   0  0  0  0  0  0  0  0  0  0  0  0
  -30.1790  -15.2200   20.5600 N   0  0  0  0  0  0  0  0  0  0  0  0
  -29.3260  -15.0130   21.0580 H   0  0  0  0  0  0  0  0  0  0  0  0
  -25.5210  -13.5230   20.5280 C   0  0  0  0  0  0  0  0  0  0  0  0
  -24.4110  -12.8200   20.9160 C   0  0  0  0  0  0  0  0  0  0  0  0
  -24.7640  -11.4410   20.8150 C   0  0  0  0  0  0  0  0  0  0  0  0
  -26.4860  -12.5740   20.2260 N   0  0  0  0  0  0  0  0  0  0  0  0
  -26.0350  -11.3150   20.4520 N   0  0  0  0  0  0  0  0  0  0  0  0
  -23.9500  -10.2310   20.9910 C   0  0  0  0  0  0  0  0  0  0  0  0
  -24.3160   -9.2240   21.9110 C   0  0  0  0  0  3  0  0  0  0  0  0
  -23.5080   -8.0770   22.0750 C   0  0  0  0  0  3  0  0  0  0  0  0
  -22.3210   -7.9310   21.3200 C   0  0  0  0  0  0  0  0  0  0  0  0
  -21.9750   -8.9260   20.3890 C   0  0  0  0  0  3  0  0  0  0  0  0
  -22.7820  -10.0650   20.2220 C   0  0  0  0  0  3  0  0  0  0  0  0
  -21.4890   -6.8410   21.3930 O   0  0  0  0  0  0  0  0  0  0  0  0
  -21.3260   -6.1370   22.5590 C   0  0  0  0  0  0  0  0  0  0  0  0
  -20.8820   -6.7560   23.7480 C   0  0  0  0  0  3  0  0  0  0  0  0
  -20.6620   -5.9830   24.9040 C   0  0  0  0  0  3  0  0  0  0  0  0
  -20.8750   -4.5920   24.8730 C   0  0  0  0  0  0  0  0  0  0  0  0
  -21.3130   -3.9730   23.6890 C   0  0  0  0  0  3  0  0  0  0  0  0
  -21.5350   -4.7430   22.5350 C   0  0  0  0  0  0  0  0  0  0  0  0
  -21.9350   -4.1390   21.3910 F   0  0  0  0  0  0  0  0  0  0  0  0
  -20.6570   -3.8470   25.9830 F   0  0  0  0  0  0  0  0  0  0  0  0
  -23.0680  -13.3920   21.2670 C   0  0  0  0  0  0  0  0  0  0  0  0
  -22.3390  -12.7360   22.1630 N   0  0  0  0  0  0  0  0  0  0  0  0
  -22.6770  -14.4530   20.7830 O   0  0  0  0  0  0  0  0  0  0  0  0
  -22.6690  -11.8760   22.5750 H   0  0  0  0  0  0  0  0  0  0  0  0
  -21.4390  -13.1000   22.4410 H   0  0  0  0  0  0  0  0  0  0  0  0
  -25.7840  -14.8820   20.3920 N   0  0  0  0  0  0  0  0  0  0  0  0
  -25.0760  -15.5880   20.5590 H   0  0  0  0  0  0  0  0  0  0  0  0
  -26.6570  -15.2670   20.0520 H   0  0  0  0  0  0  0  0  0  0  0  0
  -28.5140  -25.6050   21.5980 C   0  0  0  0  0  2  0  0  0  0  0  0
  -29.2660  -26.0620   20.3300 C   0  0  0  0  0  2  0  0  0  0  0  0
  -29.1790  -27.4770   20.1490 O   0  0  0  0  0  0  0  0  0  0  0  0
  -24.6450  -31.8670   23.3750 C   0  0  0  0  0  0  0  0  0  0  0  0
  -27.9180  -28.0210   20.1360 C   0  0  0  0  0  0  0  0  0  0  0  0
  -23.6800  -30.4580   21.5810 C   0  0  0  0  0  3  0  0  0  0  0  0
  -25.3620  -29.2080   20.1300 C   0  0  0  0  0  0  0  0  0  0  0  0
  -26.1480  -31.1270   21.5330 C   0  0  0  0  0  2  0  0  0  0  0  0
  -26.4200  -29.8300   20.8040 C   0  0  0  0  0  0  0  0  0  0  0  0
  -27.7030  -29.2440   20.8010 C   0  0  0  0  0  3  0  0  0  0  0  0
  -26.8460  -27.4000   19.4610 C   0  0  0  0  0  3  0  0  0  0  0  0
  -25.5680  -27.9900   19.4550 C   0  0  0  0  0  3  0  0  0  0  0  0
  -24.0250  -29.9100   20.1710 C   0  0  0  0  0  2  0  0  0  0  0  0
  -24.8390  -31.1630   22.2230 N   0  0  0  0  0  0  0  0  0  0  0  0
  -23.5190  -31.9710   23.8800 O   0  0  0  0  0  0  0  0  0  0  0  0
  -23.1190  -29.3010   22.4380 C   0  0  0  0  0  0  0  0  0  0  0  0
  -21.8210  -29.0030   22.2610 N   0  0  0  0  0  0  0  0  0  0  0  0
  -23.8460  -28.6760   23.2140 O   0  0  0  0  0  0  0  0  0  0  0  0
  -21.2930  -29.5690   21.6110 H   0  0  0  0  0  0  0  0  0  0  0  0
  -18.5660  -27.4670   22.5670 C   0  0  0  0  0  0  0  0  0  0  0  0
  -21.0820  -27.9310   22.9270 C   0  0  0  0  0  3  0  0  0  0  0  0
  -21.3310  -26.5720   22.2310 C   0  0  0  0  0  2  0  0  0  0  0  0
  -20.2800  -26.2410   21.1660 C   0  0  0  0  0  2  0  0  0  0  0  0
  -18.8800  -26.2030   21.7850 C   0  0  0  0  0  2  0  0  0  0  0  0
  -19.6010  -28.2870   23.0890 C   0  0  0  0  0  0  0  0  0  0  0  0
  -19.2550  -29.4700   23.7770 C   0  0  0  0  0  3  0  0  0  0  0  0
  -17.9060  -29.8320   23.9520 C   0  0  0  0  0  3  0  0  0  0  0  0
  -16.8850  -29.0080   23.4480 C   0  0  0  0  0  3  0  0  0  0  0  0
  -17.2170  -27.8260   22.7600 C   0  0  0  0  0  3  0  0  0  0  0  0
  -25.8230  -32.5910   24.0980 C   0  0  0  0  0  3  0  0  0  0  0  0
  -26.2390  -31.9020   25.4560 C   0  0  1  0  0  0  0  0  0  0  0  0
  -25.0530  -31.6500   26.4170 C   0  0  0  0  0  1  0  0  0  0  0  0
  -26.9300  -30.5440   25.1900 C   0  0  0  0  0  1  0  0  0  0  0  0
  -27.2700  -32.7860   26.1970 C   0  0  0  0  0  1  0  0  0  0  0  0
  -25.4110  -33.9820   24.3250 N   0  0  0  0  0  0  0  0  0  0  0  0
  -25.7620  -35.0140   23.5480 C   0  0  0  0  0  0  0  0  0  0  0  0
  -26.5340  -34.9020   22.5920 O   0  0  0  0  0  0  0  0  0  0  0  0
  -24.7360  -34.1390   25.0580 H   0  0  0  0  0  0  0  0  0  0  0  0
  -23.9690  -36.6740   22.9520 C   0  0  0  0  0  1  0  0  0  0  0  0
  -25.1590  -36.3910   23.8830 C   0  0  0  0  0  3  0  0  0  0  0  0
  -27.1740  -37.4400   24.8150 C   0  0  0  0  0  1  0  0  0  0  0  0
  -26.1360  -37.5000   23.7900 N   0  0  0  0  0  0  0  0  0  0  0  0
  -25.6680  -38.3980   23.8640 H   0  0  0  0  0  0  0  0  0  0  0  0
  -28.1550  -20.5910   21.0940 C   0  0  0  0  0  2  0  0  0  0  0  0
  -28.4540  -18.9040   19.2040 C   0  0  0  0  0  1  0  0  0  0  0  0
  -29.0700  -20.0810   19.9690 C   0  0  0  0  0  2  0  0  0  0  0  0
  2  1  1  0
  3  6  2  0
  3  5  1  0
  4  7  1  0
  4  1  2  0
  5  2  2  0
  6  4  1  0
  7  9  2  0
  8 11  1  0
  8  7  1  0
 10  8  1  0
 12 11  1  0
 13 12  1  0
 14 23  1  0
 14 13  1  0
 15 21  1  0
 15 23  1  0
 16 21  1  0
 17 18  1  0
 17 16  1  0
 19 18  1  0
 19 28  1  0
 19 20  1  0
 21 20  1  0
 22 15  2  0
 23 24  1  0
 25 26  2  0
 26 45  1  0
 27 26  1  0
 27 30  1  0
 28 29  1  0
 28 25  1  0
 29 27  2  0
 30 31  1  0
 31 32  2  0
 33 36  1  0
 33 32  1  0
 34 33  2  0
 35 34  1  0
 35 30  2  0
 36 37  1  0
 37 38  1  0
 38 39  2  0
 40 39  1  0
 40 44  1  0
 41 40  2  0
 42 37  2  0
 42 41  1  0
 43 42  1  0
 45 46  1  0
 46 49  1  0
 46 48  1  0
 47 45  2  0
 50 25  1  0
 50 51  1  0
 52 50  1  0
 53  5  1  0
 54 53  1  0
 55 54  1  0
 56 67  2  0
 57 55  1  0
 57 62  1  0
 58 66  1  0
 58 68  1  0
 59 65  1  0
 59 61  1  0
 60 66  1  0
 61 60  1  0
 62 61  2  0
 63 57  2  0
 64 63  1  0
 64 59  2  0
 65 58  1  0
 66 56  1  0
 68 70  2  0
 69 68  1  0
 71 69  1  0
 72 81  2  0
 72 77  1  0
 73 69  1  0
 73 77  1  0
 74 73  1  0
 75 76  1  0
 75 74  1  0
 76 72  1  0
 77 78  2  0
 78 79  1  0
 80 79  2  0
 81 80  1  0
 82 56  1  0
 82 87  1  0
 82 83  1  0
 83 86  1  1
 83 84  1  0
 85 83  1  0
 87 90  1  0
 88 92  1  0
 88 87  1  0
 89 88  2  0
 92 91  1  0
 94 95  1  0
 94 92  1  0
 94 93  1  0
 96  6  1  0
 97 98  1  0
 98 96  1  0
M  ISO  4  15 100  23 100  54 101  55 101
M  END
>  <TORSDO>  (90) 
F 25

>  <SCORE>  (90) 
-7.982

>  <name>  (90) 
95

>  <ligand_id>  (90) 
95

>  <original_smiles>  (90) 
[H]c1c([H])c([H])c2c(c1[H])C([H])([H])C([H])([H])C([H])([H])C2([H])N([H])C(=O)C1([H])N(C(=O)C([H])(N([H])C(=O)C([H])(N([H])C([H])([H])[H])C([H])([H])[H])C(C([H])([H])[H])(C([H])([H])[H])C([H])([H])[H])C([H])([H])c2c([H])c(OC([H])([H])C([H])([H])c3c([H])c([H])c(C(=O)N([H])C([H])([H])C([H])([H])C([H])([H])C([H])([H])N([H])C(=O)N4C([H])([H])C([H])([H])C([H])([H])C([H])(n5nc(-c6c([H])c([H])c(Oc7c([H])c([H])c(F)c([H])c7F)c([H])c6[H])c(C(=O)N([H])[H])c5N([H])[H])C4([H])[H])c(C([H])([H])C([H])([H])C([H])([H])[H])c3[H])c([H])c([H])c2C1([H])[H]

>  <smiles>  (90) 
[H]c1c([H])c([H])c2c(c1[H])C([H])([H])C([H])([H])C([H])([H])C2([H])N([H])C(=O)C1([H])N(C(=O)C([H])(N([H])C(=O)C([H])(N([H])C([H])([H])[H])C([H])([H])[H])C(C([H])([H])[H])(C([H])([H])[H])C([H])([H])[H])C([H])([H])c2c([H])c(OC([H])([H])C([H])([H])c3c([H])c([H])c(C(=O)N([H])C([H])([H])C([H])([H])C([H])([H])C([H])([H])N([H])C(=O)N4C([H])([H])C([H])([H])C([H])([H])C([H])(n5nc(-c6c([H])c([H])c(Oc7c([H])c([H])c(F)c([H])c7F)c([H])c6[H])c(C(=O)N([H])[H])c5N([H])[H])C4([H])[H])c(C([H])([H])C([H])([H])C([H])([H])[H])c3[H])c([H])c([H])c2C1([H])[H]

$$$$
96:0:0
     RDKit          3D

 98106  0  0  1  0  0  0  0  0999 V2000
  -26.1320  -22.7610   21.1910 C   0  0  0  0  0  3  0  0  0  0  0  0
  -25.8680  -23.5460   20.0540 C   0  0  0  0  0  3  0  0  0  0  0  0
  -27.4490  -22.6370   21.6730 C   0  0  0  0  0  3  0  0  0  0  0  0
  -28.2430  -24.0550   19.8520 C   0  0  0  0  0  3  0  0  0  0  0  0
  -26.9200  -24.2160   19.3900 C   0  0  0  0  0  0  0  0  0  0  0  0
  -28.5170  -23.2750   21.0010 C   0  0  0  0  0  0  0  0  0  0  0  0
  -30.1570  -24.1620   22.7120 C   0  0  0  0  0  1  0  0  0  0  0  0
  -29.9480  -23.1840   21.5410 C   0  0  0  0  0  3  0  0  0  0  0  0
  -30.3500  -21.8110   21.9230 N   0  0  0  0  0  4  0  0  0  0  0  0
  -31.2220  -21.8850   22.4230 H   0  0  0  0  0  0  0  0  0  0  0  0
  -29.6710  -21.4350   22.5630 H   0  0  0  0  0  0  0  0  0  0  0  0
  -30.5370  -20.8430   20.8190 C   0  0  0  0  0  2  0  0  0  0  0  0
  -31.2460  -19.5610   21.3000 C   0  0  0  0  0  2  0  0  0  0  0  0
  -31.1510  -18.4050   20.2910 C   0  0  0  0  0  2  0  0  0  0  0  0
  -32.0840  -17.2280   20.6290 C   0  0  0  0  0  2  0  0  0  0  0  0
  -32.2010  -16.2110   19.4800 C   0  0  0  0  0  2  0  0  0  0  0  0
  -31.9370  -13.7380   19.6010 C   0  0  0  0  0  0  0  0  0  0  0  0
  -31.8050  -11.4280   20.4560 C   0  0  0  0  0  2  0  0  0  0  0  0
  -30.9910  -10.4820   19.5580 C   0  0  0  0  0  2  0  0  0  0  0  0
  -29.4890  -10.5680   19.8850 C   0  0  0  0  0  2  0  0  0  0  0  0
  -28.9740  -12.0280   19.9380 C   0  0  0  0  0  3  0  0  0  0  0  0
  -29.8940  -12.9010   20.8180 C   0  0  0  0  0  2  0  0  0  0  0  0
  -31.2770  -12.7900   20.3110 N   0  0  0  0  0  0  0  0  0  0  0  0
  -32.9540  -13.5150   18.9360 O   0  0  0  0  0  0  0  0  0  0  0  0
  -31.4940  -14.9810   19.8140 N   0  0  0  0  0  0  0  0  0  0  0  0
  -30.6750  -15.0650   20.3980 H   0  0  0  0  0  0  0  0  0  0  0  0
  -26.7820  -13.1890   20.6380 C   0  0  0  0  0  0  0  0  0  0  0  0
  -25.5470  -12.6900   20.9610 C   0  0  0  0  0  0  0  0  0  0  0  0
  -25.6590  -11.2690   20.8750 C   0  0  0  0  0  0  0  0  0  0  0  0
  -27.5820  -12.0840   20.3850 N   0  0  0  0  0  0  0  0  0  0  0  0
  -26.9070  -10.9230   20.5810 N   0  0  0  0  0  0  0  0  0  0  0  0
  -24.6400  -10.2200   21.0020 C   0  0  0  0  0  0  0  0  0  0  0  0
  -24.8500   -9.0810   21.8090 C   0  0  0  0  0  3  0  0  0  0  0  0
  -23.8490   -8.0930   21.9290 C   0  0  0  0  0  3  0  0  0  0  0  0
  -22.6210   -8.2410   21.2410 C   0  0  0  0  0  0  0  0  0  0  0  0
  -22.4250   -9.3660   20.4200 C   0  0  0  0  0  3  0  0  0  0  0  0
  -23.4260  -10.3450   20.2980 C   0  0  0  0  0  3  0  0  0  0  0  0
  -21.6010   -7.3200   21.2770 O   0  0  0  0  0  0  0  0  0  0  0  0
  -21.3330   -6.5860   22.4030 C   0  0  0  0  0  0  0  0  0  0  0  0
  -21.0790   -7.1980   23.6500 C   0  0  0  0  0  3  0  0  0  0  0  0
  -20.7410   -6.4070   24.7660 C   0  0  0  0  0  3  0  0  0  0  0  0
  -20.6480   -5.0090   24.6370 C   0  0  0  0  0  0  0  0  0  0  0  0
  -20.8960   -4.3980   23.3950 C   0  0  0  0  0  3  0  0  0  0  0  0
  -21.2360   -5.1850   22.2820 C   0  0  0  0  0  0  0  0  0  0  0  0
  -21.4530   -4.5930   21.0820 F   0  0  0  0  0  0  0  0  0  0  0  0
  -20.3150   -4.2500   25.7080 F   0  0  0  0  0  0  0  0  0  0  0  0
  -24.3060  -13.4890   21.2400 C   0  0  0  0  0  0  0  0  0  0  0  0
  -23.4520  -13.0020   22.1340 N   0  0  0  0  0  0  0  0  0  0  0  0
  -24.1070  -14.5750   20.6970 O   0  0  0  0  0  0  0  0  0  0  0  0
  -23.6240  -12.1210   22.5940 H   0  0  0  0  0  0  0  0  0  0  0  0
  -22.6150  -13.5200   22.3620 H   0  0  0  0  0  0  0  0  0  0  0  0
  -27.2830  -14.4810   20.5230 N   0  0  0  0  0  0  0  0  0  0  0  0
  -26.7030  -15.3010   20.6530 H   0  0  0  0  0  0  0  0  0  0  0  0
  -28.2260  -14.7050   20.2260 H   0  0  0  0  0  0  0  0  0  0  0  0
  -26.6110  -25.1570   18.2330 C   0  0  0  0  0  2  0  0  0  0  0  0
  -27.6400  -25.1340   17.0880 C   0  0  0  0  0  2  0  0  0  0  0  0
  -28.1310  -26.5290   16.6300 C   0  0  0  0  0  2  0  0  0  0  0  0
  -27.0970  -27.3150   16.0230 O   0  0  0  0  0  0  0  0  0  0  0  0
  -25.6320  -28.8860   22.8000 C   0  0  0  0  0  0  0  0  0  0  0  0
  -26.2870  -27.9840   16.9070 C   0  0  0  0  0  0  0  0  0  0  0  0
  -23.8330  -29.3460   21.1620 C   0  0  0  0  0  3  0  0  0  0  0  0
  -24.5210  -29.2490   18.7070 C   0  0  0  0  0  0  0  0  0  0  0  0
  -26.2890  -29.4340   20.4630 C   0  0  0  0  0  2  0  0  0  0  0  0
  -25.8470  -29.0020   19.0840 C   0  0  0  0  0  0  0  0  0  0  0  0
  -26.7340  -28.3650   18.1920 C   0  0  0  0  0  3  0  0  0  0  0  0
  -24.9700  -28.2950   16.5160 C   0  0  0  0  0  3  0  0  0  0  0  0
  -24.0770  -28.8970   17.4200 C   0  0  0  0  0  3  0  0  0  0  0  0
  -23.6300  -29.9140   19.7320 C   0  0  0  0  0  2  0  0  0  0  0  0
  -25.2800  -29.1850   21.5160 N   0  0  0  0  0  0  0  0  0  0  0  0
  -24.7780  -28.7900   23.6920 O   0  0  0  0  0  0  0  0  0  0  0  0
  -23.0200  -28.0390   21.2970 C   0  0  0  0  0  0  0  0  0  0  0  0
  -21.6830  -28.1610   21.2650 N   0  0  0  0  0  0  0  0  0  0  0  0
  -23.5880  -26.9470   21.4030 O   0  0  0  0  0  0  0  0  0  0  0  0
  -21.2980  -29.0920   21.1900 H   0  0  0  0  0  0  0  0  0  0  0  0
  -18.1760  -27.3560   20.9470 C   0  0  0  0  0  0  0  0  0  0  0  0
  -20.7160  -27.0680   21.3390 C   0  0  0  0  0  3  0  0  0  0  0  0
  -20.7200  -26.2340   20.0360 C   0  0  0  0  0  2  0  0  0  0  0  0
  -19.6810  -26.7070   19.0160 C   0  0  0  0  0  2  0  0  0  0  0  0
  -18.2720  -26.6330   19.6130 C   0  0  0  0  0  2  0  0  0  0  0  0
  -19.3270  -27.5730   21.7490 C   0  0  0  0  0  0  0  0  0  0  0  0
  -19.1920  -28.2800   22.9640 C   0  0  0  0  0  3  0  0  0  0  0  0
  -17.9370  -28.7610   23.3810 C   0  0  0  0  0  3  0  0  0  0  0  0
  -16.7970  -28.5250   22.5930 C   0  0  0  0  0  3  0  0  0  0  0  0
  -16.9180  -27.8210   21.3820 C   0  0  0  0  0  3  0  0  0  0  0  0
  -27.1210  -28.6760   23.2130 C   0  0  0  0  0  3  0  0  0  0  0  0
  -27.6200  -27.1920   23.0100 C   0  0  1  0  0  0  0  0  0  0  0  0
  -26.6610  -26.1260   23.5970 C   0  0  0  0  0  1  0  0  0  0  0  0
  -27.8080  -26.8870   21.5050 C   0  0  0  0  0  1  0  0  0  0  0  0
  -29.0040  -27.0130   23.6770 C   0  0  0  0  0  1  0  0  0  0  0  0
  -27.2520  -29.0830   24.6170 N   0  0  0  0  0  0  0  0  0  0  0  0
  -27.8640  -30.2010   25.0320 C   0  0  0  0  0  0  0  0  0  0  0  0
  -28.4490  -30.9680   24.2610 O   0  0  0  0  0  0  0  0  0  0  0  0
  -26.7500  -28.5300   25.2970 H   0  0  0  0  0  0  0  0  0  0  0  0
  -26.7900  -31.6220   26.8080 C   0  0  0  0  0  1  0  0  0  0  0  0
  -27.8230  -30.5170   26.5390 C   0  0  0  0  0  3  0  0  0  0  0  0
  -30.1030  -29.8270   27.1310 C   0  0  0  0  0  1  0  0  0  0  0  0
  -29.1330  -30.9180   27.0920 N   0  0  0  0  0  0  0  0  0  0  0  0
  -29.0310  -31.2810   28.0350 H   0  0  0  0  0  0  0  0  0  0  0  0
  1  3  1  0
  2  1  2  0
  4  6  1  0
  5  4  2  0
  5  2  1  0
  6  8  1  0
  6  3  2  0
  8  9  1  0
  8  7  1  0
  9 10  1  0
  9 11  1  0
 12 13  1  0
 12  9  1  0
 14 15  1  0
 14 13  1  0
 16 25  1  0
 16 15  1  0
 17 25  1  0
 17 23  1  0
 19 20  1  0
 19 18  1  0
 21 20  1  0
 21 30  1  0
 21 22  1  0
 23 18  1  0
 23 22  1  0
 24 17  2  0
 25 26  1  0
 27 28  2  0
 28 47  1  0
 29 28  1  0
 29 32  1  0
 30 31  1  0
 30 27  1  0
 31 29  2  0
 32 33  1  0
 33 34  2  0
 35 38  1  0
 35 34  1  0
 36 35  2  0
 37 36  1  0
 37 32  2  0
 38 39  1  0
 39 40  1  0
 40 41  2  0
 42 41  1  0
 42 46  1  0
 43 42  2  0
 44 39  2  0
 44 43  1  0
 45 44  1  0
 47 48  1  0
 48 51  1  0
 48 50  1  0
 49 47  2  0
 52 27  1  0
 52 53  1  0
 54 52  1  0
 55  5  1  0
 56 55  1  0
 57 56  1  0
 58 57  1  0
 58 60  1  0
 59 70  2  0
 60 65  1  0
 61 71  1  0
 61 69  1  0
 62 64  1  0
 62 68  1  0
 63 69  1  0
 64 63  1  0
 65 64  2  0
 66 60  2  0
 66 67  1  0
 67 62  2  0
 68 61  1  0
 69 59  1  0
 71 73  2  0
 72 71  1  0
 74 72  1  0
 75 84  2  0
 75 80  1  0
 76 72  1  0
 76 80  1  0
 77 76  1  0
 78 79  1  0
 78 77  1  0
 79 75  1  0
 80 81  2  0
 81 82  1  0
 83 82  2  0
 84 83  1  0
 85 59  1  0
 85 90  1  0
 86 85  1  0
 86 87  1  1
 86 89  1  0
 88 86  1  0
 90 91  1  0
 90 93  1  0
 91 95  1  0
 92 91  2  0
 95 94  1  0
 95 97  1  0
 97 96  1  0
 97 98  1  0
M  ISO  4  17 100  25 100  57 101  58 101
M  END
>  <TORSDO>  (91) 
F 26

>  <SCORE>  (91) 
-8.473

>  <name>  (91) 
96

>  <ligand_id>  (91) 
96

>  <original_smiles>  (91) 
[H]c1c([H])c([H])c2c(c1[H])C([H])([H])C([H])([H])C([H])([H])C2([H])N([H])C(=O)C1([H])N(C(=O)C([H])(N([H])C(=O)C([H])(N([H])C([H])([H])[H])C([H])([H])[H])C(C([H])([H])[H])(C([H])([H])[H])C([H])([H])[H])C([H])([H])c2c([H])c(OC([H])([H])C([H])([H])C([H])([H])c3c([H])c([H])c([H])c(C([H])(C([H])([H])[H])[N+]([H])([H])C([H])([H])C([H])([H])C([H])([H])C([H])([H])C([H])([H])N([H])C(=O)N4C([H])([H])C([H])([H])C([H])([H])C([H])(n5nc(-c6c([H])c([H])c(Oc7c([H])c([H])c(F)c([H])c7F)c([H])c6[H])c(C(=O)N([H])[H])c5N([H])[H])C4([H])[H])c3[H])c([H])c([H])c2C1([H])[H]

>  <smiles>  (91) 
[H]c1c([H])c([H])c2c(c1[H])C([H])([H])C([H])([H])C([H])([H])C2([H])N([H])C(=O)C1([H])N(C(=O)C([H])(N([H])C(=O)C([H])(N([H])C([H])([H])[H])C([H])([H])[H])C(C([H])([H])[H])(C([H])([H])[H])C([H])([H])[H])C([H])([H])c2c([H])c(OC([H])([H])C([H])([H])C([H])([H])c3c([H])c([H])c([H])c(C([H])(C([H])([H])[H])[N+]([H])([H])C([H])([H])C([H])([H])C([H])([H])C([H])([H])C([H])([H])N([H])C(=O)N4C([H])([H])C([H])([H])C([H])([H])C([H])(n5nc(-c6c([H])c([H])c(Oc7c([H])c([H])c(F)c([H])c7F)c([H])c6[H])c(C(=O)N([H])[H])c5N([H])[H])C4([H])[H])c3[H])c([H])c([H])c2C1([H])[H]

$$$$
