0:0:0
     RDKit          3D

103111  0  0  1  0  0  0  0  0999 V2000
  -23.0440  -23.7680   17.5640 N   0  0  0  0  0  4  0  0  0  0  0  0
  -22.1060  -23.9560   17.2490 H   0  0  0  0  0  0  0  0  0  0  0  0
  -23.2770  -22.8400   17.2560 H   0  0  0  0  0  0  0  0  0  0  0  0
  -23.9410  -24.7500   16.9010 C   0  0  0  0  0  2  0  0  0  0  0  0
  -25.1520  -24.0870   16.1970 C   0  0  0  0  0  2  0  0  0  0  0  0
  -25.9230  -23.1780   17.1600 C   0  0  0  0  0  2  0  0  0  0  0  0
  -27.2210  -22.5200   16.6720 C   0  0  0  0  0  2  0  0  0  0  0  0
  -27.4990  -21.3570   17.6340 C   0  0  0  0  0  2  0  0  0  0  0  0
  -28.8680  -20.6730   17.5870 C   0  0  0  0  0  2  0  0  0  0  0  0
  -28.8210  -19.4900   18.5690 C   0  0  0  0  0  2  0  0  0  0  0  0
  -30.1520  -19.1240   19.2230 C   0  0  0  0  0  2  0  0  0  0  0  0
  -29.9200  -18.1210   20.3630 C   0  0  0  0  0  2  0  0  0  0  0  0
  -31.2030  -17.7670   21.1280 C   0  0  0  0  0  2  0  0  0  0  0  0
  -30.9940  -16.6820   22.2110 C   0  0  0  0  0  2  0  0  0  0  0  0
  -30.7890  -14.6970   20.7170 C   0  0  0  0  0  0  0  0  0  0  0  0
  -30.4110  -12.6990   19.3350 C   0  0  0  0  0  2  0  0  0  0  0  0
  -29.4890  -13.0030   18.1400 C   0  0  0  0  0  2  0  0  0  0  0  0
  -28.0100  -12.8460   18.5410 C   0  0  0  0  0  2  0  0  0  0  0  0
  -27.6650  -13.6030   19.8510 C   0  0  0  0  0  3  0  0  0  0  0  0
  -28.6970  -13.2970   20.9570 C   0  0  0  0  0  2  0  0  0  0  0  0
  -30.0460  -13.5960   20.4390 N   0  0  0  0  0  0  0  0  0  0  0  0
  -31.8300  -14.9730   20.1150 O   0  0  0  0  0  0  0  0  0  0  0  0
  -30.3400  -15.4680   21.7150 N   0  0  0  0  0  0  0  0  0  0  0  0
  -29.4920  -15.1720   22.1770 H   0  0  0  0  0  0  0  0  0  0  0  0
  -25.2430  -14.1750   20.5140 C   0  0  0  0  0  0  0  0  0  0  0  0
  -24.1740  -13.3880   20.8400 C   0  0  0  0  0  0  0  0  0  0  0  0
  -24.6460  -12.0390   20.7880 C   0  0  0  0  0  0  0  0  0  0  0  0
  -26.3010  -13.3090   20.2880 N   0  0  0  0  0  0  0  0  0  0  0  0
  -25.9430  -12.0180   20.5080 N   0  0  0  0  0  0  0  0  0  0  0  0
  -23.9280  -10.7670   20.9340 C   0  0  0  0  0  0  0  0  0  0  0  0
  -24.3540   -9.7780   21.8480 C   0  0  0  0  0  3  0  0  0  0  0  0
  -23.6350   -8.5700   21.9830 C   0  0  0  0  0  3  0  0  0  0  0  0
  -22.4760   -8.3430   21.2030 C   0  0  0  0  0  0  0  0  0  0  0  0
  -22.0690   -9.3210   20.2790 C   0  0  0  0  0  3  0  0  0  0  0  0
  -22.7880  -10.5210   20.1430 C   0  0  0  0  0  3  0  0  0  0  0  0
  -21.7300   -7.1900   21.2480 O   0  0  0  0  0  0  0  0  0  0  0  0
  -21.6600   -6.4210   22.3820 C   0  0  0  0  0  0  0  0  0  0  0  0
  -21.2210   -6.9520   23.6150 C   0  0  0  0  0  3  0  0  0  0  0  0
  -21.0980   -6.1100   24.7390 C   0  0  0  0  0  3  0  0  0  0  0  0
  -21.4030   -4.7410   24.6300 C   0  0  0  0  0  0  0  0  0  0  0  0
  -21.8350   -4.2100   23.4020 C   0  0  0  0  0  3  0  0  0  0  0  0
  -21.9600   -5.0480   22.2810 C   0  0  0  0  0  0  0  0  0  0  0  0
  -22.3560   -4.5270   21.0940 F   0  0  0  0  0  0  0  0  0  0  0  0
  -21.2770   -3.9300   25.7080 F   0  0  0  0  0  0  0  0  0  0  0  0
  -22.7660  -13.8450   21.0950 C   0  0  0  0  0  0  0  0  0  0  0  0
  -22.0330  -13.1350   21.9440 N   0  0  0  0  0  0  0  0  0  0  0  0
  -22.3240  -14.8700   20.5750 O   0  0  0  0  0  0  0  0  0  0  0  0
  -22.4040  -12.3080   22.3890 H   0  0  0  0  0  0  0  0  0  0  0  0
  -21.0880  -13.4220   22.1550 H   0  0  0  0  0  0  0  0  0  0  0  0
  -25.4020  -15.5510   20.3720 N   0  0  0  0  0  0  0  0  0  0  0  0
  -24.6330  -16.2030   20.4800 H   0  0  0  0  0  0  0  0  0  0  0  0
  -26.2650  -16.0000   20.0950 H   0  0  0  0  0  0  0  0  0  0  0  0
  -23.0150  -23.7900   19.0470 C   0  0  0  0  0  2  0  0  0  0  0  0
  -25.8510  -21.4040   20.0630 C   0  0  0  0  0  3  0  0  0  0  0  0
  -26.7680  -22.2930   20.6610 C   0  0  0  0  0  3  0  0  0  0  0  0
  -24.6190  -21.8780   19.5720 C   0  0  0  0  0  3  0  0  0  0  0  0
  -25.1880  -24.1180   20.3400 C   0  0  0  0  0  3  0  0  0  0  0  0
  -26.4410  -23.6580   20.8010 C   0  0  0  0  0  0  0  0  0  0  0  0
  -24.2990  -23.2490   19.6740 C   0  0  0  0  0  0  0  0  0  0  0  0
  -27.4350  -24.6120   21.4490 C   0  0  0  0  0  2  0  0  0  0  0  0
  -28.7490  -24.7870   20.6490 C   0  0  0  0  0  2  0  0  0  0  0  0
  -28.7450  -25.7990   19.4820 C   0  0  0  0  0  2  0  0  0  0  0  0
  -28.6010  -27.1400   19.9560 O   0  0  0  0  0  0  0  0  0  0  0  0
  -24.5660  -31.8650   23.3850 C   0  0  0  0  0  0  0  0  0  0  0  0
  -27.3700  -27.7590   19.9870 C   0  0  0  0  0  0  0  0  0  0  0  0
  -23.4140  -30.5410   21.6450 C   0  0  0  0  0  3  0  0  0  0  0  0
  -24.9140  -29.1540   20.1250 C   0  0  0  0  0  0  0  0  0  0  0  0
  -25.9310  -30.9870   21.4920 C   0  0  0  0  0  2  0  0  0  0  0  0
  -26.0530  -29.6720   20.7540 C   0  0  0  0  0  0  0  0  0  0  0  0
  -27.2790  -28.9810   20.6840 C   0  0  0  0  0  3  0  0  0  0  0  0
  -26.2120  -27.2560   19.3490 C   0  0  0  0  0  3  0  0  0  0  0  0
  -24.9850  -27.9390   19.4280 C   0  0  0  0  0  3  0  0  0  0  0  0
  -23.6450  -29.9710   20.2210 C   0  0  0  0  0  2  0  0  0  0  0  0
  -24.6540  -31.1440   22.2300 N   0  0  0  0  0  0  0  0  0  0  0  0
  -23.4740  -32.0670   23.9340 O   0  0  0  0  0  0  0  0  0  0  0  0
  -22.7920  -29.4330   22.5260 C   0  0  0  0  0  0  0  0  0  0  0  0
  -21.4830  -29.1850   22.3490 N   0  0  0  0  0  0  0  0  0  0  0  0
  -23.4840  -28.8020   23.3300 O   0  0  0  0  0  0  0  0  0  0  0  0
  -20.9890  -29.7470   21.6720 H   0  0  0  0  0  0  0  0  0  0  0  0
  -18.1850  -27.7330   22.6200 C   0  0  0  0  0  0  0  0  0  0  0  0
  -20.6960  -28.1690   23.0480 C   0  0  0  0  0  3  0  0  0  0  0  0
  -20.9420  -26.7660   22.4460 C   0  0  0  0  0  2  0  0  0  0  0  0
  -19.9270  -26.3900   21.3640 C   0  0  0  0  0  2  0  0  0  0  0  0
  -18.5030  -26.4200   21.9260 C   0  0  0  0  0  2  0  0  0  0  0  0
  -19.2160  -28.5620   23.1350 C   0  0  0  0  0  0  0  0  0  0  0  0
  -18.8660  -29.7900   23.7390 C   0  0  0  0  0  3  0  0  0  0  0  0
  -17.5190  -30.1860   23.8390 C   0  0  0  0  0  3  0  0  0  0  0  0
  -16.5020  -29.3520   23.3450 C   0  0  0  0  0  3  0  0  0  0  0  0
  -16.8340  -28.1280   22.7370 C   0  0  0  0  0  3  0  0  0  0  0  0
  -25.8310  -32.4900   24.0530 C   0  0  0  0  0  3  0  0  0  0  0  0
  -25.5140  -33.8880   24.3790 N   0  0  0  0  0  0  0  0  0  0  0  0
  -25.8650  -34.9410   23.6260 C   0  0  0  0  0  0  0  0  0  0  0  0
  -26.5640  -34.8370   22.6150 O   0  0  0  0  0  0  0  0  0  0  0  0
  -24.9200  -34.0450   25.1780 H   0  0  0  0  0  0  0  0  0  0  0  0
  -24.1480  -36.7300   23.2260 C   0  0  0  0  0  1  0  0  0  0  0  0
  -25.3650  -36.3280   24.0740 C   0  0  0  0  0  3  0  0  0  0  0  0
  -27.4750  -37.2060   24.9680 C   0  0  0  0  0  1  0  0  0  0  0  0
  -26.3990  -37.3810   23.9960 N   0  0  0  0  0  0  0  0  0  0  0  0
  -25.9870  -38.2980   24.1450 H   0  0  0  0  0  0  0  0  0  0  0  0
  -26.3140  -31.7130   25.3410 C   0  0  1  0  0  0  0  0  0  0  0  0
  -25.1950  -31.4590   26.3770 C   0  0  0  0  0  1  0  0  0  0  0  0
  -26.9110  -30.3400   24.9560 C   0  0  0  0  0  1  0  0  0  0  0  0
  -27.4440  -32.5060   26.0430 C   0  0  0  0  0  1  0  0  0  0  0  0
  1 53  1  0
  2  1  1  0
  3  1  1  0
  4  1  1  0
  5  4  1  0
  5  6  1  0
  7  6  1  0
  7  8  1  0
  9  8  1  0
  9 10  1  0
 10 11  1  0
 11 12  1  0
 12 13  1  0
 13 14  1  0
 15 23  1  0
 16 21  1  0
 17 18  1  0
 17 16  1  0
 19 18  1  0
 19 28  1  0
 19 20  1  0
 21 15  1  0
 21 20  1  0
 22 15  2  0
 23 24  1  0
 23 14  1  0
 25 26  2  0
 26 45  1  0
 27 26  1  0
 27 30  1  0
 28 29  1  0
 28 25  1  0
 29 27  2  0
 30 31  1  0
 31 32  2  0
 33 36  1  0
 33 32  1  0
 34 33  2  0
 35 34  1  0
 35 30  2  0
 36 37  1  0
 37 38  1  0
 38 39  2  0
 40 39  1  0
 40 44  1  0
 41 40  2  0
 42 37  2  0
 42 41  1  0
 43 42  1  0
 45 46  1  0
 46 49  1  0
 46 48  1  0
 47 45  2  0
 50 51  1  0
 50 25  1  0
 52 50  1  0
 53 59  1  0
 54 55  1  0
 55 58  2  0
 56 59  1  0
 56 54  2  0
 57 58  1  0
 58 60  1  0
 59 57  2  0
 61 60  1  0
 62 63  1  0
 62 61  1  0
 63 65  1  0
 64 75  2  0
 65 70  1  0
 66 74  1  0
 66 76  1  0
 67 73  1  0
 67 69  1  0
 68 74  1  0
 69 68  1  0
 70 69  2  0
 71 72  1  0
 71 65  2  0
 72 67  2  0
 73 66  1  0
 74 64  1  0
 76 78  2  0
 77 76  1  0
 79 77  1  0
 80 89  2  0
 80 85  1  0
 81 77  1  0
 81 85  1  0
 82 81  1  0
 83 84  1  0
 83 82  1  0
 84 80  1  0
 85 86  2  0
 86 87  1  0
 88 87  2  0
 89 88  1  0
 90 64  1  0
 90 91  1  0
 90100  1  0
 91 94  1  0
 92 96  1  0
 92 91  1  0
 93 92  2  0
 96 95  1  0
 98 96  1  0
 98 99  1  0
 98 97  1  0
100103  1  1
100101  1  0
102100  1  0
M  ISO  4  15 100  23 100  62 101  63 101
M  END
>  <TORSDO>  (1) 
F 32

>  <SCORE>  (1) 
-7.684

>  <name>  (1) 
0

>  <ligand_id>  (1) 
0

>  <original_smiles>  (1) 
[H]c1c([H])c([H])c2c(c1[H])C([H])([H])C([H])([H])C([H])([H])C2([H])N([H])C(=O)C1([H])N(C(=O)C([H])(N([H])C(=O)C([H])(N([H])C([H])([H])[H])C([H])([H])[H])C(C([H])([H])[H])(C([H])([H])[H])C([H])([H])[H])C([H])([H])c2c([H])c(OC([H])([H])C([H])([H])C([H])([H])c3c([H])c([H])c([H])c(C([H])([H])[N+]([H])([H])C([H])([H])C([H])([H])C([H])([H])C([H])([H])C([H])([H])C([H])([H])C([H])([H])C([H])([H])C([H])([H])C([H])([H])C([H])([H])N([H])C(=O)N4C([H])([H])C([H])([H])C([H])([H])C([H])(n5nc(-c6c([H])c([H])c(Oc7c([H])c([H])c(F)c([H])c7F)c([H])c6[H])c(C(=O)N([H])[H])c5N([H])[H])C4([H])[H])c3[H])c([H])c([H])c2C1([H])[H]

>  <smiles>  (1) 
[H]c1c([H])c([H])c2c(c1[H])C([H])([H])C([H])([H])C([H])([H])C2([H])N([H])C(=O)C1([H])N(C(=O)C([H])(N([H])C(=O)C([H])(N([H])C([H])([H])[H])C([H])([H])[H])C(C([H])([H])[H])(C([H])([H])[H])C([H])([H])[H])C([H])([H])c2c([H])c(OC([H])([H])C([H])([H])C([H])([H])c3c([H])c([H])c([H])c(C([H])([H])[N+]([H])([H])C([H])([H])C([H])([H])C([H])([H])C([H])([H])C([H])([H])C([H])([H])C([H])([H])C([H])([H])C([H])([H])C([H])([H])C([H])([H])N([H])C(=O)N4C([H])([H])C([H])([H])C([H])([H])C([H])(n5nc(-c6c([H])c([H])c(Oc7c([H])c([H])c(F)c([H])c7F)c([H])c6[H])c(C(=O)N([H])[H])c5N([H])[H])C4([H])[H])c3[H])c([H])c([H])c2C1([H])[H]

$$$$
1:0:0
     RDKit          3D

 93101  0  0  1  0  0  0  0  0999 V2000
  -29.5720  -19.7720   16.0050 C   0  0  0  0  0  3  0  0  0  0  0  0
  -31.7050  -20.4650   16.9680 C   0  0  0  0  0  3  0  0  0  0  0  0
  -29.1030  -21.0960   16.0820 C   0  0  0  0  0  3  0  0  0  0  0  0
  -31.2390  -21.7920   17.0350 C   0  0  0  0  0  3  0  0  0  0  0  0
  -30.8690  -19.4490   16.4610 C   0  0  0  0  0  0  0  0  0  0  0  0
  -29.9350  -22.1080   16.6010 C   0  0  0  0  0  0  0  0  0  0  0  0
  -31.3520  -18.0120   16.4060 C   0  0  0  0  0  2  0  0  0  0  0  0
  -30.5370  -17.0780   17.3150 C   0  0  0  0  0  2  0  0  0  0  0  0
  -30.7780  -17.2750   18.8260 C   0  0  0  0  0  2  0  0  0  0  0  0
  -29.7200  -16.5060   19.6440 C   0  0  0  0  0  2  0  0  0  0  0  0
  -30.9570  -14.7980   20.8210 C   0  0  0  0  0  0  0  0  0  0  0  0
  -30.6990  -12.6160   19.7370 C   0  0  0  0  0  2  0  0  0  0  0  0
  -29.8380  -12.7990   18.4730 C   0  0  0  0  0  2  0  0  0  0  0  0
  -28.3350  -12.6860   18.8120 C   0  0  0  0  0  2  0  0  0  0  0  0
  -27.9120  -13.5240   20.0500 C   0  0  0  0  0  3  0  0  0  0  0  0
  -28.9160  -13.3710   21.2170 C   0  0  0  0  0  2  0  0  0  0  0  0
  -30.2670  -13.6350   20.6970 N   0  0  0  0  0  0  0  0  0  0  0  0
  -32.1610  -14.9100   20.6000 O   0  0  0  0  0  0  0  0  0  0  0  0
  -30.2130  -15.9080   20.8920 N   0  0  0  0  0  0  0  0  0  0  0  0
  -30.6480  -16.6080   21.4770 H   0  0  0  0  0  0  0  0  0  0  0  0
  -25.4770  -14.1240   20.6010 C   0  0  0  0  0  0  0  0  0  0  0  0
  -24.3940  -13.3480   20.9070 C   0  0  0  0  0  0  0  0  0  0  0  0
  -24.8670  -12.0010   20.9270 C   0  0  0  0  0  0  0  0  0  0  0  0
  -26.5410  -13.2450   20.4550 N   0  0  0  0  0  0  0  0  0  0  0  0
  -26.1740  -11.9650   20.7090 N   0  0  0  0  0  0  0  0  0  0  0  0
  -24.1420  -10.7350   21.0830 C   0  0  0  0  0  0  0  0  0  0  0  0
  -24.5070   -9.7950   22.0720 C   0  0  0  0  0  3  0  0  0  0  0  0
  -23.7820   -8.5930   22.2150 C   0  0  0  0  0  3  0  0  0  0  0  0
  -22.6810   -8.3230   21.3690 C   0  0  0  0  0  0  0  0  0  0  0  0
  -22.3370   -9.2530   20.3700 C   0  0  0  0  0  3  0  0  0  0  0  0
  -23.0630  -10.4460   20.2250 C   0  0  0  0  0  3  0  0  0  0  0  0
  -21.9340   -7.1720   21.4200 O   0  0  0  0  0  0  0  0  0  0  0  0
  -21.7700   -6.4740   22.5900 C   0  0  0  0  0  0  0  0  0  0  0  0
  -21.1700   -7.0560   23.7280 C   0  0  0  0  0  3  0  0  0  0  0  0
  -20.9590   -6.2810   24.8860 C   0  0  0  0  0  3  0  0  0  0  0  0
  -21.3360   -4.9250   24.9060 C   0  0  0  0  0  0  0  0  0  0  0  0
  -21.9300   -4.3420   23.7720 C   0  0  0  0  0  3  0  0  0  0  0  0
  -22.1430   -5.1140   22.6160 C   0  0  0  0  0  0  0  0  0  0  0  0
  -22.6950   -4.5430   21.5180 F   0  0  0  0  0  0  0  0  0  0  0  0
  -21.1270   -4.1780   26.0140 F   0  0  0  0  0  0  0  0  0  0  0  0
  -22.9780  -13.8180   21.0790 C   0  0  0  0  0  0  0  0  0  0  0  0
  -22.2000  -13.1240   21.9030 N   0  0  0  0  0  0  0  0  0  0  0  0
  -22.5670  -14.8340   20.5220 O   0  0  0  0  0  0  0  0  0  0  0  0
  -22.5430  -12.2990   22.3730 H   0  0  0  0  0  0  0  0  0  0  0  0
  -21.2490  -13.4210   22.0650 H   0  0  0  0  0  0  0  0  0  0  0  0
  -25.6410  -15.4950   20.4180 N   0  0  0  0  0  0  0  0  0  0  0  0
  -24.8660  -16.1460   20.4790 H   0  0  0  0  0  0  0  0  0  0  0  0
  -26.5210  -15.9400   20.1900 H   0  0  0  0  0  0  0  0  0  0  0  0
  -29.4180  -23.5270   16.7320 C   0  0  0  0  0  2  0  0  0  0  0  0
  -28.9700  -23.8120   18.1710 C   0  0  0  0  0  2  0  0  0  0  0  0
  -28.6950  -25.2960   18.4400 C   0  0  0  0  0  2  0  0  0  0  0  0
  -28.4050  -25.5480   19.9250 C   0  0  0  0  0  2  0  0  0  0  0  0
  -28.3550  -26.9390   20.2080 O   0  0  0  0  0  0  0  0  0  0  0  0
  -24.5140  -31.9940   23.3380 C   0  0  0  0  0  0  0  0  0  0  0  0
  -27.1440  -27.5930   20.2060 C   0  0  0  0  0  0  0  0  0  0  0  0
  -23.2950  -30.6040   21.6920 C   0  0  0  0  0  3  0  0  0  0  0  0
  -24.7360  -29.0730   20.2530 C   0  0  0  0  0  0  0  0  0  0  0  0
  -25.8160  -30.9670   21.4810 C   0  0  0  0  0  2  0  0  0  0  0  0
  -25.8950  -29.6020   20.8340 C   0  0  0  0  0  0  0  0  0  0  0  0
  -27.0980  -28.8680   20.8080 C   0  0  0  0  0  3  0  0  0  0  0  0
  -25.9640  -27.0660   19.6310 C   0  0  0  0  0  3  0  0  0  0  0  0
  -24.7640  -27.8020   19.6540 C   0  0  0  0  0  3  0  0  0  0  0  0
  -23.4930  -29.9300   20.3080 C   0  0  0  0  0  2  0  0  0  0  0  0
  -24.5600  -31.2030   22.2290 N   0  0  0  0  0  0  0  0  0  0  0  0
  -23.4360  -32.2650   23.8860 O   0  0  0  0  0  0  0  0  0  0  0  0
  -22.6480  -29.5790   22.6490 C   0  0  0  0  0  0  0  0  0  0  0  0
  -21.3270  -29.3820   22.5070 N   0  0  0  0  0  0  0  0  0  0  0  0
  -23.3300  -28.9640   23.4730 O   0  0  0  0  0  0  0  0  0  0  0  0
  -20.8390  -29.9320   21.8150 H   0  0  0  0  0  0  0  0  0  0  0  0
  -17.9640  -28.1430   22.9490 C   0  0  0  0  0  0  0  0  0  0  0  0
  -20.5110  -28.4370   23.2680 C   0  0  0  0  0  3  0  0  0  0  0  0
  -20.6460  -27.0040   22.7030 C   0  0  0  0  0  2  0  0  0  0  0  0
  -19.5670  -26.6600   21.6700 C   0  0  0  0  0  2  0  0  0  0  0  0
  -18.1720  -26.7900   22.2880 C   0  0  0  0  0  2  0  0  0  0  0  0
  -19.0640  -28.9220   23.3950 C   0  0  0  0  0  0  0  0  0  0  0  0
  -18.8180  -30.1890   23.9700 C   0  0  0  0  0  3  0  0  0  0  0  0
  -17.5040  -30.6750   24.1050 C   0  0  0  0  0  3  0  0  0  0  0  0
  -16.4180  -29.8910   23.6790 C   0  0  0  0  0  3  0  0  0  0  0  0
  -16.6490  -28.6270   23.1070 C   0  0  0  0  0  3  0  0  0  0  0  0
  -25.8060  -32.6150   23.9560 C   0  0  0  0  0  3  0  0  0  0  0  0
  -25.5230  -34.0280   24.2440 N   0  0  0  0  0  0  0  0  0  0  0  0
  -25.8980  -35.0520   23.4670 C   0  0  0  0  0  0  0  0  0  0  0  0
  -26.5890  -34.9070   22.4550 O   0  0  0  0  0  0  0  0  0  0  0  0
  -24.9150  -34.2160   25.0270 H   0  0  0  0  0  0  0  0  0  0  0  0
  -24.2330  -36.8790   23.0080 C   0  0  0  0  0  1  0  0  0  0  0  0
  -25.4310  -36.4610   23.8760 C   0  0  0  0  0  3  0  0  0  0  0  0
  -27.5520  -37.3080   24.7750 C   0  0  0  0  0  1  0  0  0  0  0  0
  -26.4940  -37.4840   23.7840 N   0  0  0  0  0  0  0  0  0  0  0  0
  -26.1080  -38.4170   23.8960 H   0  0  0  0  0  0  0  0  0  0  0  0
  -26.2970  -31.8660   25.2540 C   0  0  1  0  0  0  0  0  0  0  0  0
  -25.1910  -31.6650   26.3140 C   0  0  0  0  0  1  0  0  0  0  0  0
  -26.8660  -30.4740   24.8960 C   0  0  0  0  0  1  0  0  0  0  0  0
  -27.4500  -32.6590   25.9150 C   0  0  0  0  0  1  0  0  0  0  0  0
  1  3  2  0
  1  5  1  0
  2  4  1  0
  3  6  1  0
  5  2  2  0
  6 49  1  0
  6  4  2  0
  7  5  1  0
  7  8  1  0
  8  9  1  0
  9 10  1  0
 10 19  1  0
 11 19  1  0
 12 17  1  0
 13 14  1  0
 13 12  1  0
 15 14  1  0
 15 24  1  0
 15 16  1  0
 17 11  1  0
 17 16  1  0
 18 11  2  0
 19 20  1  0
 21 22  2  0
 22 23  1  0
 22 41  1  0
 23 26  1  0
 24 21  1  0
 24 25  1  0
 25 23  2  0
 26 27  1  0
 27 28  2  0
 29 32  1  0
 29 28  1  0
 30 29  2  0
 31 30  1  0
 31 26  2  0
 32 33  1  0
 33 38  2  0
 33 34  1  0
 34 35  2  0
 35 36  1  0
 36 40  1  0
 37 36  2  0
 38 37  1  0
 39 38  1  0
 41 42  1  0
 42 45  1  0
 42 44  1  0
 43 41  2  0
 46 47  1  0
 46 21  1  0
 48 46  1  0
 49 50  1  0
 50 51  1  0
 51 52  1  0
 52 53  1  0
 54 65  2  0
 55 53  1  0
 55 60  1  0
 56 64  1  0
 56 66  1  0
 57 63  1  0
 57 59  1  0
 58 64  1  0
 59 58  1  0
 60 59  2  0
 61 62  1  0
 61 55  2  0
 62 57  2  0
 63 56  1  0
 64 54  1  0
 66 68  2  0
 67 66  1  0
 69 67  1  0
 70 79  2  0
 70 75  1  0
 71 67  1  0
 71 75  1  0
 72 71  1  0
 73 74  1  0
 73 72  1  0
 74 70  1  0
 75 76  2  0
 76 77  1  0
 78 77  2  0
 79 78  1  0
 80 54  1  0
 80 81  1  0
 80 90  1  0
 81 84  1  0
 82 86  1  0
 82 81  1  0
 83 82  2  0
 86 85  1  0
 88 86  1  0
 88 89  1  0
 88 87  1  0
 90 93  1  1
 90 91  1  0
 92 90  1  0
M  ISO  4  11 100  19 100  52 101  53 101
M  END
>  <TORSDO>  (2) 
F 24

>  <SCORE>  (2) 
-11.414

>  <name>  (2) 
1

>  <ligand_id>  (2) 
1

>  <original_smiles>  (2) 
[H]c1c([H])c([H])c2c(c1[H])C([H])([H])C([H])([H])C([H])([H])C2([H])N([H])C(=O)C1([H])N(C(=O)C([H])(N([H])C(=O)C([H])(N([H])C([H])([H])[H])C([H])([H])[H])C(C([H])([H])[H])(C([H])([H])[H])C([H])([H])[H])C([H])([H])c2c([H])c(OC([H])([H])C([H])([H])C([H])([H])C([H])([H])c3c([H])c([H])c(C([H])([H])C([H])([H])C([H])([H])C([H])([H])N([H])C(=O)N4C([H])([H])C([H])([H])C([H])([H])C([H])(n5nc(-c6c([H])c([H])c(Oc7c([H])c([H])c(F)c([H])c7F)c([H])c6[H])c(C(=O)N([H])[H])c5N([H])[H])C4([H])[H])c([H])c3[H])c([H])c([H])c2C1([H])[H]

>  <smiles>  (2) 
[H]c1c([H])c([H])c2c(c1[H])C([H])([H])C([H])([H])C([H])([H])C2([H])N([H])C(=O)C1([H])N(C(=O)C([H])(N([H])C(=O)C([H])(N([H])C([H])([H])[H])C([H])([H])[H])C(C([H])([H])[H])(C([H])([H])[H])C([H])([H])[H])C([H])([H])c2c([H])c(OC([H])([H])C([H])([H])C([H])([H])C([H])([H])c3c([H])c([H])c(C([H])([H])C([H])([H])C([H])([H])C([H])([H])N([H])C(=O)N4C([H])([H])C([H])([H])C([H])([H])C([H])(n5nc(-c6c([H])c([H])c(Oc7c([H])c([H])c(F)c([H])c7F)c([H])c6[H])c(C(=O)N([H])[H])c5N([H])[H])C4([H])[H])c([H])c3[H])c([H])c([H])c2C1([H])[H]

$$$$
2:0:0
     RDKit          3D

 97105  0  0  1  0  0  0  0  0999 V2000
  -26.8260  -21.4310   20.5390 C   0  0  0  0  0  3  0  0  0  0  0  0
  -27.0600  -21.4550   18.1160 C   0  0  0  0  0  3  0  0  0  0  0  0
  -27.5570  -22.6280   20.6150 C   0  0  0  0  0  3  0  0  0  0  0  0
  -27.7690  -22.6710   18.1970 C   0  0  0  0  0  3  0  0  0  0  0  0
  -26.6590  -20.7980   19.2960 C   0  0  0  0  0  0  0  0  0  0  0  0
  -28.0990  -23.2380   19.4550 C   0  0  0  0  0  0  0  0  0  0  0  0
  -26.2690  -19.3730   19.2630 C   0  0  0  0  0  0  0  0  0  0  0  0
  -25.1290  -18.9650   19.4920 O   0  0  0  0  0  0  0  0  0  0  0  0
  -27.4070  -18.3940   18.9090 C   0  0  0  0  0  2  0  0  0  0  0  0
  -28.8130  -19.0470   18.8930 C   0  0  0  0  0  2  0  0  0  0  0  0
  -30.0100  -18.1100   18.7240 C   0  0  0  0  0  2  0  0  0  0  0  0
  -30.4960  -17.4540   20.0250 C   0  0  0  0  0  2  0  0  0  0  0  0
  -32.0140  -17.1650   19.9830 C   0  0  0  0  0  2  0  0  0  0  0  0
  -32.4780  -16.0670   20.9480 C   0  0  0  0  0  2  0  0  0  0  0  0
  -31.7880  -14.0330   19.6620 C   0  0  0  0  0  0  0  0  0  0  0  0
  -31.1840  -11.7470   18.9690 C   0  0  0  0  0  2  0  0  0  0  0  0
  -30.1360  -11.6850   17.8460 C   0  0  0  0  0  2  0  0  0  0  0  0
  -28.7120  -11.7490   18.4250 C   0  0  0  0  0  2  0  0  0  0  0  0
  -28.5290  -12.9340   19.4060 C   0  0  0  0  0  3  0  0  0  0  0  0
  -29.6620  -12.9590   20.4540 C   0  0  0  0  0  2  0  0  0  0  0  0
  -30.9660  -12.9630   19.7600 N   0  0  0  0  0  0  0  0  0  0  0  0
  -32.6290  -14.1800   18.7700 O   0  0  0  0  0  0  0  0  0  0  0  0
  -31.7280  -14.8370   20.7310 N   0  0  0  0  0  0  0  0  0  0  0  0
  -31.0800  -14.5590   21.4530 H   0  0  0  0  0  0  0  0  0  0  0  0
  -26.4380  -13.9420   20.5250 C   0  0  0  0  0  0  0  0  0  0  0  0
  -25.2680  -13.3760   20.9560 C   0  0  0  0  0  0  0  0  0  0  0  0
  -25.3870  -11.9780   20.6920 C   0  0  0  0  0  0  0  0  0  0  0  0
  -27.2120  -12.8990   20.0410 N   0  0  0  0  0  0  0  0  0  0  0  0
  -26.5860  -11.7030   20.1930 N   0  0  0  0  0  0  0  0  0  0  0  0
  -24.4100  -10.8920   20.8340 C   0  0  0  0  0  0  0  0  0  0  0  0
  -24.6900   -9.7420   21.6030 C   0  0  0  0  0  3  0  0  0  0  0  0
  -23.7260   -8.7180   21.7380 C   0  0  0  0  0  3  0  0  0  0  0  0
  -22.4680   -8.8410   21.1040 C   0  0  0  0  0  0  0  0  0  0  0  0
  -22.2020   -9.9790   20.3210 C   0  0  0  0  0  3  0  0  0  0  0  0
  -23.1630  -10.9940   20.1840 C   0  0  0  0  0  3  0  0  0  0  0  0
  -21.4800   -7.8870   21.1580 O   0  0  0  0  0  0  0  0  0  0  0  0
  -21.3380   -7.0610   22.2440 C   0  0  0  0  0  0  0  0  0  0  0  0
  -21.1170   -7.5690   23.5430 C   0  0  0  0  0  3  0  0  0  0  0  0
  -20.9060   -6.6830   24.6180 C   0  0  0  0  0  3  0  0  0  0  0  0
  -20.9060   -5.2930   24.3980 C   0  0  0  0  0  0  0  0  0  0  0  0
  -21.1180   -4.7850   23.1040 C   0  0  0  0  0  3  0  0  0  0  0  0
  -21.3320   -5.6680   22.0290 C   0  0  0  0  0  0  0  0  0  0  0  0
  -21.5160   -5.1750   20.7810 F   0  0  0  0  0  0  0  0  0  0  0  0
  -20.6940   -4.4420   25.4290 F   0  0  0  0  0  0  0  0  0  0  0  0
  -24.0670  -14.1020   21.4910 C   0  0  0  0  0  0  0  0  0  0  0  0
  -23.3160  -13.4670   22.3850 N   0  0  0  0  0  0  0  0  0  0  0  0
  -23.8150  -15.2580   21.1540 O   0  0  0  0  0  0  0  0  0  0  0  0
  -23.5350  -12.5270   22.6780 H   0  0  0  0  0  0  0  0  0  0  0  0
  -22.5120  -13.9300   22.7830 H   0  0  0  0  0  0  0  0  0  0  0  0
  -26.8980  -15.2520   20.4850 N   0  0  0  0  0  0  0  0  0  0  0  0
  -26.3110  -16.0320   20.7560 H   0  0  0  0  0  0  0  0  0  0  0  0
  -27.7830  -15.5320   20.0840 H   0  0  0  0  0  0  0  0  0  0  0  0
  -29.3390  -25.0820   18.3460 C   0  0  0  0  0  1  0  0  0  0  0  0
  -28.9760  -24.3470   19.5590 N   0  0  0  0  0  0  0  0  0  0  0  0
  -29.9200  -24.4020   20.6820 C   0  0  0  0  0  2  0  0  0  0  0  0
  -29.5440  -25.4180   21.7820 C   0  0  0  0  0  2  0  0  0  0  0  0
  -29.5790  -26.7600   21.3120 O   0  0  0  0  0  0  0  0  0  0  0  0
  -25.0090  -31.6680   23.6430 C   0  0  0  0  0  0  0  0  0  0  0  0
  -28.3490  -27.3480   21.1670 C   0  0  0  0  0  0  0  0  0  0  0  0
  -24.1160  -30.0690   21.9840 C   0  0  0  0  0  3  0  0  0  0  0  0
  -25.8430  -28.5950   20.8330 C   0  0  0  0  0  0  0  0  0  0  0  0
  -26.6060  -30.6560   22.0270 C   0  0  0  0  0  2  0  0  0  0  0  0
  -26.8770  -29.2650   21.4980 C   0  0  0  0  0  0  0  0  0  0  0  0
  -28.1360  -28.6490   21.6610 C   0  0  0  0  0  3  0  0  0  0  0  0
  -27.2940  -26.6820   20.5070 C   0  0  0  0  0  3  0  0  0  0  0  0
  -26.0440  -27.2980   20.3360 C   0  0  0  0  0  3  0  0  0  0  0  0
  -24.5330  -29.3310   20.6860 C   0  0  0  0  0  2  0  0  0  0  0  0
  -25.2540  -30.8160   22.6100 N   0  0  0  0  0  0  0  0  0  0  0  0
  -23.8570  -31.8720   24.0460 O   0  0  0  0  0  0  0  0  0  0  0  0
  -23.4540  -29.0480   22.9370 C   0  0  0  0  0  0  0  0  0  0  0  0
  -22.2570  -28.5720   22.5610 N   0  0  0  0  0  0  0  0  0  0  0  0
  -24.0230  -28.6820   23.9690 O   0  0  0  0  0  0  0  0  0  0  0  0
  -21.8530  -28.9280   21.7070 H   0  0  0  0  0  0  0  0  0  0  0  0
  -19.1740  -26.6900   22.4650 C   0  0  0  0  0  0  0  0  0  0  0  0
  -21.4600  -27.5770   23.2820 C   0  0  0  0  0  3  0  0  0  0  0  0
  -21.9920  -26.1480   23.0250 C   0  0  0  0  0  2  0  0  0  0  0  0
  -21.2900  -25.4440   21.8590 C   0  0  0  0  0  2  0  0  0  0  0  0
  -19.7840  -25.3430   22.1190 C   0  0  0  0  0  2  0  0  0  0  0  0
  -19.9640  -27.7450   22.9960 C   0  0  0  0  0  0  0  0  0  0  0  0
  -19.3520  -28.9890   23.2660 C   0  0  0  0  0  3  0  0  0  0  0  0
  -17.9820  -29.1880   23.0180 C   0  0  0  0  0  3  0  0  0  0  0  0
  -17.2010  -28.1350   22.5070 C   0  0  0  0  0  3  0  0  0  0  0  0
  -17.7960  -26.8900   22.2380 C   0  0  0  0  0  3  0  0  0  0  0  0
  -26.1610  -32.4500   24.3520 C   0  0  0  0  0  3  0  0  0  0  0  0
  -26.5470  -31.8460   25.7580 C   0  0  1  0  0  0  0  0  0  0  0  0
  -25.3290  -31.5500   26.6640 C   0  0  0  0  0  1  0  0  0  0  0  0
  -27.3380  -30.5280   25.5850 C   0  0  0  0  0  1  0  0  0  0  0  0
  -27.4790  -32.8240   26.5120 C   0  0  0  0  0  1  0  0  0  0  0  0
  -25.7320  -33.8470   24.4860 N   0  0  0  0  0  0  0  0  0  0  0  0
  -26.0720  -34.8310   23.6410 C   0  0  0  0  0  0  0  0  0  0  0  0
  -26.8540  -34.6660   22.7010 O   0  0  0  0  0  0  0  0  0  0  0  0
  -25.0490  -34.0430   25.2040 H   0  0  0  0  0  0  0  0  0  0  0  0
  -24.2570  -36.4180   22.9290 C   0  0  0  0  0  1  0  0  0  0  0  0
  -25.4470  -36.2180   23.8820 C   0  0  0  0  0  3  0  0  0  0  0  0
  -27.4420  -37.3550   24.7510 C   0  0  0  0  0  1  0  0  0  0  0  0
  -26.4070  -37.3310   23.7200 N   0  0  0  0  0  0  0  0  0  0  0  0
  -25.9270  -38.2270   23.7350 H   0  0  0  0  0  0  0  0  0  0  0  0
  1  3  1  0
  2  4  2  0
  2  5  1  0
  4  6  1  0
  5  1  2  0
  6 54  1  0
  6  3  2  0
  7  5  1  0
  7  8  2  0
  9  7  1  0
 10  9  1  0
 11 10  1  0
 11 12  1  0
 13 12  1  0
 13 14  1  0
 15 21  1  0
 15 23  1  0
 16 21  1  0
 17 18  1  0
 17 16  1  0
 19 18  1  0
 19 28  1  0
 19 20  1  0
 21 20  1  0
 22 15  2  0
 23 14  1  0
 23 24  1  0
 25 26  2  0
 26 45  1  0
 27 30  1  0
 27 26  1  0
 28 29  1  0
 28 25  1  0
 29 27  2  0
 30 31  1  0
 31 32  2  0
 33 36  1  0
 33 32  1  0
 34 33  2  0
 35 34  1  0
 35 30  2  0
 36 37  1  0
 37 38  1  0
 38 39  2  0
 40 39  1  0
 40 44  1  0
 41 40  2  0
 42 37  2  0
 42 41  1  0
 43 42  1  0
 45 46  1  0
 46 48  1  0
 46 49  1  0
 47 45  2  0
 50 25  1  0
 50 51  1  0
 52 50  1  0
 53 54  1  0
 54 55  1  0
 55 56  1  0
 57 56  1  0
 58 69  2  0
 59 57  1  0
 59 64  1  0
 60 68  1  0
 60 70  1  0
 61 63  1  0
 62 68  1  0
 63 64  2  0
 63 62  1  0
 65 59  2  0
 66 65  1  0
 66 61  2  0
 67 61  1  0
 67 60  1  0
 68 58  1  0
 70 72  2  0
 71 70  1  0
 73 71  1  0
 74 79  1  0
 75 71  1  0
 76 75  1  0
 77 78  1  0
 77 76  1  0
 78 74  1  0
 79 80  2  0
 79 75  1  0
 81 80  1  0
 82 81  2  0
 83 74  2  0
 83 82  1  0
 84 58  1  0
 84 89  1  0
 84 85  1  0
 85 88  1  1
 85 86  1  0
 87 85  1  0
 89 92  1  0
 90 94  1  0
 90 89  1  0
 91 90  2  0
 94 93  1  0
 96 97  1  0
 96 94  1  0
 96 95  1  0
M  ISO  4  15 100  23 100  56 101  57 101
M  END
>  <TORSDO>  (3) 
F 26

>  <SCORE>  (3) 
-7.427

>  <name>  (3) 
2

>  <ligand_id>  (3) 
2

>  <original_smiles>  (3) 
[H]c1c([H])c([H])c2c(c1[H])C([H])([H])C([H])([H])C([H])([H])C2([H])N([H])C(=O)C1([H])N(C(=O)C([H])(N([H])C(=O)C([H])(N([H])C([H])([H])[H])C([H])([H])[H])C(C([H])([H])[H])(C([H])([H])[H])C([H])([H])[H])C([H])([H])c2c([H])c(OC([H])([H])C([H])([H])N(c3c([H])c([H])c(C(=O)C([H])([H])C([H])([H])C([H])([H])C([H])([H])C([H])([H])C([H])([H])N([H])C(=O)N4C([H])([H])C([H])([H])C([H])([H])C([H])(n5nc(-c6c([H])c([H])c(Oc7c([H])c([H])c(F)c([H])c7F)c([H])c6[H])c(C(=O)N([H])[H])c5N([H])[H])C4([H])[H])c([H])c3[H])C([H])([H])[H])c([H])c([H])c2C1([H])[H]

>  <smiles>  (3) 
[H]c1c([H])c([H])c2c(c1[H])C([H])([H])C([H])([H])C([H])([H])C2([H])N([H])C(=O)C1([H])N(C(=O)C([H])(N([H])C(=O)C([H])(N([H])C([H])([H])[H])C([H])([H])[H])C(C([H])([H])[H])(C([H])([H])[H])C([H])([H])[H])C([H])([H])c2c([H])c(OC([H])([H])C([H])([H])N(c3c([H])c([H])c(C(=O)C([H])([H])C([H])([H])C([H])([H])C([H])([H])C([H])([H])C([H])([H])N([H])C(=O)N4C([H])([H])C([H])([H])C([H])([H])C([H])(n5nc(-c6c([H])c([H])c(Oc7c([H])c([H])c(F)c([H])c7F)c([H])c6[H])c(C(=O)N([H])[H])c5N([H])[H])C4([H])[H])c([H])c3[H])C([H])([H])[H])c([H])c([H])c2C1([H])[H]

$$$$
3:0:0
     RDKit          3D

 96103  0  0  1  0  0  0  0  0999 V2000
  -29.2530  -21.4170   20.5020 C   0  0  0  0  0  3  0  0  0  0  0  0
  -28.5620  -22.7160   20.8610 N   0  0  0  0  0  4  0  0  0  0  0  0
  -27.6270  -22.6860   20.4830 H   0  0  0  0  0  0  0  0  0  0  0  0
  -28.4410  -22.7180   21.8640 H   0  0  0  0  0  0  0  0  0  0  0  0
  -29.1920  -24.0550   20.5230 C   0  0  0  0  0  2  0  0  0  0  0  0
  -28.1250  -25.1570   20.1660 C   0  0  0  0  0  2  0  0  0  0  0  0
  -28.3950  -26.5990   20.2800 O   0  0  0  0  0  0  0  0  0  0  0  0
  -24.5820  -31.9440   23.2470 C   0  0  0  0  0  0  0  0  0  0  0  0
  -27.2640  -27.4260   20.2200 C   0  0  0  0  0  0  0  0  0  0  0  0
  -23.4020  -30.5230   21.6110 C   0  0  0  0  0  3  0  0  0  0  0  0
  -24.8780  -28.9890   20.2060 C   0  0  0  0  0  0  0  0  0  0  0  0
  -25.9390  -30.8760   21.4420 C   0  0  0  0  0  2  0  0  0  0  0  0
  -26.0400  -29.5010   20.7970 C   0  0  0  0  0  0  0  0  0  0  0  0
  -27.2390  -28.7320   20.7940 C   0  0  0  0  0  3  0  0  0  0  0  0
  -26.0720  -26.9670   19.6040 C   0  0  0  0  0  3  0  0  0  0  0  0
  -24.8920  -27.7270   19.6030 C   0  0  0  0  0  3  0  0  0  0  0  0
  -23.6300  -29.8420   20.2390 C   0  0  0  0  0  2  0  0  0  0  0  0
  -24.6590  -31.1290   22.1550 N   0  0  0  0  0  0  0  0  0  0  0  0
  -23.4940  -32.2150   23.7720 O   0  0  0  0  0  0  0  0  0  0  0  0
  -22.7470  -29.5030   22.5720 C   0  0  0  0  0  0  0  0  0  0  0  0
  -21.4260  -29.3040   22.4340 N   0  0  0  0  0  0  0  0  0  0  0  0
  -23.4260  -28.8960   23.4050 O   0  0  0  0  0  0  0  0  0  0  0  0
  -20.9370  -29.8510   21.7380 H   0  0  0  0  0  0  0  0  0  0  0  0
  -18.0610  -28.0610   22.9040 C   0  0  0  0  0  0  0  0  0  0  0  0
  -20.6100  -28.3620   23.2030 C   0  0  0  0  0  3  0  0  0  0  0  0
  -20.7410  -26.9250   22.6470 C   0  0  0  0  0  2  0  0  0  0  0  0
  -19.6590  -26.5710   21.6230 C   0  0  0  0  0  2  0  0  0  0  0  0
  -18.2660  -26.7060   22.2460 C   0  0  0  0  0  2  0  0  0  0  0  0
  -19.1630  -28.8470   23.3360 C   0  0  0  0  0  0  0  0  0  0  0  0
  -18.9200  -30.1180   23.9050 C   0  0  0  0  0  3  0  0  0  0  0  0
  -17.6060  -30.5980   24.0540 C   0  0  0  0  0  3  0  0  0  0  0  0
  -16.5180  -29.8100   23.6380 C   0  0  0  0  0  3  0  0  0  0  0  0
  -16.7460  -28.5450   23.0660 C   0  0  0  0  0  3  0  0  0  0  0  0
  -25.8570  -32.5940   23.8730 C   0  0  0  0  0  3  0  0  0  0  0  0
  -25.5310  -33.9890   24.1950 N   0  0  0  0  0  0  0  0  0  0  0  0
  -25.8500  -35.0420   23.4320 C   0  0  0  0  0  0  0  0  0  0  0  0
  -26.5210  -34.9430   22.4010 O   0  0  0  0  0  0  0  0  0  0  0  0
  -24.9380  -34.1430   24.9970 H   0  0  0  0  0  0  0  0  0  0  0  0
  -24.0940  -36.8070   23.0770 C   0  0  0  0  0  1  0  0  0  0  0  0
  -25.3440  -36.4240   23.8860 C   0  0  0  0  0  3  0  0  0  0  0  0
  -27.4710  -37.3340   24.7070 C   0  0  0  0  0  1  0  0  0  0  0  0
  -26.3590  -37.4930   23.7720 N   0  0  0  0  0  0  0  0  0  0  0  0
  -25.9390  -38.4040   23.9340 H   0  0  0  0  0  0  0  0  0  0  0  0
  -26.3780  -31.8360   25.1560 C   0  0  1  0  0  0  0  0  0  0  0  0
  -25.2770  -31.5790   26.2120 C   0  0  0  0  0  1  0  0  0  0  0  0
  -26.9970  -30.4720   24.7740 C   0  0  0  0  0  1  0  0  0  0  0  0
  -27.5130  -32.6540   25.8180 C   0  0  0  0  0  1  0  0  0  0  0  0
  -29.0040  -20.2980   21.5870 C   0  0  0  0  0  2  0  0  0  0  0  0
  -29.1290  -18.7540   21.2810 C   0  0  0  0  0  2  0  0  0  0  0  0
  -30.4960  -18.1470   20.8510 C   0  0  0  0  0  2  0  0  0  0  0  0
  -30.8900  -16.7770   21.5050 C   0  0  0  0  0  2  0  0  0  0  0  0
  -30.7600  -14.5400   20.3300 C   0  0  0  0  0  0  0  0  0  0  0  0
  -30.3850  -12.3750   19.1830 C   0  0  0  0  0  2  0  0  0  0  0  0
  -29.4270  -12.5440   17.9880 C   0  0  0  0  0  2  0  0  0  0  0  0
  -27.9580  -12.4320   18.4410 C   0  0  0  0  0  2  0  0  0  0  0  0
  -27.6480  -13.2990   19.6900 C   0  0  0  0  0  3  0  0  0  0  0  0
  -28.7180  -13.1080   20.7880 C   0  0  0  0  0  2  0  0  0  0  0  0
  -30.0340  -13.3910   20.1930 N   0  0  0  0  0  0  0  0  0  0  0  0
  -31.8620  -14.6850   19.7960 O   0  0  0  0  0  0  0  0  0  0  0  0
  -30.1950  -15.5520   21.0320 N   0  0  0  0  0  0  0  0  0  0  0  0
  -29.2740  -15.3770   21.4040 H   0  0  0  0  0  0  0  0  0  0  0  0
  -25.2760  -13.9450   20.4460 C   0  0  0  0  0  0  0  0  0  0  0  0
  -24.2000  -13.1920   20.8280 C   0  0  0  0  0  0  0  0  0  0  0  0
  -24.6320  -11.8300   20.7840 C   0  0  0  0  0  0  0  0  0  0  0  0
  -26.3000  -13.0450   20.1950 N   0  0  0  0  0  0  0  0  0  0  0  0
  -25.9180  -11.7680   20.4540 N   0  0  0  0  0  0  0  0  0  0  0  0
  -23.8830  -10.5820   20.9840 C   0  0  0  0  0  0  0  0  0  0  0  0
  -24.3100   -9.6000   21.9060 C   0  0  0  0  0  3  0  0  0  0  0  0
  -23.5620   -8.4180   22.0910 C   0  0  0  0  0  3  0  0  0  0  0  0
  -22.3710   -8.2090   21.3570 C   0  0  0  0  0  0  0  0  0  0  0  0
  -21.9630   -9.1780   20.4230 C   0  0  0  0  0  3  0  0  0  0  0  0
  -22.7110  -10.3510   20.2360 C   0  0  0  0  0  3  0  0  0  0  0  0
  -21.5940   -7.0790   21.4510 O   0  0  0  0  0  0  0  0  0  0  0  0
  -21.5450   -6.3340   22.6020 C   0  0  0  0  0  0  0  0  0  0  0  0
  -21.1670   -6.8980   23.8390 C   0  0  0  0  0  3  0  0  0  0  0  0
  -21.0660   -6.0840   24.9830 C   0  0  0  0  0  3  0  0  0  0  0  0
  -21.3280   -4.7040   24.8930 C   0  0  0  0  0  0  0  0  0  0  0  0
  -21.6960   -4.1390   23.6590 C   0  0  0  0  0  3  0  0  0  0  0  0
  -21.8010   -4.9520   22.5160 C   0  0  0  0  0  0  0  0  0  0  0  0
  -22.1370   -4.3970   21.3270 F   0  0  0  0  0  0  0  0  0  0  0  0
  -21.2210   -3.9190   25.9890 F   0  0  0  0  0  0  0  0  0  0  0  0
  -22.8180  -13.6970   21.1290 C   0  0  0  0  0  0  0  0  0  0  0  0
  -22.0970  -13.0110   22.0070 N   0  0  0  0  0  0  0  0  0  0  0  0
  -22.3900  -14.7330   20.6200 O   0  0  0  0  0  0  0  0  0  0  0  0
  -22.4600  -12.1740   22.4390 H   0  0  0  0  0  0  0  0  0  0  0  0
  -21.1710  -13.3270   22.2580 H   0  0  0  0  0  0  0  0  0  0  0  0
  -25.4690  -15.3140   20.2780 N   0  0  0  0  0  0  0  0  0  0  0  0
  -24.7330  -15.9890   20.4540 H   0  0  0  0  0  0  0  0  0  0  0  0
  -26.3480  -15.7390   20.0190 H   0  0  0  0  0  0  0  0  0  0  0  0
  -28.9070  -20.9410   19.0570 C   0  0  0  0  0  2  0  0  0  0  0  0
  -27.3960  -20.8340   18.7250 C   0  0  0  0  0  2  0  0  0  0  0  0
  -27.1150  -20.2270   17.3980 N   0  0  0  0  0  4  0  0  0  0  0  0
  -27.4830  -20.8250   16.6740 H   0  0  0  0  0  0  0  0  0  0  0  0
  -27.5900  -19.3420   17.3300 H   0  0  0  0  0  0  0  0  0  0  0  0
  -25.4010  -19.2850   15.8090 C   0  0  0  0  0  1  0  0  0  0  0  0
  -25.6720  -20.0010   17.1440 C   0  0  0  0  0  2  0  0  0  0  0  0
  1 90  1  0
  1  2  1  0
  1 48  1  0
  2  4  1  0
  3  2  1  0
  5  2  1  0
  6  7  1  0
  6  5  1  0
  8 19  2  0
  9  7  1  0
  9 14  1  0
 10 18  1  0
 10 20  1  0
 11 17  1  0
 11 13  1  0
 12 18  1  0
 13 12  1  0
 14 13  2  0
 15  9  2  0
 16 15  1  0
 16 11  2  0
 17 10  1  0
 18  8  1  0
 20 22  2  0
 21 20  1  0
 23 21  1  0
 24 33  2  0
 24 29  1  0
 25 21  1  0
 25 29  1  0
 26 25  1  0
 27 28  1  0
 27 26  1  0
 28 24  1  0
 29 30  2  0
 30 31  1  0
 32 31  2  0
 33 32  1  0
 34  8  1  0
 34 35  1  0
 34 44  1  0
 35 38  1  0
 36 40  1  0
 36 35  1  0
 37 36  2  0
 40 39  1  0
 42 40  1  0
 42 43  1  0
 42 41  1  0
 44 47  1  1
 44 45  1  0
 46 44  1  0
 49 48  1  0
 50 49  1  0
 50 51  1  0
 52 60  1  0
 53 58  1  0
 54 55  1  0
 54 53  1  0
 56 55  1  0
 56 65  1  0
 56 57  1  0
 58 52  1  0
 58 57  1  0
 59 52  2  0
 60 61  1  0
 60 51  1  0
 62 63  2  0
 63 82  1  0
 64 63  1  0
 64 67  1  0
 65 62  1  0
 65 66  1  0
 66 64  2  0
 67 68  1  0
 68 69  2  0
 70 73  1  0
 70 69  1  0
 71 70  2  0
 72 71  1  0
 72 67  2  0
 73 74  1  0
 74 75  1  0
 75 76  2  0
 77 76  1  0
 77 81  1  0
 78 77  2  0
 79 74  2  0
 79 78  1  0
 80 79  1  0
 82 83  1  0
 83 86  1  0
 83 85  1  0
 84 82  2  0
 87 62  1  0
 87 88  1  0
 89 87  1  0
 91 90  1  0
 92 91  1  0
 93 92  1  0
 94 92  1  0
 95 96  1  0
 96 92  1  0
M  ISO  4   6 101   7 101  52 100  60 100
M  END
>  <TORSDO>  (4) 
F 27

>  <SCORE>  (4) 
-9.728

>  <name>  (4) 
3

>  <ligand_id>  (4) 
3

>  <original_smiles>  (4) 
[H]c1c([H])c([H])c2c(c1[H])C([H])([H])C([H])([H])C([H])([H])C2([H])N([H])C(=O)C1([H])N(C(=O)C([H])(N([H])C(=O)C([H])(N([H])C([H])([H])[H])C([H])([H])[H])C(C([H])([H])[H])(C([H])([H])[H])C([H])([H])[H])C([H])([H])c2c([H])c(OC([H])([H])C([H])([H])[N+]([H])([H])C([H])(C([H])([H])C([H])([H])C([H])([H])C([H])([H])N([H])C(=O)N3C([H])([H])C([H])([H])C([H])([H])C([H])(n4nc(-c5c([H])c([H])c(Oc6c([H])c([H])c(F)c([H])c6F)c([H])c5[H])c(C(=O)N([H])[H])c4N([H])[H])C3([H])[H])C([H])([H])C([H])([H])[N+]([H])([H])C([H])([H])C([H])([H])[H])c([H])c([H])c2C1([H])[H]

>  <smiles>  (4) 
[H]c1c([H])c([H])c2c(c1[H])C([H])([H])C([H])([H])C([H])([H])C2([H])N([H])C(=O)C1([H])N(C(=O)C([H])(N([H])C(=O)C([H])(N([H])C([H])([H])[H])C([H])([H])[H])C(C([H])([H])[H])(C([H])([H])[H])C([H])([H])[H])C([H])([H])c2c([H])c(OC([H])([H])C([H])([H])[N+]([H])([H])C([H])(C([H])([H])C([H])([H])C([H])([H])C([H])([H])N([H])C(=O)N3C([H])([H])C([H])([H])C([H])([H])C([H])(n4nc(-c5c([H])c([H])c(Oc6c([H])c([H])c(F)c([H])c6F)c([H])c5[H])c(C(=O)N([H])[H])c4N([H])[H])C3([H])[H])C([H])([H])C([H])([H])[N+]([H])([H])C([H])([H])C([H])([H])[H])c([H])c([H])c2C1([H])[H]

$$$$
4:0:0
     RDKit          3D

104111  0  0  1  0  0  0  0  0999 V2000
  -22.0410  -20.9680   24.2690 C   0  0  0  0  0  3  0  0  0  0  0  0
  -22.2320  -19.8140   23.3570 N   0  0  0  0  0  4  0  0  0  0  0  0
  -21.6350  -19.0920   23.7280 H   0  0  0  0  0  0  0  0  0  0  0  0
  -21.8970  -20.0100   22.4280 H   0  0  0  0  0  0  0  0  0  0  0  0
  -23.5760  -19.2000   23.3300 C   0  0  0  0  0  2  0  0  0  0  0  0
  -24.0250  -18.7180   21.9380 C   0  0  0  0  0  2  0  0  0  0  0  0
  -25.3850  -18.0070   22.0560 C   0  0  0  0  0  2  0  0  0  0  0  0
  -26.3200  -18.1470   20.8470 C   0  0  0  0  0  2  0  0  0  0  0  0
  -26.6240  -16.8160   20.1450 C   0  0  0  0  0  2  0  0  0  0  0  0
  -28.1310  -16.5000   20.1100 C   0  0  0  0  0  2  0  0  0  0  0  0
  -29.4470  -14.7100   19.0150 C   0  0  0  0  0  0  0  0  0  0  0  0
  -29.8040  -12.2740   19.0670 C   0  0  0  0  0  2  0  0  0  0  0  0
  -28.8770  -11.5940   18.0380 C   0  0  0  0  0  2  0  0  0  0  0  0
  -27.4810  -11.3250   18.6390 C   0  0  0  0  0  2  0  0  0  0  0  0
  -26.8900  -12.5580   19.3750 C   0  0  0  0  0  3  0  0  0  0  0  0
  -27.9420  -13.1690   20.3300 C   0  0  0  0  0  2  0  0  0  0  0  0
  -29.1340  -13.4950   19.5350 N   0  0  0  0  0  0  0  0  0  0  0  0
  -30.4560  -14.9140   18.3340 O   0  0  0  0  0  0  0  0  0  0  0  0
  -28.4630  -15.6200   18.9950 N   0  0  0  0  0  0  0  0  0  0  0  0
  -28.5130  -16.1570   18.1410 H   0  0  0  0  0  0  0  0  0  0  0  0
  -24.6940  -13.0530   20.6210 C   0  0  0  0  0  0  0  0  0  0  0  0
  -23.7030  -12.2340   21.0940 C   0  0  0  0  0  0  0  0  0  0  0  0
  -24.1200  -10.9000   20.8020 C   0  0  0  0  0  0  0  0  0  0  0  0
  -25.6550  -12.2150   20.0780 N   0  0  0  0  0  0  0  0  0  0  0  0
  -25.3200  -10.9080   20.2330 N   0  0  0  0  0  0  0  0  0  0  0  0
  -23.4220   -9.6210   20.9750 C   0  0  0  0  0  0  0  0  0  0  0  0
  -23.6950   -8.7750   22.0730 C   0  0  0  0  0  3  0  0  0  0  0  0
  -23.0020   -7.5550   22.2270 C   0  0  0  0  0  3  0  0  0  0  0  0
  -22.0210   -7.1740   21.2790 C   0  0  0  0  0  0  0  0  0  0  0  0
  -21.7710   -8.0050   20.1750 C   0  0  0  0  0  3  0  0  0  0  0  0
  -22.4660   -9.2170   20.0210 C   0  0  0  0  0  3  0  0  0  0  0  0
  -21.3120   -5.9980   21.3300 O   0  0  0  0  0  0  0  0  0  0  0  0
  -20.5770   -5.6520   22.4340 C   0  0  0  0  0  0  0  0  0  0  0  0
  -19.4900   -6.4370   22.8820 C   0  0  0  0  0  3  0  0  0  0  0  0
  -18.7190   -6.0080   23.9800 C   0  0  0  0  0  3  0  0  0  0  0  0
  -19.0250   -4.7940   24.6230 C   0  0  0  0  0  0  0  0  0  0  0  0
  -20.1040   -4.0110   24.1770 C   0  0  0  0  0  3  0  0  0  0  0  0
  -20.8750   -4.4370   23.0820 C   0  0  0  0  0  0  0  0  0  0  0  0
  -21.9000   -3.6690   22.6420 F   0  0  0  0  0  0  0  0  0  0  0  0
  -18.2740   -4.3760   25.6700 F   0  0  0  0  0  0  0  0  0  0  0  0
  -22.4010  -12.6660   21.7080 C   0  0  0  0  0  0  0  0  0  0  0  0
  -21.8900  -11.9090   22.6720 N   0  0  0  0  0  0  0  0  0  0  0  0
  -21.8540  -13.7150   21.3700 O   0  0  0  0  0  0  0  0  0  0  0  0
  -22.3490  -11.0610   22.9740 H   0  0  0  0  0  0  0  0  0  0  0  0
  -21.0260  -12.1820   23.1190 H   0  0  0  0  0  0  0  0  0  0  0  0
  -24.8460  -14.4340   20.5960 N   0  0  0  0  0  0  0  0  0  0  0  0
  -24.1230  -15.0590   20.9300 H   0  0  0  0  0  0  0  0  0  0  0  0
  -25.6400  -14.9140   20.1930 H   0  0  0  0  0  0  0  0  0  0  0  0
  -20.5360  -21.2880   24.4210 C   0  0  0  0  0  2  0  0  0  0  0  0
  -19.7220  -20.0460   24.8560 C   0  0  0  0  0  2  0  0  0  0  0  0
  -18.1990  -20.2770   24.9120 C   0  0  0  0  0  2  0  0  0  0  0  0
  -17.4550  -19.0950   25.5740 C   0  0  0  0  0  2  0  0  0  0  0  0
  -16.0030  -19.3150   25.6970 N   0  0  0  0  0  4  0  0  0  0  0  0
  -15.7960  -20.1360   26.2380 H   0  0  0  0  0  0  0  0  0  0  0  0
  -15.5900  -18.5290   26.1670 H   0  0  0  0  0  0  0  0  0  0  0  0
  -15.5680  -19.3990   24.7960 H   0  0  0  0  0  0  0  0  0  0  0  0
  -22.9100  -22.1860   23.8770 C   0  0  0  0  0  2  0  0  0  0  0  0
  -22.2880  -23.1750   22.8730 C   0  0  0  0  0  2  0  0  0  0  0  0
  -23.3780  -23.9240   22.0840 C   0  0  0  0  0  2  0  0  0  0  0  0
  -23.1100  -23.9780   20.5730 C   0  0  0  0  0  2  0  0  0  0  0  0
  -24.3950  -24.2310   19.7690 C   0  0  0  0  0  2  0  0  0  0  0  0
  -24.3160  -23.6940   18.3310 C   0  0  0  0  0  2  0  0  0  0  0  0
  -25.3830  -24.3040   17.4010 C   0  0  0  0  0  2  0  0  0  0  0  0
  -24.9490  -25.5500   16.8700 O   0  0  0  0  0  0  0  0  0  0  0  0
  -24.5080  -28.8640   23.1640 C   0  0  0  0  0  0  0  0  0  0  0  0
  -24.2300  -26.3400   17.7300 C   0  0  0  0  0  0  0  0  0  0  0  0
  -22.4630  -28.8900   21.7710 C   0  0  0  0  0  3  0  0  0  0  0  0
  -22.7450  -28.0760   19.3760 C   0  0  0  0  0  0  0  0  0  0  0  0
  -24.7730  -28.7120   20.6950 C   0  0  0  0  0  2  0  0  0  0  0  0
  -24.1220  -27.9240   19.5820 C   0  0  0  0  0  0  0  0  0  0  0  0
  -24.8720  -27.0570   18.7590 C   0  0  0  0  0  3  0  0  0  0  0  0
  -22.8450  -26.4960   17.5340 C   0  0  0  0  0  3  0  0  0  0  0  0
  -22.0950  -27.3590   18.3540 C   0  0  0  0  0  3  0  0  0  0  0  0
  -22.0200  -29.0350   20.2890 C   0  0  0  0  0  2  0  0  0  0  0  0
  -23.9500  -28.7960   21.9220 N   0  0  0  0  0  0  0  0  0  0  0  0
  -23.8070  -29.0430   24.1690 O   0  0  0  0  0  0  0  0  0  0  0  0
  -21.7080  -27.6970   22.3950 C   0  0  0  0  0  0  0  0  0  0  0  0
  -20.3720  -27.6970   22.2580 N   0  0  0  0  0  0  0  0  0  0  0  0
  -22.3220  -26.7880   22.9600 O   0  0  0  0  0  0  0  0  0  0  0  0
  -19.9440  -28.4860   21.7950 H   0  0  0  0  0  0  0  0  0  0  0  0
  -16.9750  -26.4900   22.0360 C   0  0  0  0  0  0  0  0  0  0  0  0
  -19.4590  -26.6590   22.7300 C   0  0  0  0  0  3  0  0  0  0  0  0
  -19.6610  -25.3390   21.9510 C   0  0  0  0  0  2  0  0  0  0  0  0
  -18.7310  -25.2070   20.7410 C   0  0  0  0  0  2  0  0  0  0  0  0
  -17.2680  -25.2680   21.1840 C   0  0  0  0  0  2  0  0  0  0  0  0
  -18.0080  -27.1540   22.7490 C   0  0  0  0  0  0  0  0  0  0  0  0
  -17.6910  -28.3090   23.4970 C   0  0  0  0  0  3  0  0  0  0  0  0
  -16.3720  -28.7980   23.5400 C   0  0  0  0  0  3  0  0  0  0  0  0
  -15.3520  -28.1300   22.8420 C   0  0  0  0  0  3  0  0  0  0  0  0
  -15.6530  -26.9750   22.0980 C   0  0  0  0  0  3  0  0  0  0  0  0
  -26.0500  -28.7430   23.3750 C   0  0  0  0  0  3  0  0  0  0  0  0
  -26.5110  -29.9910   24.0000 N   0  0  0  0  0  0  0  0  0  0  0  0
  -27.1080  -30.9940   23.3420 C   0  0  0  0  0  0  0  0  0  0  0  0
  -27.3950  -30.9330   22.1430 O   0  0  0  0  0  0  0  0  0  0  0  0
  -26.2680  -30.1320   24.9690 H   0  0  0  0  0  0  0  0  0  0  0  0
  -26.3700  -33.3420   23.8590 C   0  0  0  0  0  1  0  0  0  0  0  0
  -27.4360  -32.2700   24.1410 C   0  0  0  0  0  3  0  0  0  0  0  0
  -29.8640  -31.9720   24.3520 C   0  0  0  0  0  1  0  0  0  0  0  0
  -28.7800  -32.8160   23.8530 N   0  0  0  0  0  0  0  0  0  0  0  0
  -28.8860  -33.7400   24.2640 H   0  0  0  0  0  0  0  0  0  0  0  0
  -26.4630  -27.4940   24.2480 C   0  0  1  0  0  0  0  0  0  0  0  0
  -25.6760  -27.3780   25.5730 C   0  0  0  0  0  1  0  0  0  0  0  0
  -26.2500  -26.1810   23.4580 C   0  0  0  0  0  1  0  0  0  0  0  0
  -27.9690  -27.5660   24.5920 C   0  0  0  0  0  1  0  0  0  0  0  0
  1 57  1  0
  1 49  1  0
  2  3  1  0
  2  1  1  0
  4  2  1  0
  5  2  1  0
  6  7  1  0
  6  5  1  0
  8  7  1  0
  9  8  1  0
 10  9  1  0
 11 17  1  0
 12 17  1  0
 13 14  1  0
 13 12  1  0
 15 14  1  0
 15 24  1  0
 15 16  1  0
 17 16  1  0
 18 11  2  0
 19 11  1  0
 19 10  1  0
 20 19  1  0
 21 22  2  0
 22 41  1  0
 23 26  1  0
 23 22  1  0
 24 25  1  0
 24 21  1  0
 25 23  2  0
 26 27  1  0
 27 28  2  0
 29 32  1  0
 29 28  1  0
 30 29  2  0
 31 30  1  0
 31 26  2  0
 32 33  1  0
 33 34  2  0
 33 38  1  0
 34 35  1  0
 35 36  2  0
 36 40  1  0
 37 36  1  0
 38 37  2  0
 39 38  1  0
 41 42  1  0
 42 44  1  0
 42 45  1  0
 43 41  2  0
 46 21  1  0
 46 47  1  0
 48 46  1  0
 49 50  1  0
 50 51  1  0
 51 52  1  0
 52 53  1  0
 53 55  1  0
 53 54  1  0
 56 53  1  0
 58 57  1  0
 59 58  1  0
 60 59  1  0
 61 60  1  0
 62 61  1  0
 63 62  1  0
 64 63  1  0
 64 66  1  0
 65 76  2  0
 66 71  1  0
 67 75  1  0
 67 77  1  0
 68 70  1  0
 68 74  1  0
 69 75  1  0
 70 69  1  0
 71 70  2  0
 72 66  2  0
 72 73  1  0
 73 68  2  0
 74 67  1  0
 75 65  1  0
 77 79  2  0
 78 77  1  0
 80 78  1  0
 81 90  2  0
 81 86  1  0
 82 78  1  0
 82 86  1  0
 83 82  1  0
 84 85  1  0
 84 83  1  0
 85 81  1  0
 86 87  2  0
 87 88  1  0
 89 88  2  0
 90 89  1  0
 91 65  1  0
 91 92  1  0
 91101  1  0
 92 95  1  0
 93 92  1  0
 93 97  1  0
 94 93  2  0
 97 96  1  0
 99 97  1  0
 99100  1  0
 99 98  1  0
101104  1  1
101102  1  0
103101  1  0
M  ISO  4  11 100  19 100  63 101  64 101
M  END
>  <TORSDO>  (5) 
F 35

>  <SCORE>  (5) 
31.208

>  <name>  (5) 
4

>  <ligand_id>  (5) 
4

>  <original_smiles>  (5) 
[H]c1c([H])c([H])c2c(c1[H])C([H])([H])C([H])([H])C([H])([H])C2([H])N([H])C(=O)C1([H])N(C(=O)C([H])(N([H])C(=O)C([H])(N([H])C([H])([H])[H])C([H])([H])[H])C(C([H])([H])[H])(C([H])([H])[H])C([H])([H])[H])C([H])([H])c2c([H])c(OC([H])([H])C([H])([H])C([H])([H])C([H])([H])C([H])([H])C([H])([H])C([H])([H])C([H])(C([H])([H])C([H])([H])C([H])([H])C([H])([H])[N+]([H])([H])[H])[N+]([H])([H])C([H])([H])C([H])([H])C([H])([H])C([H])([H])C([H])([H])C([H])([H])N([H])C(=O)N3C([H])([H])C([H])([H])C([H])([H])C([H])(n4nc(-c5c([H])c([H])c(Oc6c([H])c([H])c(F)c([H])c6F)c([H])c5[H])c(C(=O)N([H])[H])c4N([H])[H])C3([H])[H])c([H])c([H])c2C1([H])[H]

>  <smiles>  (5) 
[H]c1c([H])c([H])c2c(c1[H])C([H])([H])C([H])([H])C([H])([H])C2([H])N([H])C(=O)C1([H])N(C(=O)C([H])(N([H])C(=O)C([H])(N([H])C([H])([H])[H])C([H])([H])[H])C(C([H])([H])[H])(C([H])([H])[H])C([H])([H])[H])C([H])([H])c2c([H])c(OC([H])([H])C([H])([H])C([H])([H])C([H])([H])C([H])([H])C([H])([H])C([H])([H])C([H])(C([H])([H])C([H])([H])C([H])([H])C([H])([H])[N+]([H])([H])[H])[N+]([H])([H])C([H])([H])C([H])([H])C([H])([H])C([H])([H])C([H])([H])C([H])([H])N([H])C(=O)N3C([H])([H])C([H])([H])C([H])([H])C([H])(n4nc(-c5c([H])c([H])c(Oc6c([H])c([H])c(F)c([H])c6F)c([H])c5[H])c(C(=O)N([H])[H])c4N([H])[H])C3([H])[H])c([H])c([H])c2C1([H])[H]

$$$$
5:0:0
     RDKit          3D

 94101  0  0  1  0  0  0  0  0999 V2000
  -29.1780  -22.8350   17.1520 C   0  0  0  0  0  2  0  0  0  0  0  0
  -28.0960  -21.8280   17.6010 C   0  0  0  0  0  2  0  0  0  0  0  0
  -28.6790  -20.6850   18.4530 C   0  0  0  0  0  2  0  0  0  0  0  0
  -27.4140  -18.6010   17.6230 C   0  0  0  0  0  1  0  0  0  0  0  0
  -27.6760  -19.5590   18.7990 C   0  0  0  0  0  3  0  0  0  0  0  0
  -28.1000  -18.7870   20.0690 C   0  0  0  0  0  2  0  0  0  0  0  0
  -29.3920  -17.9450   19.9580 C   0  0  0  0  0  2  0  0  0  0  0  0
  -29.9320  -17.5470   21.3440 C   0  0  0  0  0  2  0  0  0  0  0  0
  -31.0800  -16.5150   21.3190 C   0  0  0  0  0  2  0  0  0  0  0  0
  -31.1890  -14.2140   20.3200 C   0  0  0  0  0  0  0  0  0  0  0  0
  -30.7770  -12.0950   19.1270 C   0  0  0  0  0  2  0  0  0  0  0  0
  -29.8420  -12.3560   17.9310 C   0  0  0  0  0  2  0  0  0  0  0  0
  -28.3600  -12.3250   18.3560 C   0  0  0  0  0  2  0  0  0  0  0  0
  -28.0790  -13.1580   19.6340 C   0  0  0  0  0  3  0  0  0  0  0  0
  -29.1190  -12.8450   20.7330 C   0  0  0  0  0  2  0  0  0  0  0  0
  -30.4610  -13.0800   20.1700 N   0  0  0  0  0  0  0  0  0  0  0  0
  -32.2730  -14.4090   19.7590 O   0  0  0  0  0  0  0  0  0  0  0  0
  -30.6020  -15.1560   21.0720 N   0  0  0  0  0  0  0  0  0  0  0  0
  -29.7310  -14.8880   21.5090 H   0  0  0  0  0  0  0  0  0  0  0  0
  -25.7120  -13.9050   20.3160 C   0  0  0  0  0  0  0  0  0  0  0  0
  -24.6040  -13.1970   20.6990 C   0  0  0  0  0  0  0  0  0  0  0  0
  -24.9910  -11.8210   20.6900 C   0  0  0  0  0  0  0  0  0  0  0  0
  -26.7110  -12.9660   20.1110 N   0  0  0  0  0  0  0  0  0  0  0  0
  -26.2800  -11.7090   20.3890 N   0  0  0  0  0  0  0  0  0  0  0  0
  -24.1980  -10.6030   20.9010 C   0  0  0  0  0  0  0  0  0  0  0  0
  -24.5700   -9.6390   21.8650 C   0  0  0  0  0  3  0  0  0  0  0  0
  -23.7850   -8.4830   22.0630 C   0  0  0  0  0  3  0  0  0  0  0  0
  -22.6100   -8.2860   21.2990 C   0  0  0  0  0  0  0  0  0  0  0  0
  -22.2510   -9.2390   20.3300 C   0  0  0  0  0  3  0  0  0  0  0  0
  -23.0370  -10.3880   20.1310 C   0  0  0  0  0  3  0  0  0  0  0  0
  -21.8000   -7.1800   21.4030 O   0  0  0  0  0  0  0  0  0  0  0  0
  -21.6910   -6.4770   22.5750 C   0  0  0  0  0  0  0  0  0  0  0  0
  -21.2740   -7.0920   23.7770 C   0  0  0  0  0  3  0  0  0  0  0  0
  -21.1090   -6.3170   24.9430 C   0  0  0  0  0  3  0  0  0  0  0  0
  -21.3480   -4.9300   24.9060 C   0  0  0  0  0  0  0  0  0  0  0  0
  -21.7550   -4.3150   23.7080 C   0  0  0  0  0  3  0  0  0  0  0  0
  -21.9200   -5.0880   22.5450 C   0  0  0  0  0  0  0  0  0  0  0  0
  -22.2920   -4.4880   21.3890 F   0  0  0  0  0  0  0  0  0  0  0  0
  -21.1770   -4.1840   26.0240 F   0  0  0  0  0  0  0  0  0  0  0  0
  -23.2350  -13.7530   20.9610 C   0  0  0  0  0  0  0  0  0  0  0  0
  -22.4780  -13.1160   21.8480 N   0  0  0  0  0  0  0  0  0  0  0  0
  -22.8470  -14.7850   20.4180 O   0  0  0  0  0  0  0  0  0  0  0  0
  -22.8050  -12.2750   22.3000 H   0  0  0  0  0  0  0  0  0  0  0  0
  -21.5560  -13.4670   22.0720 H   0  0  0  0  0  0  0  0  0  0  0  0
  -25.9410  -15.2590   20.0970 N   0  0  0  0  0  0  0  0  0  0  0  0
  -25.1870  -15.9370   20.1470 H   0  0  0  0  0  0  0  0  0  0  0  0
  -26.7900  -15.6300   19.6870 H   0  0  0  0  0  0  0  0  0  0  0  0
  -28.6090  -24.1520   16.5810 C   0  0  0  0  0  2  0  0  0  0  0  0
  -28.3380  -25.1670   17.6250 N   0  0  0  0  0  4  0  0  0  0  0  0
  -27.8250  -24.7360   18.3770 H   0  0  0  0  0  0  0  0  0  0  0  0
  -27.7400  -25.8680   17.2120 H   0  0  0  0  0  0  0  0  0  0  0  0
  -29.5380  -25.8450   18.1820 C   0  0  0  0  0  2  0  0  0  0  0  0
  -29.1810  -27.1010   18.9960 C   0  0  0  0  0  2  0  0  0  0  0  0
  -28.3480  -26.7460   20.0980 O   0  0  0  0  0  0  0  0  0  0  0  0
  -24.5660  -31.9000   23.2500 C   0  0  0  0  0  0  0  0  0  0  0  0
  -27.1860  -27.4690   20.1660 C   0  0  0  0  0  0  0  0  0  0  0  0
  -23.3450  -30.4920   21.6200 C   0  0  0  0  0  3  0  0  0  0  0  0
  -24.7870  -28.9450   20.2000 C   0  0  0  0  0  0  0  0  0  0  0  0
  -25.8660  -30.8530   21.4050 C   0  0  0  0  0  2  0  0  0  0  0  0
  -25.9470  -29.4800   20.7750 C   0  0  0  0  0  0  0  0  0  0  0  0
  -27.1530  -28.7470   20.7620 C   0  0  0  0  0  3  0  0  0  0  0  0
  -26.0070  -26.9260   19.6150 C   0  0  0  0  0  3  0  0  0  0  0  0
  -24.8090  -27.6630   19.6230 C   0  0  0  0  0  3  0  0  0  0  0  0
  -23.5440  -29.8030   20.2440 C   0  0  0  0  0  2  0  0  0  0  0  0
  -24.6100  -31.0960   22.1490 N   0  0  0  0  0  0  0  0  0  0  0  0
  -23.4890  -32.1770   23.7970 O   0  0  0  0  0  0  0  0  0  0  0  0
  -22.6990  -29.4770   22.5900 C   0  0  0  0  0  0  0  0  0  0  0  0
  -21.3750  -29.2950   22.4660 N   0  0  0  0  0  0  0  0  0  0  0  0
  -23.3850  -28.8570   23.4060 O   0  0  0  0  0  0  0  0  0  0  0  0
  -20.8820  -29.8470   21.7780 H   0  0  0  0  0  0  0  0  0  0  0  0
  -18.0030  -28.1040   22.9730 C   0  0  0  0  0  0  0  0  0  0  0  0
  -20.5600  -28.3640   23.2450 C   0  0  0  0  0  3  0  0  0  0  0  0
  -20.6620  -26.9280   22.6820 C   0  0  0  0  0  2  0  0  0  0  0  0
  -19.5630  -26.5970   21.6680 C   0  0  0  0  0  2  0  0  0  0  0  0
  -18.1790  -26.7500   22.3070 C   0  0  0  0  0  2  0  0  0  0  0  0
  -19.1210  -28.8690   23.3970 C   0  0  0  0  0  0  0  0  0  0  0  0
  -18.9050  -30.1380   23.9760 C   0  0  0  0  0  3  0  0  0  0  0  0
  -17.6000  -30.6430   24.1370 C   0  0  0  0  0  3  0  0  0  0  0  0
  -16.4950  -29.8750   23.7290 C   0  0  0  0  0  3  0  0  0  0  0  0
  -16.6980  -28.6080   23.1540 C   0  0  0  0  0  3  0  0  0  0  0  0
  -25.8590  -32.5280   23.8570 C   0  0  0  0  0  3  0  0  0  0  0  0
  -26.3890  -31.7570   25.1280 C   0  0  1  0  0  0  0  0  0  0  0  0
  -25.3080  -31.5230   26.2080 C   0  0  0  0  0  1  0  0  0  0  0  0
  -26.9630  -30.3750   24.7300 C   0  0  0  0  0  1  0  0  0  0  0  0
  -27.5510  -32.5470   25.7760 C   0  0  0  0  0  1  0  0  0  0  0  0
  -25.5580  -33.9260   24.1860 N   0  0  0  0  0  0  0  0  0  0  0  0
  -25.8940  -34.9750   23.4220 C   0  0  0  0  0  0  0  0  0  0  0  0
  -26.5640  -34.8680   22.3910 O   0  0  0  0  0  0  0  0  0  0  0  0
  -24.9660  -34.0870   24.9880 H   0  0  0  0  0  0  0  0  0  0  0  0
  -24.1760  -36.7750   23.0560 C   0  0  0  0  0  1  0  0  0  0  0  0
  -25.4110  -36.3660   23.8750 C   0  0  0  0  0  3  0  0  0  0  0  0
  -27.5490  -37.2390   24.7140 C   0  0  0  0  0  1  0  0  0  0  0  0
  -26.4490  -37.4140   23.7670 N   0  0  0  0  0  0  0  0  0  0  0  0
  -26.0470  -38.3360   23.9160 H   0  0  0  0  0  0  0  0  0  0  0  0
  1  2  1  0
  2  3  1  0
  3  5  1  0
  5  4  1  0
  5  6  1  0
  7  6  1  0
  7  8  1  0
  9  8  1  0
 10 18  1  0
 11 16  1  0
 12 13  1  0
 12 11  1  0
 14 13  1  0
 14 23  1  0
 14 15  1  0
 16 10  1  0
 16 15  1  0
 17 10  2  0
 18  9  1  0
 18 19  1  0
 20 21  2  0
 21 40  1  0
 22 21  1  0
 22 25  1  0
 23 20  1  0
 23 24  1  0
 24 22  2  0
 25 26  1  0
 26 27  2  0
 28 31  1  0
 28 27  1  0
 29 28  2  0
 30 29  1  0
 30 25  2  0
 31 32  1  0
 32 33  1  0
 33 34  2  0
 35 34  1  0
 35 39  1  0
 36 35  2  0
 37 32  2  0
 37 36  1  0
 38 37  1  0
 40 41  1  0
 41 44  1  0
 41 43  1  0
 42 40  2  0
 45 46  1  0
 45 20  1  0
 47 45  1  0
 48  1  1  0
 48 49  1  0
 49 52  1  0
 49 50  1  0
 51 49  1  0
 52 53  1  0
 53 54  1  0
 54 56  1  0
 55 66  2  0
 56 61  1  0
 57 65  1  0
 57 67  1  0
 58 64  1  0
 58 60  1  0
 59 65  1  0
 60 59  1  0
 61 60  2  0
 62 63  1  0
 62 56  2  0
 63 58  2  0
 64 57  1  0
 65 55  1  0
 67 69  2  0
 68 67  1  0
 70 68  1  0
 71 80  2  0
 71 76  1  0
 72 68  1  0
 72 76  1  0
 73 72  1  0
 74 75  1  0
 74 73  1  0
 75 71  1  0
 76 77  2  0
 77 78  1  0
 79 78  2  0
 80 79  1  0
 81 55  1  0
 81 86  1  0
 81 82  1  0
 82 85  1  1
 82 83  1  0
 84 82  1  0
 86 89  1  0
 87 91  1  0
 87 86  1  0
 88 87  2  0
 91 90  1  0
 93 91  1  0
 93 94  1  0
 93 92  1  0
M  ISO  4  10 100  18 100  53 101  54 101
M  END
>  <TORSDO>  (6) 
F 27

>  <SCORE>  (6) 
-11.284

>  <name>  (6) 
5

>  <ligand_id>  (6) 
5

>  <original_smiles>  (6) 
[H]c1c([H])c([H])c2c(c1[H])C([H])([H])C([H])([H])C([H])([H])C2([H])N([H])C(=O)C1([H])N(C(=O)C([H])(N([H])C(=O)C([H])(N([H])C([H])([H])[H])C([H])([H])[H])C(C([H])([H])[H])(C([H])([H])[H])C([H])([H])[H])C([H])([H])c2c([H])c(OC([H])([H])C([H])([H])[N+]([H])([H])C([H])([H])C([H])([H])C([H])([H])C([H])([H])C([H])(C([H])([H])[H])C([H])([H])C([H])([H])C([H])([H])C([H])([H])N([H])C(=O)N3C([H])([H])C([H])([H])C([H])([H])C([H])(n4nc(-c5c([H])c([H])c(Oc6c([H])c([H])c(F)c([H])c6F)c([H])c5[H])c(C(=O)N([H])[H])c4N([H])[H])C3([H])[H])c([H])c([H])c2C1([H])[H]

>  <smiles>  (6) 
[H]c1c([H])c([H])c2c(c1[H])C([H])([H])C([H])([H])C([H])([H])C2([H])N([H])C(=O)C1([H])N(C(=O)C([H])(N([H])C(=O)C([H])(N([H])C([H])([H])[H])C([H])([H])[H])C(C([H])([H])[H])(C([H])([H])[H])C([H])([H])[H])C([H])([H])c2c([H])c(OC([H])([H])C([H])([H])[N+]([H])([H])C([H])([H])C([H])([H])C([H])([H])C([H])([H])C([H])(C([H])([H])[H])C([H])([H])C([H])([H])C([H])([H])C([H])([H])N([H])C(=O)N3C([H])([H])C([H])([H])C([H])([H])C([H])(n4nc(-c5c([H])c([H])c(Oc6c([H])c([H])c(F)c([H])c6F)c([H])c5[H])c(C(=O)N([H])[H])c4N([H])[H])C3([H])[H])c([H])c([H])c2C1([H])[H]

$$$$
6:0:0
     RDKit          3D

 94102  0  0  1  0  0  0  0  0999 V2000
  -31.7400  -22.9540   15.2900 C   0  0  0  0  0  3  0  0  0  0  0  0
  -30.9860  -21.8550   15.7460 C   0  0  0  0  0  3  0  0  0  0  0  0
  -32.1150  -23.9780   16.1800 C   0  0  0  0  0  3  0  0  0  0  0  0
  -30.9710  -22.8050   17.9840 C   0  0  0  0  0  3  0  0  0  0  0  0
  -30.6050  -21.7700   17.1030 C   0  0  0  0  0  0  0  0  0  0  0  0
  -31.7310  -23.9020   17.5330 C   0  0  0  0  0  0  0  0  0  0  0  0
  -29.7990  -20.5860   17.6180 C   0  0  0  0  0  2  0  0  0  0  0  0
  -30.5400  -19.7950   18.7150 C   0  0  0  0  0  2  0  0  0  0  0  0
  -29.6500  -18.7370   19.3870 C   0  0  0  0  0  2  0  0  0  0  0  0
  -30.4420  -17.5840   20.0350 C   0  0  0  0  0  2  0  0  0  0  0  0
  -29.4910  -16.6260   20.7830 C   0  0  0  0  0  2  0  0  0  0  0  0
  -30.6820  -14.4490   20.5210 C   0  0  0  0  0  0  0  0  0  0  0  0
  -30.3750  -12.3360   19.2950 C   0  0  0  0  0  2  0  0  0  0  0  0
  -29.4270  -12.6070   18.1050 C   0  0  0  0  0  2  0  0  0  0  0  0
  -27.9550  -12.4610   18.5330 C   0  0  0  0  0  2  0  0  0  0  0  0
  -27.6320  -13.2530   19.8260 C   0  0  0  0  0  3  0  0  0  0  0  0
  -28.6860  -12.9610   20.9220 C   0  0  0  0  0  2  0  0  0  0  0  0
  -30.0260  -13.2650   20.3800 N   0  0  0  0  0  0  0  0  0  0  0  0
  -31.7330  -14.7190   19.9320 O   0  0  0  0  0  0  0  0  0  0  0  0
  -30.0410  -15.3540   21.2740 N   0  0  0  0  0  0  0  0  0  0  0  0
  -29.4380  -14.9150   21.9550 H   0  0  0  0  0  0  0  0  0  0  0  0
  -25.2230  -13.8720   20.5030 C   0  0  0  0  0  0  0  0  0  0  0  0
  -24.1540  -13.0990   20.8740 C   0  0  0  0  0  0  0  0  0  0  0  0
  -24.6170  -11.7480   20.8580 C   0  0  0  0  0  0  0  0  0  0  0  0
  -26.2720  -12.9880   20.2930 N   0  0  0  0  0  0  0  0  0  0  0  0
  -25.9090  -11.7080   20.5590 N   0  0  0  0  0  0  0  0  0  0  0  0
  -23.8930  -10.4860   21.0540 C   0  0  0  0  0  0  0  0  0  0  0  0
  -24.3310   -9.5190   21.9850 C   0  0  0  0  0  3  0  0  0  0  0  0
  -23.6080   -8.3210   22.1690 C   0  0  0  0  0  3  0  0  0  0  0  0
  -22.4310   -8.0820   21.4210 C   0  0  0  0  0  0  0  0  0  0  0  0
  -22.0120   -9.0380   20.4760 C   0  0  0  0  0  3  0  0  0  0  0  0
  -22.7390  -10.2250   20.2900 C   0  0  0  0  0  3  0  0  0  0  0  0
  -21.6780   -6.9370   21.5130 O   0  0  0  0  0  0  0  0  0  0  0  0
  -21.6490   -6.1860   22.6600 C   0  0  0  0  0  0  0  0  0  0  0  0
  -21.2500   -6.7320   23.8990 C   0  0  0  0  0  3  0  0  0  0  0  0
  -21.1660   -5.9080   25.0400 C   0  0  0  0  0  3  0  0  0  0  0  0
  -21.4760   -4.5370   24.9420 C   0  0  0  0  0  0  0  0  0  0  0  0
  -21.8700   -3.9900   23.7080 C   0  0  0  0  0  3  0  0  0  0  0  0
  -21.9520   -4.8120   22.5700 C   0  0  0  0  0  0  0  0  0  0  0  0
  -22.3110   -4.2720   21.3800 F   0  0  0  0  0  0  0  0  0  0  0  0
  -21.3890   -3.7430   26.0350 F   0  0  0  0  0  0  0  0  0  0  0  0
  -22.7530  -13.5750   21.1400 C   0  0  0  0  0  0  0  0  0  0  0  0
  -22.0260  -12.8810   22.0090 N   0  0  0  0  0  0  0  0  0  0  0  0
  -22.3130  -14.5950   20.6120 O   0  0  0  0  0  0  0  0  0  0  0  0
  -22.3970  -12.0510   22.4490 H   0  0  0  0  0  0  0  0  0  0  0  0
  -21.0880  -13.1790   22.2340 H   0  0  0  0  0  0  0  0  0  0  0  0
  -25.3940  -15.2380   20.3110 N   0  0  0  0  0  0  0  0  0  0  0  0
  -24.6380  -15.9110   20.3850 H   0  0  0  0  0  0  0  0  0  0  0  0
  -26.2620  -15.6540   19.9930 H   0  0  0  0  0  0  0  0  0  0  0  0
  -32.0890  -25.0010   18.5150 C   0  0  0  0  0  2  0  0  0  0  0  0
  -30.8960  -25.9350   18.7490 C   0  0  0  0  0  2  0  0  0  0  0  0
  -30.8800  -26.5500   20.1540 C   0  0  0  0  0  2  0  0  0  0  0  0
  -29.6780  -27.4730   20.3660 C   0  0  0  0  0  2  0  0  0  0  0  0
  -28.4600  -26.7750   20.0880 O   0  0  0  0  0  0  0  0  0  0  0  0
  -24.5890  -31.8700   23.2240 C   0  0  0  0  0  0  0  0  0  0  0  0
  -27.2900  -27.5020   20.1440 C   0  0  0  0  0  0  0  0  0  0  0  0
  -23.3830  -30.4580   21.5780 C   0  0  0  0  0  3  0  0  0  0  0  0
  -24.8500  -28.9260   20.1610 C   0  0  0  0  0  0  0  0  0  0  0  0
  -25.8970  -30.8530   21.3720 C   0  0  0  0  0  2  0  0  0  0  0  0
  -25.9940  -29.4850   20.7410 C   0  0  0  0  0  0  0  0  0  0  0  0
  -27.2070  -28.7820   20.7370 C   0  0  0  0  0  3  0  0  0  0  0  0
  -26.1290  -26.9400   19.5720 C   0  0  0  0  0  3  0  0  0  0  0  0
  -24.9080  -27.6470   19.5750 C   0  0  0  0  0  3  0  0  0  0  0  0
  -23.5960  -29.7650   20.2010 C   0  0  0  0  0  2  0  0  0  0  0  0
  -24.6400  -31.0760   22.1160 N   0  0  0  0  0  0  0  0  0  0  0  0
  -23.5100  -32.1370   23.7680 O   0  0  0  0  0  0  0  0  0  0  0  0
  -22.7400  -29.4380   22.5430 C   0  0  0  0  0  0  0  0  0  0  0  0
  -21.4160  -29.2560   22.4200 N   0  0  0  0  0  0  0  0  0  0  0  0
  -23.4280  -28.8120   23.3530 O   0  0  0  0  0  0  0  0  0  0  0  0
  -20.9230  -29.8110   21.7330 H   0  0  0  0  0  0  0  0  0  0  0  0
  -18.0400  -28.0860   22.9380 C   0  0  0  0  0  0  0  0  0  0  0  0
  -20.6010  -28.3190   23.1910 C   0  0  0  0  0  3  0  0  0  0  0  0
  -20.6860  -26.8930   22.5990 C   0  0  0  0  0  2  0  0  0  0  0  0
  -19.5730  -26.5910   21.5910 C   0  0  0  0  0  2  0  0  0  0  0  0
  -18.1990  -26.7430   22.2490 C   0  0  0  0  0  2  0  0  0  0  0  0
  -19.1690  -28.8350   23.3650 C   0  0  0  0  0  0  0  0  0  0  0  0
  -18.9670  -30.0950   23.9650 C   0  0  0  0  0  3  0  0  0  0  0  0
  -17.6690  -30.6090   24.1460 C   0  0  0  0  0  3  0  0  0  0  0  0
  -16.5530  -29.8550   23.7400 C   0  0  0  0  0  3  0  0  0  0  0  0
  -16.7400  -28.5970   23.1410 C   0  0  0  0  0  3  0  0  0  0  0  0
  -25.8790  -32.5010   23.8420 C   0  0  0  0  0  3  0  0  0  0  0  0
  -26.4060  -31.7270   25.1130 C   0  0  1  0  0  0  0  0  0  0  0  0
  -25.3230  -31.4920   26.1920 C   0  0  0  0  0  1  0  0  0  0  0  0
  -26.9820  -30.3490   24.7130 C   0  0  0  0  0  1  0  0  0  0  0  0
  -27.5680  -32.5170   25.7640 C   0  0  0  0  0  1  0  0  0  0  0  0
  -25.5740  -33.8980   24.1710 N   0  0  0  0  0  0  0  0  0  0  0  0
  -25.9090  -34.9500   23.4100 C   0  0  0  0  0  0  0  0  0  0  0  0
  -26.5810  -34.8480   22.3810 O   0  0  0  0  0  0  0  0  0  0  0  0
  -24.9810  -34.0560   24.9730 H   0  0  0  0  0  0  0  0  0  0  0  0
  -24.1790  -36.7360   23.0410 C   0  0  0  0  0  1  0  0  0  0  0  0
  -25.4140  -36.3360   23.8640 C   0  0  0  0  0  3  0  0  0  0  0  0
  -27.5550  -37.2010   24.6990 C   0  0  0  0  0  1  0  0  0  0  0  0
  -26.4400  -37.3970   23.7750 N   0  0  0  0  0  0  0  0  0  0  0  0
  -26.0300  -38.3060   23.9690 H   0  0  0  0  0  0  0  0  0  0  0  0
  1  2  2  0
  1  3  1  0
  2  5  1  0
  3  6  2  0
  5  7  1  0
  5  4  2  0
  6  4  1  0
  6 50  1  0
  7  8  1  0
  8  9  1  0
  9 10  1  0
 10 11  1  0
 11 20  1  0
 12 20  1  0
 13 18  1  0
 14 15  1  0
 14 13  1  0
 16 15  1  0
 16 25  1  0
 16 17  1  0
 18 12  1  0
 18 17  1  0
 19 12  2  0
 20 21  1  0
 22 23  2  0
 23 42  1  0
 24 23  1  0
 24 27  1  0
 25 22  1  0
 25 26  1  0
 26 24  2  0
 27 28  1  0
 28 29  2  0
 30 33  1  0
 30 29  1  0
 31 30  2  0
 32 31  1  0
 32 27  2  0
 33 34  1  0
 34 35  1  0
 35 36  2  0
 37 36  1  0
 37 41  1  0
 38 37  2  0
 39 34  2  0
 39 38  1  0
 40 39  1  0
 42 43  1  0
 43 46  1  0
 43 45  1  0
 44 42  2  0
 47 48  1  0
 47 22  1  0
 49 47  1  0
 50 51  1  0
 51 52  1  0
 52 53  1  0
 54 56  1  0
 54 53  1  0
 55 66  2  0
 56 61  1  0
 57 65  1  0
 57 67  1  0
 58 64  1  0
 58 60  1  0
 59 65  1  0
 60 59  1  0
 61 60  2  0
 62 63  1  0
 62 56  2  0
 63 58  2  0
 64 57  1  0
 65 55  1  0
 67 69  2  0
 68 67  1  0
 70 68  1  0
 71 80  2  0
 71 76  1  0
 72 68  1  0
 72 76  1  0
 73 72  1  0
 74 75  1  0
 74 73  1  0
 75 71  1  0
 76 77  2  0
 77 78  1  0
 79 78  2  0
 80 79  1  0
 81 55  1  0
 81 86  1  0
 81 82  1  0
 82 85  1  1
 82 83  1  0
 84 82  1  0
 86 89  1  0
 87 91  1  0
 87 86  1  0
 88 87  2  0
 91 90  1  0
 93 91  1  0
 93 94  1  0
 93 92  1  0
M  ISO  4  12 100  20 100  53 101  54 101
M  END
>  <TORSDO>  (7) 
F 25

>  <SCORE>  (7) 
-12.043

>  <name>  (7) 
6

>  <ligand_id>  (7) 
6

>  <original_smiles>  (7) 
[H]c1c([H])c([H])c2c(c1[H])C([H])([H])C([H])([H])C([H])([H])C2([H])N([H])C(=O)C1([H])N(C(=O)C([H])(N([H])C(=O)C([H])(N([H])C([H])([H])[H])C([H])([H])[H])C(C([H])([H])[H])(C([H])([H])[H])C([H])([H])[H])C([H])([H])c2c([H])c(OC([H])([H])C([H])([H])C([H])([H])C([H])([H])c3c([H])c([H])c([H])c(C([H])([H])C([H])([H])C([H])([H])C([H])([H])C([H])([H])N([H])C(=O)N4C([H])([H])C([H])([H])C([H])([H])C([H])(n5nc(-c6c([H])c([H])c(Oc7c([H])c([H])c(F)c([H])c7F)c([H])c6[H])c(C(=O)N([H])[H])c5N([H])[H])C4([H])[H])c3[H])c([H])c([H])c2C1([H])[H]

>  <smiles>  (7) 
[H]c1c([H])c([H])c2c(c1[H])C([H])([H])C([H])([H])C([H])([H])C2([H])N([H])C(=O)C1([H])N(C(=O)C([H])(N([H])C(=O)C([H])(N([H])C([H])([H])[H])C([H])([H])[H])C(C([H])([H])[H])(C([H])([H])[H])C([H])([H])[H])C([H])([H])c2c([H])c(OC([H])([H])C([H])([H])C([H])([H])C([H])([H])c3c([H])c([H])c([H])c(C([H])([H])C([H])([H])C([H])([H])C([H])([H])C([H])([H])N([H])C(=O)N4C([H])([H])C([H])([H])C([H])([H])C([H])(n5nc(-c6c([H])c([H])c(Oc7c([H])c([H])c(F)c([H])c7F)c([H])c6[H])c(C(=O)N([H])[H])c5N([H])[H])C4([H])[H])c3[H])c([H])c([H])c2C1([H])[H]

$$$$
7:0:0
     RDKit          3D

 92 99  0  0  1  0  0  0  0  0999 V2000
  -31.0870  -22.8680   16.4710 N   0  0  0  0  0  4  0  0  0  0  0  0
  -31.8940  -23.3900   16.1650 H   0  0  0  0  0  0  0  0  0  0  0  0
  -30.5790  -22.5840   15.6440 H   0  0  0  0  0  0  0  0  0  0  0  0
  -30.7850  -20.4160   16.7380 C   0  0  0  0  0  1  0  0  0  0  0  0
  -31.5590  -21.6660   17.2090 C   0  0  0  0  0  3  0  0  0  0  0  0
  -33.1170  -21.5440   17.2430 C   0  0  0  0  0  2  0  0  0  0  0  0
  -33.8950  -21.6520   15.9030 C   0  0  0  0  0  2  0  0  0  0  0  0
  -33.8280  -20.4610   15.1100 O   0  0  0  0  0  0  0  0  0  0  0  0
  -33.5210  -17.5190    8.6310 C   0  0  0  0  0  0  0  0  0  0  0  0
  -33.6190  -20.6450   13.7630 C   0  0  0  0  0  0  0  0  0  0  0  0
  -33.4430  -19.9970    8.6990 C   0  0  0  0  0  3  0  0  0  0  0  0
  -33.1090  -21.0360   11.0090 C   0  0  0  0  0  0  0  0  0  0  0  0
  -32.5870  -18.6110   10.6680 C   0  0  0  0  0  2  0  0  0  0  0  0
  -32.9910  -19.7560   11.5720 C   0  0  0  0  0  0  0  0  0  0  0  0
  -33.2400  -19.5570   12.9480 C   0  0  0  0  0  3  0  0  0  0  0  0
  -33.7030  -21.9340   13.1870 C   0  0  0  0  0  3  0  0  0  0  0  0
  -33.4650  -22.1350   11.8150 C   0  0  0  0  0  3  0  0  0  0  0  0
  -32.8420  -21.1650    9.5240 C   0  0  0  0  0  2  0  0  0  0  0  0
  -33.2210  -18.6530    9.3290 N   0  0  0  0  0  0  0  0  0  0  0  0
  -33.9470  -17.5820    7.4690 O   0  0  0  0  0  0  0  0  0  0  0  0
  -34.9340  -20.3090    8.4400 C   0  0  0  0  0  0  0  0  0  0  0  0
  -35.2140  -21.0070    7.3280 N   0  0  0  0  0  0  0  0  0  0  0  0
  -35.8010  -19.9520    9.2400 O   0  0  0  0  0  0  0  0  0  0  0  0
  -34.4460  -21.2220    6.7040 H   0  0  0  0  0  0  0  0  0  0  0  0
  -37.1670  -22.0640    4.4760 C   0  0  0  0  0  0  0  0  0  0  0  0
  -36.5360  -21.4760    6.9130 C   0  0  0  0  0  3  0  0  0  0  0  0
  -36.7110  -22.9840    7.2150 C   0  0  0  0  0  2  0  0  0  0  0  0
  -36.3430  -23.8870    6.0320 C   0  0  0  0  0  2  0  0  0  0  0  0
  -37.1930  -23.5480    4.8050 C   0  0  0  0  0  2  0  0  0  0  0  0
  -36.8370  -21.0960    5.4590 C   0  0  0  0  0  0  0  0  0  0  0  0
  -36.7730  -19.7380    5.0850 C   0  0  0  0  0  3  0  0  0  0  0  0
  -37.0400  -19.3380    3.7650 C   0  0  0  0  0  3  0  0  0  0  0  0
  -37.3930  -20.2960    2.7990 C   0  0  0  0  0  3  0  0  0  0  0  0
  -37.4500  -21.6570    3.1540 C   0  0  0  0  0  3  0  0  0  0  0  0
  -33.3380  -16.0990    9.2530 C   0  0  0  0  0  3  0  0  0  0  0  0
  -34.6910  -15.4610    9.7540 C   0  0  1  0  0  0  0  0  0  0  0  0
  -35.4700  -14.7090    8.6520 C   0  0  0  0  0  1  0  0  0  0  0  0
  -35.6210  -16.5490   10.3340 C   0  0  0  0  0  1  0  0  0  0  0  0
  -34.4090  -14.4660   10.9070 C   0  0  0  0  0  1  0  0  0  0  0  0
  -32.7130  -15.2450    8.2340 N   0  0  0  0  0  0  0  0  0  0  0  0
  -31.3930  -15.0410    8.1100 C   0  0  0  0  0  0  0  0  0  0  0  0
  -30.5680  -15.5020    8.9070 O   0  0  0  0  0  0  0  0  0  0  0  0
  -33.3280  -14.8550    7.5360 H   0  0  0  0  0  0  0  0  0  0  0  0
  -29.7180  -14.9040    6.2410 C   0  0  0  0  0  1  0  0  0  0  0  0
  -30.9040  -14.1990    6.9170 C   0  0  0  0  0  3  0  0  0  0  0  0
  -31.6350  -11.8800    7.2600 C   0  0  0  0  0  1  0  0  0  0  0  0
  -30.5170  -12.8200    7.2890 N   0  0  0  0  0  0  0  0  0  0  0  0
  -29.7870  -12.4700    6.6750 H   0  0  0  0  0  0  0  0  0  0  0  0
  -30.2470  -23.7770   17.2940 C   0  0  0  0  0  2  0  0  0  0  0  0
  -30.7980  -24.0350   18.7190 C   0  0  0  0  0  2  0  0  0  0  0  0
  -31.4460  -25.4400   18.7830 C   0  0  0  0  0  2  0  0  0  0  0  0
  -31.1750  -26.3980   17.6060 C   0  0  0  0  0  2  0  0  0  0  0  0
  -32.1990  -27.5480   17.4650 C   0  0  0  0  0  2  0  0  0  0  0  0
  -31.5990  -28.9400   17.7640 C   0  0  0  0  0  2  0  0  0  0  0  0
  -33.1000  -30.8070   16.6300 C   0  0  0  0  0  0  0  0  0  0  0  0
  -33.5060  -31.3650   14.2520 C   0  0  0  0  0  2  0  0  0  0  0  0
  -32.3030  -32.1410   13.6710 C   0  0  0  0  0  2  0  0  0  0  0  0
  -31.1730  -31.1890   13.2160 C   0  0  0  0  0  2  0  0  0  0  0  0
  -30.8590  -30.0910   14.2740 C   0  0  0  0  0  3  0  0  0  0  0  0
  -32.1930  -29.4280   14.6760 C   0  0  0  0  0  2  0  0  0  0  0  0
  -33.0150  -30.4610   15.3120 N   0  0  0  0  0  0  0  0  0  0  0  0
  -33.7200  -31.8180   16.9810 O   0  0  0  0  0  0  0  0  0  0  0  0
  -32.6070  -30.0140   17.6140 N   0  0  0  0  0  0  0  0  0  0  0  0
  -32.8830  -30.3840   18.5130 H   0  0  0  0  0  0  0  0  0  0  0  0
  -28.5360  -29.2690   13.5270 C   0  0  0  0  0  0  0  0  0  0  0  0
  -28.1130  -28.0630   13.0270 C   0  0  0  0  0  0  0  0  0  0  0  0
  -29.2690  -27.2300   12.9790 C   0  0  0  0  0  0  0  0  0  0  0  0
  -29.8910  -29.1160   13.7790 N   0  0  0  0  0  0  0  0  0  0  0  0
  -30.3210  -27.8670   13.4780 N   0  0  0  0  0  0  0  0  0  0  0  0
  -29.4580  -25.8820   12.4280 C   0  0  0  0  0  0  0  0  0  0  0  0
  -29.3300  -24.7360   13.2390 C   0  0  0  0  0  3  0  0  0  0  0  0
  -29.5030  -23.4470   12.6920 C   0  0  0  0  0  3  0  0  0  0  0  0
  -29.8000  -23.2940   11.3170 C   0  0  0  0  0  0  0  0  0  0  0  0
  -29.9450  -24.4400   10.5170 C   0  0  0  0  0  3  0  0  0  0  0  0
  -29.7770  -25.7250   11.0640 C   0  0  0  0  0  3  0  0  0  0  0  0
  -30.0030  -22.0860   10.6990 O   0  0  0  0  0  0  0  0  0  0  0  0
  -28.9580  -21.3340   10.2230 C   0  0  0  0  0  0  0  0  0  0  0  0
  -28.0970  -21.8140    9.2120 C   0  0  0  0  0  3  0  0  0  0  0  0
  -27.0770  -20.9830    8.7080 C   0  0  0  0  0  3  0  0  0  0  0  0
  -26.9270  -19.6730    9.1970 C   0  0  0  0  0  0  0  0  0  0  0  0
  -27.7850  -19.1950   10.2020 C   0  0  0  0  0  3  0  0  0  0  0  0
  -28.8000  -20.0200   10.7100 C   0  0  0  0  0  0  0  0  0  0  0  0
  -29.6420  -19.5500   11.6630 F   0  0  0  0  0  0  0  0  0  0  0  0
  -25.9520  -18.8700    8.7080 F   0  0  0  0  0  0  0  0  0  0  0  0
  -26.7330  -27.7340   12.5360 C   0  0  0  0  0  0  0  0  0  0  0  0
  -26.1680  -26.6130   12.9810 N   0  0  0  0  0  0  0  0  0  0  0  0
  -26.1250  -28.4890   11.7800 O   0  0  0  0  0  0  0  0  0  0  0  0
  -26.6480  -26.0000   13.6230 H   0  0  0  0  0  0  0  0  0  0  0  0
  -25.2390  -26.3710   12.6680 H   0  0  0  0  0  0  0  0  0  0  0  0
  -27.8960  -30.4770   13.7680 N   0  0  0  0  0  0  0  0  0  0  0  0
  -26.9270  -30.6460   13.5300 H   0  0  0  0  0  0  0  0  0  0  0  0
  -28.3770  -31.3190   14.0590 H   0  0  0  0  0  0  0  0  0  0  0  0
  1  5  1  0
  1 49  1  0
  2  1  1  0
  3  1  1  0
  5  4  1  0
  5  6  1  0
  7  6  1  0
  8  7  1  0
  9 19  1  0
 10  8  1  0
 11 21  1  0
 11 19  1  0
 11 18  1  0
 12 14  2  0
 12 17  1  0
 13 14  1  0
 14 15  1  0
 15 10  2  0
 16 10  1  0
 17 16  2  0
 18 12  1  0
 19 13  1  0
 20  9  2  0
 21 23  2  0
 22 21  1  0
 24 22  1  0
 25 29  1  0
 25 30  1  0
 26 27  1  0
 26 22  1  0
 28 27  1  0
 29 28  1  0
 30 26  1  0
 31 30  2  0
 32 31  1  0
 33 34  1  0
 33 32  2  0
 34 25  2  0
 35  9  1  0
 35 36  1  0
 36 38  1  1
 36 39  1  0
 37 36  1  0
 40 35  1  0
 41 40  1  0
 41 42  2  0
 43 40  1  0
 45 44  1  0
 45 47  1  0
 45 41  1  0
 46 47  1  0
 48 47  1  0
 49 50  1  0
 50 51  1  0
 52 51  1  0
 53 52  1  0
 53 54  1  0
 55 62  2  0
 55 63  1  0
 56 61  1  0
 57 56  1  0
 58 57  1  0
 59 58  1  0
 59 60  1  0
 60 61  1  0
 61 55  1  0
 63 54  1  0
 63 64  1  0
 65 90  1  0
 65 68  1  0
 66 65  2  0
 67 66  1  0
 67 69  2  0
 68 59  1  0
 69 68  1  0
 70 67  1  0
 70 71  1  0
 72 71  2  0
 73 72  1  0
 74 75  1  0
 74 73  2  0
 75 70  2  0
 76 73  1  0
 77 76  1  0
 77 82  1  0
 78 77  2  0
 79 80  2  0
 79 78  1  0
 80 81  1  0
 81 82  2  0
 82 83  1  0
 84 80  1  0
 85 86  1  0
 85 66  1  0
 86 88  1  0
 87 85  2  0
 89 86  1  0
 90 92  1  0
 91 90  1  0
M  ISO  4   7 101   8 101  55 100  63 100
M  END
>  <TORSDO>  (8) 
F 25

>  <SCORE>  (8) 
-2.915

>  <name>  (8) 
7

>  <ligand_id>  (8) 
7

>  <original_smiles>  (8) 
[H]c1c([H])c([H])c2c(c1[H])C([H])([H])C([H])([H])C([H])([H])C2([H])N([H])C(=O)C1([H])N(C(=O)C([H])(N([H])C(=O)C([H])(N([H])C([H])([H])[H])C([H])([H])[H])C(C([H])([H])[H])(C([H])([H])[H])C([H])([H])[H])C([H])([H])c2c([H])c(OC([H])([H])C([H])([H])C([H])(C([H])([H])[H])[N+]([H])([H])C([H])([H])C([H])([H])C([H])([H])C([H])([H])C([H])([H])C([H])([H])N([H])C(=O)N3C([H])([H])C([H])([H])C([H])([H])C([H])(n4nc(-c5c([H])c([H])c(Oc6c([H])c([H])c(F)c([H])c6F)c([H])c5[H])c(C(=O)N([H])[H])c4N([H])[H])C3([H])[H])c([H])c([H])c2C1([H])[H]

>  <smiles>  (8) 
[H]c1c([H])c([H])c2c(c1[H])C([H])([H])C([H])([H])C([H])([H])C2([H])N([H])C(=O)C1([H])N(C(=O)C([H])(N([H])C(=O)C([H])(N([H])C([H])([H])[H])C([H])([H])[H])C(C([H])([H])[H])(C([H])([H])[H])C([H])([H])[H])C([H])([H])c2c([H])c(OC([H])([H])C([H])([H])C([H])(C([H])([H])[H])[N+]([H])([H])C([H])([H])C([H])([H])C([H])([H])C([H])([H])C([H])([H])C([H])([H])N([H])C(=O)N3C([H])([H])C([H])([H])C([H])([H])C([H])(n4nc(-c5c([H])c([H])c(Oc6c([H])c([H])c(F)c([H])c6F)c([H])c5[H])c(C(=O)N([H])[H])c4N([H])[H])C3([H])[H])c([H])c([H])c2C1([H])[H]

$$$$
8:0:0
     RDKit          3D

 96103  0  0  1  0  0  0  0  0999 V2000
  -25.6540  -20.7570   24.6140 C   0  0  0  0  0  2  0  0  0  0  0  0
  -26.4530  -19.6250   25.2900 C   0  0  0  0  0  2  0  0  0  0  0  0
  -27.6240  -20.1440   26.0320 N   0  0  0  0  0  4  0  0  0  0  0  0
  -27.4460  -19.9850   27.0090 H   0  0  0  0  0  0  0  0  0  0  0  0
  -27.6820  -21.1420   25.9080 H   0  0  0  0  0  0  0  0  0  0  0  0
  -28.9320  -19.5250   25.7140 C   0  0  0  0  0  2  0  0  0  0  0  0
  -29.6700  -20.2190   24.5490 C   0  0  0  0  0  2  0  0  0  0  0  0
  -31.0040  -19.5530   24.1810 C   0  0  0  0  0  2  0  0  0  0  0  0
  -30.8810  -18.1870   23.4730 C   0  0  0  0  0  2  0  0  0  0  0  0
  -30.0150  -18.2190   22.2000 C   0  0  0  0  0  2  0  0  0  0  0  0
  -30.4990  -17.2610   21.1000 C   0  0  0  0  0  2  0  0  0  0  0  0
  -31.1390  -14.8890   20.9200 C   0  0  0  0  0  0  0  0  0  0  0  0
  -30.9670  -12.8080   19.6280 C   0  0  0  0  0  2  0  0  0  0  0  0
  -30.1240  -13.0920   18.3680 C   0  0  0  0  0  2  0  0  0  0  0  0
  -28.6180  -12.9360   18.6580 C   0  0  0  0  0  2  0  0  0  0  0  0
  -28.1750  -13.6750   19.9500 C   0  0  0  0  0  3  0  0  0  0  0  0
  -29.1390  -13.3730   21.1230 C   0  0  0  0  0  2  0  0  0  0  0  0
  -30.5060  -13.7120   20.6900 N   0  0  0  0  0  0  0  0  0  0  0  0
  -32.2780  -15.1410   20.5120 O   0  0  0  0  0  0  0  0  0  0  0  0
  -30.3600  -15.8460   21.4400 N   0  0  0  0  0  0  0  0  0  0  0  0
  -29.4560  -15.5380   21.7700 H   0  0  0  0  0  0  0  0  0  0  0  0
  -25.6850  -14.2080   20.3380 C   0  0  0  0  0  0  0  0  0  0  0  0
  -24.6150  -13.4070   20.6440 C   0  0  0  0  0  0  0  0  0  0  0  0
  -25.1360  -12.0820   20.7620 C   0  0  0  0  0  0  0  0  0  0  0  0
  -26.7870  -13.3680   20.2930 N   0  0  0  0  0  0  0  0  0  0  0  0
  -26.4550  -12.0880   20.6010 N   0  0  0  0  0  0  0  0  0  0  0  0
  -24.4470  -10.7990   20.9610 C   0  0  0  0  0  0  0  0  0  0  0  0
  -24.8170   -9.9200   22.0020 C   0  0  0  0  0  3  0  0  0  0  0  0
  -24.1350   -8.6990   22.1860 C   0  0  0  0  0  3  0  0  0  0  0  0
  -23.0680   -8.3480   21.3270 C   0  0  0  0  0  0  0  0  0  0  0  0
  -22.7170   -9.2140   20.2760 C   0  0  0  0  0  3  0  0  0  0  0  0
  -23.4020  -10.4280   20.0920 C   0  0  0  0  0  3  0  0  0  0  0  0
  -22.3550   -7.1760   21.4180 O   0  0  0  0  0  0  0  0  0  0  0  0
  -22.1340   -6.5590   22.6230 C   0  0  0  0  0  0  0  0  0  0  0  0
  -21.5070   -7.2270   23.6980 C   0  0  0  0  0  3  0  0  0  0  0  0
  -21.2350   -6.5350   24.8950 C   0  0  0  0  0  3  0  0  0  0  0  0
  -21.5810   -5.1750   25.0150 C   0  0  0  0  0  0  0  0  0  0  0  0
  -22.1970   -4.5050   23.9440 C   0  0  0  0  0  3  0  0  0  0  0  0
  -22.4710   -5.1950   22.7510 C   0  0  0  0  0  0  0  0  0  0  0  0
  -23.0480   -4.5400   21.7140 F   0  0  0  0  0  0  0  0  0  0  0  0
  -21.3110   -4.5070   26.1620 F   0  0  0  0  0  0  0  0  0  0  0  0
  -23.1770  -13.8290   20.7290 C   0  0  0  0  0  0  0  0  0  0  0  0
  -22.4000  -13.1770   21.5870 N   0  0  0  0  0  0  0  0  0  0  0  0
  -22.7450  -14.7710   20.0670 O   0  0  0  0  0  0  0  0  0  0  0  0
  -22.7550  -12.4110   22.1420 H   0  0  0  0  0  0  0  0  0  0  0  0
  -21.4310  -13.4440   21.6880 H   0  0  0  0  0  0  0  0  0  0  0  0
  -25.8090  -15.5690   20.0810 N   0  0  0  0  0  0  0  0  0  0  0  0
  -25.0100  -16.1920   20.0570 H   0  0  0  0  0  0  0  0  0  0  0  0
  -26.6740  -16.0230   19.8120 H   0  0  0  0  0  0  0  0  0  0  0  0
  -26.5200  -21.5610   23.6330 C   0  0  0  0  0  2  0  0  0  0  0  0
  -25.7850  -22.7220   22.9670 C   0  0  0  0  0  2  0  0  0  0  0  0
  -26.5670  -23.3480   21.8010 C   0  0  0  0  0  2  0  0  0  0  0  0
  -27.8930  -24.0250   22.1900 C   0  0  0  0  0  2  0  0  0  0  0  0
  -28.5670  -24.6950   20.9740 C   0  0  0  0  0  2  0  0  0  0  0  0
  -29.1190  -26.1030   21.2610 C   0  0  0  0  0  2  0  0  0  0  0  0
  -28.9670  -26.9460   20.1190 O   0  0  0  0  0  0  0  0  0  0  0  0
  -24.6320  -31.6990   23.1100 C   0  0  0  0  0  0  0  0  0  0  0  0
  -27.7420  -27.5610   20.0810 C   0  0  0  0  0  0  0  0  0  0  0  0
  -23.5920  -30.1760   21.4610 C   0  0  0  0  0  3  0  0  0  0  0  0
  -25.2100  -28.7890   20.0650 C   0  0  0  0  0  0  0  0  0  0  0  0
  -26.0690  -30.7880   21.2990 C   0  0  0  0  0  2  0  0  0  0  0  0
  -26.2960  -29.4370   20.6650 C   0  0  0  0  0  0  0  0  0  0  0  0
  -27.5670  -28.8210   20.6840 C   0  0  0  0  0  3  0  0  0  0  0  0
  -26.6490  -26.9310   19.4560 C   0  0  0  0  0  3  0  0  0  0  0  0
  -25.3800  -27.5380   19.4550 C   0  0  0  0  0  3  0  0  0  0  0  0
  -23.8840  -29.5100   20.0910 C   0  0  0  0  0  2  0  0  0  0  0  0
  -24.7800  -30.9040   22.0160 N   0  0  0  0  0  0  0  0  0  0  0  0
  -23.5210  -31.8640   23.6330 O   0  0  0  0  0  0  0  0  0  0  0  0
  -23.0350  -29.0970   22.4170 C   0  0  0  0  0  0  0  0  0  0  0  0
  -21.7420  -28.7700   22.2580 N   0  0  0  0  0  0  0  0  0  0  0  0
  -23.7630  -28.5580   23.2530 O   0  0  0  0  0  0  0  0  0  0  0  0
  -21.2040  -29.2720   21.5660 H   0  0  0  0  0  0  0  0  0  0  0  0
  -18.5010  -27.2460   22.6960 C   0  0  0  0  0  0  0  0  0  0  0  0
  -21.0150  -27.7540   23.0170 C   0  0  0  0  0  3  0  0  0  0  0  0
  -21.2760  -26.3400   22.4460 C   0  0  0  0  0  2  0  0  0  0  0  0
  -20.2300  -25.9110   21.4110 C   0  0  0  0  0  2  0  0  0  0  0  0
  -18.8250  -25.9230   22.0250 C   0  0  0  0  0  2  0  0  0  0  0  0
  -19.5290  -28.1150   23.1460 C   0  0  0  0  0  0  0  0  0  0  0  0
  -19.1730  -29.3530   23.7250 C   0  0  0  0  0  3  0  0  0  0  0  0
  -17.8250  -29.7260   23.8590 C   0  0  0  0  0  3  0  0  0  0  0  0
  -16.8090  -28.8510   23.4330 C   0  0  0  0  0  3  0  0  0  0  0  0
  -17.1490  -27.6140   22.8580 C   0  0  0  0  0  3  0  0  0  0  0  0
  -25.8460  -32.4560   23.7390 C   0  0  0  0  0  3  0  0  0  0  0  0
  -26.3930  -31.7690   25.0490 C   0  0  1  0  0  0  0  0  0  0  0  0
  -25.2890  -31.4520   26.0840 C   0  0  0  0  0  1  0  0  0  0  0  0
  -27.1260  -30.4480   24.7080 C   0  0  0  0  0  1  0  0  0  0  0  0
  -27.4320  -32.6920   25.7330 C   0  0  0  0  0  1  0  0  0  0  0  0
  -25.4130  -33.8300   24.0140 N   0  0  0  0  0  0  0  0  0  0  0  0
  -25.6740  -34.8800   23.2270 C   0  0  0  0  0  0  0  0  0  0  0  0
  -26.3740  -34.8020   22.2120 O   0  0  0  0  0  0  0  0  0  0  0  0
  -24.8020  -33.9620   24.8070 H   0  0  0  0  0  0  0  0  0  0  0  0
  -23.8090  -36.5030   22.7710 C   0  0  0  0  0  1  0  0  0  0  0  0
  -25.0600  -36.2340   23.6230 C   0  0  0  0  0  3  0  0  0  0  0  0
  -27.0880  -37.3310   24.4670 C   0  0  0  0  0  1  0  0  0  0  0  0
  -25.9990  -37.3710   23.4960 N   0  0  0  0  0  0  0  0  0  0  0  0
  -25.5090  -38.2540   23.6080 H   0  0  0  0  0  0  0  0  0  0  0  0
  1  2  1  0
  2  3  1  0
  3  4  1  0
  5  3  1  0
  6  3  1  0
  7  6  1  0
  8  7  1  0
  9  8  1  0
 10  9  1  0
 11 20  1  0
 11 10  1  0
 12 20  1  0
 13 18  1  0
 14 15  1  0
 14 13  1  0
 16 15  1  0
 16 25  1  0
 16 17  1  0
 18 12  1  0
 18 17  1  0
 19 12  2  0
 20 21  1  0
 22 23  2  0
 23 42  1  0
 23 24  1  0
 24 27  1  0
 25 22  1  0
 25 26  1  0
 26 24  2  0
 27 28  1  0
 28 29  2  0
 30 33  1  0
 30 29  1  0
 31 30  2  0
 32 31  1  0
 32 27  2  0
 33 34  1  0
 34 39  2  0
 34 35  1  0
 35 36  2  0
 36 37  1  0
 37 41  1  0
 38 37  2  0
 39 38  1  0
 40 39  1  0
 42 43  1  0
 43 46  1  0
 43 45  1  0
 44 42  2  0
 47 22  1  0
 48 47  1  0
 49 47  1  0
 50  1  1  0
 51 50  1  0
 52 53  1  0
 52 51  1  0
 54 55  1  0
 54 53  1  0
 56 55  1  0
 57 68  2  0
 58 56  1  0
 58 63  1  0
 59 67  1  0
 59 69  1  0
 60 66  1  0
 60 62  1  0
 61 67  1  0
 62 63  2  0
 62 61  1  0
 64 58  2  0
 65 64  1  0
 65 60  2  0
 66 59  1  0
 67 57  1  0
 69 71  2  0
 70 69  1  0
 72 70  1  0
 73 82  2  0
 73 78  1  0
 74 70  1  0
 74 78  1  0
 75 74  1  0
 76 77  1  0
 76 75  1  0
 77 73  1  0
 78 79  2  0
 79 80  1  0
 81 80  2  0
 82 81  1  0
 83 57  1  0
 83 88  1  0
 83 84  1  0
 84 87  1  1
 84 85  1  0
 86 84  1  0
 88 91  1  0
 89 93  1  0
 89 88  1  0
 90 89  2  0
 93 92  1  0
 95 96  1  0
 95 93  1  0
 95 94  1  0
M  ISO  4  12 100  20 100  55 101  56 101
M  END
>  <TORSDO>  (9) 
F 30

>  <SCORE>  (9) 
20.333

>  <name>  (9) 
8

>  <ligand_id>  (9) 
8

>  <original_smiles>  (9) 
[H]c1c([H])c([H])c2c(c1[H])C([H])([H])C([H])([H])C([H])([H])C2([H])N([H])C(=O)C1([H])N(C(=O)C([H])(N([H])C(=O)C([H])(N([H])C([H])([H])[H])C([H])([H])[H])C(C([H])([H])[H])(C([H])([H])[H])C([H])([H])[H])C([H])([H])c2c([H])c(OC([H])([H])C([H])([H])C([H])([H])C([H])([H])C([H])([H])C([H])([H])C([H])([H])C([H])([H])[N+]([H])([H])C([H])([H])C([H])([H])C([H])([H])C([H])([H])C([H])([H])C([H])([H])N([H])C(=O)N3C([H])([H])C([H])([H])C([H])([H])C([H])(n4nc(-c5c([H])c([H])c(Oc6c([H])c([H])c(F)c([H])c6F)c([H])c5[H])c(C(=O)N([H])[H])c4N([H])[H])C3([H])[H])c([H])c([H])c2C1([H])[H]

>  <smiles>  (9) 
[H]c1c([H])c([H])c2c(c1[H])C([H])([H])C([H])([H])C([H])([H])C2([H])N([H])C(=O)C1([H])N(C(=O)C([H])(N([H])C(=O)C([H])(N([H])C([H])([H])[H])C([H])([H])[H])C(C([H])([H])[H])(C([H])([H])[H])C([H])([H])[H])C([H])([H])c2c([H])c(OC([H])([H])C([H])([H])C([H])([H])C([H])([H])C([H])([H])C([H])([H])C([H])([H])C([H])([H])[N+]([H])([H])C([H])([H])C([H])([H])C([H])([H])C([H])([H])C([H])([H])C([H])([H])N([H])C(=O)N3C([H])([H])C([H])([H])C([H])([H])C([H])(n4nc(-c5c([H])c([H])c(Oc6c([H])c([H])c(F)c([H])c6F)c([H])c5[H])c(C(=O)N([H])[H])c4N([H])[H])C3([H])[H])c([H])c([H])c2C1([H])[H]

$$$$
9:0:0
     RDKit          3D

 99107  0  0  1  0  0  0  0  0999 V2000
  -32.6080  -23.3330   19.6880 C   0  0  0  0  0  3  0  0  0  0  0  0
  -31.8110  -24.3040   20.3460 C   0  0  0  0  0  3  0  0  0  0  0  0
  -30.6310  -22.4650   18.6030 C   0  0  0  0  0  3  0  0  0  0  0  0
  -32.0160  -22.3460   18.8660 C   0  0  0  0  0  0  0  0  0  0  0  0
  -30.4040  -24.3440   20.1890 C   0  0  0  0  0  0  0  0  0  0  0  0
  -29.8330  -23.4490   19.2410 C   0  0  0  0  0  0  0  0  0  0  0  0
  -28.3460  -23.4820   18.9410 C   0  0  0  0  0  1  0  0  0  0  0  0
  -29.9190  -25.0420   22.6130 C   0  0  0  0  0  1  0  0  0  0  0  0
  -29.5290  -25.2240   21.1330 C   0  0  0  0  0  3  0  0  0  0  0  0
  -29.4020  -26.7350   20.7690 C   0  0  0  0  0  2  0  0  0  0  0  0
  -28.4720  -26.9310   19.7050 O   0  0  0  0  0  0  0  0  0  0  0  0
  -24.5500  -31.9090   23.1800 C   0  0  0  0  0  0  0  0  0  0  0  0
  -27.3160  -27.6660   19.8960 C   0  0  0  0  0  0  0  0  0  0  0  0
  -23.3830  -30.5660   21.4560 C   0  0  0  0  0  3  0  0  0  0  0  0
  -24.8760  -29.1090   19.9780 C   0  0  0  0  0  0  0  0  0  0  0  0
  -25.9010  -30.9710   21.3010 C   0  0  0  0  0  2  0  0  0  0  0  0
  -26.0130  -29.6210   20.6130 C   0  0  0  0  0  0  0  0  0  0  0  0
  -27.2320  -28.9020   20.5920 C   0  0  0  0  0  3  0  0  0  0  0  0
  -26.1550  -27.1650   19.2740 C   0  0  0  0  0  3  0  0  0  0  0  0
  -24.9420  -27.8770   19.3060 C   0  0  0  0  0  3  0  0  0  0  0  0
  -23.6140  -29.9400   20.0520 C   0  0  0  0  0  2  0  0  0  0  0  0
  -24.6280  -31.1640   22.0390 N   0  0  0  0  0  0  0  0  0  0  0  0
  -23.4560  -32.1380   23.7110 O   0  0  0  0  0  0  0  0  0  0  0  0
  -22.7350  -29.4960   22.3660 C   0  0  0  0  0  0  0  0  0  0  0  0
  -21.4010  -29.3600   22.2850 N   0  0  0  0  0  0  0  0  0  0  0  0
  -23.4320  -28.7920   23.1010 O   0  0  0  0  0  0  0  0  0  0  0  0
  -20.8980  -29.9740   21.6590 H   0  0  0  0  0  0  0  0  0  0  0  0
  -18.0200  -28.2370   22.8440 C   0  0  0  0  0  0  0  0  0  0  0  0
  -20.5920  -28.3870   23.0180 C   0  0  0  0  0  3  0  0  0  0  0  0
  -20.6240  -27.0060   22.3170 C   0  0  0  0  0  2  0  0  0  0  0  0
  -19.4610  -26.8060   21.3410 C   0  0  0  0  0  2  0  0  0  0  0  0
  -18.1160  -26.9470   22.0550 C   0  0  0  0  0  2  0  0  0  0  0  0
  -19.1830  -28.9220   23.2840 C   0  0  0  0  0  0  0  0  0  0  0  0
  -19.0320  -30.1450   23.9730 C   0  0  0  0  0  3  0  0  0  0  0  0
  -17.7530  -30.6590   24.2540 C   0  0  0  0  0  3  0  0  0  0  0  0
  -16.6050  -29.9620   23.8330 C   0  0  0  0  0  3  0  0  0  0  0  0
  -16.7410  -28.7590   23.1200 C   0  0  0  0  0  3  0  0  0  0  0  0
  -25.8170  -32.5280   23.8440 C   0  0  0  0  0  3  0  0  0  0  0  0
  -26.3340  -31.7060   25.0830 C   0  0  1  0  0  0  0  0  0  0  0  0
  -25.2380  -31.3820   26.1280 C   0  0  0  0  0  1  0  0  0  0  0  0
  -26.9560  -30.3680   24.6250 C   0  0  0  0  0  1  0  0  0  0  0  0
  -27.4530  -32.4970   25.7980 C   0  0  0  0  0  1  0  0  0  0  0  0
  -25.4950  -33.9050   24.2420 N   0  0  0  0  0  0  0  0  0  0  0  0
  -25.8350  -34.9980   23.5480 C   0  0  0  0  0  0  0  0  0  0  0  0
  -26.5210  -34.9510   22.5250 O   0  0  0  0  0  0  0  0  0  0  0  0
  -24.8920  -34.0150   25.0460 H   0  0  0  0  0  0  0  0  0  0  0  0
  -24.0870  -36.7760   23.2520 C   0  0  0  0  0  1  0  0  0  0  0  0
  -25.3180  -36.3550   24.0690 C   0  0  0  0  0  3  0  0  0  0  0  0
  -27.4200  -37.2110   24.9910 C   0  0  0  0  0  1  0  0  0  0  0  0
  -26.3380  -37.4250   24.0330 N   0  0  0  0  0  0  0  0  0  0  0  0
  -25.9160  -38.3320   24.2180 H   0  0  0  0  0  0  0  0  0  0  0  0
  -34.2380  -21.4420   17.9040 C   0  0  0  0  0  1  0  0  0  0  0  0
  -32.8040  -21.1060   18.3710 C   0  0  0  0  0  3  0  0  0  0  0  0
  -32.7680  -20.0750   19.4500 N   0  0  0  0  0  4  0  0  0  0  0  0
  -33.5120  -20.2880   20.0940 H   0  0  0  0  0  0  0  0  0  0  0  0
  -31.8960  -20.2310   19.9320 H   0  0  0  0  0  0  0  0  0  0  0  0
  -32.7940  -18.6240   19.0890 C   0  0  0  0  0  2  0  0  0  0  0  0
  -31.8360  -17.8020   20.0110 C   0  0  0  0  0  2  0  0  0  0  0  0
  -31.4320  -16.3670   19.5620 C   0  0  0  0  0  2  0  0  0  0  0  0
  -30.2340  -15.7690   20.3760 C   0  0  0  0  0  2  0  0  0  0  0  0
  -28.7600  -16.0300   19.9190 C   0  0  0  0  0  2  0  0  0  0  0  0
  -28.4950  -18.4780   19.4040 C   0  0  0  0  0  0  0  0  0  0  0  0
  -27.3710  -19.2640   17.4030 C   0  0  0  0  0  2  0  0  0  0  0  0
  -27.7410  -20.6880   16.9690 C   0  0  0  0  0  2  0  0  0  0  0  0
  -26.7720  -21.6990   17.5890 C   0  0  0  0  0  2  0  0  0  0  0  0
  -26.6430  -21.5290   19.1230 C   0  0  0  0  0  3  0  0  0  0  0  0
  -26.4740  -20.0290   19.5600 C   0  0  0  0  0  2  0  0  0  0  0  0
  -27.4440  -19.1510   18.8660 N   0  0  0  0  0  0  0  0  0  0  0  0
  -29.6240  -18.5090   18.9280 O   0  0  0  0  0  0  0  0  0  0  0  0
  -28.1550  -17.3840   20.1070 N   0  0  0  0  0  0  0  0  0  0  0  0
  -27.2040  -17.3880   20.4470 H   0  0  0  0  0  0  0  0  0  0  0  0
  -25.6190  -23.2500   20.7580 C   0  0  0  0  0  0  0  0  0  0  0  0
  -24.4440  -23.9580   20.7410 C   0  0  0  0  0  0  0  0  0  0  0  0
  -23.7490  -23.5460   19.5660 C   0  0  0  0  0  0  0  0  0  0  0  0
  -25.5950  -22.4330   19.6370 N   0  0  0  0  0  0  0  0  0  0  0  0
  -24.4360  -22.5900   18.9390 N   0  0  0  0  0  0  0  0  0  0  0  0
  -22.4920  -24.0390   18.9750 C   0  0  0  0  0  0  0  0  0  0  0  0
  -21.3890  -23.1840   18.7630 C   0  0  0  0  0  3  0  0  0  0  0  0
  -20.1850  -23.6840   18.2170 C   0  0  0  0  0  3  0  0  0  0  0  0
  -20.0740  -25.0500   17.8740 C   0  0  0  0  0  0  0  0  0  0  0  0
  -21.1770  -25.8970   18.0700 C   0  0  0  0  0  3  0  0  0  0  0  0
  -22.3780  -25.3980   18.6100 C   0  0  0  0  0  3  0  0  0  0  0  0
  -18.9530  -25.6150   17.3130 O   0  0  0  0  0  0  0  0  0  0  0  0
  -17.6970  -25.1540   17.6060 C   0  0  0  0  0  0  0  0  0  0  0  0
  -17.2130  -25.1040   18.9310 C   0  0  0  0  0  3  0  0  0  0  0  0
  -15.8870  -24.6970   19.1830 C   0  0  0  0  0  3  0  0  0  0  0  0
  -15.0400  -24.3450   18.1130 C   0  0  0  0  0  0  0  0  0  0  0  0
  -15.5180  -24.4060   16.7910 C   0  0  0  0  0  3  0  0  0  0  0  0
  -16.8380  -24.8130   16.5390 C   0  0  0  0  0  0  0  0  0  0  0  0
  -17.2850  -24.8820   15.2610 F   0  0  0  0  0  0  0  0  0  0  0  0
  -13.7650  -23.9700   18.3580 F   0  0  0  0  0  0  0  0  0  0  0  0
  -24.0280  -25.0220   21.7200 C   0  0  0  0  0  0  0  0  0  0  0  0
  -22.7340  -25.1260   21.9960 N   0  0  0  0  0  0  0  0  0  0  0  0
  -24.8540  -25.7290   22.2910 O   0  0  0  0  0  0  0  0  0  0  0  0
  -22.0530  -24.5360   21.5450 H   0  0  0  0  0  0  0  0  0  0  0  0
  -22.4290  -25.8150   22.6710 H   0  0  0  0  0  0  0  0  0  0  0  0
  -26.7110  -23.2540   21.6170 N   0  0  0  0  0  0  0  0  0  0  0  0
  -26.7800  -23.8730   22.4120 H   0  0  0  0  0  0  0  0  0  0  0  0
  -27.5450  -22.6970   21.4750 H   0  0  0  0  0  0  0  0  0  0  0  0
  1  2  1  0
  3  4  1  0
  3  6  2  0
  4  1  2  0
  5  2  2  0
  5  9  1  0
  6  5  1  0
  7  6  1  0
  9  8  1  0
 10  9  1  0
 11 13  1  0
 11 10  1  0
 12 23  2  0
 13 18  1  0
 14 22  1  0
 14 24  1  0
 15 21  1  0
 15 17  1  0
 16 22  1  0
 17 16  1  0
 18 17  2  0
 19 20  1  0
 19 13  2  0
 20 15  2  0
 21 14  1  0
 22 12  1  0
 24 26  2  0
 25 24  1  0
 27 25  1  0
 28 37  2  0
 28 33  1  0
 29 25  1  0
 29 33  1  0
 30 29  1  0
 31 32  1  0
 31 30  1  0
 32 28  1  0
 33 34  2  0
 34 35  1  0
 36 35  2  0
 37 36  1  0
 38 12  1  0
 38 43  1  0
 38 39  1  0
 39 42  1  1
 39 40  1  0
 41 39  1  0
 43 46  1  0
 44 48  1  0
 44 43  1  0
 45 44  2  0
 48 47  1  0
 50 48  1  0
 50 51  1  0
 50 49  1  0
 53 52  1  0
 53  4  1  0
 53 54  1  0
 54 56  1  0
 54 55  1  0
 57 54  1  0
 57 58  1  0
 59 58  1  0
 59 60  1  0
 61 70  1  0
 61 60  1  0
 62 70  1  0
 63 68  1  0
 64 63  1  0
 64 65  1  0
 66 65  1  0
 66 67  1  0
 66 75  1  0
 68 62  1  0
 68 67  1  0
 69 62  2  0
 70 71  1  0
 72 97  1  0
 73 72  2  0
 73 92  1  0
 74 73  1  0
 75 72  1  0
 76 74  2  0
 76 75  1  0
 77 74  1  0
 78 77  1  0
 79 78  2  0
 80 81  2  0
 80 79  1  0
 81 82  1  0
 82 77  2  0
 83 84  1  0
 83 80  1  0
 84 85  1  0
 85 86  2  0
 87 91  1  0
 87 86  1  0
 88 87  2  0
 89 88  1  0
 89 84  2  0
 90 89  1  0
 92 93  1  0
 92 94  2  0
 93 96  1  0
 95 93  1  0
 97 98  1  0
 99 97  1  0
M  ISO  4  10 101  11 101  62 100  70 100
M  END
>  <TORSDO>  (10) 
F 25

>  <SCORE>  (10) 
-7.755

>  <name>  (10) 
9

>  <ligand_id>  (10) 
9

>  <original_smiles>  (10) 
[H]c1c([H])c([H])c2c(c1[H])C([H])([H])C([H])([H])C([H])([H])C2([H])N([H])C(=O)C1([H])N(C(=O)C([H])(N([H])C(=O)C([H])(N([H])C([H])([H])[H])C([H])([H])[H])C(C([H])([H])[H])(C([H])([H])[H])C([H])([H])[H])C([H])([H])c2c([H])c(OC([H])([H])C([H])(c3c([H])c([H])c(C([H])(C([H])([H])[H])[N+]([H])([H])C([H])([H])C([H])([H])C([H])([H])C([H])([H])C([H])([H])N([H])C(=O)N4C([H])([H])C([H])([H])C([H])([H])C([H])(n5nc(-c6c([H])c([H])c(Oc7c([H])c([H])c(F)c([H])c7F)c([H])c6[H])c(C(=O)N([H])[H])c5N([H])[H])C4([H])[H])c([H])c3C([H])([H])[H])C([H])([H])[H])c([H])c([H])c2C1([H])[H]

>  <smiles>  (10) 
[H]c1c([H])c([H])c2c(c1[H])C([H])([H])C([H])([H])C([H])([H])C2([H])N([H])C(=O)C1([H])N(C(=O)C([H])(N([H])C(=O)C([H])(N([H])C([H])([H])[H])C([H])([H])[H])C(C([H])([H])[H])(C([H])([H])[H])C([H])([H])[H])C([H])([H])c2c([H])c(OC([H])([H])C([H])(c3c([H])c([H])c(C([H])(C([H])([H])[H])[N+]([H])([H])C([H])([H])C([H])([H])C([H])([H])C([H])([H])C([H])([H])N([H])C(=O)N4C([H])([H])C([H])([H])C([H])([H])C([H])(n5nc(-c6c([H])c([H])c(Oc7c([H])c([H])c(F)c([H])c7F)c([H])c6[H])c(C(=O)N([H])[H])c5N([H])[H])C4([H])[H])c([H])c3C([H])([H])[H])C([H])([H])[H])c([H])c([H])c2C1([H])[H]

$$$$
10:0:0
     RDKit          3D

 94101  0  0  1  0  0  0  0  0999 V2000
  -27.8230  -21.7550   17.2820 C   0  0  0  0  0  0  0  0  0  0  0  0
  -28.1030  -21.6670   15.7950 C   0  0  0  0  0  1  0  0  0  0  0  0
  -27.7680  -20.6830   17.9720 N   0  0  0  0  0  0  0  0  0  0  0  0
  -27.6520  -23.1810   17.8100 C   0  0  0  0  0  2  0  0  0  0  0  0
  -29.0090  -23.8760   18.0260 C   0  0  0  0  0  2  0  0  0  0  0  0
  -28.9000  -25.3020   18.6000 C   0  0  0  0  0  3  0  0  0  0  0  0
  -30.1710  -25.9080   18.4490 O   0  0  0  0  0  0  0  0  0  0  0  0
  -30.1370  -26.7310   18.9330 H   0  0  0  0  0  0  0  0  0  0  0  0
  -28.5790  -25.3160   20.1080 C   0  0  0  0  0  2  0  0  0  0  0  0
  -28.4610  -26.6550   20.5880 O   0  0  0  0  0  0  0  0  0  0  0  0
  -24.5490  -31.8480   23.4130 C   0  0  0  0  0  0  0  0  0  0  0  0
  -27.2550  -27.3200   20.5210 C   0  0  0  0  0  0  0  0  0  0  0  0
  -23.3790  -30.4110   21.7740 C   0  0  0  0  0  3  0  0  0  0  0  0
  -24.8590  -28.8230   20.4370 C   0  0  0  0  0  0  0  0  0  0  0  0
  -25.9120  -30.7480   21.6420 C   0  0  0  0  0  2  0  0  0  0  0  0
  -26.0020  -29.3610   21.0410 C   0  0  0  0  0  0  0  0  0  0  0  0
  -27.1980  -28.6140   21.0820 C   0  0  0  0  0  3  0  0  0  0  0  0
  -26.0890  -26.7860   19.9230 C   0  0  0  0  0  3  0  0  0  0  0  0
  -24.8960  -27.5330   19.8810 C   0  0  0  0  0  3  0  0  0  0  0  0
  -23.6210  -29.6880   20.4220 C   0  0  0  0  0  2  0  0  0  0  0  0
  -24.6300  -31.0190   22.3350 N   0  0  0  0  0  0  0  0  0  0  0  0
  -23.4550  -32.1440   23.9130 O   0  0  0  0  0  0  0  0  0  0  0  0
  -22.6930  -29.4220   22.7430 C   0  0  0  0  0  0  0  0  0  0  0  0
  -21.3730  -29.2420   22.5750 N   0  0  0  0  0  0  0  0  0  0  0  0
  -23.3460  -28.8160   23.5960 O   0  0  0  0  0  0  0  0  0  0  0  0
  -20.9070  -29.7790   21.8570 H   0  0  0  0  0  0  0  0  0  0  0  0
  -17.9740  -28.0980   23.0030 C   0  0  0  0  0  0  0  0  0  0  0  0
  -20.5250  -28.3320   23.3440 C   0  0  0  0  0  3  0  0  0  0  0  0
  -20.6260  -26.8870   22.8050 C   0  0  0  0  0  2  0  0  0  0  0  0
  -19.5500  -26.5540   21.7660 C   0  0  0  0  0  2  0  0  0  0  0  0
  -18.1520  -26.7310   22.3650 C   0  0  0  0  0  2  0  0  0  0  0  0
  -19.0890  -28.8570   23.4470 C   0  0  0  0  0  0  0  0  0  0  0  0
  -18.8690  -30.1380   23.9990 C   0  0  0  0  0  3  0  0  0  0  0  0
  -17.5660  -30.6580   24.1130 C   0  0  0  0  0  3  0  0  0  0  0  0
  -16.4660  -29.8960   23.6860 C   0  0  0  0  0  3  0  0  0  0  0  0
  -16.6700  -28.6180   23.1370 C   0  0  0  0  0  3  0  0  0  0  0  0
  -25.8230  -32.4850   24.0540 C   0  0  0  0  0  3  0  0  0  0  0  0
  -26.2780  -31.7610   25.3810 C   0  0  1  0  0  0  0  0  0  0  0  0
  -25.1400  -31.5810   26.4130 C   0  0  0  0  0  1  0  0  0  0  0  0
  -26.8580  -30.3610   25.0690 C   0  0  0  0  0  1  0  0  0  0  0  0
  -27.4130  -32.5700   26.0550 C   0  0  0  0  0  1  0  0  0  0  0  0
  -25.5270  -33.9000   24.3070 N   0  0  0  0  0  0  0  0  0  0  0  0
  -25.9100  -34.9100   23.5130 C   0  0  0  0  0  0  0  0  0  0  0  0
  -26.6170  -34.7470   22.5150 O   0  0  0  0  0  0  0  0  0  0  0  0
  -24.9040  -34.1030   25.0740 H   0  0  0  0  0  0  0  0  0  0  0  0
  -24.2330  -36.7130   23.0020 C   0  0  0  0  0  1  0  0  0  0  0  0
  -25.4310  -36.3260   23.8850 C   0  0  0  0  0  3  0  0  0  0  0  0
  -27.5420  -37.2140   24.7690 C   0  0  0  0  0  1  0  0  0  0  0  0
  -26.4880  -37.3560   23.7690 N   0  0  0  0  0  0  0  0  0  0  0  0
  -26.0940  -38.2890   23.8530 H   0  0  0  0  0  0  0  0  0  0  0  0
  -27.4900  -20.7370   19.3970 C   0  0  0  0  0  2  0  0  0  0  0  0
  -27.7450  -19.3670   20.0480 C   0  0  0  0  0  2  0  0  0  0  0  0
  -29.2280  -18.9570   20.0420 C   0  0  0  0  0  2  0  0  0  0  0  0
  -29.4920  -17.6440   20.7970 C   0  0  0  0  0  2  0  0  0  0  0  0
  -30.9910  -17.3100   20.8630 C   0  0  0  0  0  2  0  0  0  0  0  0
  -31.3250  -16.0670   21.7090 C   0  0  0  0  0  2  0  0  0  0  0  0
  -31.0410  -14.0770   20.2350 C   0  0  0  0  0  0  0  0  0  0  0  0
  -30.5450  -12.0510   18.9160 C   0  0  0  0  0  2  0  0  0  0  0  0
  -29.5850  -12.3640   17.7530 C   0  0  0  0  0  2  0  0  0  0  0  0
  -28.1190  -12.2870   18.2170 C   0  0  0  0  0  2  0  0  0  0  0  0
  -27.8630  -13.0900   19.5190 C   0  0  0  0  0  3  0  0  0  0  0  0
  -28.9240  -12.7490   20.5890 C   0  0  0  0  0  2  0  0  0  0  0  0
  -30.2610  -12.9880   20.0120 N   0  0  0  0  0  0  0  0  0  0  0  0
  -32.0600  -14.3270   19.5850 O   0  0  0  0  0  0  0  0  0  0  0  0
  -30.6420  -14.8630   21.2400 N   0  0  0  0  0  0  0  0  0  0  0  0
  -29.8130  -14.5750   21.7400 H   0  0  0  0  0  0  0  0  0  0  0  0
  -25.4920  -13.7970   20.2390 C   0  0  0  0  0  0  0  0  0  0  0  0
  -24.4040  -13.0690   20.6410 C   0  0  0  0  0  0  0  0  0  0  0  0
  -24.8190  -11.7020   20.6350 C   0  0  0  0  0  0  0  0  0  0  0  0
  -26.5050  -12.8760   20.0180 N   0  0  0  0  0  0  0  0  0  0  0  0
  -26.1020  -11.6130   20.3110 N   0  0  0  0  0  0  0  0  0  0  0  0
  -24.0550  -10.4690   20.8660 C   0  0  0  0  0  0  0  0  0  0  0  0
  -24.4340   -9.5400   21.8590 C   0  0  0  0  0  3  0  0  0  0  0  0
  -23.6730   -8.3710   22.0740 C   0  0  0  0  0  3  0  0  0  0  0  0
  -22.5180   -8.1230   21.2940 C   0  0  0  0  0  0  0  0  0  0  0  0
  -22.1580   -9.0410   20.2920 C   0  0  0  0  0  3  0  0  0  0  0  0
  -22.9200  -10.2020   20.0760 C   0  0  0  0  0  3  0  0  0  0  0  0
  -21.7320   -7.0020   21.4150 O   0  0  0  0  0  0  0  0  0  0  0  0
  -21.5970   -6.3430   22.6100 C   0  0  0  0  0  0  0  0  0  0  0  0
  -21.0830   -6.9820   23.7600 C   0  0  0  0  0  3  0  0  0  0  0  0
  -20.8960   -6.2490   24.9490 C   0  0  0  0  0  3  0  0  0  0  0  0
  -21.2110   -4.8780   24.9880 C   0  0  0  0  0  0  0  0  0  0  0  0
  -21.7180   -4.2380   23.8420 C   0  0  0  0  0  3  0  0  0  0  0  0
  -21.9070   -4.9690   22.6560 C   0  0  0  0  0  0  0  0  0  0  0  0
  -22.3750   -4.3430   21.5490 F   0  0  0  0  0  0  0  0  0  0  0  0
  -21.0250   -4.1710   26.1270 F   0  0  0  0  0  0  0  0  0  0  0  0
  -23.0280  -13.5990   20.9220 C   0  0  0  0  0  0  0  0  0  0  0  0
  -22.2900  -12.9440   21.8120 N   0  0  0  0  0  0  0  0  0  0  0  0
  -22.6160  -14.6280   20.3880 O   0  0  0  0  0  0  0  0  0  0  0  0
  -22.6350  -12.1110   22.2650 H   0  0  0  0  0  0  0  0  0  0  0  0
  -21.3660  -13.2810   22.0440 H   0  0  0  0  0  0  0  0  0  0  0  0
  -25.7010  -15.1560   20.0270 N   0  0  0  0  0  0  0  0  0  0  0  0
  -24.9600  -15.8420   20.1320 H   0  0  0  0  0  0  0  0  0  0  0  0
  -26.5680  -15.5570   19.6930 H   0  0  0  0  0  0  0  0  0  0  0  0
  1  4  1  0
  1  3  2  0
  2  1  1  0
  3 51  1  0
  4  5  1  0
  6  5  1  0
  6  9  1  0
  7  6  1  0
  7  8  1  0
  9 10  1  0
 11 22  2  0
 12 10  1  0
 12 17  1  0
 13 21  1  0
 13 23  1  0
 14 16  1  0
 15 21  1  0
 16 17  2  0
 16 15  1  0
 18 12  2  0
 19 18  1  0
 19 14  2  0
 20 14  1  0
 20 13  1  0
 21 11  1  0
 23 25  2  0
 24 23  1  0
 26 24  1  0
 27 36  2  0
 27 32  1  0
 28 24  1  0
 28 32  1  0
 29 28  1  0
 30 31  1  0
 30 29  1  0
 31 27  1  0
 32 33  2  0
 33 34  1  0
 35 34  2  0
 36 35  1  0
 37 11  1  0
 37 42  1  0
 37 38  1  0
 38 41  1  1
 38 39  1  0
 40 38  1  0
 42 45  1  0
 43 47  1  0
 43 42  1  0
 44 43  2  0
 47 46  1  0
 49 50  1  0
 49 47  1  0
 49 48  1  0
 51 52  1  0
 53 52  1  0
 53 54  1  0
 54 55  1  0
 55 56  1  0
 57 65  1  0
 58 63  1  0
 59 60  1  0
 59 58  1  0
 61 60  1  0
 61 70  1  0
 61 62  1  0
 63 57  1  0
 63 62  1  0
 64 57  2  0
 65 56  1  0
 65 66  1  0
 67 68  2  0
 68 87  1  0
 69 68  1  0
 69 72  1  0
 70 67  1  0
 70 71  1  0
 71 69  2  0
 72 73  1  0
 73 74  2  0
 75 78  1  0
 75 74  1  0
 76 75  2  0
 77 76  1  0
 77 72  2  0
 78 79  1  0
 79 84  2  0
 79 80  1  0
 80 81  2  0
 81 82  1  0
 82 86  1  0
 83 82  2  0
 84 83  1  0
 85 84  1  0
 87 88  1  0
 88 91  1  0
 88 90  1  0
 89 87  2  0
 92 93  1  0
 92 67  1  0
 94 92  1  0
M  ISO  4   9 101  10 101  57 100  65 100
M  END
>  <TORSDO>  (11) 
F 27

>  <SCORE>  (11) 
-9.321

>  <name>  (11) 
10

>  <ligand_id>  (11) 
10

>  <original_smiles>  (11) 
[H]OC([H])(C([H])([H])Oc1c([H])c([H])c2c(c1[H])C([H])([H])N(C(=O)C([H])(N([H])C(=O)C([H])(N([H])C([H])([H])[H])C([H])([H])[H])C(C([H])([H])[H])(C([H])([H])[H])C([H])([H])[H])C([H])(C(=O)N([H])C1([H])c3c([H])c([H])c([H])c([H])c3C([H])([H])C([H])([H])C1([H])[H])C2([H])[H])C([H])([H])C([H])([H])C(=NC([H])([H])C([H])([H])C([H])([H])C([H])([H])C([H])([H])C([H])([H])N([H])C(=O)N1C([H])([H])C([H])([H])C([H])([H])C([H])(n2nc(-c3c([H])c([H])c(Oc4c([H])c([H])c(F)c([H])c4F)c([H])c3[H])c(C(=O)N([H])[H])c2N([H])[H])C1([H])[H])C([H])([H])[H]

>  <smiles>  (11) 
[H]OC([H])(C([H])([H])Oc1c([H])c([H])c2c(c1[H])C([H])([H])N(C(=O)C([H])(N([H])C(=O)C([H])(N([H])C([H])([H])[H])C([H])([H])[H])C(C([H])([H])[H])(C([H])([H])[H])C([H])([H])[H])C([H])(C(=O)N([H])C1([H])c3c([H])c([H])c([H])c([H])c3C([H])([H])C([H])([H])C1([H])[H])C2([H])[H])C([H])([H])C([H])([H])C(=NC([H])([H])C([H])([H])C([H])([H])C([H])([H])C([H])([H])C([H])([H])N([H])C(=O)N1C([H])([H])C([H])([H])C([H])([H])C([H])(n2nc(-c3c([H])c([H])c(Oc4c([H])c([H])c(F)c([H])c4F)c([H])c3[H])c(C(=O)N([H])[H])c2N([H])[H])C1([H])[H])C([H])([H])[H]

$$$$
12:0:0
     RDKit          3D

 90 97  0  0  1  0  0  0  0  0999 V2000
  -29.0750  -22.9540   20.2310 N   0  0  0  0  0  4  0  0  0  0  0  0
  -28.9490  -22.7650   19.2480 H   0  0  0  0  0  0  0  0  0  0  0  0
  -28.1860  -22.7850   20.6760 H   0  0  0  0  0  0  0  0  0  0  0  0
  -30.3710  -22.1790   22.2460 C   0  0  0  0  0  1  0  0  0  0  0  0
  -30.0380  -21.9410   20.7560 C   0  0  0  0  0  3  0  0  0  0  0  0
  -29.4750  -20.5020   20.5100 C   0  0  0  0  0  2  0  0  0  0  0  0
  -30.3580  -19.3200   20.9930 C   0  0  0  0  0  2  0  0  0  0  0  0
  -29.7530  -17.9130   20.7540 C   0  0  0  0  0  2  0  0  0  0  0  0
  -30.6160  -16.7870   21.3750 C   0  0  0  0  0  2  0  0  0  0  0  0
  -30.6920  -14.4430   20.4780 C   0  0  0  0  0  0  0  0  0  0  0  0
  -30.3470  -12.2980   19.3110 C   0  0  0  0  0  2  0  0  0  0  0  0
  -29.4100  -12.5110   18.1060 C   0  0  0  0  0  2  0  0  0  0  0  0
  -27.9340  -12.3930   18.5310 C   0  0  0  0  0  2  0  0  0  0  0  0
  -27.6050  -13.2360   19.7920 C   0  0  0  0  0  3  0  0  0  0  0  0
  -28.6570  -13.0070   20.9030 C   0  0  0  0  0  2  0  0  0  0  0  0
  -29.9870  -13.2880   20.3370 N   0  0  0  0  0  0  0  0  0  0  0  0
  -31.7940  -14.6200   19.9510 O   0  0  0  0  0  0  0  0  0  0  0  0
  -30.0770  -15.4360   21.1460 N   0  0  0  0  0  0  0  0  0  0  0  0
  -29.1720  -15.2220   21.5410 H   0  0  0  0  0  0  0  0  0  0  0  0
  -25.2100  -13.8690   20.4890 C   0  0  0  0  0  0  0  0  0  0  0  0
  -24.1320  -13.1080   20.8600 C   0  0  0  0  0  0  0  0  0  0  0  0
  -24.5820  -11.7530   20.8410 C   0  0  0  0  0  0  0  0  0  0  0  0
  -26.2480  -12.9760   20.2690 N   0  0  0  0  0  0  0  0  0  0  0  0
  -25.8730  -11.7000   20.5370 N   0  0  0  0  0  0  0  0  0  0  0  0
  -23.8430  -10.4980   21.0380 C   0  0  0  0  0  0  0  0  0  0  0  0
  -24.2730   -9.5260   21.9660 C   0  0  0  0  0  3  0  0  0  0  0  0
  -23.5360   -8.3360   22.1510 C   0  0  0  0  0  3  0  0  0  0  0  0
  -22.3550   -8.1100   21.4060 C   0  0  0  0  0  0  0  0  0  0  0  0
  -21.9440   -9.0710   20.4650 C   0  0  0  0  0  3  0  0  0  0  0  0
  -22.6820  -10.2520   20.2790 C   0  0  0  0  0  3  0  0  0  0  0  0
  -21.5880   -6.9730   21.5010 O   0  0  0  0  0  0  0  0  0  0  0  0
  -21.5490   -6.2250   22.6500 C   0  0  0  0  0  0  0  0  0  0  0  0
  -21.1550   -6.7800   23.8880 C   0  0  0  0  0  3  0  0  0  0  0  0
  -21.0610   -5.9590   25.0280 C   0  0  0  0  0  3  0  0  0  0  0  0
  -21.3510   -4.5840   24.9350 C   0  0  0  0  0  0  0  0  0  0  0  0
  -21.7390   -4.0300   23.7020 C   0  0  0  0  0  3  0  0  0  0  0  0
  -21.8350   -4.8480   22.5630 C   0  0  0  0  0  0  0  0  0  0  0  0
  -22.1870   -4.3040   21.3730 F   0  0  0  0  0  0  0  0  0  0  0  0
  -21.2540   -3.7940   26.0280 F   0  0  0  0  0  0  0  0  0  0  0  0
  -22.7380  -13.6000   21.1240 C   0  0  0  0  0  0  0  0  0  0  0  0
  -22.0020  -12.9190   21.9950 N   0  0  0  0  0  0  0  0  0  0  0  0
  -22.3090  -14.6230   20.5920 O   0  0  0  0  0  0  0  0  0  0  0  0
  -22.3620  -12.0930   22.4500 H   0  0  0  0  0  0  0  0  0  0  0  0
  -21.0670  -13.2300   22.2140 H   0  0  0  0  0  0  0  0  0  0  0  0
  -25.3870  -15.2370   20.3030 N   0  0  0  0  0  0  0  0  0  0  0  0
  -24.6280  -15.9000   20.4030 H   0  0  0  0  0  0  0  0  0  0  0  0
  -26.2460  -15.6630   19.9770 H   0  0  0  0  0  0  0  0  0  0  0  0
  -29.4080  -24.4050   20.3780 C   0  0  0  0  0  2  0  0  0  0  0  0
  -28.2680  -25.2900   19.8260 C   0  0  0  0  0  2  0  0  0  0  0  0
  -28.3750  -26.6860   20.1730 O   0  0  0  0  0  0  0  0  0  0  0  0
  -24.5790  -31.8770   23.2670 C   0  0  0  0  0  0  0  0  0  0  0  0
  -27.2040  -27.4290   20.1510 C   0  0  0  0  0  0  0  0  0  0  0  0
  -23.3660  -30.4840   21.6260 C   0  0  0  0  0  3  0  0  0  0  0  0
  -24.8110  -28.9530   20.1890 C   0  0  0  0  0  0  0  0  0  0  0  0
  -25.8950  -30.8330   21.4240 C   0  0  0  0  0  2  0  0  0  0  0  0
  -25.9750  -29.4650   20.7760 C   0  0  0  0  0  0  0  0  0  0  0  0
  -27.1730  -28.7090   20.7560 C   0  0  0  0  0  3  0  0  0  0  0  0
  -26.0160  -26.9480   19.5450 C   0  0  0  0  0  3  0  0  0  0  0  0
  -24.8260  -27.6950   19.5730 C   0  0  0  0  0  3  0  0  0  0  0  0
  -23.5690  -29.8120   20.2430 C   0  0  0  0  0  2  0  0  0  0  0  0
  -24.6310  -31.0780   22.1640 N   0  0  0  0  0  0  0  0  0  0  0  0
  -23.4990  -32.1500   23.8090 O   0  0  0  0  0  0  0  0  0  0  0  0
  -22.7160  -29.4580   22.5820 C   0  0  0  0  0  0  0  0  0  0  0  0
  -21.3910  -29.2740   22.4530 N   0  0  0  0  0  0  0  0  0  0  0  0
  -23.4000  -28.8310   23.3960 O   0  0  0  0  0  0  0  0  0  0  0  0
  -20.9010  -29.8310   21.7680 H   0  0  0  0  0  0  0  0  0  0  0  0
  -18.0200  -28.0710   22.9390 C   0  0  0  0  0  0  0  0  0  0  0  0
  -20.5750  -28.3340   23.2220 C   0  0  0  0  0  3  0  0  0  0  0  0
  -20.6840  -26.9030   22.6460 C   0  0  0  0  0  2  0  0  0  0  0  0
  -19.5860  -26.5770   21.6290 C   0  0  0  0  0  2  0  0  0  0  0  0
  -18.2020  -26.7210   22.2670 C   0  0  0  0  0  2  0  0  0  0  0  0
  -19.1350  -28.8360   23.3730 C   0  0  0  0  0  0  0  0  0  0  0  0
  -18.9120  -30.0990   23.9600 C   0  0  0  0  0  3  0  0  0  0  0  0
  -17.6050  -30.6000   24.1200 C   0  0  0  0  0  3  0  0  0  0  0  0
  -16.5040  -29.8320   23.7030 C   0  0  0  0  0  3  0  0  0  0  0  0
  -16.7120  -28.5700   23.1190 C   0  0  0  0  0  3  0  0  0  0  0  0
  -25.8670  -32.5050   23.8840 C   0  0  0  0  0  3  0  0  0  0  0  0
  -26.3890  -31.7280   25.1550 C   0  0  1  0  0  0  0  0  0  0  0  0
  -25.3000  -31.4890   26.2250 C   0  0  0  0  0  1  0  0  0  0  0  0
  -26.9680  -30.3510   24.7540 C   0  0  0  0  0  1  0  0  0  0  0  0
  -27.5430  -32.5180   25.8140 C   0  0  0  0  0  1  0  0  0  0  0  0
  -25.5620  -33.9020   24.2160 N   0  0  0  0  0  0  0  0  0  0  0  0
  -25.8800  -34.9530   23.4490 C   0  0  0  0  0  0  0  0  0  0  0  0
  -26.5330  -34.8490   22.4080 O   0  0  0  0  0  0  0  0  0  0  0  0
  -24.9820  -34.0580   25.0270 H   0  0  0  0  0  0  0  0  0  0  0  0
  -24.1340  -36.7350   23.1270 C   0  0  0  0  0  1  0  0  0  0  0  0
  -25.3960  -36.3420   23.9120 C   0  0  0  0  0  3  0  0  0  0  0  0
  -27.5450  -37.2380   24.6890 C   0  0  0  0  0  1  0  0  0  0  0  0
  -26.4210  -37.3990   23.7720 N   0  0  0  0  0  0  0  0  0  0  0  0
  -26.0130  -38.3170   23.9260 H   0  0  0  0  0  0  0  0  0  0  0  0
  1 48  1  0
  1  3  1  0
  1  5  1  0
  2  1  1  0
  5  4  1  0
  6  5  1  0
  6  7  1  0
  8  7  1  0
  8  9  1  0
 10 18  1  0
 11 16  1  0
 12 13  1  0
 12 11  1  0
 14 13  1  0
 14 23  1  0
 14 15  1  0
 16 10  1  0
 16 15  1  0
 17 10  2  0
 18  9  1  0
 18 19  1  0
 20 21  2  0
 21 40  1  0
 22 21  1  0
 22 25  1  0
 23 20  1  0
 23 24  1  0
 24 22  2  0
 25 26  1  0
 26 27  2  0
 28 31  1  0
 28 27  1  0
 29 28  2  0
 30 29  1  0
 30 25  2  0
 31 32  1  0
 32 33  1  0
 33 34  2  0
 35 34  1  0
 35 39  1  0
 36 35  2  0
 37 32  2  0
 37 36  1  0
 38 37  1  0
 40 41  1  0
 41 44  1  0
 41 43  1  0
 42 40  2  0
 45 46  1  0
 45 20  1  0
 47 45  1  0
 49 50  1  0
 49 48  1  0
 51 62  2  0
 52 50  1  0
 52 57  1  0
 53 61  1  0
 53 63  1  0
 54 60  1  0
 54 56  1  0
 55 61  1  0
 56 55  1  0
 57 56  2  0
 58 59  1  0
 58 52  2  0
 59 54  2  0
 60 53  1  0
 61 51  1  0
 63 65  2  0
 64 63  1  0
 66 64  1  0
 67 76  2  0
 67 72  1  0
 68 64  1  0
 68 72  1  0
 69 68  1  0
 70 71  1  0
 70 69  1  0
 71 67  1  0
 72 73  2  0
 73 74  1  0
 75 74  2  0
 76 75  1  0
 77 51  1  0
 77 82  1  0
 77 78  1  0
 78 81  1  1
 78 79  1  0
 80 78  1  0
 82 85  1  0
 83 87  1  0
 83 82  1  0
 84 83  2  0
 87 86  1  0
 89 87  1  0
 89 90  1  0
 89 88  1  0
M  ISO  4  10 100  18 100  49 101  50 101
M  END
>  <TORSDO>  (12) 
F 23

>  <SCORE>  (12) 
-12.754

>  <name>  (12) 
12

>  <ligand_id>  (12) 
12

>  <original_smiles>  (12) 
[H]c1c([H])c([H])c2c(c1[H])C([H])([H])C([H])([H])C([H])([H])C2([H])N([H])C(=O)C1([H])N(C(=O)C([H])(N([H])C(=O)C([H])(N([H])C([H])([H])[H])C([H])([H])[H])C(C([H])([H])[H])(C([H])([H])[H])C([H])([H])[H])C([H])([H])c2c([H])c(OC([H])([H])C([H])([H])[N+]([H])([H])C([H])(C([H])([H])[H])C([H])([H])C([H])([H])C([H])([H])C([H])([H])N([H])C(=O)N3C([H])([H])C([H])([H])C([H])([H])C([H])(n4nc(-c5c([H])c([H])c(Oc6c([H])c([H])c(F)c([H])c6F)c([H])c5[H])c(C(=O)N([H])[H])c4N([H])[H])C3([H])[H])c([H])c([H])c2C1([H])[H]

>  <smiles>  (12) 
[H]c1c([H])c([H])c2c(c1[H])C([H])([H])C([H])([H])C([H])([H])C2([H])N([H])C(=O)C1([H])N(C(=O)C([H])(N([H])C(=O)C([H])(N([H])C([H])([H])[H])C([H])([H])[H])C(C([H])([H])[H])(C([H])([H])[H])C([H])([H])[H])C([H])([H])c2c([H])c(OC([H])([H])C([H])([H])[N+]([H])([H])C([H])(C([H])([H])[H])C([H])([H])C([H])([H])C([H])([H])C([H])([H])N([H])C(=O)N3C([H])([H])C([H])([H])C([H])([H])C([H])(n4nc(-c5c([H])c([H])c(Oc6c([H])c([H])c(F)c([H])c6F)c([H])c5[H])c(C(=O)N([H])[H])c4N([H])[H])C3([H])[H])c([H])c([H])c2C1([H])[H]

$$$$
13:0:0
     RDKit          3D

 99104  0  0  1  0  0  0  0  0999 V2000
  -21.2720  -28.3820   24.6690 C   0  0  0  0  0  3  0  0  0  0  0  0
  -21.2770  -29.5130   23.3110 C   0  0  0  0  0  3  0  0  0  0  0  0
  -19.7990  -26.4720   23.3170 C   0  0  0  0  0  1  0  0  0  0  0  0
  -20.7150  -26.7540   24.6390 C   0  0  0  0  0  3  0  0  0  0  0  0
  -20.8720  -29.1080   21.6640 C   0  0  0  0  0  3  0  0  0  0  0  0
  -19.8690  -27.8400   21.5860 C   0  0  0  0  0  2  0  0  0  0  0  0
  -21.4710  -24.6910   26.2870 C   0  0  0  0  0  1  0  0  0  0  0  0
  -21.8470  -25.3210   24.9420 C   0  0  0  0  0  3  0  0  0  0  0  0
  -22.5020  -24.0490   23.9460 N   0  0  0  0  0  4  0  0  0  0  0  0
  -21.7430  -23.3870   23.8960 H   0  0  0  0  0  0  0  0  0  0  0  0
  -22.5380  -24.4510   23.0250 H   0  0  0  0  0  0  0  0  0  0  0  0
  -23.9080  -23.0380   23.9740 C   0  0  0  0  0  3  0  0  0  0  0  0
  -24.4980  -21.4950   23.0300 C   0  0  0  0  0  3  0  0  0  0  0  0
  -26.0720  -20.4450   22.8140 C   0  0  0  0  0  2  0  0  0  0  0  0
  -26.6350  -18.7490   22.1550 C   0  0  0  0  0  3  0  0  0  0  0  0
  -28.2410  -17.8300   21.7200 C   0  0  0  0  0  3  0  0  0  0  0  0
  -29.8620  -15.2780   20.8230 C   0  0  0  0  0  0  0  0  0  0  0  0
  -30.3970  -12.9380   19.6610 C   0  0  0  0  0  2  0  0  0  0  0  0
  -29.5570  -12.6710   18.3730 C   0  0  0  0  0  2  0  0  0  0  0  0
  -28.0930  -12.3220   18.7090 C   0  0  0  0  0  2  0  0  0  0  0  0
  -27.5690  -13.2190   19.8530 C   0  0  0  0  0  3  0  0  0  0  0  0
  -28.5020  -13.1880   21.0640 C   0  0  0  0  0  2  0  0  0  0  0  0
  -29.6640  -13.8910   20.5990 N   0  0  0  0  0  0  0  0  0  0  0  0
  -31.0350  -15.5790   20.4850 O   0  0  0  0  0  0  0  0  0  0  0  0
  -28.7270  -16.2060   21.3070 N   0  0  0  0  0  0  0  0  0  0  0  0
  -27.9350  -15.6020   21.4680 H   0  0  0  0  0  0  0  0  0  0  0  0
  -25.2140  -13.8110   20.5580 C   0  0  0  0  0  0  0  0  0  0  0  0
  -24.1520  -13.0360   20.9240 C   0  0  0  0  0  0  0  0  0  0  0  0
  -24.6110  -11.6840   20.8720 C   0  0  0  0  0  0  0  0  0  0  0  0
  -26.2330  -12.9200   20.2840 N   0  0  0  0  0  0  0  0  0  0  0  0
  -25.8920  -11.6380   20.5440 N   0  0  0  0  0  0  0  0  0  0  0  0
  -23.8880  -10.4250   21.0440 C   0  0  0  0  0  0  0  0  0  0  0  0
  -24.3520   -9.4190   21.9190 C   0  0  0  0  0  3  0  0  0  0  0  0
  -23.6240   -8.2210   22.0760 C   0  0  0  0  0  3  0  0  0  0  0  0
  -22.4220   -8.0230   21.3550 C   0  0  0  0  0  0  0  0  0  0  0  0
  -21.9800   -9.0190   20.4660 C   0  0  0  0  0  3  0  0  0  0  0  0
  -22.7080  -10.2080   20.3070 C   0  0  0  0  0  3  0  0  0  0  0  0
  -21.6600   -6.8830   21.4250 O   0  0  0  0  0  0  0  0  0  0  0  0
  -21.6830   -6.0700   22.5300 C   0  0  0  0  0  0  0  0  0  0  0  0
  -21.3990   -6.5620   23.8230 C   0  0  0  0  0  3  0  0  0  0  0  0
  -21.3650   -5.6780   24.9190 C   0  0  0  0  0  3  0  0  0  0  0  0
  -21.6040   -4.3040   24.7250 C   0  0  0  0  0  0  0  0  0  0  0  0
  -21.8820   -3.8130   23.4370 C   0  0  0  0  0  3  0  0  0  0  0  0
  -21.9190   -4.6940   22.3420 C   0  0  0  0  0  0  0  0  0  0  0  0
  -22.1660   -4.2130   21.1000 F   0  0  0  0  0  0  0  0  0  0  0  0
  -21.5640   -3.4520   25.7760 F   0  0  0  0  0  0  0  0  0  0  0  0
  -22.7610  -13.5200   21.1980 C   0  0  0  0  0  0  0  0  0  0  0  0
  -22.0240  -12.8250   22.0560 N   0  0  0  0  0  0  0  0  0  0  0  0
  -22.3350  -14.5500   20.6780 O   0  0  0  0  0  0  0  0  0  0  0  0
  -22.3800  -11.9920   22.5010 H   0  0  0  0  0  0  0  0  0  0  0  0
  -21.0870  -13.1360   22.2700 H   0  0  0  0  0  0  0  0  0  0  0  0
  -25.3880  -15.1870   20.4140 N   0  0  0  0  0  0  0  0  0  0  0  0
  -24.5910  -15.8090   20.5060 H   0  0  0  0  0  0  0  0  0  0  0  0
  -26.1640  -15.6310   19.9410 H   0  0  0  0  0  0  0  0  0  0  0  0
  -17.9740  -29.2260   20.2470 C   0  0  0  0  0  1  0  0  0  0  0  0
  -19.0640  -28.1240   20.2160 C   0  0  0  0  0  2  0  0  0  0  0  0
  -22.1080  -28.3980   20.4030 C   0  0  0  0  0  1  0  0  0  0  0  0
  -23.6860  -27.2030   20.3960 C   0  0  0  0  0  1  0  0  0  0  0  0
  -25.3670  -27.0360   20.8180 O   0  0  0  0  0  0  0  0  0  0  0  0
  -24.6880  -31.9650   23.2200 C   0  0  0  0  0  0  0  0  0  0  0  0
  -26.5580  -27.3780   20.1720 C   0  0  0  0  0  3  0  0  0  0  0  0
  -23.6600  -30.4290   21.6180 C   0  0  0  0  0  3  0  0  0  0  0  0
  -25.0930  -29.4880   19.7230 C   0  0  0  0  0  3  0  0  0  0  0  0
  -26.1370  -30.8780   21.5050 C   0  0  0  0  0  2  0  0  0  0  0  0
  -26.1390  -29.6370   20.6280 C   0  0  0  0  0  3  0  0  0  0  0  0
  -27.0550  -28.5810   20.7330 C   0  0  0  0  0  2  0  0  0  0  0  0
  -26.0930  -27.4270   18.8850 C   0  0  0  0  0  2  0  0  0  0  0  0
  -25.1740  -28.4850   18.7110 C   0  0  0  0  0  2  0  0  0  0  0  0
  -23.9340  -30.3750   20.0540 C   0  0  0  0  0  2  0  0  0  0  0  0
  -24.8140  -31.1950   22.1150 N   0  0  0  0  0  0  0  0  0  0  0  0
  -23.5840  -32.2090   23.7300 O   0  0  0  0  0  0  0  0  0  0  0  0
  -23.7500  -29.1350   22.5870 C   0  0  0  0  0  0  0  0  0  0  0  0
  -23.0960  -27.9620   22.7400 N   0  0  0  0  0  0  0  0  0  0  0  0
  -24.3260  -29.1510   23.6360 O   0  0  0  0  0  0  0  0  0  0  0  0
  -23.6140  -27.5410   23.4960 H   0  0  0  0  0  0  0  0  0  0  0  0
  -17.8280  -27.9060   22.9670 C   0  0  0  0  0  0  0  0  0  0  0  0
  -21.7480  -27.2750   22.6510 C   0  0  0  0  0  2  0  0  0  0  0  0
  -21.1930  -25.8380   21.5100 C   0  0  0  0  0  2  0  0  0  0  0  0
  -19.3440  -25.5100   21.1640 C   0  0  0  0  0  3  0  0  0  0  0  0
  -17.8190  -26.4370   21.9100 C   0  0  0  0  0  3  0  0  0  0  0  0
  -19.1530  -28.5950   23.5570 C   0  0  0  0  0  3  0  0  0  0  0  0
  -18.8370  -29.8800   24.1780 C   0  0  0  0  0  3  0  0  0  0  0  0
  -17.5710  -30.4880   24.1730 C   0  0  0  0  0  3  0  0  0  0  0  0
  -16.4570  -29.8370   23.6420 C   0  0  0  0  0  3  0  0  0  0  0  0
  -16.5850  -28.5540   23.0960 C   0  0  0  0  0  3  0  0  0  0  0  0
  -25.9610  -32.5380   23.8840 C   0  0  0  0  0  3  0  0  0  0  0  0
  -26.4730  -31.7030   25.1220 C   0  0  1  0  0  0  0  0  0  0  0  0
  -25.3620  -31.3820   26.1470 C   0  0  0  0  0  1  0  0  0  0  0  0
  -27.1490  -30.3720   24.7090 C   0  0  0  0  0  1  0  0  0  0  0  0
  -27.5810  -32.5030   25.8410 C   0  0  0  0  0  1  0  0  0  0  0  0
  -25.6290  -33.9090   24.2650 N   0  0  0  0  0  0  0  0  0  0  0  0
  -25.9130  -34.9780   23.5180 C   0  0  0  0  0  0  0  0  0  0  0  0
  -26.5540  -34.9120   22.4650 O   0  0  0  0  0  0  0  0  0  0  0  0
  -25.0500  -34.0310   25.0820 H   0  0  0  0  0  0  0  0  0  0  0  0
  -24.1490  -36.7450   23.2550 C   0  0  0  0  0  1  0  0  0  0  0  0
  -25.4120  -36.3380   24.0290 C   0  0  0  0  0  3  0  0  0  0  0  0
  -27.5610  -37.1910   24.8440 C   0  0  0  0  0  1  0  0  0  0  0  0
  -26.4320  -37.4030   23.9410 N   0  0  0  0  0  0  0  0  0  0  0  0
  -26.0250  -38.3110   24.1470 H   0  0  0  0  0  0  0  0  0  0  0  0
  2  1  2  0
  4  3  1  0
  4  1  1  0
  4  8  1  0
  5 57  1  0
  5  2  1  0
  6  5  1  0
  8  7  1  0
  9 12  1  0
  9  8  1  0
 10  9  1  0
 11  9  1  0
 13 12  2  0
 14 13  1  0
 15 14  1  0
 16 15  2  0
 17 25  1  0
 18 23  1  0
 19 20  1  0
 19 18  1  0
 21 20  1  0
 21 30  1  0
 21 22  1  0
 23 17  1  0
 23 22  1  0
 24 17  2  0
 25 26  1  0
 25 16  1  0
 27 28  2  0
 28 47  1  0
 29 28  1  0
 29 32  1  0
 30 31  1  0
 30 27  1  0
 31 29  2  0
 32 33  1  0
 33 34  2  0
 35 38  1  0
 35 34  1  0
 36 35  2  0
 37 36  1  0
 37 32  2  0
 38 39  1  0
 39 40  1  0
 40 41  2  0
 42 41  1  0
 42 46  1  0
 43 42  2  0
 44 39  2  0
 44 43  1  0
 45 44  1  0
 47 48  1  0
 48 51  1  0
 48 50  1  0
 49 47  2  0
 52 53  1  0
 52 27  1  0
 54 52  1  0
 56 55  1  0
 56  6  1  0
 58 59  1  0
 60 71  2  0
 61 66  1  0
 61 59  1  0
 62 70  1  0
 62 72  1  0
 63 68  1  0
 63 69  1  0
 63 65  1  0
 64 70  1  0
 65 66  1  0
 65 64  1  0
 67 61  1  0
 68 67  1  0
 69 62  1  0
 70 60  1  0
 72 73  1  0
 72 74  2  0
 73 75  1  0
 76 85  2  0
 76 81  1  0
 77 73  1  0
 78 77  1  0
 79 78  1  0
 79 80  2  0
 80 76  1  0
 81 82  2  0
 83 82  1  0
 84 83  2  0
 85 84  1  0
 86 60  1  0
 86 91  1  0
 86 87  1  0
 87 90  1  1
 87 88  1  0
 89 87  1  0
 91 94  1  0
 92 96  1  0
 92 91  1  0
 93 92  2  0
 96 95  1  0
 98 96  1  0
 98 99  1  0
 98 97  1  0
M  ISO  4  17 100  25 100  58 101  59 101
M  END
>  <TORSDO>  (13) 
F 26

>  <SCORE>  (13) 
43.255

>  <name>  (13) 
13

>  <ligand_id>  (13) 
13

>  <original_smiles>  (13) 
[H]c1c([H])c([H])c2c(c1[H])C([H])([H])C([H])([H])C([H])([H])C2([H])N([H])C(=O)C1([H])N(C(=O)C([H])(N([H])C(=O)C([H])(N([H])C([H])([H])[H])C([H])([H])[H])C(C([H])([H])[H])(C([H])([H])[H])C([H])([H])[H])C([H])([H])c2c([H])c(OC([H])([H])C([H])([H])c3c([H])c([H])c(C([H])(C([H])([H])[H])[N+]([H])([H])C([H])([H])C([H])([H])C([H])([H])C([H])([H])C([H])([H])N([H])C(=O)N4C([H])([H])C([H])([H])C([H])([H])C([H])(n5nc(-c6c([H])c([H])c(Oc7c([H])c([H])c(F)c([H])c7F)c([H])c6[H])c(C(=O)N([H])[H])c5N([H])[H])C4([H])[H])c([H])c3C([H])([H])C([H])([H])[H])c([H])c([H])c2C1([H])[H]

>  <smiles>  (13) 
[H]c1c([H])c([H])c2c(c1[H])C([H])([H])C([H])([H])C([H])([H])C2([H])N([H])C(=O)C1([H])N(C(=O)C([H])(N([H])C(=O)C([H])(N([H])C([H])([H])[H])C([H])([H])[H])C(C([H])([H])[H])(C([H])([H])[H])C([H])([H])[H])C([H])([H])c2c([H])c(OC([H])([H])C([H])([H])c3c([H])c([H])c(C([H])(C([H])([H])[H])[N+]([H])([H])C([H])([H])C([H])([H])C([H])([H])C([H])([H])C([H])([H])N([H])C(=O)N4C([H])([H])C([H])([H])C([H])([H])C([H])(n5nc(-c6c([H])c([H])c(Oc7c([H])c([H])c(F)c([H])c7F)c([H])c6[H])c(C(=O)N([H])[H])c5N([H])[H])C4([H])[H])c([H])c3C([H])([H])C([H])([H])[H])c([H])c([H])c2C1([H])[H]

$$$$
14:0:0
     RDKit          3D

 94102  0  0  1  0  0  0  0  0999 V2000
  -27.9740  -22.3740   22.7810 C   0  0  0  0  0  3  0  0  0  0  0  0
  -28.5700  -23.6570   22.8380 C   0  0  0  0  0  3  0  0  0  0  0  0
  -27.9140  -22.0040   21.4650 C   0  0  0  0  0  0  0  0  0  0  0  0
  -28.8990  -24.0230   21.5630 C   0  0  0  0  0  0  0  0  0  0  0  0
  -28.3890  -23.1660   19.2480 C   0  0  0  0  0  1  0  0  0  0  0  0
  -28.3830  -23.0660   20.7040 N   0  0  0  0  0  0  0  0  0  0  0  0
  -27.5060  -20.7020   20.8550 C   0  0  0  0  0  2  0  0  0  0  0  0
  -28.6240  -20.1400   19.9440 C   0  0  0  0  0  2  0  0  0  0  0  0
  -29.7740  -19.4730   20.7230 C   0  0  0  0  0  2  0  0  0  0  0  0
  -30.6930  -18.6000   19.8390 C   0  0  0  0  0  2  0  0  0  0  0  0
  -31.8720  -18.0200   20.6560 C   0  0  0  0  0  2  0  0  0  0  0  0
  -32.7590  -16.9580   19.9610 C   0  0  0  0  0  2  0  0  0  0  0  0
  -32.5850  -14.5640   19.2500 C   0  0  0  0  0  0  0  0  0  0  0  0
  -32.0860  -12.1770   18.8390 C   0  0  0  0  0  2  0  0  0  0  0  0
  -30.9660  -12.0010   17.7910 C   0  0  0  0  0  2  0  0  0  0  0  0
  -29.5620  -12.1530   18.4170 C   0  0  0  0  0  2  0  0  0  0  0  0
  -29.4410  -13.3960   19.3380 C   0  0  0  0  0  3  0  0  0  0  0  0
  -30.6220  -13.4290   20.3280 C   0  0  0  0  0  2  0  0  0  0  0  0
  -31.8620  -13.4520   19.5330 N   0  0  0  0  0  0  0  0  0  0  0  0
  -33.6120  -14.5540   18.5590 O   0  0  0  0  0  0  0  0  0  0  0  0
  -32.0730  -15.6890   19.7730 N   0  0  0  0  0  0  0  0  0  0  0  0
  -31.1590  -15.6060   20.1870 H   0  0  0  0  0  0  0  0  0  0  0  0
  -27.5060  -14.4960   20.6290 C   0  0  0  0  0  0  0  0  0  0  0  0
  -26.3000  -14.0120   21.0530 C   0  0  0  0  0  0  0  0  0  0  0  0
  -26.2670  -12.6360   20.6650 C   0  0  0  0  0  0  0  0  0  0  0  0
  -28.1510  -13.4290   20.0220 N   0  0  0  0  0  0  0  0  0  0  0  0
  -27.4150  -12.2920   20.0990 N   0  0  0  0  0  0  0  0  0  0  0  0
  -25.1910  -11.6400   20.7520 C   0  0  0  0  0  0  0  0  0  0  0  0
  -25.4060  -10.3690   21.3260 C   0  0  0  0  0  3  0  0  0  0  0  0
  -24.3530   -9.4350   21.4140 C   0  0  0  0  0  3  0  0  0  0  0  0
  -23.0670   -9.7670   20.9290 C   0  0  0  0  0  0  0  0  0  0  0  0
  -22.8610  -11.0270   20.3390 C   0  0  0  0  0  3  0  0  0  0  0  0
  -23.9120  -11.9570   20.2480 C   0  0  0  0  0  3  0  0  0  0  0  0
  -21.9920   -8.9120   20.9450 O   0  0  0  0  0  0  0  0  0  0  0  0
  -21.8430   -7.9650   21.9230 C   0  0  0  0  0  0  0  0  0  0  0  0
  -21.8400   -8.3050   23.2950 C   0  0  0  0  0  3  0  0  0  0  0  0
  -21.6150   -7.3080   24.2650 C   0  0  0  0  0  3  0  0  0  0  0  0
  -21.3840   -5.9770   23.8700 C   0  0  0  0  0  0  0  0  0  0  0  0
  -21.3840   -5.6380   22.5050 C   0  0  0  0  0  3  0  0  0  0  0  0
  -21.6090   -6.6300   21.5360 C   0  0  0  0  0  0  0  0  0  0  0  0
  -21.5850   -6.3030   20.2200 F   0  0  0  0  0  0  0  0  0  0  0  0
  -21.1600   -5.0210   24.8010 F   0  0  0  0  0  0  0  0  0  0  0  0
  -25.1940  -14.7980   21.6970 C   0  0  0  0  0  0  0  0  0  0  0  0
  -24.3920  -14.1550   22.5360 N   0  0  0  0  0  0  0  0  0  0  0  0
  -25.0680  -16.0060   21.4950 O   0  0  0  0  0  0  0  0  0  0  0  0
  -24.5010  -13.1690   22.7180 H   0  0  0  0  0  0  0  0  0  0  0  0
  -23.6580  -14.6660   23.0100 H   0  0  0  0  0  0  0  0  0  0  0  0
  -28.1010  -15.7530   20.6830 N   0  0  0  0  0  0  0  0  0  0  0  0
  -27.6370  -16.5600   21.0830 H   0  0  0  0  0  0  0  0  0  0  0  0
  -28.9970  -15.9750   20.2670 H   0  0  0  0  0  0  0  0  0  0  0  0
  -29.6720  -25.2000   21.0650 C   0  0  0  0  0  2  0  0  0  0  0  0
  -31.1180  -25.1880   21.5680 C   0  0  0  0  0  2  0  0  0  0  0  0
  -32.0250  -26.2640   20.9540 C   0  0  0  0  0  2  0  0  0  0  0  0
  -31.6060  -27.5750   21.3050 O   0  0  0  0  0  0  0  0  0  0  0  0
  -26.4650  -31.1500   24.5590 C   0  0  0  0  0  0  0  0  0  0  0  0
  -30.2910  -27.9740   21.1960 C   0  0  0  0  0  0  0  0  0  0  0  0
  -25.7640  -29.9450   22.5130 C   0  0  0  0  0  3  0  0  0  0  0  0
  -27.6520  -28.9920   21.0870 C   0  0  0  0  0  0  0  0  0  0  0  0
  -28.1740  -30.7460   22.8020 C   0  0  0  0  0  2  0  0  0  0  0  0
  -28.5960  -29.5830   21.9300 C   0  0  0  0  0  0  0  0  0  0  0  0
  -29.9090  -29.0800   21.9830 C   0  0  0  0  0  3  0  0  0  0  0  0
  -29.3310  -27.3830   20.3420 C   0  0  0  0  0  3  0  0  0  0  0  0
  -28.0110  -27.8810   20.3010 C   0  0  0  0  0  3  0  0  0  0  0  0
  -26.2650  -29.6010   21.0880 C   0  0  0  0  0  2  0  0  0  0  0  0
  -26.8080  -30.6180   23.3530 N   0  0  0  0  0  0  0  0  0  0  0  0
  -25.2920  -31.1300   24.9550 O   0  0  0  0  0  0  0  0  0  0  0  0
  -25.1960  -28.6580   23.1500 C   0  0  0  0  0  0  0  0  0  0  0  0
  -24.0550  -28.1790   22.6230 N   0  0  0  0  0  0  0  0  0  0  0  0
  -25.7900  -28.0980   24.0730 O   0  0  0  0  0  0  0  0  0  0  0  0
  -23.6300  -28.6750   21.8510 H   0  0  0  0  0  0  0  0  0  0  0  0
  -21.2040  -26.0850   21.9600 C   0  0  0  0  0  0  0  0  0  0  0  0
  -23.3660  -26.9680   23.0570 C   0  0  0  0  0  3  0  0  0  0  0  0
  -24.0550  -25.7060   22.4850 C   0  0  0  0  0  2  0  0  0  0  0  0
  -23.4550  -25.2510   21.1510 C   0  0  0  0  0  2  0  0  0  0  0  0
  -21.9630  -24.9410   21.3120 C   0  0  0  0  0  2  0  0  0  0  0  0
  -21.8640  -27.0460   22.7650 C   0  0  0  0  0  0  0  0  0  0  0  0
  -21.1180  -28.1190   23.3050 C   0  0  0  0  0  3  0  0  0  0  0  0
  -19.7350  -28.2260   23.0630 C   0  0  0  0  0  3  0  0  0  0  0  0
  -19.0810  -27.2540   22.2840 C   0  0  0  0  0  3  0  0  0  0  0  0
  -19.8160  -26.1880   21.7350 C   0  0  0  0  0  3  0  0  0  0  0  0
  -27.5190  -31.8370   25.4840 C   0  0  0  0  0  3  0  0  0  0  0  0
  -27.8190  -31.0230   26.8030 C   0  0  1  0  0  0  0  0  0  0  0  0
  -26.5510  -30.5370   27.5410 C   0  0  0  0  0  1  0  0  0  0  0  0
  -28.6840  -29.7810   26.4930 C   0  0  0  0  0  1  0  0  0  0  0  0
  -28.6450  -31.8920   27.7810 C   0  0  0  0  0  1  0  0  0  0  0  0
  -27.0170  -33.1790   25.8100 N   0  0  0  0  0  0  0  0  0  0  0  0
  -27.3670  -34.2970   25.1600 C   0  0  0  0  0  0  0  0  0  0  0  0
  -28.2080  -34.3130   24.2580 O   0  0  0  0  0  0  0  0  0  0  0  0
  -26.2850  -33.2360   26.5020 H   0  0  0  0  0  0  0  0  0  0  0  0
  -25.5210  -35.9060   24.6000 C   0  0  0  0  0  1  0  0  0  0  0  0
  -26.6680  -35.6050   25.5780 C   0  0  0  0  0  3  0  0  0  0  0  0
  -28.6060  -36.6280   26.6800 C   0  0  0  0  0  1  0  0  0  0  0  0
  -27.5830  -36.7640   25.6470 N   0  0  0  0  0  0  0  0  0  0  0  0
  -27.0670  -37.6230   25.8180 H   0  0  0  0  0  0  0  0  0  0  0  0
  1  2  1  0
  3  1  2  0
  4  2  2  0
  5  6  1  0
  6  3  1  0
  6  4  1  0
  7  3  1  0
  8  9  1  0
  8  7  1  0
 10 11  1  0
 10  9  1  0
 12 11  1  0
 13 19  1  0
 13 21  1  0
 14 19  1  0
 15 16  1  0
 15 14  1  0
 17 16  1  0
 17 26  1  0
 17 18  1  0
 19 18  1  0
 20 13  2  0
 21 12  1  0
 21 22  1  0
 23 48  1  0
 23 24  2  0
 24 43  1  0
 25 28  1  0
 25 24  1  0
 26 27  1  0
 26 23  1  0
 27 25  2  0
 28 29  1  0
 29 30  2  0
 31 34  1  0
 31 30  1  0
 32 31  2  0
 33 32  1  0
 33 28  2  0
 34 35  1  0
 35 36  1  0
 36 37  2  0
 38 37  1  0
 38 42  1  0
 39 38  2  0
 40 35  2  0
 40 39  1  0
 41 40  1  0
 43 44  1  0
 44 46  1  0
 44 47  1  0
 45 43  2  0
 48 49  1  0
 50 48  1  0
 51  4  1  0
 51 52  1  0
 53 54  1  0
 53 52  1  0
 55 66  2  0
 56 54  1  0
 56 61  1  0
 57 67  1  0
 57 65  1  0
 58 64  1  0
 58 60  1  0
 59 65  1  0
 60 61  2  0
 60 59  1  0
 62 56  2  0
 63 62  1  0
 63 58  2  0
 64 57  1  0
 65 55  1  0
 67 69  2  0
 68 67  1  0
 70 68  1  0
 71 76  1  0
 72 68  1  0
 73 72  1  0
 74 75  1  0
 74 73  1  0
 75 71  1  0
 76 72  1  0
 76 77  2  0
 78 77  1  0
 79 78  2  0
 80 71  2  0
 80 79  1  0
 81 55  1  0
 81 86  1  0
 81 82  1  0
 82 83  1  1
 82 85  1  0
 84 82  1  0
 86 89  1  0
 87 91  1  0
 87 86  1  0
 88 87  2  0
 91 90  1  0
 91 93  1  0
 93 94  1  0
 93 92  1  0
M  ISO  4  13 100  21 100  53 101  54 101
M  END
>  <TORSDO>  (14) 
F 25

>  <SCORE>  (14) 
-5.246

>  <name>  (14) 
14

>  <ligand_id>  (14) 
14

>  <original_smiles>  (14) 
[H]c1c([H])c([H])c2c(c1[H])C([H])([H])C([H])([H])C([H])([H])C2([H])N([H])C(=O)C1([H])N(C(=O)C([H])(N([H])C(=O)C([H])(N([H])C([H])([H])[H])C([H])([H])[H])C(C([H])([H])[H])(C([H])([H])[H])C([H])([H])[H])C([H])([H])c2c([H])c(OC([H])([H])C([H])([H])C([H])([H])c3c([H])c([H])c(C([H])([H])C([H])([H])C([H])([H])C([H])([H])C([H])([H])C([H])([H])N([H])C(=O)N4C([H])([H])C([H])([H])C([H])([H])C([H])(n5nc(-c6c([H])c([H])c(Oc7c([H])c([H])c(F)c([H])c7F)c([H])c6[H])c(C(=O)N([H])[H])c5N([H])[H])C4([H])[H])n3C([H])([H])[H])c([H])c([H])c2C1([H])[H]

>  <smiles>  (14) 
[H]c1c([H])c([H])c2c(c1[H])C([H])([H])C([H])([H])C([H])([H])C2([H])N([H])C(=O)C1([H])N(C(=O)C([H])(N([H])C(=O)C([H])(N([H])C([H])([H])[H])C([H])([H])[H])C(C([H])([H])[H])(C([H])([H])[H])C([H])([H])[H])C([H])([H])c2c([H])c(OC([H])([H])C([H])([H])C([H])([H])c3c([H])c([H])c(C([H])([H])C([H])([H])C([H])([H])C([H])([H])C([H])([H])C([H])([H])N([H])C(=O)N4C([H])([H])C([H])([H])C([H])([H])C([H])(n5nc(-c6c([H])c([H])c(Oc7c([H])c([H])c(F)c([H])c7F)c([H])c6[H])c(C(=O)N([H])[H])c5N([H])[H])C4([H])[H])n3C([H])([H])[H])c([H])c([H])c2C1([H])[H]

$$$$
15:0:0
     RDKit          3D

 92 99  0  0  1  0  0  0  0  0999 V2000
  -28.4910  -22.7600   21.0570 C   0  0  0  0  0  0  0  0  0  0  0  0
  -28.5270  -21.7700   21.9540 N   0  0  0  0  0  0  0  0  0  0  0  0
  -28.2500  -22.5760   19.8610 O   0  0  0  0  0  0  0  0  0  0  0  0
  -28.7180  -22.0250   22.9140 H   0  0  0  0  0  0  0  0  0  0  0  0
  -28.7440  -24.1700   21.5880 C   0  0  0  0  0  2  0  0  0  0  0  0
  -28.1730  -25.2240   20.6370 C   0  0  0  0  0  2  0  0  0  0  0  0
  -28.6400  -26.6450   20.9550 C   0  0  0  0  0  2  0  0  0  0  0  0
  -28.2750  -27.4670   19.8620 O   0  0  0  0  0  0  0  0  0  0  0  0
  -24.8330  -32.1400   23.9460 C   0  0  0  0  0  0  0  0  0  0  0  0
  -27.1330  -28.1900   20.0750 C   0  0  0  0  0  0  0  0  0  0  0  0
  -23.4850  -31.0680   22.1680 C   0  0  0  0  0  3  0  0  0  0  0  0
  -24.8000  -29.7130   20.4550 C   0  0  0  0  0  0  0  0  0  0  0  0
  -26.0070  -31.3650   21.8930 C   0  0  0  0  0  2  0  0  0  0  0  0
  -25.9990  -30.1070   21.0580 C   0  0  0  0  0  0  0  0  0  0  0  0
  -27.1690  -29.3470   20.8750 C   0  0  0  0  0  3  0  0  0  0  0  0
  -25.9230  -27.7950   19.4710 C   0  0  0  0  0  3  0  0  0  0  0  0
  -24.7490  -28.5500   19.6630 C   0  0  0  0  0  3  0  0  0  0  0  0
  -23.6000  -30.6020   20.6900 C   0  0  0  0  0  2  0  0  0  0  0  0
  -24.7970  -31.5260   22.7310 N   0  0  0  0  0  0  0  0  0  0  0  0
  -23.7920  -32.3680   24.5790 O   0  0  0  0  0  0  0  0  0  0  0  0
  -22.8290  -29.9360   22.9870 C   0  0  0  0  0  0  0  0  0  0  0  0
  -21.5190  -29.7340   22.7790 N   0  0  0  0  0  0  0  0  0  0  0  0
  -23.4970  -29.2460   23.7620 O   0  0  0  0  0  0  0  0  0  0  0  0
  -21.0430  -30.3510   22.1360 H   0  0  0  0  0  0  0  0  0  0  0  0
  -18.2040  -28.3080   22.8470 C   0  0  0  0  0  0  0  0  0  0  0  0
  -20.6960  -28.7030   23.4080 C   0  0  0  0  0  3  0  0  0  0  0  0
  -20.9550  -27.3200   22.7670 C   0  0  0  0  0  2  0  0  0  0  0  0
  -19.9880  -26.9990   21.6230 C   0  0  0  0  0  2  0  0  0  0  0  0
  -18.5400  -27.0180   22.1180 C   0  0  0  0  0  2  0  0  0  0  0  0
  -19.2190  -29.1080   23.4380 C   0  0  0  0  0  0  0  0  0  0  0  0
  -18.8570  -30.3190   24.0690 C   0  0  0  0  0  3  0  0  0  0  0  0
  -17.5120  -30.7290   24.1210 C   0  0  0  0  0  3  0  0  0  0  0  0
  -16.5110  -29.9270   23.5470 C   0  0  0  0  0  3  0  0  0  0  0  0
  -16.8560  -28.7190   22.9160 C   0  0  0  0  0  3  0  0  0  0  0  0
  -26.1750  -32.6060   24.5910 C   0  0  0  0  0  3  0  0  0  0  0  0
  -26.6500  -31.6800   25.7750 C   0  0  1  0  0  0  0  0  0  0  0  0
  -25.5500  -31.3990   26.8250 C   0  0  0  0  0  1  0  0  0  0  0  0
  -27.1400  -30.3160   25.2310 C   0  0  0  0  0  1  0  0  0  0  0  0
  -27.8510  -32.3270   26.5030 C   0  0  0  0  0  1  0  0  0  0  0  0
  -25.9920  -33.9880   25.0500 N   0  0  0  0  0  0  0  0  0  0  0  0
  -26.4350  -35.0720   24.3980 C   0  0  0  0  0  0  0  0  0  0  0  0
  -27.1170  -35.0030   23.3700 O   0  0  0  0  0  0  0  0  0  0  0  0
  -25.3990  -34.1240   25.8560 H   0  0  0  0  0  0  0  0  0  0  0  0
  -24.8800  -37.0360   24.1910 C   0  0  0  0  0  1  0  0  0  0  0  0
  -26.0650  -36.4510   24.9750 C   0  0  0  0  0  3  0  0  0  0  0  0
  -28.2560  -37.0530   25.9050 C   0  0  0  0  0  1  0  0  0  0  0  0
  -27.1890  -37.4120   24.9740 N   0  0  0  0  0  0  0  0  0  0  0  0
  -26.8660  -38.3460   25.2090 H   0  0  0  0  0  0  0  0  0  0  0  0
  -28.2760  -20.3560   21.6980 C   0  0  0  0  0  2  0  0  0  0  0  0
  -29.5880  -19.5550   21.6970 C   0  0  0  0  0  2  0  0  0  0  0  0
  -30.3140  -19.5570   20.3430 C   0  0  0  0  0  2  0  0  0  0  0  0
  -31.7590  -19.0550   20.4580 C   0  0  0  0  0  2  0  0  0  0  0  0
  -32.0950  -18.0350   19.3660 C   0  0  0  0  0  2  0  0  0  0  0  0
  -33.4330  -17.3090   19.6010 C   0  0  0  0  0  2  0  0  0  0  0  0
  -33.4270  -14.8570   19.0470 C   0  0  0  0  0  0  0  0  0  0  0  0
  -32.8450  -12.4790   18.7110 C   0  0  0  0  0  2  0  0  0  0  0  0
  -31.8110  -12.2810   17.5880 C   0  0  0  0  0  2  0  0  0  0  0  0
  -30.3740  -12.4720   18.1160 C   0  0  0  0  0  2  0  0  0  0  0  0
  -30.2080  -13.7820   18.9250 C   0  0  0  0  0  3  0  0  0  0  0  0
  -31.3170  -13.8760   19.9950 C   0  0  0  0  0  2  0  0  0  0  0  0
  -32.6330  -13.7950   19.3250 N   0  0  0  0  0  0  0  0  0  0  0  0
  -34.3300  -14.8550   18.2020 O   0  0  0  0  0  0  0  0  0  0  0  0
  -33.1690  -15.9030   19.8380 N   0  0  0  0  0  0  0  0  0  0  0  0
  -32.5140  -15.7060   20.5790 H   0  0  0  0  0  0  0  0  0  0  0  0
  -28.1450  -14.9940   19.9000 C   0  0  0  0  0  0  0  0  0  0  0  0
  -26.9380  -14.5230   20.3470 C   0  0  0  0  0  0  0  0  0  0  0  0
  -26.9870  -13.1040   20.1940 C   0  0  0  0  0  0  0  0  0  0  0  0
  -28.8730  -13.8730   19.5210 N   0  0  0  0  0  0  0  0  0  0  0  0
  -28.1790  -12.7300   19.7480 N   0  0  0  0  0  0  0  0  0  0  0  0
  -25.9470  -12.0850   20.3870 C   0  0  0  0  0  0  0  0  0  0  0  0
  -26.1320  -11.0070   21.2830 C   0  0  0  0  0  3  0  0  0  0  0  0
  -25.1150  -10.0460   21.4650 C   0  0  0  0  0  3  0  0  0  0  0  0
  -23.8940  -10.1610   20.7570 C   0  0  0  0  0  0  0  0  0  0  0  0
  -23.7240  -11.2220   19.8520 C   0  0  0  0  0  3  0  0  0  0  0  0
  -24.7390  -12.1750   19.6660 C   0  0  0  0  0  3  0  0  0  0  0  0
  -22.8570   -9.2650   20.8570 O   0  0  0  0  0  0  0  0  0  0  0  0
  -22.5920   -8.6010   22.0270 C   0  0  0  0  0  0  0  0  0  0  0  0
  -22.3140   -9.2880   23.2270 C   0  0  0  0  0  3  0  0  0  0  0  0
  -21.9720   -8.5660   24.3880 C   0  0  0  0  0  3  0  0  0  0  0  0
  -21.9020   -7.1600   24.3480 C   0  0  0  0  0  0  0  0  0  0  0  0
  -22.1740   -6.4740   23.1520 C   0  0  0  0  0  3  0  0  0  0  0  0
  -22.5140   -7.1940   21.9930 C   0  0  0  0  0  0  0  0  0  0  0  0
  -22.7540   -6.5310   20.8360 F   0  0  0  0  0  0  0  0  0  0  0  0
  -21.5640   -6.4660   25.4610 F   0  0  0  0  0  0  0  0  0  0  0  0
  -25.7640  -15.3480   20.7970 C   0  0  0  0  0  0  0  0  0  0  0  0
  -24.9480  -14.8170   21.7020 N   0  0  0  0  0  0  0  0  0  0  0  0
  -25.5910  -16.4920   20.3790 O   0  0  0  0  0  0  0  0  0  0  0  0
  -25.0910  -13.8840   22.0630 H   0  0  0  0  0  0  0  0  0  0  0  0
  -24.1550  -15.3490   22.0350 H   0  0  0  0  0  0  0  0  0  0  0  0
  -28.6740  -16.2720   19.7600 N   0  0  0  0  0  0  0  0  0  0  0  0
  -28.1150  -17.1030   19.9190 H   0  0  0  0  0  0  0  0  0  0  0  0
  -29.5450  -16.4680   19.2810 H   0  0  0  0  0  0  0  0  0  0  0  0
  1  5  1  0
  1  2  1  0
  2  4  1  0
  3  1  2  0
  6  7  1  0
  6  5  1  0
  8 10  1  0
  8  7  1  0
  9 20  2  0
 10 15  1  0
 11 19  1  0
 11 21  1  0
 12 18  1  0
 12 14  1  0
 13 19  1  0
 14 13  1  0
 15 14  2  0
 16 17  1  0
 16 10  2  0
 17 12  2  0
 18 11  1  0
 19  9  1  0
 21 23  2  0
 22 21  1  0
 24 22  1  0
 25 34  2  0
 25 30  1  0
 26 22  1  0
 26 30  1  0
 27 26  1  0
 28 29  1  0
 28 27  1  0
 29 25  1  0
 30 31  2  0
 31 32  1  0
 33 32  2  0
 34 33  1  0
 35  9  1  0
 35 40  1  0
 35 36  1  0
 36 39  1  1
 36 37  1  0
 38 36  1  0
 40 43  1  0
 41 45  1  0
 41 40  1  0
 42 41  2  0
 45 44  1  0
 47 45  1  0
 47 48  1  0
 47 46  1  0
 49  2  1  0
 50 49  1  0
 51 52  1  0
 51 50  1  0
 53 54  1  0
 53 52  1  0
 54 63  1  0
 55 61  1  0
 55 63  1  0
 56 61  1  0
 57 58  1  0
 57 56  1  0
 59 58  1  0
 59 68  1  0
 59 60  1  0
 61 60  1  0
 62 55  2  0
 63 64  1  0
 65 66  2  0
 66 85  1  0
 67 66  1  0
 67 70  1  0
 68 69  1  0
 68 65  1  0
 69 67  2  0
 70 71  1  0
 71 72  2  0
 73 76  1  0
 73 72  1  0
 74 73  2  0
 75 74  1  0
 75 70  2  0
 76 77  1  0
 77 78  1  0
 78 79  2  0
 80 79  1  0
 80 84  1  0
 81 80  2  0
 82 77  2  0
 82 81  1  0
 83 82  1  0
 85 86  1  0
 86 89  1  0
 86 88  1  0
 87 85  2  0
 90 65  1  0
 90 91  1  0
 92 90  1  0
M  ISO  4   7 101   8 101  55 100  63 100
M  END
>  <TORSDO>  (15) 
F 25

>  <SCORE>  (15) 
-6.033

>  <name>  (15) 
15

>  <ligand_id>  (15) 
15

>  <original_smiles>  (15) 
[H]c1c([H])c([H])c2c(c1[H])C([H])([H])C([H])([H])C([H])([H])C2([H])N([H])C(=O)C1([H])N(C(=O)C([H])(N([H])C(=O)C([H])(N([H])C([H])([H])[H])C([H])([H])[H])C(C([H])([H])[H])(C([H])([H])[H])C([H])([H])[H])C([H])([H])c2c([H])c(OC([H])([H])C([H])([H])C([H])([H])C(=O)N([H])C([H])([H])C([H])([H])C([H])([H])C([H])([H])C([H])([H])C([H])([H])N([H])C(=O)N3C([H])([H])C([H])([H])C([H])([H])C([H])(n4nc(-c5c([H])c([H])c(Oc6c([H])c([H])c(F)c([H])c6F)c([H])c5[H])c(C(=O)N([H])[H])c4N([H])[H])C3([H])[H])c([H])c([H])c2C1([H])[H]

>  <smiles>  (15) 
[H]c1c([H])c([H])c2c(c1[H])C([H])([H])C([H])([H])C([H])([H])C2([H])N([H])C(=O)C1([H])N(C(=O)C([H])(N([H])C(=O)C([H])(N([H])C([H])([H])[H])C([H])([H])[H])C(C([H])([H])[H])(C([H])([H])[H])C([H])([H])[H])C([H])([H])c2c([H])c(OC([H])([H])C([H])([H])C([H])([H])C(=O)N([H])C([H])([H])C([H])([H])C([H])([H])C([H])([H])C([H])([H])C([H])([H])N([H])C(=O)N3C([H])([H])C([H])([H])C([H])([H])C([H])(n4nc(-c5c([H])c([H])c(Oc6c([H])c([H])c(F)c([H])c6F)c([H])c5[H])c(C(=O)N([H])[H])c4N([H])[H])C3([H])[H])c([H])c([H])c2C1([H])[H]

$$$$
16:0:0
     RDKit          3D

 96105  0  0  1  0  0  0  0  0999 V2000
  -24.9400  -18.7270   18.9910 C   0  0  0  0  0  3  0  0  0  0  0  0
  -27.3290  -19.1690   18.8010 C   0  0  0  0  0  3  0  0  0  0  0  0
  -25.2270  -17.4750   19.5810 C   0  0  0  0  0  3  0  0  0  0  0  0
  -27.6140  -17.9350   19.4190 C   0  0  0  0  0  3  0  0  0  0  0  0
  -25.9950  -19.5890   18.6270 C   0  0  0  0  0  0  0  0  0  0  0  0
  -26.5650  -17.1010   19.8650 C   0  0  0  0  0  0  0  0  0  0  0  0
  -25.7020  -20.9670   18.0550 C   0  0  0  0  0  2  0  0  0  0  0  0
  -26.2970  -22.0880   18.9300 C   0  0  0  0  0  2  0  0  0  0  0  0
  -26.8370  -23.2740   18.1240 C   0  0  0  0  0  2  0  0  0  0  0  0
  -28.0150  -23.9860   18.8220 C   0  0  0  0  0  2  0  0  0  0  0  0
  -28.3160  -25.3480   18.1820 C   0  0  0  0  0  2  0  0  0  0  0  0
  -29.8190  -25.6980   18.0760 C   0  0  0  0  0  2  0  0  0  0  0  0
  -30.2900  -27.0640   18.6580 C   0  0  0  0  0  2  0  0  0  0  0  0
  -29.6720  -28.2420   18.1190 O   0  0  0  0  0  0  0  0  0  0  0  0
  -25.8280  -28.5150   24.1120 C   0  0  0  0  0  0  0  0  0  0  0  0
  -28.4780  -28.5490   18.7150 C   0  0  0  0  0  0  0  0  0  0  0  0
  -24.5740  -28.6050   21.9850 C   0  0  0  0  0  3  0  0  0  0  0  0
  -25.9570  -29.0220   19.8900 C   0  0  0  0  0  0  0  0  0  0  0  0
  -26.9740  -29.4780   22.1290 C   0  0  0  0  0  2  0  0  0  0  0  0
  -27.1200  -29.1160   20.6670 C   0  0  0  0  0  0  0  0  0  0  0  0
  -28.3870  -28.8610   20.0890 C   0  0  0  0  0  3  0  0  0  0  0  0
  -27.3110  -28.5580   17.9340 C   0  0  0  0  0  3  0  0  0  0  0  0
  -26.0480  -28.7300   18.5220 C   0  0  0  0  0  3  0  0  0  0  0  0
  -24.6350  -29.2590   20.5820 C   0  0  0  0  0  2  0  0  0  0  0  0
  -25.8130  -28.8410   22.7900 N   0  0  0  0  0  0  0  0  0  0  0  0
  -24.8190  -28.0600   24.6690 O   0  0  0  0  0  0  0  0  0  0  0  0
  -24.2230  -27.1120   21.8140 C   0  0  0  0  0  0  0  0  0  0  0  0
  -23.0390  -26.8460   21.2390 N   0  0  0  0  0  0  0  0  0  0  0  0
  -25.0090  -26.2280   22.1680 O   0  0  0  0  0  0  0  0  0  0  0  0
  -22.4570  -27.6340   20.9920 H   0  0  0  0  0  0  0  0  0  0  0  0
  -20.3710  -25.0710   19.5580 C   0  0  0  0  0  0  0  0  0  0  0  0
  -22.5060  -25.5170   20.9470 C   0  0  0  0  0  3  0  0  0  0  0  0
  -23.2750  -24.8440   19.7830 C   0  0  0  0  0  2  0  0  0  0  0  0
  -22.6250  -25.0720   18.4150 C   0  0  0  0  0  2  0  0  0  0  0  0
  -21.1980  -24.5230   18.4040 C   0  0  0  0  0  2  0  0  0  0  0  0
  -20.9890  -25.5490   20.7460 C   0  0  0  0  0  0  0  0  0  0  0  0
  -20.1780  -26.0700   21.7780 C   0  0  0  0  0  3  0  0  0  0  0  0
  -18.7800  -26.1270   21.6410 C   0  0  0  0  0  3  0  0  0  0  0  0
  -18.1720  -25.6440   20.4710 C   0  0  0  0  0  3  0  0  0  0  0  0
  -18.9650  -25.1110   19.4370 C   0  0  0  0  0  3  0  0  0  0  0  0
  -27.1050  -28.7100   24.9860 C   0  0  0  0  0  3  0  0  0  0  0  0
  -27.4740  -27.4360   25.8400 C   0  0  1  0  0  0  0  0  0  0  0  0
  -26.2930  -26.8720   26.6640 C   0  0  0  0  0  1  0  0  0  0  0  0
  -27.9920  -26.2970   24.9330 C   0  0  0  0  0  1  0  0  0  0  0  0
  -28.6260  -27.7750   26.8160 C   0  0  0  0  0  1  0  0  0  0  0  0
  -26.8680  -29.8670   25.8590 N   0  0  0  0  0  0  0  0  0  0  0  0
  -27.4360  -31.0690   25.6970 C   0  0  0  0  0  0  0  0  0  0  0  0
  -28.2780  -31.3010   24.8250 O   0  0  0  0  0  0  0  0  0  0  0  0
  -26.1440  -29.7650   26.5540 H   0  0  0  0  0  0  0  0  0  0  0  0
  -26.0400  -33.1480   25.9130 C   0  0  0  0  0  1  0  0  0  0  0  0
  -26.9940  -32.1980   26.6530 C   0  0  0  0  0  3  0  0  0  0  0  0
  -28.9300  -32.1830   28.1570 C   0  0  0  0  0  1  0  0  0  0  0  0
  -28.1250  -32.9620   27.2210 N   0  0  0  0  0  0  0  0  0  0  0  0
  -27.7970  -33.7940   27.7030 H   0  0  0  0  0  0  0  0  0  0  0  0
  -26.8730  -15.8420   20.6830 C   0  0  0  0  0  2  0  0  0  0  0  0
  -28.4100  -15.5870   20.8880 C   0  0  0  0  0  2  0  0  0  0  0  0
  -28.9370  -14.1160   20.7500 C   0  0  0  0  0  2  0  0  0  0  0  0
  -30.1190  -13.9400   19.7340 C   0  0  0  0  0  2  0  0  0  0  0  0
  -34.1660  -12.3490   19.4570 C   0  0  0  0  0  3  0  0  0  0  0  0
  -35.4340  -12.2500   16.7260 C   0  0  0  0  0  3  0  0  0  0  0  0
  -34.3230  -12.6540   15.4830 C   0  0  0  0  0  3  0  0  0  0  0  0
  -32.7850  -12.6990   15.9140 C   0  0  0  0  0  2  0  0  0  0  0  0
  -33.1280  -12.7150   17.2460 C   0  0  0  0  0  3  0  0  0  0  0  0
  -33.8950  -11.2640   17.4540 C   0  0  0  0  0  2  0  0  0  0  0  0
  -34.8020  -11.8090   18.1700 N   0  0  2  0  0  4  0  0  0  0  0  0
  -35.1360  -13.2090   19.0720 O   0  0  0  0  0  0  0  0  0  0  0  0
  -31.1570  -12.8430   19.9790 N   0  0  2  0  0  4  0  0  0  0  0  0
  -30.7350  -11.9230   19.8810 H   0  0  0  0  0  0  0  0  0  0  0  0
  -32.8410  -13.1020   20.4090 C   0  0  1  0  0  0  0  0  0  0  0  0
  -31.8720  -11.7910   21.1600 C   0  0  2  0  0  0  0  0  0  0  0  0
  -30.8840  -10.8410   19.9130 C   0  0  0  0  0  3  0  0  0  0  0  0
  -32.3940  -13.0560   18.3010 N   0  0  0  0  0  1  0  0  0  0  0  0
  -31.1270  -11.4410   18.2680 N   0  0  0  0  0  1  0  0  0  0  0  0
  -29.3060  -10.5780   19.9620 C   0  0  0  0  0  0  0  0  0  0  0  0
  -28.8650   -9.3080   20.3610 C   0  0  0  0  0  3  0  0  0  0  0  0
  -27.5050   -8.9090   20.3860 C   0  0  0  0  0  3  0  0  0  0  0  0
  -26.4540   -9.7640   19.9890 C   0  0  0  0  0  0  0  0  0  0  0  0
  -26.8310  -11.0420   19.5180 C   0  0  0  0  0  3  0  0  0  0  0  0
  -28.2140  -11.4270   19.4970 C   0  0  0  0  0  3  0  0  0  0  0  0
  -25.1210   -9.3760   20.0110 O   0  0  0  0  0  0  0  0  0  0  0  0
  -24.5210   -8.9440   21.1800 C   0  0  0  0  0  0  0  0  0  0  0  0
  -24.3100   -9.8130   22.2750 C   0  0  0  0  0  3  0  0  0  0  0  0
  -23.6530   -9.3610   23.4410 C   0  0  0  0  0  3  0  0  0  0  0  0
  -23.1940   -8.0300   23.5160 C   0  0  0  0  0  0  0  0  0  0  0  0
  -23.3800   -7.1630   22.4300 C   0  0  0  0  0  3  0  0  0  0  0  0
  -24.0310   -7.6140   21.2640 C   0  0  0  0  0  0  0  0  0  0  0  0
  -24.1860   -6.7690   20.2220 F   0  0  0  0  0  0  0  0  0  0  0  0
  -22.5770   -7.5850   24.6350 F   0  0  0  0  0  0  0  0  0  0  0  0
  -30.9720  -12.2570   22.3870 C   0  0  0  0  0  0  0  0  0  0  0  0
  -29.8970  -11.5710   22.7890 N   0  0  0  0  0  0  0  0  0  0  0  0
  -31.1260  -13.3320   22.9610 O   0  0  0  0  0  0  0  0  0  0  0  0
  -29.6110  -10.7200   22.3250 H   0  0  0  0  0  0  0  0  0  0  0  0
  -29.3700  -11.9380   23.5670 H   0  0  0  0  0  0  0  0  0  0  0  0
  -33.6630  -13.9970   21.0040 N   0  0  0  0  0  0  0  0  0  0  0  0
  -33.8950  -14.0660   21.9880 H   0  0  0  0  0  0  0  0  0  0  0  0
  -34.0870  -14.7310   20.4480 H   0  0  0  0  0  0  0  0  0  0  0  0
  1  3  1  0
  2  4  2  0
  3  6  2  0
  4  6  1  0
  5  2  1  0
  5  1  2  0
  6 55  1  0
  7  5  1  0
  7  8  1  0
  9 10  1  0
  9  8  1  0
 11 10  1  0
 12 11  1  0
 12 13  1  0
 14 13  1  0
 14 16  1  0
 15 26  2  0
 16 21  1  0
 17 27  1  0
 17 25  1  0
 18 24  1  0
 18 20  1  0
 19 25  1  0
 20 19  1  0
 21 20  2  0
 22 23  1  0
 22 16  2  0
 23 18  2  0
 24 17  1  0
 25 15  1  0
 27 29  2  0
 28 27  1  0
 30 28  1  0
 31 36  1  0
 32 28  1  0
 33 32  1  0
 34 33  1  0
 35 34  1  0
 35 31  1  0
 36 32  1  0
 36 37  2  0
 38 37  1  0
 39 38  2  0
 40 31  2  0
 40 39  1  0
 41 15  1  0
 41 42  1  0
 41 46  1  0
 42 43  1  1
 42 45  1  0
 44 42  1  0
 46 49  1  0
 47 46  1  0
 47 51  1  0
 48 47  2  0
 51 50  1  0
 51 53  1  0
 53 54  1  0
 53 52  1  0
 55 56  1  0
 57 56  1  0
 58 67  1  0
 58 57  1  0
 59 66  1  0
 59 69  1  0
 60 65  1  0
 61 62  1  0
 61 60  2  0
 62 63  1  0
 63 64  1  0
 63 72  1  0
 65 64  1  6
 65 66  1  0
 65 59  1  0
 67 69  1  0
 67 70  1  0
 67 68  1  6
 69 94  1  1
 69 70  1  0
 70 89  1  0
 71 73  1  0
 71 74  1  0
 70 71  1  6
 74 75  1  0
 75 76  2  0
 77 80  1  0
 77 76  1  0
 78 77  2  0
 79 78  1  0
 79 74  2  0
 80 81  1  0
 81 86  2  0
 81 82  1  0
 82 83  2  0
 83 84  1  0
 84 88  1  0
 85 84  2  0
 86 85  1  0
 87 86  1  0
 89 90  1  0
 89 91  2  0
 90 93  1  0
 92 90  1  0
 94 95  1  0
 96 94  1  0
M  ISO  4  13 101  14 101  59 100  67 100
M  END
>  <TORSDO>  (16) 
F 27

>  <SCORE>  (16) 
5.398

>  <name>  (16) 
16

>  <ligand_id>  (16) 
16

>  <original_smiles>  (16) 
[H]c1c([H])c([H])c2c(c1[H])C([H])([H])C([H])([H])C([H])([H])C2([H])N([H])C(=O)C1([H])N(C(=O)C([H])(N([H])C(=O)C([H])(N([H])C([H])([H])[H])C([H])([H])[H])C(C([H])([H])[H])(C([H])([H])[H])C([H])([H])[H])C([H])([H])c2c([H])c(OC([H])([H])C([H])([H])C([H])([H])C([H])([H])C([H])([H])C([H])([H])C([H])([H])c3c([H])c([H])c(C([H])([H])C([H])([H])C([H])([H])C([H])([H])N([H])C(=O)N4C([H])([H])C([H])([H])C([H])([H])C([H])(n5nc(-c6c([H])c([H])c(Oc7c([H])c([H])c(F)c([H])c7F)c([H])c6[H])c(C(=O)N([H])[H])c5N([H])[H])C4([H])[H])c([H])c3[H])c([H])c([H])c2C1([H])[H]

>  <smiles>  (16) 
[H]c1c([H])c([H])c2c(c1[H])C([H])([H])C([H])([H])C([H])([H])C2([H])N([H])C(=O)C1([H])N(C(=O)C([H])(N([H])C(=O)C([H])(N([H])C([H])([H])[H])C([H])([H])[H])C(C([H])([H])[H])(C([H])([H])[H])C([H])([H])[H])C([H])([H])c2c([H])c(OC([H])([H])C([H])([H])C([H])([H])C([H])([H])C([H])([H])C([H])([H])C([H])([H])c3c([H])c([H])c(C([H])([H])C([H])([H])C([H])([H])C([H])([H])N([H])C(=O)N4C([H])([H])C([H])([H])C([H])([H])C([H])(n5nc(-c6c([H])c([H])c(Oc7c([H])c([H])c(F)c([H])c7F)c([H])c6[H])c(C(=O)N([H])[H])c5N([H])[H])C4([H])[H])c([H])c3[H])c([H])c([H])c2C1([H])[H]

$$$$
17:0:0
     RDKit          3D

 93 90  0  0  1  0  0  0  0  0999 V2000
  -20.7090  -29.9060   22.7070 C   0  0  0  0  0  2  0  0  0  0  0  0
  -22.1940  -29.9240   23.8090 N   0  0  0  0  0  4  0  0  0  0  0  0
  -22.5470  -30.8820   23.7390 H   0  0  0  0  0  0  0  0  0  0  0  0
  -21.7520  -29.9220   24.7160 H   0  0  0  0  0  0  0  0  0  0  0  0
  -23.7160  -28.9620   24.1790 C   0  0  0  0  0  1  0  0  0  0  0  0
  -25.5030  -28.4510   23.4300 C   0  0  0  0  0  1  0  0  0  0  0  0
  -26.3780  -27.4250   22.2770 O   0  0  0  0  0  0  0  0  0  0  0  0
  -24.6730  -31.8480   23.0900 C   0  0  0  0  0  0  0  0  0  0  0  0
  -26.8100  -27.6360   20.9370 C   0  0  0  0  0  3  0  0  0  0  0  0
  -23.6080  -30.3660   21.2480 C   0  0  0  0  0  3  0  0  0  0  0  0
  -25.1250  -29.2430   19.6620 C   0  0  0  0  0  0  0  0  0  0  0  0
  -26.0170  -31.0520   21.1740 C   0  0  0  0  0  2  0  0  0  0  0  0
  -26.1860  -29.7500   20.4360 C   0  0  0  0  0  0  0  0  0  0  0  0
  -27.2490  -28.9300   20.7890 C   0  0  0  0  0  2  0  0  0  0  0  0
  -26.0620  -27.0380   19.8800 C   0  0  0  0  0  3  0  0  0  0  0  0
  -25.1280  -27.8850   19.2460 C   0  0  0  0  0  3  0  0  0  0  0  0
  -23.8660  -30.0830   19.7550 C   0  0  0  0  0  2  0  0  0  0  0  0
  -24.7650  -31.0720   21.9450 N   0  0  0  0  0  0  0  0  0  0  0  0
  -23.5730  -32.0990   23.6010 O   0  0  0  0  0  0  0  0  0  0  0  0
  -23.2990  -28.8720   21.6080 C   0  0  0  0  0  0  0  0  0  0  0  0
  -22.2380  -28.3280   21.9060 N   0  0  0  0  0  0  0  0  0  0  0  0
  -23.9660  -27.9380   21.7650 O   0  0  0  0  0  0  0  0  0  0  0  0
  -21.4940  -28.7750   21.3910 H   0  0  0  0  0  0  0  0  0  0  0  0
  -18.3480  -27.2920   23.2870 C   0  0  0  0  0  0  0  0  0  0  0  0
  -21.5600  -27.4700   23.0060 C   0  0  0  0  0  1  0  0  0  0  0  0
  -21.4450  -26.6900   21.1630 C   0  0  0  0  0  1  0  0  0  0  0  0
  -19.6910  -26.1760   20.6820 C   0  0  0  0  0  3  0  0  0  0  0  0
  -18.3040  -26.3760   21.8470 C   0  0  0  0  0  3  0  0  0  0  0  0
  -19.7120  -27.7660   23.9650 C   0  0  0  0  0  3  0  0  0  0  0  0
  -19.2860  -29.0120   24.6900 C   0  0  0  0  0  3  0  0  0  0  0  0
  -18.1000  -29.8540   24.5130 C   0  0  0  0  0  3  0  0  0  0  0  0
  -16.9910  -29.4040   23.7980 C   0  0  0  0  0  3  0  0  0  0  0  0
  -17.1180  -28.0980   23.2890 C   0  0  0  0  0  3  0  0  0  0  0  0
  -25.9260  -32.4930   23.8090 C   0  0  0  0  0  3  0  0  0  0  0  0
  -26.4930  -31.7690   25.1110 C   0  0  1  0  0  0  0  0  0  0  0  0
  -25.4200  -31.5130   26.2050 C   0  0  0  0  0  1  0  0  0  0  0  0
  -27.2900  -30.4800   24.8120 C   0  0  0  0  0  1  0  0  0  0  0  0
  -27.5810  -32.6520   25.7730 C   0  0  0  0  0  1  0  0  0  0  0  0
  -25.5480  -33.8630   24.1750 N   0  0  0  0  0  0  0  0  0  0  0  0
  -25.8980  -34.9580   23.4900 C   0  0  0  0  0  0  0  0  0  0  0  0
  -26.5790  -34.9120   22.4620 O   0  0  0  0  0  0  0  0  0  0  0  0
  -24.9400  -33.9710   24.9740 H   0  0  0  0  0  0  0  0  0  0  0  0
  -24.1440  -36.7400   23.2620 C   0  0  0  0  0  1  0  0  0  0  0  0
  -25.4070  -36.3150   24.0260 C   0  0  0  0  0  3  0  0  0  0  0  0
  -27.5550  -37.1790   24.8460 C   0  0  0  0  0  1  0  0  0  0  0  0
  -26.4260  -37.3840   23.9410 N   0  0  0  0  0  0  0  0  0  0  0  0
  -26.0160  -38.2910   24.1460 H   0  0  0  0  0  0  0  0  0  0  0  0
  -20.5060  -31.0790   21.7020 C   0  0  0  0  0  2  0  0  0  0  0  0
  -20.8230  -30.7380   20.4500 F   0  0  0  0  0  0  0  0  0  0  0  0
  -19.8780  -28.2920   21.7440 C   0  0  0  0  0 15  0  0  0  0  0  0
  -20.5030  -25.4340   22.7760 C   0  0  0  0  0 15  0  0  0  0  0  0
  -21.8890  -23.6610   22.1680 C   0  0  0  0  0 15  0  0  0  0  0  0
  -23.7170  -22.2560   22.1090 C   0  0  0  0  0 15  0  0  0  0  0  0
  -24.8340  -20.3100   21.5630 C   0  0  0  0  0 15  0  0  0  0  0  0
  -26.6970  -18.9610   21.3800 C   0  0  0  0  0 15  0  0  0  0  0  0
  -29.0010  -16.0730   20.7170 C   0  0  0  0  0  0  0  0  0  0  0  0
  -30.1330  -13.6130   19.7290 C   0  0  0  0  0  2  0  0  0  0  0  0
  -29.5070  -12.8630   18.4840 C   0  0  0  0  0  2  0  0  0  0  0  0
  -28.1280  -12.2780   18.8200 C   0  0  0  0  0  2  0  0  0  0  0  0
  -27.4470  -13.2400   19.8040 C   0  0  0  0  0  3  0  0  0  0  0  0
  -28.2630  -13.5630   21.0460 C   0  0  0  0  0  2  0  0  0  0  0  0
  -29.1290  -14.5720   20.5140 N   0  0  0  0  0  0  0  0  0  0  0  0
  -30.2530  -16.2940   20.5150 O   0  0  0  0  0  0  0  0  0  0  0  0
  -27.6510  -17.1640   21.0080 N   0  0  0  0  0  2  0  0  0  0  0  0
  -26.8840  -16.4960   21.0280 H   0  0  0  0  0  0  0  0  0  0  0  0
  -25.1600  -13.8010   20.5510 C   0  0  0  0  0  0  0  0  0  0  0  0
  -24.1140  -13.0250   20.9340 C   0  0  0  0  0  0  0  0  0  0  0  0
  -24.5810  -11.6740   20.8810 C   0  0  0  0  0  0  0  0  0  0  0  0
  -26.1560  -12.9010   20.2490 N   0  0  0  0  0  0  0  0  0  0  0  0
  -25.8550  -11.6230   20.5360 N   0  0  0  0  0  0  0  0  0  0  0  0
  -23.8690  -10.4160   21.0520 C   0  0  0  0  0  0  0  0  0  0  0  0
  -24.3410   -9.4120   21.9240 C   0  0  0  0  0  3  0  0  0  0  0  0
  -23.6190   -8.2120   22.0760 C   0  0  0  0  0  3  0  0  0  0  0  0
  -22.4170   -8.0150   21.3540 C   0  0  0  0  0  0  0  0  0  0  0  0
  -21.9720   -9.0080   20.4650 C   0  0  0  0  0  3  0  0  0  0  0  0
  -22.6950  -10.1990   20.3090 C   0  0  0  0  0  3  0  0  0  0  0  0
  -21.6570   -6.8750   21.4240 O   0  0  0  0  0  0  0  0  0  0  0  0
  -21.6810   -6.0660   22.5290 C   0  0  0  0  0  0  0  0  0  0  0  0
  -21.3980   -6.5600   23.8220 C   0  0  0  0  0  3  0  0  0  0  0  0
  -21.3640   -5.6770   24.9190 C   0  0  0  0  0  3  0  0  0  0  0  0
  -21.6040   -4.3030   24.7250 C   0  0  0  0  0  0  0  0  0  0  0  0
  -21.8830   -3.8110   23.4380 C   0  0  0  0  0  3  0  0  0  0  0  0
  -21.9180   -4.6910   22.3430 C   0  0  0  0  0  0  0  0  0  0  0  0
  -22.1660   -4.2100   21.1000 F   0  0  0  0  0  0  0  0  0  0  0  0
  -21.5630   -3.4530   25.7770 F   0  0  0  0  0  0  0  0  0  0  0  0
  -22.7300  -13.5120   21.2090 C   0  0  0  0  0  0  0  0  0  0  0  0
  -21.9990  -12.8130   22.0670 N   0  0  0  0  0  0  0  0  0  0  0  0
  -22.3110  -14.5480   20.6930 O   0  0  0  0  0  0  0  0  0  0  0  0
  -22.3600  -11.9770   22.5010 H   0  0  0  0  0  0  0  0  0  0  0  0
  -21.0640  -13.1190   22.2960 H   0  0  0  0  0  0  0  0  0  0  0  0
  -25.3460  -15.1760   20.3960 N   0  0  0  0  0  0  0  0  0  0  0  0
  -24.4890  -15.7200   20.4410 H   0  0  0  0  0  0  0  0  0  0  0  0
  -25.9010  -15.4490   19.5940 H   0  0  0  0  0  0  0  0  0  0  0  0
  1  2  1  0
  2  5  1  0
  2  4  1  0
  3  2  1  0
  7  6  1  0
  8 19  2  0
  9  7  1  0
 10 20  1  0
 10 18  1  0
 11 17  1  0
 11 13  2  0
 12 18  1  0
 13 14  1  0
 13 12  1  0
 14  9  1  0
 15  9  1  0
 16 11  1  0
 16 15  2  0
 17 10  1  0
 18  8  1  0
 20 22  2  0
 20 21  1  0
 21 25  1  0
 23 21  1  0
 24 33  2  0
 24 29  1  0
 27 26  1  0
 27 28  2  0
 28 24  1  0
 29 30  2  0
 31 30  1  0
 32 31  2  0
 33 32  1  0
 34  8  1  0
 34 39  1  0
 34 35  1  0
 35 38  1  1
 35 36  1  0
 37 35  1  0
 39 42  1  0
 40 44  1  0
 40 39  1  0
 41 40  2  0
 44 43  1  0
 46 44  1  0
 46 47  1  0
 46 45  1  0
 48  1  1  0
 49 48  1  0
 56 64  1  0
 57 62  1  0
 58 59  1  0
 58 57  1  0
 60 59  1  0
 60 69  1  0
 60 61  1  0
 62 56  1  0
 62 61  1  0
 63 56  2  0
 64 65  1  0
 66 67  2  0
 67 86  1  0
 68 67  1  0
 68 71  1  0
 69 70  1  0
 69 66  1  0
 70 68  2  0
 71 72  1  0
 72 73  2  0
 74 77  1  0
 74 73  1  0
 75 74  2  0
 76 75  1  0
 76 71  2  0
 77 78  1  0
 78 79  1  0
 79 80  2  0
 81 80  1  0
 81 85  1  0
 82 81  2  0
 83 78  2  0
 83 82  1  0
 84 83  1  0
 86 87  1  0
 87 90  1  0
 87 89  1  0
 88 86  2  0
 91 92  1  0
 91 66  1  0
 93 91  1  0
M  ISO  4   6 101   7 101  56 100  64 100
M  END
>  <TORSDO>  (17) 
F 26

>  <SCORE>  (17) 
24.407

>  <name>  (17) 
17

>  <ligand_id>  (17) 
17

>  <original_smiles>  (17) 
[H]c1c([H])c([H])c2c(c1[H])C([H])([H])C([H])([H])C([H])([H])C2([H])N([H])C(=O)C1([H])N(C(=O)C([H])(N([H])C(=O)C([H])(N([H])C([H])([H])[H])C([H])([H])[H])C(C([H])([H])[H])(C([H])([H])[H])C([H])([H])[H])C([H])([H])c2c([H])c(OC([H])([H])C([H])([H])[N+]([H])([H])C([H])(C([H])([H])F)C([H])([H])C([H])([H])C([H])([H])C([H])([H])C([H])([H])C([H])([H])N([H])C(=O)N3C([H])([H])C([H])([H])C([H])([H])C([H])(n4nc(-c5c([H])c([H])c(Oc6c([H])c([H])c(F)c([H])c6F)c([H])c5[H])c(C(=O)N([H])[H])c4N([H])[H])C3([H])[H])c([H])c([H])c2C1([H])[H]

>  <smiles>  (17) 
[H]c1c([H])c([H])c2c(c1[H])C([H])([H])C([H])([H])C([H])([H])C2([H])N([H])C(=O)C1([H])N(C(=O)C([H])(N([H])C(=O)C([H])(N([H])C([H])([H])[H])C([H])([H])[H])C(C([H])([H])[H])(C([H])([H])[H])C([H])([H])[H])C([H])([H])c2c([H])c(OC([H])([H])C([H])([H])[N+]([H])([H])C([H])(C([H])([H])F)C([H])([H])C([H])([H])C([H])([H])C([H])([H])C([H])([H])C([H])([H])N([H])C(=O)N3C([H])([H])C([H])([H])C([H])([H])C([H])(n4nc(-c5c([H])c([H])c(Oc6c([H])c([H])c(F)c([H])c6F)c([H])c5[H])c(C(=O)N([H])[H])c4N([H])[H])C3([H])[H])c([H])c([H])c2C1([H])[H]

$$$$
18:0:0
     RDKit          3D

 95104  0  0  1  0  0  0  0  0999 V2000
  -31.0760  -20.2550   22.0400 C   0  0  0  0  0  3  0  0  0  0  0  0
  -33.3770  -19.4680   21.8600 C   0  0  0  0  0  3  0  0  0  0  0  0
  -32.9210  -21.7870   22.4520 C   0  0  0  0  0  3  0  0  0  0  0  0
  -31.9920  -19.2090   21.7610 C   0  0  0  0  0  0  0  0  0  0  0  0
  -31.5340  -21.5620   22.3440 C   0  0  0  0  0  0  0  0  0  0  0  0
  -33.8410  -20.7500   22.2170 C   0  0  0  0  0  0  0  0  0  0  0  0
  -35.1690  -20.9920   22.3020 F   0  0  0  0  0  0  0  0  0  0  0  0
  -30.7210  -14.4730   19.8640 C   0  0  0  0  0  0  0  0  0  0  0  0
  -30.3510  -12.3040   18.7350 C   0  0  0  0  0  2  0  0  0  0  0  0
  -29.3000  -12.4490   17.6190 C   0  0  0  0  0  2  0  0  0  0  0  0
  -27.8760  -12.2790   18.1780 C   0  0  0  0  0  2  0  0  0  0  0  0
  -27.6290  -13.1460   19.4400 C   0  0  0  0  0  3  0  0  0  0  0  0
  -28.7770  -12.9670   20.4600 C   0  0  0  0  0  2  0  0  0  0  0  0
  -30.0470  -13.2890   19.7870 N   0  0  0  0  0  0  0  0  0  0  0  0
  -31.7230  -14.7100   19.1790 O   0  0  0  0  0  0  0  0  0  0  0  0
  -30.7190  -17.0810   22.4190 C   0  0  0  0  0  2  0  0  0  0  0  0
  -30.7690  -17.8100   19.9730 C   0  0  0  0  0  2  0  0  0  0  0  0
  -30.2890  -15.6420   22.0070 C   0  0  0  0  0  2  0  0  0  0  0  0
  -29.7040  -16.6980   19.8630 C   0  0  0  0  0  2  0  0  0  0  0  0
  -31.5200  -17.8140   21.3260 C   0  0  0  0  0  3  0  0  0  0  0  0
  -30.1040  -15.4650   20.5530 N   0  0  0  0  0  0  0  0  0  0  0  0
  -25.2960  -13.7270   20.3650 C   0  0  0  0  0  0  0  0  0  0  0  0
  -24.2760  -12.9380   20.8230 C   0  0  0  0  0  0  0  0  0  0  0  0
  -24.7450  -11.5900   20.7380 C   0  0  0  0  0  0  0  0  0  0  0  0
  -26.3260  -12.8570   20.0350 N   0  0  0  0  0  0  0  0  0  0  0  0
  -26.0010  -11.5690   20.3150 N   0  0  0  0  0  0  0  0  0  0  0  0
  -24.0540  -10.3180   20.9840 C   0  0  0  0  0  0  0  0  0  0  0  0
  -24.5120   -9.4070   21.9620 C   0  0  0  0  0  3  0  0  0  0  0  0
  -23.8210   -8.2000   22.1940 C   0  0  0  0  0  3  0  0  0  0  0  0
  -22.6590   -7.8930   21.4470 C   0  0  0  0  0  0  0  0  0  0  0  0
  -22.2210   -8.7920   20.4590 C   0  0  0  0  0  3  0  0  0  0  0  0
  -22.9130   -9.9920   20.2260 C   0  0  0  0  0  3  0  0  0  0  0  0
  -21.9400   -6.7290   21.5850 O   0  0  0  0  0  0  0  0  0  0  0  0
  -21.8170   -6.0970   22.7960 C   0  0  0  0  0  0  0  0  0  0  0  0
  -21.2530   -6.7420   23.9190 C   0  0  0  0  0  3  0  0  0  0  0  0
  -21.0840   -6.0330   25.1250 C   0  0  0  0  0  3  0  0  0  0  0  0
  -21.4660   -4.6810   25.2070 C   0  0  0  0  0  0  0  0  0  0  0  0
  -22.0220   -4.0370   24.0900 C   0  0  0  0  0  3  0  0  0  0  0  0
  -22.1950   -4.7420   22.8870 C   0  0  0  0  0  0  0  0  0  0  0  0
  -22.7120   -4.1100   21.8050 F   0  0  0  0  0  0  0  0  0  0  0  0
  -21.2950   -3.9980   26.3650 F   0  0  0  0  0  0  0  0  0  0  0  0
  -22.9030  -13.3940   21.2280 C   0  0  0  0  0  0  0  0  0  0  0  0
  -22.2760  -12.6930   22.1650 N   0  0  0  0  0  0  0  0  0  0  0  0
  -22.3990  -14.4110   20.7500 O   0  0  0  0  0  0  0  0  0  0  0  0
  -22.6960  -11.8700   22.5700 H   0  0  0  0  0  0  0  0  0  0  0  0
  -21.3620  -12.9850   22.4840 H   0  0  0  0  0  0  0  0  0  0  0  0
  -25.4290  -15.0990   20.1840 N   0  0  0  0  0  0  0  0  0  0  0  0
  -24.6810  -15.7520   20.3960 H   0  0  0  0  0  0  0  0  0  0  0  0
  -26.2570  -15.5540   19.8170 H   0  0  0  0  0  0  0  0  0  0  0  0
  -30.6070  -22.7740   22.4700 C   0  0  0  0  0  2  0  0  0  0  0  0
  -29.1010  -22.5530   22.2080 C   0  0  0  0  0  2  0  0  0  0  0  0
  -28.3730  -23.7700   21.5940 C   0  0  0  0  0  2  0  0  0  0  0  0
  -28.8910  -24.1660   20.1910 C   0  0  0  0  0  2  0  0  0  0  0  0
  -27.9180  -25.0420   19.3710 C   0  0  0  0  0  2  0  0  0  0  0  0
  -27.9370  -26.4130   19.7810 O   0  0  0  0  0  0  0  0  0  0  0  0
  -24.6440  -31.6700   23.1910 C   0  0  0  0  0  0  0  0  0  0  0  0
  -26.7810  -27.1780   19.8150 C   0  0  0  0  0  0  0  0  0  0  0  0
  -23.2330  -30.4100   21.5950 C   0  0  0  0  0  3  0  0  0  0  0  0
  -24.4800  -28.8300   20.0270 C   0  0  0  0  0  0  0  0  0  0  0  0
  -25.7550  -30.6130   21.2300 C   0  0  0  0  0  2  0  0  0  0  0  0
  -25.7040  -29.2610   20.5470 C   0  0  0  0  0  0  0  0  0  0  0  0
  -26.8510  -28.4430   20.4410 C   0  0  0  0  0  3  0  0  0  0  0  0
  -25.5350  -26.7680   19.2760 C   0  0  0  0  0  3  0  0  0  0  0  0
  -24.3910  -27.5830   19.3870 C   0  0  0  0  0  3  0  0  0  0  0  0
  -23.2990  -29.7630   20.1850 C   0  0  0  0  0  2  0  0  0  0  0  0
  -24.5680  -30.9090   22.0630 N   0  0  0  0  0  0  0  0  0  0  0  0
  -23.6250  -31.9940   23.8170 O   0  0  0  0  0  0  0  0  0  0  0  0
  -22.5820  -29.4020   22.5710 C   0  0  0  0  0  0  0  0  0  0  0  0
  -21.2560  -29.2230   22.4520 N   0  0  0  0  0  0  0  0  0  0  0  0
  -23.2680  -28.7830   23.3900 O   0  0  0  0  0  0  0  0  0  0  0  0
  -20.7670  -29.7760   21.7620 H   0  0  0  0  0  0  0  0  0  0  0  0
  -17.9020  -27.9560   22.8850 C   0  0  0  0  0  0  0  0  0  0  0  0
  -20.4400  -28.2980   23.2350 C   0  0  0  0  0  3  0  0  0  0  0  0
  -20.6010  -26.8470   22.7300 C   0  0  0  0  0  2  0  0  0  0  0  0
  -19.5450  -26.4480   21.6930 C   0  0  0  0  0  2  0  0  0  0  0  0
  -18.1380  -26.5830   22.2820 C   0  0  0  0  0  2  0  0  0  0  0  0
  -18.9830  -28.7690   23.3200 C   0  0  0  0  0  0  0  0  0  0  0  0
  -18.7120  -30.0520   23.8420 C   0  0  0  0  0  3  0  0  0  0  0  0
  -17.3890  -30.5220   23.9400 C   0  0  0  0  0  3  0  0  0  0  0  0
  -16.3210  -29.7090   23.5220 C   0  0  0  0  0  3  0  0  0  0  0  0
  -16.5780  -28.4290   22.9990 C   0  0  0  0  0  3  0  0  0  0  0  0
  -26.0100  -32.1930   23.7380 C   0  0  0  0  0  3  0  0  0  0  0  0
  -25.8070  -33.5760   24.1860 N   0  0  0  0  0  0  0  0  0  0  0  0
  -26.1490  -34.6620   23.4780 C   0  0  0  0  0  0  0  0  0  0  0  0
  -26.7410  -34.5990   22.3970 O   0  0  0  0  0  0  0  0  0  0  0  0
  -25.2750  -33.7030   25.0340 H   0  0  0  0  0  0  0  0  0  0  0  0
  -24.4980  -36.5580   23.3830 C   0  0  0  0  0  1  0  0  0  0  0  0
  -25.7730  -36.0370   24.0660 C   0  0  0  0  0  3  0  0  0  0  0  0
  -28.0080  -36.7520   24.7840 C   0  0  0  0  0  1  0  0  0  0  0  0
  -26.8490  -37.0430   23.9440 N   0  0  0  0  0  0  0  0  0  0  0  0
  -26.5060  -37.9690   24.1860 H   0  0  0  0  0  0  0  0  0  0  0  0
  -26.5940  -31.3060   24.9070 C   0  0  1  0  0  0  0  0  0  0  0  0
  -25.5750  -31.0140   26.0330 C   0  0  0  0  0  1  0  0  0  0  0  0
  -27.0960  -29.9470   24.3620 C   0  0  0  0  0  1  0  0  0  0  0  0
  -27.8160  -32.0100   25.5390 C   0  0  0  0  0  1  0  0  0  0  0  0
  1  5  1  0
  2  6  2  0
  4  2  1  0
  4  1  2  0
  5  3  2  0
  5 50  1  0
  6  7  1  0
  6  3  1  0
  8 21  1  0
  9 14  1  0
 10 11  1  0
 10  9  1  0
 12 11  1  0
 12 25  1  0
 12 13  1  0
 14  8  1  0
 14 13  1  0
 15  8  2  0
 17 20  1  0
 18 16  1  0
 19 17  1  0
 19 21  1  0
 20  4  1  0
 20 16  1  0
 21 18  1  0
 22 23  2  0
 23 42  1  0
 24 23  1  0
 24 27  1  0
 25 26  1  0
 25 22  1  0
 26 24  2  0
 27 28  1  0
 28 29  2  0
 30 33  1  0
 30 29  1  0
 31 30  2  0
 32 31  1  0
 32 27  2  0
 33 34  1  0
 34 39  2  0
 34 35  1  0
 35 36  2  0
 36 37  1  0
 37 41  1  0
 38 37  2  0
 39 38  1  0
 40 39  1  0
 42 43  1  0
 43 46  1  0
 43 45  1  0
 44 42  2  0
 47 22  1  0
 47 48  1  0
 49 47  1  0
 51 50  1  0
 52 51  1  0
 53 52  1  0
 54 55  1  0
 54 53  1  0
 55 57  1  0
 56 67  2  0
 57 62  1  0
 58 66  1  0
 58 68  1  0
 59 65  1  0
 59 61  1  0
 60 66  1  0
 61 60  1  0
 62 61  2  0
 63 64  1  0
 63 57  2  0
 64 59  2  0
 65 58  1  0
 66 56  1  0
 68 70  2  0
 69 68  1  0
 71 69  1  0
 72 81  2  0
 72 77  1  0
 73 69  1  0
 73 77  1  0
 74 73  1  0
 75 76  1  0
 75 74  1  0
 76 72  1  0
 77 78  2  0
 78 79  1  0
 80 79  2  0
 81 80  1  0
 82 56  1  0
 82 83  1  0
 82 92  1  0
 83 86  1  0
 84 88  1  0
 84 83  1  0
 85 84  2  0
 88 87  1  0
 90 88  1  0
 90 91  1  0
 90 89  1  0
 92 95  1  1
 92 93  1  0
 94 92  1  0
M  ISO  4   8 100  21 100  54 101  55 101
M  END
>  <TORSDO>  (18) 
F 21

>  <SCORE>  (18) 
-11.887

>  <name>  (18) 
18

>  <ligand_id>  (18) 
18

>  <original_smiles>  (18) 
[H]c1c([H])c([H])c2c(c1[H])C([H])([H])C([H])([H])C([H])([H])C2([H])N([H])C(=O)C1([H])N(C(=O)C([H])(N([H])C(=O)C([H])(N([H])C([H])([H])[H])C([H])([H])[H])C(C([H])([H])[H])(C([H])([H])[H])C([H])([H])[H])C([H])([H])c2c([H])c(OC([H])([H])C([H])([H])C([H])([H])C([H])([H])C([H])([H])c3c([H])c(F)c([H])c(C4([H])C([H])([H])C([H])([H])N(C(=O)N5C([H])([H])C([H])([H])C([H])([H])C([H])(n6nc(-c7c([H])c([H])c(Oc8c([H])c([H])c(F)c([H])c8F)c([H])c7[H])c(C(=O)N([H])[H])c6N([H])[H])C5([H])[H])C([H])([H])C4([H])[H])c3[H])c([H])c([H])c2C1([H])[H]

>  <smiles>  (18) 
[H]c1c([H])c([H])c2c(c1[H])C([H])([H])C([H])([H])C([H])([H])C2([H])N([H])C(=O)C1([H])N(C(=O)C([H])(N([H])C(=O)C([H])(N([H])C([H])([H])[H])C([H])([H])[H])C(C([H])([H])[H])(C([H])([H])[H])C([H])([H])[H])C([H])([H])c2c([H])c(OC([H])([H])C([H])([H])C([H])([H])C([H])([H])C([H])([H])c3c([H])c(F)c([H])c(C4([H])C([H])([H])C([H])([H])N(C(=O)N5C([H])([H])C([H])([H])C([H])([H])C([H])(n6nc(-c7c([H])c([H])c(Oc8c([H])c([H])c(F)c([H])c8F)c([H])c7[H])c(C(=O)N([H])[H])c6N([H])[H])C5([H])[H])C([H])([H])C4([H])[H])c3[H])c([H])c([H])c2C1([H])[H]

$$$$
19:0:0
     RDKit          3D

 93100  0  0  1  0  0  0  0  0999 V2000
  -28.8560  -22.9360   20.5390 N   0  0  0  0  0  0  0  0  0  0  0  0
  -29.0800  -24.3580   20.9130 C   0  0  0  0  0  2  0  0  0  0  0  0
  -28.4810  -25.3950   19.9140 C   0  0  0  0  0  2  0  0  0  0  0  0
  -28.5420  -26.7810   20.3570 O   0  0  0  0  0  0  0  0  0  0  0  0
  -24.5570  -31.9480   23.2910 C   0  0  0  0  0  0  0  0  0  0  0  0
  -27.3790  -27.5380   20.2740 C   0  0  0  0  0  0  0  0  0  0  0  0
  -23.4340  -30.5240   21.6140 C   0  0  0  0  0  3  0  0  0  0  0  0
  -24.9630  -29.0330   20.2250 C   0  0  0  0  0  0  0  0  0  0  0  0
  -25.9630  -30.9290   21.5010 C   0  0  0  0  0  2  0  0  0  0  0  0
  -26.0950  -29.5610   20.8560 C   0  0  0  0  0  0  0  0  0  0  0  0
  -27.3040  -28.8190   20.8820 C   0  0  0  0  0  3  0  0  0  0  0  0
  -26.2290  -27.0650   19.5940 C   0  0  0  0  0  3  0  0  0  0  0  0
  -25.0260  -27.7850   19.5950 C   0  0  0  0  0  3  0  0  0  0  0  0
  -23.7000  -29.8620   20.2380 C   0  0  0  0  0  2  0  0  0  0  0  0
  -24.6670  -31.1510   22.1930 N   0  0  0  0  0  0  0  0  0  0  0  0
  -23.4500  -32.1950   23.7950 O   0  0  0  0  0  0  0  0  0  0  0  0
  -22.7800  -29.4820   22.5510 C   0  0  0  0  0  0  0  0  0  0  0  0
  -21.4570  -29.2900   22.4060 N   0  0  0  0  0  0  0  0  0  0  0  0
  -23.4580  -28.8530   23.3670 O   0  0  0  0  0  0  0  0  0  0  0  0
  -20.9700  -29.8500   21.7210 H   0  0  0  0  0  0  0  0  0  0  0  0
  -18.0800  -28.0970   22.8880 C   0  0  0  0  0  0  0  0  0  0  0  0
  -20.6400  -28.3360   23.1570 C   0  0  0  0  0  3  0  0  0  0  0  0
  -20.7340  -26.9200   22.5430 C   0  0  0  0  0  2  0  0  0  0  0  0
  -19.6260  -26.6270   21.5290 C   0  0  0  0  0  2  0  0  0  0  0  0
  -18.2460  -26.7640   22.1800 C   0  0  0  0  0  2  0  0  0  0  0  0
  -19.2040  -28.8420   23.3330 C   0  0  0  0  0  0  0  0  0  0  0  0
  -18.9940  -30.0910   23.9560 C   0  0  0  0  0  3  0  0  0  0  0  0
  -17.6940  -30.5940   24.1430 C   0  0  0  0  0  3  0  0  0  0  0  0
  -16.5830  -29.8450   23.7150 C   0  0  0  0  0  3  0  0  0  0  0  0
  -16.7780  -28.5980   23.0930 C   0  0  0  0  0  3  0  0  0  0  0  0
  -25.8060  -32.6110   23.9490 C   0  0  0  0  0  3  0  0  0  0  0  0
  -26.2860  -31.8700   25.2570 C   0  0  1  0  0  0  0  0  0  0  0  0
  -25.1540  -31.6200   26.2810 C   0  0  0  0  0  1  0  0  0  0  0  0
  -26.9190  -30.5020   24.9120 C   0  0  0  0  0  1  0  0  0  0  0  0
  -27.3880  -32.7010   25.9550 C   0  0  0  0  0  1  0  0  0  0  0  0
  -25.4640  -34.0100   24.2400 N   0  0  0  0  0  0  0  0  0  0  0  0
  -25.8060  -35.0510   23.4710 C   0  0  0  0  0  0  0  0  0  0  0  0
  -26.5150  -34.9380   22.4660 O   0  0  0  0  0  0  0  0  0  0  0  0
  -24.8450  -34.1730   25.0210 H   0  0  0  0  0  0  0  0  0  0  0  0
  -24.0550  -36.7990   23.0260 C   0  0  0  0  0  1  0  0  0  0  0  0
  -25.2790  -36.4400   23.8820 C   0  0  0  0  0  3  0  0  0  0  0  0
  -27.3730  -37.3790   24.7530 C   0  0  0  0  0  1  0  0  0  0  0  0
  -26.2950  -37.5100   23.7760 N   0  0  0  0  0  0  0  0  0  0  0  0
  -25.8690  -38.4240   23.8980 H   0  0  0  0  0  0  0  0  0  0  0  0
  -27.4190  -22.6240   20.4850 C   0  0  0  0  0  2  0  0  0  0  0  0
  -27.0020  -22.3490   19.0230 C   0  0  0  0  0  2  0  0  0  0  0  0
  -25.6700  -20.8950   17.5300 C   0  0  0  0  0  1  0  0  0  0  0  0
  -26.1000  -21.1860   18.9120 N   0  0  0  0  0  4  0  0  0  0  0  0
  -26.5670  -20.3710   19.2750 H   0  0  0  0  0  0  0  0  0  0  0  0
  -25.2790  -21.3500   19.4700 H   0  0  0  0  0  0  0  0  0  0  0  0
  -29.5480  -22.0600   21.5100 C   0  0  0  0  0  2  0  0  0  0  0  0
  -29.0860  -20.5690   21.6640 C   0  0  0  0  0  2  0  0  0  0  0  0
  -29.6140  -19.5200   20.6550 C   0  0  0  0  0  2  0  0  0  0  0  0
  -29.4950  -18.0580   21.1770 C   0  0  0  0  0  2  0  0  0  0  0  0
  -30.0000  -16.9950   20.1730 C   0  0  0  0  0  2  0  0  0  0  0  0
  -30.6830  -14.5820   20.2850 C   0  0  0  0  0  0  0  0  0  0  0  0
  -30.3930  -12.4240   19.1430 C   0  0  0  0  0  2  0  0  0  0  0  0
  -29.4180  -12.6460   17.9650 C   0  0  0  0  0  2  0  0  0  0  0  0
  -27.9510  -12.5200   18.4270 C   0  0  0  0  0  2  0  0  0  0  0  0
  -27.6550  -13.3340   19.7150 C   0  0  0  0  0  3  0  0  0  0  0  0
  -28.7330  -13.0760   20.7930 C   0  0  0  0  0  2  0  0  0  0  0  0
  -30.0440  -13.3850   20.2000 N   0  0  0  0  0  0  0  0  0  0  0  0
  -31.8150  -14.7740   19.8310 O   0  0  0  0  0  0  0  0  0  0  0  0
  -29.8930  -15.6070   20.6620 N   0  0  0  0  0  0  0  0  0  0  0  0
  -28.9940  -15.3360   21.0340 H   0  0  0  0  0  0  0  0  0  0  0  0
  -25.2820  -13.9600   20.4890 C   0  0  0  0  0  0  0  0  0  0  0  0
  -24.2130  -13.1930   20.8660 C   0  0  0  0  0  0  0  0  0  0  0  0
  -24.6550  -11.8370   20.7980 C   0  0  0  0  0  0  0  0  0  0  0  0
  -26.3090  -13.0700   20.2180 N   0  0  0  0  0  0  0  0  0  0  0  0
  -25.9370  -11.7880   20.4600 N   0  0  0  0  0  0  0  0  0  0  0  0
  -23.9190  -10.5810   20.9790 C   0  0  0  0  0  0  0  0  0  0  0  0
  -24.3570   -9.5930   21.8900 C   0  0  0  0  0  3  0  0  0  0  0  0
  -23.6240   -8.4010   22.0590 C   0  0  0  0  0  3  0  0  0  0  0  0
  -22.4360   -8.1860   21.3180 C   0  0  0  0  0  0  0  0  0  0  0  0
  -22.0160   -9.1610   20.3960 C   0  0  0  0  0  3  0  0  0  0  0  0
  -22.7520  -10.3470   20.2250 C   0  0  0  0  0  3  0  0  0  0  0  0
  -21.6740   -7.0470   21.3980 O   0  0  0  0  0  0  0  0  0  0  0  0
  -21.6210   -6.2940   22.5440 C   0  0  0  0  0  0  0  0  0  0  0  0
  -21.2170   -6.8440   23.7790 C   0  0  0  0  0  3  0  0  0  0  0  0
  -21.1120   -6.0200   24.9160 C   0  0  0  0  0  3  0  0  0  0  0  0
  -21.4010   -4.6450   24.8180 C   0  0  0  0  0  0  0  0  0  0  0  0
  -21.7990   -4.0950   23.5870 C   0  0  0  0  0  3  0  0  0  0  0  0
  -21.9060   -4.9170   22.4530 C   0  0  0  0  0  0  0  0  0  0  0  0
  -22.2690   -4.3770   21.2640 F   0  0  0  0  0  0  0  0  0  0  0  0
  -21.2930   -3.8510   25.9090 F   0  0  0  0  0  0  0  0  0  0  0  0
  -22.8280  -13.6840   21.1780 C   0  0  0  0  0  0  0  0  0  0  0  0
  -22.1140  -12.9830   22.0520 N   0  0  0  0  0  0  0  0  0  0  0  0
  -22.3870  -14.7200   20.6830 O   0  0  0  0  0  0  0  0  0  0  0  0
  -22.4830  -12.1440   22.4750 H   0  0  0  0  0  0  0  0  0  0  0  0
  -21.1840  -13.2910   22.3030 H   0  0  0  0  0  0  0  0  0  0  0  0
  -25.4610  -15.3310   20.3320 N   0  0  0  0  0  0  0  0  0  0  0  0
  -24.6990  -15.9870   20.4640 H   0  0  0  0  0  0  0  0  0  0  0  0
  -26.2950  -15.7590   19.9510 H   0  0  0  0  0  0  0  0  0  0  0  0
  1  2  1  0
  1 51  1  0
  3  4  1  0
  3  2  1  0
  5 16  2  0
  6  4  1  0
  6 11  1  0
  7 15  1  0
  7 17  1  0
  8 14  1  0
  8 10  1  0
  9 15  1  0
 10 11  2  0
 10  9  1  0
 12 13  1  0
 12  6  2  0
 13  8  2  0
 14  7  1  0
 15  5  1  0
 17 19  2  0
 18 17  1  0
 20 18  1  0
 21 30  2  0
 21 26  1  0
 22 18  1  0
 22 26  1  0
 23 22  1  0
 24 25  1  0
 24 23  1  0
 25 21  1  0
 26 27  2  0
 27 28  1  0
 29 28  2  0
 30 29  1  0
 31  5  1  0
 31 36  1  0
 31 32  1  0
 32 35  1  1
 32 33  1  0
 34 32  1  0
 36 39  1  0
 37 41  1  0
 37 36  1  0
 38 37  2  0
 41 40  1  0
 43 41  1  0
 43 44  1  0
 43 42  1  0
 45  1  1  0
 46 45  1  0
 47 48  1  0
 48 46  1  0
 48 49  1  0
 48 50  1  0
 51 52  1  0
 53 54  1  0
 53 52  1  0
 55 64  1  0
 55 54  1  0
 56 64  1  0
 57 62  1  0
 58 59  1  0
 58 57  1  0
 60 59  1  0
 60 69  1  0
 60 61  1  0
 62 56  1  0
 62 61  1  0
 63 56  2  0
 64 65  1  0
 66 67  2  0
 67 86  1  0
 68 67  1  0
 68 71  1  0
 69 70  1  0
 69 66  1  0
 70 68  2  0
 71 72  1  0
 72 73  2  0
 74 77  1  0
 74 73  1  0
 75 74  2  0
 76 75  1  0
 76 71  2  0
 77 78  1  0
 78 79  1  0
 79 80  2  0
 81 80  1  0
 81 85  1  0
 82 81  2  0
 83 78  2  0
 83 82  1  0
 84 83  1  0
 86 87  1  0
 87 90  1  0
 87 89  1  0
 88 86  2  0
 91 92  1  0
 91 66  1  0
 93 91  1  0
M  ISO  4   3 101   4 101  56 100  64 100
M  END
>  <TORSDO>  (19) 
F 26

>  <SCORE>  (19) 
-11.742

>  <name>  (19) 
19

>  <ligand_id>  (19) 
19

>  <original_smiles>  (19) 
[H]c1c([H])c([H])c2c(c1[H])C([H])([H])C([H])([H])C([H])([H])C2([H])N([H])C(=O)C1([H])N(C(=O)C([H])(N([H])C(=O)C([H])(N([H])C([H])([H])[H])C([H])([H])[H])C(C([H])([H])[H])(C([H])([H])[H])C([H])([H])[H])C([H])([H])c2c([H])c(OC([H])([H])C([H])([H])N(C([H])([H])C([H])([H])C([H])([H])C([H])([H])C([H])([H])N([H])C(=O)N3C([H])([H])C([H])([H])C([H])([H])C([H])(n4nc(-c5c([H])c([H])c(Oc6c([H])c([H])c(F)c([H])c6F)c([H])c5[H])c(C(=O)N([H])[H])c4N([H])[H])C3([H])[H])C([H])([H])C([H])([H])[N+]([H])([H])C([H])([H])[H])c([H])c([H])c2C1([H])[H]

>  <smiles>  (19) 
[H]c1c([H])c([H])c2c(c1[H])C([H])([H])C([H])([H])C([H])([H])C2([H])N([H])C(=O)C1([H])N(C(=O)C([H])(N([H])C(=O)C([H])(N([H])C([H])([H])[H])C([H])([H])[H])C(C([H])([H])[H])(C([H])([H])[H])C([H])([H])[H])C([H])([H])c2c([H])c(OC([H])([H])C([H])([H])N(C([H])([H])C([H])([H])C([H])([H])C([H])([H])C([H])([H])N([H])C(=O)N3C([H])([H])C([H])([H])C([H])([H])C([H])(n4nc(-c5c([H])c([H])c(Oc6c([H])c([H])c(F)c([H])c6F)c([H])c5[H])c(C(=O)N([H])[H])c4N([H])[H])C3([H])[H])C([H])([H])C([H])([H])[N+]([H])([H])C([H])([H])[H])c([H])c([H])c2C1([H])[H]

$$$$
20:0:0
     RDKit          3D

 93100  0  0  1  0  0  0  0  0999 V2000
  -26.4270  -22.6850   20.8560 N   0  0  0  0  0  4  0  0  0  0  0  0
  -27.1970  -23.1840   21.2710 H   0  0  0  0  0  0  0  0  0  0  0  0
  -25.5980  -22.9690   21.3580 H   0  0  0  0  0  0  0  0  0  0  0  0
  -24.8520  -23.0760   18.9620 C   0  0  0  0  0  1  0  0  0  0  0  0
  -26.3190  -23.1080   19.4360 C   0  0  0  0  0  3  0  0  0  0  0  0
  -26.9010  -24.5200   19.2490 C   0  0  0  0  0  3  0  0  0  0  0  0
  -28.4370  -24.6680   19.4110 C   0  0  0  0  0  3  0  0  0  0  0  0
  -29.0820  -25.9860   18.8810 C   0  0  0  0  0  2  0  0  0  0  0  0
  -29.0310  -27.1400   19.7420 O   0  0  0  0  0  0  0  0  0  0  0  0
  -25.1650  -31.5920   23.7560 C   0  0  0  0  0  0  0  0  0  0  0  0
  -27.8720  -27.8860   19.8390 C   0  0  0  0  0  0  0  0  0  0  0  0
  -23.9940  -30.5720   21.8360 C   0  0  0  0  0  3  0  0  0  0  0  0
  -25.4800  -29.3750   20.1470 C   0  0  0  0  0  0  0  0  0  0  0  0
  -26.5330  -30.9300   21.7850 C   0  0  0  0  0  2  0  0  0  0  0  0
  -26.6250  -29.7280   20.8740 C   0  0  0  0  0  0  0  0  0  0  0  0
  -27.8130  -28.9670   20.7470 C   0  0  0  0  0  3  0  0  0  0  0  0
  -26.7310  -27.6190   19.0520 C   0  0  0  0  0  3  0  0  0  0  0  0
  -25.5260  -28.3100   19.2390 C   0  0  0  0  0  3  0  0  0  0  0  0
  -24.2360  -30.2090   20.3500 C   0  0  0  0  0  2  0  0  0  0  0  0
  -25.2480  -31.0300   22.5190 N   0  0  0  0  0  0  0  0  0  0  0  0
  -24.0720  -31.7510   24.3170 O   0  0  0  0  0  0  0  0  0  0  0  0
  -23.3320  -29.3660   22.5380 C   0  0  0  0  0  0  0  0  0  0  0  0
  -22.0200  -29.1880   22.3100 N   0  0  0  0  0  0  0  0  0  0  0  0
  -23.9960  -28.6050   23.2480 O   0  0  0  0  0  0  0  0  0  0  0  0
  -21.5500  -29.8710   21.7340 H   0  0  0  0  0  0  0  0  0  0  0  0
  -18.6670  -27.8440   22.3370 C   0  0  0  0  0  0  0  0  0  0  0  0
  -21.1900  -28.1050   22.8340 C   0  0  0  0  0  3  0  0  0  0  0  0
  -21.3800  -26.8030   22.0220 C   0  0  0  0  0  2  0  0  0  0  0  0
  -20.3610  -26.6460   20.8890 C   0  0  0  0  0  2  0  0  0  0  0  0
  -18.9350  -26.6440   21.4430 C   0  0  0  0  0  2  0  0  0  0  0  0
  -19.7270  -28.5410   22.9750 C   0  0  0  0  0  0  0  0  0  0  0  0
  -19.4260  -29.6720   23.7630 C   0  0  0  0  0  3  0  0  0  0  0  0
  -18.0950  -30.1090   23.9170 C   0  0  0  0  0  3  0  0  0  0  0  0
  -17.0490  -29.4040   23.2990 C   0  0  0  0  0  3  0  0  0  0  0  0
  -17.3360  -28.2730   22.5160 C   0  0  0  0  0  3  0  0  0  0  0  0
  -26.4350  -32.0760   24.5190 C   0  0  0  0  0  3  0  0  0  0  0  0
  -26.7720  -31.1910   25.7820 C   0  0  1  0  0  0  0  0  0  0  0  0
  -25.5660  -30.9650   26.7260 C   0  0  0  0  0  1  0  0  0  0  0  0
  -27.2990  -29.8010   25.3520 C   0  0  0  0  0  1  0  0  0  0  0  0
  -27.9040  -31.8600   26.5980 C   0  0  0  0  0  1  0  0  0  0  0  0
  -26.2120  -33.4750   24.9040 N   0  0  0  0  0  0  0  0  0  0  0  0
  -26.6720  -34.5340   24.2250 C   0  0  0  0  0  0  0  0  0  0  0  0
  -27.3970  -34.4280   23.2320 O   0  0  0  0  0  0  0  0  0  0  0  0
  -25.5750  -33.6310   25.6710 H   0  0  0  0  0  0  0  0  0  0  0  0
  -25.0920  -36.4590   23.8680 C   0  0  0  0  0  1  0  0  0  0  0  0
  -26.2550  -35.9300   24.7230 C   0  0  0  0  0  3  0  0  0  0  0  0
  -28.3920  -36.6240   25.7140 C   0  0  0  0  0  1  0  0  0  0  0  0
  -27.3640  -36.9080   24.7170 N   0  0  0  0  0  0  0  0  0  0  0  0
  -27.0180  -37.8510   24.8790 H   0  0  0  0  0  0  0  0  0  0  0  0
  -26.6660  -21.2460   21.1070 C   0  0  0  0  0  2  0  0  0  0  0  0
  -27.9630  -20.7700   20.4240 C   0  0  0  0  0  2  0  0  0  0  0  0
  -28.6930  -19.5970   21.0880 C   0  0  0  0  0  2  0  0  0  0  0  0
  -29.7610  -19.0640   20.1260 C   0  0  0  0  0  2  0  0  0  0  0  0
  -30.8550  -18.2090   20.7840 C   0  0  0  0  0  2  0  0  0  0  0  0
  -31.3420  -17.0740   19.8560 C   0  0  0  0  0  2  0  0  0  0  0  0
  -33.0200  -15.3590   19.2290 C   0  0  0  0  0  0  0  0  0  0  0  0
  -32.5910  -13.0180   18.5920 C   0  0  0  0  0  2  0  0  0  0  0  0
  -31.5850  -12.9210   17.4260 C   0  0  0  0  0  2  0  0  0  0  0  0
  -30.1250  -12.9770   17.9250 C   0  0  0  0  0  2  0  0  0  0  0  0
  -29.8830  -14.1240   18.9370 C   0  0  0  0  0  3  0  0  0  0  0  0
  -30.9690  -14.0810   20.0320 C   0  0  0  0  0  2  0  0  0  0  0  0
  -32.2810  -14.2250   19.3730 N   0  0  0  0  0  0  0  0  0  0  0  0
  -34.0570  -15.4060   18.5660 O   0  0  0  0  0  0  0  0  0  0  0  0
  -32.6530  -16.4400   19.9420 N   0  0  0  0  0  0  0  0  0  0  0  0
  -33.4020  -17.1150   20.0180 H   0  0  0  0  0  0  0  0  0  0  0  0
  -27.6550  -15.0930   19.7950 C   0  0  0  0  0  0  0  0  0  0  0  0
  -26.5030  -14.4870   20.2300 C   0  0  0  0  0  0  0  0  0  0  0  0
  -26.7490  -13.0810   20.1600 C   0  0  0  0  0  0  0  0  0  0  0  0
  -28.5340  -14.0620   19.4980 N   0  0  0  0  0  0  0  0  0  0  0  0
  -27.9950  -12.8470   19.7700 N   0  0  0  0  0  0  0  0  0  0  0  0
  -25.8510  -11.9410   20.3920 C   0  0  0  0  0  0  0  0  0  0  0  0
  -26.1450  -10.9580   21.3630 C   0  0  0  0  0  3  0  0  0  0  0  0
  -25.2590   -9.8800   21.5810 C   0  0  0  0  0  3  0  0  0  0  0  0
  -24.0640   -9.7810   20.8290 C   0  0  0  0  0  0  0  0  0  0  0  0
  -23.7890  -10.7490   19.8480 C   0  0  0  0  0  3  0  0  0  0  0  0
  -24.6730  -11.8190   19.6260 C   0  0  0  0  0  3  0  0  0  0  0  0
  -23.1590   -8.7530   20.9510 O   0  0  0  0  0  0  0  0  0  0  0  0
  -22.8290   -8.2320   22.1760 C   0  0  0  0  0  0  0  0  0  0  0  0
  -22.3550   -9.0450   23.2300 C   0  0  0  0  0  3  0  0  0  0  0  0
  -21.9600   -8.4580   24.4490 C   0  0  0  0  0  3  0  0  0  0  0  0
  -22.0290   -7.0610   24.6130 C   0  0  0  0  0  0  0  0  0  0  0  0
  -22.4980   -6.2500   23.5660 C   0  0  0  0  0  3  0  0  0  0  0  0
  -22.8950   -6.8340   22.3490 C   0  0  0  0  0  0  0  0  0  0  0  0
  -23.3240   -6.0490   21.3340 F   0  0  0  0  0  0  0  0  0  0  0  0
  -21.6440   -6.4960   25.7820 F   0  0  0  0  0  0  0  0  0  0  0  0
  -25.2160  -15.1680   20.5980 C   0  0  0  0  0  0  0  0  0  0  0  0
  -24.4780  -14.5990   21.5470 N   0  0  0  0  0  0  0  0  0  0  0  0
  -24.8810  -16.2310   20.0810 O   0  0  0  0  0  0  0  0  0  0  0  0
  -24.7670  -13.7350   21.9790 H   0  0  0  0  0  0  0  0  0  0  0  0
  -23.6170  -15.0320   21.8430 H   0  0  0  0  0  0  0  0  0  0  0  0
  -28.0210  -16.4200   19.6100 N   0  0  0  0  0  0  0  0  0  0  0  0
  -27.3880  -17.1930   19.7750 H   0  0  0  0  0  0  0  0  0  0  0  0
  -28.9230  -16.7070   19.2530 H   0  0  0  0  0  0  0  0  0  0  0  0
  1 50  1  0
  1  2  1  0
  1  3  1  0
  5  4  1  0
  5  1  1  0
  6  7  2  0
  6  5  1  0
  8  7  1  0
  8  9  1  0
  9 11  1  0
 10 21  2  0
 11 16  1  0
 12 20  1  0
 12 22  1  0
 13 19  1  0
 13 15  1  0
 14 20  1  0
 15 14  1  0
 16 15  2  0
 17 18  1  0
 17 11  2  0
 18 13  2  0
 19 12  1  0
 20 10  1  0
 22 24  2  0
 23 22  1  0
 25 23  1  0
 26 35  2  0
 26 31  1  0
 27 23  1  0
 27 31  1  0
 28 27  1  0
 29 30  1  0
 29 28  1  0
 30 26  1  0
 31 32  2  0
 32 33  1  0
 34 33  2  0
 35 34  1  0
 36 10  1  0
 36 41  1  0
 36 37  1  0
 37 40  1  1
 37 38  1  0
 39 37  1  0
 41 44  1  0
 42 46  1  0
 42 41  1  0
 43 42  2  0
 46 45  1  0
 48 46  1  0
 48 49  1  0
 48 47  1  0
 51 52  1  0
 51 50  1  0
 53 54  1  0
 53 52  1  0
 55 64  1  0
 55 54  1  0
 56 62  1  0
 56 64  1  0
 57 62  1  0
 58 59  1  0
 58 57  1  0
 60 59  1  0
 60 69  1  0
 60 61  1  0
 62 61  1  0
 63 56  2  0
 64 65  1  0
 66 67  2  0
 67 86  1  0
 68 67  1  0
 68 71  1  0
 69 70  1  0
 69 66  1  0
 70 68  2  0
 71 72  1  0
 72 73  2  0
 74 77  1  0
 74 73  1  0
 75 74  2  0
 76 75  1  0
 76 71  2  0
 77 78  1  0
 78 83  2  0
 78 79  1  0
 79 80  2  0
 80 81  1  0
 81 85  1  0
 82 81  2  0
 83 82  1  0
 84 83  1  0
 86 87  1  0
 87 90  1  0
 87 89  1  0
 88 86  2  0
 91 92  1  0
 91 66  1  0
 93 91  1  0
M  ISO  4   8 101   9 101  56 100  64 100
M  END
>  <TORSDO>  (20) 
F 26

>  <SCORE>  (20) 
-5.393

>  <name>  (20) 
20

>  <ligand_id>  (20) 
20

>  <original_smiles>  (20) 
[H]c1c([H])c([H])c2c(c1[H])C([H])([H])C([H])([H])C([H])([H])C2([H])N([H])C(=O)C1([H])N(C(=O)C([H])(N([H])C(=O)C([H])(N([H])C([H])([H])[H])C([H])([H])[H])C(C([H])([H])[H])(C([H])([H])[H])C([H])([H])[H])C([H])([H])c2c([H])c(OC([H])([H])C([H])([H])C([H])([H])C([H])(C([H])([H])[H])[N+]([H])([H])C([H])([H])C([H])([H])C([H])([H])C([H])([H])C([H])([H])C([H])([H])N([H])C(=O)N3C([H])([H])C([H])([H])C([H])([H])C([H])(n4nc(-c5c([H])c([H])c(Oc6c([H])c([H])c(F)c([H])c6F)c([H])c5[H])c(C(=O)N([H])[H])c4N([H])[H])C3([H])[H])c([H])c([H])c2C1([H])[H]

>  <smiles>  (20) 
[H]c1c([H])c([H])c2c(c1[H])C([H])([H])C([H])([H])C([H])([H])C2([H])N([H])C(=O)C1([H])N(C(=O)C([H])(N([H])C(=O)C([H])(N([H])C([H])([H])[H])C([H])([H])[H])C(C([H])([H])[H])(C([H])([H])[H])C([H])([H])[H])C([H])([H])c2c([H])c(OC([H])([H])C([H])([H])C([H])([H])C([H])(C([H])([H])[H])[N+]([H])([H])C([H])([H])C([H])([H])C([H])([H])C([H])([H])C([H])([H])C([H])([H])N([H])C(=O)N3C([H])([H])C([H])([H])C([H])([H])C([H])(n4nc(-c5c([H])c([H])c(Oc6c([H])c([H])c(F)c([H])c6F)c([H])c5[H])c(C(=O)N([H])[H])c4N([H])[H])C3([H])[H])c([H])c([H])c2C1([H])[H]

$$$$
21:0:0
     RDKit          3D

 95103  0  0  1  0  0  0  0  0999 V2000
  -26.8340  -23.2650   22.3200 C   0  0  0  0  0  3  0  0  0  0  0  0
  -27.0360  -24.6340   22.5420 C   0  0  0  0  0  3  0  0  0  0  0  0
  -28.4910  -23.3290   20.5470 C   0  0  0  0  0  3  0  0  0  0  0  0
  -27.5380  -22.6020   21.2960 C   0  0  0  0  0  0  0  0  0  0  0  0
  -28.6750  -24.7220   20.7230 C   0  0  0  0  0  0  0  0  0  0  0  0
  -27.9270  -25.3760   21.7400 C   0  0  0  0  0  0  0  0  0  0  0  0
  -27.9700  -26.7170   21.9610 O   0  0  0  0  0  0  0  0  0  0  0  0
  -27.2600  -27.0110   22.5220 H   0  0  0  0  0  0  0  0  0  0  0  0
  -27.1350  -21.1640   20.9740 C   0  0  0  0  0  2  0  0  0  0  0  0
  -27.8880  -20.4290   19.8500 C   0  0  0  0  0  2  0  0  0  0  0  0
  -29.2380  -19.9040   20.3450 C   0  0  0  0  0  2  0  0  0  0  0  0
  -29.8090  -18.7110   19.5650 C   0  0  0  0  0  2  0  0  0  0  0  0
  -30.9270  -18.0530   20.3930 C   0  0  0  0  0  2  0  0  0  0  0  0
  -31.7190  -16.9450   19.6860 C   0  0  0  0  0  2  0  0  0  0  0  0
  -31.6820  -14.4930   19.4470 C   0  0  0  0  0  0  0  0  0  0  0  0
  -31.3830  -12.0580   19.2360 C   0  0  0  0  0  2  0  0  0  0  0  0
  -30.3900  -11.7480   18.1020 C   0  0  0  0  0  2  0  0  0  0  0  0
  -28.9360  -11.7870   18.6160 C   0  0  0  0  0  2  0  0  0  0  0  0
  -28.6290  -13.0630   19.4440 C   0  0  0  0  0  3  0  0  0  0  0  0
  -29.7260  -13.3040   20.5030 C   0  0  0  0  0  2  0  0  0  0  0  0
  -31.0220  -13.3640   19.8030 N   0  0  0  0  0  0  0  0  0  0  0  0
  -32.7200  -14.5000   18.7800 O   0  0  0  0  0  0  0  0  0  0  0  0
  -31.1070  -15.6340   19.8430 N   0  0  0  0  0  0  0  0  0  0  0  0
  -30.2340  -15.5670   20.3440 H   0  0  0  0  0  0  0  0  0  0  0  0
  -26.4670  -14.0320   20.4560 C   0  0  0  0  0  0  0  0  0  0  0  0
  -25.3120  -13.4340   20.8780 C   0  0  0  0  0  0  0  0  0  0  0  0
  -25.5020  -12.0300   20.6910 C   0  0  0  0  0  0  0  0  0  0  0  0
  -27.3000  -13.0020   20.0470 N   0  0  0  0  0  0  0  0  0  0  0  0
  -26.7250  -11.7880   20.2430 N   0  0  0  0  0  0  0  0  0  0  0  0
  -24.5720  -10.9060   20.8580 C   0  0  0  0  0  0  0  0  0  0  0  0
  -24.8890   -9.8040   21.6820 C   0  0  0  0  0  3  0  0  0  0  0  0
  -23.9750   -8.7420   21.8440 C   0  0  0  0  0  3  0  0  0  0  0  0
  -22.7270   -8.7760   21.1760 C   0  0  0  0  0  0  0  0  0  0  0  0
  -22.4230   -9.8670   20.3410 C   0  0  0  0  0  3  0  0  0  0  0  0
  -23.3370  -10.9210   20.1810 C   0  0  0  0  0  3  0  0  0  0  0  0
  -21.7850   -7.7790   21.2510 O   0  0  0  0  0  0  0  0  0  0  0  0
  -21.6090   -7.0400   22.3920 C   0  0  0  0  0  0  0  0  0  0  0  0
  -21.3100   -7.6440   23.6330 C   0  0  0  0  0  3  0  0  0  0  0  0
  -21.0680   -6.8440   24.7660 C   0  0  0  0  0  3  0  0  0  0  0  0
  -21.1140   -5.4400   24.6610 C   0  0  0  0  0  0  0  0  0  0  0  0
  -21.4060   -4.8360   23.4250 C   0  0  0  0  0  3  0  0  0  0  0  0
  -21.6490   -5.6340   22.2930 C   0  0  0  0  0  0  0  0  0  0  0  0
  -21.9080   -5.0470   21.1000 F   0  0  0  0  0  0  0  0  0  0  0  0
  -20.8740   -4.6690   25.7470 F   0  0  0  0  0  0  0  0  0  0  0  0
  -24.0600  -14.1240   21.3400 C   0  0  0  0  0  0  0  0  0  0  0  0
  -23.3210  -13.5090   22.2560 N   0  0  0  0  0  0  0  0  0  0  0  0
  -23.7560  -15.2430   20.9250 O   0  0  0  0  0  0  0  0  0  0  0  0
  -23.5770  -12.6000   22.6100 H   0  0  0  0  0  0  0  0  0  0  0  0
  -22.4850  -13.9580   22.6070 H   0  0  0  0  0  0  0  0  0  0  0  0
  -26.8740  -15.3610   20.3660 N   0  0  0  0  0  0  0  0  0  0  0  0
  -26.2640  -16.1320   20.6140 H   0  0  0  0  0  0  0  0  0  0  0  0
  -27.7670  -15.6660   20.0010 H   0  0  0  0  0  0  0  0  0  0  0  0
  -29.5370  -25.4010   19.6470 C   0  0  0  0  0  2  0  0  0  0  0  0
  -30.3880  -26.6580   19.9300 C   0  0  0  0  0  2  0  0  0  0  0  0
  -29.8830  -27.7320   19.1340 O   0  0  0  0  0  0  0  0  0  0  0  0
  -25.7010  -30.3500   24.2660 C   0  0  0  0  0  0  0  0  0  0  0  0
  -28.6320  -28.1580   19.5080 C   0  0  0  0  0  0  0  0  0  0  0  0
  -24.5470  -29.5670   22.2200 C   0  0  0  0  0  3  0  0  0  0  0  0
  -26.0550  -29.0270   20.2350 C   0  0  0  0  0  0  0  0  0  0  0  0
  -26.9520  -30.4160   22.1170 C   0  0  0  0  0  2  0  0  0  0  0  0
  -27.1710  -29.4640   20.9620 C   0  0  0  0  0  0  0  0  0  0  0  0
  -28.4610  -29.0230   20.6100 C   0  0  0  0  0  3  0  0  0  0  0  0
  -27.5070  -27.7500   18.7630 C   0  0  0  0  0  3  0  0  0  0  0  0
  -26.2140  -28.1620   19.1380 C   0  0  0  0  0  3  0  0  0  0  0  0
  -24.7110  -29.5520   20.6760 C   0  0  0  0  0  2  0  0  0  0  0  0
  -25.7560  -30.1010   22.9270 N   0  0  0  0  0  0  0  0  0  0  0  0
  -24.6520  -30.1850   24.9040 O   0  0  0  0  0  0  0  0  0  0  0  0
  -24.1470  -28.1490   22.6870 C   0  0  0  0  0  0  0  0  0  0  0  0
  -22.9840  -27.6700   22.2150 N   0  0  0  0  0  0  0  0  0  0  0  0
  -24.8850  -27.4970   23.4320 O   0  0  0  0  0  0  0  0  0  0  0  0
  -22.4400  -28.2620   21.6040 H   0  0  0  0  0  0  0  0  0  0  0  0
  -20.3140  -25.4010   21.3370 C   0  0  0  0  0  0  0  0  0  0  0  0
  -22.4330  -26.3410   22.4810 C   0  0  0  0  0  3  0  0  0  0  0  0
  -23.2100  -25.2540   21.7010 C   0  0  0  0  0  2  0  0  0  0  0  0
  -22.5860  -24.9270   20.3410 C   0  0  0  0  0  2  0  0  0  0  0  0
  -21.1520  -24.4300   20.5220 C   0  0  0  0  0  2  0  0  0  0  0  0
  -20.9170  -26.3080   22.2480 C   0  0  0  0  0  0  0  0  0  0  0  0
  -20.0960  -27.2070   22.9630 C   0  0  0  0  0  3  0  0  0  0  0  0
  -18.6980  -27.2070   22.7840 C   0  0  0  0  0  3  0  0  0  0  0  0
  -18.1070  -26.2940   21.8950 C   0  0  0  0  0  3  0  0  0  0  0  0
  -18.9110  -25.3930   21.1740 C   0  0  0  0  0  3  0  0  0  0  0  0
  -26.9440  -30.8770   25.0520 C   0  0  0  0  0  3  0  0  0  0  0  0
  -27.3900  -29.9200   26.2230 C   0  0  1  0  0  0  0  0  0  0  0  0
  -26.2190  -29.4250   27.1030 C   0  0  0  0  0  1  0  0  0  0  0  0
  -28.1190  -28.6780   25.6620 C   0  0  0  0  0  1  0  0  0  0  0  0
  -28.4010  -30.6500   27.1400 C   0  0  0  0  0  1  0  0  0  0  0  0
  -26.6060  -32.2090   25.5700 N   0  0  0  0  0  0  0  0  0  0  0  0
  -27.0350  -33.3620   25.0400 C   0  0  0  0  0  0  0  0  0  0  0  0
  -27.8260  -33.4090   24.0950 O   0  0  0  0  0  0  0  0  0  0  0  0
  -25.9140  -32.2490   26.3020 H   0  0  0  0  0  0  0  0  0  0  0  0
  -25.4140  -35.2620   24.7510 C   0  0  0  0  0  1  0  0  0  0  0  0
  -26.5050  -34.6710   25.6560 C   0  0  0  0  0  3  0  0  0  0  0  0
  -28.5340  -35.2810   26.8950 C   0  0  0  0  0  1  0  0  0  0  0  0
  -27.5600  -35.6830   25.8840 N   0  0  0  0  0  0  0  0  0  0  0  0
  -27.1510  -36.5700   26.1670 H   0  0  0  0  0  0  0  0  0  0  0  0
  1  2  1  0
  3  5  2  0
  3  4  1  0
  4  1  2  0
  5  6  1  0
  6  7  1  0
  6  2  2  0
  7  8  1  0
  9  4  1  0
 10 11  1  0
 10  9  1  0
 12 11  1  0
 12 13  1  0
 14 23  1  0
 14 13  1  0
 15 21  1  0
 15 23  1  0
 16 21  1  0
 17 18  1  0
 17 16  1  0
 19 18  1  0
 19 28  1  0
 19 20  1  0
 21 20  1  0
 22 15  2  0
 23 24  1  0
 25 26  2  0
 26 45  1  0
 27 30  1  0
 27 26  1  0
 28 29  1  0
 28 25  1  0
 29 27  2  0
 30 31  1  0
 31 32  2  0
 33 36  1  0
 33 32  1  0
 34 33  2  0
 35 34  1  0
 35 30  2  0
 36 37  1  0
 37 38  1  0
 38 39  2  0
 40 39  1  0
 40 44  1  0
 41 40  2  0
 42 37  2  0
 42 41  1  0
 43 42  1  0
 45 46  1  0
 46 49  1  0
 46 48  1  0
 47 45  2  0
 50 25  1  0
 50 51  1  0
 52 50  1  0
 53 54  1  0
 53  5  1  0
 55 57  1  0
 55 54  1  0
 56 67  2  0
 57 62  1  0
 58 68  1  0
 58 66  1  0
 59 65  1  0
 59 61  1  0
 60 66  1  0
 61 60  1  0
 62 61  2  0
 63 64  1  0
 63 57  2  0
 64 59  2  0
 65 58  1  0
 66 56  1  0
 68 70  2  0
 69 68  1  0
 71 69  1  0
 72 77  1  0
 73 69  1  0
 74 73  1  0
 75 76  1  0
 75 74  1  0
 76 72  1  0
 77 73  1  0
 77 78  2  0
 79 78  1  0
 80 79  2  0
 81 72  2  0
 81 80  1  0
 82 56  1  0
 82 87  1  0
 82 83  1  0
 83 84  1  1
 83 86  1  0
 85 83  1  0
 87 90  1  0
 88 87  1  0
 88 92  1  0
 89 88  2  0
 92 91  1  0
 92 94  1  0
 94 95  1  0
 94 93  1  0
M  ISO  4  15 100  23 100  54 101  55 101
M  END
>  <TORSDO>  (21) 
F 25

>  <SCORE>  (21) 
-6.599

>  <name>  (21) 
21

>  <ligand_id>  (21) 
21

>  <original_smiles>  (21) 
[H]Oc1c([H])c([H])c(C([H])([H])C([H])([H])C([H])([H])C([H])([H])C([H])([H])C([H])([H])N([H])C(=O)N2C([H])([H])C([H])([H])C([H])([H])C([H])(n3nc(-c4c([H])c([H])c(Oc5c([H])c([H])c(F)c([H])c5F)c([H])c4[H])c(C(=O)N([H])[H])c3N([H])[H])C2([H])[H])c([H])c1C([H])([H])C([H])([H])Oc1c([H])c([H])c2c(c1[H])C([H])([H])N(C(=O)C([H])(N([H])C(=O)C([H])(N([H])C([H])([H])[H])C([H])([H])[H])C(C([H])([H])[H])(C([H])([H])[H])C([H])([H])[H])C([H])(C(=O)N([H])C1([H])c3c([H])c([H])c([H])c([H])c3C([H])([H])C([H])([H])C1([H])[H])C2([H])[H]

>  <smiles>  (21) 
[H]Oc1c([H])c([H])c(C([H])([H])C([H])([H])C([H])([H])C([H])([H])C([H])([H])C([H])([H])N([H])C(=O)N2C([H])([H])C([H])([H])C([H])([H])C([H])(n3nc(-c4c([H])c([H])c(Oc5c([H])c([H])c(F)c([H])c5F)c([H])c4[H])c(C(=O)N([H])[H])c3N([H])[H])C2([H])[H])c([H])c1C([H])([H])C([H])([H])Oc1c([H])c([H])c2c(c1[H])C([H])([H])N(C(=O)C([H])(N([H])C(=O)C([H])(N([H])C([H])([H])[H])C([H])([H])[H])C(C([H])([H])[H])(C([H])([H])[H])C([H])([H])[H])C([H])(C(=O)N([H])C1([H])c3c([H])c([H])c([H])c([H])c3C([H])([H])C([H])([H])C1([H])[H])C2([H])[H]

$$$$
22:0:0
     RDKit          3D

 91 98  0  0  1  0  0  0  0  0999 V2000
  -30.1710  -22.7430   20.2790 N   0  0  0  0  0  4  0  0  0  0  0  0
  -29.6370  -22.9460   19.4510 H   0  0  0  0  0  0  0  0  0  0  0  0
  -31.0590  -23.2110   20.1740 H   0  0  0  0  0  0  0  0  0  0  0  0
  -28.2180  -22.6220   21.8860 C   0  0  0  0  0  1  0  0  0  0  0  0
  -29.5360  -23.3230   21.4880 C   0  0  0  0  0  3  0  0  0  0  0  0
  -29.3880  -24.8570   21.3400 C   0  0  0  0  0  2  0  0  0  0  0  0
  -28.2410  -25.3280   20.4290 C   0  0  0  0  0  2  0  0  0  0  0  0
  -28.3810  -26.7300   20.1890 O   0  0  0  0  0  0  0  0  0  0  0  0
  -24.5910  -31.8760   23.2270 C   0  0  0  0  0  0  0  0  0  0  0  0
  -27.2110  -27.4490   20.1500 C   0  0  0  0  0  0  0  0  0  0  0  0
  -23.3760  -30.4780   21.5870 C   0  0  0  0  0  3  0  0  0  0  0  0
  -24.8220  -28.9480   20.1510 C   0  0  0  0  0  0  0  0  0  0  0  0
  -25.8980  -30.8440   21.3750 C   0  0  0  0  0  2  0  0  0  0  0  0
  -25.9790  -29.4730   20.7360 C   0  0  0  0  0  0  0  0  0  0  0  0
  -27.1790  -28.7330   20.7300 C   0  0  0  0  0  3  0  0  0  0  0  0
  -26.0380  -26.9320   19.5520 C   0  0  0  0  0  3  0  0  0  0  0  0
  -24.8460  -27.6760   19.5510 C   0  0  0  0  0  3  0  0  0  0  0  0
  -23.5790  -29.8050   20.2020 C   0  0  0  0  0  2  0  0  0  0  0  0
  -24.6410  -31.0800   22.1220 N   0  0  0  0  0  0  0  0  0  0  0  0
  -23.5130  -32.1470   23.7730 O   0  0  0  0  0  0  0  0  0  0  0  0
  -22.7320  -29.4550   22.5480 C   0  0  0  0  0  0  0  0  0  0  0  0
  -21.4070  -29.2710   22.4240 N   0  0  0  0  0  0  0  0  0  0  0  0
  -23.4170  -28.8290   23.3600 O   0  0  0  0  0  0  0  0  0  0  0  0
  -20.9150  -29.8270   21.7370 H   0  0  0  0  0  0  0  0  0  0  0  0
  -18.0330  -28.0770   22.9110 C   0  0  0  0  0  0  0  0  0  0  0  0
  -20.5890  -28.3340   23.1930 C   0  0  0  0  0  3  0  0  0  0  0  0
  -20.6950  -26.9020   22.6170 C   0  0  0  0  0  2  0  0  0  0  0  0
  -19.5950  -26.5790   21.6000 C   0  0  0  0  0  2  0  0  0  0  0  0
  -18.2110  -26.7260   22.2390 C   0  0  0  0  0  2  0  0  0  0  0  0
  -19.1510  -28.8390   23.3440 C   0  0  0  0  0  0  0  0  0  0  0  0
  -18.9300  -30.1050   23.9310 C   0  0  0  0  0  3  0  0  0  0  0  0
  -17.6240  -30.6050   24.0930 C   0  0  0  0  0  3  0  0  0  0  0  0
  -16.5210  -29.8400   23.6780 C   0  0  0  0  0  3  0  0  0  0  0  0
  -16.7270  -28.5780   23.0920 C   0  0  0  0  0  3  0  0  0  0  0  0
  -25.8810  -32.5030   23.8450 C   0  0  0  0  0  3  0  0  0  0  0  0
  -26.4050  -31.7240   25.1140 C   0  0  1  0  0  0  0  0  0  0  0  0
  -25.3180  -31.4820   26.1870 C   0  0  0  0  0  1  0  0  0  0  0  0
  -26.9820  -30.3490   24.7060 C   0  0  0  0  0  1  0  0  0  0  0  0
  -27.5630  -32.5120   25.7730 C   0  0  0  0  0  1  0  0  0  0  0  0
  -25.5760  -33.8990   24.1790 N   0  0  0  0  0  0  0  0  0  0  0  0
  -25.9110  -34.9520   23.4210 C   0  0  0  0  0  0  0  0  0  0  0  0
  -26.5810  -34.8490   22.3900 O   0  0  0  0  0  0  0  0  0  0  0  0
  -24.9840  -34.0540   24.9820 H   0  0  0  0  0  0  0  0  0  0  0  0
  -24.1880  -36.7480   23.0640 C   0  0  0  0  0  1  0  0  0  0  0  0
  -25.4250  -36.3390   23.8800 C   0  0  0  0  0  3  0  0  0  0  0  0
  -27.5590  -37.2160   24.7190 C   0  0  0  0  0  1  0  0  0  0  0  0
  -26.4600  -37.3900   23.7740 N   0  0  0  0  0  0  0  0  0  0  0  0
  -26.0540  -38.3100   23.9260 H   0  0  0  0  0  0  0  0  0  0  0  0
  -30.4680  -21.2960   20.3060 C   0  0  0  0  0  2  0  0  0  0  0  0
  -29.4040  -20.4780   19.5420 C   0  0  0  0  0  2  0  0  0  0  0  0
  -29.8380  -19.0310   19.2630 C   0  0  0  0  0  2  0  0  0  0  0  0
  -29.4800  -17.9970   20.3530 C   0  0  0  0  0  2  0  0  0  0  0  0
  -30.5260  -16.8680   20.3930 C   0  0  0  0  0  2  0  0  0  0  0  0
  -30.7090  -14.4390   20.4630 C   0  0  0  0  0  0  0  0  0  0  0  0
  -30.3600  -12.2900   19.3470 C   0  0  0  0  0  2  0  0  0  0  0  0
  -29.4360  -12.5180   18.1350 C   0  0  0  0  0  2  0  0  0  0  0  0
  -27.9570  -12.4070   18.5540 C   0  0  0  0  0  2  0  0  0  0  0  0
  -27.6180  -13.2480   19.8140 C   0  0  0  0  0  3  0  0  0  0  0  0
  -28.6670  -13.0360   20.9300 C   0  0  0  0  0  2  0  0  0  0  0  0
  -29.9980  -13.2910   20.3610 N   0  0  0  0  0  0  0  0  0  0  0  0
  -31.8750  -14.5450   20.0740 O   0  0  0  0  0  0  0  0  0  0  0  0
  -30.0070  -15.5450   20.7560 N   0  0  0  0  0  0  0  0  0  0  0  0
  -29.0370  -15.4460   21.0140 H   0  0  0  0  0  0  0  0  0  0  0  0
  -25.2120  -13.8630   20.4980 C   0  0  0  0  0  0  0  0  0  0  0  0
  -24.1400  -13.0920   20.8630 C   0  0  0  0  0  0  0  0  0  0  0  0
  -24.6020  -11.7410   20.8480 C   0  0  0  0  0  0  0  0  0  0  0  0
  -26.2600  -12.9800   20.2850 N   0  0  0  0  0  0  0  0  0  0  0  0
  -25.8950  -11.6990   20.5550 N   0  0  0  0  0  0  0  0  0  0  0  0
  -23.8720  -10.4800   21.0400 C   0  0  0  0  0  0  0  0  0  0  0  0
  -24.3020   -9.5140   21.9760 C   0  0  0  0  0  3  0  0  0  0  0  0
  -23.5720   -8.3180   22.1560 C   0  0  0  0  0  3  0  0  0  0  0  0
  -22.4010   -8.0790   21.3990 C   0  0  0  0  0  0  0  0  0  0  0  0
  -21.9900   -9.0360   20.4520 C   0  0  0  0  0  3  0  0  0  0  0  0
  -22.7200  -10.2220   20.2710 C   0  0  0  0  0  3  0  0  0  0  0  0
  -21.6430   -6.9360   21.4880 O   0  0  0  0  0  0  0  0  0  0  0  0
  -21.6020   -6.1890   22.6380 C   0  0  0  0  0  0  0  0  0  0  0  0
  -21.1950   -6.7410   23.8720 C   0  0  0  0  0  3  0  0  0  0  0  0
  -21.1000   -5.9210   25.0130 C   0  0  0  0  0  3  0  0  0  0  0  0
  -21.4000   -4.5490   24.9220 C   0  0  0  0  0  0  0  0  0  0  0  0
  -21.8010   -3.9950   23.6930 C   0  0  0  0  0  3  0  0  0  0  0  0
  -21.8980   -4.8130   22.5520 C   0  0  0  0  0  0  0  0  0  0  0  0
  -22.2630   -4.2700   21.3660 F   0  0  0  0  0  0  0  0  0  0  0  0
  -21.3020   -3.7580   26.0160 F   0  0  0  0  0  0  0  0  0  0  0  0
  -22.7400  -13.5730   21.1160 C   0  0  0  0  0  0  0  0  0  0  0  0
  -22.0010  -12.8840   21.9800 N   0  0  0  0  0  0  0  0  0  0  0  0
  -22.3070  -14.5940   20.5820 O   0  0  0  0  0  0  0  0  0  0  0  0
  -22.3590  -12.0580   22.4340 H   0  0  0  0  0  0  0  0  0  0  0  0
  -21.0620  -13.1920   22.1910 H   0  0  0  0  0  0  0  0  0  0  0  0
  -25.3770  -15.2320   20.3110 N   0  0  0  0  0  0  0  0  0  0  0  0
  -24.6080  -15.8840   20.4130 H   0  0  0  0  0  0  0  0  0  0  0  0
  -26.2240  -15.6700   19.9750 H   0  0  0  0  0  0  0  0  0  0  0  0
  1 49  1  0
  1  5  1  0
  2  1  1  0
  3  1  1  0
  5  4  1  0
  6  5  1  0
  7  6  1  0
  8  7  1  0
  9 20  2  0
 10  8  1  0
 10 15  1  0
 11 19  1  0
 11 21  1  0
 12 18  1  0
 12 14  1  0
 13 19  1  0
 14 13  1  0
 15 14  2  0
 16 10  2  0
 17 16  1  0
 17 12  2  0
 18 11  1  0
 19  9  1  0
 21 23  2  0
 22 21  1  0
 24 22  1  0
 25 34  2  0
 25 30  1  0
 26 22  1  0
 26 30  1  0
 27 26  1  0
 28 29  1  0
 28 27  1  0
 29 25  1  0
 30 31  2  0
 31 32  1  0
 33 32  2  0
 34 33  1  0
 35  9  1  0
 35 40  1  0
 35 36  1  0
 36 39  1  1
 36 37  1  0
 38 36  1  0
 40 43  1  0
 41 45  1  0
 41 40  1  0
 42 41  2  0
 45 44  1  0
 47 45  1  0
 47 48  1  0
 47 46  1  0
 50 49  1  0
 51 50  1  0
 51 52  1  0
 52 53  1  0
 53 62  1  0
 54 62  1  0
 55 60  1  0
 56 57  1  0
 56 55  1  0
 58 57  1  0
 58 67  1  0
 58 59  1  0
 60 54  1  0
 60 59  1  0
 61 54  2  0
 62 63  1  0
 64 65  2  0
 65 84  1  0
 66 65  1  0
 66 69  1  0
 67 64  1  0
 67 68  1  0
 68 66  2  0
 69 70  1  0
 70 71  2  0
 72 75  1  0
 72 71  1  0
 73 72  2  0
 74 73  1  0
 74 69  2  0
 75 76  1  0
 76 77  1  0
 77 78  2  0
 79 78  1  0
 79 83  1  0
 80 79  2  0
 81 76  2  0
 81 80  1  0
 82 81  1  0
 84 85  1  0
 85 88  1  0
 85 87  1  0
 86 84  2  0
 89 90  1  0
 89 64  1  0
 91 89  1  0
M  ISO  4   7 101   8 101  54 100  62 100
M  END
>  <TORSDO>  (22) 
F 24

>  <SCORE>  (22) 
-12.381

>  <name>  (22) 
22

>  <ligand_id>  (22) 
22

>  <original_smiles>  (22) 
[H]c1c([H])c([H])c2c(c1[H])C([H])([H])C([H])([H])C([H])([H])C2([H])N([H])C(=O)C1([H])N(C(=O)C([H])(N([H])C(=O)C([H])(N([H])C([H])([H])[H])C([H])([H])[H])C(C([H])([H])[H])(C([H])([H])[H])C([H])([H])[H])C([H])([H])c2c([H])c(OC([H])([H])C([H])([H])C([H])(C([H])([H])[H])[N+]([H])([H])C([H])([H])C([H])([H])C([H])([H])C([H])([H])C([H])([H])N([H])C(=O)N3C([H])([H])C([H])([H])C([H])([H])C([H])(n4nc(-c5c([H])c([H])c(Oc6c([H])c([H])c(F)c([H])c6F)c([H])c5[H])c(C(=O)N([H])[H])c4N([H])[H])C3([H])[H])c([H])c([H])c2C1([H])[H]

>  <smiles>  (22) 
[H]c1c([H])c([H])c2c(c1[H])C([H])([H])C([H])([H])C([H])([H])C2([H])N([H])C(=O)C1([H])N(C(=O)C([H])(N([H])C(=O)C([H])(N([H])C([H])([H])[H])C([H])([H])[H])C(C([H])([H])[H])(C([H])([H])[H])C([H])([H])[H])C([H])([H])c2c([H])c(OC([H])([H])C([H])([H])C([H])(C([H])([H])[H])[N+]([H])([H])C([H])([H])C([H])([H])C([H])([H])C([H])([H])C([H])([H])N([H])C(=O)N3C([H])([H])C([H])([H])C([H])([H])C([H])(n4nc(-c5c([H])c([H])c(Oc6c([H])c([H])c(F)c([H])c6F)c([H])c5[H])c(C(=O)N([H])[H])c4N([H])[H])C3([H])[H])c([H])c([H])c2C1([H])[H]

$$$$
23:0:0
     RDKit          3D

 92 99  0  0  1  0  0  0  0  0999 V2000
  -28.4910  -22.7600   21.0570 C   0  0  0  0  0  0  0  0  0  0  0  0
  -28.5270  -21.7700   21.9540 N   0  0  0  0  0  0  0  0  0  0  0  0
  -28.2500  -22.5760   19.8610 O   0  0  0  0  0  0  0  0  0  0  0  0
  -28.7180  -22.0250   22.9140 H   0  0  0  0  0  0  0  0  0  0  0  0
  -28.7440  -24.1700   21.5880 C   0  0  0  0  0  2  0  0  0  0  0  0
  -28.1730  -25.2240   20.6370 C   0  0  0  0  0  2  0  0  0  0  0  0
  -28.6400  -26.6450   20.9550 C   0  0  0  0  0  2  0  0  0  0  0  0
  -28.2750  -27.4670   19.8620 O   0  0  0  0  0  0  0  0  0  0  0  0
  -24.8330  -32.1400   23.9460 C   0  0  0  0  0  0  0  0  0  0  0  0
  -27.1330  -28.1900   20.0750 C   0  0  0  0  0  0  0  0  0  0  0  0
  -23.4850  -31.0680   22.1680 C   0  0  0  0  0  3  0  0  0  0  0  0
  -24.8000  -29.7130   20.4550 C   0  0  0  0  0  0  0  0  0  0  0  0
  -26.0070  -31.3650   21.8930 C   0  0  0  0  0  2  0  0  0  0  0  0
  -25.9990  -30.1070   21.0580 C   0  0  0  0  0  0  0  0  0  0  0  0
  -27.1690  -29.3470   20.8750 C   0  0  0  0  0  3  0  0  0  0  0  0
  -25.9230  -27.7950   19.4710 C   0  0  0  0  0  3  0  0  0  0  0  0
  -24.7490  -28.5500   19.6630 C   0  0  0  0  0  3  0  0  0  0  0  0
  -23.6000  -30.6020   20.6900 C   0  0  0  0  0  2  0  0  0  0  0  0
  -24.7970  -31.5260   22.7310 N   0  0  0  0  0  0  0  0  0  0  0  0
  -23.7920  -32.3680   24.5790 O   0  0  0  0  0  0  0  0  0  0  0  0
  -22.8290  -29.9360   22.9870 C   0  0  0  0  0  0  0  0  0  0  0  0
  -21.5190  -29.7340   22.7790 N   0  0  0  0  0  0  0  0  0  0  0  0
  -23.4970  -29.2460   23.7620 O   0  0  0  0  0  0  0  0  0  0  0  0
  -21.0430  -30.3510   22.1360 H   0  0  0  0  0  0  0  0  0  0  0  0
  -18.2040  -28.3080   22.8470 C   0  0  0  0  0  0  0  0  0  0  0  0
  -20.6960  -28.7030   23.4080 C   0  0  0  0  0  3  0  0  0  0  0  0
  -20.9550  -27.3200   22.7670 C   0  0  0  0  0  2  0  0  0  0  0  0
  -19.9880  -26.9990   21.6230 C   0  0  0  0  0  2  0  0  0  0  0  0
  -18.5400  -27.0180   22.1180 C   0  0  0  0  0  2  0  0  0  0  0  0
  -19.2190  -29.1080   23.4380 C   0  0  0  0  0  0  0  0  0  0  0  0
  -18.8570  -30.3190   24.0690 C   0  0  0  0  0  3  0  0  0  0  0  0
  -17.5120  -30.7290   24.1210 C   0  0  0  0  0  3  0  0  0  0  0  0
  -16.5110  -29.9270   23.5470 C   0  0  0  0  0  3  0  0  0  0  0  0
  -16.8560  -28.7190   22.9160 C   0  0  0  0  0  3  0  0  0  0  0  0
  -26.1750  -32.6060   24.5910 C   0  0  0  0  0  3  0  0  0  0  0  0
  -26.6500  -31.6800   25.7750 C   0  0  1  0  0  0  0  0  0  0  0  0
  -25.5500  -31.3990   26.8250 C   0  0  0  0  0  1  0  0  0  0  0  0
  -27.1400  -30.3160   25.2310 C   0  0  0  0  0  1  0  0  0  0  0  0
  -27.8510  -32.3270   26.5030 C   0  0  0  0  0  1  0  0  0  0  0  0
  -25.9920  -33.9880   25.0500 N   0  0  0  0  0  0  0  0  0  0  0  0
  -26.4350  -35.0720   24.3980 C   0  0  0  0  0  0  0  0  0  0  0  0
  -27.1170  -35.0030   23.3700 O   0  0  0  0  0  0  0  0  0  0  0  0
  -25.3990  -34.1240   25.8560 H   0  0  0  0  0  0  0  0  0  0  0  0
  -24.8800  -37.0360   24.1910 C   0  0  0  0  0  1  0  0  0  0  0  0
  -26.0650  -36.4510   24.9750 C   0  0  0  0  0  3  0  0  0  0  0  0
  -28.2560  -37.0530   25.9050 C   0  0  0  0  0  1  0  0  0  0  0  0
  -27.1890  -37.4120   24.9740 N   0  0  0  0  0  0  0  0  0  0  0  0
  -26.8660  -38.3460   25.2090 H   0  0  0  0  0  0  0  0  0  0  0  0
  -28.2760  -20.3560   21.6980 C   0  0  0  0  0  2  0  0  0  0  0  0
  -29.5880  -19.5550   21.6970 C   0  0  0  0  0  2  0  0  0  0  0  0
  -30.3140  -19.5570   20.3430 C   0  0  0  0  0  2  0  0  0  0  0  0
  -31.7590  -19.0550   20.4580 C   0  0  0  0  0  2  0  0  0  0  0  0
  -32.0950  -18.0350   19.3660 C   0  0  0  0  0  2  0  0  0  0  0  0
  -33.4330  -17.3090   19.6010 C   0  0  0  0  0  2  0  0  0  0  0  0
  -33.4270  -14.8570   19.0470 C   0  0  0  0  0  0  0  0  0  0  0  0
  -32.8450  -12.4790   18.7110 C   0  0  0  0  0  2  0  0  0  0  0  0
  -31.8110  -12.2810   17.5880 C   0  0  0  0  0  2  0  0  0  0  0  0
  -30.3740  -12.4720   18.1160 C   0  0  0  0  0  2  0  0  0  0  0  0
  -30.2080  -13.7820   18.9250 C   0  0  0  0  0  3  0  0  0  0  0  0
  -31.3170  -13.8760   19.9950 C   0  0  0  0  0  2  0  0  0  0  0  0
  -32.6330  -13.7950   19.3250 N   0  0  0  0  0  0  0  0  0  0  0  0
  -34.3300  -14.8550   18.2020 O   0  0  0  0  0  0  0  0  0  0  0  0
  -33.1690  -15.9030   19.8380 N   0  0  0  0  0  0  0  0  0  0  0  0
  -32.5140  -15.7060   20.5790 H   0  0  0  0  0  0  0  0  0  0  0  0
  -28.1450  -14.9940   19.9000 C   0  0  0  0  0  0  0  0  0  0  0  0
  -26.9380  -14.5230   20.3470 C   0  0  0  0  0  0  0  0  0  0  0  0
  -26.9870  -13.1040   20.1940 C   0  0  0  0  0  0  0  0  0  0  0  0
  -28.8730  -13.8730   19.5210 N   0  0  0  0  0  0  0  0  0  0  0  0
  -28.1790  -12.7300   19.7480 N   0  0  0  0  0  0  0  0  0  0  0  0
  -25.9470  -12.0850   20.3870 C   0  0  0  0  0  0  0  0  0  0  0  0
  -26.1320  -11.0070   21.2830 C   0  0  0  0  0  3  0  0  0  0  0  0
  -25.1150  -10.0460   21.4650 C   0  0  0  0  0  3  0  0  0  0  0  0
  -23.8940  -10.1610   20.7570 C   0  0  0  0  0  0  0  0  0  0  0  0
  -23.7240  -11.2220   19.8520 C   0  0  0  0  0  3  0  0  0  0  0  0
  -24.7390  -12.1750   19.6660 C   0  0  0  0  0  3  0  0  0  0  0  0
  -22.8570   -9.2650   20.8570 O   0  0  0  0  0  0  0  0  0  0  0  0
  -22.5920   -8.6010   22.0270 C   0  0  0  0  0  0  0  0  0  0  0  0
  -22.3140   -9.2880   23.2270 C   0  0  0  0  0  3  0  0  0  0  0  0
  -21.9720   -8.5660   24.3880 C   0  0  0  0  0  3  0  0  0  0  0  0
  -21.9020   -7.1600   24.3480 C   0  0  0  0  0  0  0  0  0  0  0  0
  -22.1740   -6.4740   23.1520 C   0  0  0  0  0  3  0  0  0  0  0  0
  -22.5140   -7.1940   21.9930 C   0  0  0  0  0  0  0  0  0  0  0  0
  -22.7540   -6.5310   20.8360 F   0  0  0  0  0  0  0  0  0  0  0  0
  -21.5640   -6.4660   25.4610 F   0  0  0  0  0  0  0  0  0  0  0  0
  -25.7640  -15.3480   20.7970 C   0  0  0  0  0  0  0  0  0  0  0  0
  -24.9480  -14.8170   21.7020 N   0  0  0  0  0  0  0  0  0  0  0  0
  -25.5910  -16.4920   20.3790 O   0  0  0  0  0  0  0  0  0  0  0  0
  -25.0910  -13.8840   22.0630 H   0  0  0  0  0  0  0  0  0  0  0  0
  -24.1550  -15.3490   22.0350 H   0  0  0  0  0  0  0  0  0  0  0  0
  -28.6740  -16.2720   19.7600 N   0  0  0  0  0  0  0  0  0  0  0  0
  -28.1150  -17.1030   19.9190 H   0  0  0  0  0  0  0  0  0  0  0  0
  -29.5450  -16.4680   19.2810 H   0  0  0  0  0  0  0  0  0  0  0  0
  1  5  1  0
  1  2  1  0
  2  4  1  0
  3  1  2  0
  6  7  1  0
  6  5  1  0
  8 10  1  0
  8  7  1  0
  9 20  2  0
 10 15  1  0
 11 19  1  0
 11 21  1  0
 12 18  1  0
 12 14  1  0
 13 19  1  0
 14 13  1  0
 15 14  2  0
 16 17  1  0
 16 10  2  0
 17 12  2  0
 18 11  1  0
 19  9  1  0
 21 23  2  0
 22 21  1  0
 24 22  1  0
 25 34  2  0
 25 30  1  0
 26 22  1  0
 26 30  1  0
 27 26  1  0
 28 29  1  0
 28 27  1  0
 29 25  1  0
 30 31  2  0
 31 32  1  0
 33 32  2  0
 34 33  1  0
 35  9  1  0
 35 40  1  0
 35 36  1  0
 36 39  1  1
 36 37  1  0
 38 36  1  0
 40 43  1  0
 41 45  1  0
 41 40  1  0
 42 41  2  0
 45 44  1  0
 47 45  1  0
 47 48  1  0
 47 46  1  0
 49  2  1  0
 50 49  1  0
 51 52  1  0
 51 50  1  0
 53 54  1  0
 53 52  1  0
 54 63  1  0
 55 61  1  0
 55 63  1  0
 56 61  1  0
 57 58  1  0
 57 56  1  0
 59 58  1  0
 59 68  1  0
 59 60  1  0
 61 60  1  0
 62 55  2  0
 63 64  1  0
 65 66  2  0
 66 85  1  0
 67 66  1  0
 67 70  1  0
 68 69  1  0
 68 65  1  0
 69 67  2  0
 70 71  1  0
 71 72  2  0
 73 76  1  0
 73 72  1  0
 74 73  2  0
 75 74  1  0
 75 70  2  0
 76 77  1  0
 77 78  1  0
 78 79  2  0
 80 79  1  0
 80 84  1  0
 81 80  2  0
 82 77  2  0
 82 81  1  0
 83 82  1  0
 85 86  1  0
 86 89  1  0
 86 88  1  0
 87 85  2  0
 90 65  1  0
 90 91  1  0
 92 90  1  0
M  ISO  4   7 101   8 101  55 100  63 100
M  END
>  <TORSDO>  (23) 
F 25

>  <SCORE>  (23) 
-6.033

>  <name>  (23) 
23

>  <ligand_id>  (23) 
23

>  <original_smiles>  (23) 
[H]c1c([H])c([H])c2c(c1[H])C([H])([H])C([H])([H])C([H])([H])C2([H])N([H])C(=O)C1([H])N(C(=O)C([H])(N([H])C(=O)C([H])(N([H])C([H])([H])[H])C([H])([H])[H])C(C([H])([H])[H])(C([H])([H])[H])C([H])([H])[H])C([H])([H])c2c([H])c(OC([H])([H])C([H])([H])C([H])([H])C(=O)N([H])C([H])([H])C([H])([H])C([H])([H])C([H])([H])C([H])([H])C([H])([H])N([H])C(=O)N3C([H])([H])C([H])([H])C([H])([H])C([H])(n4nc(-c5c([H])c([H])c(Oc6c([H])c([H])c(F)c([H])c6F)c([H])c5[H])c(C(=O)N([H])[H])c4N([H])[H])C3([H])[H])c([H])c([H])c2C1([H])[H]

>  <smiles>  (23) 
[H]c1c([H])c([H])c2c(c1[H])C([H])([H])C([H])([H])C([H])([H])C2([H])N([H])C(=O)C1([H])N(C(=O)C([H])(N([H])C(=O)C([H])(N([H])C([H])([H])[H])C([H])([H])[H])C(C([H])([H])[H])(C([H])([H])[H])C([H])([H])[H])C([H])([H])c2c([H])c(OC([H])([H])C([H])([H])C([H])([H])C(=O)N([H])C([H])([H])C([H])([H])C([H])([H])C([H])([H])C([H])([H])C([H])([H])N([H])C(=O)N3C([H])([H])C([H])([H])C([H])([H])C([H])(n4nc(-c5c([H])c([H])c(Oc6c([H])c([H])c(F)c([H])c6F)c([H])c5[H])c(C(=O)N([H])[H])c4N([H])[H])C3([H])[H])c([H])c([H])c2C1([H])[H]

$$$$
24:0:0
     RDKit          3D

 99107  0  0  1  0  0  0  0  0999 V2000
  -29.1040  -22.7260   21.2020 C   0  0  0  0  0  2  0  0  0  0  0  0
  -27.6370  -26.3310   23.1740 C   0  0  0  0  0  3  0  0  0  0  0  0
  -28.0510  -25.2120   23.9170 C   0  0  0  0  0  3  0  0  0  0  0  0
  -27.7160  -26.2970   21.7680 C   0  0  0  0  0  3  0  0  0  0  0  0
  -28.5380  -24.0690   23.2570 C   0  0  0  0  0  3  0  0  0  0  0  0
  -28.2100  -25.1580   21.0910 C   0  0  0  0  0  0  0  0  0  0  0  0
  -28.6170  -24.0190   21.8470 C   0  0  0  0  0  0  0  0  0  0  0  0
  -28.2120  -25.2090   19.5620 C   0  0  0  0  0  2  0  0  0  0  0  0
  -29.1100  -26.3300   18.9640 C   0  0  0  0  0  2  0  0  0  0  0  0
  -28.5390  -26.9980   17.8330 O   0  0  0  0  0  0  0  0  0  0  0  0
  -24.6700  -30.7910   22.4320 C   0  0  0  0  0  0  0  0  0  0  0  0
  -27.3340  -27.5880   18.1140 C   0  0  0  0  0  0  0  0  0  0  0  0
  -23.4110  -29.5840   20.6810 C   0  0  0  0  0  3  0  0  0  0  0  0
  -24.8050  -28.6400   18.7650 C   0  0  0  0  0  0  0  0  0  0  0  0
  -25.8060  -30.3800   20.2570 C   0  0  0  0  0  2  0  0  0  0  0  0
  -25.9620  -29.2080   19.3150 C   0  0  0  0  0  0  0  0  0  0  0  0
  -27.2330  -28.6830   18.9990 C   0  0  0  0  0  3  0  0  0  0  0  0
  -26.1690  -27.0540   17.5300 C   0  0  0  0  0  3  0  0  0  0  0  0
  -24.9010  -27.5600   17.8710 C   0  0  0  0  0  3  0  0  0  0  0  0
  -23.4830  -29.2500   19.1680 C   0  0  0  0  0  2  0  0  0  0  0  0
  -24.6530  -30.2570   21.1800 N   0  0  0  0  0  0  0  0  0  0  0  0
  -23.6610  -30.7680   23.1500 O   0  0  0  0  0  0  0  0  0  0  0  0
  -23.0560  -28.2930   21.4530 C   0  0  0  0  0  0  0  0  0  0  0  0
  -21.7770  -27.8890   21.3890 N   0  0  0  0  0  0  0  0  0  0  0  0
  -23.9240  -27.6690   22.0710 O   0  0  0  0  0  0  0  0  0  0  0  0
  -21.1270  -28.4600   20.8670 H   0  0  0  0  0  0  0  0  0  0  0  0
  -18.7590  -25.9490   21.7990 C   0  0  0  0  0  0  0  0  0  0  0  0
  -21.2290  -26.6850   22.0090 C   0  0  0  0  0  3  0  0  0  0  0  0
  -21.5720  -25.4250   21.1840 C   0  0  0  0  0  2  0  0  0  0  0  0
  -20.4840  -25.0480   20.1750 C   0  0  0  0  0  2  0  0  0  0  0  0
  -19.1520  -24.7950   20.8900 C   0  0  0  0  0  2  0  0  0  0  0  0
  -19.7340  -26.8440   22.3120 C   0  0  0  0  0  0  0  0  0  0  0  0
  -19.3120  -27.9180   23.1270 C   0  0  0  0  0  3  0  0  0  0  0  0
  -17.9520  -28.1020   23.4300 C   0  0  0  0  0  3  0  0  0  0  0  0
  -16.9940  -27.2030   22.9300 C   0  0  0  0  0  3  0  0  0  0  0  0
  -17.3980  -26.1290   22.1200 C   0  0  0  0  0  3  0  0  0  0  0  0
  -25.9460  -31.4770   23.0130 C   0  0  0  0  0  3  0  0  0  0  0  0
  -25.5160  -32.7120   23.6810 N   0  0  0  0  0  0  0  0  0  0  0  0
  -25.6420  -33.9400   23.1630 C   0  0  0  0  0  0  0  0  0  0  0  0
  -26.2090  -34.1600   22.0880 O   0  0  0  0  0  0  0  0  0  0  0  0
  -24.9890  -32.6040   24.5360 H   0  0  0  0  0  0  0  0  0  0  0  0
  -23.6970  -35.5220   23.3560 C   0  0  0  0  0  1  0  0  0  0  0  0
  -25.0470  -35.1130   23.9660 C   0  0  0  0  0  3  0  0  0  0  0  0
  -27.1370  -36.0580   24.8390 C   0  0  0  0  0  1  0  0  0  0  0  0
  -25.9390  -36.2900   24.0360 N   0  0  0  0  0  0  0  0  0  0  0  0
  -25.4470  -37.0910   24.4220 H   0  0  0  0  0  0  0  0  0  0  0  0
  -26.7520  -30.5540   24.0050 C   0  0  1  0  0  0  0  0  0  0  0  0
  -25.8770  -29.9300   25.1180 C   0  0  0  0  0  1  0  0  0  0  0  0
  -27.4400  -29.3980   23.2420 C   0  0  0  0  0  1  0  0  0  0  0  0
  -27.8800  -31.3690   24.6800 C   0  0  0  0  0  1  0  0  0  0  0  0
  -28.2770  -22.3700   20.0320 N   0  0  0  0  0  4  0  0  0  0  0  0
  -28.8270  -22.3830   19.1900 H   0  0  0  0  0  0  0  0  0  0  0  0
  -27.5580  -23.0800   19.9600 H   0  0  0  0  0  0  0  0  0  0  0  0
  -27.4840  -21.1250   20.1200 C   0  0  0  0  0  3  0  0  0  0  0  0
  -28.2560  -19.8780   19.6220 C   0  0  0  0  0  2  0  0  0  0  0  0
  -29.6370  -19.6490   20.2670 C   0  0  0  0  0  2  0  0  0  0  0  0
  -30.0870  -18.1870   20.1410 C   0  0  0  0  0  2  0  0  0  0  0  0
  -31.4190  -17.8700   20.8550 C   0  0  0  0  0  2  0  0  0  0  0  0
  -32.0310  -15.4990   20.3720 C   0  0  0  0  0  0  0  0  0  0  0  0
  -31.7650  -13.1770   19.5740 C   0  0  0  0  0  2  0  0  0  0  0  0
  -30.8770  -13.1400   18.3170 C   0  0  0  0  0  2  0  0  0  0  0  0
  -29.3790  -13.1150   18.6760 C   0  0  0  0  0  2  0  0  0  0  0  0
  -29.0030  -14.1910   19.7260 C   0  0  0  0  0  3  0  0  0  0  0  0
  -29.9840  -14.1360   20.9140 C   0  0  0  0  0  2  0  0  0  0  0  0
  -31.3590  -14.3210   20.3990 N   0  0  0  0  0  0  0  0  0  0  0  0
  -33.0540  -15.7070   19.7080 O   0  0  0  0  0  0  0  0  0  0  0  0
  -31.4570  -16.4400   21.1220 N   0  0  0  0  0  0  0  0  0  0  0  0
  -30.7350  -16.0920   21.7360 H   0  0  0  0  0  0  0  0  0  0  0  0
  -26.6480  -15.0050   20.3990 C   0  0  0  0  0  0  0  0  0  0  0  0
  -25.5040  -14.3240   20.7160 C   0  0  0  0  0  0  0  0  0  0  0  0
  -25.8390  -12.9360   20.6490 C   0  0  0  0  0  0  0  0  0  0  0  0
  -27.6150  -14.0380   20.1620 N   0  0  0  0  0  0  0  0  0  0  0  0
  -27.1260  -12.7880   20.3670 N   0  0  0  0  0  0  0  0  0  0  0  0
  -24.9950  -11.7410   20.7850 C   0  0  0  0  0  0  0  0  0  0  0  0
  -25.2970  -10.7270   21.7200 C   0  0  0  0  0  3  0  0  0  0  0  0
  -24.4650   -9.5940   21.8410 C   0  0  0  0  0  3  0  0  0  0  0  0
  -23.3160   -9.4660   21.0230 C   0  0  0  0  0  0  0  0  0  0  0  0
  -23.0310  -10.4700   20.0800 C   0  0  0  0  0  3  0  0  0  0  0  0
  -23.8640  -11.5950   19.9570 C   0  0  0  0  0  3  0  0  0  0  0  0
  -22.4600   -8.3910   21.0560 O   0  0  0  0  0  0  0  0  0  0  0  0
  -22.2330   -7.6880   22.2110 C   0  0  0  0  0  0  0  0  0  0  0  0
  -21.7260   -8.3080   23.3730 C   0  0  0  0  0  3  0  0  0  0  0  0
  -21.4440   -7.5350   24.5180 C   0  0  0  0  0  3  0  0  0  0  0  0
  -21.6530   -6.1430   24.4990 C   0  0  0  0  0  0  0  0  0  0  0  0
  -22.1500   -5.5230   23.3390 C   0  0  0  0  0  3  0  0  0  0  0  0
  -22.4370   -6.2940   22.1970 C   0  0  0  0  0  0  0  0  0  0  0  0
  -22.8960   -5.6870   21.0770 F   0  0  0  0  0  0  0  0  0  0  0  0
  -21.3730   -5.3980   25.5930 F   0  0  0  0  0  0  0  0  0  0  0  0
  -24.1520  -14.9160   20.9890 C   0  0  0  0  0  0  0  0  0  0  0  0
  -23.3580  -14.2620   21.8300 N   0  0  0  0  0  0  0  0  0  0  0  0
  -23.8120  -15.9930   20.4960 O   0  0  0  0  0  0  0  0  0  0  0  0
  -23.6500  -13.3900   22.2440 H   0  0  0  0  0  0  0  0  0  0  0  0
  -22.4490  -14.6350   22.0610 H   0  0  0  0  0  0  0  0  0  0  0  0
  -26.9480  -16.3590   20.2810 N   0  0  0  0  0  0  0  0  0  0  0  0
  -26.2520  -17.0910   20.3720 H   0  0  0  0  0  0  0  0  0  0  0  0
  -27.8450  -16.7000   19.9620 H   0  0  0  0  0  0  0  0  0  0  0  0
  -26.2090  -21.3480   19.2900 C   0  0  0  0  0  2  0  0  0  0  0  0
  -25.7310  -22.6660   19.5040 O   0  0  0  0  0  0  0  0  0  0  0  0
  -24.8270  -22.7000   19.1990 H   0  0  0  0  0  0  0  0  0  0  0  0
  1  7  1  0
  2  3  1  0
  4  2  2  0
  5  3  2  0
  6  4  1  0
  6  7  2  0
  7  5  1  0
  8  6  1  0
  9  8  1  0
 10 12  1  0
 10  9  1  0
 11 22  2  0
 12 17  1  0
 13 21  1  0
 13 23  1  0
 14 20  1  0
 14 16  1  0
 15 21  1  0
 16 15  1  0
 17 16  2  0
 18 19  1  0
 18 12  2  0
 19 14  2  0
 20 13  1  0
 21 11  1  0
 23 25  2  0
 24 23  1  0
 26 24  1  0
 27 36  2  0
 27 32  1  0
 28 24  1  0
 28 32  1  0
 29 28  1  0
 30 31  1  0
 30 29  1  0
 31 27  1  0
 32 33  2  0
 33 34  1  0
 35 34  2  0
 36 35  1  0
 37 11  1  0
 37 38  1  0
 37 47  1  0
 38 41  1  0
 39 38  1  0
 39 43  1  0
 40 39  2  0
 43 42  1  0
 43 45  1  0
 45 46  1  0
 45 44  1  0
 47 50  1  1
 47 48  1  0
 49 47  1  0
 51 54  1  0
 51  1  1  0
 52 51  1  0
 53 51  1  0
 54 97  1  0
 55 54  1  0
 55 56  1  0
 57 56  1  0
 57 58  1  0
 58 67  1  0
 59 65  1  0
 59 67  1  0
 60 65  1  0
 61 62  1  0
 61 60  1  0
 63 62  1  0
 63 72  1  0
 63 64  1  0
 65 64  1  0
 66 59  2  0
 67 68  1  0
 69 70  2  0
 70 89  1  0
 71 70  1  0
 71 74  1  0
 72 73  1  0
 72 69  1  0
 73 71  2  0
 74 75  1  0
 75 76  2  0
 77 80  1  0
 77 76  1  0
 78 77  2  0
 79 78  1  0
 79 74  2  0
 80 81  1  0
 81 82  1  0
 82 83  2  0
 84 83  1  0
 84 88  1  0
 85 84  2  0
 86 81  2  0
 86 85  1  0
 87 86  1  0
 89 90  1  0
 90 93  1  0
 90 92  1  0
 91 89  2  0
 94 95  1  0
 94 69  1  0
 96 94  1  0
 97 98  1  0
 99 98  1  0
M  ISO  4   9 101  10 101  59 100  67 100
M  END
>  <TORSDO>  (24) 
F 27

>  <SCORE>  (24) 
-5.343

>  <name>  (24) 
24

>  <ligand_id>  (24) 
24

>  <original_smiles>  (24) 
[H]OC([H])([H])C([H])(C([H])([H])C([H])([H])C([H])([H])C([H])([H])N([H])C(=O)N1C([H])([H])C([H])([H])C([H])([H])C([H])(n2nc(-c3c([H])c([H])c(Oc4c([H])c([H])c(F)c([H])c4F)c([H])c3[H])c(C(=O)N([H])[H])c2N([H])[H])C1([H])[H])[N+]([H])([H])C([H])([H])c1c([H])c([H])c([H])c([H])c1C([H])([H])C([H])([H])Oc1c([H])c([H])c2c(c1[H])C([H])([H])N(C(=O)C([H])(N([H])C(=O)C([H])(N([H])C([H])([H])[H])C([H])([H])[H])C(C([H])([H])[H])(C([H])([H])[H])C([H])([H])[H])C([H])(C(=O)N([H])C1([H])c3c([H])c([H])c([H])c([H])c3C([H])([H])C([H])([H])C1([H])[H])C2([H])[H]

>  <smiles>  (24) 
[H]OC([H])([H])C([H])(C([H])([H])C([H])([H])C([H])([H])C([H])([H])N([H])C(=O)N1C([H])([H])C([H])([H])C([H])([H])C([H])(n2nc(-c3c([H])c([H])c(Oc4c([H])c([H])c(F)c([H])c4F)c([H])c3[H])c(C(=O)N([H])[H])c2N([H])[H])C1([H])[H])[N+]([H])([H])C([H])([H])c1c([H])c([H])c([H])c([H])c1C([H])([H])C([H])([H])Oc1c([H])c([H])c2c(c1[H])C([H])([H])N(C(=O)C([H])(N([H])C(=O)C([H])(N([H])C([H])([H])[H])C([H])([H])[H])C(C([H])([H])[H])(C([H])([H])[H])C([H])([H])[H])C([H])(C(=O)N([H])C1([H])c3c([H])c([H])c([H])c([H])c3C([H])([H])C([H])([H])C1([H])[H])C2([H])[H]

$$$$
25:0:0
     RDKit          3D

 93101  0  0  1  0  0  0  0  0999 V2000
  -34.4890  -22.3540    7.9710 C   0  0  0  0  0  3  0  0  0  0  0  0
  -35.1320  -21.1150    7.7740 C   0  0  0  0  0  3  0  0  0  0  0  0
  -33.1610  -22.5400    7.5400 C   0  0  0  0  0  3  0  0  0  0  0  0
  -33.1210  -20.2510    6.6970 C   0  0  0  0  0  3  0  0  0  0  0  0
  -34.4440  -20.0640    7.1340 C   0  0  0  0  0  0  0  0  0  0  0  0
  -32.4760  -21.4820    6.9060 C   0  0  0  0  0  0  0  0  0  0  0  0
  -35.1190  -18.7440    6.8480 C   0  0  0  0  0  2  0  0  0  0  0  0
  -36.1430  -18.3010    7.9120 C   0  0  0  0  0  2  0  0  0  0  0  0
  -35.9510  -16.8010    8.1690 C   0  0  0  0  0  2  0  0  0  0  0  0
  -35.6900  -16.3270    9.6150 C   0  0  0  0  0  2  0  0  0  0  0  0
  -34.3900  -17.0170   10.0490 C   0  0  0  0  0  2  0  0  0  0  0  0
  -32.8920  -16.5940   11.8710 C   0  0  0  0  0  0  0  0  0  0  0  0
  -30.9370  -16.9160   13.3050 C   0  0  0  0  0  2  0  0  0  0  0  0
  -30.3570  -18.3170   13.0510 C   0  0  0  0  0  2  0  0  0  0  0  0
  -31.0260  -19.3410   13.9860 C   0  0  0  0  0  2  0  0  0  0  0  0
  -32.5770  -19.2430   13.9880 C   0  0  0  0  0  3  0  0  0  0  0  0
  -33.0670  -17.7800   14.1020 C   0  0  0  0  0  2  0  0  0  0  0  0
  -32.3880  -16.9880   13.0670 N   0  0  0  0  0  0  0  0  0  0  0  0
  -32.2310  -15.9220   11.0750 O   0  0  0  0  0  0  0  0  0  0  0  0
  -34.0720  -17.1000   11.4780 N   0  0  0  0  0  0  0  0  0  0  0  0
  -34.6060  -17.6960   12.0950 H   0  0  0  0  0  0  0  0  0  0  0  0
  -33.3770  -21.4610   15.0140 C   0  0  0  0  0  0  0  0  0  0  0  0
  -33.8670  -21.7720   16.2550 C   0  0  0  0  0  0  0  0  0  0  0  0
  -33.9110  -20.5420   16.9820 C   0  0  0  0  0  0  0  0  0  0  0  0
  -33.1550  -20.0930   15.0270 N   0  0  0  0  0  0  0  0  0  0  0  0
  -33.5330  -19.5350   16.2070 N   0  0  0  0  0  0  0  0  0  0  0  0
  -34.2390  -20.2760   18.3900 C   0  0  0  0  0  0  0  0  0  0  0  0
  -33.3360  -20.5920   19.4290 C   0  0  0  0  0  3  0  0  0  0  0  0
  -33.6630  -20.3090   20.7720 C   0  0  0  0  0  3  0  0  0  0  0  0
  -34.9010  -19.6990   21.0880 C   0  0  0  0  0  0  0  0  0  0  0  0
  -35.8050  -19.4060   20.0520 C   0  0  0  0  0  3  0  0  0  0  0  0
  -35.4800  -19.6940   18.7160 C   0  0  0  0  0  3  0  0  0  0  0  0
  -35.3170  -19.4120   22.3650 O   0  0  0  0  0  0  0  0  0  0  0  0
  -36.4020  -20.0380   22.9270 C   0  0  0  0  0  0  0  0  0  0  0  0
  -36.4460  -21.4390   23.1000 C   0  0  0  0  0  3  0  0  0  0  0  0
  -37.5500  -22.0340   23.7450 C   0  0  0  0  0  3  0  0  0  0  0  0
  -38.6040  -21.2320   24.2240 C   0  0  0  0  0  0  0  0  0  0  0  0
  -38.5580  -19.8370   24.0560 C   0  0  0  0  0  3  0  0  0  0  0  0
  -37.4590  -19.2420   23.4120 C   0  0  0  0  0  0  0  0  0  0  0  0
  -37.4100  -17.8950   23.2730 F   0  0  0  0  0  0  0  0  0  0  0  0
  -39.6610  -21.8010   24.8460 F   0  0  0  0  0  0  0  0  0  0  0  0
  -34.1840  -23.1460   16.7710 C   0  0  0  0  0  0  0  0  0  0  0  0
  -35.3810  -23.3320   17.3160 N   0  0  0  0  0  0  0  0  0  0  0  0
  -33.3880  -24.0760   16.6500 O   0  0  0  0  0  0  0  0  0  0  0  0
  -36.0430  -22.5740   17.3940 H   0  0  0  0  0  0  0  0  0  0  0  0
  -35.6400  -24.2460   17.6580 H   0  0  0  0  0  0  0  0  0  0  0  0
  -33.0820  -22.2250   13.8890 N   0  0  0  0  0  0  0  0  0  0  0  0
  -33.1860  -23.2350   13.8760 H   0  0  0  0  0  0  0  0  0  0  0  0
  -32.6700  -21.8590   13.0390 H   0  0  0  0  0  0  0  0  0  0  0  0
  -31.0240  -21.6240    6.5080 C   0  0  0  0  0  2  0  0  0  0  0  0
  -30.1680  -21.8730    7.7530 C   0  0  0  0  0  2  0  0  0  0  0  0
  -29.1080  -20.8030    7.9700 C   0  0  0  0  0  2  0  0  0  0  0  0
  -27.8500  -21.1820    7.4040 O   0  0  0  0  0  0  0  0  0  0  0  0
  -27.4650  -28.0880    8.8540 C   0  0  0  0  0  0  0  0  0  0  0  0
  -27.2220  -22.1620    8.1330 C   0  0  0  0  0  0  0  0  0  0  0  0
  -26.3400  -26.5910   10.4770 C   0  0  0  0  0  3  0  0  0  0  0  0
  -26.0570  -24.1680    9.7350 C   0  0  0  0  0  0  0  0  0  0  0  0
  -26.5510  -25.9310    8.0240 C   0  0  0  0  0  2  0  0  0  0  0  0
  -26.5930  -24.4940    8.4860 C   0  0  0  0  0  0  0  0  0  0  0  0
  -27.1640  -23.4980    7.6810 C   0  0  0  0  0  3  0  0  0  0  0  0
  -26.6630  -21.8350    9.3870 C   0  0  0  0  0  3  0  0  0  0  0  0
  -26.0850  -22.8370   10.1930 C   0  0  0  0  0  3  0  0  0  0  0  0
  -25.4640  -25.3090   10.5280 C   0  0  0  0  0  2  0  0  0  0  0  0
  -26.8390  -26.9030    9.0980 N   0  0  0  0  0  0  0  0  0  0  0  0
  -27.5870  -28.9420    9.7440 O   0  0  0  0  0  0  0  0  0  0  0  0
  -27.4720  -26.4520   11.5200 C   0  0  0  0  0  0  0  0  0  0  0  0
  -27.6920  -27.5200   12.3020 N   0  0  0  0  0  0  0  0  0  0  0  0
  -28.1020  -25.3980   11.6340 O   0  0  0  0  0  0  0  0  0  0  0  0
  -27.1340  -28.3470   12.1380 H   0  0  0  0  0  0  0  0  0  0  0  0
  -30.1890  -29.6650   13.7820 C   0  0  0  0  0  0  0  0  0  0  0  0
  -28.6740  -27.6100   13.3790 C   0  0  0  0  0  3  0  0  0  0  0  0
  -27.9970  -27.9740   14.7210 C   0  0  0  0  0  2  0  0  0  0  0  0
  -27.9780  -29.4800   14.9980 C   0  0  0  0  0  2  0  0  0  0  0  0
  -29.4030  -30.0390   15.0280 C   0  0  0  0  0  2  0  0  0  0  0  0
  -29.8370  -28.5340   12.9990 C   0  0  0  0  0  0  0  0  0  0  0  0
  -30.5780  -28.2520   11.8310 C   0  0  0  0  0  3  0  0  0  0  0  0
  -31.6530  -29.0750   11.4450 C   0  0  0  0  0  3  0  0  0  0  0  0
  -32.0080  -30.1830   12.2330 C   0  0  0  0  0  3  0  0  0  0  0  0
  -31.2800  -30.4740   13.4000 C   0  0  0  0  0  3  0  0  0  0  0  0
  -28.0330  -28.4420    7.4430 C   0  0  0  0  0  3  0  0  0  0  0  0
  -27.6060  -29.8110    7.1270 N   0  0  0  0  0  0  0  0  0  0  0  0
  -27.0600  -30.1850    5.9630 C   0  0  0  0  0  0  0  0  0  0  0  0
  -26.9260  -29.4150    5.0070 O   0  0  0  0  0  0  0  0  0  0  0  0
  -27.6300  -30.4750    7.8860 H   0  0  0  0  0  0  0  0  0  0  0  0
  -25.2570  -31.6890    5.0610 C   0  0  0  0  0  1  0  0  0  0  0  0
  -26.5830  -31.6440    5.8380 C   0  0  0  0  0  3  0  0  0  0  0  0
  -28.5070  -33.1390    6.1330 C   0  0  0  0  0  1  0  0  0  0  0  0
  -27.5710  -32.5330    5.1900 N   0  0  0  0  0  0  0  0  0  0  0  0
  -27.1070  -33.2800    4.6810 H   0  0  0  0  0  0  0  0  0  0  0  0
  -29.6020  -28.3080    7.3520 C   0  0  1  0  0  0  0  0  0  0  0  0
  -30.3580  -29.6030    7.7370 C   0  0  0  0  0  1  0  0  0  0  0  0
  -30.1070  -27.1730    8.2720 C   0  0  0  0  0  1  0  0  0  0  0  0
  -30.0110  -27.9230    5.9110 C   0  0  0  0  0  1  0  0  0  0  0  0
  2  1  1  0
  3  1  2  0
  4  6  2  0
  4  5  1  0
  5  2  2  0
  6  3  1  0
  7  5  1  0
  7  8  1  0
  8  9  1  0
  9 10  1  0
 10 11  1  0
 11 20  1  0
 12 18  1  0
 14 13  1  0
 14 15  1  0
 16 15  1  0
 16 17  1  0
 16 25  1  0
 18 13  1  0
 18 17  1  0
 19 12  2  0
 20 12  1  0
 20 21  1  0
 22 25  1  0
 22 23  2  0
 23 42  1  0
 23 24  1  0
 24 27  1  0
 25 26  1  0
 26 24  2  0
 27 32  2  0
 27 28  1  0
 28 29  2  0
 29 30  1  0
 30 33  1  0
 31 30  2  0
 32 31  1  0
 33 34  1  0
 34 35  2  0
 34 39  1  0
 35 36  1  0
 36 37  2  0
 37 41  1  0
 38 37  1  0
 39 38  2  0
 40 39  1  0
 42 43  1  0
 43 45  1  0
 43 46  1  0
 44 42  2  0
 47 22  1  0
 48 47  1  0
 49 47  1  0
 50  6  1  0
 50 51  1  0
 51 52  1  0
 53 52  1  0
 53 55  1  0
 54 64  1  0
 54 65  2  0
 55 61  1  0
 56 63  1  0
 56 66  1  0
 57 62  1  0
 57 63  1  0
 58 59  1  0
 58 64  1  0
 59 57  2  0
 60 55  2  0
 60 59  1  0
 61 62  2  0
 64 56  1  0
 66 68  2  0
 66 67  1  0
 69 67  1  0
 70 74  1  0
 71 67  1  0
 71 72  1  0
 72 73  1  0
 73 74  1  0
 75 71  1  0
 75 70  2  0
 76 75  1  0
 77 76  2  0
 77 78  1  0
 78 79  2  0
 79 70  1  0
 80 54  1  0
 81 80  1  0
 81 84  1  0
 82 81  1  0
 83 82  2  0
 86 85  1  0
 86 82  1  0
 88 86  1  0
 88 87  1  0
 89 88  1  0
 90 80  1  0
 90 91  1  1
 90 92  1  0
 93 90  1  0
M  ISO  4  12 100  20 100  52 101  53 101
M  END
>  <TORSDO>  (25) 
F 24

>  <SCORE>  (25) 
-4.234

>  <name>  (25) 
25

>  <ligand_id>  (25) 
25

>  <original_smiles>  (25) 
[H]c1c([H])c([H])c2c(c1[H])C([H])([H])C([H])([H])C([H])([H])C2([H])N([H])C(=O)C1([H])N(C(=O)C([H])(N([H])C(=O)C([H])(N([H])C([H])([H])[H])C([H])([H])[H])C(C([H])([H])[H])(C([H])([H])[H])C([H])([H])[H])C([H])([H])c2c([H])c(OC([H])([H])C([H])([H])C([H])([H])c3c([H])c([H])c([H])c(C([H])([H])C([H])([H])C([H])([H])C([H])([H])C([H])([H])N([H])C(=O)N4C([H])([H])C([H])([H])C([H])([H])C([H])(n5nc(-c6c([H])c([H])c(Oc7c([H])c([H])c(F)c([H])c7F)c([H])c6[H])c(C(=O)N([H])[H])c5N([H])[H])C4([H])[H])c3[H])c([H])c([H])c2C1([H])[H]

>  <smiles>  (25) 
[H]c1c([H])c([H])c2c(c1[H])C([H])([H])C([H])([H])C([H])([H])C2([H])N([H])C(=O)C1([H])N(C(=O)C([H])(N([H])C(=O)C([H])(N([H])C([H])([H])[H])C([H])([H])[H])C(C([H])([H])[H])(C([H])([H])[H])C([H])([H])[H])C([H])([H])c2c([H])c(OC([H])([H])C([H])([H])C([H])([H])c3c([H])c([H])c([H])c(C([H])([H])C([H])([H])C([H])([H])C([H])([H])C([H])([H])N([H])C(=O)N4C([H])([H])C([H])([H])C([H])([H])C([H])(n5nc(-c6c([H])c([H])c(Oc7c([H])c([H])c(F)c([H])c7F)c([H])c6[H])c(C(=O)N([H])[H])c5N([H])[H])C4([H])[H])c3[H])c([H])c([H])c2C1([H])[H]

$$$$
26:0:0
     RDKit          3D

 97105  0  0  1  0  0  0  0  0999 V2000
  -34.1970  -25.2250   20.5810 C   0  0  0  0  0  2  0  0  0  0  0  0
  -33.4160  -23.3840   19.0220 C   0  0  0  0  0  3  0  0  0  0  0  0
  -33.2850  -22.9880   21.4210 C   0  0  0  0  0  3  0  0  0  0  0  0
  -32.8000  -22.1420   18.7840 C   0  0  0  0  0  3  0  0  0  0  0  0
  -32.6640  -21.7440   21.1820 C   0  0  0  0  0  3  0  0  0  0  0  0
  -33.6410  -23.8250   20.3420 C   0  0  0  0  0  0  0  0  0  0  0  0
  -32.4040  -21.3200   19.8580 C   0  0  0  0  0  0  0  0  0  0  0  0
  -31.6660  -20.0250   19.5430 C   0  0  0  0  0  2  0  0  0  0  0  0
  -31.7900  -18.9080   20.5930 C   0  0  0  0  0  2  0  0  0  0  0  0
  -31.0650  -17.6290   20.1490 C   0  0  0  0  0  2  0  0  0  0  0  0
  -31.2920  -16.4620   21.1260 C   0  0  0  0  0  2  0  0  0  0  0  0
  -30.9570  -14.4510   19.7040 C   0  0  0  0  0  0  0  0  0  0  0  0
  -30.5270  -12.3500   18.4910 C   0  0  0  0  0  2  0  0  0  0  0  0
  -29.4640  -12.5450   17.3960 C   0  0  0  0  0  2  0  0  0  0  0  0
  -28.0510  -12.3520   17.9760 C   0  0  0  0  0  2  0  0  0  0  0  0
  -27.8210  -13.1770   19.2680 C   0  0  0  0  0  3  0  0  0  0  0  0
  -28.9840  -12.9780   20.2640 C   0  0  0  0  0  2  0  0  0  0  0  0
  -30.2480  -13.3020   19.5760 N   0  0  0  0  0  0  0  0  0  0  0  0
  -31.9050  -14.7480   18.9710 O   0  0  0  0  0  0  0  0  0  0  0  0
  -30.5890  -15.2490   20.7120 N   0  0  0  0  0  0  0  0  0  0  0  0
  -29.7980  -14.9530   21.2650 H   0  0  0  0  0  0  0  0  0  0  0  0
  -25.4970  -13.7110   20.2430 C   0  0  0  0  0  0  0  0  0  0  0  0
  -24.4910  -12.9030   20.7030 C   0  0  0  0  0  0  0  0  0  0  0  0
  -24.9760  -11.5650   20.5870 C   0  0  0  0  0  0  0  0  0  0  0  0
  -26.5300  -12.8610   19.8780 N   0  0  0  0  0  0  0  0  0  0  0  0
  -26.2260  -11.5640   20.1400 N   0  0  0  0  0  0  0  0  0  0  0  0
  -24.3030  -10.2800   20.8200 C   0  0  0  0  0  0  0  0  0  0  0  0
  -24.7670   -9.3700   21.7960 C   0  0  0  0  0  3  0  0  0  0  0  0
  -24.0930   -8.1500   22.0130 C   0  0  0  0  0  3  0  0  0  0  0  0
  -22.9420   -7.8290   21.2550 C   0  0  0  0  0  0  0  0  0  0  0  0
  -22.4980   -8.7280   20.2700 C   0  0  0  0  0  3  0  0  0  0  0  0
  -23.1720   -9.9410   20.0500 C   0  0  0  0  0  3  0  0  0  0  0  0
  -22.2370   -6.6560   21.3790 O   0  0  0  0  0  0  0  0  0  0  0  0
  -22.1070   -6.0200   22.5890 C   0  0  0  0  0  0  0  0  0  0  0  0
  -21.4940   -6.6450   23.6960 C   0  0  0  0  0  3  0  0  0  0  0  0
  -21.3170   -5.9310   24.8980 C   0  0  0  0  0  3  0  0  0  0  0  0
  -21.7430   -4.5920   24.9920 C   0  0  0  0  0  0  0  0  0  0  0  0
  -22.3480   -3.9670   23.8870 C   0  0  0  0  0  3  0  0  0  0  0  0
  -22.5260   -4.6790   22.6890 C   0  0  0  0  0  0  0  0  0  0  0  0
  -23.0910   -4.0640   21.6210 F   0  0  0  0  0  0  0  0  0  0  0  0
  -21.5660   -3.9040   26.1440 F   0  0  0  0  0  0  0  0  0  0  0  0
  -23.1210  -13.3370   21.1370 C   0  0  0  0  0  0  0  0  0  0  0  0
  -22.5120  -12.6070   22.0640 N   0  0  0  0  0  0  0  0  0  0  0  0
  -22.6030  -14.3610   20.6900 O   0  0  0  0  0  0  0  0  0  0  0  0
  -22.9440  -11.7800   22.4460 H   0  0  0  0  0  0  0  0  0  0  0  0
  -21.5960  -12.8780   22.3950 H   0  0  0  0  0  0  0  0  0  0  0  0
  -25.6130  -15.0880   20.0850 N   0  0  0  0  0  0  0  0  0  0  0  0
  -24.8510  -15.7250   20.2900 H   0  0  0  0  0  0  0  0  0  0  0  0
  -26.4210  -15.5520   19.6900 H   0  0  0  0  0  0  0  0  0  0  0  0
  -33.2060  -26.2230   21.2370 C   0  0  0  0  0  2  0  0  0  0  0  0
  -31.8620  -26.4290   20.5190 C   0  0  0  0  0  0  0  0  0  0  0  0
  -31.7980  -26.1190   19.2190 N   0  0  0  0  0  0  0  0  0  0  0  0
  -30.8860  -26.8430   21.1490 O   0  0  0  0  0  0  0  0  0  0  0  0
  -32.6470  -25.7600   18.8020 H   0  0  0  0  0  0  0  0  0  0  0  0
  -30.5920  -25.9590   18.4210 C   0  0  0  0  0  2  0  0  0  0  0  0
  -29.7290  -27.2240   18.3540 C   0  0  0  0  0  2  0  0  0  0  0  0
  -28.5870  -26.8700   17.5820 O   0  0  0  0  0  0  0  0  0  0  0  0
  -24.3230  -30.1580   22.2930 C   0  0  0  0  0  0  0  0  0  0  0  0
  -27.3490  -27.3410   17.9440 C   0  0  0  0  0  0  0  0  0  0  0  0
  -23.2020  -28.9520   20.4430 C   0  0  0  0  0  3  0  0  0  0  0  0
  -24.7190  -28.1810   18.5450 C   0  0  0  0  0  0  0  0  0  0  0  0
  -25.5450  -29.9210   20.1420 C   0  0  0  0  0  2  0  0  0  0  0  0
  -25.8140  -28.8040   19.1580 C   0  0  0  0  0  0  0  0  0  0  0  0
  -27.1280  -28.3880   18.8680 C   0  0  0  0  0  3  0  0  0  0  0  0
  -26.2390  -26.7290   17.3280 C   0  0  0  0  0  3  0  0  0  0  0  0
  -24.9260  -27.1350   17.6270 C   0  0  0  0  0  3  0  0  0  0  0  0
  -23.3470  -28.6930   18.9190 C   0  0  0  0  0  2  0  0  0  0  0  0
  -24.3780  -29.6810   21.0180 N   0  0  0  0  0  0  0  0  0  0  0  0
  -23.2980  -30.0380   22.9770 O   0  0  0  0  0  0  0  0  0  0  0  0
  -22.9090  -27.6100   21.1510 C   0  0  0  0  0  0  0  0  0  0  0  0
  -21.6320  -27.1950   21.1340 N   0  0  0  0  0  0  0  0  0  0  0  0
  -23.8170  -26.9590   21.6740 O   0  0  0  0  0  0  0  0  0  0  0  0
  -20.9480  -27.7880   20.6850 H   0  0  0  0  0  0  0  0  0  0  0  0
  -18.6270  -25.2860   21.7510 C   0  0  0  0  0  0  0  0  0  0  0  0
  -21.1250  -25.9490   21.7050 C   0  0  0  0  0  3  0  0  0  0  0  0
  -21.3160  -24.7710   20.7220 C   0  0  0  0  0  2  0  0  0  0  0  0
  -20.0940  -24.5270   19.8310 C   0  0  0  0  0  2  0  0  0  0  0  0
  -18.8570  -24.2280   20.6860 C   0  0  0  0  0  2  0  0  0  0  0  0
  -19.6880  -26.1070   22.2150 C   0  0  0  0  0  0  0  0  0  0  0  0
  -19.4150  -27.1020   23.1800 C   0  0  0  0  0  3  0  0  0  0  0  0
  -18.1120  -27.2820   23.6790 C   0  0  0  0  0  3  0  0  0  0  0  0
  -17.0680  -26.4540   23.2300 C   0  0  0  0  0  3  0  0  0  0  0  0
  -17.3270  -25.4580   22.2710 C   0  0  0  0  0  3  0  0  0  0  0  0
  -25.5370  -30.8960   22.9440 C   0  0  0  0  0  3  0  0  0  0  0  0
  -26.3210  -30.0050   23.9840 C   0  0  1  0  0  0  0  0  0  0  0  0
  -25.4110  -29.3520   25.0520 C   0  0  0  0  0  1  0  0  0  0  0  0
  -27.0880  -28.8750   23.2610 C   0  0  0  0  0  1  0  0  0  0  0  0
  -27.3820  -30.8650   24.7130 C   0  0  0  0  0  1  0  0  0  0  0  0
  -25.0230  -32.1140   23.5810 N   0  0  0  0  0  0  0  0  0  0  0  0
  -25.1340  -33.3460   23.0670 C   0  0  0  0  0  0  0  0  0  0  0  0
  -25.7530  -33.5840   22.0250 O   0  0  0  0  0  0  0  0  0  0  0  0
  -24.4560  -31.9920   24.4070 H   0  0  0  0  0  0  0  0  0  0  0  0
  -23.1210  -34.8480   23.1430 C   0  0  0  0  0  1  0  0  0  0  0  0
  -24.4520  -34.4960   23.8280 C   0  0  0  0  0  3  0  0  0  0  0  0
  -26.4440  -35.5290   24.8210 C   0  0  0  0  0  1  0  0  0  0  0  0
  -25.2910  -35.7100   23.9440 N   0  0  0  0  0  0  0  0  0  0  0  0
  -24.7460  -36.4920   24.2970 H   0  0  0  0  0  0  0  0  0  0  0  0
  1 50  1  0
  2  6  1  0
  4  2  2  0
  4  7  1  0
  5  3  1  0
  6  1  1  0
  6  3  2  0
  7  5  2  0
  8  7  1  0
  8  9  1  0
 10  9  1  0
 10 11  1  0
 12 20  1  0
 13 18  1  0
 14 15  1  0
 14 13  1  0
 16 15  1  0
 16 25  1  0
 16 17  1  0
 18 12  1  0
 18 17  1  0
 19 12  2  0
 20 11  1  0
 20 21  1  0
 22 23  2  0
 23 42  1  0
 24 23  1  0
 24 27  1  0
 25 26  1  0
 25 22  1  0
 26 24  2  0
 27 28  1  0
 28 29  2  0
 30 33  1  0
 30 29  1  0
 31 30  2  0
 32 31  1  0
 32 27  2  0
 33 34  1  0
 34 39  2  0
 34 35  1  0
 35 36  2  0
 36 37  1  0
 37 41  1  0
 38 37  2  0
 39 38  1  0
 40 39  1  0
 42 43  1  0
 43 46  1  0
 43 45  1  0
 44 42  2  0
 47 22  1  0
 47 48  1  0
 49 47  1  0
 51 53  2  0
 51 50  1  0
 52 51  1  0
 54 52  1  0
 55 52  1  0
 56 55  1  0
 57 59  1  0
 57 56  1  0
 58 69  2  0
 59 64  1  0
 60 68  1  0
 60 70  1  0
 61 67  1  0
 61 63  1  0
 62 68  1  0
 63 62  1  0
 64 63  2  0
 65 66  1  0
 65 59  2  0
 66 61  2  0
 67 60  1  0
 68 58  1  0
 70 72  2  0
 71 70  1  0
 73 71  1  0
 74 79  2  0
 74 83  1  0
 75 71  1  0
 75 79  1  0
 76 75  1  0
 77 78  1  0
 77 76  1  0
 78 74  1  0
 79 80  1  0
 80 81  2  0
 82 81  1  0
 83 82  2  0
 84 58  1  0
 84 89  1  0
 84 85  1  0
 85 88  1  1
 85 86  1  0
 87 85  1  0
 89 92  1  0
 90 89  1  0
 90 94  1  0
 91 90  2  0
 94 93  1  0
 94 96  1  0
 96 97  1  0
 96 95  1  0
M  ISO  4  12 100  20 100  56 101  57 101
M  END
>  <TORSDO>  (26) 
F 25

>  <SCORE>  (26) 
-4.217

>  <name>  (26) 
26

>  <ligand_id>  (26) 
26

>  <original_smiles>  (26) 
[H]c1c([H])c([H])c2c(c1[H])C([H])([H])C([H])([H])C([H])([H])C2([H])N([H])C(=O)C1([H])N(C(=O)C([H])(N([H])C(=O)C([H])(N([H])C([H])([H])[H])C([H])([H])[H])C(C([H])([H])[H])(C([H])([H])[H])C([H])([H])[H])C([H])([H])c2c([H])c(OC([H])([H])C([H])([H])N([H])C(=O)C([H])([H])C([H])([H])c3c([H])c([H])c(C([H])([H])C([H])([H])C([H])([H])C([H])([H])N([H])C(=O)N4C([H])([H])C([H])([H])C([H])([H])C([H])(n5nc(-c6c([H])c([H])c(Oc7c([H])c([H])c(F)c([H])c7F)c([H])c6[H])c(C(=O)N([H])[H])c5N([H])[H])C4([H])[H])c([H])c3[H])c([H])c([H])c2C1([H])[H]

>  <smiles>  (26) 
[H]c1c([H])c([H])c2c(c1[H])C([H])([H])C([H])([H])C([H])([H])C2([H])N([H])C(=O)C1([H])N(C(=O)C([H])(N([H])C(=O)C([H])(N([H])C([H])([H])[H])C([H])([H])[H])C(C([H])([H])[H])(C([H])([H])[H])C([H])([H])[H])C([H])([H])c2c([H])c(OC([H])([H])C([H])([H])N([H])C(=O)C([H])([H])C([H])([H])c3c([H])c([H])c(C([H])([H])C([H])([H])C([H])([H])C([H])([H])N([H])C(=O)N4C([H])([H])C([H])([H])C([H])([H])C([H])(n5nc(-c6c([H])c([H])c(Oc7c([H])c([H])c(F)c([H])c7F)c([H])c6[H])c(C(=O)N([H])[H])c5N([H])[H])C4([H])[H])c([H])c3[H])c([H])c([H])c2C1([H])[H]

$$$$
27:0:0
     RDKit          3D

100107  0  0  1  0  0  0  0  0999 V2000
  -25.6660  -25.0070   21.5740 C   0  0  0  0  0  3  0  0  0  0  0  0
  -25.2320  -23.6930   21.0520 N   0  0  0  0  0  4  0  0  0  0  0  0
  -26.0370  -23.0830   21.0510 H   0  0  0  0  0  0  0  0  0  0  0  0
  -24.5520  -23.2840   21.6710 H   0  0  0  0  0  0  0  0  0  0  0  0
  -24.6990  -23.7470   19.6690 C   0  0  0  0  0  2  0  0  0  0  0  0
  -25.6260  -23.0480   18.6660 C   0  0  0  0  0  2  0  0  0  0  0  0
  -25.2650  -21.5650   18.4430 C   0  0  0  0  0  2  0  0  0  0  0  0
  -26.1000  -20.8120   17.3860 C   0  0  0  0  0  2  0  0  0  0  0  0
  -27.5070  -20.3930   17.8690 C   0  0  0  0  0  2  0  0  0  0  0  0
  -28.6410  -21.1080   17.1120 C   0  0  0  0  0  2  0  0  0  0  0  0
  -29.9210  -21.2520   17.9530 C   0  0  0  0  0  2  0  0  0  0  0  0
  -31.1240  -20.5660   17.2900 C   0  0  0  0  0  2  0  0  0  0  0  0
  -32.3630  -20.4150   18.1910 C   0  0  0  0  0  2  0  0  0  0  0  0
  -34.4270  -18.9350   18.1480 C   0  0  0  0  0  0  0  0  0  0  0  0
  -35.0840  -16.7240   19.0370 C   0  0  0  0  0  2  0  0  0  0  0  0
  -34.5350  -15.6120   18.1130 C   0  0  0  0  0  2  0  0  0  0  0  0
  -33.0770  -15.2480   18.4660 C   0  0  0  0  0  2  0  0  0  0  0  0
  -32.1720  -16.5020   18.6390 C   0  0  0  0  0  3  0  0  0  0  0  0
  -32.8730  -17.5190   19.5720 C   0  0  0  0  0  2  0  0  0  0  0  0
  -34.1570  -17.8680   18.9540 N   0  0  0  0  0  0  0  0  0  0  0  0
  -35.5420  -19.1410   17.6680 O   0  0  0  0  0  0  0  0  0  0  0  0
  -33.3740  -19.5520   17.5780 N   0  0  0  0  0  0  0  0  0  0  0  0
  -33.6490  -19.9140   16.6740 H   0  0  0  0  0  0  0  0  0  0  0  0
  -29.7500  -16.9450   19.4210 C   0  0  0  0  0  0  0  0  0  0  0  0
  -28.7330  -16.0920   19.7550 C   0  0  0  0  0  0  0  0  0  0  0  0
  -29.2550  -14.7730   19.6000 C   0  0  0  0  0  0  0  0  0  0  0  0
  -30.8380  -16.1380   19.1130 N   0  0  0  0  0  0  0  0  0  0  0  0
  -30.5390  -14.8230   19.2700 N   0  0  0  0  0  0  0  0  0  0  0  0
  -28.5880  -13.4660   19.6910 C   0  0  0  0  0  0  0  0  0  0  0  0
  -28.6450  -12.6890   20.8700 C   0  0  0  0  0  3  0  0  0  0  0  0
  -27.9890  -11.4430   20.9410 C   0  0  0  0  0  3  0  0  0  0  0  0
  -27.2580  -10.9640   19.8280 C   0  0  0  0  0  0  0  0  0  0  0  0
  -27.2230  -11.7260   18.6480 C   0  0  0  0  0  3  0  0  0  0  0  0
  -27.8840  -12.9630   18.5780 C   0  0  0  0  0  3  0  0  0  0  0  0
  -26.6090   -9.7540   19.7960 O   0  0  0  0  0  0  0  0  0  0  0  0
  -25.7670   -9.3680   20.8070 C   0  0  0  0  0  0  0  0  0  0  0  0
  -24.5860  -10.0790   21.1070 C   0  0  0  0  0  3  0  0  0  0  0  0
  -23.7090   -9.6030   22.1020 C   0  0  0  0  0  3  0  0  0  0  0  0
  -24.0080   -8.4120   22.7920 C   0  0  0  0  0  0  0  0  0  0  0  0
  -25.1870   -7.7050   22.4980 C   0  0  0  0  0  3  0  0  0  0  0  0
  -26.0600   -8.1800   21.5040 C   0  0  0  0  0  0  0  0  0  0  0  0
  -27.1830   -7.4810   21.2070 F   0  0  0  0  0  0  0  0  0  0  0  0
  -23.1640   -7.9480   23.7440 F   0  0  0  0  0  0  0  0  0  0  0  0
  -27.3250  -16.4750   20.1090 C   0  0  0  0  0  0  0  0  0  0  0  0
  -26.6690  -15.6940   20.9570 N   0  0  0  0  0  0  0  0  0  0  0  0
  -26.8160  -17.5070   19.6730 O   0  0  0  0  0  0  0  0  0  0  0  0
  -27.0870  -14.8440   21.3040 H   0  0  0  0  0  0  0  0  0  0  0  0
  -25.7220  -15.9250   21.2280 H   0  0  0  0  0  0  0  0  0  0  0  0
  -29.8180  -18.3340   19.3400 N   0  0  0  0  0  0  0  0  0  0  0  0
  -29.0270  -18.9190   19.5830 H   0  0  0  0  0  0  0  0  0  0  0  0
  -30.6480  -18.8510   19.0840 H   0  0  0  0  0  0  0  0  0  0  0  0
  -27.1730  -25.2780   21.3030 C   0  0  0  0  0  2  0  0  0  0  0  0
  -27.2920  -26.6200   20.5760 C   0  0  0  0  0  2  0  0  0  0  0  0
  -28.6960  -27.2170   20.3170 C   0  0  0  0  0  2  0  0  0  0  0  0
  -28.6230  -28.4750   19.6180 O   0  0  0  0  0  0  0  0  0  0  0  0
  -25.4550  -31.9560   24.9120 C   0  0  0  0  0  0  0  0  0  0  0  0
  -27.5520  -29.2450   19.9940 C   0  0  0  0  0  0  0  0  0  0  0  0
  -24.0190  -31.3680   22.9830 C   0  0  0  0  0  3  0  0  0  0  0  0
  -25.2430  -30.5810   20.8900 C   0  0  0  0  0  0  0  0  0  0  0  0
  -26.5180  -31.7830   22.6750 C   0  0  0  0  0  2  0  0  0  0  0  0
  -26.4730  -30.8080   21.5190 C   0  0  0  0  0  0  0  0  0  0  0  0
  -27.6320  -30.1330   21.0860 C   0  0  0  0  0  3  0  0  0  0  0  0
  -26.3190  -29.0650   19.3290 C   0  0  0  0  0  3  0  0  0  0  0  0
  -25.1580  -29.7070   19.7890 C   0  0  0  0  0  3  0  0  0  0  0  0
  -24.0510  -31.3270   21.4300 C   0  0  0  0  0  2  0  0  0  0  0  0
  -25.3540  -31.6910   23.5800 N   0  0  0  0  0  0  0  0  0  0  0  0
  -24.4540  -31.9800   25.6380 O   0  0  0  0  0  0  0  0  0  0  0  0
  -23.4260  -30.0400   23.5040 C   0  0  0  0  0  0  0  0  0  0  0  0
  -22.1530  -29.7790   23.1640 N   0  0  0  0  0  0  0  0  0  0  0  0
  -24.1110  -29.2620   24.1770 O   0  0  0  0  0  0  0  0  0  0  0  0
  -21.6520  -30.4760   22.6290 H   0  0  0  0  0  0  0  0  0  0  0  0
  -19.0560  -28.0100   22.5670 C   0  0  0  0  0  0  0  0  0  0  0  0
  -21.3990  -28.5750   23.5080 C   0  0  0  0  0  3  0  0  0  0  0  0
  -21.9040  -27.3550   22.7040 C   0  0  0  0  0  2  0  0  0  0  0  0
  -21.1210  -27.1100   21.4100 C   0  0  0  0  0  2  0  0  0  0  0  0
  -19.6370  -26.8940   21.7140 C   0  0  0  0  0  2  0  0  0  0  0  0
  -19.8880  -28.8080   23.3980 C   0  0  0  0  0  0  0  0  0  0  0  0
  -19.3050  -29.8560   24.1450 C   0  0  0  0  0  3  0  0  0  0  0  0
  -17.9220  -30.1050   24.0810 C   0  0  0  0  0  3  0  0  0  0  0  0
  -17.1040  -29.3040   23.2670 C   0  0  0  0  0  3  0  0  0  0  0  0
  -17.6690  -28.2560   22.5170 C   0  0  0  0  0  3  0  0  0  0  0  0
  -26.8300  -32.2730   25.5810 C   0  0  0  0  0  3  0  0  0  0  0  0
  -26.7590  -33.6420   26.1060 N   0  0  0  0  0  0  0  0  0  0  0  0
  -27.4360  -34.6850   25.6060 C   0  0  0  0  0  0  0  0  0  0  0  0
  -28.2530  -34.5760   24.6880 O   0  0  0  0  0  0  0  0  0  0  0  0
  -26.0750  -33.8120   26.8280 H   0  0  0  0  0  0  0  0  0  0  0  0
  -26.3560  -36.9270   25.2420 C   0  0  0  0  0  1  0  0  0  0  0  0
  -27.1680  -36.0700   26.2270 C   0  0  0  0  0  3  0  0  0  0  0  0
  -29.0900  -36.1860   27.7520 C   0  0  0  0  0  1  0  0  0  0  0  0
  -28.4000  -36.7920   26.6170 N   0  0  0  0  0  0  0  0  0  0  0  0
  -28.1890  -37.7590   26.8540 H   0  0  0  0  0  0  0  0  0  0  0  0
  -27.2120  -31.2520   26.7190 C   0  0  1  0  0  0  0  0  0  0  0  0
  -26.0930  -31.0370   27.7640 C   0  0  0  0  0  1  0  0  0  0  0  0
  -27.5670  -29.8720   26.1170 C   0  0  0  0  0  1  0  0  0  0  0  0
  -28.4710  -31.7520   27.4670 C   0  0  0  0  0  1  0  0  0  0  0  0
  -25.2070  -25.2570   23.0360 C   0  0  0  0  0  2  0  0  0  0  0  0
  -26.3270  -25.4670   24.0790 C   0  0  0  0  0  2  0  0  0  0  0  0
  -26.0300  -26.6340   25.0450 C   0  0  0  0  0  2  0  0  0  0  0  0
  -27.1810  -26.9300   25.8160 O   0  0  0  0  0  0  0  0  0  0  0  0
  -27.7970  -27.4160   25.2740 H   0  0  0  0  0  0  0  0  0  0  0  0
  1 52  1  0
  1 96  1  0
  2  1  1  0
  2  4  1  0
  3  2  1  0
  5  2  1  0
  6  5  1  0
  7  6  1  0
  8  9  1  0
  8  7  1  0
 10  9  1  0
 10 11  1  0
 12 11  1  0
 12 13  1  0
 14 20  1  0
 16 17  1  0
 16 15  1  0
 18 17  1  0
 18 27  1  0
 18 19  1  0
 20 15  1  0
 20 19  1  0
 21 14  2  0
 22 14  1  0
 22 13  1  0
 23 22  1  0
 24 25  2  0
 25 44  1  0
 26 29  1  0
 26 25  1  0
 27 28  1  0
 27 24  1  0
 28 26  2  0
 29 30  1  0
 30 31  2  0
 32 31  1  0
 33 32  2  0
 34 33  1  0
 34 29  2  0
 35 32  1  0
 35 36  1  0
 36 37  2  0
 36 41  1  0
 37 38  1  0
 38 39  2  0
 39 43  1  0
 40 39  1  0
 41 40  2  0
 42 41  1  0
 44 45  1  0
 45 48  1  0
 45 47  1  0
 46 44  2  0
 49 24  1  0
 49 50  1  0
 51 49  1  0
 53 52  1  0
 54 53  1  0
 55 57  1  0
 55 54  1  0
 56 67  2  0
 57 62  1  0
 58 68  1  0
 58 66  1  0
 59 65  1  0
 59 61  1  0
 60 66  1  0
 61 60  1  0
 62 61  2  0
 63 64  1  0
 63 57  2  0
 64 59  2  0
 65 58  1  0
 66 56  1  0
 68 70  2  0
 69 68  1  0
 71 69  1  0
 72 77  1  0
 73 69  1  0
 74 73  1  0
 75 76  1  0
 75 74  1  0
 76 72  1  0
 77 73  1  0
 77 78  2  0
 79 78  1  0
 80 79  2  0
 81 72  2  0
 81 80  1  0
 82 56  1  0
 82 83  1  0
 82 92  1  0
 83 86  1  0
 84 83  1  0
 84 88  1  0
 85 84  2  0
 88 87  1  0
 88 90  1  0
 90 91  1  0
 90 89  1  0
 92 95  1  1
 92 93  1  0
 94 92  1  0
 96 97  1  0
 97 98  1  0
 98 99  1  0
100 99  1  0
M  ISO  4  14 100  22 100  54 101  55 101
M  END
>  <TORSDO>  (27) 
F 33

>  <SCORE>  (27) 
-2.520

>  <name>  (27) 
27

>  <ligand_id>  (27) 
27

>  <original_smiles>  (27) 
[H]OC([H])([H])C([H])([H])C([H])([H])C([H])(C([H])([H])C([H])([H])C([H])([H])Oc1c([H])c([H])c2c(c1[H])C([H])([H])N(C(=O)C([H])(N([H])C(=O)C([H])(N([H])C([H])([H])[H])C([H])([H])[H])C(C([H])([H])[H])(C([H])([H])[H])C([H])([H])[H])C([H])(C(=O)N([H])C1([H])c3c([H])c([H])c([H])c([H])c3C([H])([H])C([H])([H])C1([H])[H])C2([H])[H])[N+]([H])([H])C([H])([H])C([H])([H])C([H])([H])C([H])([H])C([H])([H])C([H])([H])C([H])([H])C([H])([H])C([H])([H])N([H])C(=O)N1C([H])([H])C([H])([H])C([H])([H])C([H])(n2nc(-c3c([H])c([H])c(Oc4c([H])c([H])c(F)c([H])c4F)c([H])c3[H])c(C(=O)N([H])[H])c2N([H])[H])C1([H])[H]

>  <smiles>  (27) 
[H]OC([H])([H])C([H])([H])C([H])([H])C([H])(C([H])([H])C([H])([H])C([H])([H])Oc1c([H])c([H])c2c(c1[H])C([H])([H])N(C(=O)C([H])(N([H])C(=O)C([H])(N([H])C([H])([H])[H])C([H])([H])[H])C(C([H])([H])[H])(C([H])([H])[H])C([H])([H])[H])C([H])(C(=O)N([H])C1([H])c3c([H])c([H])c([H])c([H])c3C([H])([H])C([H])([H])C1([H])[H])C2([H])[H])[N+]([H])([H])C([H])([H])C([H])([H])C([H])([H])C([H])([H])C([H])([H])C([H])([H])C([H])([H])C([H])([H])C([H])([H])N([H])C(=O)N1C([H])([H])C([H])([H])C([H])([H])C([H])(n2nc(-c3c([H])c([H])c(Oc4c([H])c([H])c(F)c([H])c4F)c([H])c3[H])c(C(=O)N([H])[H])c2N([H])[H])C1([H])[H]

$$$$
28:0:0
     RDKit          3D

 90 97  0  0  1  0  0  0  0  0999 V2000
  -29.3290  -23.3200   21.1010 N   0  0  0  0  0  4  0  0  0  0  0  0
  -29.4590  -23.1770   22.0920 H   0  0  0  0  0  0  0  0  0  0  0  0
  -28.3670  -23.1050   20.9030 H   0  0  0  0  0  0  0  0  0  0  0  0
  -30.1670  -22.3330   20.3850 C   0  0  0  0  0  2  0  0  0  0  0  0
  -29.3810  -21.0380   20.0790 C   0  0  0  0  0  2  0  0  0  0  0  0
  -29.0720  -20.1340   21.2970 C   0  0  0  0  0  2  0  0  0  0  0  0
  -30.1360  -19.0590   21.5940 C   0  0  0  0  0  2  0  0  0  0  0  0
  -29.8630  -17.7070   20.9020 C   0  0  0  0  0  2  0  0  0  0  0  0
  -30.9370  -16.6490   21.2180 C   0  0  0  0  0  2  0  0  0  0  0  0
  -31.0100  -14.3820   20.1160 C   0  0  0  0  0  0  0  0  0  0  0  0
  -30.6300  -12.2350   18.9580 C   0  0  0  0  0  2  0  0  0  0  0  0
  -29.6590  -12.4560   17.7810 C   0  0  0  0  0  2  0  0  0  0  0  0
  -28.2000  -12.3210   18.2530 C   0  0  0  0  0  2  0  0  0  0  0  0
  -27.9050  -13.2000   19.4980 C   0  0  0  0  0  3  0  0  0  0  0  0
  -28.9720  -12.9750   20.5890 C   0  0  0  0  0  2  0  0  0  0  0  0
  -30.3010  -13.2290   19.9940 N   0  0  0  0  0  0  0  0  0  0  0  0
  -32.0610  -14.5990   19.5040 O   0  0  0  0  0  0  0  0  0  0  0  0
  -30.4580  -15.2970   20.9230 N   0  0  0  0  0  0  0  0  0  0  0  0
  -29.6070  -15.0150   21.3810 H   0  0  0  0  0  0  0  0  0  0  0  0
  -25.5340  -13.8880   20.2380 C   0  0  0  0  0  0  0  0  0  0  0  0
  -24.4540  -13.1520   20.6450 C   0  0  0  0  0  0  0  0  0  0  0  0
  -24.8810  -11.7890   20.6340 C   0  0  0  0  0  0  0  0  0  0  0  0
  -26.5550  -12.9750   20.0070 N   0  0  0  0  0  0  0  0  0  0  0  0
  -26.1630  -11.7070   20.3020 N   0  0  0  0  0  0  0  0  0  0  0  0
  -24.1290  -10.5490   20.8690 C   0  0  0  0  0  0  0  0  0  0  0  0
  -24.5520   -9.5970   21.8240 C   0  0  0  0  0  3  0  0  0  0  0  0
  -23.8030   -8.4190   22.0400 C   0  0  0  0  0  3  0  0  0  0  0  0
  -22.6210   -8.1850   21.3000 C   0  0  0  0  0  0  0  0  0  0  0  0
  -22.2180   -9.1230   20.3340 C   0  0  0  0  0  3  0  0  0  0  0  0
  -22.9650  -10.2900   20.1160 C   0  0  0  0  0  3  0  0  0  0  0  0
  -21.8430   -7.0580   21.4250 O   0  0  0  0  0  0  0  0  0  0  0  0
  -21.7760   -6.3590   22.6040 C   0  0  0  0  0  0  0  0  0  0  0  0
  -21.3680   -6.9690   23.8100 C   0  0  0  0  0  3  0  0  0  0  0  0
  -21.2430   -6.1970   24.9830 C   0  0  0  0  0  3  0  0  0  0  0  0
  -21.5190   -4.8160   24.9500 C   0  0  0  0  0  0  0  0  0  0  0  0
  -21.9180   -4.2060   23.7490 C   0  0  0  0  0  3  0  0  0  0  0  0
  -22.0430   -4.9750   22.5790 C   0  0  0  0  0  0  0  0  0  0  0  0
  -22.4110   -4.3770   21.4190 F   0  0  0  0  0  0  0  0  0  0  0  0
  -21.3910   -4.0740   26.0750 F   0  0  0  0  0  0  0  0  0  0  0  0
  -23.0770  -13.6680   20.9430 C   0  0  0  0  0  0  0  0  0  0  0  0
  -22.3570  -13.0080   21.8430 N   0  0  0  0  0  0  0  0  0  0  0  0
  -22.6490  -14.6910   20.4110 O   0  0  0  0  0  0  0  0  0  0  0  0
  -22.7170  -12.1790   22.2930 H   0  0  0  0  0  0  0  0  0  0  0  0
  -21.4320  -13.3330   22.0900 H   0  0  0  0  0  0  0  0  0  0  0  0
  -25.7350  -15.2500   20.0290 N   0  0  0  0  0  0  0  0  0  0  0  0
  -24.9960  -15.9380   20.1220 H   0  0  0  0  0  0  0  0  0  0  0  0
  -26.6060  -15.6480   19.6980 H   0  0  0  0  0  0  0  0  0  0  0  0
  -29.5590  -24.7530   20.7800 C   0  0  0  0  0  2  0  0  0  0  0  0
  -28.2890  -25.3970   20.2060 C   0  0  0  0  0  2  0  0  0  0  0  0
  -28.4080  -26.8210   20.1940 O   0  0  0  0  0  0  0  0  0  0  0  0
  -24.5540  -31.9390   23.2550 C   0  0  0  0  0  0  0  0  0  0  0  0
  -27.2200  -27.5190   20.1750 C   0  0  0  0  0  0  0  0  0  0  0  0
  -23.3510  -30.5250   21.6200 C   0  0  0  0  0  3  0  0  0  0  0  0
  -24.8120  -28.9950   20.1960 C   0  0  0  0  0  0  0  0  0  0  0  0
  -25.8740  -30.9000   21.4190 C   0  0  0  0  0  2  0  0  0  0  0  0
  -25.9660  -29.5320   20.7780 C   0  0  0  0  0  0  0  0  0  0  0  0
  -27.1700  -28.8000   20.7650 C   0  0  0  0  0  3  0  0  0  0  0  0
  -26.0440  -26.9950   19.5830 C   0  0  0  0  0  3  0  0  0  0  0  0
  -24.8410  -27.7270   19.5960 C   0  0  0  0  0  3  0  0  0  0  0  0
  -23.5630  -29.8460   20.2420 C   0  0  0  0  0  2  0  0  0  0  0  0
  -24.6110  -31.1350   22.1570 N   0  0  0  0  0  0  0  0  0  0  0  0
  -23.4710  -32.2100   23.7930 O   0  0  0  0  0  0  0  0  0  0  0  0
  -22.7100  -29.5000   22.5830 C   0  0  0  0  0  0  0  0  0  0  0  0
  -21.3860  -29.3120   22.4610 N   0  0  0  0  0  0  0  0  0  0  0  0
  -23.3990  -28.8790   23.3970 O   0  0  0  0  0  0  0  0  0  0  0  0
  -20.8910  -29.8650   21.7750 H   0  0  0  0  0  0  0  0  0  0  0  0
  -18.0200  -28.1080   22.9550 C   0  0  0  0  0  0  0  0  0  0  0  0
  -20.5760  -28.3770   23.2360 C   0  0  0  0  0  3  0  0  0  0  0  0
  -20.6860  -26.9430   22.6710 C   0  0  0  0  0  2  0  0  0  0  0  0
  -19.5920  -26.6120   21.6510 C   0  0  0  0  0  2  0  0  0  0  0  0
  -18.2040  -26.7580   22.2830 C   0  0  0  0  0  2  0  0  0  0  0  0
  -19.1350  -28.8740   23.3880 C   0  0  0  0  0  0  0  0  0  0  0  0
  -18.9110  -30.1400   23.9750 C   0  0  0  0  0  3  0  0  0  0  0  0
  -17.6050  -30.6380   24.1320 C   0  0  0  0  0  3  0  0  0  0  0  0
  -16.5050  -29.8700   23.7170 C   0  0  0  0  0  3  0  0  0  0  0  0
  -16.7130  -28.6060   23.1340 C   0  0  0  0  0  3  0  0  0  0  0  0
  -25.8380  -32.5780   23.8690 C   0  0  0  0  0  3  0  0  0  0  0  0
  -26.3680  -31.8110   25.1430 C   0  0  1  0  0  0  0  0  0  0  0  0
  -25.2810  -31.5690   26.2150 C   0  0  0  0  0  1  0  0  0  0  0  0
  -26.9580  -30.4370   24.7480 C   0  0  0  0  0  1  0  0  0  0  0  0
  -27.5160  -32.6150   25.7970 C   0  0  0  0  0  1  0  0  0  0  0  0
  -25.5230  -33.9760   24.1940 N   0  0  0  0  0  0  0  0  0  0  0  0
  -25.8600  -35.0270   23.4360 C   0  0  0  0  0  0  0  0  0  0  0  0
  -26.5360  -34.9220   22.4090 O   0  0  0  0  0  0  0  0  0  0  0  0
  -24.9210  -34.1310   24.9900 H   0  0  0  0  0  0  0  0  0  0  0  0
  -24.1300  -36.8150   23.0590 C   0  0  0  0  0  1  0  0  0  0  0  0
  -25.3620  -36.4120   23.8860 C   0  0  0  0  0  3  0  0  0  0  0  0
  -27.4860  -37.3020   24.7400 C   0  0  0  0  0  1  0  0  0  0  0  0
  -26.3930  -37.4690   23.7860 N   0  0  0  0  0  0  0  0  0  0  0  0
  -25.9850  -38.3880   23.9260 H   0  0  0  0  0  0  0  0  0  0  0  0
  1  2  1  0
  3  1  1  0
  4  1  1  0
  5  4  1  0
  5  6  1  0
  6  7  1  0
  8  9  1  0
  8  7  1  0
 10 18  1  0
 11 16  1  0
 12 13  1  0
 12 11  1  0
 14 13  1  0
 14 23  1  0
 14 15  1  0
 16 10  1  0
 16 15  1  0
 17 10  2  0
 18  9  1  0
 18 19  1  0
 20 21  2  0
 21 40  1  0
 22 21  1  0
 22 25  1  0
 23 20  1  0
 23 24  1  0
 24 22  2  0
 25 26  1  0
 26 27  2  0
 28 31  1  0
 28 27  1  0
 29 28  2  0
 30 29  1  0
 30 25  2  0
 31 32  1  0
 32 33  1  0
 33 34  2  0
 35 34  1  0
 35 39  1  0
 36 35  2  0
 37 32  2  0
 37 36  1  0
 38 37  1  0
 40 41  1  0
 41 44  1  0
 41 43  1  0
 42 40  2  0
 45 46  1  0
 45 20  1  0
 47 45  1  0
 48  1  1  0
 49 48  1  0
 50 49  1  0
 51 62  2  0
 52 50  1  0
 52 57  1  0
 53 61  1  0
 53 63  1  0
 54 60  1  0
 54 56  1  0
 55 61  1  0
 56 55  1  0
 57 56  2  0
 58 59  1  0
 58 52  2  0
 59 54  2  0
 60 53  1  0
 61 51  1  0
 63 65  2  0
 64 63  1  0
 66 64  1  0
 67 76  2  0
 67 72  1  0
 68 64  1  0
 68 72  1  0
 69 68  1  0
 70 71  1  0
 70 69  1  0
 71 67  1  0
 72 73  2  0
 73 74  1  0
 75 74  2  0
 76 75  1  0
 77 51  1  0
 77 82  1  0
 77 78  1  0
 78 81  1  1
 78 79  1  0
 80 78  1  0
 82 85  1  0
 83 87  1  0
 83 82  1  0
 84 83  2  0
 87 86  1  0
 89 87  1  0
 89 90  1  0
 89 88  1  0
M  ISO  4  10 100  18 100  49 101  50 101
M  END
>  <TORSDO>  (28) 
F 24

>  <SCORE>  (28) 
-11.828

>  <name>  (28) 
28

>  <ligand_id>  (28) 
28

>  <original_smiles>  (28) 
[H]c1c([H])c([H])c2c(c1[H])C([H])([H])C([H])([H])C([H])([H])C2([H])N([H])C(=O)C1([H])N(C(=O)C([H])(N([H])C(=O)C([H])(N([H])C([H])([H])[H])C([H])([H])[H])C(C([H])([H])[H])(C([H])([H])[H])C([H])([H])[H])C([H])([H])c2c([H])c(OC([H])([H])C([H])([H])[N+]([H])([H])C([H])([H])C([H])([H])C([H])([H])C([H])([H])C([H])([H])C([H])([H])N([H])C(=O)N3C([H])([H])C([H])([H])C([H])([H])C([H])(n4nc(-c5c([H])c([H])c(Oc6c([H])c([H])c(F)c([H])c6F)c([H])c5[H])c(C(=O)N([H])[H])c4N([H])[H])C3([H])[H])c([H])c([H])c2C1([H])[H]

>  <smiles>  (28) 
[H]c1c([H])c([H])c2c(c1[H])C([H])([H])C([H])([H])C([H])([H])C2([H])N([H])C(=O)C1([H])N(C(=O)C([H])(N([H])C(=O)C([H])(N([H])C([H])([H])[H])C([H])([H])[H])C(C([H])([H])[H])(C([H])([H])[H])C([H])([H])[H])C([H])([H])c2c([H])c(OC([H])([H])C([H])([H])[N+]([H])([H])C([H])([H])C([H])([H])C([H])([H])C([H])([H])C([H])([H])C([H])([H])N([H])C(=O)N3C([H])([H])C([H])([H])C([H])([H])C([H])(n4nc(-c5c([H])c([H])c(Oc6c([H])c([H])c(F)c([H])c6F)c([H])c5[H])c(C(=O)N([H])[H])c4N([H])[H])C3([H])[H])c([H])c([H])c2C1([H])[H]

$$$$
29:0:0
     RDKit          3D

102109  0  0  1  0  0  0  0  0999 V2000
  -28.9550  -19.4500   20.3690 C   0  0  0  0  0  3  0  0  0  0  0  0
  -28.6200  -19.4270   18.9210 N   0  0  0  0  0  4  0  0  0  0  0  0
  -27.7340  -18.9550   18.8190 H   0  0  0  0  0  0  0  0  0  0  0  0
  -28.4830  -20.3880   18.6460 H   0  0  0  0  0  0  0  0  0  0  0  0
  -29.5740  -18.8340   17.9700 C   0  0  0  0  0  2  0  0  0  0  0  0
  -29.0080  -18.8540   16.5340 C   0  0  0  0  0  2  0  0  0  0  0  0
  -30.0010  -18.4200   15.4370 C   0  0  0  0  0  2  0  0  0  0  0  0
  -30.5230  -16.9850   15.6360 C   0  0  0  0  0  2  0  0  0  0  0  0
  -31.8610  -16.9510   16.3940 C   0  0  0  0  0  2  0  0  0  0  0  0
  -32.0790  -15.7800   17.3690 C   0  0  0  0  0  2  0  0  0  0  0  0
  -31.2950  -14.7440   19.4250 C   0  0  0  0  0  0  0  0  0  0  0  0
  -30.7370  -12.5930   18.5400 C   0  0  0  0  0  2  0  0  0  0  0  0
  -29.6960  -12.8130   17.4240 C   0  0  0  0  0  2  0  0  0  0  0  0
  -28.2810  -12.7570   18.0190 C   0  0  0  0  0  2  0  0  0  0  0  0
  -28.0820  -13.6450   19.2770 C   0  0  0  0  0  3  0  0  0  0  0  0
  -29.2570  -13.4770   20.2760 C   0  0  0  0  0  2  0  0  0  0  0  0
  -30.5210  -13.6440   19.5330 N   0  0  0  0  0  0  0  0  0  0  0  0
  -32.4490  -14.8170   19.8160 O   0  0  0  0  0  0  0  0  0  0  0  0
  -31.0010  -15.4930   18.3480 N   0  0  0  0  0  0  0  0  0  0  0  0
  -30.0730  -15.3710   17.9750 H   0  0  0  0  0  0  0  0  0  0  0  0
  -25.7570  -14.2680   20.2000 C   0  0  0  0  0  0  0  0  0  0  0  0
  -24.7010  -13.4980   20.6200 C   0  0  0  0  0  0  0  0  0  0  0  0
  -25.1380  -12.1420   20.5230 C   0  0  0  0  0  0  0  0  0  0  0  0
  -26.7710  -13.3800   19.8780 N   0  0  0  0  0  0  0  0  0  0  0  0
  -26.4050  -12.0960   20.1370 N   0  0  0  0  0  0  0  0  0  0  0  0
  -24.4050  -10.8820   20.7220 C   0  0  0  0  0  0  0  0  0  0  0  0
  -24.8590   -9.8960   21.6250 C   0  0  0  0  0  3  0  0  0  0  0  0
  -24.1290   -8.7030   21.8150 C   0  0  0  0  0  3  0  0  0  0  0  0
  -22.9280   -8.4850   21.0970 C   0  0  0  0  0  0  0  0  0  0  0  0
  -22.4890   -9.4590   20.1830 C   0  0  0  0  0  3  0  0  0  0  0  0
  -23.2230  -10.6440   19.9930 C   0  0  0  0  0  3  0  0  0  0  0  0
  -22.1680   -7.3440   21.1940 O   0  0  0  0  0  0  0  0  0  0  0  0
  -22.0440   -6.6620   22.3770 C   0  0  0  0  0  0  0  0  0  0  0  0
  -21.5900   -7.2960   23.5540 C   0  0  0  0  0  3  0  0  0  0  0  0
  -21.4170   -6.5480   24.7350 C   0  0  0  0  0  3  0  0  0  0  0  0
  -21.6830   -5.1660   24.7380 C   0  0  0  0  0  0  0  0  0  0  0  0
  -22.1220   -4.5300   23.5640 C   0  0  0  0  0  3  0  0  0  0  0  0
  -22.3020   -5.2770   22.3870 C   0  0  0  0  0  0  0  0  0  0  0  0
  -22.7090   -4.6570   21.2540 F   0  0  0  0  0  0  0  0  0  0  0  0
  -21.5050   -4.4440   25.8700 F   0  0  0  0  0  0  0  0  0  0  0  0
  -23.3330  -13.9830   21.0000 C   0  0  0  0  0  0  0  0  0  0  0  0
  -22.6690  -13.2860   21.9180 N   0  0  0  0  0  0  0  0  0  0  0  0
  -22.8640  -15.0150   20.5220 O   0  0  0  0  0  0  0  0  0  0  0  0
  -23.0460  -12.4360   22.3120 H   0  0  0  0  0  0  0  0  0  0  0  0
  -21.7610  -13.6000   22.2260 H   0  0  0  0  0  0  0  0  0  0  0  0
  -25.9380  -15.6380   20.0380 N   0  0  0  0  0  0  0  0  0  0  0  0
  -25.2130  -16.3250   20.2190 H   0  0  0  0  0  0  0  0  0  0  0  0
  -26.7910  -16.0530   19.6870 H   0  0  0  0  0  0  0  0  0  0  0  0
  -30.4830  -19.4120   20.6960 C   0  0  0  0  0  2  0  0  0  0  0  0
  -30.8530  -19.2500   22.1930 C   0  0  0  0  0  2  0  0  0  0  0  0
  -30.1640  -18.0830   22.9350 C   0  0  0  0  0  2  0  0  0  0  0  0
  -30.1200  -16.7430   22.1730 C   0  0  0  0  0  2  0  0  0  0  0  0
  -31.4580  -16.1600   21.9750 N   0  0  0  0  0  4  0  0  0  0  0  0
  -32.0230  -16.7230   21.3640 H   0  0  0  0  0  0  0  0  0  0  0  0
  -31.3810  -15.2460   21.5650 H   0  0  0  0  0  0  0  0  0  0  0  0
  -31.9300  -16.0660   22.8570 H   0  0  0  0  0  0  0  0  0  0  0  0
  -28.2520  -20.6910   20.9620 C   0  0  0  0  0  2  0  0  0  0  0  0
  -28.6370  -21.9930   20.2200 C   0  0  0  0  0  2  0  0  0  0  0  0
  -28.4380  -23.2680   21.0420 C   0  0  0  0  0  2  0  0  0  0  0  0
  -28.8450  -24.5150   20.2350 C   0  0  0  0  0  2  0  0  0  0  0  0
  -28.8150  -25.8010   21.0700 C   0  0  0  0  0  2  0  0  0  0  0  0
  -28.8190  -26.9440   20.2170 O   0  0  0  0  0  0  0  0  0  0  0  0
  -24.6050  -31.8160   23.1900 C   0  0  0  0  0  0  0  0  0  0  0  0
  -27.6120  -27.5910   20.1700 C   0  0  0  0  0  0  0  0  0  0  0  0
  -23.5390  -30.3570   21.5010 C   0  0  0  0  0  3  0  0  0  0  0  0
  -25.1260  -28.9140   20.1240 C   0  0  0  0  0  0  0  0  0  0  0  0
  -26.0400  -30.8750   21.3850 C   0  0  0  0  0  2  0  0  0  0  0  0
  -26.2280  -29.5160   20.7420 C   0  0  0  0  0  0  0  0  0  0  0  0
  -27.4790  -28.8650   20.7570 C   0  0  0  0  0  3  0  0  0  0  0  0
  -26.4980  -26.9890   19.5510 C   0  0  0  0  0  3  0  0  0  0  0  0
  -25.2510  -27.6440   19.5290 C   0  0  0  0  0  3  0  0  0  0  0  0
  -23.8320  -29.6910   20.1300 C   0  0  0  0  0  2  0  0  0  0  0  0
  -24.7440  -31.0310   22.0850 N   0  0  0  0  0  0  0  0  0  0  0  0
  -23.4930  -32.0210   23.6960 O   0  0  0  0  0  0  0  0  0  0  0  0
  -22.9150  -29.2970   22.4370 C   0  0  0  0  0  0  0  0  0  0  0  0
  -21.6140  -29.0210   22.2440 N   0  0  0  0  0  0  0  0  0  0  0  0
  -23.6000  -28.7240   23.2880 O   0  0  0  0  0  0  0  0  0  0  0  0
  -21.1240  -29.5340   21.5260 H   0  0  0  0  0  0  0  0  0  0  0  0
  -18.3070  -27.6110   22.6000 C   0  0  0  0  0  0  0  0  0  0  0  0
  -20.8280  -28.0320   22.9820 C   0  0  0  0  0  3  0  0  0  0  0  0
  -21.0480  -26.6110   22.4110 C   0  0  0  0  0  2  0  0  0  0  0  0
  -20.0140  -26.2200   21.3500 C   0  0  0  0  0  2  0  0  0  0  0  0
  -18.5980  -26.2770   21.9340 C   0  0  0  0  0  2  0  0  0  0  0  0
  -19.3540  -28.4410   23.0780 C   0  0  0  0  0  0  0  0  0  0  0  0
  -19.0300  -29.6870   23.6590 C   0  0  0  0  0  3  0  0  0  0  0  0
  -17.6890  -30.1010   23.7680 C   0  0  0  0  0  3  0  0  0  0  0  0
  -16.6560  -29.2680   23.3070 C   0  0  0  0  0  3  0  0  0  0  0  0
  -16.9650  -28.0240   22.7280 C   0  0  0  0  0  3  0  0  0  0  0  0
  -25.8310  -32.5160   23.8570 C   0  0  0  0  0  3  0  0  0  0  0  0
  -25.4470  -33.9030   24.1470 N   0  0  0  0  0  0  0  0  0  0  0  0
  -25.7740  -34.9570   23.3870 C   0  0  0  0  0  0  0  0  0  0  0  0
  -26.5040  -34.8660   22.3960 O   0  0  0  0  0  0  0  0  0  0  0  0
  -24.8050  -34.0430   24.9130 H   0  0  0  0  0  0  0  0  0  0  0  0
  -24.0060  -36.6730   22.8910 C   0  0  0  0  0  1  0  0  0  0  0  0
  -25.2040  -36.3280   23.7920 C   0  0  0  0  0  3  0  0  0  0  0  0
  -27.2410  -37.3060   24.7540 C   0  0  0  0  0  1  0  0  0  0  0  0
  -26.1990  -37.4210   23.7360 N   0  0  0  0  0  0  0  0  0  0  0  0
  -25.7490  -38.3260   23.8450 H   0  0  0  0  0  0  0  0  0  0  0  0
  -26.3280  -31.7880   25.1660 C   0  0  1  0  0  0  0  0  0  0  0  0
  -25.1990  -31.5000   26.1850 C   0  0  0  0  0  1  0  0  0  0  0  0
  -27.0040  -30.4420   24.8190 C   0  0  0  0  0  1  0  0  0  0  0  0
  -27.4030  -32.6510   25.8680 C   0  0  0  0  0  1  0  0  0  0  0  0
  1 49  1  0
  1 57  1  0
  2  1  1  0
  3  2  1  0
  4  2  1  0
  5  2  1  0
  6  5  1  0
  7  8  1  0
  7  6  1  0
  8  9  1  0
  9 10  1  0
 10 19  1  0
 11 17  1  0
 11 18  2  0
 12 17  1  0
 13 14  1  0
 13 12  1  0
 15 14  1  0
 15 24  1  0
 15 16  1  0
 17 16  1  0
 19 11  1  0
 20 19  1  0
 21 22  2  0
 22 41  1  0
 23 22  1  0
 23 26  1  0
 24 25  1  0
 24 21  1  0
 25 23  2  0
 26 27  1  0
 27 28  2  0
 29 32  1  0
 29 28  1  0
 30 29  2  0
 31 30  1  0
 31 26  2  0
 32 33  1  0
 33 38  2  0
 33 34  1  0
 34 35  2  0
 35 36  1  0
 36 40  1  0
 37 36  2  0
 38 37  1  0
 39 38  1  0
 41 42  1  0
 42 45  1  0
 42 44  1  0
 43 41  2  0
 46 21  1  0
 46 47  1  0
 48 46  1  0
 49 50  1  0
 50 51  1  0
 52 51  1  0
 53 52  1  0
 53 56  1  0
 54 53  1  0
 55 53  1  0
 58 57  1  0
 58 59  1  0
 60 59  1  0
 60 61  1  0
 62 61  1  0
 63 74  2  0
 64 62  1  0
 64 69  1  0
 65 73  1  0
 65 75  1  0
 66 72  1  0
 66 68  1  0
 67 73  1  0
 68 69  2  0
 68 67  1  0
 70 64  2  0
 71 70  1  0
 71 66  2  0
 72 65  1  0
 73 63  1  0
 75 77  2  0
 76 75  1  0
 78 76  1  0
 79 88  2  0
 79 84  1  0
 80 76  1  0
 80 84  1  0
 81 80  1  0
 82 83  1  0
 82 81  1  0
 83 79  1  0
 84 85  2  0
 85 86  1  0
 87 86  2  0
 88 87  1  0
 89 63  1  0
 89 90  1  0
 89 99  1  0
 90 93  1  0
 91 95  1  0
 91 90  1  0
 92 91  2  0
 95 94  1  0
 97 95  1  0
 97 98  1  0
 97 96  1  0
 99102  1  1
 99100  1  0
101 99  1  0
M  ISO  4  11 100  19 100  61 101  62 101
M  END
>  <TORSDO>  (29) 
F 33

>  <SCORE>  (29) 
-7.963

>  <name>  (29) 
29

>  <ligand_id>  (29) 
29

>  <original_smiles>  (29) 
[H]c1c([H])c([H])c2c(c1[H])C([H])([H])C([H])([H])C([H])([H])C2([H])N([H])C(=O)C1([H])N(C(=O)C([H])(N([H])C(=O)C([H])(N([H])C([H])([H])[H])C([H])([H])[H])C(C([H])([H])[H])(C([H])([H])[H])C([H])([H])[H])C([H])([H])c2c([H])c(OC([H])([H])C([H])([H])C([H])([H])C([H])([H])C([H])([H])C([H])(C([H])([H])C([H])([H])C([H])([H])C([H])([H])[N+]([H])([H])[H])[N+]([H])([H])C([H])([H])C([H])([H])C([H])([H])C([H])([H])C([H])([H])C([H])([H])N([H])C(=O)N3C([H])([H])C([H])([H])C([H])([H])C([H])(n4nc(-c5c([H])c([H])c(Oc6c([H])c([H])c(F)c([H])c6F)c([H])c5[H])c(C(=O)N([H])[H])c4N([H])[H])C3([H])[H])c([H])c([H])c2C1([H])[H]

>  <smiles>  (29) 
[H]c1c([H])c([H])c2c(c1[H])C([H])([H])C([H])([H])C([H])([H])C2([H])N([H])C(=O)C1([H])N(C(=O)C([H])(N([H])C(=O)C([H])(N([H])C([H])([H])[H])C([H])([H])[H])C(C([H])([H])[H])(C([H])([H])[H])C([H])([H])[H])C([H])([H])c2c([H])c(OC([H])([H])C([H])([H])C([H])([H])C([H])([H])C([H])([H])C([H])(C([H])([H])C([H])([H])C([H])([H])C([H])([H])[N+]([H])([H])[H])[N+]([H])([H])C([H])([H])C([H])([H])C([H])([H])C([H])([H])C([H])([H])C([H])([H])N([H])C(=O)N3C([H])([H])C([H])([H])C([H])([H])C([H])(n4nc(-c5c([H])c([H])c(Oc6c([H])c([H])c(F)c([H])c6F)c([H])c5[H])c(C(=O)N([H])[H])c4N([H])[H])C3([H])[H])c([H])c([H])c2C1([H])[H]

$$$$
30:0:0
     RDKit          3D

 99107  0  0  1  0  0  0  0  0999 V2000
  -27.3060  -21.5920   17.4520 C   0  0  0  0  0  3  0  0  0  0  0  0
  -27.0280  -22.9080   17.8060 C   0  0  0  0  0  3  0  0  0  0  0  0
  -26.2660  -20.6620   17.3620 C   0  0  0  0  0  0  0  0  0  0  0  0
  -25.7220  -23.3210   18.1540 C   0  0  0  0  0  0  0  0  0  0  0  0
  -24.9180  -21.0820   17.4970 C   0  0  0  0  0  0  0  0  0  0  0  0
  -24.6460  -22.3900   18.0040 C   0  0  0  0  0  0  0  0  0  0  0  0
  -23.7820  -20.1380   17.1040 C   0  0  0  0  0  1  0  0  0  0  0  0
  -23.2260  -22.7330   18.4460 C   0  0  0  0  0  1  0  0  0  0  0  0
  -24.2780  -25.4870   18.6450 C   0  0  0  0  0  1  0  0  0  0  0  0
  -25.6360  -24.7550   18.7080 C   0  0  0  0  0  3  0  0  0  0  0  0
  -26.2670  -24.7950   20.0540 N   0  0  0  0  0  4  0  0  0  0  0  0
  -25.5640  -24.6230   20.7560 H   0  0  0  0  0  0  0  0  0  0  0  0
  -26.9070  -24.0190   20.1020 H   0  0  0  0  0  0  0  0  0  0  0  0
  -27.0110  -26.0380   20.3920 C   0  0  0  0  0  2  0  0  0  0  0  0
  -28.0670  -26.4490   19.3140 C   0  0  0  0  0  2  0  0  0  0  0  0
  -28.2140  -27.8650   19.1490 O   0  0  0  0  0  0  0  0  0  0  0  0
  -24.8200  -31.7750   23.9480 C   0  0  0  0  0  0  0  0  0  0  0  0
  -27.0790  -28.6050   19.3850 C   0  0  0  0  0  0  0  0  0  0  0  0
  -23.4410  -30.9980   22.0400 C   0  0  0  0  0  3  0  0  0  0  0  0
  -24.7350  -30.0080   20.0780 C   0  0  0  0  0  0  0  0  0  0  0  0
  -25.9510  -31.3940   21.7650 C   0  0  0  0  0  2  0  0  0  0  0  0
  -25.9440  -30.3090   20.7140 C   0  0  0  0  0  0  0  0  0  0  0  0
  -27.1200  -29.6100   20.3700 C   0  0  0  0  0  3  0  0  0  0  0  0
  -25.8610  -28.3400   18.7210 C   0  0  0  0  0  3  0  0  0  0  0  0
  -24.6830  -29.0200   19.0790 C   0  0  0  0  0  3  0  0  0  0  0  0
  -23.5250  -30.8030   20.5030 C   0  0  0  0  0  2  0  0  0  0  0  0
  -24.7610  -31.3790   22.6440 N   0  0  0  0  0  0  0  0  0  0  0  0
  -23.7960  -31.8650   24.6380 O   0  0  0  0  0  0  0  0  0  0  0  0
  -22.8300  -29.7240   22.6690 C   0  0  0  0  0  0  0  0  0  0  0  0
  -21.5250  -29.5010   22.4380 N   0  0  0  0  0  0  0  0  0  0  0  0
  -23.5310  -28.9480   23.3240 O   0  0  0  0  0  0  0  0  0  0  0  0
  -21.0170  -30.1940   21.9060 H   0  0  0  0  0  0  0  0  0  0  0  0
  -18.2700  -27.9420   22.3110 C   0  0  0  0  0  0  0  0  0  0  0  0
  -20.7510  -28.3490   22.9020 C   0  0  0  0  0  3  0  0  0  0  0  0
  -21.0550  -27.0950   22.0530 C   0  0  0  0  0  2  0  0  0  0  0  0
  -20.0870  -26.9060   20.8850 C   0  0  0  0  0  2  0  0  0  0  0  0
  -18.6450  -26.7940   21.3890 C   0  0  0  0  0  2  0  0  0  0  0  0
  -19.2610  -28.6810   23.0110 C   0  0  0  0  0  0  0  0  0  0  0  0
  -18.8620  -29.7580   23.8300 C   0  0  0  0  0  3  0  0  0  0  0  0
  -17.5030  -30.1020   23.9560 C   0  0  0  0  0  3  0  0  0  0  0  0
  -16.5250  -29.3600   23.2710 C   0  0  0  0  0  3  0  0  0  0  0  0
  -16.9080  -28.2810   22.4560 C   0  0  0  0  0  3  0  0  0  0  0  0
  -26.1730  -32.1590   24.6260 C   0  0  0  0  0  3  0  0  0  0  0  0
  -26.6140  -31.1450   25.7510 C   0  0  1  0  0  0  0  0  0  0  0  0
  -25.5120  -30.8550   26.7980 C   0  0  0  0  0  1  0  0  0  0  0  0
  -27.0440  -29.7940   25.1300 C   0  0  0  0  0  1  0  0  0  0  0  0
  -27.8440  -31.6980   26.5060 C   0  0  0  0  0  1  0  0  0  0  0  0
  -26.0260  -33.5150   25.1740 N   0  0  0  0  0  0  0  0  0  0  0  0
  -26.4860  -34.6250   24.5850 C   0  0  0  0  0  0  0  0  0  0  0  0
  -27.1460  -34.6060   23.5430 O   0  0  0  0  0  0  0  0  0  0  0  0
  -25.4530  -33.6080   26.0000 H   0  0  0  0  0  0  0  0  0  0  0  0
  -24.9840  -36.6430   24.5180 C   0  0  0  0  0  1  0  0  0  0  0  0
  -26.1570  -35.9740   25.2550 C   0  0  0  0  0  3  0  0  0  0  0  0
  -28.3670  -36.4610   26.2090 C   0  0  0  0  0  1  0  0  0  0  0  0
  -27.3080  -36.9010   25.3050 N   0  0  0  0  0  0  0  0  0  0  0  0
  -27.0100  -37.8290   25.5930 H   0  0  0  0  0  0  0  0  0  0  0  0
  -26.6950  -19.2060   17.3310 C   0  0  0  0  0  2  0  0  0  0  0  0
  -28.0390  -19.0710   18.0800 C   0  0  0  0  0  2  0  0  0  0  0  0
  -28.0780  -17.8800   19.0210 C   0  0  0  0  0  2  0  0  0  0  0  0
  -29.4180  -17.7130   19.7420 C   0  0  0  0  0  2  0  0  0  0  0  0
  -29.2900  -16.6430   20.8470 C   0  0  0  0  0  2  0  0  0  0  0  0
  -30.8950  -14.9450   20.1010 C   0  0  0  0  0  0  0  0  0  0  0  0
  -30.7310  -12.6420   19.2480 C   0  0  0  0  0  2  0  0  0  0  0  0
  -29.7860  -12.5550   18.0360 C   0  0  0  0  0  2  0  0  0  0  0  0
  -28.3270  -12.3590   18.4950 C   0  0  0  0  0  2  0  0  0  0  0  0
  -27.9060  -13.3820   19.5880 C   0  0  0  0  0  3  0  0  0  0  0  0
  -28.9670  -13.4110   20.7170 C   0  0  0  0  0  2  0  0  0  0  0  0
  -30.2690  -13.7390   20.1090 N   0  0  0  0  0  0  0  0  0  0  0  0
  -31.8890  -15.1950   19.4150 O   0  0  0  0  0  0  0  0  0  0  0  0
  -30.4930  -15.8310   21.0140 N   0  0  0  0  0  0  0  0  0  0  0  0
  -31.2680  -16.3910   21.3420 H   0  0  0  0  0  0  0  0  0  0  0  0
  -25.5070  -13.9950   20.3170 C   0  0  0  0  0  0  0  0  0  0  0  0
  -24.4510  -13.2230   20.7060 C   0  0  0  0  0  0  0  0  0  0  0  0
  -24.9100  -11.8680   20.6530 C   0  0  0  0  0  0  0  0  0  0  0  0
  -26.5570  -13.1140   20.0780 N   0  0  0  0  0  0  0  0  0  0  0  0
  -26.1940  -11.8320   20.3220 N   0  0  0  0  0  0  0  0  0  0  0  0
  -24.1920  -10.6040   20.8390 C   0  0  0  0  0  0  0  0  0  0  0  0
  -24.5830   -9.6770   21.8280 C   0  0  0  0  0  3  0  0  0  0  0  0
  -23.8660   -8.4760   22.0070 C   0  0  0  0  0  3  0  0  0  0  0  0
  -22.7430   -8.1950   21.1920 C   0  0  0  0  0  0  0  0  0  0  0  0
  -22.3670   -9.1130   20.1950 C   0  0  0  0  0  3  0  0  0  0  0  0
  -23.0860  -10.3070   20.0190 C   0  0  0  0  0  3  0  0  0  0  0  0
  -22.0020   -7.0390   21.2710 O   0  0  0  0  0  0  0  0  0  0  0  0
  -21.8140   -6.3910   22.4630 C   0  0  0  0  0  0  0  0  0  0  0  0
  -21.1930   -7.0240   23.5630 C   0  0  0  0  0  3  0  0  0  0  0  0
  -20.9600   -6.3000   24.7500 C   0  0  0  0  0  3  0  0  0  0  0  0
  -21.3300   -4.9450   24.8340 C   0  0  0  0  0  0  0  0  0  0  0  0
  -21.9450   -4.3100   23.7370 C   0  0  0  0  0  3  0  0  0  0  0  0
  -22.1830   -5.0340   22.5550 C   0  0  0  0  0  0  0  0  0  0  0  0
  -22.7540   -4.4140   21.4950 F   0  0  0  0  0  0  0  0  0  0  0  0
  -21.0920   -4.2470   25.9690 F   0  0  0  0  0  0  0  0  0  0  0  0
  -23.0620  -13.6980   21.0130 C   0  0  0  0  0  0  0  0  0  0  0  0
  -22.3580  -13.0030   21.9010 N   0  0  0  0  0  0  0  0  0  0  0  0
  -22.6100  -14.7240   20.5050 O   0  0  0  0  0  0  0  0  0  0  0  0
  -22.7410  -12.1740   22.3280 H   0  0  0  0  0  0  0  0  0  0  0  0
  -21.4330  -13.3150   22.1630 H   0  0  0  0  0  0  0  0  0  0  0  0
  -25.6560  -15.3630   20.1260 N   0  0  0  0  0  0  0  0  0  0  0  0
  -24.8630  -15.9930   20.1590 H   0  0  0  0  0  0  0  0  0  0  0  0
  -26.4680  -15.7630   19.6770 H   0  0  0  0  0  0  0  0  0  0  0  0
  1  2  1  0
  2  4  2  0
  3  1  2  0
  3  5  1  0
  4 10  1  0
  5  6  2  0
  6  4  1  0
  6  8  1  0
  7  5  1  0
 10  9  1  0
 10 11  1  0
 11 13  1  0
 11 14  1  0
 11 12  1  0
 15 14  1  0
 16 15  1  0
 16 18  1  0
 17 28  2  0
 18 23  1  0
 19 27  1  0
 19 29  1  0
 20 26  1  0
 20 22  1  0
 21 27  1  0
 22 21  1  0
 23 22  2  0
 24 25  1  0
 24 18  2  0
 25 20  2  0
 26 19  1  0
 27 17  1  0
 29 31  2  0
 30 29  1  0
 32 30  1  0
 33 42  2  0
 33 38  1  0
 34 30  1  0
 34 38  1  0
 35 34  1  0
 36 37  1  0
 36 35  1  0
 37 33  1  0
 38 39  2  0
 39 40  1  0
 41 40  2  0
 42 41  1  0
 43 17  1  0
 43 48  1  0
 43 44  1  0
 44 47  1  1
 44 45  1  0
 46 44  1  0
 48 51  1  0
 49 48  1  0
 49 53  1  0
 50 49  2  0
 53 52  1  0
 53 55  1  0
 55 56  1  0
 55 54  1  0
 57  3  1  0
 57 58  1  0
 58 59  1  0
 59 60  1  0
 60 61  1  0
 61 70  1  0
 62 68  1  0
 62 70  1  0
 63 68  1  0
 64 65  1  0
 64 63  1  0
 66 65  1  0
 66 75  1  0
 66 67  1  0
 68 67  1  0
 69 62  2  0
 70 71  1  0
 72 73  2  0
 73 92  1  0
 74 73  1  0
 74 77  1  0
 75 72  1  0
 75 76  1  0
 76 74  2  0
 77 78  1  0
 78 79  2  0
 80 83  1  0
 80 79  1  0
 81 80  2  0
 82 81  1  0
 82 77  2  0
 83 84  1  0
 84 89  2  0
 84 85  1  0
 85 86  2  0
 86 87  1  0
 87 91  1  0
 88 87  2  0
 89 88  1  0
 90 89  1  0
 92 93  1  0
 93 96  1  0
 93 95  1  0
 94 92  2  0
 97 98  1  0
 97 72  1  0
 99 97  1  0
M  ISO  4  15 101  16 101  62 100  70 100
M  END
>  <TORSDO>  (30) 
F 25

>  <SCORE>  (30) 
-8.688

>  <name>  (30) 
30

>  <ligand_id>  (30) 
30

>  <original_smiles>  (30) 
[H]c1c([H])c([H])c2c(c1[H])C([H])([H])C([H])([H])C([H])([H])C2([H])N([H])C(=O)C1([H])N(C(=O)C([H])(N([H])C(=O)C([H])(N([H])C([H])([H])[H])C([H])([H])[H])C(C([H])([H])[H])(C([H])([H])[H])C([H])([H])[H])C([H])([H])c2c([H])c(OC([H])([H])C([H])([H])[N+]([H])([H])C([H])(c3c([H])c([H])c(C([H])([H])C([H])([H])C([H])([H])C([H])([H])C([H])([H])N([H])C(=O)N4C([H])([H])C([H])([H])C([H])([H])C([H])(n5nc(-c6c([H])c([H])c(Oc7c([H])c([H])c(F)c([H])c7F)c([H])c6[H])c(C(=O)N([H])[H])c5N([H])[H])C4([H])[H])c(C([H])([H])[H])c3C([H])([H])[H])C([H])([H])[H])c([H])c([H])c2C1([H])[H]

>  <smiles>  (30) 
[H]c1c([H])c([H])c2c(c1[H])C([H])([H])C([H])([H])C([H])([H])C2([H])N([H])C(=O)C1([H])N(C(=O)C([H])(N([H])C(=O)C([H])(N([H])C([H])([H])[H])C([H])([H])[H])C(C([H])([H])[H])(C([H])([H])[H])C([H])([H])[H])C([H])([H])c2c([H])c(OC([H])([H])C([H])([H])[N+]([H])([H])C([H])(c3c([H])c([H])c(C([H])([H])C([H])([H])C([H])([H])C([H])([H])C([H])([H])N([H])C(=O)N4C([H])([H])C([H])([H])C([H])([H])C([H])(n5nc(-c6c([H])c([H])c(Oc7c([H])c([H])c(F)c([H])c7F)c([H])c6[H])c(C(=O)N([H])[H])c5N([H])[H])C4([H])[H])c(C([H])([H])[H])c3C([H])([H])[H])C([H])([H])[H])c([H])c([H])c2C1([H])[H]

$$$$
31:0:0
     RDKit          3D

100108  0  0  1  0  0  0  0  0999 V2000
  -26.4670  -23.1230   19.5820 C   0  0  0  0  0  3  0  0  0  0  0  0
  -26.4790  -24.4730   19.9600 C   0  0  0  0  0  3  0  0  0  0  0  0
  -28.8940  -24.4090   20.1490 C   0  0  0  0  0  3  0  0  0  0  0  0
  -27.6710  -22.3960   19.4700 C   0  0  0  0  0  0  0  0  0  0  0  0
  -27.6970  -25.1460   20.1710 C   0  0  0  0  0  0  0  0  0  0  0  0
  -28.8910  -23.0350   19.8240 C   0  0  0  0  0  0  0  0  0  0  0  0
  -30.2180  -22.2890   19.8150 C   0  0  0  0  0  1  0  0  0  0  0  0
  -27.6670  -21.0730   18.8130 C   0  0  0  0  0  3  0  0  0  0  0  0
  -27.2600  -20.8660   17.5450 C   0  0  0  0  0  3  0  0  0  0  0  0
  -27.4890  -19.5900   16.9110 C   0  0  0  0  0  0  0  0  0  0  0  0
  -28.6050  -19.6710   16.1810 N   0  0  0  0  0  0  0  0  0  0  0  0
  -26.8670  -18.5470   17.1160 O   0  0  0  0  0  0  0  0  0  0  0  0
  -28.9970  -20.5990   16.0820 H   0  0  0  0  0  0  0  0  0  0  0  0
  -29.4980  -18.5670   15.8430 C   0  0  0  0  0  2  0  0  0  0  0  0
  -29.8430  -17.6940   17.0750 C   0  0  0  0  0  2  0  0  0  0  0  0
  -30.0570  -18.5020   18.3740 C   0  0  0  0  0  2  0  0  0  0  0  0
  -30.7630  -17.7370   19.5120 C   0  0  0  0  0  2  0  0  0  0  0  0
  -29.8730  -17.6270   20.7700 C   0  0  0  0  0  2  0  0  0  0  0  0
  -30.4730  -16.8270   21.9420 C   0  0  0  0  0  2  0  0  0  0  0  0
  -30.8340  -14.5100   21.1330 C   0  0  0  0  0  0  0  0  0  0  0  0
  -30.4460  -12.7720   19.4500 C   0  0  0  0  0  2  0  0  0  0  0  0
  -29.5490  -13.3930   18.3590 C   0  0  0  0  0  2  0  0  0  0  0  0
  -28.0590  -13.2380   18.7310 C   0  0  0  0  0  2  0  0  0  0  0  0
  -27.7420  -13.6730   20.1890 C   0  0  0  0  0  3  0  0  0  0  0  0
  -28.7660  -13.0720   21.1780 C   0  0  0  0  0  2  0  0  0  0  0  0
  -30.1180  -13.4360   20.7170 N   0  0  0  0  0  0  0  0  0  0  0  0
  -31.9820  -14.7570   20.7530 O   0  0  0  0  0  0  0  0  0  0  0  0
  -30.1250  -15.4120   21.8160 N   0  0  0  0  0  0  0  0  0  0  0  0
  -29.2020  -15.1350   22.1110 H   0  0  0  0  0  0  0  0  0  0  0  0
  -25.2800  -14.1750   20.7650 C   0  0  0  0  0  0  0  0  0  0  0  0
  -24.2160  -13.3480   21.0250 C   0  0  0  0  0  0  0  0  0  0  0  0
  -24.7270  -12.0180   20.9700 C   0  0  0  0  0  0  0  0  0  0  0  0
  -26.3670  -13.3390   20.5640 N   0  0  0  0  0  0  0  0  0  0  0  0
  -26.0360  -12.0350   20.7450 N   0  0  0  0  0  0  0  0  0  0  0  0
  -24.0340  -10.7260   21.0630 C   0  0  0  0  0  0  0  0  0  0  0  0
  -24.4840   -9.7090   21.9350 C   0  0  0  0  0  3  0  0  0  0  0  0
  -23.7900   -8.4830   22.0190 C   0  0  0  0  0  3  0  0  0  0  0  0
  -22.6360   -8.2650   21.2300 C   0  0  0  0  0  0  0  0  0  0  0  0
  -22.2060   -9.2730   20.3470 C   0  0  0  0  0  3  0  0  0  0  0  0
  -22.8990  -10.4900   20.2610 C   0  0  0  0  0  3  0  0  0  0  0  0
  -21.9170   -7.0930   21.2230 O   0  0  0  0  0  0  0  0  0  0  0  0
  -21.7150   -6.3650   22.3680 C   0  0  0  0  0  0  0  0  0  0  0  0
  -21.1570   -6.9450   23.5290 C   0  0  0  0  0  3  0  0  0  0  0  0
  -20.8990   -6.1460   24.6610 C   0  0  0  0  0  3  0  0  0  0  0  0
  -21.1910   -4.7690   24.6330 C   0  0  0  0  0  0  0  0  0  0  0  0
  -21.7410   -4.1890   23.4770 C   0  0  0  0  0  3  0  0  0  0  0  0
  -21.9990   -4.9840   22.3470 C   0  0  0  0  0  0  0  0  0  0  0  0
  -22.5090   -4.4180   21.2260 F   0  0  0  0  0  0  0  0  0  0  0  0
  -20.9350   -4.0000   25.7160 F   0  0  0  0  0  0  0  0  0  0  0  0
  -22.7890  -13.7710   21.2240 C   0  0  0  0  0  0  0  0  0  0  0  0
  -22.0410  -13.0350   22.0400 N   0  0  0  0  0  0  0  0  0  0  0  0
  -22.3390  -14.7850   20.6970 O   0  0  0  0  0  0  0  0  0  0  0  0
  -22.4120  -12.2140   22.4950 H   0  0  0  0  0  0  0  0  0  0  0  0
  -21.0820  -13.3000   22.2080 H   0  0  0  0  0  0  0  0  0  0  0  0
  -25.3990  -15.5540   20.6650 N   0  0  0  0  0  0  0  0  0  0  0  0
  -24.5680  -16.1370   20.5880 H   0  0  0  0  0  0  0  0  0  0  0  0
  -26.2370  -16.0310   20.3610 H   0  0  0  0  0  0  0  0  0  0  0  0
  -27.7010  -26.6490   20.3980 C   0  0  0  0  0  2  0  0  0  0  0  0
  -28.1960  -27.4470   19.1600 C   0  0  0  0  0  2  0  0  0  0  0  0
  -28.1080  -28.8680   19.3410 O   0  0  0  0  0  0  0  0  0  0  0  0
  -24.9460  -31.7300   25.0120 C   0  0  0  0  0  0  0  0  0  0  0  0
  -26.9210  -29.3410   19.8620 C   0  0  0  0  0  0  0  0  0  0  0  0
  -23.4310  -30.8230   23.2780 C   0  0  0  0  0  3  0  0  0  0  0  0
  -24.5260  -30.2320   21.0630 C   0  0  0  0  0  0  0  0  0  0  0  0
  -25.7590  -31.7070   22.6640 C   0  0  0  0  0  2  0  0  0  0  0  0
  -25.7580  -30.7150   21.5210 C   0  0  0  0  0  0  0  0  0  0  0  0
  -26.9590  -30.2740   20.9210 C   0  0  0  0  0  3  0  0  0  0  0  0
  -25.6620  -28.9020   19.3900 C   0  0  0  0  0  3  0  0  0  0  0  0
  -24.4720  -29.3270   19.9980 C   0  0  0  0  0  3  0  0  0  0  0  0
  -23.2790  -30.7480   21.7350 C   0  0  0  0  0  2  0  0  0  0  0  0
  -24.7420  -31.4180   23.7030 N   0  0  0  0  0  0  0  0  0  0  0  0
  -24.0550  -31.5740   25.8600 O   0  0  0  0  0  0  0  0  0  0  0  0
  -23.1770  -29.4160   23.8700 C   0  0  0  0  0  0  0  0  0  0  0  0
  -22.1310  -28.7370   23.3700 N   0  0  0  0  0  0  0  0  0  0  0  0
  -23.9210  -28.9490   24.7350 O   0  0  0  0  0  0  0  0  0  0  0  0
  -21.5740  -29.1890   22.6580 H   0  0  0  0  0  0  0  0  0  0  0  0
  -20.2200  -25.8630   22.3050 C   0  0  0  0  0  0  0  0  0  0  0  0
  -21.7250  -27.3830   23.7530 C   0  0  0  0  0  3  0  0  0  0  0  0
  -22.8530  -26.3640   23.4680 C   0  0  0  0  0  2  0  0  0  0  0  0
  -22.7400  -25.7020   22.0930 C   0  0  0  0  0  2  0  0  0  0  0  0
  -21.4020  -24.9700   21.9580 C   0  0  0  0  0  2  0  0  0  0  0  0
  -20.3770  -27.0040   23.1340 C   0  0  0  0  0  0  0  0  0  0  0  0
  -19.2540  -27.8200   23.3940 C   0  0  0  0  0  3  0  0  0  0  0  0
  -17.9920  -27.5100   22.8520 C   0  0  0  0  0  3  0  0  0  0  0  0
  -17.8390  -26.3690   22.0440 C   0  0  0  0  0  3  0  0  0  0  0  0
  -18.9500  -25.5480   21.7770 C   0  0  0  0  0  3  0  0  0  0  0  0
  -26.3060  -32.3240   25.5020 C   0  0  0  0  0  3  0  0  0  0  0  0
  -26.8890  -31.5840   26.7690 C   0  0  1  0  0  0  0  0  0  0  0  0
  -25.8330  -31.3000   27.8620 C   0  0  0  0  0  1  0  0  0  0  0  0
  -27.5340  -30.2340   26.3760 C   0  0  0  0  0  1  0  0  0  0  0  0
  -28.0140  -32.4370   27.4020 C   0  0  0  0  0  1  0  0  0  0  0  0
  -26.0820  -33.7470   25.7860 N   0  0  0  0  0  0  0  0  0  0  0  0
  -26.4950  -34.7510   25.0020 C   0  0  0  0  0  0  0  0  0  0  0  0
  -27.1770  -34.5720   23.9880 O   0  0  0  0  0  0  0  0  0  0  0  0
  -25.4900  -33.9650   26.5750 H   0  0  0  0  0  0  0  0  0  0  0  0
  -24.9270  -36.6560   24.5170 C   0  0  0  0  0  1  0  0  0  0  0  0
  -26.0860  -36.1800   25.4070 C   0  0  0  0  0  3  0  0  0  0  0  0
  -28.2610  -36.8860   26.3010 C   0  0  0  0  0  1  0  0  0  0  0  0
  -27.1990  -37.1510   25.3340 N   0  0  0  0  0  0  0  0  0  0  0  0
  -26.8620  -38.0980   25.4830 H   0  0  0  0  0  0  0  0  0  0  0  0
  1  2  1  0
  2  5  2  0
  3  5  1  0
  4  1  2  0
  4  6  1  0
  5 58  1  0
  6  3  2  0
  7  6  1  0
  8  4  1  0
  9  8  2  0
 10 12  2  0
 10  9  1  0
 11 10  1  0
 13 11  1  0
 14 11  1  0
 14 15  1  0
 15 16  1  0
 16 17  1  0
 17 18  1  0
 18 19  1  0
 20 28  1  0
 21 26  1  0
 22 23  1  0
 22 21  1  0
 24 23  1  0
 24 33  1  0
 24 25  1  0
 26 20  1  0
 26 25  1  0
 27 20  2  0
 28 19  1  0
 28 29  1  0
 30 31  2  0
 31 50  1  0
 32 31  1  0
 32 35  1  0
 33 34  1  0
 33 30  1  0
 34 32  2  0
 35 36  1  0
 36 37  2  0
 38 37  1  0
 39 38  2  0
 40 39  1  0
 40 35  2  0
 41 38  1  0
 41 42  1  0
 42 43  1  0
 43 44  2  0
 45 44  1  0
 45 49  1  0
 46 45  2  0
 47 42  2  0
 47 46  1  0
 48 47  1  0
 50 51  1  0
 51 54  1  0
 51 53  1  0
 52 50  2  0
 55 30  1  0
 56 55  1  0
 57 55  1  0
 59 60  1  0
 59 58  1  0
 60 62  1  0
 61 72  2  0
 62 67  1  0
 63 71  1  0
 63 73  1  0
 64 66  1  0
 64 70  1  0
 65 71  1  0
 66 65  1  0
 67 66  2  0
 68 62  2  0
 68 69  1  0
 69 64  2  0
 70 63  1  0
 71 61  1  0
 73 75  2  0
 74 73  1  0
 76 74  1  0
 77 82  1  0
 78 74  1  0
 79 78  1  0
 80 79  1  0
 81 80  1  0
 81 77  1  0
 82 83  2  0
 82 78  1  0
 84 83  1  0
 85 84  2  0
 86 85  1  0
 86 77  2  0
 87 61  1  0
 87 92  1  0
 87 88  1  0
 88 91  1  1
 88 89  1  0
 90 88  1  0
 92 95  1  0
 93 97  1  0
 93 92  1  0
 94 93  2  0
 97 96  1  0
 99 97  1  0
 99100  1  0
 99 98  1  0
M  ISO  4  20 100  28 100  59 101  60 101
M  END
>  <TORSDO>  (31) 
F 26

>  <SCORE>  (31) 
-6.219

>  <name>  (31) 
31

>  <ligand_id>  (31) 
31

>  <original_smiles>  (31) 
[H]C(C(=O)N([H])C([H])([H])C([H])([H])C([H])([H])C([H])([H])C([H])([H])C([H])([H])N([H])C(=O)N1C([H])([H])C([H])([H])C([H])([H])C([H])(n2nc(-c3c([H])c([H])c(Oc4c([H])c([H])c(F)c([H])c4F)c([H])c3[H])c(C(=O)N([H])[H])c2N([H])[H])C1([H])[H])=C([H])c1c([H])c([H])c(C([H])([H])C([H])([H])Oc2c([H])c([H])c3c(c2[H])C([H])([H])N(C(=O)C([H])(N([H])C(=O)C([H])(N([H])C([H])([H])[H])C([H])([H])[H])C(C([H])([H])[H])(C([H])([H])[H])C([H])([H])[H])C([H])(C(=O)N([H])C2([H])c4c([H])c([H])c([H])c([H])c4C([H])([H])C([H])([H])C2([H])[H])C3([H])[H])c([H])c1C([H])([H])[H]

>  <smiles>  (31) 
[H]C(C(=O)N([H])C([H])([H])C([H])([H])C([H])([H])C([H])([H])C([H])([H])C([H])([H])N([H])C(=O)N1C([H])([H])C([H])([H])C([H])([H])C([H])(n2nc(-c3c([H])c([H])c(Oc4c([H])c([H])c(F)c([H])c4F)c([H])c3[H])c(C(=O)N([H])[H])c2N([H])[H])C1([H])[H])=C([H])c1c([H])c([H])c(C([H])([H])C([H])([H])Oc2c([H])c([H])c3c(c2[H])C([H])([H])N(C(=O)C([H])(N([H])C(=O)C([H])(N([H])C([H])([H])[H])C([H])([H])[H])C(C([H])([H])[H])(C([H])([H])[H])C([H])([H])[H])C([H])(C(=O)N([H])C2([H])c4c([H])c([H])c([H])c([H])c4C([H])([H])C([H])([H])C2([H])[H])C3([H])[H])c([H])c1C([H])([H])[H]

$$$$
32:0:0
     RDKit          3D

 95103  0  0  1  0  0  0  0  0999 V2000
  -28.6370  -19.8140   20.8890 C   0  0  0  0  0  3  0  0  0  0  0  0
  -30.0110  -19.6790   21.1650 C   0  0  0  0  0  3  0  0  0  0  0  0
  -28.2100  -20.5960   19.7990 C   0  0  0  0  0  3  0  0  0  0  0  0
  -30.5330  -21.0860   19.2390 C   0  0  0  0  0  3  0  0  0  0  0  0
  -30.9650  -20.3030   20.3340 C   0  0  0  0  0  0  0  0  0  0  0  0
  -29.1570  -21.2420   18.9750 C   0  0  0  0  0  0  0  0  0  0  0  0
  -32.4270  -20.1690   20.6480 C   0  0  0  0  0  0  0  0  0  0  0  0
  -33.0750  -19.0870   20.2020 N   0  0  0  0  0  0  0  0  0  0  0  0
  -33.0030  -21.0410   21.2970 O   0  0  0  0  0  0  0  0  0  0  0  0
  -34.0640  -19.0550   20.4020 H   0  0  0  0  0  0  0  0  0  0  0  0
  -32.4850  -17.8800   19.6300 C   0  0  0  0  0  2  0  0  0  0  0  0
  -33.5020  -16.7220   19.6530 C   0  0  0  0  0  2  0  0  0  0  0  0
  -33.2700  -14.2360   19.6260 C   0  0  0  0  0  0  0  0  0  0  0  0
  -33.0640  -11.8280   20.1080 C   0  0  0  0  0  2  0  0  0  0  0  0
  -32.2220  -11.0860   19.0560 C   0  0  0  0  0  2  0  0  0  0  0  0
  -30.7270  -11.1470   19.4160 C   0  0  0  0  0  2  0  0  0  0  0  0
  -30.2540  -12.5920   19.7290 C   0  0  0  0  0  3  0  0  0  0  0  0
  -31.2090  -13.2830   20.7280 C   0  0  0  0  0  2  0  0  0  0  0  0
  -32.5850  -13.2140   20.1990 N   0  0  0  0  0  0  0  0  0  0  0  0
  -34.2640  -14.0780   18.9130 O   0  0  0  0  0  0  0  0  0  0  0  0
  -32.8630  -15.4550   19.9990 N   0  0  0  0  0  0  0  0  0  0  0  0
  -32.0800  -15.4890   20.6340 H   0  0  0  0  0  0  0  0  0  0  0  0
  -28.0120  -13.6780   20.3890 C   0  0  0  0  0  0  0  0  0  0  0  0
  -26.8140  -13.1410   20.7770 C   0  0  0  0  0  0  0  0  0  0  0  0
  -27.0050  -11.7260   20.8020 C   0  0  0  0  0  0  0  0  0  0  0  0
  -28.8690  -12.6040   20.2030 N   0  0  0  0  0  0  0  0  0  0  0  0
  -28.2640  -11.4260   20.5050 N   0  0  0  0  0  0  0  0  0  0  0  0
  -26.0490  -10.6350   21.0350 C   0  0  0  0  0  0  0  0  0  0  0  0
  -26.0420   -9.9050   22.2430 C   0  0  0  0  0  3  0  0  0  0  0  0
  -25.0990   -8.8740   22.4500 C   0  0  0  0  0  3  0  0  0  0  0  0
  -24.1530   -8.5660   21.4460 C   0  0  0  0  0  0  0  0  0  0  0  0
  -24.1790   -9.2810   20.2360 C   0  0  0  0  0  3  0  0  0  0  0  0
  -25.1200  -10.3030   20.0290 C   0  0  0  0  0  3  0  0  0  0  0  0
  -23.2180   -7.5630   21.5490 O   0  0  0  0  0  0  0  0  0  0  0  0
  -22.4810   -7.3810   22.6920 C   0  0  0  0  0  0  0  0  0  0  0  0
  -21.5880   -8.3650   23.1680 C   0  0  0  0  0  3  0  0  0  0  0  0
  -20.7990   -8.1080   24.3070 C   0  0  0  0  0  3  0  0  0  0  0  0
  -20.8930   -6.8660   24.9640 C   0  0  0  0  0  0  0  0  0  0  0  0
  -21.7780   -5.8830   24.4880 C   0  0  0  0  0  3  0  0  0  0  0  0
  -22.5660   -6.1390   23.3520 C   0  0  0  0  0  0  0  0  0  0  0  0
  -23.4010   -5.1780   22.8850 F   0  0  0  0  0  0  0  0  0  0  0  0
  -20.1300   -6.6160   26.0540 F   0  0  0  0  0  0  0  0  0  0  0  0
  -25.5340  -13.8880   21.0230 C   0  0  0  0  0  0  0  0  0  0  0  0
  -24.6910  -13.3830   21.9170 N   0  0  0  0  0  0  0  0  0  0  0  0
  -25.2960  -14.9530   20.4550 O   0  0  0  0  0  0  0  0  0  0  0  0
  -24.8960  -12.5200   22.3990 H   0  0  0  0  0  0  0  0  0  0  0  0
  -23.8300  -13.8670   22.1260 H   0  0  0  0  0  0  0  0  0  0  0  0
  -28.4390  -14.9830   20.1630 N   0  0  0  0  0  0  0  0  0  0  0  0
  -27.8160  -15.7790   20.2480 H   0  0  0  0  0  0  0  0  0  0  0  0
  -29.3680  -15.2380   19.8530 H   0  0  0  0  0  0  0  0  0  0  0  0
  -28.6880  -22.1270   17.8350 C   0  0  0  0  0  2  0  0  0  0  0  0
  -29.0960  -23.5940   18.0470 C   0  0  0  0  0  2  0  0  0  0  0  0
  -28.3880  -24.5620   17.0850 C   0  0  0  0  0  2  0  0  0  0  0  0
  -28.8110  -26.0210   17.3140 C   0  0  0  0  0  2  0  0  0  0  0  0
  -27.9160  -26.9210   16.6650 O   0  0  0  0  0  0  0  0  0  0  0  0
  -26.2340  -28.9750   23.2570 C   0  0  0  0  0  0  0  0  0  0  0  0
  -26.9710  -27.4660   17.4960 C   0  0  0  0  0  0  0  0  0  0  0  0
  -24.3660  -28.9220   21.6330 C   0  0  0  0  0  3  0  0  0  0  0  0
  -25.0310  -28.6110   19.1920 C   0  0  0  0  0  0  0  0  0  0  0  0
  -26.7650  -29.3240   20.8480 C   0  0  0  0  0  2  0  0  0  0  0  0
  -26.3850  -28.6550   19.5460 C   0  0  0  0  0  0  0  0  0  0  0  0
  -27.3610  -28.0860   18.6990 C   0  0  0  0  0  3  0  0  0  0  0  0
  -25.6060  -27.4230   17.1470 C   0  0  0  0  0  3  0  0  0  0  0  0
  -24.6320  -27.9910   17.9930 C   0  0  0  0  0  3  0  0  0  0  0  0
  -24.0550  -29.2550   20.1480 C   0  0  0  0  0  2  0  0  0  0  0  0
  -25.8240  -29.0480   21.9580 N   0  0  0  0  0  0  0  0  0  0  0  0
  -25.4170  -28.8520   24.1800 O   0  0  0  0  0  0  0  0  0  0  0  0
  -23.7840  -27.5290   21.9570 C   0  0  0  0  0  0  0  0  0  0  0  0
  -22.4630  -27.3760   21.7750 N   0  0  0  0  0  0  0  0  0  0  0  0
  -24.5170  -26.6090   22.3330 O   0  0  0  0  0  0  0  0  0  0  0  0
  -21.9310  -28.1810   21.4730 H   0  0  0  0  0  0  0  0  0  0  0  0
  -19.2730  -25.7910   21.1720 C   0  0  0  0  0  0  0  0  0  0  0  0
  -21.7040  -26.1430   21.9780 C   0  0  0  0  0  3  0  0  0  0  0  0
  -22.0970  -25.0700   20.9360 C   0  0  0  0  0  2  0  0  0  0  0  0
  -21.1990  -25.0790   19.6940 C   0  0  0  0  0  2  0  0  0  0  0  0
  -19.7390  -24.8370   20.0850 C   0  0  0  0  0  2  0  0  0  0  0  0
  -20.1980  -26.4170   22.0510 C   0  0  0  0  0  0  0  0  0  0  0  0
  -19.7160  -27.3210   23.0210 C   0  0  0  0  0  3  0  0  0  0  0  0
  -18.3400  -27.6020   23.1230 C   0  0  0  0  0  3  0  0  0  0  0  0
  -17.4280  -26.9680   22.2610 C   0  0  0  0  0  3  0  0  0  0  0  0
  -17.8940  -26.0630   21.2910 C   0  0  0  0  0  3  0  0  0  0  0  0
  -27.7420  -29.0690   23.6450 C   0  0  0  0  0  3  0  0  0  0  0  0
  -27.8450  -29.9600   24.8090 N   0  0  0  0  0  0  0  0  0  0  0  0
  -28.3880  -31.1850   24.7810 C   0  0  0  0  0  0  0  0  0  0  0  0
  -28.9270  -31.6580   23.7760 O   0  0  0  0  0  0  0  0  0  0  0  0
  -27.3760  -29.6610   25.6510 H   0  0  0  0  0  0  0  0  0  0  0  0
  -27.2590  -33.1160   25.9290 C   0  0  0  0  0  1  0  0  0  0  0  0
  -28.3240  -32.0190   26.0750 C   0  0  0  0  0  3  0  0  0  0  0  0
  -30.6170  -31.6520   26.8760 C   0  0  0  0  0  1  0  0  0  0  0  0
  -29.6200  -32.6300   26.4450 N   0  0  0  0  0  0  0  0  0  0  0  0
  -29.4970  -33.3080   27.1920 H   0  0  0  0  0  0  0  0  0  0  0  0
  -28.3940  -27.6650   23.9570 C   0  0  1  0  0  0  0  0  0  0  0  0
  -27.6000  -26.8240   24.9840 C   0  0  0  0  0  1  0  0  0  0  0  0
  -28.5270  -26.8300   22.6630 C   0  0  0  0  0  1  0  0  0  0  0  0
  -29.8260  -27.8630   24.5070 C   0  0  0  0  0  1  0  0  0  0  0  0
  1  2  1  0
  3  1  2  0
  4  5  1  0
  5  7  1  0
  5  2  2  0
  6  4  2  0
  6  3  1  0
  7  9  2  0
  8 10  1  0
  8  7  1  0
 11 12  1  0
 11  8  1  0
 12 21  1  0
 13 21  1  0
 13 19  1  0
 14 19  1  0
 15 16  1  0
 15 14  1  0
 17 16  1  0
 17 26  1  0
 17 18  1  0
 19 18  1  0
 20 13  2  0
 21 22  1  0
 23 24  2  0
 24 25  1  0
 24 43  1  0
 25 28  1  0
 26 23  1  0
 26 27  1  0
 27 25  2  0
 28 29  1  0
 29 30  2  0
 31 34  1  0
 31 30  1  0
 32 31  2  0
 33 32  1  0
 33 28  2  0
 34 35  1  0
 35 36  2  0
 35 40  1  0
 36 37  1  0
 37 38  2  0
 38 42  1  0
 39 38  1  0
 40 39  2  0
 41 40  1  0
 43 44  1  0
 44 47  1  0
 44 46  1  0
 45 43  2  0
 48 49  1  0
 48 23  1  0
 50 48  1  0
 51 52  1  0
 51  6  1  0
 53 54  1  0
 53 52  1  0
 55 54  1  0
 55 57  1  0
 56 67  2  0
 57 62  1  0
 58 68  1  0
 58 66  1  0
 59 61  1  0
 59 65  1  0
 60 66  1  0
 61 60  1  0
 62 61  2  0
 63 57  2  0
 63 64  1  0
 64 59  2  0
 65 58  1  0
 66 56  1  0
 68 70  2  0
 69 68  1  0
 71 69  1  0
 72 81  2  0
 72 77  1  0
 73 69  1  0
 73 77  1  0
 74 73  1  0
 75 76  1  0
 75 74  1  0
 76 72  1  0
 77 78  2  0
 78 79  1  0
 80 79  2  0
 81 80  1  0
 82 56  1  0
 82 92  1  0
 82 83  1  0
 83 86  1  0
 84 83  1  0
 84 88  1  0
 85 84  2  0
 88 87  1  0
 88 90  1  0
 90 89  1  0
 90 91  1  0
 92 95  1  1
 92 93  1  0
 94 92  1  0
M  ISO  4  13 100  21 100  54 101  55 101
M  END
>  <TORSDO>  (32) 
F 23

>  <SCORE>  (32) 
-7.214

>  <name>  (32) 
32

>  <ligand_id>  (32) 
32

>  <original_smiles>  (32) 
[H]c1c([H])c(C(=O)N([H])C([H])([H])C([H])([H])N([H])C(=O)N2C([H])([H])C([H])([H])C([H])([H])C([H])(n3nc(-c4c([H])c([H])c(Oc5c([H])c([H])c(F)c([H])c5F)c([H])c4[H])c(C(=O)N([H])[H])c3N([H])[H])C2([H])[H])c([H])c(C([H])([H])C([H])([H])C([H])([H])C([H])([H])Oc2c([H])c([H])c3c(c2[H])C([H])([H])N(C(=O)C([H])(N([H])C(=O)C([H])(N([H])C([H])([H])[H])C([H])([H])[H])C(C([H])([H])[H])(C([H])([H])[H])C([H])([H])[H])C([H])(C(=O)N([H])C2([H])c4c([H])c([H])c([H])c([H])c4C([H])([H])C([H])([H])C2([H])[H])C3([H])[H])c1[H]

>  <smiles>  (32) 
[H]c1c([H])c(C(=O)N([H])C([H])([H])C([H])([H])N([H])C(=O)N2C([H])([H])C([H])([H])C([H])([H])C([H])(n3nc(-c4c([H])c([H])c(Oc5c([H])c([H])c(F)c([H])c5F)c([H])c4[H])c(C(=O)N([H])[H])c3N([H])[H])C2([H])[H])c([H])c(C([H])([H])C([H])([H])C([H])([H])C([H])([H])Oc2c([H])c([H])c3c(c2[H])C([H])([H])N(C(=O)C([H])(N([H])C(=O)C([H])(N([H])C([H])([H])[H])C([H])([H])[H])C(C([H])([H])[H])(C([H])([H])[H])C([H])([H])[H])C([H])(C(=O)N([H])C2([H])c4c([H])c([H])c([H])c([H])c4C([H])([H])C([H])([H])C2([H])[H])C3([H])[H])c1[H]

$$$$
33:0:0
     RDKit          3D

 97105  0  0  1  0  0  0  0  0999 V2000
  -26.0180  -22.5380   23.7420 C   0  0  0  0  0  3  0  0  0  0  0  0
  -23.7110  -23.0410   23.1440 C   0  0  0  0  0  3  0  0  0  0  0  0
  -26.4100  -23.8230   23.3220 C   0  0  0  0  0  3  0  0  0  0  0  0
  -24.0980  -24.3330   22.7420 C   0  0  0  0  0  3  0  0  0  0  0  0
  -24.6690  -22.1360   23.6460 C   0  0  0  0  0  0  0  0  0  0  0  0
  -25.4510  -24.7320   22.8260 C   0  0  0  0  0  0  0  0  0  0  0  0
  -24.2380  -20.7380   24.0650 C   0  0  0  0  0  2  0  0  0  0  0  0
  -24.2130  -19.7320   22.9000 C   0  0  0  0  0  2  0  0  0  0  0  0
  -25.6050  -19.4190   22.3130 C   0  0  0  0  0  2  0  0  0  0  0  0
  -25.6350  -19.2840   20.7810 C   0  0  0  0  0  2  0  0  0  0  0  0
  -25.8350  -17.8320   20.3190 C   0  0  0  0  0  2  0  0  0  0  0  0
  -27.1380  -17.5750   19.5300 C   0  0  0  0  0  2  0  0  0  0  0  0
  -28.6510  -15.5680   19.7110 C   0  0  0  0  0  0  0  0  0  0  0  0
  -29.4830  -13.3030   20.2300 C   0  0  0  0  0  2  0  0  0  0  0  0
  -28.8820  -12.2120   19.3270 C   0  0  0  0  0  2  0  0  0  0  0  0
  -27.5000  -11.7460   19.8300 C   0  0  0  0  0  2  0  0  0  0  0  0
  -26.5550  -12.9310   20.1520 C   0  0  0  0  0  3  0  0  0  0  0  0
  -27.2830  -13.9480   21.0540 C   0  0  0  0  0  2  0  0  0  0  0  0
  -28.5180  -14.3920   20.3720 N   0  0  0  0  0  0  0  0  0  0  0  0
  -29.4930  -15.7920   18.8320 O   0  0  0  0  0  0  0  0  0  0  0  0
  -27.8370  -16.4970   20.2080 N   0  0  0  0  0  0  0  0  0  0  0  0
  -27.4010  -16.2010   21.0670 H   0  0  0  0  0  0  0  0  0  0  0  0
  -24.2230  -13.2070   21.2240 C   0  0  0  0  0  0  0  0  0  0  0  0
  -23.2860  -12.2950   21.6210 C   0  0  0  0  0  0  0  0  0  0  0  0
  -23.8520  -11.0080   21.3580 C   0  0  0  0  0  0  0  0  0  0  0  0
  -25.3030  -12.4710   20.7570 N   0  0  0  0  0  0  0  0  0  0  0  0
  -25.0860  -11.1370   20.8890 N   0  0  0  0  0  0  0  0  0  0  0  0
  -23.2680   -9.6660   21.4780 C   0  0  0  0  0  0  0  0  0  0  0  0
  -23.5700   -8.8360   22.5800 C   0  0  0  0  0  3  0  0  0  0  0  0
  -22.9860   -7.5550   22.6870 C   0  0  0  0  0  3  0  0  0  0  0  0
  -22.0930   -7.0940   21.6900 C   0  0  0  0  0  0  0  0  0  0  0  0
  -21.8140   -7.9170   20.5850 C   0  0  0  0  0  3  0  0  0  0  0  0
  -22.4000   -9.1880   20.4770 C   0  0  0  0  0  3  0  0  0  0  0  0
  -21.5070   -5.8520   21.6970 O   0  0  0  0  0  0  0  0  0  0  0  0
  -20.8560   -5.3670   22.8050 C   0  0  0  0  0  0  0  0  0  0  0  0
  -19.7250   -6.0160   23.3430 C   0  0  0  0  0  3  0  0  0  0  0  0
  -19.0390   -5.4460   24.4330 C   0  0  0  0  0  3  0  0  0  0  0  0
  -19.4770   -4.2270   24.9830 C   0  0  0  0  0  0  0  0  0  0  0  0
  -20.6020   -3.5770   24.4460 C   0  0  0  0  0  3  0  0  0  0  0  0
  -21.2890   -4.1450   23.3580 C   0  0  0  0  0  0  0  0  0  0  0  0
  -22.3570   -3.5020   22.8280 F   0  0  0  0  0  0  0  0  0  0  0  0
  -18.8150   -3.6780   26.0270 F   0  0  0  0  0  0  0  0  0  0  0  0
  -21.9010  -12.5940   22.1220 C   0  0  0  0  0  0  0  0  0  0  0  0
  -21.3700  -11.7560   23.0030 N   0  0  0  0  0  0  0  0  0  0  0  0
  -21.2980  -13.6020   21.7610 O   0  0  0  0  0  0  0  0  0  0  0  0
  -21.8690  -10.9310   23.3070 H   0  0  0  0  0  0  0  0  0  0  0  0
  -20.4340  -11.9170   23.3450 H   0  0  0  0  0  0  0  0  0  0  0  0
  -24.2440  -14.6000   21.1990 N   0  0  0  0  0  0  0  0  0  0  0  0
  -23.4350  -15.1560   21.4590 H   0  0  0  0  0  0  0  0  0  0  0  0
  -25.0200  -15.1490   20.8540 H   0  0  0  0  0  0  0  0  0  0  0  0
  -25.8590  -26.1240   22.3580 C   0  0  0  0  0  3  0  0  0  0  0  0
  -25.8600  -27.7060   24.4000 C   0  0  0  0  0  1  0  0  0  0  0  0
  -26.6980  -26.9150   23.3850 C   0  0  0  0  0  2  0  0  0  0  0  0
  -26.5380  -26.0790   20.9660 C   0  0  0  0  0  2  0  0  0  0  0  0
  -25.9720  -27.1620   20.0310 C   0  0  0  0  0  3  0  0  0  0  0  0
  -26.8360  -27.4900   18.7860 C   0  0  0  0  0  3  0  0  0  0  0  0
  -26.5410  -28.7460   18.1520 O   0  0  0  0  0  0  0  0  0  0  0  0
  -24.9540  -31.9480   24.2940 C   0  0  0  0  0  0  0  0  0  0  0  0
  -25.6700  -29.5550   18.8380 C   0  0  0  0  0  0  0  0  0  0  0  0
  -23.1110  -31.7780   22.6490 C   0  0  0  0  0  3  0  0  0  0  0  0
  -23.7950  -31.0700   20.2940 C   0  0  0  0  0  0  0  0  0  0  0  0
  -25.5500  -31.8860   21.8810 C   0  0  0  0  0  2  0  0  0  0  0  0
  -25.1430  -31.0640   20.6800 C   0  0  0  0  0  0  0  0  0  0  0  0
  -26.0870  -30.3040   19.9570 C   0  0  0  0  0  3  0  0  0  0  0  0
  -24.3210  -29.5920   18.4380 C   0  0  0  0  0  3  0  0  0  0  0  0
  -23.3770  -30.3340   19.1720 C   0  0  0  0  0  3  0  0  0  0  0  0
  -22.8490  -31.9050   21.1240 C   0  0  0  0  0  2  0  0  0  0  0  0
  -24.5690  -31.8510   22.9910 N   0  0  0  0  0  0  0  0  0  0  0  0
  -24.1170  -32.0270   25.2040 O   0  0  0  0  0  0  0  0  0  0  0  0
  -22.4290  -30.4880   23.1600 C   0  0  0  0  0  0  0  0  0  0  0  0
  -21.0910  -30.4330   23.0440 N   0  0  0  0  0  0  0  0  0  0  0  0
  -23.0980  -29.5580   23.6200 O   0  0  0  0  0  0  0  0  0  0  0  0
  -20.6150  -31.2460   22.6800 H   0  0  0  0  0  0  0  0  0  0  0  0
  -17.7010  -29.1880   22.9480 C   0  0  0  0  0  0  0  0  0  0  0  0
  -20.2390  -29.3040   23.4190 C   0  0  0  0  0  3  0  0  0  0  0  0
  -20.3770  -28.1400   22.4120 C   0  0  0  0  0  2  0  0  0  0  0  0
  -19.3310  -28.1850   21.2910 C   0  0  0  0  0  2  0  0  0  0  0  0
  -17.9160  -28.1310   21.8750 C   0  0  0  0  0  2  0  0  0  0  0  0
  -18.7940  -29.7500   23.6590 C   0  0  0  0  0  0  0  0  0  0  0  0
  -18.5420  -30.7550   24.6190 C   0  0  0  0  0  3  0  0  0  0  0  0
  -17.2300  -31.1970   24.8720 C   0  0  0  0  0  3  0  0  0  0  0  0
  -16.1510  -30.6260   24.1750 C   0  0  0  0  0  3  0  0  0  0  0  0
  -16.3870  -29.6220   23.2200 C   0  0  0  0  0  3  0  0  0  0  0  0
  -26.4570  -31.9960   24.7050 C   0  0  0  0  0  3  0  0  0  0  0  0
  -26.9400  -30.6990   25.4640 C   0  0  1  0  0  0  0  0  0  0  0  0
  -26.0240  -30.2890   26.6410 C   0  0  0  0  0  1  0  0  0  0  0  0
  -27.0280  -29.4990   24.4930 C   0  0  0  0  0  1  0  0  0  0  0  0
  -28.3670  -30.9230   26.0220 C   0  0  0  0  0  1  0  0  0  0  0  0
  -26.6490  -33.1900   25.5390 N   0  0  0  0  0  0  0  0  0  0  0  0
  -27.2150  -34.3300   25.1190 C   0  0  0  0  0  0  0  0  0  0  0  0
  -27.7030  -34.4610   23.9930 O   0  0  0  0  0  0  0  0  0  0  0  0
  -26.2270  -33.1750   26.4570 H   0  0  0  0  0  0  0  0  0  0  0  0
  -26.1330  -36.5110   25.7480 C   0  0  0  0  0  1  0  0  0  0  0  0
  -27.2460  -35.5130   26.1060 C   0  0  0  0  0  3  0  0  0  0  0  0
  -29.6140  -35.4080   26.7400 C   0  0  0  0  0  1  0  0  0  0  0  0
  -28.5490  -36.2120   26.1460 N   0  0  0  0  0  0  0  0  0  0  0  0
  -28.4770  -37.0810   26.6700 H   0  0  0  0  0  0  0  0  0  0  0  0
  2  5  2  0
  3  1  2  0
  4  6  2  0
  4  2  1  0
  5  1  1  0
  5  7  1  0
  6  3  1  0
  8  7  1  0
  9  8  1  0
 10  9  1  0
 11 10  1  0
 12 21  1  0
 12 11  1  0
 13 21  1  0
 13 19  1  0
 14 19  1  0
 15 16  1  0
 15 14  1  0
 17 16  1  0
 17 26  1  0
 17 18  1  0
 19 18  1  0
 20 13  2  0
 21 22  1  0
 23 24  2  0
 24 43  1  0
 25 28  1  0
 25 24  1  0
 26 27  1  0
 26 23  1  0
 27 25  2  0
 28 29  1  0
 29 30  2  0
 31 34  1  0
 31 30  1  0
 32 31  2  0
 33 32  1  0
 33 28  2  0
 34 35  1  0
 35 36  2  0
 35 40  1  0
 36 37  1  0
 37 38  2  0
 38 42  1  0
 39 38  1  0
 40 39  2  0
 41 40  1  0
 43 44  1  0
 44 46  1  0
 44 47  1  0
 45 43  2  0
 48 23  1  0
 48 49  1  0
 50 48  1  0
 51 54  1  0
 51  6  1  0
 51 53  1  0
 53 52  1  0
 55 54  1  0
 56 55  2  0
 57 56  1  0
 57 59  1  0
 58 69  2  0
 59 64  1  0
 60 68  1  0
 60 70  1  0
 61 63  1  0
 61 67  1  0
 62 68  1  0
 63 62  1  0
 64 63  2  0
 65 59  2  0
 65 66  1  0
 66 61  2  0
 67 60  1  0
 68 58  1  0
 70 72  2  0
 71 70  1  0
 73 71  1  0
 74 83  2  0
 74 79  1  0
 75 71  1  0
 75 79  1  0
 76 75  1  0
 77 78  1  0
 77 76  1  0
 78 74  1  0
 79 80  2  0
 80 81  1  0
 82 81  2  0
 83 82  1  0
 84 58  1  0
 84 85  1  0
 84 89  1  0
 85 88  1  1
 85 86  1  0
 87 85  1  0
 89 92  1  0
 90 89  1  0
 90 94  1  0
 91 90  2  0
 94 93  1  0
 94 96  1  0
 96 97  1  0
 96 95  1  0
M  ISO  4  13 100  21 100  56 101  57 101
M  END
>  <TORSDO>  (33) 
F 27

>  <SCORE>  (33) 
37.578

>  <name>  (33) 
33

>  <ligand_id>  (33) 
33

>  <original_smiles>  (33) 
[H]c1c([H])c([H])c2c(c1[H])C([H])([H])C([H])([H])C([H])([H])C2([H])N([H])C(=O)C1([H])N(C(=O)C([H])(N([H])C(=O)C([H])(N([H])C([H])([H])[H])C([H])([H])[H])C(C([H])([H])[H])(C([H])([H])[H])C([H])([H])[H])C([H])([H])c2c([H])c(OC([H])([H])C([H])([H])C([H])([H])C([H])(c3c([H])c([H])c(C([H])([H])C([H])([H])C([H])([H])C([H])([H])C([H])([H])C([H])([H])N([H])C(=O)N4C([H])([H])C([H])([H])C([H])([H])C([H])(n5nc(-c6c([H])c([H])c(Oc7c([H])c([H])c(F)c([H])c7F)c([H])c6[H])c(C(=O)N([H])[H])c5N([H])[H])C4([H])[H])c([H])c3[H])C([H])([H])C([H])([H])[H])c([H])c([H])c2C1([H])[H]

>  <smiles>  (33) 
[H]c1c([H])c([H])c2c(c1[H])C([H])([H])C([H])([H])C([H])([H])C2([H])N([H])C(=O)C1([H])N(C(=O)C([H])(N([H])C(=O)C([H])(N([H])C([H])([H])[H])C([H])([H])[H])C(C([H])([H])[H])(C([H])([H])[H])C([H])([H])[H])C([H])([H])c2c([H])c(OC([H])([H])C([H])([H])C([H])([H])C([H])(c3c([H])c([H])c(C([H])([H])C([H])([H])C([H])([H])C([H])([H])C([H])([H])C([H])([H])N([H])C(=O)N4C([H])([H])C([H])([H])C([H])([H])C([H])(n5nc(-c6c([H])c([H])c(Oc7c([H])c([H])c(F)c([H])c7F)c([H])c6[H])c(C(=O)N([H])[H])c5N([H])[H])C4([H])[H])c([H])c3[H])C([H])([H])C([H])([H])[H])c([H])c([H])c2C1([H])[H]

$$$$
34:0:0
     RDKit          3D

101108  0  0  1  0  0  0  0  0999 V2000
  -32.2600  -23.6790   19.7870 C   0  0  0  0  0  3  0  0  0  0  0  0
  -31.5000  -22.9020   18.7830 N   0  0  0  0  0  4  0  0  0  0  0  0
  -30.8910  -23.5300   18.2810 H   0  0  0  0  0  0  0  0  0  0  0  0
  -32.1440  -22.5110   18.1150 H   0  0  0  0  0  0  0  0  0  0  0  0
  -30.6610  -21.8340   19.3630 C   0  0  0  0  0  2  0  0  0  0  0  0
  -30.2460  -20.7790   18.3230 C   0  0  0  0  0  2  0  0  0  0  0  0
  -29.8660  -19.4560   19.0040 C   0  0  0  0  0  2  0  0  0  0  0  0
  -31.1070  -18.6650   19.4690 C   0  0  0  0  0  2  0  0  0  0  0  0
  -30.8290  -17.6830   20.6120 C   0  0  0  0  0  2  0  0  0  0  0  0
  -29.7700  -16.6530   20.2100 C   0  0  0  0  0  2  0  0  0  0  0  0
  -30.6370  -14.4060   20.5280 C   0  0  0  0  0  0  0  0  0  0  0  0
  -30.3280  -12.2800   19.3590 C   0  0  0  0  0  2  0  0  0  0  0  0
  -29.3880  -12.5610   18.1680 C   0  0  0  0  0  2  0  0  0  0  0  0
  -27.9090  -12.4440   18.5910 C   0  0  0  0  0  2  0  0  0  0  0  0
  -27.5930  -13.2360   19.8890 C   0  0  0  0  0  3  0  0  0  0  0  0
  -28.6470  -12.9360   20.9850 C   0  0  0  0  0  2  0  0  0  0  0  0
  -29.9820  -13.2230   20.4300 N   0  0  0  0  0  0  0  0  0  0  0  0
  -31.7450  -14.6280   20.0340 O   0  0  0  0  0  0  0  0  0  0  0  0
  -29.8550  -15.4020   20.9530 N   0  0  0  0  0  0  0  0  0  0  0  0
  -29.0110  -15.1130   21.4240 H   0  0  0  0  0  0  0  0  0  0  0  0
  -25.1930  -13.8650   20.5870 C   0  0  0  0  0  0  0  0  0  0  0  0
  -24.1220  -13.0960   20.9570 C   0  0  0  0  0  0  0  0  0  0  0  0
  -24.5740  -11.7420   20.9190 C   0  0  0  0  0  0  0  0  0  0  0  0
  -26.2330  -12.9760   20.3570 N   0  0  0  0  0  0  0  0  0  0  0  0
  -25.8620  -11.6950   20.6100 N   0  0  0  0  0  0  0  0  0  0  0  0
  -23.8430  -10.4830   21.1050 C   0  0  0  0  0  0  0  0  0  0  0  0
  -24.2990   -9.4960   22.0070 C   0  0  0  0  0  3  0  0  0  0  0  0
  -23.5700   -8.3000   22.1850 C   0  0  0  0  0  3  0  0  0  0  0  0
  -22.3740   -8.0830   21.4610 C   0  0  0  0  0  0  0  0  0  0  0  0
  -21.9390   -9.0580   20.5470 C   0  0  0  0  0  3  0  0  0  0  0  0
  -22.6650  -10.2480   20.3670 C   0  0  0  0  0  3  0  0  0  0  0  0
  -21.6160   -6.9410   21.5490 O   0  0  0  0  0  0  0  0  0  0  0  0
  -21.6180   -6.1580   22.6760 C   0  0  0  0  0  0  0  0  0  0  0  0
  -21.2850   -6.6790   23.9440 C   0  0  0  0  0  3  0  0  0  0  0  0
  -21.2350   -5.8270   25.0660 C   0  0  0  0  0  3  0  0  0  0  0  0
  -21.5060   -4.4530   24.9170 C   0  0  0  0  0  0  0  0  0  0  0  0
  -21.8300   -3.9300   23.6530 C   0  0  0  0  0  3  0  0  0  0  0  0
  -21.8830   -4.7800   22.5350 C   0  0  0  0  0  0  0  0  0  0  0  0
  -22.1760   -4.2670   21.3150 F   0  0  0  0  0  0  0  0  0  0  0  0
  -21.4490   -3.6320   25.9920 F   0  0  0  0  0  0  0  0  0  0  0  0
  -22.7280  -13.5750   21.2380 C   0  0  0  0  0  0  0  0  0  0  0  0
  -22.0050  -12.8780   22.1080 N   0  0  0  0  0  0  0  0  0  0  0  0
  -22.2890  -14.6020   20.7220 O   0  0  0  0  0  0  0  0  0  0  0  0
  -22.3730  -12.0470   22.5490 H   0  0  0  0  0  0  0  0  0  0  0  0
  -21.0690  -13.1760   22.3390 H   0  0  0  0  0  0  0  0  0  0  0  0
  -25.3630  -15.2360   20.4100 N   0  0  0  0  0  0  0  0  0  0  0  0
  -24.5970  -15.8930   20.5130 H   0  0  0  0  0  0  0  0  0  0  0  0
  -26.2150  -15.6770   20.0840 H   0  0  0  0  0  0  0  0  0  0  0  0
  -32.5150  -25.1150   19.2910 C   0  0  0  0  0  2  0  0  0  0  0  0
  -31.2570  -26.0080   19.3070 C   0  0  0  0  0  2  0  0  0  0  0  0
  -30.6270  -26.1570   20.7070 C   0  0  0  0  0  2  0  0  0  0  0  0
  -29.5320  -27.2110   20.7730 C   0  0  0  0  0  2  0  0  0  0  0  0
  -28.3980  -26.7220   20.0710 O   0  0  0  0  0  0  0  0  0  0  0  0
  -24.6140  -31.8760   23.2280 C   0  0  0  0  0  0  0  0  0  0  0  0
  -27.2510  -27.4750   20.1390 C   0  0  0  0  0  0  0  0  0  0  0  0
  -23.3880  -30.4660   21.6000 C   0  0  0  0  0  3  0  0  0  0  0  0
  -24.8290  -28.9230   20.1710 C   0  0  0  0  0  0  0  0  0  0  0  0
  -25.8990  -30.8460   21.3670 C   0  0  0  0  0  2  0  0  0  0  0  0
  -25.9820  -29.4730   20.7410 C   0  0  0  0  0  0  0  0  0  0  0  0
  -27.1890  -28.7560   20.7360 C   0  0  0  0  0  3  0  0  0  0  0  0
  -26.0830  -26.9270   19.5720 C   0  0  0  0  0  3  0  0  0  0  0  0
  -24.8690  -27.6410   19.5910 C   0  0  0  0  0  3  0  0  0  0  0  0
  -23.5800  -29.7720   20.2220 C   0  0  0  0  0  2  0  0  0  0  0  0
  -24.6530  -31.0760   22.1250 N   0  0  0  0  0  0  0  0  0  0  0  0
  -23.5410  -32.1480   23.7810 O   0  0  0  0  0  0  0  0  0  0  0  0
  -22.7540  -29.4480   22.5720 C   0  0  0  0  0  0  0  0  0  0  0  0
  -21.4310  -29.2600   22.4550 N   0  0  0  0  0  0  0  0  0  0  0  0
  -23.4480  -28.8290   23.3830 O   0  0  0  0  0  0  0  0  0  0  0  0
  -20.9320  -29.8120   21.7710 H   0  0  0  0  0  0  0  0  0  0  0  0
  -18.0670  -28.0610   22.9680 C   0  0  0  0  0  0  0  0  0  0  0  0
  -20.6230  -28.3260   23.2360 C   0  0  0  0  0  3  0  0  0  0  0  0
  -20.7310  -26.8920   22.6680 C   0  0  0  0  0  2  0  0  0  0  0  0
  -19.6280  -26.5580   21.6590 C   0  0  0  0  0  2  0  0  0  0  0  0
  -18.2460  -26.7060   22.3030 C   0  0  0  0  0  2  0  0  0  0  0  0
  -19.1830  -28.8290   23.3910 C   0  0  0  0  0  0  0  0  0  0  0  0
  -18.9640  -30.0970   23.9690 C   0  0  0  0  0  3  0  0  0  0  0  0
  -17.6580  -30.5990   24.1310 C   0  0  0  0  0  3  0  0  0  0  0  0
  -16.5550  -29.8270   23.7250 C   0  0  0  0  0  3  0  0  0  0  0  0
  -16.7590  -28.5620   23.1480 C   0  0  0  0  0  3  0  0  0  0  0  0
  -25.9110  -32.5070   23.8300 C   0  0  0  0  0  3  0  0  0  0  0  0
  -25.6010  -33.8990   24.1780 N   0  0  0  0  0  0  0  0  0  0  0  0
  -25.9210  -34.9590   23.4210 C   0  0  0  0  0  0  0  0  0  0  0  0
  -26.5780  -34.8680   22.3810 O   0  0  0  0  0  0  0  0  0  0  0  0
  -25.0170  -34.0450   24.9870 H   0  0  0  0  0  0  0  0  0  0  0  0
  -24.1770  -36.7420   23.1060 C   0  0  0  0  0  1  0  0  0  0  0  0
  -25.4310  -36.3390   23.8970 C   0  0  0  0  0  3  0  0  0  0  0  0
  -27.5750  -37.2260   24.7020 C   0  0  0  0  0  1  0  0  0  0  0  0
  -26.4560  -37.4000   23.7800 N   0  0  0  0  0  0  0  0  0  0  0  0
  -26.0460  -38.3130   23.9480 H   0  0  0  0  0  0  0  0  0  0  0  0
  -26.4590  -31.7240   25.0850 C   0  0  1  0  0  0  0  0  0  0  0  0
  -25.3900  -31.4700   26.1740 C   0  0  0  0  0  1  0  0  0  0  0  0
  -27.0390  -30.3540   24.6610 C   0  0  0  0  0  1  0  0  0  0  0  0
  -27.6170  -32.5160   25.7350 C   0  0  0  0  0  1  0  0  0  0  0  0
  -33.5340  -22.9500   20.2760 C   0  0  0  0  0  2  0  0  0  0  0  0
  -34.5900  -22.5980   19.2130 C   0  0  0  0  0  2  0  0  0  0  0  0
  -35.6860  -21.7060   19.8260 C   0  0  0  0  0  2  0  0  0  0  0  0
  -36.8360  -21.3790   18.8560 C   0  0  0  0  0  2  0  0  0  0  0  0
  -37.8150  -20.4620   19.4640 N   0  0  0  0  0  4  0  0  0  0  0  0
  -38.1740  -20.8340   20.3250 H   0  0  0  0  0  0  0  0  0  0  0  0
  -38.5890  -20.3220   18.8390 H   0  0  0  0  0  0  0  0  0  0  0  0
  -37.4020  -19.5650   19.6480 H   0  0  0  0  0  0  0  0  0  0  0  0
  1 49  1  0
  1 94  1  0
  2  5  1  0
  2  1  1  0
  3  2  1  0
  4  2  1  0
  6  7  1  0
  6  5  1  0
  7  8  1  0
  8  9  1  0
 10  9  1  0
 10 19  1  0
 11 19  1  0
 12 17  1  0
 13 14  1  0
 13 12  1  0
 15 14  1  0
 15 24  1  0
 15 16  1  0
 17 11  1  0
 17 16  1  0
 18 11  2  0
 19 20  1  0
 21 22  2  0
 22 41  1  0
 23 22  1  0
 23 26  1  0
 24 21  1  0
 24 25  1  0
 25 23  2  0
 26 27  1  0
 27 28  2  0
 29 32  1  0
 29 28  1  0
 30 29  2  0
 31 30  1  0
 31 26  2  0
 32 33  1  0
 33 34  1  0
 34 35  2  0
 36 35  1  0
 36 40  1  0
 37 36  2  0
 38 33  2  0
 38 37  1  0
 39 38  1  0
 41 42  1  0
 42 45  1  0
 42 44  1  0
 43 41  2  0
 46 47  1  0
 46 21  1  0
 48 46  1  0
 49 50  1  0
 50 51  1  0
 51 52  1  0
 53 55  1  0
 53 52  1  0
 54 65  2  0
 55 60  1  0
 56 64  1  0
 56 66  1  0
 57 63  1  0
 57 59  1  0
 58 64  1  0
 59 58  1  0
 60 59  2  0
 61 62  1  0
 61 55  2  0
 62 57  2  0
 63 56  1  0
 64 54  1  0
 66 68  2  0
 67 66  1  0
 69 67  1  0
 70 79  2  0
 70 75  1  0
 71 67  1  0
 71 75  1  0
 72 71  1  0
 73 74  1  0
 73 72  1  0
 74 70  1  0
 75 76  2  0
 76 77  1  0
 78 77  2  0
 79 78  1  0
 80 54  1  0
 80 81  1  0
 80 90  1  0
 81 84  1  0
 82 86  1  0
 82 81  1  0
 83 82  2  0
 86 85  1  0
 88 86  1  0
 88 89  1  0
 88 87  1  0
 90 93  1  1
 90 91  1  0
 92 90  1  0
 95 96  1  0
 95 94  1  0
 97 98  1  0
 97 96  1  0
 98101  1  0
 98 99  1  0
100 98  1  0
M  ISO  4  11 100  19 100  52 101  53 101
M  END
>  <TORSDO>  (34) 
F 32

>  <SCORE>  (34) 
-10.288

>  <name>  (34) 
34

>  <ligand_id>  (34) 
34

>  <original_smiles>  (34) 
[H]c1c([H])c([H])c2c(c1[H])C([H])([H])C([H])([H])C([H])([H])C2([H])N([H])C(=O)C1([H])N(C(=O)C([H])(N([H])C(=O)C([H])(N([H])C([H])([H])[H])C([H])([H])[H])C(C([H])([H])[H])(C([H])([H])[H])C([H])([H])[H])C([H])([H])c2c([H])c(OC([H])([H])C([H])([H])C([H])([H])C([H])([H])C([H])(C([H])([H])C([H])([H])C([H])([H])C([H])([H])[N+]([H])([H])[H])[N+]([H])([H])C([H])([H])C([H])([H])C([H])([H])C([H])([H])C([H])([H])C([H])([H])N([H])C(=O)N3C([H])([H])C([H])([H])C([H])([H])C([H])(n4nc(-c5c([H])c([H])c(Oc6c([H])c([H])c(F)c([H])c6F)c([H])c5[H])c(C(=O)N([H])[H])c4N([H])[H])C3([H])[H])c([H])c([H])c2C1([H])[H]

>  <smiles>  (34) 
[H]c1c([H])c([H])c2c(c1[H])C([H])([H])C([H])([H])C([H])([H])C2([H])N([H])C(=O)C1([H])N(C(=O)C([H])(N([H])C(=O)C([H])(N([H])C([H])([H])[H])C([H])([H])[H])C(C([H])([H])[H])(C([H])([H])[H])C([H])([H])[H])C([H])([H])c2c([H])c(OC([H])([H])C([H])([H])C([H])([H])C([H])([H])C([H])(C([H])([H])C([H])([H])C([H])([H])C([H])([H])[N+]([H])([H])[H])[N+]([H])([H])C([H])([H])C([H])([H])C([H])([H])C([H])([H])C([H])([H])C([H])([H])N([H])C(=O)N3C([H])([H])C([H])([H])C([H])([H])C([H])(n4nc(-c5c([H])c([H])c(Oc6c([H])c([H])c(F)c([H])c6F)c([H])c5[H])c(C(=O)N([H])[H])c4N([H])[H])C3([H])[H])c([H])c([H])c2C1([H])[H]

$$$$
35:0:0
     RDKit          3D

 91 99  0  0  1  0  0  0  0  0999 V2000
  -28.5370  -21.2440   20.7430 C   0  0  0  0  0  3  0  0  0  0  0  0
  -28.7940  -19.8580   20.7320 C   0  0  0  0  0  3  0  0  0  0  0  0
  -30.1970  -19.4700   17.8190 C   0  0  0  0  0  3  0  0  0  0  0  0
  -30.5750  -19.6840   19.0980 C   0  0  0  0  0  3  0  0  0  0  0  0
  -29.2390  -18.3940   17.4650 C   0  0  0  0  0  0  0  0  0  0  0  0
  -28.8320  -17.3750   18.5490 C   0  0  0  0  0  2  0  0  0  0  0  0
  -30.0060  -18.9170   20.2860 C   0  0  0  0  0  3  0  0  0  0  0  0
  -29.8390  -17.3670   19.7190 C   0  0  0  0  0  3  0  0  0  0  0  0
  -28.7650  -18.2840   16.3310 O   0  0  0  0  0  0  0  0  0  0  0  0
  -30.5600  -14.8690   20.2590 C   0  0  0  0  0  0  0  0  0  0  0  0
  -30.3480  -12.5730   19.2750 C   0  0  0  0  0  2  0  0  0  0  0  0
  -29.4260  -12.6840   18.0370 C   0  0  0  0  0  2  0  0  0  0  0  0
  -27.9570  -12.5220   18.4620 C   0  0  0  0  0  2  0  0  0  0  0  0
  -27.5890  -13.3990   19.6900 C   0  0  0  0  0  3  0  0  0  0  0  0
  -28.6470  -13.2820   20.8130 C   0  0  0  0  0  2  0  0  0  0  0  0
  -29.9430  -13.6340   20.2300 N   0  0  0  0  0  0  0  0  0  0  0  0
  -31.7260  -14.9610   19.8630 O   0  0  0  0  0  0  0  0  0  0  0  0
  -29.7930  -16.0210   20.4870 N   0  0  0  0  0  0  0  0  0  0  0  0
  -28.9130  -15.8380   20.9480 H   0  0  0  0  0  0  0  0  0  0  0  0
  -25.1990  -13.9840   20.4120 C   0  0  0  0  0  0  0  0  0  0  0  0
  -24.1400  -13.2070   20.7940 C   0  0  0  0  0  0  0  0  0  0  0  0
  -24.6130  -11.8590   20.7730 C   0  0  0  0  0  0  0  0  0  0  0  0
  -26.2450  -13.1090   20.1790 N   0  0  0  0  0  0  0  0  0  0  0  0
  -25.9010  -11.8260   20.4580 N   0  0  0  0  0  0  0  0  0  0  0  0
  -23.8960  -10.5920   20.9760 C   0  0  0  0  0  0  0  0  0  0  0  0
  -24.3280   -9.6320   21.9180 C   0  0  0  0  0  3  0  0  0  0  0  0
  -23.6020   -8.4350   22.1040 C   0  0  0  0  0  3  0  0  0  0  0  0
  -22.4320   -8.1900   21.3540 C   0  0  0  0  0  0  0  0  0  0  0  0
  -22.0190   -9.1370   20.4000 C   0  0  0  0  0  3  0  0  0  0  0  0
  -22.7450  -10.3240   20.2110 C   0  0  0  0  0  3  0  0  0  0  0  0
  -21.6740   -7.0470   21.4530 O   0  0  0  0  0  0  0  0  0  0  0  0
  -21.6300   -6.3110   22.6090 C   0  0  0  0  0  0  0  0  0  0  0  0
  -21.2090   -6.8700   23.8330 C   0  0  0  0  0  3  0  0  0  0  0  0
  -21.1210   -6.0620   24.9850 C   0  0  0  0  0  3  0  0  0  0  0  0
  -21.4340   -4.6910   24.9100 C   0  0  0  0  0  0  0  0  0  0  0  0
  -21.8410   -4.1310   23.6880 C   0  0  0  0  0  3  0  0  0  0  0  0
  -21.9400   -4.9370   22.5410 C   0  0  0  0  0  0  0  0  0  0  0  0
  -22.3180   -4.3860   21.3650 F   0  0  0  0  0  0  0  0  0  0  0  0
  -21.3370   -3.9150   26.0140 F   0  0  0  0  0  0  0  0  0  0  0  0
  -22.7410  -13.6790   21.0600 C   0  0  0  0  0  0  0  0  0  0  0  0
  -22.0180  -12.9830   21.9300 N   0  0  0  0  0  0  0  0  0  0  0  0
  -22.3030  -14.7040   20.5380 O   0  0  0  0  0  0  0  0  0  0  0  0
  -22.3790  -12.1470   22.3650 H   0  0  0  0  0  0  0  0  0  0  0  0
  -21.0870  -13.2910   22.1730 H   0  0  0  0  0  0  0  0  0  0  0  0
  -25.3580  -15.3520   20.2110 N   0  0  0  0  0  0  0  0  0  0  0  0
  -24.5880  -16.0040   20.3200 H   0  0  0  0  0  0  0  0  0  0  0  0
  -26.1880  -15.7800   19.8190 H   0  0  0  0  0  0  0  0  0  0  0  0
  -29.3540  -22.4680   20.3810 C   0  0  0  0  0  3  0  0  0  0  0  0
  -29.1440  -23.8580   20.3080 C   0  0  0  0  0  3  0  0  0  0  0  0
  -27.9640  -24.9050   20.5360 C   0  0  0  0  0  2  0  0  0  0  0  0
  -28.2380  -26.3840   20.2840 O   0  0  0  0  0  0  0  0  0  0  0  0
  -24.5880  -31.9550   23.2540 C   0  0  0  0  0  0  0  0  0  0  0  0
  -27.1600  -27.3060   20.2340 C   0  0  0  0  0  0  0  0  0  0  0  0
  -23.3840  -30.5600   21.6180 C   0  0  0  0  0  3  0  0  0  0  0  0
  -24.8270  -28.9950   20.1990 C   0  0  0  0  0  0  0  0  0  0  0  0
  -25.9290  -30.8500   21.4420 C   0  0  0  0  0  2  0  0  0  0  0  0
  -26.0030  -29.4610   20.8050 C   0  0  0  0  0  0  0  0  0  0  0  0
  -27.1720  -28.6270   20.8120 C   0  0  0  0  0  3  0  0  0  0  0  0
  -25.9710  -26.9290   19.5750 C   0  0  0  0  0  3  0  0  0  0  0  0
  -24.8170  -27.7390   19.5750 C   0  0  0  0  0  3  0  0  0  0  0  0
  -23.5990  -29.8860   20.2370 C   0  0  0  0  0  2  0  0  0  0  0  0
  -24.6540  -31.1420   22.1600 N   0  0  0  0  0  0  0  0  0  0  0  0
  -23.5020  -32.2340   23.7840 O   0  0  0  0  0  0  0  0  0  0  0  0
  -22.7190  -29.5420   22.5800 C   0  0  0  0  0  0  0  0  0  0  0  0
  -21.3950  -29.3560   22.4460 N   0  0  0  0  0  0  0  0  0  0  0  0
  -23.3970  -28.9330   23.4120 O   0  0  0  0  0  0  0  0  0  0  0  0
  -20.9070  -29.8900   21.7400 H   0  0  0  0  0  0  0  0  0  0  0  0
  -18.0300  -28.1150   22.9350 C   0  0  0  0  0  0  0  0  0  0  0  0
  -20.5800  -28.4180   23.2200 C   0  0  0  0  0  3  0  0  0  0  0  0
  -20.7100  -26.9800   22.6680 C   0  0  0  0  0  2  0  0  0  0  0  0
  -19.6250  -26.6320   21.6460 C   0  0  0  0  0  2  0  0  0  0  0  0
  -18.2330  -26.7630   22.2700 C   0  0  0  0  0  2  0  0  0  0  0  0
  -19.1320  -28.9000   23.3650 C   0  0  0  0  0  0  0  0  0  0  0  0
  -18.8870  -30.1680   23.9380 C   0  0  0  0  0  3  0  0  0  0  0  0
  -17.5720  -30.6490   24.0840 C   0  0  0  0  0  3  0  0  0  0  0  0
  -16.4840  -29.8620   23.6660 C   0  0  0  0  0  3  0  0  0  0  0  0
  -16.7140  -28.5970   23.1010 C   0  0  0  0  0  3  0  0  0  0  0  0
  -25.8670  -32.5980   23.8720 C   0  0  0  0  0  3  0  0  0  0  0  0
  -26.3790  -31.8400   25.1580 C   0  0  1  0  0  0  0  0  0  0  0  0
  -25.2880  -31.6030   26.2290 C   0  0  0  0  0  1  0  0  0  0  0  0
  -26.9590  -30.4590   24.7760 C   0  0  0  0  0  1  0  0  0  0  0  0
  -27.5320  -32.6390   25.8110 C   0  0  0  0  0  1  0  0  0  0  0  0
  -25.5550  -34.0010   24.1900 N   0  0  0  0  0  0  0  0  0  0  0  0
  -25.8970  -35.0490   23.4280 C   0  0  0  0  0  0  0  0  0  0  0  0
  -26.5730  -34.9360   22.4020 O   0  0  0  0  0  0  0  0  0  0  0  0
  -24.9580  -34.1640   24.9870 H   0  0  0  0  0  0  0  0  0  0  0  0
  -24.1780  -36.8460   23.0450 C   0  0  0  0  0  1  0  0  0  0  0  0
  -25.4070  -36.4410   23.8730 C   0  0  0  0  0  3  0  0  0  0  0  0
  -27.5350  -37.3190   24.7270 C   0  0  0  0  0  1  0  0  0  0  0  0
  -26.4460  -37.4890   23.7690 N   0  0  0  0  0  0  0  0  0  0  0  0
  -26.0420  -38.4110   23.9150 H   0  0  0  0  0  0  0  0  0  0  0  0
  2  1  2  0
  3  4  2  0
  4  7  1  0
  5  3  1  0
  5  6  1  0
  6  8  1  0
  7  2  1  0
  8  7  1  0
  8 18  1  0
  9  5  2  0
 10 18  1  0
 11 16  1  0
 12 13  1  0
 12 11  1  0
 14 13  1  0
 14 23  1  0
 14 15  1  0
 16 10  1  0
 16 15  1  0
 17 10  2  0
 18 19  1  0
 20 21  2  0
 21 40  1  0
 22 21  1  0
 22 25  1  0
 23 20  1  0
 23 24  1  0
 24 22  2  0
 25 26  1  0
 26 27  2  0
 28 31  1  0
 28 27  1  0
 29 28  2  0
 30 29  1  0
 30 25  2  0
 31 32  1  0
 32 33  1  0
 33 34  2  0
 35 34  1  0
 35 39  1  0
 36 35  2  0
 37 32  2  0
 37 36  1  0
 38 37  1  0
 40 41  1  0
 41 44  1  0
 41 43  1  0
 42 40  2  0
 45 46  1  0
 45 20  1  0
 47 45  1  0
 48  1  1  0
 49 48  2  0
 49 50  1  0
 51 50  1  0
 52 63  2  0
 53 51  1  0
 53 58  1  0
 54 62  1  0
 54 64  1  0
 55 61  1  0
 55 57  1  0
 56 62  1  0
 57 58  2  0
 57 56  1  0
 59 60  1  0
 59 53  2  0
 60 55  2  0
 61 54  1  0
 62 52  1  0
 64 66  2  0
 65 64  1  0
 67 65  1  0
 68 77  2  0
 68 73  1  0
 69 65  1  0
 69 73  1  0
 70 69  1  0
 71 72  1  0
 71 70  1  0
 72 68  1  0
 73 74  2  0
 74 75  1  0
 76 75  2  0
 77 76  1  0
 78 52  1  0
 78 83  1  0
 78 79  1  0
 79 82  1  1
 79 80  1  0
 81 79  1  0
 83 86  1  0
 84 88  1  0
 84 83  1  0
 85 84  2  0
 88 87  1  0
 90 88  1  0
 90 91  1  0
 90 89  1  0
M  ISO  4  10 100  18 100  50 101  51 101
M  END
>  <TORSDO>  (35) 
F 19

>  <SCORE>  (35) 
-14.184

>  <name>  (35) 
35

>  <ligand_id>  (35) 
35

>  <original_smiles>  (35) 
[H]C(C([H])=C([H])C1([H])C([H])=C([H])C(=O)C([H])([H])C1([H])N([H])C(=O)N1C([H])([H])C([H])([H])C([H])([H])C([H])(n2nc(-c3c([H])c([H])c(Oc4c([H])c([H])c(F)c([H])c4F)c([H])c3[H])c(C(=O)N([H])[H])c2N([H])[H])C1([H])[H])=C([H])C([H])([H])Oc1c([H])c([H])c2c(c1[H])C([H])([H])N(C(=O)C([H])(N([H])C(=O)C([H])(N([H])C([H])([H])[H])C([H])([H])[H])C(C([H])([H])[H])(C([H])([H])[H])C([H])([H])[H])C([H])(C(=O)N([H])C1([H])c3c([H])c([H])c([H])c([H])c3C([H])([H])C([H])([H])C1([H])[H])C2([H])[H]

>  <smiles>  (35) 
[H]C(C([H])=C([H])C1([H])C([H])=C([H])C(=O)C([H])([H])C1([H])N([H])C(=O)N1C([H])([H])C([H])([H])C([H])([H])C([H])(n2nc(-c3c([H])c([H])c(Oc4c([H])c([H])c(F)c([H])c4F)c([H])c3[H])c(C(=O)N([H])[H])c2N([H])[H])C1([H])[H])=C([H])C([H])([H])Oc1c([H])c([H])c2c(c1[H])C([H])([H])N(C(=O)C([H])(N([H])C(=O)C([H])(N([H])C([H])([H])[H])C([H])([H])[H])C(C([H])([H])[H])(C([H])([H])[H])C([H])([H])[H])C([H])(C(=O)N([H])C1([H])c3c([H])c([H])c([H])c([H])c3C([H])([H])C([H])([H])C1([H])[H])C2([H])[H]

$$$$
36:0:0
     RDKit          3D

 95102  0  0  1  0  0  0  0  0999 V2000
  -27.5710  -19.5440   19.2850 C   0  0  0  0  0  2  0  0  0  0  0  0
  -26.5620  -20.4830   19.9880 C   0  0  0  0  0  2  0  0  0  0  0  0
  -26.6450  -21.9720   19.5960 C   0  0  0  0  0  2  0  0  0  0  0  0
  -27.2010  -22.8780   20.7160 C   0  0  0  0  0  2  0  0  0  0  0  0
  -27.3810  -24.3320   20.2530 C   0  0  0  0  0  2  0  0  0  0  0  0
  -28.8190  -24.6680   19.8060 C   0  0  0  0  0  2  0  0  0  0  0  0
  -28.9940  -25.9880   19.0270 C   0  0  0  0  0  2  0  0  0  0  0  0
  -28.7780  -27.1440   19.8350 O   0  0  0  0  0  0  0  0  0  0  0  0
  -24.6380  -31.7750   23.2710 C   0  0  0  0  0  0  0  0  0  0  0  0
  -27.5430  -27.7590   19.8590 C   0  0  0  0  0  0  0  0  0  0  0  0
  -23.5290  -30.4690   21.4900 C   0  0  0  0  0  3  0  0  0  0  0  0
  -25.0730  -29.1340   19.9690 C   0  0  0  0  0  0  0  0  0  0  0  0
  -26.0390  -30.9520   21.3830 C   0  0  0  0  0  2  0  0  0  0  0  0
  -26.1930  -29.6480   20.6340 C   0  0  0  0  0  0  0  0  0  0  0  0
  -27.4230  -28.9570   20.5920 C   0  0  0  0  0  3  0  0  0  0  0  0
  -26.4040  -27.2680   19.1780 C   0  0  0  0  0  3  0  0  0  0  0  0
  -25.1700  -27.9360   19.2450 C   0  0  0  0  0  3  0  0  0  0  0  0
  -23.7920  -29.9280   20.0610 C   0  0  0  0  0  2  0  0  0  0  0  0
  -24.7520  -31.0750   22.1070 N   0  0  0  0  0  0  0  0  0  0  0  0
  -23.5350  -31.9490   23.8080 O   0  0  0  0  0  0  0  0  0  0  0  0
  -22.9130  -29.3350   22.3380 C   0  0  0  0  0  0  0  0  0  0  0  0
  -21.5970  -29.1200   22.1790 N   0  0  0  0  0  0  0  0  0  0  0  0
  -23.6140  -28.6570   23.0940 O   0  0  0  0  0  0  0  0  0  0  0  0
  -21.0910  -29.7270   21.5480 H   0  0  0  0  0  0  0  0  0  0  0  0
  -18.2580  -27.7870   22.5470 C   0  0  0  0  0  0  0  0  0  0  0  0
  -20.8080  -28.0850   22.8480 C   0  0  0  0  0  3  0  0  0  0  0  0
  -20.9520  -26.7250   22.1280 C   0  0  0  0  0  2  0  0  0  0  0  0
  -19.8570  -26.4780   21.0860 C   0  0  0  0  0  2  0  0  0  0  0  0
  -18.4710  -26.5190   21.7380 C   0  0  0  0  0  2  0  0  0  0  0  0
  -19.3570  -28.5310   23.0540 C   0  0  0  0  0  0  0  0  0  0  0  0
  -19.1060  -29.7230   23.7690 C   0  0  0  0  0  3  0  0  0  0  0  0
  -17.7880  -30.1690   23.9840 C   0  0  0  0  0  3  0  0  0  0  0  0
  -16.7050  -29.4210   23.4940 C   0  0  0  0  0  3  0  0  0  0  0  0
  -16.9400  -28.2320   22.7810 C   0  0  0  0  0  3  0  0  0  0  0  0
  -25.8820  -32.4060   23.9700 C   0  0  0  0  0  3  0  0  0  0  0  0
  -26.3510  -31.6040   25.2450 C   0  0  1  0  0  0  0  0  0  0  0  0
  -25.2140  -31.3190   26.2530 C   0  0  0  0  0  1  0  0  0  0  0  0
  -26.9720  -30.2470   24.8390 C   0  0  0  0  0  1  0  0  0  0  0  0
  -27.4570  -32.3960   25.9800 C   0  0  0  0  0  1  0  0  0  0  0  0
  -25.5370  -33.7890   24.3220 N   0  0  0  0  0  0  0  0  0  0  0  0
  -25.8820  -34.8660   23.6020 C   0  0  0  0  0  0  0  0  0  0  0  0
  -26.5990  -34.8000   22.5990 O   0  0  0  0  0  0  0  0  0  0  0  0
  -24.9180  -33.9150   25.1080 H   0  0  0  0  0  0  0  0  0  0  0  0
  -24.1440  -36.6400   23.2070 C   0  0  0  0  0  1  0  0  0  0  0  0
  -25.3490  -36.2340   24.0700 C   0  0  0  0  0  3  0  0  0  0  0  0
  -27.4180  -37.1330   25.0390 C   0  0  0  0  0  1  0  0  0  0  0  0
  -26.3680  -37.3050   24.0380 N   0  0  0  0  0  0  0  0  0  0  0  0
  -25.9370  -38.2130   24.1890 H   0  0  0  0  0  0  0  0  0  0  0  0
  -29.0410  -20.0370   19.2890 C   0  0  0  0  0  3  0  0  0  0  0  0
  -29.2960  -20.8820   18.1080 N   0  0  0  0  0  4  0  0  0  0  0  0
  -29.2460  -20.3400   17.2620 H   0  0  0  0  0  0  0  0  0  0  0  0
  -30.2090  -21.2980   18.1570 H   0  0  0  0  0  0  0  0  0  0  0  0
  -28.6130  -21.6160   18.0480 H   0  0  0  0  0  0  0  0  0  0  0  0
  -30.1040  -18.9200   19.3580 C   0  0  0  0  0  2  0  0  0  0  0  0
  -30.0560  -18.0460   20.6240 C   0  0  0  0  0  2  0  0  0  0  0  0
  -31.4250  -17.4110   20.9200 C   0  0  0  0  0  2  0  0  0  0  0  0
  -31.3750  -16.2020   21.8720 C   0  0  0  0  0  2  0  0  0  0  0  0
  -30.9570  -14.3300   20.2690 C   0  0  0  0  0  0  0  0  0  0  0  0
  -30.4870  -12.2570   19.0200 C   0  0  0  0  0  2  0  0  0  0  0  0
  -29.4920  -12.4860   17.8690 C   0  0  0  0  0  2  0  0  0  0  0  0
  -28.0420  -12.3630   18.3720 C   0  0  0  0  0  2  0  0  0  0  0  0
  -27.7820  -13.2220   19.6370 C   0  0  0  0  0  3  0  0  0  0  0  0
  -28.8740  -12.9730   20.6990 C   0  0  0  0  0  2  0  0  0  0  0  0
  -30.1920  -13.2250   20.0850 N   0  0  0  0  0  0  0  0  0  0  0  0
  -31.9360  -14.6020   19.5680 O   0  0  0  0  0  0  0  0  0  0  0  0
  -30.6200  -15.0740   21.3310 N   0  0  0  0  0  0  0  0  0  0  0  0
  -29.8170  -14.7620   21.8570 H   0  0  0  0  0  0  0  0  0  0  0  0
  -25.4470  -13.8900   20.4920 C   0  0  0  0  0  0  0  0  0  0  0  0
  -24.3740  -13.1430   20.8970 C   0  0  0  0  0  0  0  0  0  0  0  0
  -24.7850  -11.7780   20.8010 C   0  0  0  0  0  0  0  0  0  0  0  0
  -26.4460  -12.9820   20.1780 N   0  0  0  0  0  0  0  0  0  0  0  0
  -26.0520  -11.7060   20.4180 N   0  0  0  0  0  0  0  0  0  0  0  0
  -24.0270  -10.5360   20.9920 C   0  0  0  0  0  0  0  0  0  0  0  0
  -24.4400   -9.5560   21.9220 C   0  0  0  0  0  3  0  0  0  0  0  0
  -23.6860   -8.3760   22.1010 C   0  0  0  0  0  3  0  0  0  0  0  0
  -22.5050   -8.1680   21.3500 C   0  0  0  0  0  0  0  0  0  0  0  0
  -22.1110   -9.1360   20.4090 C   0  0  0  0  0  3  0  0  0  0  0  0
  -22.8660  -10.3070   20.2290 C   0  0  0  0  0  3  0  0  0  0  0  0
  -21.7230   -7.0420   21.4390 O   0  0  0  0  0  0  0  0  0  0  0  0
  -21.6290   -6.3230   22.6020 C   0  0  0  0  0  0  0  0  0  0  0  0
  -21.1480   -6.8980   23.7990 C   0  0  0  0  0  3  0  0  0  0  0  0
  -21.0010   -6.1040   24.9540 C   0  0  0  0  0  3  0  0  0  0  0  0
  -21.3220   -4.7340   24.9120 C   0  0  0  0  0  0  0  0  0  0  0  0
  -21.7950   -4.1580   23.7200 C   0  0  0  0  0  3  0  0  0  0  0  0
  -21.9440   -4.9490   22.5670 C   0  0  0  0  0  0  0  0  0  0  0  0
  -22.3790   -4.3840   21.4160 F   0  0  0  0  0  0  0  0  0  0  0  0
  -21.1730   -3.9680   26.0180 F   0  0  0  0  0  0  0  0  0  0  0  0
  -23.0110  -13.6560   21.2640 C   0  0  0  0  0  0  0  0  0  0  0  0
  -22.3100  -12.9590   22.1500 N   0  0  0  0  0  0  0  0  0  0  0  0
  -22.5780  -14.7110   20.7980 O   0  0  0  0  0  0  0  0  0  0  0  0
  -22.6720  -12.1040   22.5470 H   0  0  0  0  0  0  0  0  0  0  0  0
  -21.3970  -13.2820   22.4370 H   0  0  0  0  0  0  0  0  0  0  0  0
  -25.6520  -15.2600   20.3470 N   0  0  0  0  0  0  0  0  0  0  0  0
  -24.9220  -15.9410   20.5200 H   0  0  0  0  0  0  0  0  0  0  0  0
  -26.5060  -15.6730   19.9990 H   0  0  0  0  0  0  0  0  0  0  0  0
  1  2  1  0
  3  2  1  0
  3  4  1  0
  5  4  1  0
  6  5  1  0
  7  6  1  0
  7  8  1  0
  8 10  1  0
  9 20  2  0
 10 15  1  0
 11 19  1  0
 11 21  1  0
 12 18  1  0
 12 14  1  0
 13 19  1  0
 14 13  1  0
 15 14  2  0
 16 17  1  0
 16 10  2  0
 17 12  2  0
 18 11  1  0
 19  9  1  0
 21 23  2  0
 22 21  1  0
 24 22  1  0
 25 34  2  0
 25 30  1  0
 26 22  1  0
 26 30  1  0
 27 26  1  0
 28 29  1  0
 28 27  1  0
 29 25  1  0
 30 31  2  0
 31 32  1  0
 33 32  2  0
 34 33  1  0
 35  9  1  0
 35 40  1  0
 35 36  1  0
 36 39  1  1
 36 37  1  0
 38 36  1  0
 40 43  1  0
 41 45  1  0
 41 40  1  0
 42 41  2  0
 45 44  1  0
 47 45  1  0
 47 48  1  0
 47 46  1  0
 49  1  1  0
 49 54  1  0
 50 52  1  0
 50 49  1  0
 51 50  1  0
 53 50  1  0
 54 55  1  0
 55 56  1  0
 56 57  1  0
 58 66  1  0
 59 64  1  0
 60 61  1  0
 60 59  1  0
 62 61  1  0
 62 71  1  0
 62 63  1  0
 64 58  1  0
 64 63  1  0
 65 58  2  0
 66 67  1  0
 66 57  1  0
 68 69  2  0
 69 88  1  0
 70 69  1  0
 70 73  1  0
 71 72  1  0
 71 68  1  0
 72 70  2  0
 73 74  1  0
 74 75  2  0
 76 79  1  0
 76 75  1  0
 77 76  2  0
 78 77  1  0
 78 73  2  0
 79 80  1  0
 80 81  1  0
 81 82  2  0
 83 82  1  0
 83 87  1  0
 84 83  2  0
 85 80  2  0
 85 84  1  0
 86 85  1  0
 88 89  1  0
 89 92  1  0
 89 91  1  0
 90 88  2  0
 93 68  1  0
 93 94  1  0
 95 93  1  0
M  ISO  4   7 101   8 101  58 100  66 100
M  END
>  <TORSDO>  (36) 
F 28

>  <SCORE>  (36) 
-9.997

>  <name>  (36) 
36

>  <ligand_id>  (36) 
36

>  <original_smiles>  (36) 
[H]c1c([H])c([H])c2c(c1[H])C([H])([H])C([H])([H])C([H])([H])C2([H])N([H])C(=O)C1([H])N(C(=O)C([H])(N([H])C(=O)C([H])(N([H])C([H])([H])[H])C([H])([H])[H])C(C([H])([H])[H])(C([H])([H])[H])C([H])([H])[H])C([H])([H])c2c([H])c(OC([H])([H])C([H])([H])C([H])([H])C([H])([H])C([H])([H])C([H])([H])C([H])([H])C([H])(C([H])([H])C([H])([H])C([H])([H])C([H])([H])N([H])C(=O)N3C([H])([H])C([H])([H])C([H])([H])C([H])(n4nc(-c5c([H])c([H])c(Oc6c([H])c([H])c(F)c([H])c6F)c([H])c5[H])c(C(=O)N([H])[H])c4N([H])[H])C3([H])[H])[N+]([H])([H])[H])c([H])c([H])c2C1([H])[H]

>  <smiles>  (36) 
[H]c1c([H])c([H])c2c(c1[H])C([H])([H])C([H])([H])C([H])([H])C2([H])N([H])C(=O)C1([H])N(C(=O)C([H])(N([H])C(=O)C([H])(N([H])C([H])([H])[H])C([H])([H])[H])C(C([H])([H])[H])(C([H])([H])[H])C([H])([H])[H])C([H])([H])c2c([H])c(OC([H])([H])C([H])([H])C([H])([H])C([H])([H])C([H])([H])C([H])([H])C([H])([H])C([H])(C([H])([H])C([H])([H])C([H])([H])C([H])([H])N([H])C(=O)N3C([H])([H])C([H])([H])C([H])([H])C([H])(n4nc(-c5c([H])c([H])c(Oc6c([H])c([H])c(F)c([H])c6F)c([H])c5[H])c(C(=O)N([H])[H])c4N([H])[H])C3([H])[H])[N+]([H])([H])[H])c([H])c([H])c2C1([H])[H]

$$$$
37:0:0
     RDKit          3D

 99106  0  0  1  0  0  0  0  0999 V2000
  -25.8640  -15.7450   21.3570 C   0  0  0  0  0  2  0  0  0  0  0  0
  -23.7940  -16.9000   19.6190 C   0  0  0  0  0  2  0  0  0  0  0  0
  -25.7060  -14.0390   21.0460 C   0  0  0  0  0  3  0  0  0  0  0  0
  -25.1520  -17.0780   20.5810 C   0  0  0  0  0  3  0  0  0  0  0  0
  -22.9800  -15.6520   18.8120 C   0  0  0  0  0  0  0  0  0  0  0  0
  -23.3720  -14.0050   18.9000 C   0  0  0  0  0  3  0  0  0  0  0  0
  -26.6580  -13.0830   21.7670 C   0  0  0  0  0  0  0  0  0  0  0  0
  -26.4060  -11.9130   22.0570 O   0  0  0  0  0  0  0  0  0  0  0  0
  -28.0270  -13.6590   22.1770 C   0  0  0  0  0  2  0  0  0  0  0  0
  -28.8500  -14.3280   21.0410 C   0  0  0  0  0  2  0  0  0  0  0  0
  -30.2880  -13.7710   20.8300 C   0  0  0  0  0  2  0  0  0  0  0  0
  -30.7640  -12.6420   18.5450 C   0  0  0  0  0  0  0  0  0  0  0  0
  -30.4080  -10.2160   18.0670 C   0  0  0  0  0  2  0  0  0  0  0  0
  -29.1910   -9.9340   17.1370 C   0  0  0  0  0  2  0  0  0  0  0  0
  -27.8590   -9.9640   17.8880 C   0  0  0  0  0  2  0  0  0  0  0  0
  -27.8990  -11.2260   18.7150 C   0  0  0  0  0  3  0  0  0  0  0  0
  -29.0340  -11.2220   19.6940 C   0  0  0  0  0  2  0  0  0  0  0  0
  -30.2100  -11.4380   18.8740 N   0  0  0  0  0  0  0  0  0  0  0  0
  -31.4290  -12.7780   17.5140 O   0  0  0  0  0  0  0  0  0  0  0  0
  -30.6530  -13.6840   19.4020 N   0  0  0  0  0  0  0  0  0  0  0  0
  -31.0840  -14.5270   19.0480 H   0  0  0  0  0  0  0  0  0  0  0  0
  -26.0310  -13.0010   19.4310 C   0  0  0  0  0  3  0  0  0  0  0  0
  -24.1570  -12.4290   20.7550 C   0  0  0  0  0  3  0  0  0  0  0  0
  -24.5640  -10.6720   20.8910 C   0  0  0  0  0  0  0  0  0  0  0  0
  -26.7250  -11.4740   19.3720 N   0  0  0  0  0  0  0  0  0  0  0  0
  -25.9240  -10.3000   20.1530 N   0  0  0  0  0  2  0  0  0  0  0  0
  -23.8110   -9.3740   21.1920 C   0  0  0  0  0  0  0  0  0  0  0  0
  -24.3620   -8.3020   21.9550 C   0  0  0  0  0  3  0  0  0  0  0  0
  -23.6180   -7.1260   22.2630 C   0  0  0  0  0  3  0  0  0  0  0  0
  -22.2960   -6.9650   21.7810 C   0  0  0  0  0  0  0  0  0  0  0  0
  -21.7940   -7.9550   20.9130 C   0  0  0  0  0  3  0  0  0  0  0  0
  -22.5390   -9.1230   20.6190 C   0  0  0  0  0  3  0  0  0  0  0  0
  -21.4830   -5.8790   22.0550 O   0  0  0  0  0  0  0  0  0  0  0  0
  -21.5480   -5.1830   23.2410 C   0  0  0  0  0  0  0  0  0  0  0  0
  -21.2010   -5.7700   24.4810 C   0  0  0  0  0  3  0  0  0  0  0  0
  -21.2270   -5.0000   25.6610 C   0  0  0  0  0  3  0  0  0  0  0  0
  -21.5950   -3.6420   25.6140 C   0  0  0  0  0  0  0  0  0  0  0  0
  -21.9270   -3.0490   24.3820 C   0  0  0  0  0  3  0  0  0  0  0  0
  -21.8930   -3.8140   23.2020 C   0  0  0  0  0  0  0  0  0  0  0  0
  -22.1850   -3.2250   22.0180 F   0  0  0  0  0  0  0  0  0  0  0  0
  -21.6320   -2.9020   26.7500 F   0  0  0  0  0  0  0  0  0  0  0  0
  -22.8400  -12.8100   21.2650 C   0  0  0  0  0  0  0  0  0  0  0  0
  -22.3460  -12.0120   22.2080 N   0  0  0  0  0  0  0  0  0  0  0  0
  -22.2070  -13.7230   20.7890 O   0  0  0  0  0  0  0  0  0  0  0  0
  -22.8650  -11.2250   22.5700 H   0  0  0  0  0  0  0  0  0  0  0  0
  -21.4290  -12.2020   22.5900 H   0  0  0  0  0  0  0  0  0  0  0  0
  -26.7120  -13.9510   18.7240 N   0  0  0  0  0  0  0  0  0  0  0  0
  -26.2530  -14.8450   18.6070 H   0  0  0  0  0  0  0  0  0  0  0  0
  -27.3650  -13.7280   17.9850 H   0  0  0  0  0  0  0  0  0  0  0  0
  -22.7840  -13.0000   18.1680 O   0  0  0  0  0  0  0  0  0  0  0  0
  -23.2360  -12.1890   18.3830 H   0  0  0  0  0  0  0  0  0  0  0  0
  -26.0200  -18.7450   20.6040 C   0  0  0  0  0  3  0  0  0  0  0  0
  -26.7020  -20.1870   19.4970 C   0  0  0  0  0  3  0  0  0  0  0  0
  -27.5500  -21.9430   19.6050 C   0  0  0  0  0  3  0  0  0  0  0  0
  -27.4910  -23.7390   18.8710 C   0  0  0  0  0  3  0  0  0  0  0  0
  -28.1750  -25.3730   18.9720 O   0  0  0  0  0  0  0  0  0  0  0  0
  -24.9530  -31.2270   22.5230 C   0  0  0  0  0  0  0  0  0  0  0  0
  -27.4860  -26.7230   18.9310 C   0  0  0  0  0  0  0  0  0  0  0  0
  -23.8400  -29.9660   20.7420 C   0  0  0  0  0  3  0  0  0  0  0  0
  -25.3340  -28.7190   19.0500 C   0  0  0  0  0  0  0  0  0  0  0  0
  -26.3940  -30.3300   20.6030 C   0  0  0  0  0  2  0  0  0  0  0  0
  -26.5000  -29.0110   19.7600 C   0  0  0  0  0  0  0  0  0  0  0  0
  -27.6000  -28.0240   19.6810 C   0  0  0  0  0  3  0  0  0  0  0  0
  -26.3860  -26.7300   18.0750 C   0  0  0  0  0  3  0  0  0  0  0  0
  -25.3280  -27.6470   18.1600 C   0  0  0  0  0  3  0  0  0  0  0  0
  -24.0810  -29.5490   19.2660 C   0  0  0  0  0  2  0  0  0  0  0  0
  -25.0880  -30.5420   21.3420 N   0  0  0  0  0  0  0  0  0  0  0  0
  -23.8520  -31.3510   23.0850 O   0  0  0  0  0  0  0  0  0  0  0  0
  -23.2760  -28.7720   21.5600 C   0  0  0  0  0  0  0  0  0  0  0  0
  -21.9510  -28.5450   21.4990 N   0  0  0  0  0  0  0  0  0  0  0  0
  -24.0320  -28.0650   22.2300 O   0  0  0  0  0  0  0  0  0  0  0  0
  -21.3870  -29.1670   20.9370 H   0  0  0  0  0  0  0  0  0  0  0  0
  -18.6800  -27.0690   22.0570 C   0  0  0  0  0  0  0  0  0  0  0  0
  -21.2400  -27.4480   22.1650 C   0  0  0  0  0  3  0  0  0  0  0  0
  -21.3600  -26.1360   21.3540 C   0  0  0  0  0  2  0  0  0  0  0  0
  -20.1920  -25.9170   20.3870 C   0  0  0  0  0  2  0  0  0  0  0  0
  -18.8640  -25.8660   21.1490 C   0  0  0  0  0  2  0  0  0  0  0  0
  -19.7930  -27.8220   22.5220 C   0  0  0  0  0  0  0  0  0  0  0  0
  -19.5590  -28.9480   23.3410 C   0  0  0  0  0  3  0  0  0  0  0  0
  -18.2490  -29.3230   23.6950 C   0  0  0  0  0  3  0  0  0  0  0  0
  -17.1530  -28.5680   23.2410 C   0  0  0  0  0  3  0  0  0  0  0  0
  -17.3710  -27.4410   22.4280 C   0  0  0  0  0  3  0  0  0  0  0  0
  -26.1670  -31.9110   23.2170 C   0  0  0  0  0  3  0  0  0  0  0  0
  -26.7910  -31.0340   24.3730 C   0  0  1  0  0  0  0  0  0  0  0  0
  -25.7620  -30.5480   25.4250 C   0  0  0  0  0  1  0  0  0  0  0  0
  -27.4900  -29.7790   23.8050 C   0  0  0  0  0  1  0  0  0  0  0  0
  -27.8840  -31.8480   25.1100 C   0  0  0  0  0  1  0  0  0  0  0  0
  -25.7110  -33.2060   23.7610 N   0  0  0  0  0  0  0  0  0  0  0  0
  -25.9290  -34.4010   23.1950 C   0  0  0  0  0  0  0  0  0  0  0  0
  -26.5930  -34.5360   22.1660 O   0  0  0  0  0  0  0  0  0  0  0  0
  -25.1130  -33.1660   24.5730 H   0  0  0  0  0  0  0  0  0  0  0  0
  -24.0300  -36.0570   23.1430 C   0  0  0  0  0  1  0  0  0  0  0  0
  -25.3150  -35.6420   23.8780 C   0  0  0  0  0  3  0  0  0  0  0  0
  -27.3610  -36.5870   24.8580 C   0  0  0  0  0  1  0  0  0  0  0  0
  -26.2380  -36.7970   23.9490 N   0  0  0  0  0  0  0  0  0  0  0  0
  -25.7440  -37.6340   24.2470 H   0  0  0  0  0  0  0  0  0  0  0  0
  -21.9160  -16.1490   17.8310 C   0  0  0  0  0  2  0  0  0  0  0  0
  -20.0190  -14.3740   17.7980 C   0  0  0  0  0  1  0  0  0  0  0  0
  -21.0870  -15.1380   17.0050 C   0  0  0  0  0  2  0  0  0  0  0  0
  3  1  1  0
  3  7  1  0
  4  2  1  0
  4 52  1  0
  4  1  1  0
  5  6  2  0
  5  2  1  0
  7  8  2  0
  7  9  1  0
 10  9  1  0
 11 10  1  0
 12 18  1  0
 12 20  1  0
 13 18  1  0
 14 15  1  0
 14 13  1  0
 16 15  1  0
 16 25  1  0
 16 17  1  0
 18 17  1  0
 19 12  2  0
 20 11  1  0
 21 20  1  0
 22 47  1  0
 22  3  1  0
 23 24  2  0
 23 42  1  0
 24 27  1  0
 25 22  1  0
 25 26  1  0
 26 24  1  0
 27 28  1  0
 28 29  2  0
 30 33  1  0
 30 29  1  0
 31 30  2  0
 32 31  1  0
 32 27  2  0
 33 34  1  0
 34 35  1  0
 35 36  2  0
 37 36  1  0
 37 41  1  0
 38 37  2  0
 39 34  2  0
 39 38  1  0
 40 39  1  0
 42 43  1  0
 43 45  1  0
 43 46  1  0
 44 42  2  0
 48 47  1  0
 49 47  1  0
 50 51  1  0
 50  6  1  0
 53 54  1  0
 53 52  2  0
 55 56  1  0
 55 54  2  0
 57 68  2  0
 58 56  1  0
 58 63  1  0
 59 67  1  0
 59 69  1  0
 60 66  1  0
 60 62  1  0
 61 67  1  0
 62 61  1  0
 63 62  2  0
 64 65  1  0
 64 58  2  0
 65 60  2  0
 66 59  1  0
 67 57  1  0
 69 71  2  0
 70 69  1  0
 72 70  1  0
 73 82  2  0
 73 78  1  0
 74 70  1  0
 74 78  1  0
 75 74  1  0
 76 77  1  0
 76 75  1  0
 77 73  1  0
 78 79  2  0
 79 80  1  0
 81 80  2  0
 82 81  1  0
 83 57  1  0
 83 88  1  0
 83 84  1  0
 84 87  1  1
 84 85  1  0
 86 84  1  0
 88 91  1  0
 89 88  1  0
 89 93  1  0
 90 89  2  0
 93 92  1  0
 93 95  1  0
 95 96  1  0
 95 94  1  0
 97  5  1  0
 99 98  1  0
 99 97  1  0
M  ISO  4  12 100  20 100  55 101  56 101
M  END
>  <TORSDO>  (37) 
F 27

>  <SCORE>  (37) 
16.058

>  <name>  (37) 
37

>  <ligand_id>  (37) 
37

>  <original_smiles>  (37) 
[H]Oc1c(C(=O)C([H])([H])C([H])([H])C([H])([H])N([H])C(=O)N2C([H])([H])C([H])([H])C([H])([H])C([H])(n3nc(-c4c([H])c([H])c(Oc5c([H])c([H])c(F)c([H])c5F)c([H])c4[H])c(C(=O)N([H])[H])c3N([H])[H])C2([H])[H])c([H])c(C([H])([H])C([H])([H])C([H])([H])C([H])([H])Oc2c([H])c([H])c3c(c2[H])C([H])([H])N(C(=O)C([H])(N([H])C(=O)C([H])(N([H])C([H])([H])[H])C([H])([H])[H])C(C([H])([H])[H])(C([H])([H])[H])C([H])([H])[H])C([H])(C(=O)N([H])C2([H])c4c([H])c([H])c([H])c([H])c4C([H])([H])C([H])([H])C2([H])[H])C3([H])[H])c([H])c1C([H])([H])C([H])([H])C([H])([H])[H]

>  <smiles>  (37) 
[H]Oc1c(C(=O)C([H])([H])C([H])([H])C([H])([H])N([H])C(=O)N2C([H])([H])C([H])([H])C([H])([H])C([H])(n3nc(-c4c([H])c([H])c(Oc5c([H])c([H])c(F)c([H])c5F)c([H])c4[H])c(C(=O)N([H])[H])c3N([H])[H])C2([H])[H])c([H])c(C([H])([H])C([H])([H])C([H])([H])C([H])([H])Oc2c([H])c([H])c3c(c2[H])C([H])([H])N(C(=O)C([H])(N([H])C(=O)C([H])(N([H])C([H])([H])[H])C([H])([H])[H])C(C([H])([H])[H])(C([H])([H])[H])C([H])([H])[H])C([H])(C(=O)N([H])C2([H])c4c([H])c([H])c([H])c([H])c4C([H])([H])C([H])([H])C2([H])[H])C3([H])[H])c([H])c1C([H])([H])C([H])([H])C([H])([H])[H]

$$$$
38:0:0
     RDKit          3D

 91 98  0  0  1  0  0  0  0  0999 V2000
  -29.6970  -23.1080   20.6680 N   0  0  0  0  0  4  0  0  0  0  0  0
  -29.5030  -23.1960   21.6550 H   0  0  0  0  0  0  0  0  0  0  0  0
  -30.6810  -22.9160   20.5740 H   0  0  0  0  0  0  0  0  0  0  0  0
  -29.4460  -24.4170   19.9650 C   0  0  0  0  0  2  0  0  0  0  0  0
  -28.3500  -25.3320   20.5910 C   0  0  0  0  0  2  0  0  0  0  0  0
  -28.4250  -26.7000   20.1100 O   0  0  0  0  0  0  0  0  0  0  0  0
  -24.6290  -31.9040   23.2270 C   0  0  0  0  0  0  0  0  0  0  0  0
  -27.2570  -27.4430   20.1340 C   0  0  0  0  0  0  0  0  0  0  0  0
  -23.4140  -30.5020   21.5910 C   0  0  0  0  0  3  0  0  0  0  0  0
  -24.8600  -28.9650   20.1570 C   0  0  0  0  0  0  0  0  0  0  0  0
  -25.9390  -30.8590   21.3770 C   0  0  0  0  0  2  0  0  0  0  0  0
  -26.0240  -29.4850   20.7370 C   0  0  0  0  0  0  0  0  0  0  0  0
  -27.2260  -28.7350   20.7170 C   0  0  0  0  0  3  0  0  0  0  0  0
  -26.0760  -26.9480   19.5350 C   0  0  0  0  0  3  0  0  0  0  0  0
  -24.8830  -27.6960   19.5490 C   0  0  0  0  0  3  0  0  0  0  0  0
  -23.6170  -29.8250   20.2100 C   0  0  0  0  0  2  0  0  0  0  0  0
  -24.6790  -31.1040   22.1230 N   0  0  0  0  0  0  0  0  0  0  0  0
  -23.5500  -32.1720   23.7750 O   0  0  0  0  0  0  0  0  0  0  0  0
  -22.7690  -29.4790   22.5560 C   0  0  0  0  0  0  0  0  0  0  0  0
  -21.4440  -29.2910   22.4330 N   0  0  0  0  0  0  0  0  0  0  0  0
  -23.4570  -28.8550   23.3670 O   0  0  0  0  0  0  0  0  0  0  0  0
  -20.9500  -29.8460   21.7500 H   0  0  0  0  0  0  0  0  0  0  0  0
  -18.0770  -28.0750   22.9410 C   0  0  0  0  0  0  0  0  0  0  0  0
  -20.6340  -28.3500   23.2060 C   0  0  0  0  0  3  0  0  0  0  0  0
  -20.7450  -26.9180   22.6350 C   0  0  0  0  0  2  0  0  0  0  0  0
  -19.6430  -26.5850   21.6230 C   0  0  0  0  0  2  0  0  0  0  0  0
  -18.2610  -26.7250   22.2670 C   0  0  0  0  0  2  0  0  0  0  0  0
  -19.1920  -28.8440   23.3670 C   0  0  0  0  0  0  0  0  0  0  0  0
  -18.9680  -30.1070   23.9550 C   0  0  0  0  0  3  0  0  0  0  0  0
  -17.6610  -30.6040   24.1200 C   0  0  0  0  0  3  0  0  0  0  0  0
  -16.5600  -29.8320   23.7090 C   0  0  0  0  0  3  0  0  0  0  0  0
  -16.7680  -28.5690   23.1270 C   0  0  0  0  0  3  0  0  0  0  0  0
  -25.9180  -32.5370   23.8370 C   0  0  0  0  0  3  0  0  0  0  0  0
  -26.4460  -31.7660   25.1090 C   0  0  1  0  0  0  0  0  0  0  0  0
  -25.3620  -31.5260   26.1860 C   0  0  0  0  0  1  0  0  0  0  0  0
  -27.0250  -30.3880   24.7090 C   0  0  0  0  0  1  0  0  0  0  0  0
  -27.6010  -32.5610   25.7610 C   0  0  0  0  0  1  0  0  0  0  0  0
  -25.6100  -33.9350   24.1690 N   0  0  0  0  0  0  0  0  0  0  0  0
  -25.9340  -34.9870   23.4060 C   0  0  0  0  0  0  0  0  0  0  0  0
  -26.6000  -34.8840   22.3720 O   0  0  0  0  0  0  0  0  0  0  0  0
  -25.0190  -34.0870   24.9740 H   0  0  0  0  0  0  0  0  0  0  0  0
  -24.2010  -36.7760   23.0570 C   0  0  0  0  0  1  0  0  0  0  0  0
  -25.4450  -36.3740   23.8640 C   0  0  0  0  0  3  0  0  0  0  0  0
  -27.5840  -37.2610   24.6810 C   0  0  0  0  0  1  0  0  0  0  0  0
  -26.4770  -37.4300   23.7460 N   0  0  0  0  0  0  0  0  0  0  0  0
  -26.0690  -38.3480   23.9010 H   0  0  0  0  0  0  0  0  0  0  0  0
  -28.9850  -21.8800   20.1990 C   0  0  0  0  0  3  0  0  0  0  0  0
  -27.6570  -21.8570   20.9660 C   0  0  0  0  0  3  0  0  0  0  0  0
  -27.5380  -22.2620   22.1270 O   0  0  0  0  0  0  0  0  0  0  0  0
  -29.8030  -20.5510   20.4380 C   0  0  0  0  0  3  0  0  0  0  0  0
  -29.0900  -19.2260   20.0010 C   0  0  0  0  0  3  0  0  0  0  0  0
  -29.9390  -17.9160   19.8360 C   0  0  0  0  0  2  0  0  0  0  0  0
  -30.1720  -17.0240   21.0960 C   0  0  0  0  0  2  0  0  0  0  0  0
  -30.6350  -14.5760   20.4450 C   0  0  0  0  0  0  0  0  0  0  0  0
  -30.3910  -12.3960   19.3000 C   0  0  0  0  0  2  0  0  0  0  0  0
  -29.4430  -12.5670   18.0930 C   0  0  0  0  0  2  0  0  0  0  0  0
  -27.9670  -12.4300   18.5200 C   0  0  0  0  0  2  0  0  0  0  0  0
  -27.6230  -13.2730   19.7750 C   0  0  0  0  0  3  0  0  0  0  0  0
  -28.6750  -13.0530   20.8850 C   0  0  0  0  0  2  0  0  0  0  0  0
  -29.9960  -13.3800   20.3200 N   0  0  0  0  0  0  0  0  0  0  0  0
  -31.7790  -14.7710   20.0250 O   0  0  0  0  0  0  0  0  0  0  0  0
  -29.8630  -15.5850   20.9110 N   0  0  0  0  0  0  0  0  0  0  0  0
  -28.9340  -15.3040   21.1850 H   0  0  0  0  0  0  0  0  0  0  0  0
  -25.2180  -13.8900   20.4580 C   0  0  0  0  0  0  0  0  0  0  0  0
  -24.1480  -13.1220   20.8320 C   0  0  0  0  0  0  0  0  0  0  0  0
  -24.6100  -11.7700   20.8240 C   0  0  0  0  0  0  0  0  0  0  0  0
  -26.2660  -13.0060   20.2490 N   0  0  0  0  0  0  0  0  0  0  0  0
  -25.9040  -11.7270   20.5280 N   0  0  0  0  0  0  0  0  0  0  0  0
  -23.8830  -10.5110   21.0280 C   0  0  0  0  0  0  0  0  0  0  0  0
  -24.3190   -9.5510   21.9680 C   0  0  0  0  0  3  0  0  0  0  0  0
  -23.5940   -8.3540   22.1570 C   0  0  0  0  0  3  0  0  0  0  0  0
  -22.4180   -8.1100   21.4070 C   0  0  0  0  0  0  0  0  0  0  0  0
  -22.0040   -9.0580   20.4550 C   0  0  0  0  0  3  0  0  0  0  0  0
  -22.7300  -10.2460   20.2640 C   0  0  0  0  0  3  0  0  0  0  0  0
  -21.6660   -6.9660   21.5060 O   0  0  0  0  0  0  0  0  0  0  0  0
  -21.6290   -6.2250   22.6600 C   0  0  0  0  0  0  0  0  0  0  0  0
  -21.2290   -6.7850   23.8920 C   0  0  0  0  0  3  0  0  0  0  0  0
  -21.1390   -5.9700   25.0390 C   0  0  0  0  0  3  0  0  0  0  0  0
  -21.4420   -4.5980   24.9550 C   0  0  0  0  0  0  0  0  0  0  0  0
  -21.8350   -4.0380   23.7270 C   0  0  0  0  0  3  0  0  0  0  0  0
  -21.9260   -4.8490   22.5820 C   0  0  0  0  0  0  0  0  0  0  0  0
  -22.2860   -4.3000   21.3970 F   0  0  0  0  0  0  0  0  0  0  0  0
  -21.3480   -3.8140   26.0540 F   0  0  0  0  0  0  0  0  0  0  0  0
  -22.7480  -13.6020   21.0850 C   0  0  0  0  0  0  0  0  0  0  0  0
  -22.0130  -12.9170   21.9550 N   0  0  0  0  0  0  0  0  0  0  0  0
  -22.3130  -14.6180   20.5450 O   0  0  0  0  0  0  0  0  0  0  0  0
  -22.3760  -12.0950   22.4120 H   0  0  0  0  0  0  0  0  0  0  0  0
  -21.0730  -13.2220   22.1660 H   0  0  0  0  0  0  0  0  0  0  0  0
  -25.3850  -15.2580   20.2590 N   0  0  0  0  0  0  0  0  0  0  0  0
  -24.6170  -15.9140   20.3450 H   0  0  0  0  0  0  0  0  0  0  0  0
  -26.2330  -15.6870   19.9090 H   0  0  0  0  0  0  0  0  0  0  0  0
  1  2  1  0
  3  1  1  0
  4  5  1  0
  4  1  1  0
  6  8  1  0
  6  5  1  0
  7 18  2  0
  8 13  1  0
  9 17  1  0
  9 19  1  0
 10 16  1  0
 10 12  1  0
 11 17  1  0
 12 11  1  0
 13 12  2  0
 14 15  1  0
 14  8  2  0
 15 10  2  0
 16  9  1  0
 17  7  1  0
 19 21  2  0
 20 19  1  0
 22 20  1  0
 23 32  2  0
 23 28  1  0
 24 20  1  0
 24 28  1  0
 25 24  1  0
 26 27  1  0
 26 25  1  0
 27 23  1  0
 28 29  2  0
 29 30  1  0
 31 30  2  0
 32 31  1  0
 33  7  1  0
 33 38  1  0
 33 34  1  0
 34 37  1  1
 34 35  1  0
 36 34  1  0
 38 41  1  0
 39 43  1  0
 39 38  1  0
 40 39  2  0
 43 42  1  0
 45 43  1  0
 45 46  1  0
 45 44  1  0
 47 50  1  0
 47  1  1  0
 47 48  1  0
 48 49  2  0
 51 50  2  0
 52 51  1  0
 52 53  1  0
 54 62  1  0
 55 60  1  0
 56 57  1  0
 56 55  1  0
 58 57  1  0
 58 67  1  0
 58 59  1  0
 60 54  1  0
 60 59  1  0
 61 54  2  0
 62 53  1  0
 62 63  1  0
 64 65  2  0
 65 84  1  0
 66 65  1  0
 66 69  1  0
 67 64  1  0
 67 68  1  0
 68 66  2  0
 69 70  1  0
 70 71  2  0
 72 75  1  0
 72 71  1  0
 73 72  2  0
 74 73  1  0
 74 69  2  0
 75 76  1  0
 76 77  1  0
 77 78  2  0
 79 78  1  0
 79 83  1  0
 80 79  2  0
 81 76  2  0
 81 80  1  0
 82 81  1  0
 84 85  1  0
 85 88  1  0
 85 87  1  0
 86 84  2  0
 89 90  1  0
 89 64  1  0
 91 89  1  0
M  ISO  4   5 101   6 101  54 100  62 100
M  END
>  <TORSDO>  (38) 
F 24

>  <SCORE>  (38) 
-12.202

>  <name>  (38) 
38

>  <ligand_id>  (38) 
38

>  <original_smiles>  (38) 
[H]C(=O)C([H])(C([H])([H])C([H])([H])C([H])([H])C([H])([H])N([H])C(=O)N1C([H])([H])C([H])([H])C([H])([H])C([H])(n2nc(-c3c([H])c([H])c(Oc4c([H])c([H])c(F)c([H])c4F)c([H])c3[H])c(C(=O)N([H])[H])c2N([H])[H])C1([H])[H])[N+]([H])([H])C([H])([H])C([H])([H])Oc1c([H])c([H])c2c(c1[H])C([H])([H])N(C(=O)C([H])(N([H])C(=O)C([H])(N([H])C([H])([H])[H])C([H])([H])[H])C(C([H])([H])[H])(C([H])([H])[H])C([H])([H])[H])C([H])(C(=O)N([H])C1([H])c3c([H])c([H])c([H])c([H])c3C([H])([H])C([H])([H])C1([H])[H])C2([H])[H]

>  <smiles>  (38) 
[H]C(=O)C([H])(C([H])([H])C([H])([H])C([H])([H])C([H])([H])N([H])C(=O)N1C([H])([H])C([H])([H])C([H])([H])C([H])(n2nc(-c3c([H])c([H])c(Oc4c([H])c([H])c(F)c([H])c4F)c([H])c3[H])c(C(=O)N([H])[H])c2N([H])[H])C1([H])[H])[N+]([H])([H])C([H])([H])C([H])([H])Oc1c([H])c([H])c2c(c1[H])C([H])([H])N(C(=O)C([H])(N([H])C(=O)C([H])(N([H])C([H])([H])[H])C([H])([H])[H])C(C([H])([H])[H])(C([H])([H])[H])C([H])([H])[H])C([H])(C(=O)N([H])C1([H])c3c([H])c([H])c([H])c([H])c3C([H])([H])C([H])([H])C1([H])[H])C2([H])[H]

$$$$
39:0:0
     RDKit          3D

 93100  0  0  1  0  0  0  0  0999 V2000
  -27.8050  -22.1630   20.0070 C   0  0  0  0  0  0  0  0  0  0  0  0
  -27.3410  -20.9130   20.1310 N   0  0  0  0  0  0  0  0  0  0  0  0
  -28.6400  -22.4840   19.1610 O   0  0  0  0  0  0  0  0  0  0  0  0
  -26.6470  -20.7550   20.8510 H   0  0  0  0  0  0  0  0  0  0  0  0
  -27.1900  -23.1980   20.9590 C   0  0  0  0  0  2  0  0  0  0  0  0
  -29.1980  -24.1200   22.2850 C   0  0  0  0  0  1  0  0  0  0  0  0
  -28.0420  -24.4390   21.3220 C   0  0  0  0  0  3  0  0  0  0  0  0
  -28.5290  -25.2630   20.1040 C   0  0  0  0  0  2  0  0  0  0  0  0
  -28.5270  -26.6590   20.4200 O   0  0  0  0  0  0  0  0  0  0  0  0
  -24.6570  -31.8640   23.3330 C   0  0  0  0  0  0  0  0  0  0  0  0
  -27.3350  -27.3560   20.3820 C   0  0  0  0  0  0  0  0  0  0  0  0
  -23.4850  -30.4650   21.6660 C   0  0  0  0  0  3  0  0  0  0  0  0
  -24.9580  -28.8930   20.3140 C   0  0  0  0  0  0  0  0  0  0  0  0
  -26.0210  -30.7830   21.5520 C   0  0  0  0  0  2  0  0  0  0  0  0
  -26.1050  -29.4050   20.9290 C   0  0  0  0  0  0  0  0  0  0  0  0
  -27.2940  -28.6430   20.9610 C   0  0  0  0  0  3  0  0  0  0  0  0
  -26.1580  -26.8500   19.7790 C   0  0  0  0  0  3  0  0  0  0  0  0
  -24.9760  -27.6090   19.7440 C   0  0  0  0  0  3  0  0  0  0  0  0
  -23.7300  -29.7720   20.3010 C   0  0  0  0  0  2  0  0  0  0  0  0
  -24.7390  -31.0510   22.2430 N   0  0  0  0  0  0  0  0  0  0  0  0
  -23.5630  -32.1590   23.8320 O   0  0  0  0  0  0  0  0  0  0  0  0
  -22.7850  -29.4630   22.6100 C   0  0  0  0  0  0  0  0  0  0  0  0
  -21.4590  -29.3160   22.4500 N   0  0  0  0  0  0  0  0  0  0  0  0
  -23.4310  -28.8220   23.4440 O   0  0  0  0  0  0  0  0  0  0  0  0
  -21.0010  -29.8800   21.7480 H   0  0  0  0  0  0  0  0  0  0  0  0
  -18.0390  -28.2360   22.8780 C   0  0  0  0  0  0  0  0  0  0  0  0
  -20.5980  -28.4060   23.2030 C   0  0  0  0  0  3  0  0  0  0  0  0
  -20.6650  -26.9730   22.6270 C   0  0  0  0  0  2  0  0  0  0  0  0
  -19.5740  -26.6890   21.5910 C   0  0  0  0  0  2  0  0  0  0  0  0
  -18.1840  -26.8810   22.2050 C   0  0  0  0  0  2  0  0  0  0  0  0
  -19.1740  -28.9590   23.3320 C   0  0  0  0  0  0  0  0  0  0  0  0
  -18.9880  -30.2290   23.9200 C   0  0  0  0  0  3  0  0  0  0  0  0
  -17.6990  -30.7780   24.0570 C   0  0  0  0  0  3  0  0  0  0  0  0
  -16.5760  -30.0510   23.6210 C   0  0  0  0  0  3  0  0  0  0  0  0
  -16.7480  -28.7820   23.0380 C   0  0  0  0  0  3  0  0  0  0  0  0
  -25.9320  -32.4800   23.9880 C   0  0  0  0  0  3  0  0  0  0  0  0
  -26.3960  -31.7100   25.2860 C   0  0  1  0  0  0  0  0  0  0  0  0
  -25.2630  -31.4850   26.3140 C   0  0  0  0  0  1  0  0  0  0  0  0
  -26.9830  -30.3270   24.9170 C   0  0  0  0  0  1  0  0  0  0  0  0
  -27.5270  -32.4980   25.9860 C   0  0  0  0  0  1  0  0  0  0  0  0
  -25.6350  -33.8860   24.2980 N   0  0  0  0  0  0  0  0  0  0  0  0
  -26.0080  -34.9240   23.5380 C   0  0  0  0  0  0  0  0  0  0  0  0
  -26.7090  -34.7990   22.5290 O   0  0  0  0  0  0  0  0  0  0  0  0
  -25.0190  -34.0570   25.0780 H   0  0  0  0  0  0  0  0  0  0  0  0
  -24.3160  -36.7330   23.1100 C   0  0  0  0  0  1  0  0  0  0  0  0
  -25.5270  -36.3240   23.9630 C   0  0  0  0  0  3  0  0  0  0  0  0
  -27.6510  -37.1870   24.8420 C   0  0  0  0  0  1  0  0  0  0  0  0
  -26.5780  -37.3620   23.8670 N   0  0  0  0  0  0  0  0  0  0  0  0
  -26.1820  -38.2890   23.9970 H   0  0  0  0  0  0  0  0  0  0  0  0
  -27.6320  -19.7830   19.2490 C   0  0  0  0  0  2  0  0  0  0  0  0
  -28.8940  -18.9910   19.6460 C   0  0  0  0  0  2  0  0  0  0  0  0
  -29.0820  -18.7990   21.1650 C   0  0  0  0  0  2  0  0  0  0  0  0
  -29.8610  -17.5310   21.5630 C   0  0  0  0  0  2  0  0  0  0  0  0
  -31.3470  -17.5170   21.1520 C   0  0  0  0  0  2  0  0  0  0  0  0
  -31.7000  -16.5430   20.0120 C   0  0  0  0  0  2  0  0  0  0  0  0
  -31.7390  -14.0890   19.7100 C   0  0  0  0  0  0  0  0  0  0  0  0
  -31.2900  -11.7540   19.0710 C   0  0  0  0  0  2  0  0  0  0  0  0
  -30.3230  -11.7070   17.8700 C   0  0  0  0  0  2  0  0  0  0  0  0
  -28.8560  -11.7670   18.3320 C   0  0  0  0  0  2  0  0  0  0  0  0
  -28.5950  -12.9000   19.3600 C   0  0  0  0  0  3  0  0  0  0  0  0
  -29.6590  -12.8760   20.4800 C   0  0  0  0  0  2  0  0  0  0  0  0
  -30.9940  -12.9620   19.8550 N   0  0  0  0  0  0  0  0  0  0  0  0
  -32.7760  -14.1400   19.0430 O   0  0  0  0  0  0  0  0  0  0  0  0
  -31.2410  -15.1850   20.2930 N   0  0  0  0  0  0  0  0  0  0  0  0
  -30.4150  -15.0720   20.8590 H   0  0  0  0  0  0  0  0  0  0  0  0
  -26.3450  -13.8490   20.1880 C   0  0  0  0  0  0  0  0  0  0  0  0
  -25.1910  -13.2350   20.6020 C   0  0  0  0  0  0  0  0  0  0  0  0
  -25.4470  -11.8320   20.5420 C   0  0  0  0  0  0  0  0  0  0  0  0
  -27.2370  -12.8260   19.9020 N   0  0  0  0  0  0  0  0  0  0  0  0
  -26.7010  -11.6070   20.1680 N   0  0  0  0  0  0  0  0  0  0  0  0
  -24.5540  -10.6860   20.7660 C   0  0  0  0  0  0  0  0  0  0  0  0
  -24.8630   -9.6830   21.7110 C   0  0  0  0  0  3  0  0  0  0  0  0
  -23.9830   -8.5990   21.9200 C   0  0  0  0  0  3  0  0  0  0  0  0
  -22.7770   -8.5150   21.1840 C   0  0  0  0  0  0  0  0  0  0  0  0
  -22.4840   -9.5020   20.2280 C   0  0  0  0  0  3  0  0  0  0  0  0
  -23.3650  -10.5780   20.0180 C   0  0  0  0  0  3  0  0  0  0  0  0
  -21.8720   -7.4870   21.3030 O   0  0  0  0  0  0  0  0  0  0  0  0
  -21.7050   -6.8100   22.4850 C   0  0  0  0  0  0  0  0  0  0  0  0
  -21.3440   -7.4710   23.6790 C   0  0  0  0  0  3  0  0  0  0  0  0
  -21.1170   -6.7270   24.8540 C   0  0  0  0  0  3  0  0  0  0  0  0
  -21.2360   -5.3240   24.8360 C   0  0  0  0  0  0  0  0  0  0  0  0
  -21.5880   -4.6640   23.6450 C   0  0  0  0  0  3  0  0  0  0  0  0
  -21.8200   -5.4050   22.4730 C   0  0  0  0  0  0  0  0  0  0  0  0
  -22.1370   -4.7610   21.3250 F   0  0  0  0  0  0  0  0  0  0  0  0
  -21.0100   -4.6100   25.9620 F   0  0  0  0  0  0  0  0  0  0  0  0
  -23.8910  -13.9070   20.9430 C   0  0  0  0  0  0  0  0  0  0  0  0
  -23.1240  -13.3250   21.8610 N   0  0  0  0  0  0  0  0  0  0  0  0
  -23.5690  -14.9780   20.4320 O   0  0  0  0  0  0  0  0  0  0  0  0
  -23.3950  -12.4590   22.3000 H   0  0  0  0  0  0  0  0  0  0  0  0
  -22.2490  -13.7520   22.1280 H   0  0  0  0  0  0  0  0  0  0  0  0
  -26.7060  -15.1810   20.0170 N   0  0  0  0  0  0  0  0  0  0  0  0
  -26.0820  -15.9560   20.2090 H   0  0  0  0  0  0  0  0  0  0  0  0
  -27.6270  -15.4820   19.7240 H   0  0  0  0  0  0  0  0  0  0  0  0
  1  2  1  0
  1  5  1  0
  2  4  1  0
  3  1  2  0
  5  7  1  0
  7  6  1  0
  8  9  1  0
  8  7  1  0
 10 21  2  0
 11  9  1  0
 11 16  1  0
 12 20  1  0
 12 22  1  0
 13 15  1  0
 14 20  1  0
 15 16  2  0
 15 14  1  0
 17 11  2  0
 18 17  1  0
 18 13  2  0
 19 13  1  0
 19 12  1  0
 20 10  1  0
 22 24  2  0
 23 22  1  0
 25 23  1  0
 26 35  2  0
 26 31  1  0
 27 23  1  0
 27 31  1  0
 28 27  1  0
 29 30  1  0
 29 28  1  0
 30 26  1  0
 31 32  2  0
 32 33  1  0
 34 33  2  0
 35 34  1  0
 36 10  1  0
 36 41  1  0
 36 37  1  0
 37 40  1  1
 37 38  1  0
 39 37  1  0
 41 44  1  0
 42 46  1  0
 42 41  1  0
 43 42  2  0
 46 45  1  0
 48 46  1  0
 48 49  1  0
 48 47  1  0
 50 51  1  0
 50  2  1  0
 51 52  1  0
 52 53  1  0
 54 53  1  0
 55 64  1  0
 55 54  1  0
 56 62  1  0
 56 64  1  0
 57 62  1  0
 58 59  1  0
 58 57  1  0
 60 59  1  0
 60 69  1  0
 60 61  1  0
 62 61  1  0
 63 56  2  0
 64 65  1  0
 66 67  2  0
 67 86  1  0
 68 67  1  0
 68 71  1  0
 69 70  1  0
 69 66  1  0
 70 68  2  0
 71 72  1  0
 72 73  2  0
 74 77  1  0
 74 73  1  0
 75 74  2  0
 76 75  1  0
 76 71  2  0
 77 78  1  0
 78 79  1  0
 79 80  2  0
 81 80  1  0
 81 85  1  0
 82 81  2  0
 83 78  2  0
 83 82  1  0
 84 83  1  0
 86 87  1  0
 87 90  1  0
 87 89  1  0
 88 86  2  0
 91 66  1  0
 91 92  1  0
 93 91  1  0
M  ISO  4   8 101   9 101  56 100  64 100
M  END
>  <TORSDO>  (39) 
F 25

>  <SCORE>  (39) 
-11.237

>  <name>  (39) 
39

>  <ligand_id>  (39) 
39

>  <original_smiles>  (39) 
[H]c1c([H])c([H])c2c(c1[H])C([H])([H])C([H])([H])C([H])([H])C2([H])N([H])C(=O)C1([H])N(C(=O)C([H])(N([H])C(=O)C([H])(N([H])C([H])([H])[H])C([H])([H])[H])C(C([H])([H])[H])(C([H])([H])[H])C([H])([H])[H])C([H])([H])c2c([H])c(OC([H])([H])C([H])(C([H])([H])[H])C([H])([H])C(=O)N([H])C([H])([H])C([H])([H])C([H])([H])C([H])([H])C([H])([H])C([H])([H])N([H])C(=O)N3C([H])([H])C([H])([H])C([H])([H])C([H])(n4nc(-c5c([H])c([H])c(Oc6c([H])c([H])c(F)c([H])c6F)c([H])c5[H])c(C(=O)N([H])[H])c4N([H])[H])C3([H])[H])c([H])c([H])c2C1([H])[H]

>  <smiles>  (39) 
[H]c1c([H])c([H])c2c(c1[H])C([H])([H])C([H])([H])C([H])([H])C2([H])N([H])C(=O)C1([H])N(C(=O)C([H])(N([H])C(=O)C([H])(N([H])C([H])([H])[H])C([H])([H])[H])C(C([H])([H])[H])(C([H])([H])[H])C([H])([H])[H])C([H])([H])c2c([H])c(OC([H])([H])C([H])(C([H])([H])[H])C([H])([H])C(=O)N([H])C([H])([H])C([H])([H])C([H])([H])C([H])([H])C([H])([H])C([H])([H])N([H])C(=O)N3C([H])([H])C([H])([H])C([H])([H])C([H])(n4nc(-c5c([H])c([H])c(Oc6c([H])c([H])c(F)c([H])c6F)c([H])c5[H])c(C(=O)N([H])[H])c4N([H])[H])C3([H])[H])c([H])c([H])c2C1([H])[H]

$$$$
40:0:0
     RDKit          3D

 88 95  0  0  1  0  0  0  0  0999 V2000
  -28.1240  -21.8170   22.0930 C   0  0  0  0  0  1  0  0  0  0  0  0
  -28.5700  -21.8480   20.6140 C   0  0  0  0  0  3  0  0  0  0  0  0
  -29.5240  -20.6010   20.3470 N   0  0  0  0  0  4  0  0  0  0  0  0
  -29.8180  -20.6720   19.3860 H   0  0  0  0  0  0  0  0  0  0  0  0
  -30.3540  -20.7360   20.9010 H   0  0  0  0  0  0  0  0  0  0  0  0
  -29.0950  -19.0830   20.5360 C   0  0  0  0  0  3  0  0  0  0  0  0
  -30.1720  -17.7930   20.3550 C   0  0  0  0  0  3  0  0  0  0  0  0
  -30.5980  -15.0820   20.2830 C   0  0  0  0  0  0  0  0  0  0  0  0
  -30.4950  -12.7290   19.3460 C   0  0  0  0  0  2  0  0  0  0  0  0
  -29.5790  -12.7090   18.1000 C   0  0  0  0  0  2  0  0  0  0  0  0
  -28.1080  -12.5050   18.5050 C   0  0  0  0  0  2  0  0  0  0  0  0
  -27.6920  -13.3930   19.7090 C   0  0  0  0  0  3  0  0  0  0  0  0
  -28.7430  -13.3930   20.8400 C   0  0  0  0  0  2  0  0  0  0  0  0
  -30.0130  -13.8190   20.2420 N   0  0  0  0  0  0  0  0  0  0  0  0
  -31.7880  -15.1670   19.9560 O   0  0  0  0  0  0  0  0  0  0  0  0
  -29.8200  -16.2540   20.4950 N   0  0  0  0  0  0  0  0  0  0  0  0
  -28.8650  -16.0640   20.7610 H   0  0  0  0  0  0  0  0  0  0  0  0
  -25.3060  -13.9410   20.4520 C   0  0  0  0  0  0  0  0  0  0  0  0
  -24.2530  -13.1520   20.8240 C   0  0  0  0  0  0  0  0  0  0  0  0
  -24.7310  -11.8060   20.7820 C   0  0  0  0  0  0  0  0  0  0  0  0
  -26.3570  -13.0730   20.2010 N   0  0  0  0  0  0  0  0  0  0  0  0
  -26.0200  -11.7850   20.4630 N   0  0  0  0  0  0  0  0  0  0  0  0
  -24.0140  -10.5370   20.9660 C   0  0  0  0  0  0  0  0  0  0  0  0
  -24.4250   -9.5900   21.9310 C   0  0  0  0  0  3  0  0  0  0  0  0
  -23.7090   -8.3860   22.1050 C   0  0  0  0  0  3  0  0  0  0  0  0
  -22.5660   -8.1190   21.3150 C   0  0  0  0  0  0  0  0  0  0  0  0
  -22.1730   -9.0530   20.3400 C   0  0  0  0  0  3  0  0  0  0  0  0
  -22.8910  -10.2490   20.1630 C   0  0  0  0  0  3  0  0  0  0  0  0
  -21.8220   -6.9670   21.3970 O   0  0  0  0  0  0  0  0  0  0  0  0
  -21.7000   -6.2700   22.5730 C   0  0  0  0  0  0  0  0  0  0  0  0
  -21.1570   -6.8570   23.7360 C   0  0  0  0  0  3  0  0  0  0  0  0
  -20.9890   -6.0840   24.9010 C   0  0  0  0  0  3  0  0  0  0  0  0
  -21.3490   -4.7240   24.9020 C   0  0  0  0  0  0  0  0  0  0  0  0
  -21.8820   -4.1340   23.7420 C   0  0  0  0  0  3  0  0  0  0  0  0
  -22.0560   -4.9060   22.5790 C   0  0  0  0  0  0  0  0  0  0  0  0
  -22.5500   -4.3270   21.4580 F   0  0  0  0  0  0  0  0  0  0  0  0
  -21.1770   -3.9780   26.0180 F   0  0  0  0  0  0  0  0  0  0  0  0
  -22.8530  -13.6140   21.1010 C   0  0  0  0  0  0  0  0  0  0  0  0
  -22.1360  -12.9030   21.9630 N   0  0  0  0  0  0  0  0  0  0  0  0
  -22.4040  -14.6380   20.5870 O   0  0  0  0  0  0  0  0  0  0  0  0
  -22.5160  -12.0780   22.3980 H   0  0  0  0  0  0  0  0  0  0  0  0
  -21.1940  -13.1870   22.1910 H   0  0  0  0  0  0  0  0  0  0  0  0
  -25.4530  -15.3150   20.2850 N   0  0  0  0  0  0  0  0  0  0  0  0
  -24.6630  -15.9460   20.3780 H   0  0  0  0  0  0  0  0  0  0  0  0
  -26.2720  -15.7640   19.8950 H   0  0  0  0  0  0  0  0  0  0  0  0
  -29.0130  -23.4460   20.2640 C   0  0  0  0  0  3  0  0  0  0  0  0
  -27.9580  -24.7660   20.2520 C   0  0  0  0  0  3  0  0  0  0  0  0
  -28.2640  -26.2960   20.2140 O   0  0  0  0  0  0  0  0  0  0  0  0
  -24.6500  -31.9430   23.2680 C   0  0  0  0  0  0  0  0  0  0  0  0
  -27.2030  -27.2760   20.1710 C   0  0  0  0  0  0  0  0  0  0  0  0
  -23.4410  -30.5720   21.6190 C   0  0  0  0  0  3  0  0  0  0  0  0
  -24.8790  -29.0230   20.1650 C   0  0  0  0  0  0  0  0  0  0  0  0
  -25.9960  -30.8430   21.4440 C   0  0  0  0  0  2  0  0  0  0  0  0
  -26.0620  -29.4620   20.7700 C   0  0  0  0  0  0  0  0  0  0  0  0
  -27.2280  -28.6060   20.7500 C   0  0  0  0  0  3  0  0  0  0  0  0
  -25.9890  -26.9390   19.5260 C   0  0  0  0  0  3  0  0  0  0  0  0
  -24.8570  -27.7790   19.5220 C   0  0  0  0  0  3  0  0  0  0  0  0
  -23.6520  -29.9150   20.2280 C   0  0  0  0  0  2  0  0  0  0  0  0
  -24.7150  -31.1410   22.1650 N   0  0  0  0  0  0  0  0  0  0  0  0
  -23.5680  -32.2180   23.8090 O   0  0  0  0  0  0  0  0  0  0  0  0
  -22.7670  -29.5530   22.5730 C   0  0  0  0  0  0  0  0  0  0  0  0
  -21.4410  -29.3680   22.4450 N   0  0  0  0  0  0  0  0  0  0  0  0
  -23.4440  -28.9290   23.3960 O   0  0  0  0  0  0  0  0  0  0  0  0
  -20.9480  -29.9250   21.7610 H   0  0  0  0  0  0  0  0  0  0  0  0
  -18.0750  -28.1150   22.9370 C   0  0  0  0  0  0  0  0  0  0  0  0
  -20.6300  -28.4210   23.2160 C   0  0  0  0  0  3  0  0  0  0  0  0
  -20.7550  -26.9880   22.6490 C   0  0  0  0  0  2  0  0  0  0  0  0
  -19.6650  -26.6430   21.6300 C   0  0  0  0  0  2  0  0  0  0  0  0
  -18.2760  -26.7680   22.2640 C   0  0  0  0  0  2  0  0  0  0  0  0
  -19.1780  -28.8990   23.3710 C   0  0  0  0  0  0  0  0  0  0  0  0
  -18.9340  -30.1560   23.9620 C   0  0  0  0  0  3  0  0  0  0  0  0
  -17.6180  -30.6320   24.1250 C   0  0  0  0  0  3  0  0  0  0  0  0
  -16.5300  -29.8500   23.7000 C   0  0  0  0  0  3  0  0  0  0  0  0
  -16.7590  -28.5940   23.1130 C   0  0  0  0  0  3  0  0  0  0  0  0
  -25.9320  -32.5770   23.8920 C   0  0  0  0  0  3  0  0  0  0  0  0
  -25.6270  -33.9780   24.2240 N   0  0  0  0  0  0  0  0  0  0  0  0
  -25.9410  -35.0310   23.4570 C   0  0  0  0  0  0  0  0  0  0  0  0
  -26.5840  -34.9260   22.4100 O   0  0  0  0  0  0  0  0  0  0  0  0
  -25.0560  -34.1320   25.0410 H   0  0  0  0  0  0  0  0  0  0  0  0
  -24.2000  -36.8260   23.1570 C   0  0  0  0  0  1  0  0  0  0  0  0
  -25.4680  -36.4230   23.9260 C   0  0  0  0  0  3  0  0  0  0  0  0
  -27.6240  -37.3200   24.6870 C   0  0  0  0  0  1  0  0  0  0  0  0
  -26.4940  -37.4770   23.7750 N   0  0  0  0  0  0  0  0  0  0  0  0
  -26.0890  -38.3950   23.9270 H   0  0  0  0  0  0  0  0  0  0  0  0
  -26.4410  -31.8090   25.1760 C   0  0  1  0  0  0  0  0  0  0  0  0
  -25.3440  -31.5820   26.2420 C   0  0  0  0  0  1  0  0  0  0  0  0
  -27.0180  -30.4250   24.8030 C   0  0  0  0  0  1  0  0  0  0  0  0
  -27.5920  -32.6040   25.8350 C   0  0  0  0  0  1  0  0  0  0  0  0
  2  1  1  0
  3  6  1  0
  3  2  1  0
  3  5  1  0
  4  3  1  0
  7 16  1  0
  7  6  2  0
  8 16  1  0
  9 14  1  0
 10 11  1  0
 10  9  1  0
 12 11  1  0
 12 21  1  0
 12 13  1  0
 14  8  1  0
 14 13  1  0
 15  8  2  0
 16 17  1  0
 18 19  2  0
 19 38  1  0
 20 19  1  0
 20 23  1  0
 21 18  1  0
 21 22  1  0
 22 20  2  0
 23 24  1  0
 24 25  2  0
 26 29  1  0
 26 25  1  0
 27 26  2  0
 28 27  1  0
 28 23  2  0
 29 30  1  0
 30 35  2  0
 30 31  1  0
 31 32  2  0
 32 33  1  0
 33 37  1  0
 34 33  2  0
 35 34  1  0
 36 35  1  0
 38 39  1  0
 39 42  1  0
 39 41  1  0
 40 38  2  0
 43 44  1  0
 43 18  1  0
 45 43  1  0
 46  2  1  0
 47 46  2  0
 48 47  1  0
 49 60  2  0
 50 48  1  0
 50 55  1  0
 51 59  1  0
 51 61  1  0
 52 58  1  0
 52 54  1  0
 53 59  1  0
 54 53  1  0
 55 54  2  0
 56 50  2  0
 57 56  1  0
 57 52  2  0
 58 51  1  0
 59 49  1  0
 61 63  2  0
 62 61  1  0
 64 62  1  0
 65 74  2  0
 65 70  1  0
 66 62  1  0
 66 70  1  0
 67 66  1  0
 68 69  1  0
 68 67  1  0
 69 65  1  0
 70 71  2  0
 71 72  1  0
 73 72  2  0
 74 73  1  0
 75 49  1  0
 75 76  1  0
 75 85  1  0
 76 79  1  0
 77 81  1  0
 77 76  1  0
 78 77  2  0
 81 80  1  0
 83 81  1  0
 83 84  1  0
 83 82  1  0
 85 88  1  1
 85 86  1  0
 87 85  1  0
M  ISO  4   8 100  16 100  47 101  48 101
M  END
>  <TORSDO>  (40) 
F 21

>  <SCORE>  (40) 
-13.514

>  <name>  (40) 
40

>  <ligand_id>  (40) 
40

>  <original_smiles>  (40) 
[H]c1c([H])c([H])c2c(c1[H])C([H])([H])C([H])([H])C([H])([H])C2([H])N([H])C(=O)C1([H])N(C(=O)C([H])(N([H])C(=O)C([H])(N([H])C([H])([H])[H])C([H])([H])[H])C(C([H])([H])[H])(C([H])([H])[H])C([H])([H])[H])C([H])([H])c2c([H])c(OC([H])([H])C([H])([H])C([H])(C([H])([H])[H])[N+]([H])([H])C([H])([H])C([H])([H])N([H])C(=O)N3C([H])([H])C([H])([H])C([H])([H])C([H])(n4nc(-c5c([H])c([H])c(Oc6c([H])c([H])c(F)c([H])c6F)c([H])c5[H])c(C(=O)N([H])[H])c4N([H])[H])C3([H])[H])c([H])c([H])c2C1([H])[H]

>  <smiles>  (40) 
[H]c1c([H])c([H])c2c(c1[H])C([H])([H])C([H])([H])C([H])([H])C2([H])N([H])C(=O)C1([H])N(C(=O)C([H])(N([H])C(=O)C([H])(N([H])C([H])([H])[H])C([H])([H])[H])C(C([H])([H])[H])(C([H])([H])[H])C([H])([H])[H])C([H])([H])c2c([H])c(OC([H])([H])C([H])([H])C([H])(C([H])([H])[H])[N+]([H])([H])C([H])([H])C([H])([H])N([H])C(=O)N3C([H])([H])C([H])([H])C([H])([H])C([H])(n4nc(-c5c([H])c([H])c(Oc6c([H])c([H])c(F)c([H])c6F)c([H])c5[H])c(C(=O)N([H])[H])c4N([H])[H])C3([H])[H])c([H])c([H])c2C1([H])[H]

$$$$
41:0:0
     RDKit          3D

 91 98  0  0  1  0  0  0  0  0999 V2000
  -28.9110  -22.9380   20.8220 C   0  0  0  0  0  3  0  0  0  0  0  0
  -28.4610  -22.8020   22.2250 N   0  0  0  0  0  4  0  0  0  0  0  0
  -27.4600  -22.7300   22.2830 H   0  0  0  0  0  0  0  0  0  0  0  0
  -28.7610  -23.5830   22.7830 H   0  0  0  0  0  0  0  0  0  0  0  0
  -28.8550  -21.9750   22.6390 H   0  0  0  0  0  0  0  0  0  0  0  0
  -28.6990  -21.5840   20.0670 C   0  0  0  0  0  2  0  0  0  0  0  0
  -29.5660  -20.3700   20.5510 C   0  0  0  0  0  2  0  0  0  0  0  0
  -29.0800  -19.0130   19.9450 C   0  0  0  0  0  2  0  0  0  0  0  0
  -30.0740  -17.8120   19.8890 C   0  0  0  0  0  2  0  0  0  0  0  0
  -30.2480  -16.9580   21.1840 C   0  0  0  0  0  2  0  0  0  0  0  0
  -30.6310  -14.5140   20.5170 C   0  0  0  0  0  0  0  0  0  0  0  0
  -30.3660  -12.3550   19.3390 C   0  0  0  0  0  2  0  0  0  0  0  0
  -29.4160  -12.5420   18.1370 C   0  0  0  0  0  2  0  0  0  0  0  0
  -27.9430  -12.3970   18.5650 C   0  0  0  0  0  2  0  0  0  0  0  0
  -27.6050  -13.2360   19.8250 C   0  0  0  0  0  3  0  0  0  0  0  0
  -28.6540  -13.0020   20.9340 C   0  0  0  0  0  2  0  0  0  0  0  0
  -29.9770  -13.3280   20.3730 N   0  0  0  0  0  0  0  0  0  0  0  0
  -31.7680  -14.7080   20.0790 O   0  0  0  0  0  0  0  0  0  0  0  0
  -29.8940  -15.5260   21.0250 N   0  0  0  0  0  0  0  0  0  0  0  0
  -28.9650  -15.2670   21.3250 H   0  0  0  0  0  0  0  0  0  0  0  0
  -25.2060  -13.8650   20.5080 C   0  0  0  0  0  0  0  0  0  0  0  0
  -24.1300  -13.0980   20.8730 C   0  0  0  0  0  0  0  0  0  0  0  0
  -24.5860  -11.7450   20.8560 C   0  0  0  0  0  0  0  0  0  0  0  0
  -26.2470  -12.9730   20.2930 N   0  0  0  0  0  0  0  0  0  0  0  0
  -25.8770  -11.6960   20.5590 N   0  0  0  0  0  0  0  0  0  0  0  0
  -23.8530  -10.4860   21.0510 C   0  0  0  0  0  0  0  0  0  0  0  0
  -24.2930   -9.5170   21.9790 C   0  0  0  0  0  3  0  0  0  0  0  0
  -23.5660   -8.3200   22.1630 C   0  0  0  0  0  3  0  0  0  0  0  0
  -22.3840   -8.0890   21.4190 C   0  0  0  0  0  0  0  0  0  0  0  0
  -21.9640   -9.0460   20.4810 C   0  0  0  0  0  3  0  0  0  0  0  0
  -22.6910  -10.2350   20.2940 C   0  0  0  0  0  3  0  0  0  0  0  0
  -21.6270   -6.9470   21.5130 O   0  0  0  0  0  0  0  0  0  0  0  0
  -21.6030   -6.1890   22.6560 C   0  0  0  0  0  0  0  0  0  0  0  0
  -21.2350   -6.7360   23.9050 C   0  0  0  0  0  3  0  0  0  0  0  0
  -21.1600   -5.9070   25.0420 C   0  0  0  0  0  3  0  0  0  0  0  0
  -21.4390   -4.5310   24.9310 C   0  0  0  0  0  0  0  0  0  0  0  0
  -21.8000   -3.9840   23.6870 C   0  0  0  0  0  3  0  0  0  0  0  0
  -21.8790   -4.8110   22.5520 C   0  0  0  0  0  0  0  0  0  0  0  0
  -22.2070   -4.2740   21.3520 F   0  0  0  0  0  0  0  0  0  0  0  0
  -21.3580   -3.7330   26.0220 F   0  0  0  0  0  0  0  0  0  0  0  0
  -22.7310  -13.5810   21.1270 C   0  0  0  0  0  0  0  0  0  0  0  0
  -21.9980  -12.8890   21.9930 N   0  0  0  0  0  0  0  0  0  0  0  0
  -22.2990  -14.6020   20.5980 O   0  0  0  0  0  0  0  0  0  0  0  0
  -22.3600  -12.0590   22.4360 H   0  0  0  0  0  0  0  0  0  0  0  0
  -21.0560  -13.1850   22.2070 H   0  0  0  0  0  0  0  0  0  0  0  0
  -25.3880  -15.2300   20.3270 N   0  0  0  0  0  0  0  0  0  0  0  0
  -24.6480  -15.9120   20.4600 H   0  0  0  0  0  0  0  0  0  0  0  0
  -26.2580  -15.6480   20.0210 H   0  0  0  0  0  0  0  0  0  0  0  0
  -28.2320  -24.1760   20.1350 C   0  0  0  0  0  2  0  0  0  0  0  0
  -28.5420  -25.5370   20.8360 C   0  0  0  0  0  2  0  0  0  0  0  0
  -28.3960  -26.7240   20.0420 O   0  0  0  0  0  0  0  0  0  0  0  0
  -24.6050  -31.8810   23.2390 C   0  0  0  0  0  0  0  0  0  0  0  0
  -27.2160  -27.4270   20.1430 C   0  0  0  0  0  0  0  0  0  0  0  0
  -23.3810  -30.4780   21.6130 C   0  0  0  0  0  3  0  0  0  0  0  0
  -24.8220  -28.9310   20.1830 C   0  0  0  0  0  0  0  0  0  0  0  0
  -25.9000  -30.8390   21.3800 C   0  0  0  0  0  2  0  0  0  0  0  0
  -25.9850  -29.4580   20.7590 C   0  0  0  0  0  0  0  0  0  0  0  0
  -27.1870  -28.7100   20.7380 C   0  0  0  0  0  3  0  0  0  0  0  0
  -26.0350  -26.9090   19.5730 C   0  0  0  0  0  3  0  0  0  0  0  0
  -24.8400  -27.6550   19.5960 C   0  0  0  0  0  3  0  0  0  0  0  0
  -23.5770  -29.7900   20.2360 C   0  0  0  0  0  2  0  0  0  0  0  0
  -24.6500  -31.0790   22.1370 N   0  0  0  0  0  0  0  0  0  0  0  0
  -23.5290  -32.1550   23.7890 O   0  0  0  0  0  0  0  0  0  0  0  0
  -22.7380  -29.4620   22.5810 C   0  0  0  0  0  0  0  0  0  0  0  0
  -21.4140  -29.2780   22.4610 N   0  0  0  0  0  0  0  0  0  0  0  0
  -23.4260  -28.8380   23.3920 O   0  0  0  0  0  0  0  0  0  0  0  0
  -20.9230  -29.8310   21.7710 H   0  0  0  0  0  0  0  0  0  0  0  0
  -18.0420  -28.0770   22.9710 C   0  0  0  0  0  0  0  0  0  0  0  0
  -20.6010  -28.3440   23.2370 C   0  0  0  0  0  3  0  0  0  0  0  0
  -20.7080  -26.9140   22.6600 C   0  0  0  0  0  2  0  0  0  0  0  0
  -19.6050  -26.5870   21.6490 C   0  0  0  0  0  2  0  0  0  0  0  0
  -18.2220  -26.7280   22.2930 C   0  0  0  0  0  2  0  0  0  0  0  0
  -19.1600  -28.8430   23.3960 C   0  0  0  0  0  0  0  0  0  0  0  0
  -18.9410  -30.1070   23.9840 C   0  0  0  0  0  3  0  0  0  0  0  0
  -17.6380  -30.6100   24.1470 C   0  0  0  0  0  3  0  0  0  0  0  0
  -16.5330  -29.8420   23.7390 C   0  0  0  0  0  3  0  0  0  0  0  0
  -16.7370  -28.5760   23.1610 C   0  0  0  0  0  3  0  0  0  0  0  0
  -25.8980  -32.5090   23.8480 C   0  0  0  0  0  3  0  0  0  0  0  0
  -26.4380  -31.7230   25.1070 C   0  0  1  0  0  0  0  0  0  0  0  0
  -25.3580  -31.4620   26.1830 C   0  0  0  0  0  1  0  0  0  0  0  0
  -27.0260  -30.3540   24.6860 C   0  0  0  0  0  1  0  0  0  0  0  0
  -27.5980  -32.5140   25.7590 C   0  0  0  0  0  1  0  0  0  0  0  0
  -25.5870  -33.9020   24.1940 N   0  0  0  0  0  0  0  0  0  0  0  0
  -25.9090  -34.9630   23.4420 C   0  0  0  0  0  0  0  0  0  0  0  0
  -26.5700  -34.8720   22.4040 O   0  0  0  0  0  0  0  0  0  0  0  0
  -24.9860  -34.0450   24.9920 H   0  0  0  0  0  0  0  0  0  0  0  0
  -24.1670  -36.7560   23.1250 C   0  0  0  0  0  1  0  0  0  0  0  0
  -25.4200  -36.3450   23.9150 C   0  0  0  0  0  3  0  0  0  0  0  0
  -27.5630  -37.2310   24.7190 C   0  0  0  0  0  1  0  0  0  0  0  0
  -26.4470  -37.4010   23.7930 N   0  0  0  0  0  0  0  0  0  0  0  0
  -26.0400  -38.3170   23.9560 H   0  0  0  0  0  0  0  0  0  0  0  0
  1  6  1  0
  1  2  1  0
  2  3  1  0
  2  5  1  0
  2  4  1  0
  6  7  1  0
  8  7  1  0
  9  8  1  0
  9 10  1  0
 11 19  1  0
 12 17  1  0
 13 14  1  0
 13 12  1  0
 15 14  1  0
 15 24  1  0
 15 16  1  0
 17 11  1  0
 17 16  1  0
 18 11  2  0
 19 10  1  0
 19 20  1  0
 21 22  2  0
 22 41  1  0
 23 22  1  0
 23 26  1  0
 24 21  1  0
 24 25  1  0
 25 23  2  0
 26 27  1  0
 27 28  2  0
 29 32  1  0
 29 28  1  0
 30 29  2  0
 31 30  1  0
 31 26  2  0
 32 33  1  0
 33 34  1  0
 34 35  2  0
 36 35  1  0
 36 40  1  0
 37 36  2  0
 38 33  2  0
 38 37  1  0
 39 38  1  0
 41 42  1  0
 42 45  1  0
 42 44  1  0
 43 41  2  0
 46 47  1  0
 46 21  1  0
 48 46  1  0
 49  1  1  0
 49 50  1  0
 51 53  1  0
 51 50  1  0
 52 63  2  0
 53 58  1  0
 54 62  1  0
 54 64  1  0
 55 61  1  0
 55 57  1  0
 56 62  1  0
 57 56  1  0
 58 57  2  0
 59 60  1  0
 59 53  2  0
 60 55  2  0
 61 54  1  0
 62 52  1  0
 64 66  2  0
 65 64  1  0
 67 65  1  0
 68 77  2  0
 68 73  1  0
 69 65  1  0
 69 73  1  0
 70 69  1  0
 71 72  1  0
 71 70  1  0
 72 68  1  0
 73 74  2  0
 74 75  1  0
 76 75  2  0
 77 76  1  0
 78 52  1  0
 78 83  1  0
 78 79  1  0
 79 82  1  1
 79 80  1  0
 81 79  1  0
 83 86  1  0
 84 88  1  0
 84 83  1  0
 85 84  2  0
 88 87  1  0
 90 88  1  0
 90 91  1  0
 90 89  1  0
M  ISO  4  11 100  19 100  50 101  51 101
M  END
>  <TORSDO>  (41) 
F 24

>  <SCORE>  (41) 
-12.688

>  <name>  (41) 
41

>  <ligand_id>  (41) 
41

>  <original_smiles>  (41) 
[H]c1c([H])c([H])c2c(c1[H])C([H])([H])C([H])([H])C([H])([H])C2([H])N([H])C(=O)C1([H])N(C(=O)C([H])(N([H])C(=O)C([H])(N([H])C([H])([H])[H])C([H])([H])[H])C(C([H])([H])[H])(C([H])([H])[H])C([H])([H])[H])C([H])([H])c2c([H])c(OC([H])([H])C([H])([H])C([H])(C([H])([H])C([H])([H])C([H])([H])C([H])([H])C([H])([H])N([H])C(=O)N3C([H])([H])C([H])([H])C([H])([H])C([H])(n4nc(-c5c([H])c([H])c(Oc6c([H])c([H])c(F)c([H])c6F)c([H])c5[H])c(C(=O)N([H])[H])c4N([H])[H])C3([H])[H])[N+]([H])([H])[H])c([H])c([H])c2C1([H])[H]

>  <smiles>  (41) 
[H]c1c([H])c([H])c2c(c1[H])C([H])([H])C([H])([H])C([H])([H])C2([H])N([H])C(=O)C1([H])N(C(=O)C([H])(N([H])C(=O)C([H])(N([H])C([H])([H])[H])C([H])([H])[H])C(C([H])([H])[H])(C([H])([H])[H])C([H])([H])[H])C([H])([H])c2c([H])c(OC([H])([H])C([H])([H])C([H])(C([H])([H])C([H])([H])C([H])([H])C([H])([H])C([H])([H])N([H])C(=O)N3C([H])([H])C([H])([H])C([H])([H])C([H])(n4nc(-c5c([H])c([H])c(Oc6c([H])c([H])c(F)c([H])c6F)c([H])c5[H])c(C(=O)N([H])[H])c4N([H])[H])C3([H])[H])[N+]([H])([H])[H])c([H])c([H])c2C1([H])[H]

$$$$
42:0:0
     RDKit          3D

 94101  0  0  1  0  0  0  0  0999 V2000
  -29.3850  -22.5840   18.2220 C   0  0  0  0  0  2  0  0  0  0  0  0
  -29.9240  -21.1500   18.0210 C   0  0  0  0  0  2  0  0  0  0  0  0
  -28.8270  -20.0610   18.1590 C   0  0  0  0  0  2  0  0  0  0  0  0
  -29.5730  -18.5900   16.3030 C   0  0  0  0  0  1  0  0  0  0  0  0
  -29.2690  -18.6930   17.7510 N   0  0  2  0  0  4  0  0  0  0  0  0
  -30.1350  -18.4970   18.2270 H   0  0  0  0  0  0  0  0  0  0  0  0
  -28.3360  -17.6090   18.1730 C   0  0  0  0  0  2  0  0  0  0  0  0
  -28.2840  -17.3510   19.6990 C   0  0  0  0  0  2  0  0  0  0  0  0
  -29.6230  -17.0190   20.4230 C   0  0  0  0  0  2  0  0  0  0  0  0
  -30.5370  -14.6920   20.7390 C   0  0  0  0  0  0  0  0  0  0  0  0
  -30.4460  -12.5080   19.6250 C   0  0  0  0  0  2  0  0  0  0  0  0
  -29.5220  -12.6350   18.3930 C   0  0  0  0  0  2  0  0  0  0  0  0
  -28.0270  -12.4830   18.7670 C   0  0  0  0  0  2  0  0  0  0  0  0
  -27.6210  -13.3030   20.0190 C   0  0  0  0  0  3  0  0  0  0  0  0
  -28.6510  -13.0670   21.1500 C   0  0  0  0  0  2  0  0  0  0  0  0
  -29.9750  -13.4600   20.6410 N   0  0  0  0  0  0  0  0  0  0  0  0
  -31.6780  -14.9550   20.3640 O   0  0  0  0  0  0  0  0  0  0  0  0
  -29.6350  -15.6650   20.9990 N   0  0  0  0  0  0  0  0  0  0  0  0
  -28.7810  -15.3410   21.4270 H   0  0  0  0  0  0  0  0  0  0  0  0
  -25.1690  -13.8660   20.6100 C   0  0  0  0  0  0  0  0  0  0  0  0
  -24.1020  -13.0690   20.9340 C   0  0  0  0  0  0  0  0  0  0  0  0
  -24.6010  -11.7320   20.9370 C   0  0  0  0  0  0  0  0  0  0  0  0
  -26.2510  -13.0090   20.4420 N   0  0  0  0  0  0  0  0  0  0  0  0
  -25.9060  -11.7220   20.6960 N   0  0  0  0  0  0  0  0  0  0  0  0
  -23.9030  -10.4540   21.1070 C   0  0  0  0  0  0  0  0  0  0  0  0
  -24.3290   -9.5070   22.0670 C   0  0  0  0  0  3  0  0  0  0  0  0
  -23.6390   -8.2860   22.2260 C   0  0  0  0  0  3  0  0  0  0  0  0
  -22.5090   -8.0010   21.4240 C   0  0  0  0  0  0  0  0  0  0  0  0
  -22.0970   -8.9370   20.4580 C   0  0  0  0  0  3  0  0  0  0  0  0
  -22.7880  -10.1520   20.2970 C   0  0  0  0  0  3  0  0  0  0  0  0
  -21.7920   -6.8300   21.4890 O   0  0  0  0  0  0  0  0  0  0  0  0
  -21.7230   -6.0900   22.6410 C   0  0  0  0  0  0  0  0  0  0  0  0
  -21.2200   -6.6340   23.8420 C   0  0  0  0  0  3  0  0  0  0  0  0
  -21.1010   -5.8220   24.9870 C   0  0  0  0  0  3  0  0  0  0  0  0
  -21.4760   -4.4650   24.9320 C   0  0  0  0  0  0  0  0  0  0  0  0
  -21.9760   -3.9200   23.7360 C   0  0  0  0  0  3  0  0  0  0  0  0
  -22.0940   -4.7300   22.5910 C   0  0  0  0  0  0  0  0  0  0  0  0
  -22.5540   -4.1950   21.4360 F   0  0  0  0  0  0  0  0  0  0  0  0
  -21.3560   -3.6830   26.0290 F   0  0  0  0  0  0  0  0  0  0  0  0
  -22.6830  -13.5110   21.1510 C   0  0  0  0  0  0  0  0  0  0  0  0
  -21.9450  -12.7910   21.9890 N   0  0  0  0  0  0  0  0  0  0  0  0
  -22.2320  -14.5180   20.6080 O   0  0  0  0  0  0  0  0  0  0  0  0
  -22.3170  -11.9650   22.4320 H   0  0  0  0  0  0  0  0  0  0  0  0
  -20.9940  -13.0610   22.1930 H   0  0  0  0  0  0  0  0  0  0  0  0
  -25.3230  -15.2360   20.4280 N   0  0  0  0  0  0  0  0  0  0  0  0
  -24.5800  -15.9170   20.5260 H   0  0  0  0  0  0  0  0  0  0  0  0
  -26.2150  -15.6440   20.1760 H   0  0  0  0  0  0  0  0  0  0  0  0
  -30.4560  -23.6950   18.3520 C   0  0  0  0  0  2  0  0  0  0  0  0
  -29.7850  -25.0020   18.5450 N   0  0  0  0  0  4  0  0  0  0  0  0
  -29.0020  -24.8650   19.1710 H   0  0  0  0  0  0  0  0  0  0  0  0
  -29.4070  -25.3040   17.6580 H   0  0  0  0  0  0  0  0  0  0  0  0
  -30.5590  -26.1160   19.1520 C   0  0  0  0  0  2  0  0  0  0  0  0
  -29.5950  -27.2850   19.4480 C   0  0  0  0  0  2  0  0  0  0  0  0
  -28.5070  -26.7470   20.2040 O   0  0  0  0  0  0  0  0  0  0  0  0
  -24.6070  -31.8780   23.2560 C   0  0  0  0  0  0  0  0  0  0  0  0
  -27.3540  -27.4890   20.2100 C   0  0  0  0  0  0  0  0  0  0  0  0
  -23.4340  -30.4500   21.6100 C   0  0  0  0  0  3  0  0  0  0  0  0
  -24.9230  -28.9230   20.2140 C   0  0  0  0  0  0  0  0  0  0  0  0
  -25.9530  -30.8500   21.4310 C   0  0  0  0  0  2  0  0  0  0  0  0
  -26.0680  -29.4800   20.8010 C   0  0  0  0  0  0  0  0  0  0  0  0
  -27.2880  -28.7690   20.8020 C   0  0  0  0  0  3  0  0  0  0  0  0
  -26.1900  -26.9230   19.6520 C   0  0  0  0  0  3  0  0  0  0  0  0
  -24.9790  -27.6420   19.6360 C   0  0  0  0  0  3  0  0  0  0  0  0
  -23.6620  -29.7590   20.2390 C   0  0  0  0  0  2  0  0  0  0  0  0
  -24.6830  -31.0730   22.1580 N   0  0  0  0  0  0  0  0  0  0  0  0
  -23.5200  -32.1410   23.7870 O   0  0  0  0  0  0  0  0  0  0  0  0
  -22.7850  -29.4290   22.5730 C   0  0  0  0  0  0  0  0  0  0  0  0
  -21.4640  -29.2270   22.4250 N   0  0  0  0  0  0  0  0  0  0  0  0
  -23.4620  -28.8190   23.4020 O   0  0  0  0  0  0  0  0  0  0  0  0
  -20.9770  -29.7720   21.7280 H   0  0  0  0  0  0  0  0  0  0  0  0
  -18.1020  -27.9910   22.8780 C   0  0  0  0  0  0  0  0  0  0  0  0
  -20.6500  -28.2860   23.1920 C   0  0  0  0  0  3  0  0  0  0  0  0
  -20.7820  -26.8510   22.6320 C   0  0  0  0  0  2  0  0  0  0  0  0
  -19.7030  -26.5020   21.6030 C   0  0  0  0  0  2  0  0  0  0  0  0
  -18.3080  -26.6350   22.2210 C   0  0  0  0  0  2  0  0  0  0  0  0
  -19.2010  -28.7730   23.3170 C   0  0  0  0  0  0  0  0  0  0  0  0
  -18.9560  -30.0400   23.8910 C   0  0  0  0  0  3  0  0  0  0  0  0
  -17.6420  -30.5230   24.0300 C   0  0  0  0  0  3  0  0  0  0  0  0
  -16.5540  -29.7390   23.6040 C   0  0  0  0  0  3  0  0  0  0  0  0
  -16.7860  -28.4740   23.0340 C   0  0  0  0  0  3  0  0  0  0  0  0
  -25.8820  -32.5230   23.8850 C   0  0  0  0  0  3  0  0  0  0  0  0
  -26.3880  -31.7770   25.1800 C   0  0  1  0  0  0  0  0  0  0  0  0
  -25.2830  -31.5550   26.2400 C   0  0  0  0  0  1  0  0  0  0  0  0
  -26.9850  -30.3990   24.8170 C   0  0  0  0  0  1  0  0  0  0  0  0
  -27.5300  -32.5870   25.8390 C   0  0  0  0  0  1  0  0  0  0  0  0
  -25.5660  -33.9260   24.1850 N   0  0  0  0  0  0  0  0  0  0  0  0
  -25.9100  -34.9660   23.4130 C   0  0  0  0  0  0  0  0  0  0  0  0
  -26.6010  -34.8450   22.3970 O   0  0  0  0  0  0  0  0  0  0  0  0
  -24.9620  -34.0940   24.9770 H   0  0  0  0  0  0  0  0  0  0  0  0
  -24.1920  -36.7480   22.9800 C   0  0  0  0  0  1  0  0  0  0  0  0
  -25.4100  -36.3600   23.8340 C   0  0  0  0  0  3  0  0  0  0  0  0
  -27.5200  -37.2600   24.7090 C   0  0  0  0  0  1  0  0  0  0  0  0
  -26.4450  -37.4120   23.7340 N   0  0  0  0  0  0  0  0  0  0  0  0
  -26.0340  -38.3340   23.8560 H   0  0  0  0  0  0  0  0  0  0  0  0
  1 48  1  0
  2  3  1  0
  2  1  1  0
  4  5  1  0
  5  3  1  0
  5  7  1  0
  5  6  1  1
  7  8  1  0
  8  9  1  0
  9 18  1  0
 10 18  1  0
 11 16  1  0
 12 13  1  0
 12 11  1  0
 14 13  1  0
 14 23  1  0
 14 15  1  0
 16 10  1  0
 16 15  1  0
 17 10  2  0
 18 19  1  0
 20 21  2  0
 21 22  1  0
 21 40  1  0
 22 25  1  0
 23 20  1  0
 23 24  1  0
 24 22  2  0
 25 26  1  0
 26 27  2  0
 28 31  1  0
 28 27  1  0
 29 28  2  0
 30 29  1  0
 30 25  2  0
 31 32  1  0
 32 33  1  0
 33 34  2  0
 35 34  1  0
 35 39  1  0
 36 35  2  0
 37 32  2  0
 37 36  1  0
 38 37  1  0
 40 41  1  0
 41 44  1  0
 41 43  1  0
 42 40  2  0
 45 46  1  0
 45 20  1  0
 47 45  1  0
 48 49  1  0
 49 52  1  0
 49 50  1  0
 51 49  1  0
 52 53  1  0
 53 54  1  0
 54 56  1  0
 55 66  2  0
 56 61  1  0
 57 65  1  0
 57 67  1  0
 58 64  1  0
 58 60  1  0
 59 65  1  0
 60 61  2  0
 60 59  1  0
 62 56  2  0
 63 62  1  0
 63 58  2  0
 64 57  1  0
 65 55  1  0
 67 69  2  0
 68 67  1  0
 70 68  1  0
 71 80  2  0
 71 76  1  0
 72 68  1  0
 72 76  1  0
 73 72  1  0
 74 75  1  0
 74 73  1  0
 75 71  1  0
 76 77  2  0
 77 78  1  0
 79 78  2  0
 80 79  1  0
 81 55  1  0
 81 86  1  0
 81 82  1  0
 82 85  1  1
 82 83  1  0
 84 82  1  0
 86 89  1  0
 87 91  1  0
 87 86  1  0
 88 87  2  0
 91 90  1  0
 93 91  1  0
 93 94  1  0
 93 92  1  0
M  ISO  4  10 100  18 100  53 101  54 101
M  END
>  <TORSDO>  (42) 
F 26

>  <SCORE>  (42) 
-11.752

>  <name>  (42) 
42

>  <ligand_id>  (42) 
42

>  <original_smiles>  (42) 
[H]c1c([H])c([H])c2c(c1[H])C([H])([H])C([H])([H])C([H])([H])C2([H])N([H])C(=O)C1([H])N(C(=O)C([H])(N([H])C(=O)C([H])(N([H])C([H])([H])[H])C([H])([H])[H])C(C([H])([H])[H])(C([H])([H])[H])C([H])([H])[H])C([H])([H])c2c([H])c(OC([H])([H])C([H])([H])[N+]([H])([H])C([H])([H])C([H])([H])C([H])([H])C([H])([H])[N+]([H])(C([H])([H])[H])C([H])([H])C([H])([H])C([H])([H])N([H])C(=O)N3C([H])([H])C([H])([H])C([H])([H])C([H])(n4nc(-c5c([H])c([H])c(Oc6c([H])c([H])c(F)c([H])c6F)c([H])c5[H])c(C(=O)N([H])[H])c4N([H])[H])C3([H])[H])c([H])c([H])c2C1([H])[H]

>  <smiles>  (42) 
[H]c1c([H])c([H])c2c(c1[H])C([H])([H])C([H])([H])C([H])([H])C2([H])N([H])C(=O)C1([H])N(C(=O)C([H])(N([H])C(=O)C([H])(N([H])C([H])([H])[H])C([H])([H])[H])C(C([H])([H])[H])(C([H])([H])[H])C([H])([H])[H])C([H])([H])c2c([H])c(OC([H])([H])C([H])([H])[N+]([H])([H])C([H])([H])C([H])([H])C([H])([H])C([H])([H])[N+]([H])(C([H])([H])[H])C([H])([H])C([H])([H])C([H])([H])N([H])C(=O)N3C([H])([H])C([H])([H])C([H])([H])C([H])(n4nc(-c5c([H])c([H])c(Oc6c([H])c([H])c(F)c([H])c6F)c([H])c5[H])c(C(=O)N([H])[H])c4N([H])[H])C3([H])[H])c([H])c([H])c2C1([H])[H]

$$$$
43:0:0
     RDKit          3D

 97104  0  0  1  0  0  0  0  0999 V2000
  -28.7100  -24.4620   25.0510 C   0  0  0  0  0  2  0  0  0  0  0  0
  -28.5440  -25.5650   23.9870 C   0  0  0  0  0  0  0  0  0  0  0  0
  -28.5210  -25.1980   22.6900 N   0  0  0  0  0  0  0  0  0  0  0  0
  -28.3560  -26.7300   24.3410 O   0  0  0  0  0  0  0  0  0  0  0  0
  -28.7750  -24.2450   22.4810 H   0  0  0  0  0  0  0  0  0  0  0  0
  -28.1060  -26.0460   21.5600 C   0  0  0  0  0  2  0  0  0  0  0  0
  -27.2970  -25.2650   20.4940 C   0  0  0  0  0  2  0  0  0  0  0  0
  -27.2730  -25.9260   19.0860 C   0  0  0  0  0  2  0  0  0  0  0  0
  -27.3720  -27.3590   19.0860 O   0  0  0  0  0  0  0  0  0  0  0  0
  -24.6500  -31.8880   23.8090 C   0  0  0  0  0  0  0  0  0  0  0  0
  -26.2790  -28.1400   19.4020 C   0  0  0  0  0  0  0  0  0  0  0  0
  -23.0750  -31.0630   22.1000 C   0  0  0  0  0  3  0  0  0  0  0  0
  -24.1160  -29.8110   20.1390 C   0  0  0  0  0  0  0  0  0  0  0  0
  -25.5740  -31.2360   21.5840 C   0  0  0  0  0  2  0  0  0  0  0  0
  -25.3980  -30.0620   20.6410 C   0  0  0  0  0  0  0  0  0  0  0  0
  -26.4810  -29.2400   20.2640 C   0  0  0  0  0  3  0  0  0  0  0  0
  -24.9750  -27.8970   18.9030 C   0  0  0  0  0  3  0  0  0  0  0  0
  -23.8980  -28.7270   19.2700 C   0  0  0  0  0  3  0  0  0  0  0  0
  -23.0150  -30.7470   20.5820 C   0  0  0  0  0  2  0  0  0  0  0  0
  -24.4630  -31.3920   22.5530 N   0  0  0  0  0  0  0  0  0  0  0  0
  -23.6880  -32.1090   24.5580 O   0  0  0  0  0  0  0  0  0  0  0  0
  -22.4340  -29.8890   22.8750 C   0  0  0  0  0  0  0  0  0  0  0  0
  -21.1140  -29.7150   22.7030 N   0  0  0  0  0  0  0  0  0  0  0  0
  -23.1160  -29.1530   23.5930 O   0  0  0  0  0  0  0  0  0  0  0  0
  -20.6280  -30.3690   22.1090 H   0  0  0  0  0  0  0  0  0  0  0  0
  -17.8100  -28.2500   22.7720 C   0  0  0  0  0  0  0  0  0  0  0  0
  -20.3020  -28.6610   23.3130 C   0  0  0  0  0  3  0  0  0  0  0  0
  -20.5710  -27.3000   22.6380 C   0  0  0  0  0  2  0  0  0  0  0  0
  -19.6010  -26.9970   21.4920 C   0  0  0  0  0  2  0  0  0  0  0  0
  -18.1530  -26.9890   21.9930 C   0  0  0  0  0  2  0  0  0  0  0  0
  -18.8210  -29.0450   23.3750 C   0  0  0  0  0  0  0  0  0  0  0  0
  -18.4510  -30.2250   24.0560 C   0  0  0  0  0  3  0  0  0  0  0  0
  -17.1030  -30.6180   24.1380 C   0  0  0  0  0  3  0  0  0  0  0  0
  -16.1050  -29.8240   23.5510 C   0  0  0  0  0  3  0  0  0  0  0  0
  -16.4570  -28.6390   22.8780 C   0  0  0  0  0  3  0  0  0  0  0  0
  -26.0710  -32.2310   24.3520 C   0  0  0  0  0  3  0  0  0  0  0  0
  -26.0220  -33.5990   24.8860 N   0  0  0  0  0  0  0  0  0  0  0  0
  -26.5560  -34.6700   24.2830 C   0  0  0  0  0  0  0  0  0  0  0  0
  -27.2140  -34.5960   23.2410 O   0  0  0  0  0  0  0  0  0  0  0  0
  -25.4680  -33.7430   25.7170 H   0  0  0  0  0  0  0  0  0  0  0  0
  -25.2650  -36.8280   24.1610 C   0  0  0  0  0  1  0  0  0  0  0  0
  -26.3280  -36.0440   24.9470 C   0  0  0  0  0  3  0  0  0  0  0  0
  -28.5290  -36.3070   26.0020 C   0  0  0  0  0  1  0  0  0  0  0  0
  -27.5590  -36.8560   25.0590 N   0  0  0  0  0  0  0  0  0  0  0  0
  -27.3350  -37.8000   25.3570 H   0  0  0  0  0  0  0  0  0  0  0  0
  -26.5830  -31.2210   25.4510 C   0  0  1  0  0  0  0  0  0  0  0  0
  -25.5720  -30.9810   26.5940 C   0  0  0  0  0  1  0  0  0  0  0  0
  -26.9180  -29.8480   24.8210 C   0  0  0  0  0  1  0  0  0  0  0  0
  -27.9000  -31.7480   26.0760 C   0  0  0  0  0  1  0  0  0  0  0  0
  -30.1560  -23.9970   25.3830 C   0  0  0  0  0  2  0  0  0  0  0  0
  -30.3970  -22.4870   25.1410 C   0  0  0  0  0  2  0  0  0  0  0  0
  -30.6150  -22.1250   23.6570 C   0  0  0  0  0  2  0  0  0  0  0  0
  -30.6340  -20.6020   23.3710 C   0  0  0  0  0  2  0  0  0  0  0  0
  -30.7740  -20.2820   21.9270 N   0  0  0  0  0  4  0  0  0  0  0  0
  -31.6400  -20.6820   21.6080 H   0  0  0  0  0  0  0  0  0  0  0  0
  -30.0280  -20.7270   21.4150 H   0  0  0  0  0  0  0  0  0  0  0  0
  -30.7820  -18.8250   21.6280 C   0  0  0  0  0  2  0  0  0  0  0  0
  -30.6410  -18.4760   20.1250 C   0  0  0  0  0  2  0  0  0  0  0  0
  -31.5350  -17.2880   19.6840 C   0  0  0  0  0  2  0  0  0  0  0  0
  -31.1430  -14.9720   18.7980 C   0  0  0  0  0  0  0  0  0  0  0  0
  -31.1480  -12.5040   18.6790 C   0  0  0  0  0  2  0  0  0  0  0  0
  -30.1340  -11.9290   17.6750 C   0  0  0  0  0  2  0  0  0  0  0  0
  -28.7500  -11.7740   18.3270 C   0  0  0  0  0  2  0  0  0  0  0  0
  -28.2920  -13.0650   19.0510 C   0  0  0  0  0  3  0  0  0  0  0  0
  -29.4020  -13.5950   19.9840 C   0  0  0  0  0  2  0  0  0  0  0  0
  -30.6360  -13.7800   19.1970 N   0  0  0  0  0  0  0  0  0  0  0  0
  -31.9570  -15.0930   17.8760 O   0  0  0  0  0  0  0  0  0  0  0  0
  -30.8410  -15.9970   19.6140 N   0  0  0  0  0  0  0  0  0  0  0  0
  -30.2290  -15.7640   20.3840 H   0  0  0  0  0  0  0  0  0  0  0  0
  -26.1530  -13.7860   20.2950 C   0  0  0  0  0  0  0  0  0  0  0  0
  -25.1080  -13.0680   20.8070 C   0  0  0  0  0  0  0  0  0  0  0  0
  -25.4100  -11.6940   20.5520 C   0  0  0  0  0  0  0  0  0  0  0  0
  -27.0370  -12.8540   19.7710 N   0  0  0  0  0  0  0  0  0  0  0  0
  -26.6010  -11.5840   19.9750 N   0  0  0  0  0  0  0  0  0  0  0  0
  -24.6100  -10.4830   20.7740 C   0  0  0  0  0  0  0  0  0  0  0  0
  -24.9460   -9.5500   21.7780 C   0  0  0  0  0  3  0  0  0  0  0  0
  -24.1530   -8.4000   21.9840 C   0  0  0  0  0  3  0  0  0  0  0  0
  -23.0070   -8.1780   21.1830 C   0  0  0  0  0  0  0  0  0  0  0  0
  -22.6880   -9.0980   20.1700 C   0  0  0  0  0  3  0  0  0  0  0  0
  -23.4820  -10.2390   19.9650 C   0  0  0  0  0  3  0  0  0  0  0  0
  -22.1910   -7.0770   21.2940 O   0  0  0  0  0  0  0  0  0  0  0  0
  -21.6880   -6.6730   22.5040 C   0  0  0  0  0  0  0  0  0  0  0  0
  -20.9190   -7.5330   23.3190 C   0  0  0  0  0  3  0  0  0  0  0  0
  -20.3650   -7.0550   24.5210 C   0  0  0  0  0  3  0  0  0  0  0  0
  -20.5690   -5.7170   24.9110 C   0  0  0  0  0  0  0  0  0  0  0  0
  -21.3300   -4.8580   24.1000 C   0  0  0  0  0  3  0  0  0  0  0  0
  -21.8870   -5.3340   22.8990 C   0  0  0  0  0  0  0  0  0  0  0  0
  -22.6020   -4.4950   22.1100 F   0  0  0  0  0  0  0  0  0  0  0  0
  -20.0290   -5.2550   26.0620 F   0  0  0  0  0  0  0  0  0  0  0  0
  -23.8500  -13.6230   21.4140 C   0  0  0  0  0  0  0  0  0  0  0  0
  -23.2800  -12.9290   22.3900 N   0  0  0  0  0  0  0  0  0  0  0  0
  -23.3940  -14.7080   21.0520 O   0  0  0  0  0  0  0  0  0  0  0  0
  -23.6620  -12.0470   22.7010 H   0  0  0  0  0  0  0  0  0  0  0  0
  -22.4490  -13.2840   22.8370 H   0  0  0  0  0  0  0  0  0  0  0  0
  -26.4210  -15.1510   20.2100 N   0  0  0  0  0  0  0  0  0  0  0  0
  -25.7540  -15.8550   20.5110 H   0  0  0  0  0  0  0  0  0  0  0  0
  -27.2320  -15.5430   19.7480 H   0  0  0  0  0  0  0  0  0  0  0  0
  1 50  1  0
  2  4  2  0
  2  1  1  0
  3  2  1  0
  5  3  1  0
  6  3  1  0
  7  6  1  0
  8  9  1  0
  8  7  1  0
  9 11  1  0
 10 21  2  0
 11 16  1  0
 12 20  1  0
 12 22  1  0
 13 19  1  0
 13 15  1  0
 14 20  1  0
 15 14  1  0
 16 15  2  0
 17 18  1  0
 17 11  2  0
 18 13  2  0
 19 12  1  0
 20 10  1  0
 22 24  2  0
 23 22  1  0
 25 23  1  0
 26 35  2  0
 26 31  1  0
 27 23  1  0
 27 31  1  0
 28 27  1  0
 29 30  1  0
 29 28  1  0
 30 26  1  0
 31 32  2  0
 32 33  1  0
 34 33  2  0
 35 34  1  0
 36 10  1  0
 36 37  1  0
 36 46  1  0
 37 40  1  0
 38 37  1  0
 38 42  1  0
 39 38  2  0
 42 41  1  0
 42 44  1  0
 44 45  1  0
 44 43  1  0
 46 49  1  1
 46 47  1  0
 48 46  1  0
 51 50  1  0
 52 51  1  0
 53 52  1  0
 54 53  1  0
 55 54  1  0
 56 54  1  0
 57 54  1  0
 58 57  1  0
 59 58  1  0
 60 66  1  0
 60 68  1  0
 61 66  1  0
 62 63  1  0
 62 61  1  0
 64 63  1  0
 64 73  1  0
 64 65  1  0
 66 65  1  0
 67 60  2  0
 68 59  1  0
 68 69  1  0
 70 71  2  0
 71 90  1  0
 72 75  1  0
 72 71  1  0
 73 74  1  0
 73 70  1  0
 74 72  2  0
 75 76  1  0
 76 77  2  0
 78 81  1  0
 78 77  1  0
 79 78  2  0
 80 79  1  0
 80 75  2  0
 81 82  1  0
 82 87  2  0
 82 83  1  0
 83 84  2  0
 84 85  1  0
 85 89  1  0
 86 85  2  0
 87 86  1  0
 88 87  1  0
 90 91  1  0
 91 93  1  0
 91 94  1  0
 92 90  2  0
 95 70  1  0
 95 96  1  0
 97 95  1  0
M  ISO  4   8 101   9 101  60 100  68 100
M  END
>  <TORSDO>  (43) 
F 28

>  <SCORE>  (43) 
-5.313

>  <name>  (43) 
43

>  <ligand_id>  (43) 
43

>  <original_smiles>  (43) 
[H]c1c([H])c([H])c2c(c1[H])C([H])([H])C([H])([H])C([H])([H])C2([H])N([H])C(=O)C1([H])N(C(=O)C([H])(N([H])C(=O)C([H])(N([H])C([H])([H])[H])C([H])([H])[H])C(C([H])([H])[H])(C([H])([H])[H])C([H])([H])[H])C([H])([H])c2c([H])c(OC([H])([H])C([H])([H])C([H])([H])N([H])C(=O)C([H])([H])C([H])([H])C([H])([H])C([H])([H])C([H])([H])[N+]([H])([H])C([H])([H])C([H])([H])C([H])([H])N([H])C(=O)N3C([H])([H])C([H])([H])C([H])([H])C([H])(n4nc(-c5c([H])c([H])c(Oc6c([H])c([H])c(F)c([H])c6F)c([H])c5[H])c(C(=O)N([H])[H])c4N([H])[H])C3([H])[H])c([H])c([H])c2C1([H])[H]

>  <smiles>  (43) 
[H]c1c([H])c([H])c2c(c1[H])C([H])([H])C([H])([H])C([H])([H])C2([H])N([H])C(=O)C1([H])N(C(=O)C([H])(N([H])C(=O)C([H])(N([H])C([H])([H])[H])C([H])([H])[H])C(C([H])([H])[H])(C([H])([H])[H])C([H])([H])[H])C([H])([H])c2c([H])c(OC([H])([H])C([H])([H])C([H])([H])N([H])C(=O)C([H])([H])C([H])([H])C([H])([H])C([H])([H])C([H])([H])[N+]([H])([H])C([H])([H])C([H])([H])C([H])([H])N([H])C(=O)N3C([H])([H])C([H])([H])C([H])([H])C([H])(n4nc(-c5c([H])c([H])c(Oc6c([H])c([H])c(F)c([H])c6F)c([H])c5[H])c(C(=O)N([H])[H])c4N([H])[H])C3([H])[H])c([H])c([H])c2C1([H])[H]

$$$$
44:0:0
     RDKit          3D

 98106  0  0  1  0  0  0  0  0999 V2000
  -29.2880  -19.9050   18.5170 C   0  0  0  0  0  3  0  0  0  0  0  0
  -31.6950  -20.2530   18.3720 C   0  0  0  0  0  3  0  0  0  0  0  0
  -29.2970  -20.4250   19.8250 C   0  0  0  0  0  3  0  0  0  0  0  0
  -31.6940  -20.8280   19.6530 C   0  0  0  0  0  3  0  0  0  0  0  0
  -30.5020  -19.7590   17.8120 C   0  0  0  0  0  0  0  0  0  0  0  0
  -30.5010  -20.8880   20.4040 C   0  0  0  0  0  0  0  0  0  0  0  0
  -30.4780  -21.5100   21.8010 C   0  0  0  0  0  3  0  0  0  0  0  0
  -30.4770  -23.0500   21.7030 C   0  0  0  0  0  2  0  0  0  0  0  0
  -29.3180  -23.6080   20.8570 C   0  0  0  0  0  2  0  0  0  0  0  0
  -29.3400  -25.1310   20.7060 C   0  0  0  0  0  2  0  0  0  0  0  0
  -28.1220  -25.6370   19.9230 C   0  0  0  0  0  2  0  0  0  0  0  0
  -28.1720  -27.0550   19.9040 O   0  0  0  0  0  0  0  0  0  0  0  0
  -24.5030  -32.0470   23.3220 C   0  0  0  0  0  0  0  0  0  0  0  0
  -26.9770  -27.7300   19.9710 C   0  0  0  0  0  0  0  0  0  0  0  0
  -23.2080  -30.7080   21.6920 C   0  0  0  0  0  3  0  0  0  0  0  0
  -24.5820  -29.2140   20.1490 C   0  0  0  0  0  0  0  0  0  0  0  0
  -25.7200  -31.0700   21.3830 C   0  0  0  0  0  2  0  0  0  0  0  0
  -25.7660  -29.7240   20.6960 C   0  0  0  0  0  0  0  0  0  0  0  0
  -26.9650  -28.9890   20.6010 C   0  0  0  0  0  3  0  0  0  0  0  0
  -25.7750  -27.2200   19.4250 C   0  0  0  0  0  3  0  0  0  0  0  0
  -24.5810  -27.9610   19.5120 C   0  0  0  0  0  3  0  0  0  0  0  0
  -23.3450  -30.0700   20.2830 C   0  0  0  0  0  2  0  0  0  0  0  0
  -24.4980  -31.2880   22.1900 N   0  0  0  0  0  0  0  0  0  0  0  0
  -23.4510  -32.3070   23.9230 O   0  0  0  0  0  0  0  0  0  0  0  0
  -22.5980  -29.6580   22.6470 C   0  0  0  0  0  0  0  0  0  0  0  0
  -21.2900  -29.4010   22.4930 N   0  0  0  0  0  0  0  0  0  0  0  0
  -23.2990  -29.0780   23.4800 O   0  0  0  0  0  0  0  0  0  0  0  0
  -20.7850  -29.9230   21.7900 H   0  0  0  0  0  0  0  0  0  0  0  0
  -18.0060  -27.9390   22.8380 C   0  0  0  0  0  0  0  0  0  0  0  0
  -20.5100  -28.4250   23.2520 C   0  0  0  0  0  3  0  0  0  0  0  0
  -20.7680  -26.9890   22.7440 C   0  0  0  0  0  2  0  0  0  0  0  0
  -19.7650  -26.5360   21.6790 C   0  0  0  0  0  2  0  0  0  0  0  0
  -18.3380  -26.5860   22.2300 C   0  0  0  0  0  2  0  0  0  0  0  0
  -19.0270  -28.8100   23.3020 C   0  0  0  0  0  0  0  0  0  0  0  0
  -18.6680  -30.0720   23.8230 C   0  0  0  0  0  3  0  0  0  0  0  0
  -17.3170  -30.4650   23.8900 C   0  0  0  0  0  3  0  0  0  0  0  0
  -16.3100  -29.5920   23.4440 C   0  0  0  0  0  3  0  0  0  0  0  0
  -16.6540  -28.3320   22.9240 C   0  0  0  0  0  3  0  0  0  0  0  0
  -25.8240  -32.6470   23.9000 C   0  0  0  0  0  3  0  0  0  0  0  0
  -26.3690  -31.8620   25.1560 C   0  0  1  0  0  0  0  0  0  0  0  0
  -25.3040  -31.6310   26.2530 C   0  0  0  0  0  1  0  0  0  0  0  0
  -26.9220  -30.4780   24.7370 C   0  0  0  0  0  1  0  0  0  0  0  0
  -27.5480  -32.6370   25.7900 C   0  0  0  0  0  1  0  0  0  0  0  0
  -25.5590  -34.0520   24.2390 N   0  0  0  0  0  0  0  0  0  0  0  0
  -25.9010  -35.0960   23.4720 C   0  0  0  0  0  0  0  0  0  0  0  0
  -26.5460  -34.9780   22.4270 O   0  0  0  0  0  0  0  0  0  0  0  0
  -24.9890  -34.2210   25.0550 H   0  0  0  0  0  0  0  0  0  0  0  0
  -24.2080  -36.9280   23.1600 C   0  0  0  0  0  1  0  0  0  0  0  0
  -25.4580  -36.4940   23.9410 C   0  0  0  0  0  3  0  0  0  0  0  0
  -27.6350  -37.3240   24.7190 C   0  0  0  0  0  1  0  0  0  0  0  0
  -26.5120  -37.5230   23.8060 N   0  0  0  0  0  0  0  0  0  0  0  0
  -26.1300  -38.4510   23.9740 H   0  0  0  0  0  0  0  0  0  0  0  0
  -31.6170  -21.0230   22.7270 C   0  0  0  0  0  2  0  0  0  0  0  0
  -31.5950  -19.5200   22.9970 C   0  0  0  0  0  3  0  0  0  0  0  0
  -30.6940  -19.0060   23.6660 O   0  0  0  0  0  0  0  0  0  0  0  0
  -30.5730  -19.0170   16.4900 C   0  0  0  0  0  2  0  0  0  0  0  0
  -31.4830  -17.7740   16.5890 C   0  0  0  0  0  2  0  0  0  0  0  0
  -30.8550  -16.5110   17.2150 C   0  0  0  0  0  2  0  0  0  0  0  0
  -30.1030  -16.6530   18.5540 C   0  0  0  0  0  2  0  0  0  0  0  0
  -30.9810  -16.6810   19.8320 C   0  0  0  0  0  2  0  0  0  0  0  0
  -31.3930  -14.4890   20.8950 C   0  0  0  0  0  0  0  0  0  0  0  0
  -31.0670  -12.3570   19.7710 C   0  0  0  0  0  2  0  0  0  0  0  0
  -30.2260  -12.6930   18.5220 C   0  0  0  0  0  2  0  0  0  0  0  0
  -28.7220  -12.6130   18.8470 C   0  0  0  0  0  2  0  0  0  0  0  0
  -28.3420  -13.4070   20.1260 C   0  0  0  0  0  3  0  0  0  0  0  0
  -29.3220  -13.1120   21.2900 C   0  0  0  0  0  2  0  0  0  0  0  0
  -30.6910  -13.3340   20.8040 N   0  0  0  0  0  0  0  0  0  0  0  0
  -32.6080  -14.5650   20.7100 O   0  0  0  0  0  0  0  0  0  0  0  0
  -30.6310  -15.5810   20.7440 N   0  0  0  0  0  0  0  0  0  0  0  0
  -29.6550  -15.4910   20.9770 H   0  0  0  0  0  0  0  0  0  0  0  0
  -25.9290  -14.1330   20.6280 C   0  0  0  0  0  0  0  0  0  0  0  0
  -24.7990  -13.4090   20.8990 C   0  0  0  0  0  0  0  0  0  0  0  0
  -25.1980  -12.0370   20.8980 C   0  0  0  0  0  0  0  0  0  0  0  0
  -26.9470  -13.2000   20.4920 N   0  0  0  0  0  0  0  0  0  0  0  0
  -26.5070  -11.9360   20.7110 N   0  0  0  0  0  0  0  0  0  0  0  0
  -24.4030  -10.8100   21.0120 C   0  0  0  0  0  0  0  0  0  0  0  0
  -24.7150   -9.8190   21.9660 C   0  0  0  0  0  3  0  0  0  0  0  0
  -23.9240   -8.6550   22.0730 C   0  0  0  0  0  3  0  0  0  0  0  0
  -22.8080   -8.4750   21.2240 C   0  0  0  0  0  0  0  0  0  0  0  0
  -22.5140   -9.4570   20.2600 C   0  0  0  0  0  3  0  0  0  0  0  0
  -23.3050  -10.6120   20.1510 C   0  0  0  0  0  3  0  0  0  0  0  0
  -21.9990   -7.3640   21.2360 O   0  0  0  0  0  0  0  0  0  0  0  0
  -21.8010   -6.6320   22.3780 C   0  0  0  0  0  0  0  0  0  0  0  0
  -21.2790   -7.2150   23.5560 C   0  0  0  0  0  3  0  0  0  0  0  0
  -21.0290   -6.4110   24.6850 C   0  0  0  0  0  3  0  0  0  0  0  0
  -21.2880   -5.0290   24.6400 C   0  0  0  0  0  0  0  0  0  0  0  0
  -21.8020   -4.4460   23.4690 C   0  0  0  0  0  3  0  0  0  0  0  0
  -22.0580   -5.2470   22.3390 C   0  0  0  0  0  0  0  0  0  0  0  0
  -22.5340   -4.6780   21.2060 F   0  0  0  0  0  0  0  0  0  0  0  0
  -21.0400   -4.2560   25.7220 F   0  0  0  0  0  0  0  0  0  0  0  0
  -23.4080  -13.9520   21.0540 C   0  0  0  0  0  0  0  0  0  0  0  0
  -22.5840  -13.2940   21.8620 N   0  0  0  0  0  0  0  0  0  0  0  0
  -23.0550  -14.9910   20.4960 O   0  0  0  0  0  0  0  0  0  0  0  0
  -22.8770  -12.4530   22.3390 H   0  0  0  0  0  0  0  0  0  0  0  0
  -21.6470  -13.6390   22.0090 H   0  0  0  0  0  0  0  0  0  0  0  0
  -26.1610  -15.4950   20.4630 N   0  0  0  0  0  0  0  0  0  0  0  0
  -25.3990  -16.1640   20.4720 H   0  0  0  0  0  0  0  0  0  0  0  0
  -27.0450  -15.9120   20.1920 H   0  0  0  0  0  0  0  0  0  0  0  0
  1  3  1  0
  2  4  2  0
  3  6  2  0
  4  6  1  0
  5  2  1  0
  5  1  2  0
  6  7  1  0
  7  8  1  0
  7 53  1  0
  9  8  1  0
 10  9  1  0
 11 10  1  0
 12 11  1  0
 12 14  1  0
 13 24  2  0
 14 19  1  0
 15 23  1  0
 15 25  1  0
 16 22  1  0
 16 18  1  0
 17 23  1  0
 18 17  1  0
 19 18  2  0
 20 21  1  0
 20 14  2  0
 21 16  2  0
 22 15  1  0
 23 13  1  0
 25 27  2  0
 26 25  1  0
 28 26  1  0
 29 38  2  0
 29 34  1  0
 30 26  1  0
 30 34  1  0
 31 30  1  0
 32 33  1  0
 32 31  1  0
 33 29  1  0
 34 35  2  0
 35 36  1  0
 37 36  2  0
 38 37  1  0
 39 13  1  0
 39 44  1  0
 39 40  1  0
 40 43  1  1
 40 41  1  0
 42 40  1  0
 44 47  1  0
 45 49  1  0
 45 44  1  0
 46 45  2  0
 49 48  1  0
 51 49  1  0
 51 52  1  0
 51 50  1  0
 53 54  1  0
 54 55  2  0
 56 57  1  0
 56  5  1  0
 57 58  1  0
 58 59  1  0
 59 60  1  0
 60 69  1  0
 62 67  1  0
 63 64  1  0
 63 62  1  0
 65 64  1  0
 65 74  1  0
 65 66  1  0
 67 61  1  0
 67 66  1  0
 68 61  2  0
 69 61  1  0
 69 70  1  0
 71 72  2  0
 72 91  1  0
 73 72  1  0
 73 76  1  0
 74 71  1  0
 74 75  1  0
 75 73  2  0
 76 77  1  0
 77 78  2  0
 79 82  1  0
 79 78  1  0
 80 79  2  0
 81 80  1  0
 81 76  2  0
 82 83  1  0
 83 84  1  0
 84 85  2  0
 86 85  1  0
 86 90  1  0
 87 86  2  0
 88 83  2  0
 88 87  1  0
 89 88  1  0
 91 92  1  0
 92 95  1  0
 92 94  1  0
 93 91  2  0
 96 97  1  0
 96 71  1  0
 98 96  1  0
M  ISO  4  11 101  12 101  61 100  69 100
M  END
>  <TORSDO>  (44) 
F 28

>  <SCORE>  (44) 
-10.138

>  <name>  (44) 
44

>  <ligand_id>  (44) 
44

>  <original_smiles>  (44) 
[H]C(=O)C([H])([H])C([H])(c1c([H])c([H])c(C([H])([H])C([H])([H])C([H])([H])C([H])([H])C([H])([H])N([H])C(=O)N2C([H])([H])C([H])([H])C([H])([H])C([H])(n3nc(-c4c([H])c([H])c(Oc5c([H])c([H])c(F)c([H])c5F)c([H])c4[H])c(C(=O)N([H])[H])c3N([H])[H])C2([H])[H])c([H])c1[H])C([H])([H])C([H])([H])C([H])([H])C([H])([H])Oc1c([H])c([H])c2c(c1[H])C([H])([H])N(C(=O)C([H])(N([H])C(=O)C([H])(N([H])C([H])([H])[H])C([H])([H])[H])C(C([H])([H])[H])(C([H])([H])[H])C([H])([H])[H])C([H])(C(=O)N([H])C1([H])c3c([H])c([H])c([H])c([H])c3C([H])([H])C([H])([H])C1([H])[H])C2([H])[H]

>  <smiles>  (44) 
[H]C(=O)C([H])([H])C([H])(c1c([H])c([H])c(C([H])([H])C([H])([H])C([H])([H])C([H])([H])C([H])([H])N([H])C(=O)N2C([H])([H])C([H])([H])C([H])([H])C([H])(n3nc(-c4c([H])c([H])c(Oc5c([H])c([H])c(F)c([H])c5F)c([H])c4[H])c(C(=O)N([H])[H])c3N([H])[H])C2([H])[H])c([H])c1[H])C([H])([H])C([H])([H])C([H])([H])C([H])([H])Oc1c([H])c([H])c2c(c1[H])C([H])([H])N(C(=O)C([H])(N([H])C(=O)C([H])(N([H])C([H])([H])[H])C([H])([H])[H])C(C([H])([H])[H])(C([H])([H])[H])C([H])([H])[H])C([H])(C(=O)N([H])C1([H])c3c([H])c([H])c([H])c([H])c3C([H])([H])C([H])([H])C1([H])[H])C2([H])[H]

$$$$
45:0:0
     RDKit          3D

 97105  0  0  1  0  0  0  0  0999 V2000
  -24.9260  -22.9470   19.7350 C   0  0  0  0  0  3  0  0  0  0  0  0
  -25.5840  -24.0510   20.2990 C   0  0  0  0  0  3  0  0  0  0  0  0
  -26.8870  -21.5700   20.1770 C   0  0  0  0  0  3  0  0  0  0  0  0
  -25.5910  -21.7130   19.6330 C   0  0  0  0  0  0  0  0  0  0  0  0
  -26.9280  -23.9530   20.7160 C   0  0  0  0  0  0  0  0  0  0  0  0
  -27.5720  -22.6900   20.6940 C   0  0  0  0  0  0  0  0  0  0  0  0
  -28.8850  -22.5380   21.1350 N   0  0  0  0  0  0  0  0  0  0  0  0
  -29.2110  -21.6050   21.3660 H   0  0  0  0  0  0  0  0  0  0  0  0
  -29.2800  -23.2460   21.7430 H   0  0  0  0  0  0  0  0  0  0  0  0
  -27.6530  -25.2360   21.1050 C   0  0  0  0  0  2  0  0  0  0  0  0
  -28.4560  -25.8220   19.9060 C   0  0  0  0  0  2  0  0  0  0  0  0
  -28.5470  -27.2550   19.8920 O   0  0  0  0  0  0  0  0  0  0  0  0
  -24.6760  -32.0110   23.4270 C   0  0  0  0  0  0  0  0  0  0  0  0
  -27.3620  -27.9560   19.9040 C   0  0  0  0  0  0  0  0  0  0  0  0
  -23.4610  -30.7170   21.7020 C   0  0  0  0  0  3  0  0  0  0  0  0
  -24.9190  -29.3610   20.1090 C   0  0  0  0  0  0  0  0  0  0  0  0
  -25.9650  -31.1840   21.4630 C   0  0  0  0  0  2  0  0  0  0  0  0
  -26.0750  -29.8770   20.7070 C   0  0  0  0  0  0  0  0  0  0  0  0
  -27.3000  -29.1800   20.6040 C   0  0  0  0  0  3  0  0  0  0  0  0
  -26.1920  -27.4690   19.2730 C   0  0  0  0  0  3  0  0  0  0  0  0
  -24.9680  -28.1530   19.3950 C   0  0  0  0  0  3  0  0  0  0  0  0
  -23.6520  -30.1710   20.2630 C   0  0  0  0  0  2  0  0  0  0  0  0
  -24.7200  -31.3120   22.2580 N   0  0  0  0  0  0  0  0  0  0  0  0
  -23.6050  -32.2000   24.0210 O   0  0  0  0  0  0  0  0  0  0  0  0
  -22.8740  -29.5930   22.5870 C   0  0  0  0  0  0  0  0  0  0  0  0
  -21.5610  -29.3450   22.4440 N   0  0  0  0  0  0  0  0  0  0  0  0
  -23.5940  -28.9510   23.3560 O   0  0  0  0  0  0  0  0  0  0  0  0
  -21.0420  -29.9160   21.7930 H   0  0  0  0  0  0  0  0  0  0  0  0
  -18.2720  -27.8950   22.8100 C   0  0  0  0  0  0  0  0  0  0  0  0
  -20.7990  -28.3160   23.1540 C   0  0  0  0  0  3  0  0  0  0  0  0
  -21.0150  -26.9220   22.5200 C   0  0  0  0  0  2  0  0  0  0  0  0
  -19.9600  -26.5670   21.4660 C   0  0  0  0  0  2  0  0  0  0  0  0
  -18.5570  -26.5910   22.0800 C   0  0  0  0  0  2  0  0  0  0  0  0
  -19.3260  -28.7100   23.3010 C   0  0  0  0  0  0  0  0  0  0  0  0
  -19.0090  -29.9260   23.9440 C   0  0  0  0  0  3  0  0  0  0  0  0
  -17.6690  -30.3270   24.1050 C   0  0  0  0  0  3  0  0  0  0  0  0
  -16.6300  -29.5090   23.6330 C   0  0  0  0  0  3  0  0  0  0  0  0
  -16.9320  -28.2940   22.9910 C   0  0  0  0  0  3  0  0  0  0  0  0
  -25.9610  -32.6280   24.0600 C   0  0  0  0  0  3  0  0  0  0  0  0
  -26.4770  -31.8280   25.3180 C   0  0  1  0  0  0  0  0  0  0  0  0
  -25.3790  -31.5410   26.3670 C   0  0  0  0  0  1  0  0  0  0  0  0
  -27.0820  -30.4730   24.8890 C   0  0  0  0  0  1  0  0  0  0  0  0
  -27.6150  -32.6180   26.0070 C   0  0  0  0  0  1  0  0  0  0  0  0
  -25.6550  -34.0210   24.4110 N   0  0  0  0  0  0  0  0  0  0  0  0
  -25.9990  -35.0840   23.6700 C   0  0  0  0  0  0  0  0  0  0  0  0
  -26.6760  -34.9920   22.6420 O   0  0  0  0  0  0  0  0  0  0  0  0
  -25.0450  -34.1650   25.2030 H   0  0  0  0  0  0  0  0  0  0  0  0
  -24.2750  -36.8820   23.3330 C   0  0  0  0  0  1  0  0  0  0  0  0
  -25.5130  -36.4670   24.1440 C   0  0  0  0  0  3  0  0  0  0  0  0
  -27.6490  -37.3320   24.9930 C   0  0  0  0  0  1  0  0  0  0  0  0
  -26.5490  -37.5180   24.0490 N   0  0  0  0  0  0  0  0  0  0  0  0
  -26.1480  -38.4380   24.2100 H   0  0  0  0  0  0  0  0  0  0  0  0
  -24.9350  -20.5770   18.8670 C   0  0  0  0  0  2  0  0  0  0  0  0
  -25.5600  -20.3740   17.4630 C   0  0  0  0  0  2  0  0  0  0  0  0
  -27.0840  -20.1100   17.4510 C   0  0  0  0  0  2  0  0  0  0  0  0
  -27.4590  -18.8300   18.2170 C   0  0  0  0  0  2  0  0  0  0  0  0
  -28.8990  -18.7850   18.7570 C   0  0  0  0  0  2  0  0  0  0  0  0
  -29.1000  -17.4860   19.5470 C   0  0  0  0  0  2  0  0  0  0  0  0
  -30.4430  -17.3050   20.2750 C   0  0  0  0  0  2  0  0  0  0  0  0
  -31.1680  -14.9440   20.4410 C   0  0  0  0  0  0  0  0  0  0  0  0
  -30.8940  -12.7300   19.4260 C   0  0  0  0  0  2  0  0  0  0  0  0
  -30.0010  -12.8690   18.1740 C   0  0  0  0  0  2  0  0  0  0  0  0
  -28.5080  -12.7720   18.5480 C   0  0  0  0  0  2  0  0  0  0  0  0
  -28.1300  -13.6920   19.7370 C   0  0  0  0  0  3  0  0  0  0  0  0
  -29.1340  -13.5270   20.9030 C   0  0  0  0  0  2  0  0  0  0  0  0
  -30.4950  -13.7650   20.3850 N   0  0  0  0  0  0  0  0  0  0  0  0
  -32.2890  -15.1240   19.9580 O   0  0  0  0  0  0  0  0  0  0  0  0
  -30.4270  -15.9690   20.8700 N   0  0  0  0  0  0  0  0  0  0  0  0
  -29.5620  -15.6980   21.3140 H   0  0  0  0  0  0  0  0  0  0  0  0
  -25.7300  -14.3930   20.3610 C   0  0  0  0  0  0  0  0  0  0  0  0
  -24.6220  -13.6570   20.6880 C   0  0  0  0  0  0  0  0  0  0  0  0
  -25.0360  -12.2890   20.6600 C   0  0  0  0  0  0  0  0  0  0  0  0
  -26.7510  -13.4740   20.1650 N   0  0  0  0  0  0  0  0  0  0  0  0
  -26.3340  -12.2040   20.3970 N   0  0  0  0  0  0  0  0  0  0  0  0
  -24.2590  -11.0520   20.8110 C   0  0  0  0  0  0  0  0  0  0  0  0
  -24.6200  -10.0680   21.7580 C   0  0  0  0  0  3  0  0  0  0  0  0
  -23.8520   -8.8920   21.8960 C   0  0  0  0  0  3  0  0  0  0  0  0
  -22.7080   -8.6950   21.0870 C   0  0  0  0  0  0  0  0  0  0  0  0
  -22.3670   -9.6670   20.1290 C   0  0  0  0  0  3  0  0  0  0  0  0
  -23.1360  -10.8340   19.9900 C   0  0  0  0  0  3  0  0  0  0  0  0
  -21.9140   -7.5750   21.1350 O   0  0  0  0  0  0  0  0  0  0  0  0
  -21.7580   -6.8530   22.2910 C   0  0  0  0  0  0  0  0  0  0  0  0
  -21.2660   -7.4410   23.4760 C   0  0  0  0  0  3  0  0  0  0  0  0
  -21.0560   -6.6480   24.6210 C   0  0  0  0  0  3  0  0  0  0  0  0
  -21.3270   -5.2670   24.5830 C   0  0  0  0  0  0  0  0  0  0  0  0
  -21.8120   -4.6790   23.4020 C   0  0  0  0  0  3  0  0  0  0  0  0
  -22.0240   -5.4700   22.2590 C   0  0  0  0  0  0  0  0  0  0  0  0
  -22.4700   -4.8940   21.1170 F   0  0  0  0  0  0  0  0  0  0  0  0
  -21.1190   -4.5040   25.6800 F   0  0  0  0  0  0  0  0  0  0  0  0
  -23.2330  -14.1800   20.9190 C   0  0  0  0  0  0  0  0  0  0  0  0
  -22.4600  -13.5060   21.7640 N   0  0  0  0  0  0  0  0  0  0  0  0
  -22.8400  -15.2170   20.3880 O   0  0  0  0  0  0  0  0  0  0  0  0
  -22.7860  -12.6660   22.2170 H   0  0  0  0  0  0  0  0  0  0  0  0
  -21.5270  -13.8390   21.9650 H   0  0  0  0  0  0  0  0  0  0  0  0
  -25.9470  -15.7580   20.1970 N   0  0  0  0  0  0  0  0  0  0  0  0
  -25.1990  -16.4390   20.2800 H   0  0  0  0  0  0  0  0  0  0  0  0
  -26.8240  -16.1660   19.9080 H   0  0  0  0  0  0  0  0  0  0  0  0
  1  2  1  0
  2  5  2  0
  3  6  2  0
  4  1  2  0
  4  3  1  0
  5 10  1  0
  6  5  1  0
  6  7  1  0
  7  8  1  0
  7  9  1  0
 11 10  1  0
 12 14  1  0
 12 11  1  0
 13 24  2  0
 14 19  1  0
 15 23  1  0
 15 25  1  0
 16 22  1  0
 16 18  1  0
 17 23  1  0
 18 17  1  0
 19 18  2  0
 20 21  1  0
 20 14  2  0
 21 16  2  0
 22 15  1  0
 23 13  1  0
 25 27  2  0
 26 25  1  0
 28 26  1  0
 29 38  2  0
 29 34  1  0
 30 26  1  0
 30 34  1  0
 31 30  1  0
 32 33  1  0
 32 31  1  0
 33 29  1  0
 34 35  2  0
 35 36  1  0
 37 36  2  0
 38 37  1  0
 39 13  1  0
 39 44  1  0
 39 40  1  0
 40 43  1  1
 40 41  1  0
 42 40  1  0
 44 47  1  0
 45 49  1  0
 45 44  1  0
 46 45  2  0
 49 48  1  0
 51 49  1  0
 51 52  1  0
 51 50  1  0
 53  4  1  0
 54 53  1  0
 55 54  1  0
 55 56  1  0
 56 57  1  0
 57 58  1  0
 58 59  1  0
 59 68  1  0
 60 68  1  0
 61 66  1  0
 62 63  1  0
 62 61  1  0
 64 63  1  0
 64 73  1  0
 64 65  1  0
 66 60  1  0
 66 65  1  0
 67 60  2  0
 68 69  1  0
 70 71  2  0
 71 90  1  0
 72 71  1  0
 72 75  1  0
 73 70  1  0
 73 74  1  0
 74 72  2  0
 75 76  1  0
 76 77  2  0
 78 81  1  0
 78 77  1  0
 79 78  2  0
 80 79  1  0
 80 75  2  0
 81 82  1  0
 82 83  1  0
 83 84  2  0
 85 84  1  0
 85 89  1  0
 86 85  2  0
 87 82  2  0
 87 86  1  0
 88 87  1  0
 90 91  1  0
 91 94  1  0
 91 93  1  0
 92 90  2  0
 95 96  1  0
 95 70  1  0
 97 95  1  0
M  ISO  4  11 101  12 101  60 100  68 100
M  END
>  <TORSDO>  (45) 
F 26

>  <SCORE>  (45) 
-9.901

>  <name>  (45) 
45

>  <ligand_id>  (45) 
45

>  <original_smiles>  (45) 
[H]c1c([H])c([H])c2c(c1[H])C([H])([H])C([H])([H])C([H])([H])C2([H])N([H])C(=O)C1([H])N(C(=O)C([H])(N([H])C(=O)C([H])(N([H])C([H])([H])[H])C([H])([H])[H])C(C([H])([H])[H])(C([H])([H])[H])C([H])([H])[H])C([H])([H])c2c([H])c(OC([H])([H])C([H])([H])c3c([H])c([H])c(C([H])([H])C([H])([H])C([H])([H])C([H])([H])C([H])([H])C([H])([H])C([H])([H])N([H])C(=O)N4C([H])([H])C([H])([H])C([H])([H])C([H])(n5nc(-c6c([H])c([H])c(Oc7c([H])c([H])c(F)c([H])c7F)c([H])c6[H])c(C(=O)N([H])[H])c5N([H])[H])C4([H])[H])c([H])c3N([H])[H])c([H])c([H])c2C1([H])[H]

>  <smiles>  (45) 
[H]c1c([H])c([H])c2c(c1[H])C([H])([H])C([H])([H])C([H])([H])C2([H])N([H])C(=O)C1([H])N(C(=O)C([H])(N([H])C(=O)C([H])(N([H])C([H])([H])[H])C([H])([H])[H])C(C([H])([H])[H])(C([H])([H])[H])C([H])([H])[H])C([H])([H])c2c([H])c(OC([H])([H])C([H])([H])c3c([H])c([H])c(C([H])([H])C([H])([H])C([H])([H])C([H])([H])C([H])([H])C([H])([H])C([H])([H])N([H])C(=O)N4C([H])([H])C([H])([H])C([H])([H])C([H])(n5nc(-c6c([H])c([H])c(Oc7c([H])c([H])c(F)c([H])c7F)c([H])c6[H])c(C(=O)N([H])[H])c5N([H])[H])C4([H])[H])c([H])c3N([H])[H])c([H])c([H])c2C1([H])[H]

$$$$
46:0:0
     RDKit          3D

 90 97  0  0  1  0  0  0  0  0999 V2000
  -29.3290  -23.3200   21.1010 N   0  0  0  0  0  4  0  0  0  0  0  0
  -29.4590  -23.1770   22.0920 H   0  0  0  0  0  0  0  0  0  0  0  0
  -28.3670  -23.1050   20.9030 H   0  0  0  0  0  0  0  0  0  0  0  0
  -30.1670  -22.3330   20.3850 C   0  0  0  0  0  2  0  0  0  0  0  0
  -29.3810  -21.0380   20.0790 C   0  0  0  0  0  2  0  0  0  0  0  0
  -29.0720  -20.1340   21.2970 C   0  0  0  0  0  2  0  0  0  0  0  0
  -30.1360  -19.0590   21.5940 C   0  0  0  0  0  2  0  0  0  0  0  0
  -29.8630  -17.7070   20.9020 C   0  0  0  0  0  2  0  0  0  0  0  0
  -30.9370  -16.6490   21.2180 C   0  0  0  0  0  2  0  0  0  0  0  0
  -31.0100  -14.3820   20.1160 C   0  0  0  0  0  0  0  0  0  0  0  0
  -30.6300  -12.2350   18.9580 C   0  0  0  0  0  2  0  0  0  0  0  0
  -29.6590  -12.4560   17.7810 C   0  0  0  0  0  2  0  0  0  0  0  0
  -28.2000  -12.3210   18.2530 C   0  0  0  0  0  2  0  0  0  0  0  0
  -27.9050  -13.2000   19.4980 C   0  0  0  0  0  3  0  0  0  0  0  0
  -28.9720  -12.9750   20.5890 C   0  0  0  0  0  2  0  0  0  0  0  0
  -30.3010  -13.2290   19.9940 N   0  0  0  0  0  0  0  0  0  0  0  0
  -32.0610  -14.5990   19.5040 O   0  0  0  0  0  0  0  0  0  0  0  0
  -30.4580  -15.2970   20.9230 N   0  0  0  0  0  0  0  0  0  0  0  0
  -29.6070  -15.0150   21.3810 H   0  0  0  0  0  0  0  0  0  0  0  0
  -25.5340  -13.8880   20.2380 C   0  0  0  0  0  0  0  0  0  0  0  0
  -24.4540  -13.1520   20.6450 C   0  0  0  0  0  0  0  0  0  0  0  0
  -24.8810  -11.7890   20.6340 C   0  0  0  0  0  0  0  0  0  0  0  0
  -26.5550  -12.9750   20.0070 N   0  0  0  0  0  0  0  0  0  0  0  0
  -26.1630  -11.7070   20.3020 N   0  0  0  0  0  0  0  0  0  0  0  0
  -24.1290  -10.5490   20.8690 C   0  0  0  0  0  0  0  0  0  0  0  0
  -24.5520   -9.5970   21.8240 C   0  0  0  0  0  3  0  0  0  0  0  0
  -23.8030   -8.4190   22.0400 C   0  0  0  0  0  3  0  0  0  0  0  0
  -22.6210   -8.1850   21.3000 C   0  0  0  0  0  0  0  0  0  0  0  0
  -22.2180   -9.1230   20.3340 C   0  0  0  0  0  3  0  0  0  0  0  0
  -22.9650  -10.2900   20.1160 C   0  0  0  0  0  3  0  0  0  0  0  0
  -21.8430   -7.0580   21.4250 O   0  0  0  0  0  0  0  0  0  0  0  0
  -21.7760   -6.3590   22.6040 C   0  0  0  0  0  0  0  0  0  0  0  0
  -21.3680   -6.9690   23.8100 C   0  0  0  0  0  3  0  0  0  0  0  0
  -21.2430   -6.1970   24.9830 C   0  0  0  0  0  3  0  0  0  0  0  0
  -21.5190   -4.8160   24.9500 C   0  0  0  0  0  0  0  0  0  0  0  0
  -21.9180   -4.2060   23.7490 C   0  0  0  0  0  3  0  0  0  0  0  0
  -22.0430   -4.9750   22.5790 C   0  0  0  0  0  0  0  0  0  0  0  0
  -22.4110   -4.3770   21.4190 F   0  0  0  0  0  0  0  0  0  0  0  0
  -21.3910   -4.0740   26.0750 F   0  0  0  0  0  0  0  0  0  0  0  0
  -23.0770  -13.6680   20.9430 C   0  0  0  0  0  0  0  0  0  0  0  0
  -22.3570  -13.0080   21.8430 N   0  0  0  0  0  0  0  0  0  0  0  0
  -22.6490  -14.6910   20.4110 O   0  0  0  0  0  0  0  0  0  0  0  0
  -22.7170  -12.1790   22.2930 H   0  0  0  0  0  0  0  0  0  0  0  0
  -21.4320  -13.3330   22.0900 H   0  0  0  0  0  0  0  0  0  0  0  0
  -25.7350  -15.2500   20.0290 N   0  0  0  0  0  0  0  0  0  0  0  0
  -24.9960  -15.9380   20.1220 H   0  0  0  0  0  0  0  0  0  0  0  0
  -26.6060  -15.6480   19.6980 H   0  0  0  0  0  0  0  0  0  0  0  0
  -29.5590  -24.7530   20.7800 C   0  0  0  0  0  2  0  0  0  0  0  0
  -28.2890  -25.3970   20.2060 C   0  0  0  0  0  2  0  0  0  0  0  0
  -28.4080  -26.8210   20.1940 O   0  0  0  0  0  0  0  0  0  0  0  0
  -24.5540  -31.9390   23.2550 C   0  0  0  0  0  0  0  0  0  0  0  0
  -27.2200  -27.5190   20.1750 C   0  0  0  0  0  0  0  0  0  0  0  0
  -23.3510  -30.5250   21.6200 C   0  0  0  0  0  3  0  0  0  0  0  0
  -24.8120  -28.9950   20.1960 C   0  0  0  0  0  0  0  0  0  0  0  0
  -25.8740  -30.9000   21.4190 C   0  0  0  0  0  2  0  0  0  0  0  0
  -25.9660  -29.5320   20.7780 C   0  0  0  0  0  0  0  0  0  0  0  0
  -27.1700  -28.8000   20.7650 C   0  0  0  0  0  3  0  0  0  0  0  0
  -26.0440  -26.9950   19.5830 C   0  0  0  0  0  3  0  0  0  0  0  0
  -24.8410  -27.7270   19.5960 C   0  0  0  0  0  3  0  0  0  0  0  0
  -23.5630  -29.8460   20.2420 C   0  0  0  0  0  2  0  0  0  0  0  0
  -24.6110  -31.1350   22.1570 N   0  0  0  0  0  0  0  0  0  0  0  0
  -23.4710  -32.2100   23.7930 O   0  0  0  0  0  0  0  0  0  0  0  0
  -22.7100  -29.5000   22.5830 C   0  0  0  0  0  0  0  0  0  0  0  0
  -21.3860  -29.3120   22.4610 N   0  0  0  0  0  0  0  0  0  0  0  0
  -23.3990  -28.8790   23.3970 O   0  0  0  0  0  0  0  0  0  0  0  0
  -20.8910  -29.8650   21.7750 H   0  0  0  0  0  0  0  0  0  0  0  0
  -18.0200  -28.1080   22.9550 C   0  0  0  0  0  0  0  0  0  0  0  0
  -20.5760  -28.3770   23.2360 C   0  0  0  0  0  3  0  0  0  0  0  0
  -20.6860  -26.9430   22.6710 C   0  0  0  0  0  2  0  0  0  0  0  0
  -19.5920  -26.6120   21.6510 C   0  0  0  0  0  2  0  0  0  0  0  0
  -18.2040  -26.7580   22.2830 C   0  0  0  0  0  2  0  0  0  0  0  0
  -19.1350  -28.8740   23.3880 C   0  0  0  0  0  0  0  0  0  0  0  0
  -18.9110  -30.1400   23.9750 C   0  0  0  0  0  3  0  0  0  0  0  0
  -17.6050  -30.6380   24.1320 C   0  0  0  0  0  3  0  0  0  0  0  0
  -16.5050  -29.8700   23.7170 C   0  0  0  0  0  3  0  0  0  0  0  0
  -16.7130  -28.6060   23.1340 C   0  0  0  0  0  3  0  0  0  0  0  0
  -25.8380  -32.5780   23.8690 C   0  0  0  0  0  3  0  0  0  0  0  0
  -26.3680  -31.8110   25.1430 C   0  0  1  0  0  0  0  0  0  0  0  0
  -25.2810  -31.5690   26.2150 C   0  0  0  0  0  1  0  0  0  0  0  0
  -26.9580  -30.4370   24.7480 C   0  0  0  0  0  1  0  0  0  0  0  0
  -27.5160  -32.6150   25.7970 C   0  0  0  0  0  1  0  0  0  0  0  0
  -25.5230  -33.9760   24.1940 N   0  0  0  0  0  0  0  0  0  0  0  0
  -25.8600  -35.0270   23.4360 C   0  0  0  0  0  0  0  0  0  0  0  0
  -26.5360  -34.9220   22.4090 O   0  0  0  0  0  0  0  0  0  0  0  0
  -24.9210  -34.1310   24.9900 H   0  0  0  0  0  0  0  0  0  0  0  0
  -24.1300  -36.8150   23.0590 C   0  0  0  0  0  1  0  0  0  0  0  0
  -25.3620  -36.4120   23.8860 C   0  0  0  0  0  3  0  0  0  0  0  0
  -27.4860  -37.3020   24.7400 C   0  0  0  0  0  1  0  0  0  0  0  0
  -26.3930  -37.4690   23.7860 N   0  0  0  0  0  0  0  0  0  0  0  0
  -25.9850  -38.3880   23.9260 H   0  0  0  0  0  0  0  0  0  0  0  0
  1  2  1  0
  3  1  1  0
  4  1  1  0
  5  4  1  0
  5  6  1  0
  6  7  1  0
  8  9  1  0
  8  7  1  0
 10 18  1  0
 11 16  1  0
 12 13  1  0
 12 11  1  0
 14 13  1  0
 14 23  1  0
 14 15  1  0
 16 10  1  0
 16 15  1  0
 17 10  2  0
 18  9  1  0
 18 19  1  0
 20 21  2  0
 21 40  1  0
 22 21  1  0
 22 25  1  0
 23 20  1  0
 23 24  1  0
 24 22  2  0
 25 26  1  0
 26 27  2  0
 28 31  1  0
 28 27  1  0
 29 28  2  0
 30 29  1  0
 30 25  2  0
 31 32  1  0
 32 33  1  0
 33 34  2  0
 35 34  1  0
 35 39  1  0
 36 35  2  0
 37 32  2  0
 37 36  1  0
 38 37  1  0
 40 41  1  0
 41 44  1  0
 41 43  1  0
 42 40  2  0
 45 46  1  0
 45 20  1  0
 47 45  1  0
 48  1  1  0
 49 48  1  0
 50 49  1  0
 51 62  2  0
 52 50  1  0
 52 57  1  0
 53 61  1  0
 53 63  1  0
 54 60  1  0
 54 56  1  0
 55 61  1  0
 56 55  1  0
 57 56  2  0
 58 59  1  0
 58 52  2  0
 59 54  2  0
 60 53  1  0
 61 51  1  0
 63 65  2  0
 64 63  1  0
 66 64  1  0
 67 76  2  0
 67 72  1  0
 68 64  1  0
 68 72  1  0
 69 68  1  0
 70 71  1  0
 70 69  1  0
 71 67  1  0
 72 73  2  0
 73 74  1  0
 75 74  2  0
 76 75  1  0
 77 51  1  0
 77 82  1  0
 77 78  1  0
 78 81  1  1
 78 79  1  0
 80 78  1  0
 82 85  1  0
 83 87  1  0
 83 82  1  0
 84 83  2  0
 87 86  1  0
 89 87  1  0
 89 90  1  0
 89 88  1  0
M  ISO  4  10 100  18 100  49 101  50 101
M  END
>  <TORSDO>  (46) 
F 24

>  <SCORE>  (46) 
-11.828

>  <name>  (46) 
46

>  <ligand_id>  (46) 
46

>  <original_smiles>  (46) 
[H]c1c([H])c([H])c2c(c1[H])C([H])([H])C([H])([H])C([H])([H])C2([H])N([H])C(=O)C1([H])N(C(=O)C([H])(N([H])C(=O)C([H])(N([H])C([H])([H])[H])C([H])([H])[H])C(C([H])([H])[H])(C([H])([H])[H])C([H])([H])[H])C([H])([H])c2c([H])c(OC([H])([H])C([H])([H])[N+]([H])([H])C([H])([H])C([H])([H])C([H])([H])C([H])([H])C([H])([H])C([H])([H])N([H])C(=O)N3C([H])([H])C([H])([H])C([H])([H])C([H])(n4nc(-c5c([H])c([H])c(Oc6c([H])c([H])c(F)c([H])c6F)c([H])c5[H])c(C(=O)N([H])[H])c4N([H])[H])C3([H])[H])c([H])c([H])c2C1([H])[H]

>  <smiles>  (46) 
[H]c1c([H])c([H])c2c(c1[H])C([H])([H])C([H])([H])C([H])([H])C2([H])N([H])C(=O)C1([H])N(C(=O)C([H])(N([H])C(=O)C([H])(N([H])C([H])([H])[H])C([H])([H])[H])C(C([H])([H])[H])(C([H])([H])[H])C([H])([H])[H])C([H])([H])c2c([H])c(OC([H])([H])C([H])([H])[N+]([H])([H])C([H])([H])C([H])([H])C([H])([H])C([H])([H])C([H])([H])C([H])([H])N([H])C(=O)N3C([H])([H])C([H])([H])C([H])([H])C([H])(n4nc(-c5c([H])c([H])c(Oc6c([H])c([H])c(F)c([H])c6F)c([H])c5[H])c(C(=O)N([H])[H])c4N([H])[H])C3([H])[H])c([H])c([H])c2C1([H])[H]

$$$$
47:0:0
     RDKit          3D

 96103  0  0  1  0  0  0  0  0999 V2000
  -28.0630  -17.6530   19.0760 C   0  0  0  0  0  3  0  0  0  0  0  0
  -30.2760  -18.2990   19.5980 C   0  0  0  0  0  3  0  0  0  0  0  0
  -27.6560  -19.0310   19.2370 C   0  0  0  0  0  3  0  0  0  0  0  0
  -29.8680  -19.6810   19.7690 C   0  0  0  0  0  3  0  0  0  0  0  0
  -29.4070  -17.2050   19.2260 C   0  0  0  0  0  0  0  0  0  0  0  0
  -28.5250  -20.1250   19.5670 C   0  0  0  0  0  0  0  0  0  0  0  0
  -29.9770  -15.7560   18.8360 C   0  0  0  0  0  0  0  0  0  0  0  0
  -31.1340  -15.7610   18.4160 O   0  0  0  0  0  0  0  0  0  0  0  0
  -29.1480  -14.3030   18.7260 C   0  0  0  0  0  1  0  0  0  0  0  0
  -29.1690  -11.5890   19.5110 C   0  0  0  0  0  1  0  0  0  0  0  0
  -30.3080  -10.4460   19.7410 C   0  0  0  0  0  2  0  0  0  0  0  0
  -31.5730  -10.5220   20.6700 C   0  0  0  0  0  2  0  0  0  0  0  0
  -31.4130  -10.8300   22.1790 C   0  0  0  0  0  2  0  0  0  0  0  0
  -32.2570  -12.0400   22.7070 C   0  0  0  0  0  2  0  0  0  0  0  0
  -31.7790  -13.6860   20.9850 C   0  0  0  0  0  0  0  0  0  0  0  0
  -31.1280  -12.7380   18.6250 C   0  0  0  0  0  2  0  0  0  0  0  0
  -29.6670  -12.5570   17.3730 C   0  0  0  0  0  3  0  0  0  0  0  0
  -27.8530  -12.8290   18.0010 C   0  0  0  0  0  3  0  0  0  0  0  0
  -27.6110  -13.3190   19.8360 C   0  0  0  0  0  0  0  0  0  0  0  0
  -29.1450  -13.4320   21.0330 C   0  0  0  0  0  3  0  0  0  0  0  0
  -30.7810  -13.1780   20.3460 N   0  0  0  0  0  0  0  0  0  0  0  0
  -32.7370  -14.1700   20.3900 O   0  0  0  0  0  0  0  0  0  0  0  0
  -31.7180  -13.3300   22.2710 N   0  0  0  0  0  0  0  0  0  0  0  0
  -30.7800  -13.4250   22.6280 H   0  0  0  0  0  0  0  0  0  0  0  0
  -25.4840  -13.8000   20.8870 C   0  0  0  0  0  0  0  0  0  0  0  0
  -24.4510  -12.9960   21.1950 C   0  0  0  0  0  0  0  0  0  0  0  0
  -24.9090  -11.6530   21.0190 C   0  0  0  0  0  0  0  0  0  0  0  0
  -26.4510  -12.9260   20.4700 N   0  0  0  0  0  0  0  0  0  0  0  0
  -26.1620  -11.6240   20.6150 N   0  0  0  0  0  0  0  0  0  0  0  0
  -24.1980  -10.3930   21.1370 C   0  0  0  0  0  0  0  0  0  0  0  0
  -24.6070   -9.4080   22.0590 C   0  0  0  0  0  3  0  0  0  0  0  0
  -23.8640   -8.2170   22.1840 C   0  0  0  0  0  3  0  0  0  0  0  0
  -22.7140   -8.0140   21.3810 C   0  0  0  0  0  0  0  0  0  0  0  0
  -22.3440   -8.9900   20.4390 C   0  0  0  0  0  3  0  0  0  0  0  0
  -23.0860  -10.1710   20.3100 C   0  0  0  0  0  3  0  0  0  0  0  0
  -21.9360   -6.8860   21.4240 O   0  0  0  0  0  0  0  0  0  0  0  0
  -21.7430   -6.1920   22.5900 C   0  0  0  0  0  0  0  0  0  0  0  0
  -21.2010   -6.8030   23.7420 C   0  0  0  0  0  3  0  0  0  0  0  0
  -20.9490   -6.0300   24.8940 C   0  0  0  0  0  3  0  0  0  0  0  0
  -21.2360   -4.6520   24.8960 C   0  0  0  0  0  0  0  0  0  0  0  0
  -21.7780   -4.0440   23.7470 C   0  0  0  0  0  3  0  0  0  0  0  0
  -22.0260   -4.8120   22.5980 C   0  0  0  0  0  0  0  0  0  0  0  0
  -22.5260   -4.2190   21.4880 F   0  0  0  0  0  0  0  0  0  0  0  0
  -20.9890   -3.9090   25.9980 F   0  0  0  0  0  0  0  0  0  0  0  0
  -23.0850  -13.4750   21.5190 C   0  0  0  0  0  0  0  0  0  0  0  0
  -22.4040  -12.7620   22.4000 N   0  0  0  0  0  0  0  0  0  0  0  0
  -22.6490  -14.5180   21.0320 O   0  0  0  0  0  0  0  0  0  0  0  0
  -22.8130  -11.9360   22.8130 H   0  0  0  0  0  0  0  0  0  0  0  0
  -21.4710  -13.0370   22.6690 H   0  0  0  0  0  0  0  0  0  0  0  0
  -25.6440  -15.1920   20.8700 N   0  0  0  0  0  0  0  0  0  0  0  0
  -24.9150  -15.7930   21.2400 H   0  0  0  0  0  0  0  0  0  0  0  0
  -26.4790  -15.7040   20.6210 H   0  0  0  0  0  0  0  0  0  0  0  0
  -27.9430  -21.6520   19.5990 C   0  0  0  0  0  2  0  0  0  0  0  0
  -28.6730  -23.0850   19.9990 C   0  0  0  0  0  3  0  0  0  0  0  0
  -27.8490  -24.5300   19.8220 C   0  0  0  0  0  3  0  0  0  0  0  0
  -28.2030  -25.9880   20.2340 O   0  0  0  0  0  0  0  0  0  0  0  0
  -24.6300  -31.7540   23.2260 C   0  0  0  0  0  0  0  0  0  0  0  0
  -27.1800  -27.0010   20.2040 C   0  0  0  0  0  0  0  0  0  0  0  0
  -23.4340  -30.3550   21.5930 C   0  0  0  0  0  3  0  0  0  0  0  0
  -24.8770  -28.7660   20.1940 C   0  0  0  0  0  0  0  0  0  0  0  0
  -25.9940  -30.5890   21.4590 C   0  0  0  0  0  2  0  0  0  0  0  0
  -26.0580  -29.1950   20.8100 C   0  0  0  0  0  0  0  0  0  0  0  0
  -27.2120  -28.3230   20.8140 C   0  0  0  0  0  3  0  0  0  0  0  0
  -25.9710  -26.6870   19.5480 C   0  0  0  0  0  3  0  0  0  0  0  0
  -24.8420  -27.5220   19.5590 C   0  0  0  0  0  3  0  0  0  0  0  0
  -23.6600  -29.6720   20.2230 C   0  0  0  0  0  2  0  0  0  0  0  0
  -24.7050  -30.9210   22.1460 N   0  0  0  0  0  0  0  0  0  0  0  0
  -23.5430  -32.0530   23.7390 O   0  0  0  0  0  0  0  0  0  0  0  0
  -22.7400  -29.3570   22.5540 C   0  0  0  0  0  0  0  0  0  0  0  0
  -21.4100  -29.2010   22.4240 N   0  0  0  0  0  0  0  0  0  0  0  0
  -23.4010  -28.7260   23.3840 O   0  0  0  0  0  0  0  0  0  0  0  0
  -20.9300  -29.7650   21.7360 H   0  0  0  0  0  0  0  0  0  0  0  0
  -18.0100  -28.0710   22.9490 C   0  0  0  0  0  0  0  0  0  0  0  0
  -20.5750  -28.2790   23.1990 C   0  0  0  0  0  3  0  0  0  0  0  0
  -20.6440  -26.8450   22.6240 C   0  0  0  0  0  2  0  0  0  0  0  0
  -19.5280  -26.5450   21.6170 C   0  0  0  0  0  2  0  0  0  0  0  0
  -18.1530  -26.7200   22.2700 C   0  0  0  0  0  2  0  0  0  0  0  0
  -19.1470  -28.8100   23.3720 C   0  0  0  0  0  0  0  0  0  0  0  0
  -18.9580  -30.0750   23.9690 C   0  0  0  0  0  3  0  0  0  0  0  0
  -17.6650  -30.6020   24.1460 C   0  0  0  0  0  3  0  0  0  0  0  0
  -16.5420  -29.8610   23.7380 C   0  0  0  0  0  3  0  0  0  0  0  0
  -16.7160  -28.5970   23.1460 C   0  0  0  0  0  3  0  0  0  0  0  0
  -25.9080  -32.3870   23.8560 C   0  0  0  0  0  3  0  0  0  0  0  0
  -26.4040  -31.6260   25.1470 C   0  0  1  0  0  0  0  0  0  0  0  0
  -25.2950  -31.4070   26.2000 C   0  0  0  0  0  1  0  0  0  0  0  0
  -26.9900  -30.2400   24.7850 C   0  0  0  0  0  1  0  0  0  0  0  0
  -27.5480  -32.4230   25.8160 C   0  0  0  0  0  1  0  0  0  0  0  0
  -25.6010  -33.7900   24.1740 N   0  0  0  0  0  0  0  0  0  0  0  0
  -25.9320  -34.8370   23.4070 C   0  0  0  0  0  0  0  0  0  0  0  0
  -26.5950  -34.7250   22.3730 O   0  0  0  0  0  0  0  0  0  0  0  0
  -25.0140  -33.9510   24.9780 H   0  0  0  0  0  0  0  0  0  0  0  0
  -24.2030  -36.6330   23.0580 C   0  0  0  0  0  1  0  0  0  0  0  0
  -25.4510  -36.2310   23.8590 C   0  0  0  0  0  3  0  0  0  0  0  0
  -27.5910  -37.1240   24.6650 C   0  0  0  0  0  1  0  0  0  0  0  0
  -26.4840  -37.2800   23.7270 N   0  0  0  0  0  0  0  0  0  0  0  0
  -26.0770  -38.2030   23.8660 H   0  0  0  0  0  0  0  0  0  0  0  0
  1  5  2  0
  1  3  1  0
  2  4  2  0
  3  6  2  0
  5  2  1  0
  6 53  1  0
  6  4  1  0
  7  5  1  0
  8  7  2  0
  9  7  1  0
 10 11  1  0
 11 12  1  0
 12 13  1  0
 13 14  1  0
 15 23  1  0
 16 21  1  0
 17 18  2  0
 17 16  1  0
 18 19  1  0
 19 28  1  0
 19 20  2  0
 21 15  1  0
 21 20  1  0
 22 15  2  0
 23 24  1  0
 23 14  1  0
 25 26  2  0
 26 45  1  0
 27 30  1  0
 27 26  1  0
 28 29  1  0
 28 25  1  0
 29 27  2  0
 30 31  1  0
 31 32  2  0
 33 36  1  0
 33 32  1  0
 34 33  2  0
 35 34  1  0
 35 30  2  0
 36 37  1  0
 37 42  2  0
 37 38  1  0
 38 39  2  0
 39 40  1  0
 40 44  1  0
 41 40  2  0
 42 41  1  0
 43 42  1  0
 45 46  1  0
 46 49  1  0
 46 48  1  0
 47 45  2  0
 50 25  1  0
 50 51  1  0
 52 50  1  0
 53 54  1  0
 55 54  2  0
 55 56  1  0
 57 68  2  0
 58 56  1  0
 58 63  1  0
 59 67  1  0
 59 69  1  0
 60 66  1  0
 60 62  1  0
 61 67  1  0
 62 63  2  0
 62 61  1  0
 64 65  1  0
 64 58  2  0
 65 60  2  0
 66 59  1  0
 67 57  1  0
 69 71  2  0
 70 69  1  0
 72 70  1  0
 73 82  2  0
 73 78  1  0
 74 70  1  0
 74 78  1  0
 75 74  1  0
 76 77  1  0
 76 75  1  0
 77 73  1  0
 78 79  2  0
 79 80  1  0
 81 80  2  0
 82 81  1  0
 83 57  1  0
 83 88  1  0
 83 84  1  0
 84 87  1  1
 84 85  1  0
 86 84  1  0
 88 91  1  0
 89 93  1  0
 89 88  1  0
 90 89  2  0
 93 92  1  0
 95 93  1  0
 95 96  1  0
 95 94  1  0
M  ISO  4  15 100  23 100  55 101  56 101
M  END
>  <TORSDO>  (47) 
F 26

>  <SCORE>  (47) 
-11.035

>  <name>  (47) 
47

>  <ligand_id>  (47) 
47

>  <original_smiles>  (47) 
[H]c1c([H])c([H])c2c(c1[H])C([H])([H])C([H])([H])C([H])([H])C2([H])N([H])C(=O)C1([H])N(C(=O)C([H])(N([H])C(=O)C([H])(N([H])C([H])([H])[H])C([H])([H])[H])C(C([H])([H])[H])(C([H])([H])[H])C([H])([H])[H])C([H])([H])c2c([H])c(OC([H])([H])C([H])([H])C([H])([H])c3c([H])c([H])c(C(=O)C([H])([H])C([H])([H])C([H])([H])C([H])([H])C([H])([H])C([H])([H])N([H])C(=O)N4C([H])([H])C([H])([H])C([H])([H])C([H])(n5nc(-c6c([H])c([H])c(Oc7c([H])c([H])c(F)c([H])c7F)c([H])c6[H])c(C(=O)N([H])[H])c5N([H])[H])C4([H])[H])c([H])c3[H])c([H])c([H])c2C1([H])[H]

>  <smiles>  (47) 
[H]c1c([H])c([H])c2c(c1[H])C([H])([H])C([H])([H])C([H])([H])C2([H])N([H])C(=O)C1([H])N(C(=O)C([H])(N([H])C(=O)C([H])(N([H])C([H])([H])[H])C([H])([H])[H])C(C([H])([H])[H])(C([H])([H])[H])C([H])([H])[H])C([H])([H])c2c([H])c(OC([H])([H])C([H])([H])C([H])([H])c3c([H])c([H])c(C(=O)C([H])([H])C([H])([H])C([H])([H])C([H])([H])C([H])([H])C([H])([H])N([H])C(=O)N4C([H])([H])C([H])([H])C([H])([H])C([H])(n5nc(-c6c([H])c([H])c(Oc7c([H])c([H])c(F)c([H])c7F)c([H])c6[H])c(C(=O)N([H])[H])c5N([H])[H])C4([H])[H])c([H])c3[H])c([H])c([H])c2C1([H])[H]

$$$$
48:0:0
     RDKit          3D

 91 98  0  0  1  0  0  0  0  0999 V2000
  -28.6940  -22.4380   19.7250 C   0  0  0  0  0  3  0  0  0  0  0  0
  -27.5320  -22.2010   18.8440 N   0  0  0  0  0  4  0  0  0  0  0  0
  -26.6810  -22.1910   19.3800 H   0  0  0  0  0  0  0  0  0  0  0  0
  -27.6190  -21.3160   18.3800 H   0  0  0  0  0  0  0  0  0  0  0  0
  -27.4540  -22.9060   18.1350 H   0  0  0  0  0  0  0  0  0  0  0  0
  -28.4680  -23.8730   20.4240 C   0  0  0  0  0  0  0  0  0  0  0  0
  -28.2600  -23.9740   21.6370 O   0  0  0  0  0  0  0  0  0  0  0  0
  -28.4810  -25.1930   19.5400 C   0  0  0  0  0  2  0  0  0  0  0  0
  -28.3640  -26.5000   20.2360 O   0  0  0  0  0  0  0  0  0  0  0  0
  -24.6250  -31.8670   23.2450 C   0  0  0  0  0  0  0  0  0  0  0  0
  -27.2180  -27.3070   20.1710 C   0  0  0  0  0  0  0  0  0  0  0  0
  -23.4100  -30.4690   21.6110 C   0  0  0  0  0  3  0  0  0  0  0  0
  -24.8460  -28.9150   20.1770 C   0  0  0  0  0  0  0  0  0  0  0  0
  -25.9450  -30.7870   21.4120 C   0  0  0  0  0  2  0  0  0  0  0  0
  -26.0170  -29.4080   20.7650 C   0  0  0  0  0  0  0  0  0  0  0  0
  -27.2000  -28.6120   20.7550 C   0  0  0  0  0  3  0  0  0  0  0  0
  -26.0170  -26.8600   19.5730 C   0  0  0  0  0  3  0  0  0  0  0  0
  -24.8470  -27.6450   19.5760 C   0  0  0  0  0  3  0  0  0  0  0  0
  -23.6120  -29.7900   20.2300 C   0  0  0  0  0  2  0  0  0  0  0  0
  -24.6800  -31.0580   22.1470 N   0  0  0  0  0  0  0  0  0  0  0  0
  -23.5450  -32.1450   23.7870 O   0  0  0  0  0  0  0  0  0  0  0  0
  -22.7520  -29.4550   22.5770 C   0  0  0  0  0  0  0  0  0  0  0  0
  -21.4250  -29.2770   22.4560 N   0  0  0  0  0  0  0  0  0  0  0  0
  -23.4350  -28.8320   23.3940 O   0  0  0  0  0  0  0  0  0  0  0  0
  -20.9310  -29.8330   21.7710 H   0  0  0  0  0  0  0  0  0  0  0  0
  -18.0520  -28.0760   22.9680 C   0  0  0  0  0  0  0  0  0  0  0  0
  -20.6100  -28.3400   23.2320 C   0  0  0  0  0  3  0  0  0  0  0  0
  -20.7120  -26.9070   22.6630 C   0  0  0  0  0  2  0  0  0  0  0  0
  -19.6110  -26.5780   21.6510 C   0  0  0  0  0  2  0  0  0  0  0  0
  -18.2300  -26.7240   22.2970 C   0  0  0  0  0  2  0  0  0  0  0  0
  -19.1700  -28.8420   23.3930 C   0  0  0  0  0  0  0  0  0  0  0  0
  -18.9490  -30.1070   23.9780 C   0  0  0  0  0  3  0  0  0  0  0  0
  -17.6430  -30.6060   24.1420 C   0  0  0  0  0  3  0  0  0  0  0  0
  -16.5400  -29.8380   23.7350 C   0  0  0  0  0  3  0  0  0  0  0  0
  -16.7460  -28.5740   23.1530 C   0  0  0  0  0  3  0  0  0  0  0  0
  -25.9130  -32.5000   23.8600 C   0  0  0  0  0  3  0  0  0  0  0  0
  -26.4340  -31.7310   25.1360 C   0  0  1  0  0  0  0  0  0  0  0  0
  -25.3460  -31.4990   26.2100 C   0  0  0  0  0  1  0  0  0  0  0  0
  -27.0100  -30.3510   24.7440 C   0  0  0  0  0  1  0  0  0  0  0  0
  -27.5920  -32.5210   25.7880 C   0  0  0  0  0  1  0  0  0  0  0  0
  -25.6080  -33.8990   24.1910 N   0  0  0  0  0  0  0  0  0  0  0  0
  -25.9350  -34.9510   23.4300 C   0  0  0  0  0  0  0  0  0  0  0  0
  -26.5960  -34.8460   22.3920 O   0  0  0  0  0  0  0  0  0  0  0  0
  -25.0260  -34.0540   25.0010 H   0  0  0  0  0  0  0  0  0  0  0  0
  -24.2040  -36.7440   23.0890 C   0  0  0  0  0  1  0  0  0  0  0  0
  -25.4530  -36.3410   23.8900 C   0  0  0  0  0  3  0  0  0  0  0  0
  -27.5970  -37.2220   24.7000 C   0  0  0  0  0  1  0  0  0  0  0  0
  -26.4860  -37.3920   23.7680 N   0  0  0  0  0  0  0  0  0  0  0  0
  -26.0820  -38.3130   23.9180 H   0  0  0  0  0  0  0  0  0  0  0  0
  -28.9220  -21.1490   20.6610 C   0  0  0  0  0  3  0  0  0  0  0  0
  -29.4610  -19.7980   19.9840 C   0  0  0  0  0  3  0  0  0  0  0  0
  -29.3590  -18.3950   20.7490 C   0  0  0  0  0  3  0  0  0  0  0  0
  -30.1910  -17.1680   20.1490 C   0  0  0  0  0  3  0  0  0  0  0  0
  -30.6010  -14.6330   20.2920 C   0  0  0  0  0  0  0  0  0  0  0  0
  -30.3200  -12.3980   19.2470 C   0  0  0  0  0  2  0  0  0  0  0  0
  -29.3640  -12.5460   18.0430 C   0  0  0  0  0  2  0  0  0  0  0  0
  -27.8960  -12.4070   18.4920 C   0  0  0  0  0  2  0  0  0  0  0  0
  -27.5700  -13.2620   19.7460 C   0  0  0  0  0  3  0  0  0  0  0  0
  -28.6490  -13.1080   20.8430 C   0  0  0  0  0  2  0  0  0  0  0  0
  -29.9470  -13.4290   20.2370 N   0  0  0  0  0  0  0  0  0  0  0  0
  -31.7620  -14.7410   19.8890 O   0  0  0  0  0  0  0  0  0  0  0  0
  -29.8570  -15.7540   20.5690 N   0  0  0  0  0  0  0  0  0  0  0  0
  -28.9150  -15.5820   20.8870 H   0  0  0  0  0  0  0  0  0  0  0  0
  -25.1970  -13.8680   20.5160 C   0  0  0  0  0  0  0  0  0  0  0  0
  -24.1330  -13.0990   20.9020 C   0  0  0  0  0  0  0  0  0  0  0  0
  -24.5870  -11.7460   20.8560 C   0  0  0  0  0  0  0  0  0  0  0  0
  -26.2310  -12.9840   20.2560 N   0  0  0  0  0  0  0  0  0  0  0  0
  -25.8710  -11.7010   20.5230 N   0  0  0  0  0  0  0  0  0  0  0  0
  -23.8550  -10.4870   21.0530 C   0  0  0  0  0  0  0  0  0  0  0  0
  -24.3070   -9.5050   21.9630 C   0  0  0  0  0  3  0  0  0  0  0  0
  -23.5770   -8.3110   22.1480 C   0  0  0  0  0  3  0  0  0  0  0  0
  -22.3800   -8.0910   21.4240 C   0  0  0  0  0  0  0  0  0  0  0  0
  -21.9460   -9.0620   20.5040 C   0  0  0  0  0  3  0  0  0  0  0  0
  -22.6780  -10.2470   20.3150 C   0  0  0  0  0  3  0  0  0  0  0  0
  -21.6170   -6.9520   21.5240 O   0  0  0  0  0  0  0  0  0  0  0  0
  -21.6080   -6.1880   22.6630 C   0  0  0  0  0  0  0  0  0  0  0  0
  -21.2470   -6.7260   23.9180 C   0  0  0  0  0  3  0  0  0  0  0  0
  -21.1810   -5.8890   25.0500 C   0  0  0  0  0  3  0  0  0  0  0  0
  -21.4680   -4.5170   24.9290 C   0  0  0  0  0  0  0  0  0  0  0  0
  -21.8230   -3.9770   23.6790 C   0  0  0  0  0  3  0  0  0  0  0  0
  -21.8900   -4.8120   22.5500 C   0  0  0  0  0  0  0  0  0  0  0  0
  -22.2110   -4.2840   21.3440 F   0  0  0  0  0  0  0  0  0  0  0  0
  -21.3980   -3.7110   26.0140 F   0  0  0  0  0  0  0  0  0  0  0  0
  -22.7430  -13.5830   21.2000 C   0  0  0  0  0  0  0  0  0  0  0  0
  -22.0280  -12.8840   22.0760 N   0  0  0  0  0  0  0  0  0  0  0  0
  -22.3030  -14.6140   20.6940 O   0  0  0  0  0  0  0  0  0  0  0  0
  -22.3990  -12.0500   22.5040 H   0  0  0  0  0  0  0  0  0  0  0  0
  -21.0980  -13.1890   22.3210 H   0  0  0  0  0  0  0  0  0  0  0  0
  -25.3650  -15.2400   20.3430 N   0  0  0  0  0  0  0  0  0  0  0  0
  -24.6040  -15.8960   20.4700 H   0  0  0  0  0  0  0  0  0  0  0  0
  -26.2030  -15.6730   19.9740 H   0  0  0  0  0  0  0  0  0  0  0  0
  1  6  1  0
  1 50  1  0
  2  3  1  0
  2  1  1  0
  4  2  1  0
  5  2  1  0
  6  7  2  0
  8  9  1  0
  8  6  1  0
 10 21  2  0
 11  9  1  0
 11 16  1  0
 12 20  1  0
 12 22  1  0
 13 19  1  0
 13 15  1  0
 14 20  1  0
 15 14  1  0
 16 15  2  0
 17 18  1  0
 17 11  2  0
 18 13  2  0
 19 12  1  0
 20 10  1  0
 22 24  2  0
 23 22  1  0
 25 23  1  0
 26 35  2  0
 26 31  1  0
 27 23  1  0
 27 31  1  0
 28 27  1  0
 29 30  1  0
 29 28  1  0
 30 26  1  0
 31 32  2  0
 32 33  1  0
 34 33  2  0
 35 34  1  0
 36 10  1  0
 36 41  1  0
 36 37  1  0
 37 40  1  1
 37 38  1  0
 39 37  1  0
 41 44  1  0
 42 46  1  0
 42 41  1  0
 43 42  2  0
 46 45  1  0
 48 46  1  0
 48 49  1  0
 48 47  1  0
 51 50  2  0
 51 52  1  0
 53 62  1  0
 53 52  2  0
 54 62  1  0
 55 60  1  0
 56 57  1  0
 56 55  1  0
 58 57  1  0
 58 67  1  0
 58 59  1  0
 60 54  1  0
 60 59  1  0
 61 54  2  0
 62 63  1  0
 64 65  2  0
 65 84  1  0
 66 65  1  0
 66 69  1  0
 67 64  1  0
 67 68  1  0
 68 66  2  0
 69 70  1  0
 70 71  2  0
 72 75  1  0
 72 71  1  0
 73 72  2  0
 74 73  1  0
 74 69  2  0
 75 76  1  0
 76 77  1  0
 77 78  2  0
 79 78  1  0
 79 83  1  0
 80 79  2  0
 81 76  2  0
 81 80  1  0
 82 81  1  0
 84 85  1  0
 85 88  1  0
 85 87  1  0
 86 84  2  0
 89 90  1  0
 89 64  1  0
 91 89  1  0
M  ISO  4   8 101   9 101  54 100  62 100
M  END
>  <TORSDO>  (48) 
F 23

>  <SCORE>  (48) 
-12.762

>  <name>  (48) 
48

>  <ligand_id>  (48) 
48

>  <original_smiles>  (48) 
[H]c1c([H])c([H])c2c(c1[H])C([H])([H])C([H])([H])C([H])([H])C2([H])N([H])C(=O)C1([H])N(C(=O)C([H])(N([H])C(=O)C([H])(N([H])C([H])([H])[H])C([H])([H])[H])C(C([H])([H])[H])(C([H])([H])[H])C([H])([H])[H])C([H])([H])c2c([H])c(OC([H])([H])C(=O)C([H])(C([H])([H])C([H])([H])C([H])([H])C([H])([H])N([H])C(=O)N3C([H])([H])C([H])([H])C([H])([H])C([H])(n4nc(-c5c([H])c([H])c(Oc6c([H])c([H])c(F)c([H])c6F)c([H])c5[H])c(C(=O)N([H])[H])c4N([H])[H])C3([H])[H])[N+]([H])([H])[H])c([H])c([H])c2C1([H])[H]

>  <smiles>  (48) 
[H]c1c([H])c([H])c2c(c1[H])C([H])([H])C([H])([H])C([H])([H])C2([H])N([H])C(=O)C1([H])N(C(=O)C([H])(N([H])C(=O)C([H])(N([H])C([H])([H])[H])C([H])([H])[H])C(C([H])([H])[H])(C([H])([H])[H])C([H])([H])[H])C([H])([H])c2c([H])c(OC([H])([H])C(=O)C([H])(C([H])([H])C([H])([H])C([H])([H])C([H])([H])N([H])C(=O)N3C([H])([H])C([H])([H])C([H])([H])C([H])(n4nc(-c5c([H])c([H])c(Oc6c([H])c([H])c(F)c([H])c6F)c([H])c5[H])c(C(=O)N([H])[H])c4N([H])[H])C3([H])[H])[N+]([H])([H])[H])c([H])c([H])c2C1([H])[H]

$$$$
49:0:0
     RDKit          3D

 94 98  0  0  1  0  0  0  0  0999 V2000
  -23.1120  -27.4370   25.1980 C   0  0  0  0  0  0  0  0  0  0  0  0
  -23.3970  -26.1130   24.4930 N   0  0  0  0  0  0  0  0  0  0  0  0
  -23.7750  -27.5710   26.2260 O   0  0  0  0  0  0  0  0  0  0  0  0
  -22.6510  -25.8790   23.8550 H   0  0  0  0  0  0  0  0  0  0  0  0
  -22.0800  -28.9770   24.8380 C   0  0  0  0  0  1  0  0  0  0  0  0
  -21.4620  -30.0480   23.2550 C   0  0  0  0  0 15  0  0  0  0  0  0
  -21.2710  -29.5380   21.3140 C   0  0  0  0  0 15  0  0  0  0  0  0
  -22.2620  -28.2110   20.2240 C   0  0  0  0  0  1  0  0  0  0  0  0
  -23.7630  -27.0160   20.4260 C   0  0  0  0  0  2  0  0  0  0  0  0
  -25.4500  -26.9050   20.7890 O   0  0  0  0  0  0  0  0  0  0  0  0
  -24.7650  -31.9020   23.2380 C   0  0  0  0  0  0  0  0  0  0  0  0
  -26.5990  -27.3250   20.1230 C   0  0  0  0  0  3  0  0  0  0  0  0
  -23.7380  -30.3010   21.6480 C   0  0  0  0  0  3  0  0  0  0  0  0
  -25.0940  -29.4270   19.7390 C   0  0  0  0  0  3  0  0  0  0  0  0
  -26.1770  -30.7970   21.5170 C   0  0  0  0  0  2  0  0  0  0  0  0
  -26.1630  -29.5750   20.6230 C   0  0  0  0  0  3  0  0  0  0  0  0
  -27.0740  -28.5180   20.7180 C   0  0  0  0  0  2  0  0  0  0  0  0
  -26.0900  -27.3990   18.8550 C   0  0  0  0  0  2  0  0  0  0  0  0
  -25.1430  -28.4340   18.7240 C   0  0  0  0  0  2  0  0  0  0  0  0
  -23.9470  -30.3080   20.0820 C   0  0  0  0  0  2  0  0  0  0  0  0
  -24.8870  -31.0340   22.1990 N   0  0  0  0  0  0  0  0  0  0  0  0
  -23.6890  -32.2710   23.7200 O   0  0  0  0  0  0  0  0  0  0  0  0
  -23.5470  -28.8410   22.4830 C   0  0  0  0  0  0  0  0  0  0  0  0
  -22.3980  -27.8710   22.6640 N   0  0  0  0  0  0  0  0  0  0  0  0
  -24.4880  -28.5730   23.1650 O   0  0  0  0  0  0  0  0  0  0  0  0
  -22.8950  -27.0570   22.9890 H   0  0  0  0  0  0  0  0  0  0  0  0
  -18.0550  -27.9940   22.7490 C   0  0  0  0  0  0  0  0  0  0  0  0
  -20.7450  -27.6130   23.0290 C   0  0  0  0  0  3  0  0  0  0  0  0
  -20.4810  -26.3410   22.3050 C   0  0  0  0  0  2  0  0  0  0  0  0
  -19.3630  -26.4510   21.3010 C   0  0  0  0  0  2  0  0  0  0  0  0
  -18.0550  -26.6830   22.0190 C   0  0  0  0  0  2  0  0  0  0  0  0
  -19.2810  -28.5010   23.2830 C   0  0  0  0  0  0  0  0  0  0  0  0
  -18.9710  -29.6510   24.1310 C   0  0  0  0  0  3  0  0  0  0  0  0
  -17.7530  -30.3760   24.1700 C   0  0  0  0  0  3  0  0  0  0  0  0
  -16.6260  -29.8390   23.5570 C   0  0  0  0  0  3  0  0  0  0  0  0
  -16.7830  -28.6150   22.8970 C   0  0  0  0  0  3  0  0  0  0  0  0
  -26.0250  -32.5080   23.8830 C   0  0  0  0  0  3  0  0  0  0  0  0
  -26.5020  -31.6770   25.1310 C   0  0  1  0  0  0  0  0  0  0  0  0
  -25.3920  -31.3860   26.1690 C   0  0  0  0  0  1  0  0  0  0  0  0
  -27.1130  -30.3200   24.7160 C   0  0  0  0  0  1  0  0  0  0  0  0
  -27.6350  -32.4540   25.8320 C   0  0  0  0  0  1  0  0  0  0  0  0
  -25.6850  -33.8830   24.2680 N   0  0  0  0  0  0  0  0  0  0  0  0
  -25.9270  -34.9600   23.5140 C   0  0  0  0  0  0  0  0  0  0  0  0
  -26.5500  -34.9010   22.4500 O   0  0  0  0  0  0  0  0  0  0  0  0
  -25.1280  -33.9900   25.1030 H   0  0  0  0  0  0  0  0  0  0  0  0
  -24.1530  -36.7310   23.2580 C   0  0  0  0  0  1  0  0  0  0  0  0
  -25.4160  -36.3180   24.0310 C   0  0  0  0  0  3  0  0  0  0  0  0
  -27.5600  -37.1910   24.8460 C   0  0  0  0  0  1  0  0  0  0  0  0
  -26.4290  -37.3910   23.9440 N   0  0  0  0  0  0  0  0  0  0  0  0
  -26.0150  -38.2960   24.1530 H   0  0  0  0  0  0  0  0  0  0  0  0
  -24.6280  -24.9250   24.3840 C   0  0  0  0  0  3  0  0  0  0  0  0
  -24.8280  -23.2440   23.6120 C   0  0  0  0  0  3  0  0  0  0  0  0
  -26.2270  -22.0590   23.2790 C   0  0  0  0  0  3  0  0  0  0  0  0
  -26.4630  -20.3050   22.7000 C   0  0  0  0  0  3  0  0  0  0  0  0
  -27.8770  -19.1970   22.2150 C   0  0  0  0  0  3  0  0  0  0  0  0
  -28.1360  -17.4140   21.7400 C   0  0  0  0  0  3  0  0  0  0  0  0
  -30.1910  -15.2420   20.7670 C   0  0  0  0  0  0  0  0  0  0  0  0
  -30.3710  -12.8580   19.6580 C   0  0  0  0  0  2  0  0  0  0  0  0
  -29.5320  -12.6400   18.3660 C   0  0  0  0  0  2  0  0  0  0  0  0
  -28.0750  -12.3210   18.7310 C   0  0  0  0  0  2  0  0  0  0  0  0
  -27.5700  -13.2570   19.8560 C   0  0  0  0  0  3  0  0  0  0  0  0
  -28.5130  -13.3310   21.0630 C   0  0  0  0  0  2  0  0  0  0  0  0
  -29.7270  -13.9190   20.5520 N   0  0  0  0  0  0  0  0  0  0  0  0
  -31.3870  -15.3130   20.4040 O   0  0  0  0  0  0  0  0  0  0  0  0
  -29.4940  -16.5060   21.2510 N   0  0  0  0  0  0  0  0  0  0  0  0
  -30.2550  -17.1720   21.2350 H   0  0  0  0  0  0  0  0  0  0  0  0
  -25.2120  -13.8190   20.5660 C   0  0  0  0  0  0  0  0  0  0  0  0
  -24.1520  -13.0390   20.9220 C   0  0  0  0  0  0  0  0  0  0  0  0
  -24.6170  -11.6880   20.8730 C   0  0  0  0  0  0  0  0  0  0  0  0
  -26.2400  -12.9380   20.3030 N   0  0  0  0  0  0  0  0  0  0  0  0
  -25.9040  -11.6520   20.5590 N   0  0  0  0  0  0  0  0  0  0  0  0
  -23.8930  -10.4250   21.0410 C   0  0  0  0  0  0  0  0  0  0  0  0
  -24.3550   -9.4190   21.9180 C   0  0  0  0  0  3  0  0  0  0  0  0
  -23.6250   -8.2210   22.0750 C   0  0  0  0  0  3  0  0  0  0  0  0
  -22.4230   -8.0230   21.3540 C   0  0  0  0  0  0  0  0  0  0  0  0
  -21.9840   -9.0190   20.4640 C   0  0  0  0  0  3  0  0  0  0  0  0
  -22.7130  -10.2070   20.3050 C   0  0  0  0  0  3  0  0  0  0  0  0
  -21.6620   -6.8830   21.4230 O   0  0  0  0  0  0  0  0  0  0  0  0
  -21.6840   -6.0700   22.5280 C   0  0  0  0  0  0  0  0  0  0  0  0
  -21.4010   -6.5620   23.8210 C   0  0  0  0  0  3  0  0  0  0  0  0
  -21.3660   -5.6780   24.9180 C   0  0  0  0  0  3  0  0  0  0  0  0
  -21.6040   -4.3040   24.7240 C   0  0  0  0  0  0  0  0  0  0  0  0
  -21.8820   -3.8120   23.4360 C   0  0  0  0  0  3  0  0  0  0  0  0
  -21.9190   -4.6930   22.3410 C   0  0  0  0  0  0  0  0  0  0  0  0
  -22.1660   -4.2120   21.0990 F   0  0  0  0  0  0  0  0  0  0  0  0
  -21.5630   -3.4530   25.7750 F   0  0  0  0  0  0  0  0  0  0  0  0
  -22.7590  -13.5170   21.1940 C   0  0  0  0  0  0  0  0  0  0  0  0
  -22.0290  -12.8160   22.0510 N   0  0  0  0  0  0  0  0  0  0  0  0
  -22.3290  -14.5500   20.6800 O   0  0  0  0  0  0  0  0  0  0  0  0
  -22.3940  -11.9810   22.4860 H   0  0  0  0  0  0  0  0  0  0  0  0
  -21.0920  -13.1180   22.2780 H   0  0  0  0  0  0  0  0  0  0  0  0
  -25.3850  -15.1930   20.4190 N   0  0  0  0  0  0  0  0  0  0  0  0
  -24.6210  -15.8490   20.5400 H   0  0  0  0  0  0  0  0  0  0  0  0
  -26.2340  -15.6250   20.0790 H   0  0  0  0  0  0  0  0  0  0  0  0
  1  3  2  0
  2  1  1  0
  4  2  1  0
  5  1  1  0
  8  9  1  0
  9 10  1  0
 11 22  2  0
 12 17  1  0
 12 10  1  0
 13 21  1  0
 13 23  1  0
 14 19  1  0
 14 20  1  0
 14 16  1  0
 15 21  1  0
 16 17  1  0
 16 15  1  0
 18 12  1  0
 19 18  1  0
 20 13  1  0
 21 11  1  0
 23 24  1  0
 23 25  2  0
 24 26  1  0
 27 36  2  0
 27 32  1  0
 28 24  1  0
 28 32  1  0
 29 28  1  0
 30 31  1  0
 30 29  1  0
 31 27  1  0
 32 33  2  0
 33 34  1  0
 35 34  2  0
 36 35  1  0
 37 11  1  0
 37 42  1  0
 37 38  1  0
 38 41  1  1
 38 39  1  0
 40 38  1  0
 42 45  1  0
 43 47  1  0
 43 42  1  0
 44 43  2  0
 47 46  1  0
 49 47  1  0
 49 50  1  0
 49 48  1  0
 51  2  1  0
 52 51  2  0
 53 52  1  0
 54 53  2  0
 55 54  1  0
 56 55  2  0
 57 65  1  0
 58 63  1  0
 59 60  1  0
 59 58  1  0
 61 60  1  0
 61 70  1  0
 61 62  1  0
 63 57  1  0
 63 62  1  0
 64 57  2  0
 65 56  1  0
 66 65  1  0
 67 68  2  0
 68 87  1  0
 69 68  1  0
 69 72  1  0
 70 71  1  0
 70 67  1  0
 71 69  2  0
 72 73  1  0
 73 74  2  0
 75 78  1  0
 75 74  1  0
 76 75  2  0
 77 76  1  0
 77 72  2  0
 78 79  1  0
 79 80  1  0
 80 81  2  0
 82 81  1  0
 82 86  1  0
 83 82  2  0
 84 79  2  0
 84 83  1  0
 85 84  1  0
 87 88  1  0
 88 91  1  0
 88 90  1  0
 89 87  2  0
 92 93  1  0
 92 67  1  0
 94 92  1  0
M  ISO  4   9 101  10 101  57 100  65 100
M  END
>  <TORSDO>  (49) 
F 27

>  <SCORE>  (49) 
13.695

>  <name>  (49) 
49

>  <ligand_id>  (49) 
49

>  <original_smiles>  (49) 
[H]c1c([H])c([H])c2c(c1[H])C([H])([H])C([H])([H])C([H])([H])C2([H])N([H])C(=O)C1([H])N(C(=O)C([H])(N([H])C(=O)C([H])(N([H])C([H])([H])[H])C([H])([H])[H])C(C([H])([H])[H])(C([H])([H])[H])C([H])([H])[H])C([H])([H])c2c([H])c(OC([H])([H])C([H])([H])C([H])([H])C([H])([H])C([H])([H])C(=O)N([H])C([H])([H])C([H])([H])C([H])([H])C([H])([H])C([H])([H])C([H])([H])N([H])C(=O)N3C([H])([H])C([H])([H])C([H])([H])C([H])(n4nc(-c5c([H])c([H])c(Oc6c([H])c([H])c(F)c([H])c6F)c([H])c5[H])c(C(=O)N([H])[H])c4N([H])[H])C3([H])[H])c([H])c([H])c2C1([H])[H]

>  <smiles>  (49) 
[H]c1c([H])c([H])c2c(c1[H])C([H])([H])C([H])([H])C([H])([H])C2([H])N([H])C(=O)C1([H])N(C(=O)C([H])(N([H])C(=O)C([H])(N([H])C([H])([H])[H])C([H])([H])[H])C(C([H])([H])[H])(C([H])([H])[H])C([H])([H])[H])C([H])([H])c2c([H])c(OC([H])([H])C([H])([H])C([H])([H])C([H])([H])C([H])([H])C(=O)N([H])C([H])([H])C([H])([H])C([H])([H])C([H])([H])C([H])([H])C([H])([H])N([H])C(=O)N3C([H])([H])C([H])([H])C([H])([H])C([H])(n4nc(-c5c([H])c([H])c(Oc6c([H])c([H])c(F)c([H])c6F)c([H])c5[H])c(C(=O)N([H])[H])c4N([H])[H])C3([H])[H])c([H])c([H])c2C1([H])[H]

$$$$
50:0:0
     RDKit          3D

103111  0  0  1  0  0  0  0  0999 V2000
  -26.1270  -24.7760   25.0420 C   0  0  0  0  0  3  0  0  0  0  0  0
  -27.4600  -24.3870   24.8220 C   0  0  0  0  0  3  0  0  0  0  0  0
  -25.2200  -24.8020   23.9690 C   0  0  0  0  0  3  0  0  0  0  0  0
  -26.9690  -24.0070   22.4620 C   0  0  0  0  0  3  0  0  0  0  0  0
  -27.8980  -24.0080   23.5360 C   0  0  0  0  0  0  0  0  0  0  0  0
  -25.6280  -24.4230   22.6740 C   0  0  0  0  0  0  0  0  0  0  0  0
  -29.3830  -23.6600   23.3790 C   0  0  0  0  0  2  0  0  0  0  0  0
  -29.7500  -22.9320   22.1460 N   0  0  0  0  0  4  0  0  0  0  0  0
  -29.2990  -23.3970   21.3770 H   0  0  0  0  0  0  0  0  0  0  0  0
  -29.3970  -21.9920   22.2040 H   0  0  0  0  0  0  0  0  0  0  0  0
  -31.8640  -21.6970   22.5970 C   0  0  0  0  0  1  0  0  0  0  0  0
  -31.2100  -22.8880   21.8730 C   0  0  0  0  0  3  0  0  0  0  0  0
  -31.5070  -22.8220   20.3560 C   0  0  0  0  0  2  0  0  0  0  0  0
  -31.0770  -24.0800   19.5700 C   0  0  0  0  0  2  0  0  0  0  0  0
  -31.4510  -24.0440   18.0760 C   0  0  0  0  0  2  0  0  0  0  0  0
  -30.6950  -22.9880   17.2470 C   0  0  0  0  0  2  0  0  0  0  0  0
  -31.9340  -21.7320   15.4560 C   0  0  0  0  0  0  0  0  0  0  0  0
  -32.5160  -19.9010   13.9090 C   0  0  0  0  0  2  0  0  0  0  0  0
  -31.3150  -18.9360   13.8030 C   0  0  0  0  0  2  0  0  0  0  0  0
  -31.3350  -17.8930   14.9390 C   0  0  0  0  0  2  0  0  0  0  0  0
  -31.5490  -18.5340   16.3360 C   0  0  0  0  0  3  0  0  0  0  0  0
  -32.7490  -19.5060   16.2950 C   0  0  0  0  0  2  0  0  0  0  0  0
  -32.4860  -20.5080   15.2460 N   0  0  0  0  0  0  0  0  0  0  0  0
  -31.6560  -22.5220   14.5470 O   0  0  0  0  0  0  0  0  0  0  0  0
  -31.5940  -21.9570   16.7330 N   0  0  0  0  0  0  0  0  0  0  0  0
  -31.8910  -21.2470   17.3880 H   0  0  0  0  0  0  0  0  0  0  0  0
  -30.8430  -17.1510   18.3930 C   0  0  0  0  0  0  0  0  0  0  0  0
  -31.4540  -16.1150   19.0480 C   0  0  0  0  0  0  0  0  0  0  0  0
  -32.6950  -15.8990   18.3750 C   0  0  0  0  0  0  0  0  0  0  0  0
  -31.7120  -17.5220   17.3770 N   0  0  0  0  0  0  0  0  0  0  0  0
  -32.8550  -16.7920   17.4060 N   0  0  0  0  0  0  0  0  0  0  0  0
  -33.7130  -14.8580   18.5550 C   0  0  0  0  0  0  0  0  0  0  0  0
  -35.0730  -15.1830   18.7590 C   0  0  0  0  0  3  0  0  0  0  0  0
  -36.0330  -14.1650   18.9460 C   0  0  0  0  0  3  0  0  0  0  0  0
  -35.6370  -12.8070   18.9320 C   0  0  0  0  0  0  0  0  0  0  0  0
  -34.2870  -12.4870   18.7050 C   0  0  0  0  0  3  0  0  0  0  0  0
  -33.3330  -13.5010   18.5150 C   0  0  0  0  0  3  0  0  0  0  0  0
  -36.5020  -11.7500   19.0830 O   0  0  0  0  0  0  0  0  0  0  0  0
  -37.6640  -11.8670   19.8010 C   0  0  0  0  0  0  0  0  0  0  0  0
  -37.6640  -12.2320   21.1640 C   0  0  0  0  0  3  0  0  0  0  0  0
  -38.8760  -12.2720   21.8830 C   0  0  0  0  0  3  0  0  0  0  0  0
  -40.0850  -11.9380   21.2440 C   0  0  0  0  0  0  0  0  0  0  0  0
  -40.0870  -11.5710   19.8860 C   0  0  0  0  0  3  0  0  0  0  0  0
  -38.8780  -11.5320   19.1680 C   0  0  0  0  0  0  0  0  0  0  0  0
  -38.8830  -11.1550   17.8670 F   0  0  0  0  0  0  0  0  0  0  0  0
  -41.2490  -11.9690   21.9350 F   0  0  0  0  0  0  0  0  0  0  0  0
  -30.8780  -15.3020   20.1730 C   0  0  0  0  0  0  0  0  0  0  0  0
  -31.7260  -14.7860   21.0570 N   0  0  0  0  0  0  0  0  0  0  0  0
  -29.6630  -15.1610   20.3000 O   0  0  0  0  0  0  0  0  0  0  0  0
  -32.7230  -14.9180   20.9700 H   0  0  0  0  0  0  0  0  0  0  0  0
  -31.3690  -14.2470   21.8310 H   0  0  0  0  0  0  0  0  0  0  0  0
  -29.6230  -17.7960   18.5640 N   0  0  0  0  0  0  0  0  0  0  0  0
  -28.9440  -17.5050   19.2610 H   0  0  0  0  0  0  0  0  0  0  0  0
  -29.2720  -18.5260   17.9560 H   0  0  0  0  0  0  0  0  0  0  0  0
  -24.6080  -24.5060   21.5330 C   0  0  0  0  0  3  0  0  0  0  0  0
  -25.2190  -24.2470   20.2090 N   0  0  0  0  0  4  0  0  0  0  0  0
  -25.2950  -23.2530   20.0630 H   0  0  0  0  0  0  0  0  0  0  0  0
  -24.5780  -24.5870   19.5120 H   0  0  0  0  0  0  0  0  0  0  0  0
  -26.5490  -24.8810   19.9890 C   0  0  0  0  0  2  0  0  0  0  0  0
  -26.7230  -25.4460   18.5560 C   0  0  0  0  0  2  0  0  0  0  0  0
  -26.9420  -26.8630   18.5650 O   0  0  0  0  0  0  0  0  0  0  0  0
  -24.7760  -31.2300   23.7200 C   0  0  0  0  0  0  0  0  0  0  0  0
  -25.9310  -27.6940   19.0000 C   0  0  0  0  0  0  0  0  0  0  0  0
  -23.0630  -30.6250   22.0430 C   0  0  0  0  0  3  0  0  0  0  0  0
  -23.9230  -29.4350   19.9600 C   0  0  0  0  0  0  0  0  0  0  0  0
  -25.5450  -30.6580   21.4200 C   0  0  0  0  0  2  0  0  0  0  0  0
  -25.2430  -29.5730   20.4100 C   0  0  0  0  0  0  0  0  0  0  0  0
  -26.2500  -28.7110   19.9250 C   0  0  0  0  0  3  0  0  0  0  0  0
  -24.5930  -27.5760   18.5510 C   0  0  0  0  0  3  0  0  0  0  0  0
  -23.5920  -28.4390   19.0290 C   0  0  0  0  0  3  0  0  0  0  0  0
  -22.9060  -30.4070   20.5140 C   0  0  0  0  0  2  0  0  0  0  0  0
  -24.4910  -30.8290   22.4490 N   0  0  0  0  0  0  0  0  0  0  0  0
  -23.8700  -31.4660   24.5340 O   0  0  0  0  0  0  0  0  0  0  0  0
  -22.3790  -29.4520   22.7810 C   0  0  0  0  0  0  0  0  0  0  0  0
  -21.0610  -29.3040   22.5720 N   0  0  0  0  0  0  0  0  0  0  0  0
  -23.0330  -28.6860   23.4940 O   0  0  0  0  0  0  0  0  0  0  0  0
  -20.5980  -29.9820   21.9860 H   0  0  0  0  0  0  0  0  0  0  0  0
  -17.7800  -27.8000   22.3780 C   0  0  0  0  0  0  0  0  0  0  0  0
  -20.2120  -28.2480   23.1260 C   0  0  0  0  0  3  0  0  0  0  0  0
  -20.5520  -26.8790   22.4950 C   0  0  0  0  0  2  0  0  0  0  0  0
  -19.6760  -26.5360   21.2850 C   0  0  0  0  0  2  0  0  0  0  0  0
  -18.1980  -26.5150   21.6800 C   0  0  0  0  0  2  0  0  0  0  0  0
  -18.7280  -28.6220   23.0420 C   0  0  0  0  0  0  0  0  0  0  0  0
  -18.2930  -29.8240   23.6420 C   0  0  0  0  0  3  0  0  0  0  0  0
  -16.9390  -30.2060   23.5910 C   0  0  0  0  0  3  0  0  0  0  0  0
  -16.0020  -29.3790   22.9440 C   0  0  0  0  0  3  0  0  0  0  0  0
  -16.4200  -28.1770   22.3460 C   0  0  0  0  0  3  0  0  0  0  0  0
  -26.2440  -31.4290   24.2080 C   0  0  0  0  0  3  0  0  0  0  0  0
  -26.3190  -32.7480   24.8500 N   0  0  0  0  0  0  0  0  0  0  0  0
  -26.8360  -33.8450   24.2810 C   0  0  0  0  0  0  0  0  0  0  0  0
  -27.3730  -33.8330   23.1690 O   0  0  0  0  0  0  0  0  0  0  0  0
  -25.8500  -32.8420   25.7380 H   0  0  0  0  0  0  0  0  0  0  0  0
  -25.5810  -36.0120   24.5180 C   0  0  0  0  0  1  0  0  0  0  0  0
  -26.7410  -35.1660   25.0680 C   0  0  0  0  0  3  0  0  0  0  0  0
  -29.0920  -35.3200   25.7560 C   0  0  0  0  0  1  0  0  0  0  0  0
  -27.9900  -35.9590   25.0400 N   0  0  0  0  0  0  0  0  0  0  0  0
  -27.8430  -36.8820   25.4410 H   0  0  0  0  0  0  0  0  0  0  0  0
  -26.7320  -30.2980   25.1930 C   0  0  1  0  0  0  0  0  0  0  0  0
  -25.7630  -30.0330   26.3680 C   0  0  0  0  0  1  0  0  0  0  0  0
  -26.9300  -28.9670   24.4330 C   0  0  0  0  0  1  0  0  0  0  0  0
  -28.1080  -30.6830   25.7870 C   0  0  0  0  0  1  0  0  0  0  0  0
  -22.4910  -24.1400   22.9630 C   0  0  0  0  0  1  0  0  0  0  0  0
  -23.3400  -23.6570   21.7730 C   0  0  0  0  0  2  0  0  0  0  0  0
  2  1  1  0
  3  1  2  0
  4  6  2  0
  4  5  1  0
  5  2  2  0
  6  3  1  0
  7  5  1  0
  8 10  1  0
  8  7  1  0
  9  8  1  0
 12  8  1  0
 12 11  1  0
 13 12  1  0
 14 13  1  0
 15 14  1  0
 16 15  1  0
 17 25  1  0
 18 23  1  0
 19 18  1  0
 19 20  1  0
 21 20  1  0
 21 30  1  0
 22 21  1  0
 23 17  1  0
 23 22  1  0
 24 17  2  0
 25 16  1  0
 25 26  1  0
 27 52  1  0
 27 28  2  0
 28 47  1  0
 29 32  1  0
 29 28  1  0
 30 31  1  0
 30 27  1  0
 31 29  2  0
 32 33  1  0
 33 34  2  0
 35 34  1  0
 35 38  1  0
 36 35  2  0
 37 32  2  0
 37 36  1  0
 38 39  1  0
 39 40  1  0
 40 41  2  0
 42 41  1  0
 42 46  1  0
 43 42  2  0
 44 39  2  0
 44 43  1  0
 45 44  1  0
 47 49  2  0
 47 48  1  0
 48 51  1  0
 50 48  1  0
 52 53  1  0
 54 52  1  0
 55103  1  0
 55  6  1  0
 56 55  1  0
 57 56  1  0
 58 56  1  0
 59 56  1  0
 60 61  1  0
 60 59  1  0
 61 63  1  0
 62 73  2  0
 63 68  1  0
 64 72  1  0
 64 74  1  0
 65 67  1  0
 65 71  1  0
 66 72  1  0
 67 66  1  0
 68 67  2  0
 69 63  2  0
 69 70  1  0
 70 65  2  0
 71 64  1  0
 72 62  1  0
 74 76  2  0
 75 74  1  0
 77 75  1  0
 78 83  1  0
 79 75  1  0
 80 79  1  0
 81 82  1  0
 81 80  1  0
 82 78  1  0
 83 79  1  0
 83 84  2  0
 85 84  1  0
 86 85  2  0
 87 78  2  0
 87 86  1  0
 88 62  1  0
 88 89  1  0
 88 98  1  0
 89 92  1  0
 90 89  1  0
 90 94  1  0
 91 90  2  0
 94 93  1  0
 96 94  1  0
 96 97  1  0
 96 95  1  0
 98101  1  1
 98 99  1  0
100 98  1  0
103102  1  0
M  ISO  4  17 100  25 100  60 101  61 101
M  END
>  <TORSDO>  (50) 
F 28

>  <SCORE>  (50) 
1.933

>  <name>  (50) 
50

>  <ligand_id>  (50) 
50

>  <original_smiles>  (50) 
[H]c1c([H])c([H])c2c(c1[H])C([H])([H])C([H])([H])C([H])([H])C2([H])N([H])C(=O)C1([H])N(C(=O)C([H])(N([H])C(=O)C([H])(N([H])C([H])([H])[H])C([H])([H])[H])C(C([H])([H])[H])(C([H])([H])[H])C([H])([H])[H])C([H])([H])c2c([H])c(OC([H])([H])C([H])([H])[N+]([H])([H])C([H])(c3c([H])c([H])c([H])c(C([H])([H])[N+]([H])([H])C([H])(C([H])([H])[H])C([H])([H])C([H])([H])C([H])([H])C([H])([H])N([H])C(=O)N4C([H])([H])C([H])([H])C([H])([H])C([H])(n5nc(-c6c([H])c([H])c(Oc7c([H])c([H])c(F)c([H])c7F)c([H])c6[H])c(C(=O)N([H])[H])c5N([H])[H])C4([H])[H])c3[H])C([H])([H])C([H])([H])[H])c([H])c([H])c2C1([H])[H]

>  <smiles>  (50) 
[H]c1c([H])c([H])c2c(c1[H])C([H])([H])C([H])([H])C([H])([H])C2([H])N([H])C(=O)C1([H])N(C(=O)C([H])(N([H])C(=O)C([H])(N([H])C([H])([H])[H])C([H])([H])[H])C(C([H])([H])[H])(C([H])([H])[H])C([H])([H])[H])C([H])([H])c2c([H])c(OC([H])([H])C([H])([H])[N+]([H])([H])C([H])(c3c([H])c([H])c([H])c(C([H])([H])[N+]([H])([H])C([H])(C([H])([H])[H])C([H])([H])C([H])([H])C([H])([H])C([H])([H])N([H])C(=O)N4C([H])([H])C([H])([H])C([H])([H])C([H])(n5nc(-c6c([H])c([H])c(Oc7c([H])c([H])c(F)c([H])c7F)c([H])c6[H])c(C(=O)N([H])[H])c5N([H])[H])C4([H])[H])c3[H])C([H])([H])C([H])([H])[H])c([H])c([H])c2C1([H])[H]

$$$$
51:0:0
     RDKit          3D

 96104  0  0  1  0  0  0  0  0999 V2000
  -27.1800  -23.3710   21.8790 C   0  0  0  0  0  3  0  0  0  0  0  0
  -26.7590  -22.4340   20.9170 C   0  0  0  0  0  3  0  0  0  0  0  0
  -27.9640  -24.4760   21.4970 C   0  0  0  0  0  3  0  0  0  0  0  0
  -27.9270  -23.6930   19.1890 C   0  0  0  0  0  3  0  0  0  0  0  0
  -27.1390  -22.5860   19.5640 C   0  0  0  0  0  0  0  0  0  0  0  0
  -28.3270  -24.6480   20.1460 C   0  0  0  0  0  0  0  0  0  0  0  0
  -26.6840  -21.5930   18.5010 C   0  0  0  0  0  2  0  0  0  0  0  0
  -26.9300  -20.1020   18.8410 C   0  0  0  0  0  3  0  0  0  0  0  0
  -26.3630  -19.2430   17.7790 N   0  0  0  0  0  4  0  0  0  0  0  0
  -26.8350  -19.3920   16.9050 H   0  0  0  0  0  0  0  0  0  0  0  0
  -25.3880  -19.4490   17.6450 H   0  0  0  0  0  0  0  0  0  0  0  0
  -26.4370  -18.2690   18.0150 H   0  0  0  0  0  0  0  0  0  0  0  0
  -28.4310  -19.7490   19.1060 C   0  0  0  0  0  2  0  0  0  0  0  0
  -28.7070  -18.7850   20.3070 C   0  0  0  0  0  2  0  0  0  0  0  0
  -29.1890  -17.3040   20.3310 C   0  0  0  0  0  2  0  0  0  0  0  0
  -30.3930  -17.0050   21.2540 C   0  0  0  0  0  2  0  0  0  0  0  0
  -31.1120  -14.6710   20.7430 C   0  0  0  0  0  0  0  0  0  0  0  0
  -30.8430  -12.5350   19.5490 C   0  0  0  0  0  2  0  0  0  0  0  0
  -29.9450  -12.7610   18.3150 C   0  0  0  0  0  2  0  0  0  0  0  0
  -28.4520  -12.6570   18.6820 C   0  0  0  0  0  2  0  0  0  0  0  0
  -28.0820  -13.4980   19.9320 C   0  0  0  0  0  3  0  0  0  0  0  0
  -29.0830  -13.2180   21.0770 C   0  0  0  0  0  2  0  0  0  0  0  0
  -30.4470  -13.4980   20.5840 N   0  0  0  0  0  0  0  0  0  0  0  0
  -32.1790  -14.9440   20.1820 O   0  0  0  0  0  0  0  0  0  0  0  0
  -30.4400  -15.5630   21.4750 N   0  0  0  0  0  0  0  0  0  0  0  0
  -29.6510  -15.1760   21.9720 H   0  0  0  0  0  0  0  0  0  0  0  0
  -25.6740  -14.1750   20.5630 C   0  0  0  0  0  0  0  0  0  0  0  0
  -24.5700  -13.4300   20.8780 C   0  0  0  0  0  0  0  0  0  0  0  0
  -24.9880  -12.0660   20.8240 C   0  0  0  0  0  0  0  0  0  0  0  0
  -26.7010  -13.2650   20.3490 N   0  0  0  0  0  0  0  0  0  0  0  0
  -26.2850  -11.9900   20.5590 N   0  0  0  0  0  0  0  0  0  0  0  0
  -24.2150  -10.8250   20.9560 C   0  0  0  0  0  0  0  0  0  0  0  0
  -24.5720   -9.8290   21.8930 C   0  0  0  0  0  3  0  0  0  0  0  0
  -23.8030   -8.6500   22.0120 C   0  0  0  0  0  3  0  0  0  0  0  0
  -22.6640   -8.4600   21.1930 C   0  0  0  0  0  0  0  0  0  0  0  0
  -22.3280   -9.4440   20.2470 C   0  0  0  0  0  3  0  0  0  0  0  0
  -23.0970  -10.6140   20.1250 C   0  0  0  0  0  3  0  0  0  0  0  0
  -21.8740   -7.3370   21.2210 O   0  0  0  0  0  0  0  0  0  0  0  0
  -21.7190   -6.5950   22.3650 C   0  0  0  0  0  0  0  0  0  0  0  0
  -21.2130   -7.1600   23.5570 C   0  0  0  0  0  3  0  0  0  0  0  0
  -21.0070   -6.3450   24.6890 C   0  0  0  0  0  3  0  0  0  0  0  0
  -21.2950   -4.9690   24.6290 C   0  0  0  0  0  0  0  0  0  0  0  0
  -21.7930   -4.4050   23.4410 C   0  0  0  0  0  3  0  0  0  0  0  0
  -22.0030   -5.2160   22.3120 C   0  0  0  0  0  0  0  0  0  0  0  0
  -22.4630   -4.6630   21.1640 F   0  0  0  0  0  0  0  0  0  0  0  0
  -21.0890   -4.1850   25.7130 F   0  0  0  0  0  0  0  0  0  0  0  0
  -23.1800  -13.9480   21.1190 C   0  0  0  0  0  0  0  0  0  0  0  0
  -22.4090  -13.2610   21.9570 N   0  0  0  0  0  0  0  0  0  0  0  0
  -22.7860  -14.9930   20.6060 O   0  0  0  0  0  0  0  0  0  0  0  0
  -22.7370  -12.4140   22.3950 H   0  0  0  0  0  0  0  0  0  0  0  0
  -21.4740  -13.5870   22.1600 H   0  0  0  0  0  0  0  0  0  0  0  0
  -25.8890  -15.5420   20.4240 N   0  0  0  0  0  0  0  0  0  0  0  0
  -25.1560  -16.2220   20.5930 H   0  0  0  0  0  0  0  0  0  0  0  0
  -26.7890  -15.9490   20.2160 H   0  0  0  0  0  0  0  0  0  0  0  0
  -29.1480  -25.8510   19.7060 C   0  0  0  0  0  2  0  0  0  0  0  0
  -28.8960  -27.0340   20.4620 O   0  0  0  0  0  0  0  0  0  0  0  0
  -24.7260  -31.9900   23.3300 C   0  0  0  0  0  0  0  0  0  0  0  0
  -27.6630  -27.6480   20.3920 C   0  0  0  0  0  0  0  0  0  0  0  0
  -23.6390  -30.5350   21.6500 C   0  0  0  0  0  3  0  0  0  0  0  0
  -25.2040  -29.0430   20.3000 C   0  0  0  0  0  0  0  0  0  0  0  0
  -26.1540  -30.9860   21.5570 C   0  0  0  0  0  2  0  0  0  0  0  0
  -26.3110  -29.6140   20.9380 C   0  0  0  0  0  0  0  0  0  0  0  0
  -27.5370  -28.9180   20.9910 C   0  0  0  0  0  3  0  0  0  0  0  0
  -26.5340  -27.0830   19.7500 C   0  0  0  0  0  3  0  0  0  0  0  0
  -25.3080  -27.7730   19.7080 C   0  0  0  0  0  3  0  0  0  0  0  0
  -23.9270  -29.8520   20.2860 C   0  0  0  0  0  2  0  0  0  0  0  0
  -24.8540  -31.1870   22.2380 N   0  0  0  0  0  0  0  0  0  0  0  0
  -23.6140  -32.2280   23.8240 O   0  0  0  0  0  0  0  0  0  0  0  0
  -22.9870  -29.4970   22.5910 C   0  0  0  0  0  0  0  0  0  0  0  0
  -21.6680  -29.2970   22.4360 N   0  0  0  0  0  0  0  0  0  0  0  0
  -23.6640  -28.8750   23.4140 O   0  0  0  0  0  0  0  0  0  0  0  0
  -21.1840  -29.8490   21.7430 H   0  0  0  0  0  0  0  0  0  0  0  0
  -18.2900  -28.1130   22.9080 C   0  0  0  0  0  0  0  0  0  0  0  0
  -20.8490  -28.3440   23.1840 C   0  0  0  0  0  3  0  0  0  0  0  0
  -20.9420  -26.9290   22.5670 C   0  0  0  0  0  2  0  0  0  0  0  0
  -19.8360  -26.6420   21.5470 C   0  0  0  0  0  2  0  0  0  0  0  0
  -18.4560  -26.7800   22.1970 C   0  0  0  0  0  2  0  0  0  0  0  0
  -19.4150  -28.8540   23.3580 C   0  0  0  0  0  0  0  0  0  0  0  0
  -19.2070  -30.1050   23.9810 C   0  0  0  0  0  3  0  0  0  0  0  0
  -17.9060  -30.6110   24.1600 C   0  0  0  0  0  3  0  0  0  0  0  0
  -16.7950  -29.8650   23.7300 C   0  0  0  0  0  3  0  0  0  0  0  0
  -16.9890  -28.6180   23.1090 C   0  0  0  0  0  3  0  0  0  0  0  0
  -25.9640  -32.6670   23.9980 C   0  0  0  0  0  3  0  0  0  0  0  0
  -26.4400  -31.9380   25.3140 C   0  0  1  0  0  0  0  0  0  0  0  0
  -25.2980  -31.6650   26.3210 C   0  0  0  0  0  1  0  0  0  0  0  0
  -27.1050  -30.5830   24.9790 C   0  0  0  0  0  1  0  0  0  0  0  0
  -27.5130  -32.7930   26.0290 C   0  0  0  0  0  1  0  0  0  0  0  0
  -25.6050  -34.0630   24.2770 N   0  0  0  0  0  0  0  0  0  0  0  0
  -25.9420  -35.1040   23.5030 C   0  0  0  0  0  0  0  0  0  0  0  0
  -26.6600  -34.9930   22.5050 O   0  0  0  0  0  0  0  0  0  0  0  0
  -24.9700  -34.2220   25.0450 H   0  0  0  0  0  0  0  0  0  0  0  0
  -24.1730  -36.8290   23.0340 C   0  0  0  0  0  1  0  0  0  0  0  0
  -25.3950  -36.4890   23.9010 C   0  0  0  0  0  3  0  0  0  0  0  0
  -27.4700  -37.4660   24.7800 C   0  0  0  0  0  1  0  0  0  0  0  0
  -26.3990  -37.5700   23.7920 N   0  0  0  0  0  0  0  0  0  0  0  0
  -25.9600  -38.4810   23.8940 H   0  0  0  0  0  0  0  0  0  0  0  0
  2  1  2  0
  3  1  1  0
  4  5  2  0
  4  6  1  0
  5  2  1  0
  6  3  2  0
  7  5  1  0
  8  7  1  0
  8 13  1  0
  9 12  1  0
  9  8  1  0
 10  9  1  0
 11  9  1  0
 13 14  1  0
 14 15  1  0
 15 16  1  0
 16 25  1  0
 17 25  1  0
 18 23  1  0
 19 20  1  0
 19 18  1  0
 21 20  1  0
 21 30  1  0
 21 22  1  0
 23 17  1  0
 23 22  1  0
 24 17  2  0
 25 26  1  0
 27 28  2  0
 28 47  1  0
 29 28  1  0
 29 32  1  0
 30 31  1  0
 30 27  1  0
 31 29  2  0
 32 33  1  0
 33 34  2  0
 35 38  1  0
 35 34  1  0
 36 35  2  0
 37 36  1  0
 37 32  2  0
 38 39  1  0
 39 40  1  0
 40 41  2  0
 42 41  1  0
 42 46  1  0
 43 42  2  0
 44 39  2  0
 44 43  1  0
 45 44  1  0
 47 48  1  0
 48 51  1  0
 48 50  1  0
 49 47  2  0
 52 27  1  0
 52 53  1  0
 54 52  1  0
 55  6  1  0
 55 56  1  0
 57 68  2  0
 58 56  1  0
 58 63  1  0
 59 67  1  0
 59 69  1  0
 60 62  1  0
 61 67  1  0
 62 63  2  0
 62 61  1  0
 64 58  2  0
 65 64  1  0
 65 60  2  0
 66 60  1  0
 66 59  1  0
 67 57  1  0
 69 71  2  0
 70 69  1  0
 72 70  1  0
 73 82  2  0
 73 78  1  0
 74 70  1  0
 74 78  1  0
 75 74  1  0
 76 77  1  0
 76 75  1  0
 77 73  1  0
 78 79  2  0
 79 80  1  0
 81 80  2  0
 82 81  1  0
 83 57  1  0
 83 88  1  0
 83 84  1  0
 84 87  1  1
 84 85  1  0
 86 84  1  0
 88 91  1  0
 89 93  1  0
 89 88  1  0
 90 89  2  0
 93 92  1  0
 95 96  1  0
 95 93  1  0
 95 94  1  0
M  ISO  4  17 100  25 100  55 101  56 101
M  END
>  <TORSDO>  (51) 
F 24

>  <SCORE>  (51) 
-11.722

>  <name>  (51) 
51

>  <ligand_id>  (51) 
51

>  <original_smiles>  (51) 
[H]c1c([H])c([H])c2c(c1[H])C([H])([H])C([H])([H])C([H])([H])C2([H])N([H])C(=O)C1([H])N(C(=O)C([H])(N([H])C(=O)C([H])(N([H])C([H])([H])[H])C([H])([H])[H])C(C([H])([H])[H])(C([H])([H])[H])C([H])([H])[H])C([H])([H])c2c([H])c(OC([H])([H])c3c([H])c([H])c([H])c(C([H])([H])C([H])(C([H])([H])C([H])([H])C([H])([H])C([H])([H])N([H])C(=O)N4C([H])([H])C([H])([H])C([H])([H])C([H])(n5nc(-c6c([H])c([H])c(Oc7c([H])c([H])c(F)c([H])c7F)c([H])c6[H])c(C(=O)N([H])[H])c5N([H])[H])C4([H])[H])[N+]([H])([H])[H])c3[H])c([H])c([H])c2C1([H])[H]

>  <smiles>  (51) 
[H]c1c([H])c([H])c2c(c1[H])C([H])([H])C([H])([H])C([H])([H])C2([H])N([H])C(=O)C1([H])N(C(=O)C([H])(N([H])C(=O)C([H])(N([H])C([H])([H])[H])C([H])([H])[H])C(C([H])([H])[H])(C([H])([H])[H])C([H])([H])[H])C([H])([H])c2c([H])c(OC([H])([H])c3c([H])c([H])c([H])c(C([H])([H])C([H])(C([H])([H])C([H])([H])C([H])([H])C([H])([H])N([H])C(=O)N4C([H])([H])C([H])([H])C([H])([H])C([H])(n5nc(-c6c([H])c([H])c(Oc7c([H])c([H])c(F)c([H])c7F)c([H])c6[H])c(C(=O)N([H])[H])c5N([H])[H])C4([H])[H])[N+]([H])([H])[H])c3[H])c([H])c([H])c2C1([H])[H]

$$$$
52:0:0
     RDKit          3D

 94102  0  0  1  0  0  0  0  0999 V2000
  -31.1610  -21.4140   16.8930 C   0  0  0  0  0  3  0  0  0  0  0  0
  -31.4120  -22.7710   16.6280 C   0  0  0  0  0  3  0  0  0  0  0  0
  -31.4880  -21.8170   19.2680 C   0  0  0  0  0  3  0  0  0  0  0  0
  -31.1860  -20.9250   18.2150 C   0  0  0  0  0  0  0  0  0  0  0  0
  -31.6900  -23.6670   17.6790 C   0  0  0  0  0  0  0  0  0  0  0  0
  -31.7330  -23.1850   19.0130 C   0  0  0  0  0  0  0  0  0  0  0  0
  -31.9120  -25.1340   17.3450 C   0  0  0  0  0  1  0  0  0  0  0  0
  -30.8590  -19.4530   18.4420 C   0  0  0  0  0  2  0  0  0  0  0  0
  -30.8490  -18.9410   19.8990 C   0  0  0  0  0  2  0  0  0  0  0  0
  -30.3240  -17.4950   19.9600 C   0  0  0  0  0  2  0  0  0  0  0  0
  -30.5340  -16.7770   21.3130 C   0  0  0  0  0  2  0  0  0  0  0  0
  -30.7030  -14.4100   20.5600 C   0  0  0  0  0  0  0  0  0  0  0  0
  -30.3470  -12.3000   19.3470 C   0  0  0  0  0  2  0  0  0  0  0  0
  -29.4050  -12.5490   18.1530 C   0  0  0  0  0  2  0  0  0  0  0  0
  -27.9330  -12.4210   18.5810 C   0  0  0  0  0  2  0  0  0  0  0  0
  -27.6100  -13.2370   19.8600 C   0  0  0  0  0  3  0  0  0  0  0  0
  -28.6630  -12.9800   20.9620 C   0  0  0  0  0  2  0  0  0  0  0  0
  -29.9950  -13.2620   20.4010 N   0  0  0  0  0  0  0  0  0  0  0  0
  -31.7940  -14.6120   20.0220 O   0  0  0  0  0  0  0  0  0  0  0  0
  -30.0840  -15.3820   21.2460 N   0  0  0  0  0  0  0  0  0  0  0  0
  -29.1960  -15.1520   21.6680 H   0  0  0  0  0  0  0  0  0  0  0  0
  -25.2070  -13.8470   20.5530 C   0  0  0  0  0  0  0  0  0  0  0  0
  -24.1390  -13.0750   20.9200 C   0  0  0  0  0  0  0  0  0  0  0  0
  -24.5990  -11.7220   20.8920 C   0  0  0  0  0  0  0  0  0  0  0  0
  -26.2540  -12.9650   20.3300 N   0  0  0  0  0  0  0  0  0  0  0  0
  -25.8890  -11.6830   20.5880 N   0  0  0  0  0  0  0  0  0  0  0  0
  -23.8710  -10.4600   21.0810 C   0  0  0  0  0  0  0  0  0  0  0  0
  -24.3100   -9.4860   22.0040 C   0  0  0  0  0  3  0  0  0  0  0  0
  -23.5860   -8.2890   22.1800 C   0  0  0  0  0  3  0  0  0  0  0  0
  -22.4050   -8.0570   21.4330 C   0  0  0  0  0  0  0  0  0  0  0  0
  -21.9850   -9.0200   20.4990 C   0  0  0  0  0  3  0  0  0  0  0  0
  -22.7100  -10.2090   20.3220 C   0  0  0  0  0  3  0  0  0  0  0  0
  -21.6510   -6.9110   21.5180 O   0  0  0  0  0  0  0  0  0  0  0  0
  -21.6200   -6.1520   22.6600 C   0  0  0  0  0  0  0  0  0  0  0  0
  -21.2260   -6.6920   23.9030 C   0  0  0  0  0  3  0  0  0  0  0  0
  -21.1490   -5.8610   25.0390 C   0  0  0  0  0  3  0  0  0  0  0  0
  -21.4490   -4.4910   24.9310 C   0  0  0  0  0  0  0  0  0  0  0  0
  -21.8310   -3.9490   23.6900 C   0  0  0  0  0  3  0  0  0  0  0  0
  -21.9150   -4.7780   22.5590 C   0  0  0  0  0  0  0  0  0  0  0  0
  -22.2670   -4.2470   21.3620 F   0  0  0  0  0  0  0  0  0  0  0  0
  -21.3640   -3.6900   26.0190 F   0  0  0  0  0  0  0  0  0  0  0  0
  -22.7400  -13.5510   21.1890 C   0  0  0  0  0  0  0  0  0  0  0  0
  -22.0110  -12.8560   22.0540 N   0  0  0  0  0  0  0  0  0  0  0  0
  -22.3030  -14.5770   20.6670 O   0  0  0  0  0  0  0  0  0  0  0  0
  -22.3760  -12.0230   22.4930 H   0  0  0  0  0  0  0  0  0  0  0  0
  -21.0740  -13.1600   22.2790 H   0  0  0  0  0  0  0  0  0  0  0  0
  -25.3730  -15.2170   20.3720 N   0  0  0  0  0  0  0  0  0  0  0  0
  -24.6050  -15.8710   20.4740 H   0  0  0  0  0  0  0  0  0  0  0  0
  -26.2270  -15.6570   20.0490 H   0  0  0  0  0  0  0  0  0  0  0  0
  -32.0200  -24.1060   20.1980 C   0  0  0  0  0  2  0  0  0  0  0  0
  -30.8990  -25.1150   20.5320 C   0  0  0  0  0  2  0  0  0  0  0  0
  -29.4720  -24.5550   20.3780 C   0  0  0  0  0  2  0  0  0  0  0  0
  -28.3800  -25.5120   20.8650 C   0  0  0  0  0  2  0  0  0  0  0  0
  -28.4280  -26.7340   20.1310 O   0  0  0  0  0  0  0  0  0  0  0  0
  -24.6170  -31.8690   23.2250 C   0  0  0  0  0  0  0  0  0  0  0  0
  -27.2560  -27.4460   20.1490 C   0  0  0  0  0  0  0  0  0  0  0  0
  -23.4040  -30.4600   21.5930 C   0  0  0  0  0  3  0  0  0  0  0  0
  -24.8550  -28.9220   20.1660 C   0  0  0  0  0  0  0  0  0  0  0  0
  -25.9240  -30.8310   21.3790 C   0  0  0  0  0  2  0  0  0  0  0  0
  -26.0120  -29.4600   20.7450 C   0  0  0  0  0  0  0  0  0  0  0  0
  -27.2190  -28.7290   20.7330 C   0  0  0  0  0  3  0  0  0  0  0  0
  -26.0870  -26.9160   19.5650 C   0  0  0  0  0  3  0  0  0  0  0  0
  -24.8850  -27.6470   19.5740 C   0  0  0  0  0  3  0  0  0  0  0  0
  -23.6090  -29.7750   20.2130 C   0  0  0  0  0  2  0  0  0  0  0  0
  -24.6670  -31.0680   22.1250 N   0  0  0  0  0  0  0  0  0  0  0  0
  -23.5390  -32.1400   23.7700 O   0  0  0  0  0  0  0  0  0  0  0  0
  -22.7600  -29.4400   22.5570 C   0  0  0  0  0  0  0  0  0  0  0  0
  -21.4340  -29.2610   22.4400 N   0  0  0  0  0  0  0  0  0  0  0  0
  -23.4490  -28.8120   23.3660 O   0  0  0  0  0  0  0  0  0  0  0  0
  -20.9400  -29.8200   21.7580 H   0  0  0  0  0  0  0  0  0  0  0  0
  -18.0600  -28.0860   22.9620 C   0  0  0  0  0  0  0  0  0  0  0  0
  -20.6210  -28.3260   23.2160 C   0  0  0  0  0  3  0  0  0  0  0  0
  -20.7110  -26.8960   22.6360 C   0  0  0  0  0  2  0  0  0  0  0  0
  -19.5990  -26.5810   21.6310 C   0  0  0  0  0  2  0  0  0  0  0  0
  -18.2240  -26.7350   22.2860 C   0  0  0  0  0  2  0  0  0  0  0  0
  -19.1860  -28.8390   23.3850 C   0  0  0  0  0  0  0  0  0  0  0  0
  -18.9820  -30.1050   23.9770 C   0  0  0  0  0  3  0  0  0  0  0  0
  -17.6810  -30.6150   24.1530 C   0  0  0  0  0  3  0  0  0  0  0  0
  -16.5690  -29.8570   23.7480 C   0  0  0  0  0  3  0  0  0  0  0  0
  -16.7600  -28.5950   23.1580 C   0  0  0  0  0  3  0  0  0  0  0  0
  -25.9060  -32.5000   23.8380 C   0  0  0  0  0  3  0  0  0  0  0  0
  -25.5950  -33.8950   24.1750 N   0  0  0  0  0  0  0  0  0  0  0  0
  -25.9220  -34.9510   23.4170 C   0  0  0  0  0  0  0  0  0  0  0  0
  -26.5880  -34.8520   22.3820 O   0  0  0  0  0  0  0  0  0  0  0  0
  -25.0050  -34.0450   24.9790 H   0  0  0  0  0  0  0  0  0  0  0  0
  -24.1890  -36.7380   23.0710 C   0  0  0  0  0  1  0  0  0  0  0  0
  -25.4310  -36.3350   23.8800 C   0  0  0  0  0  3  0  0  0  0  0  0
  -27.5660  -37.2190   24.7110 C   0  0  0  0  0  1  0  0  0  0  0  0
  -26.4610  -37.3900   23.7720 N   0  0  0  0  0  0  0  0  0  0  0  0
  -26.0540  -38.3090   23.9260 H   0  0  0  0  0  0  0  0  0  0  0  0
  -26.4410  -31.7220   25.1040 C   0  0  1  0  0  0  0  0  0  0  0  0
  -25.3580  -31.4740   26.1810 C   0  0  0  0  0  1  0  0  0  0  0  0
  -27.0250  -30.3500   24.6940 C   0  0  0  0  0  1  0  0  0  0  0  0
  -27.5950  -32.5170   25.7590 C   0  0  0  0  0  1  0  0  0  0  0  0
  1  4  1  0
  2  1  2  0
  2  5  1  0
  4  8  1  0
  4  3  2  0
  5  6  2  0
  6  3  1  0
  6 50  1  0
  7  5  1  0
  8  9  1  0
  9 10  1  0
 10 11  1  0
 12 20  1  0
 13 18  1  0
 14 15  1  0
 14 13  1  0
 16 15  1  0
 16 25  1  0
 16 17  1  0
 18 12  1  0
 18 17  1  0
 19 12  2  0
 20 11  1  0
 20 21  1  0
 22 23  2  0
 23 42  1  0
 24 23  1  0
 24 27  1  0
 25 22  1  0
 25 26  1  0
 26 24  2  0
 27 28  1  0
 28 29  2  0
 30 33  1  0
 30 29  1  0
 31 30  2  0
 32 31  1  0
 32 27  2  0
 33 34  1  0
 34 35  1  0
 35 36  2  0
 37 36  1  0
 37 41  1  0
 38 37  2  0
 39 34  2  0
 39 38  1  0
 40 39  1  0
 42 43  1  0
 43 46  1  0
 43 45  1  0
 44 42  2  0
 47 48  1  0
 47 22  1  0
 49 47  1  0
 50 51  1  0
 52 51  1  0
 52 53  1  0
 54 56  1  0
 54 53  1  0
 55 66  2  0
 56 61  1  0
 57 65  1  0
 57 67  1  0
 58 64  1  0
 58 60  1  0
 59 65  1  0
 60 59  1  0
 61 60  2  0
 62 63  1  0
 62 56  2  0
 63 58  2  0
 64 57  1  0
 65 55  1  0
 67 69  2  0
 68 67  1  0
 70 68  1  0
 71 80  2  0
 71 76  1  0
 72 68  1  0
 72 76  1  0
 73 72  1  0
 74 75  1  0
 74 73  1  0
 75 71  1  0
 76 77  2  0
 77 78  1  0
 79 78  2  0
 80 79  1  0
 81 55  1  0
 81 82  1  0
 81 91  1  0
 82 85  1  0
 83 87  1  0
 83 82  1  0
 84 83  2  0
 87 86  1  0
 89 87  1  0
 89 90  1  0
 89 88  1  0
 91 94  1  1
 91 92  1  0
 93 91  1  0
M  ISO  4  12 100  20 100  53 101  54 101
M  END
>  <TORSDO>  (52) 
F 24

>  <SCORE>  (52) 
-12.357

>  <name>  (52) 
52

>  <ligand_id>  (52) 
52

>  <original_smiles>  (52) 
[H]c1c([H])c([H])c2c(c1[H])C([H])([H])C([H])([H])C([H])([H])C2([H])N([H])C(=O)C1([H])N(C(=O)C([H])(N([H])C(=O)C([H])(N([H])C([H])([H])[H])C([H])([H])[H])C(C([H])([H])[H])(C([H])([H])[H])C([H])([H])[H])C([H])([H])c2c([H])c(OC([H])([H])C([H])([H])C([H])([H])C([H])([H])c3c([H])c(C([H])([H])C([H])([H])C([H])([H])C([H])([H])N([H])C(=O)N4C([H])([H])C([H])([H])C([H])([H])C([H])(n5nc(-c6c([H])c([H])c(Oc7c([H])c([H])c(F)c([H])c7F)c([H])c6[H])c(C(=O)N([H])[H])c5N([H])[H])C4([H])[H])c([H])c([H])c3C([H])([H])[H])c([H])c([H])c2C1([H])[H]

>  <smiles>  (52) 
[H]c1c([H])c([H])c2c(c1[H])C([H])([H])C([H])([H])C([H])([H])C2([H])N([H])C(=O)C1([H])N(C(=O)C([H])(N([H])C(=O)C([H])(N([H])C([H])([H])[H])C([H])([H])[H])C(C([H])([H])[H])(C([H])([H])[H])C([H])([H])[H])C([H])([H])c2c([H])c(OC([H])([H])C([H])([H])C([H])([H])C([H])([H])c3c([H])c(C([H])([H])C([H])([H])C([H])([H])C([H])([H])N([H])C(=O)N4C([H])([H])C([H])([H])C([H])([H])C([H])(n5nc(-c6c([H])c([H])c(Oc7c([H])c([H])c(F)c([H])c7F)c([H])c6[H])c(C(=O)N([H])[H])c5N([H])[H])C4([H])[H])c([H])c([H])c3C([H])([H])[H])c([H])c([H])c2C1([H])[H]

$$$$
53:0:0
     RDKit          3D

100101  0  0  1  0  0  0  0  0999 V2000
  -20.9470  -29.1180   20.6210 C   0  0  0  0  0  2  0  0  0  0  0  0
  -20.8440  -28.5140   22.2830 C   0  0  0  0  0  2  0  0  0  0  0  0
  -20.1430  -24.1090   20.6130 C   0  0  0  0  0  1  0  0  0  0  0  0
  -19.6830  -26.5790   21.5160 C   0  0  0  0  0  1  0  0  0  0  0  0
  -21.6280  -23.3960   21.3860 C   0  0  0  0  0  2  0  0  0  0  0  0
  -22.0960  -25.5540   23.3260 C   0  0  0  0  0  2  0  0  0  0  0  0
  -20.8070  -26.9190   22.7960 C   0  0  0  0  0  3  0  0  0  0  0  0
  -22.8420  -24.0830   22.4640 C   0  0  0  0  0  2  0  0  0  0  0  0
  -24.9490  -23.3020   22.3860 C   0  0  0  0  0 15  0  0  0  0  0  0
  -27.3120  -23.2570   22.0330 C   0  0  0  0  0 15  0  0  0  0  0  0
  -29.4500  -22.2630   21.5860 C   0  0  0  0  0 15  0  0  0  0  0  0
  -31.8470  -22.1480   21.4290 C   0  0  0  0  0 15  0  0  0  0  0  0
  -35.5760  -21.0620   20.8500 C   0  0  0  0  0  0  0  0  0  0  0  0
  -38.2420  -20.5690   19.6800 C   0  0  0  0  0  2  0  0  0  0  0  0
  -38.8120  -21.0870   18.2730 C   0  0  0  0  0  2  0  0  0  0  0  0
  -38.1120  -20.4330   17.0820 C   0  0  0  0  0  2  0  0  0  0  0  0
  -36.6730  -20.1880   17.5430 C   0  0  0  0  0  3  0  0  0  0  0  0
  -36.4840  -19.4240   18.8630 C   0  0  0  0  0  2  0  0  0  0  0  0
  -36.6330  -20.4500   19.8780 N   0  0  0  0  0  0  0  0  0  0  0  0
  -36.5050  -21.4200   21.6690 O   0  0  0  0  0  0  0  0  0  0  0  0
  -33.7800  -21.3370   20.9410 N   0  0  0  0  0  2  0  0  0  0  0  0
  -33.9520  -21.3020   21.9390 H   0  0  0  0  0  0  0  0  0  0  0  0
  -34.4730  -19.8980   16.4800 C   0  0  0  0  0  0  0  0  0  0  0  0
  -34.0380  -19.0840   15.4860 C   0  0  0  0  0  0  0  0  0  0  0  0
  -35.1650  -18.2960   15.0920 C   0  0  0  0  0  0  0  0  0  0  0  0
  -35.8080  -19.5990   16.6030 N   0  0  0  0  0  0  0  0  0  0  0  0
  -36.2210  -18.5720   15.8340 N   0  0  0  0  0  0  0  0  0  0  0  0
  -35.3220  -17.3450   13.9980 C   0  0  0  0  0  0  0  0  0  0  0  0
  -35.6640  -15.9950   14.2300 C   0  0  0  0  0  3  0  0  0  0  0  0
  -35.7830  -15.1000   13.1470 C   0  0  0  0  0  3  0  0  0  0  0  0
  -35.5580  -15.5560   11.8250 C   0  0  0  0  0  0  0  0  0  0  0  0
  -35.2450  -16.9080   11.6040 C   0  0  0  0  0  3  0  0  0  0  0  0
  -35.1320  -17.7980   12.6810 C   0  0  0  0  0  3  0  0  0  0  0  0
  -35.6720  -14.7660   10.7080 O   0  0  0  0  0  0  0  0  0  0  0  0
  -35.4020  -13.4230   10.7510 C   0  0  0  0  0  0  0  0  0  0  0  0
  -34.1290  -12.9300   11.1090 C   0  0  0  0  0  3  0  0  0  0  0  0
  -33.8780  -11.5450   11.0700 C   0  0  0  0  0  3  0  0  0  0  0  0
  -34.8910  -10.6560   10.6640 C   0  0  0  0  0  0  0  0  0  0  0  0
  -36.1590  -11.1480   10.3040 C   0  0  0  0  0  3  0  0  0  0  0  0
  -36.4110  -12.5290   10.3450 C   0  0  0  0  0  0  0  0  0  0  0  0
  -37.6260  -13.0030    9.9760 F   0  0  0  0  0  0  0  0  0  0  0  0
  -34.6490   -9.3260   10.6170 F   0  0  0  0  0  0  0  0  0  0  0  0
  -32.6740  -19.1120   14.8790 C   0  0  0  0  0  0  0  0  0  0  0  0
  -32.1470  -17.9490   14.5250 N   0  0  0  0  0  0  0  0  0  0  0  0
  -32.0500  -20.1680   14.7710 O   0  0  0  0  0  0  0  0  0  0  0  0
  -32.6620  -17.0880   14.6340 H   0  0  0  0  0  0  0  0  0  0  0  0
  -31.2160  -17.9160   14.1350 H   0  0  0  0  0  0  0  0  0  0  0  0
  -33.8660  -20.8700   17.2740 N   0  0  0  0  0  0  0  0  0  0  0  0
  -32.8890  -21.1250   17.1740 H   0  0  0  0  0  0  0  0  0  0  0  0
  -34.3370  -21.3900   18.0020 H   0  0  0  0  0  0  0  0  0  0  0  0
  -21.8370  -28.9490   19.1080 C   0  0  0  0  0  2  0  0  0  0  0  0
  -22.3670  -27.5520   18.2630 C   0  0  0  0  0  3  0  0  0  0  0  0
  -23.0890  -27.1090   16.9060 C   0  0  0  0  0  3  0  0  0  0  0  0
  -23.1050  -25.5950   16.3980 N   0  0  2  0  0  4  0  0  0  0  0  0
  -24.1020  -25.4420   16.3760 H   0  0  0  0  0  0  0  0  0  0  0  0
  -22.9720  -26.6750   14.0870 C   0  0  0  0  0  1  0  0  0  0  0  0
  -22.7360  -25.4310   14.9580 C   0  0  0  0  0  2  0  0  0  0  0  0
  -22.6780  -24.3000   17.1650 C   0  0  0  0  0  2  0  0  0  0  0  0
  -23.3350  -22.8290   16.6970 C   0  0  0  0  0  2  0  0  0  0  0  0
  -23.6770  -21.6660   17.6010 O   0  0  0  0  0  0  0  0  0  0  0  0
  -27.7910  -26.9610   19.4260 C   0  0  0  0  0  0  0  0  0  0  0  0
  -24.8640  -21.9060   18.1850 C   0  0  0  0  0  0  0  0  0  0  0  0
  -28.3880  -25.1880   17.8130 C   0  0  0  0  0  3  0  0  0  0  0  0
  -27.3830  -22.9570   18.0830 C   0  0  0  0  0  0  0  0  0  0  0  0
  -26.9450  -24.6670   19.8020 C   0  0  0  0  0  2  0  0  0  0  0  0
  -26.4600  -23.5220   18.9510 C   0  0  0  0  0  0  0  0  0  0  0  0
  -25.1440  -23.0360   18.9800 C   0  0  0  0  0  3  0  0  0  0  0  0
  -25.8950  -21.1320   17.6650 C   0  0  0  0  0  3  0  0  0  0  0  0
  -27.1420  -21.7180   17.5080 C   0  0  0  0  0  3  0  0  0  0  0  0
  -28.6670  -23.6930   17.9500 C   0  0  0  0  0  2  0  0  0  0  0  0
  -27.6980  -25.6700   19.0280 N   0  0  0  0  0  0  0  0  0  0  0  0
  -28.4620  -27.7960   18.8060 O   0  0  0  0  0  0  0  0  0  0  0  0
  -27.5310  -25.5000   16.5220 C   0  0  0  0  0  0  0  0  0  0  0  0
  -28.0780  -25.3710   15.2660 N   0  0  0  0  0  0  0  0  0  0  0  0
  -26.3590  -25.8150   16.6760 O   0  0  0  0  0  0  0  0  0  0  0  0
  -29.0240  -25.0170   15.3460 H   0  0  0  0  0  0  0  0  0  0  0  0
  -30.0430  -26.0650   12.0120 C   0  0  0  0  0  3  0  0  0  0  0  0
  -27.9160  -25.7490   13.7900 C   0  0  0  0  0  3  0  0  0  0  0  0
  -27.3390  -25.1180   12.5840 C   0  0  0  0  0  2  0  0  0  0  0  0
  -28.3660  -24.3340   11.7910 C   0  0  0  0  0  2  0  0  0  0  0  0
  -29.5080  -25.0710   11.1160 C   0  0  0  0  0  2  0  0  0  0  0  0
  -28.8380  -26.7440   13.0720 C   0  0  0  0  0  2  0  0  0  0  0  0
  -29.3690  -29.1440   13.5480 C   0  0  0  0  0  1  0  0  0  0  0  0
  -30.9610  -29.5610   12.8150 C   0  0  0  0  0  2  0  0  0  0  0  0
  -31.8390  -28.4530   11.8720 C   0  0  0  0  0  3  0  0  0  0  0  0
  -31.4090  -26.8990   11.4950 C   0  0  0  0  0  3  0  0  0  0  0  0
  -27.0670  -27.4110   20.7270 C   0  0  0  0  0  3  0  0  0  0  0  0
  -27.8750  -28.4650   21.3560 N   0  0  0  0  0  0  0  0  0  0  0  0
  -28.5240  -28.3180   22.5190 C   0  0  0  0  0  0  0  0  0  0  0  0
  -28.4560  -27.2920   23.2020 O   0  0  0  0  0  0  0  0  0  0  0  0
  -28.0160  -29.3100   20.8210 H   0  0  0  0  0  0  0  0  0  0  0  0
  -30.8610  -29.2050   22.7400 C   0  0  0  0  0  1  0  0  0  0  0  0
  -29.3780  -29.5020   23.0060 C   0  0  0  0  0  3  0  0  0  0  0  0
  -27.8580  -30.3830   24.7190 C   0  0  0  0  0  1  0  0  0  0  0  0
  -29.1770  -29.8260   24.4340 N   0  0  0  0  0  0  0  0  0  0  0  0
  -29.8780  -30.4910   24.7530 H   0  0  0  0  0  0  0  0  0  0  0  0
  -25.5910  -27.8920   20.4650 C   0  0  1  0  0  0  0  0  0  0  0  0
  -25.4590  -28.8720   19.2760 C   0  0  0  0  0  1  0  0  0  0  0  0
  -24.6390  -26.7030   20.1880 C   0  0  0  0  0  1  0  0  0  0  0  0
  -25.0520  -28.5890   21.7350 C   0  0  0  0  0  1  0  0  0  0  0  0
  1  2  1  0
  2  7  1  0
  3  5  1  0
  5  8  1  0
  7  4  1  0
  7  6  1  0
  8  6  1  0
 13 21  1  0
 13 20  2  0
 14 19  1  0
 15 14  1  0
 16 17  1  0
 16 15  1  0
 17 26  1  0
 17 18  1  0
 18 19  1  0
 19 13  1  0
 21 22  1  0
 23 26  1  0
 23 48  1  0
 24 23  2  0
 25 24  1  0
 25 27  2  0
 27 26  1  0
 28 29  1  0
 28 25  1  0
 30 29  2  0
 31 30  1  0
 32 31  2  0
 32 33  1  0
 33 28  2  0
 34 35  1  0
 34 31  1  0
 35 36  1  0
 37 36  2  0
 38 37  1  0
 39 40  1  0
 39 38  2  0
 40 35  2  0
 41 40  1  0
 42 38  1  0
 43 24  1  0
 44 46  1  0
 44 43  1  0
 45 43  2  0
 47 44  1  0
 48 50  1  0
 49 48  1  0
 51  1  1  0
 52 51  1  0
 53 52  2  0
 54 53  1  0
 54 58  1  0
 54 55  1  6
 56 57  1  0
 57 54  1  0
 59 58  1  0
 59 60  1  0
 60 62  1  0
 62 67  1  0
 63 73  1  0
 63 70  1  0
 63 71  1  0
 64 66  1  0
 66 67  2  0
 66 65  1  0
 68 62  2  0
 69 68  1  0
 69 64  2  0
 70 64  1  0
 71 61  1  0
 71 65  1  0
 72 61  2  0
 73 75  2  0
 74 76  1  0
 74 73  1  0
 77 86  1  0
 77 82  1  0
 78 74  1  0
 79 78  1  0
 80 79  1  0
 81 80  1  0
 81 77  1  0
 82 78  1  0
 84 83  1  0
 85 84  1  0
 86 85  2  0
 87 61  1  0
 87 88  1  0
 88 89  1  0
 89 93  1  0
 89 90  2  0
 91 88  1  0
 93 92  1  0
 93 95  1  0
 95 94  1  0
 95 96  1  0
 97 87  1  0
 97100  1  1
 98 97  1  0
 99 97  1  0
M  ISO  4  13 100  21 100  59 101  60 101
M  END
>  <TORSDO>  (53) 
F 29

>  <SCORE>  (53) 
-1.109

>  <name>  (53) 
53

>  <ligand_id>  (53) 
53

>  <original_smiles>  (53) 
[H]c1c([H])c([H])c2c(c1[H])C([H])([H])C([H])([H])C([H])([H])C2([H])N([H])C(=O)C1([H])N(C(=O)C([H])(N([H])C(=O)C([H])(N([H])C([H])([H])[H])C([H])([H])[H])C(C([H])([H])[H])(C([H])([H])[H])C([H])([H])[H])C([H])([H])c2c([H])c(OC([H])([H])C([H])([H])[N+]([H])(C([H])([H])C([H])([H])[H])C([H])([H])C([H])([H])C([H])([H])C([H])([H])C([H])([H])c3c([H])c([H])c([H])c(C([H])([H])C([H])([H])C([H])([H])C([H])([H])N([H])C(=O)N4C([H])([H])C([H])([H])C([H])([H])C([H])(n5nc(-c6c([H])c([H])c(Oc7c([H])c([H])c(F)c([H])c7F)c([H])c6[H])c(C(=O)N([H])[H])c5N([H])[H])C4([H])[H])c3[H])c([H])c([H])c2C1([H])[H]

>  <smiles>  (53) 
[H]c1c([H])c([H])c2c(c1[H])C([H])([H])C([H])([H])C([H])([H])C2([H])N([H])C(=O)C1([H])N(C(=O)C([H])(N([H])C(=O)C([H])(N([H])C([H])([H])[H])C([H])([H])[H])C(C([H])([H])[H])(C([H])([H])[H])C([H])([H])[H])C([H])([H])c2c([H])c(OC([H])([H])C([H])([H])[N+]([H])(C([H])([H])C([H])([H])[H])C([H])([H])C([H])([H])C([H])([H])C([H])([H])C([H])([H])c3c([H])c([H])c([H])c(C([H])([H])C([H])([H])C([H])([H])C([H])([H])N([H])C(=O)N4C([H])([H])C([H])([H])C([H])([H])C([H])(n5nc(-c6c([H])c([H])c(Oc7c([H])c([H])c(F)c([H])c7F)c([H])c6[H])c(C(=O)N([H])[H])c5N([H])[H])C4([H])[H])c3[H])c([H])c([H])c2C1([H])[H]

$$$$
54:0:0
     RDKit          3D

 88 95  0  0  1  0  0  0  0  0999 V2000
  -28.1550  -21.5660   19.9850 C   0  0  0  0  0  2  0  0  0  0  0  0
  -28.1540  -20.2060   20.7480 C   0  0  0  0  0  2  0  0  0  0  0  0
  -29.4590  -19.3640   20.7090 C   0  0  0  0  0  2  0  0  0  0  0  0
  -29.2060  -17.8240   20.7470 C   0  0  0  0  0  2  0  0  0  0  0  0
  -31.7150  -17.3820   20.4350 C   0  0  0  0  0  1  0  0  0  0  0  0
  -30.4180  -16.9250   21.1440 C   0  0  0  0  0  3  0  0  0  0  0  0
  -30.7410  -14.4520   20.4350 C   0  0  0  0  0  0  0  0  0  0  0  0
  -30.4150  -12.2900   19.3020 C   0  0  0  0  0  2  0  0  0  0  0  0
  -29.4730  -12.4650   18.0940 C   0  0  0  0  0  2  0  0  0  0  0  0
  -28.0010  -12.3440   18.5280 C   0  0  0  0  0  2  0  0  0  0  0  0
  -27.6610  -13.2130   19.7670 C   0  0  0  0  0  3  0  0  0  0  0  0
  -28.7110  -13.0090   20.8850 C   0  0  0  0  0  2  0  0  0  0  0  0
  -30.0400  -13.2930   20.3170 N   0  0  0  0  0  0  0  0  0  0  0  0
  -31.8610  -14.5870   19.9390 O   0  0  0  0  0  0  0  0  0  0  0  0
  -30.0730  -15.4820   20.9960 N   0  0  0  0  0  0  0  0  0  0  0  0
  -29.1700  -15.2160   21.3500 H   0  0  0  0  0  0  0  0  0  0  0  0
  -25.2570  -13.8580   20.4350 C   0  0  0  0  0  0  0  0  0  0  0  0
  -24.1760  -13.1030   20.8040 C   0  0  0  0  0  0  0  0  0  0  0  0
  -24.6230  -11.7440   20.7970 C   0  0  0  0  0  0  0  0  0  0  0  0
  -26.2970  -12.9620   20.2330 N   0  0  0  0  0  0  0  0  0  0  0  0
  -25.9170  -11.6880   20.5060 N   0  0  0  0  0  0  0  0  0  0  0  0
  -23.8860  -10.4910   20.9920 C   0  0  0  0  0  0  0  0  0  0  0  0
  -24.3030   -9.5290   21.9390 C   0  0  0  0  0  3  0  0  0  0  0  0
  -23.5650   -8.3380   22.1230 C   0  0  0  0  0  3  0  0  0  0  0  0
  -22.3960   -8.1040   21.3630 C   0  0  0  0  0  0  0  0  0  0  0  0
  -21.9960   -9.0570   20.4070 C   0  0  0  0  0  3  0  0  0  0  0  0
  -22.7360  -10.2360   20.2210 C   0  0  0  0  0  3  0  0  0  0  0  0
  -21.6290   -6.9670   21.4590 O   0  0  0  0  0  0  0  0  0  0  0  0
  -21.5730   -6.2330   22.6160 C   0  0  0  0  0  0  0  0  0  0  0  0
  -21.1570   -6.8020   23.8390 C   0  0  0  0  0  3  0  0  0  0  0  0
  -21.0450   -5.9970   24.9910 C   0  0  0  0  0  3  0  0  0  0  0  0
  -21.3390   -4.6220   24.9180 C   0  0  0  0  0  0  0  0  0  0  0  0
  -21.7490   -4.0510   23.7000 C   0  0  0  0  0  3  0  0  0  0  0  0
  -21.8610   -4.8550   22.5520 C   0  0  0  0  0  0  0  0  0  0  0  0
  -22.2340   -4.2960   21.3750 F   0  0  0  0  0  0  0  0  0  0  0  0
  -21.2260   -3.8460   26.0220 F   0  0  0  0  0  0  0  0  0  0  0  0
  -22.7810  -13.5970   21.0520 C   0  0  0  0  0  0  0  0  0  0  0  0
  -22.0340  -12.9200   21.9150 N   0  0  0  0  0  0  0  0  0  0  0  0
  -22.3600  -14.6210   20.5130 O   0  0  0  0  0  0  0  0  0  0  0  0
  -22.3820  -12.0940   22.3790 H   0  0  0  0  0  0  0  0  0  0  0  0
  -21.0930  -13.2310   22.1140 H   0  0  0  0  0  0  0  0  0  0  0  0
  -25.4390  -15.2240   20.2340 N   0  0  0  0  0  0  0  0  0  0  0  0
  -24.6850  -15.8930   20.3470 H   0  0  0  0  0  0  0  0  0  0  0  0
  -26.2960  -15.6520   19.9040 H   0  0  0  0  0  0  0  0  0  0  0  0
  -28.3750  -22.8440   20.8460 C   0  0  0  0  0  2  0  0  0  0  0  0
  -28.0490  -24.1850   20.1170 C   0  0  0  0  0  2  0  0  0  0  0  0
  -28.3760  -25.4640   20.9330 C   0  0  0  0  0  2  0  0  0  0  0  0
  -28.3960  -26.6810   20.1570 O   0  0  0  0  0  0  0  0  0  0  0  0
  -24.6000  -31.8810   23.2300 C   0  0  0  0  0  0  0  0  0  0  0  0
  -27.2380  -27.4260   20.1630 C   0  0  0  0  0  0  0  0  0  0  0  0
  -23.3950  -30.4780   21.5870 C   0  0  0  0  0  3  0  0  0  0  0  0
  -24.8490  -28.9410   20.1640 C   0  0  0  0  0  0  0  0  0  0  0  0
  -25.9220  -30.8330   21.4000 C   0  0  0  0  0  2  0  0  0  0  0  0
  -26.0060  -29.4630   20.7580 C   0  0  0  0  0  0  0  0  0  0  0  0
  -27.2040  -28.7110   20.7590 C   0  0  0  0  0  3  0  0  0  0  0  0
  -26.0700  -26.9290   19.5510 C   0  0  0  0  0  3  0  0  0  0  0  0
  -24.8760  -27.6740   19.5600 C   0  0  0  0  0  3  0  0  0  0  0  0
  -23.6040  -29.7980   20.2070 C   0  0  0  0  0  2  0  0  0  0  0  0
  -24.6570  -31.0800   22.1290 N   0  0  0  0  0  0  0  0  0  0  0  0
  -23.5180  -32.1520   23.7700 O   0  0  0  0  0  0  0  0  0  0  0  0
  -22.7500  -29.4540   22.5470 C   0  0  0  0  0  0  0  0  0  0  0  0
  -21.4250  -29.2720   22.4250 N   0  0  0  0  0  0  0  0  0  0  0  0
  -23.4360  -28.8280   23.3600 O   0  0  0  0  0  0  0  0  0  0  0  0
  -20.9340  -29.8310   21.7420 H   0  0  0  0  0  0  0  0  0  0  0  0
  -18.0520  -28.0880   22.9300 C   0  0  0  0  0  0  0  0  0  0  0  0
  -20.6110  -28.3320   23.1950 C   0  0  0  0  0  3  0  0  0  0  0  0
  -20.7100  -26.9070   22.6070 C   0  0  0  0  0  2  0  0  0  0  0  0
  -19.6020  -26.5950   21.5940 C   0  0  0  0  0  2  0  0  0  0  0  0
  -18.2230  -26.7420   22.2440 C   0  0  0  0  0  2  0  0  0  0  0  0
  -19.1730  -28.8430   23.3600 C   0  0  0  0  0  0  0  0  0  0  0  0
  -18.9610  -30.1030   23.9580 C   0  0  0  0  0  3  0  0  0  0  0  0
  -17.6600  -30.6100   24.1330 C   0  0  0  0  0  3  0  0  0  0  0  0
  -16.5520  -29.8520   23.7220 C   0  0  0  0  0  3  0  0  0  0  0  0
  -16.7490  -28.5930   23.1260 C   0  0  0  0  0  3  0  0  0  0  0  0
  -25.8870  -32.5150   23.8420 C   0  0  0  0  0  3  0  0  0  0  0  0
  -25.5760  -33.9110   24.1790 N   0  0  0  0  0  0  0  0  0  0  0  0
  -25.9020  -34.9660   23.4200 C   0  0  0  0  0  0  0  0  0  0  0  0
  -26.5630  -34.8670   22.3840 O   0  0  0  0  0  0  0  0  0  0  0  0
  -24.9930  -34.0610   24.9880 H   0  0  0  0  0  0  0  0  0  0  0  0
  -24.1640  -36.7470   23.0790 C   0  0  0  0  0  1  0  0  0  0  0  0
  -25.4110  -36.3510   23.8840 C   0  0  0  0  0  3  0  0  0  0  0  0
  -27.5460  -37.2420   24.7060 C   0  0  0  0  0  1  0  0  0  0  0  0
  -26.4400  -37.4080   23.7670 N   0  0  0  0  0  0  0  0  0  0  0  0
  -26.0320  -38.3270   23.9170 H   0  0  0  0  0  0  0  0  0  0  0  0
  -26.4130  -31.7440   25.1130 C   0  0  1  0  0  0  0  0  0  0  0  0
  -25.3260  -31.4950   26.1830 C   0  0  0  0  0  1  0  0  0  0  0  0
  -27.0020  -30.3720   24.7150 C   0  0  0  0  0  1  0  0  0  0  0  0
  -27.5640  -32.5390   25.7720 C   0  0  0  0  0  1  0  0  0  0  0  0
  1  2  1  0
  1 45  1  0
  3  4  1  0
  3  2  1  0
  4  6  1  0
  6  5  1  0
  7 15  1  0
  8 13  1  0
  9 10  1  0
  9  8  1  0
 11 10  1  0
 11 20  1  0
 11 12  1  0
 13  7  1  0
 13 12  1  0
 14  7  2  0
 15  6  1  0
 15 16  1  0
 17 18  2  0
 18 37  1  0
 19 18  1  0
 19 22  1  0
 20 17  1  0
 20 21  1  0
 21 19  2  0
 22 23  1  0
 23 24  2  0
 25 28  1  0
 25 24  1  0
 26 25  2  0
 27 26  1  0
 27 22  2  0
 28 29  1  0
 29 30  1  0
 30 31  2  0
 32 31  1  0
 32 36  1  0
 33 32  2  0
 34 29  2  0
 34 33  1  0
 35 34  1  0
 37 38  1  0
 38 41  1  0
 38 40  1  0
 39 37  2  0
 42 43  1  0
 42 17  1  0
 44 42  1  0
 46 45  1  0
 46 47  1  0
 48 50  1  0
 48 47  1  0
 49 60  2  0
 50 55  1  0
 51 59  1  0
 51 61  1  0
 52 58  1  0
 52 54  1  0
 53 59  1  0
 54 55  2  0
 54 53  1  0
 56 57  1  0
 56 50  2  0
 57 52  2  0
 58 51  1  0
 59 49  1  0
 61 63  2  0
 62 61  1  0
 64 62  1  0
 65 74  2  0
 65 70  1  0
 66 62  1  0
 66 70  1  0
 67 66  1  0
 68 69  1  0
 68 67  1  0
 69 65  1  0
 70 71  2  0
 71 72  1  0
 73 72  2  0
 74 73  1  0
 75 49  1  0
 75 76  1  0
 75 85  1  0
 76 79  1  0
 77 81  1  0
 77 76  1  0
 78 77  2  0
 81 80  1  0
 83 81  1  0
 83 84  1  0
 83 82  1  0
 85 88  1  1
 85 86  1  0
 87 85  1  0
M  ISO  4   7 100  15 100  47 101  48 101
M  END
>  <TORSDO>  (54) 
F 23

>  <SCORE>  (54) 
-12.586

>  <name>  (54) 
54

>  <ligand_id>  (54) 
54

>  <original_smiles>  (54) 
[H]c1c([H])c([H])c2c(c1[H])C([H])([H])C([H])([H])C([H])([H])C2([H])N([H])C(=O)C1([H])N(C(=O)C([H])(N([H])C(=O)C([H])(N([H])C([H])([H])[H])C([H])([H])[H])C(C([H])([H])[H])(C([H])([H])[H])C([H])([H])[H])C([H])([H])c2c([H])c(OC([H])([H])C([H])([H])C([H])([H])C([H])([H])C([H])([H])C([H])([H])C([H])([H])C([H])(N([H])C(=O)N3C([H])([H])C([H])([H])C([H])([H])C([H])(n4nc(-c5c([H])c([H])c(Oc6c([H])c([H])c(F)c([H])c6F)c([H])c5[H])c(C(=O)N([H])[H])c4N([H])[H])C3([H])[H])C([H])([H])[H])c([H])c([H])c2C1([H])[H]

>  <smiles>  (54) 
[H]c1c([H])c([H])c2c(c1[H])C([H])([H])C([H])([H])C([H])([H])C2([H])N([H])C(=O)C1([H])N(C(=O)C([H])(N([H])C(=O)C([H])(N([H])C([H])([H])[H])C([H])([H])[H])C(C([H])([H])[H])(C([H])([H])[H])C([H])([H])[H])C([H])([H])c2c([H])c(OC([H])([H])C([H])([H])C([H])([H])C([H])([H])C([H])([H])C([H])([H])C([H])([H])C([H])(N([H])C(=O)N3C([H])([H])C([H])([H])C([H])([H])C([H])(n4nc(-c5c([H])c([H])c(Oc6c([H])c([H])c(F)c([H])c6F)c([H])c5[H])c(C(=O)N([H])[H])c4N([H])[H])C3([H])[H])C([H])([H])[H])c([H])c([H])c2C1([H])[H]

$$$$
55:0:0
     RDKit          3D

107114  0  0  1  0  0  0  0  0999 V2000
  -26.7790  -19.7000   20.1100 N   0  0  0  0  0  4  0  0  0  0  0  0
  -25.7790  -19.5820   20.0670 H   0  0  0  0  0  0  0  0  0  0  0  0
  -27.0770  -19.4370   21.0360 H   0  0  0  0  0  0  0  0  0  0  0  0
  -27.3970  -18.7720   19.1310 C   0  0  0  0  0  3  0  0  0  0  0  0
  -26.7980  -17.3500   19.2370 C   0  0  0  0  0  2  0  0  0  0  0  0
  -25.2630  -17.3290   19.3840 C   0  0  0  0  0  2  0  0  0  0  0  0
  -24.6910  -15.9190   19.6200 C   0  0  0  0  0  2  0  0  0  0  0  0
  -23.1630  -15.9420   19.7910 C   0  0  0  0  0  2  0  0  0  0  0  0
  -22.5380  -14.5440   19.9740 C   0  0  0  0  0  2  0  0  0  0  0  0
  -21.0660  -14.6040   20.0260 N   0  0  0  0  0  4  0  0  0  0  0  0
  -20.7550  -15.1710   20.7950 H   0  0  0  0  0  0  0  0  0  0  0  0
  -20.6890  -13.6810   20.1470 H   0  0  0  0  0  0  0  0  0  0  0  0
  -20.6930  -14.9820   19.1720 H   0  0  0  0  0  0  0  0  0  0  0  0
  -28.9380  -18.7640   19.2720 C   0  0  0  0  0  2  0  0  0  0  0  0
  -29.4850  -17.9330   20.4540 C   0  0  0  0  0  2  0  0  0  0  0  0
  -31.0220  -17.9740   20.5300 C   0  0  0  0  0  2  0  0  0  0  0  0
  -31.6250  -16.9640   21.5280 C   0  0  0  0  0  2  0  0  0  0  0  0
  -31.5750  -14.7740   20.3630 C   0  0  0  0  0  0  0  0  0  0  0  0
  -31.1440  -12.6970   19.1170 C   0  0  0  0  0  2  0  0  0  0  0  0
  -30.0480  -12.9210   18.0580 C   0  0  0  0  0  2  0  0  0  0  0  0
  -28.6510  -12.7070   18.6690 C   0  0  0  0  0  2  0  0  0  0  0  0
  -28.4540  -13.4880   19.9960 C   0  0  0  0  0  3  0  0  0  0  0  0
  -29.6460  -13.2560   20.9510 C   0  0  0  0  0  2  0  0  0  0  0  0
  -30.8890  -13.6110   20.2400 N   0  0  0  0  0  0  0  0  0  0  0  0
  -32.5240  -15.0820   19.6370 O   0  0  0  0  0  0  0  0  0  0  0  0
  -31.1290  -15.6070   21.3100 N   0  0  0  0  0  0  0  0  0  0  0  0
  -30.3670  -15.2840   21.8870 H   0  0  0  0  0  0  0  0  0  0  0  0
  -26.2960  -13.9560   21.3230 C   0  0  0  0  0  0  0  0  0  0  0  0
  -25.2290  -13.1640   21.6430 C   0  0  0  0  0  0  0  0  0  0  0  0
  -25.5250  -11.8720   21.1110 C   0  0  0  0  0  0  0  0  0  0  0  0
  -27.1810  -13.1460   20.6300 N   0  0  0  0  0  0  0  0  0  0  0  0
  -26.7270  -11.8690   20.5500 N   0  0  0  0  0  0  0  0  0  0  0  0
  -24.7080  -10.6540   21.0510 C   0  0  0  0  0  0  0  0  0  0  0  0
  -25.1410   -9.4460   21.6410 C   0  0  0  0  0  3  0  0  0  0  0  0
  -24.3300   -8.2920   21.5860 C   0  0  0  0  0  3  0  0  0  0  0  0
  -23.0720   -8.3390   20.9410 C   0  0  0  0  0  0  0  0  0  0  0  0
  -22.6560   -9.5370   20.3350 C   0  0  0  0  0  3  0  0  0  0  0  0
  -23.4660  -10.6840   20.3860 C   0  0  0  0  0  3  0  0  0  0  0  0
  -22.2290   -7.2610   20.8150 O   0  0  0  0  0  0  0  0  0  0  0  0
  -22.1320   -6.3070   21.7960 C   0  0  0  0  0  0  0  0  0  0  0  0
  -21.7650   -6.6320   23.1190 C   0  0  0  0  0  3  0  0  0  0  0  0
  -21.6080   -5.6110   24.0790 C   0  0  0  0  0  3  0  0  0  0  0  0
  -21.8080   -4.2660   23.7150 C   0  0  0  0  0  0  0  0  0  0  0  0
  -22.1690   -3.9400   22.3950 C   0  0  0  0  0  3  0  0  0  0  0  0
  -22.3270   -4.9570   21.4380 C   0  0  0  0  0  0  0  0  0  0  0  0
  -22.6530   -4.6350   20.1630 F   0  0  0  0  0  0  0  0  0  0  0  0
  -21.6510   -3.2840   24.6320 F   0  0  0  0  0  0  0  0  0  0  0  0
  -23.9640  -13.5980   22.3260 C   0  0  0  0  0  0  0  0  0  0  0  0
  -23.3160  -12.6940   23.0520 N   0  0  0  0  0  0  0  0  0  0  0  0
  -23.5690  -14.7620   22.2580 O   0  0  0  0  0  0  0  0  0  0  0  0
  -23.6520  -11.7450   23.1250 H   0  0  0  0  0  0  0  0  0  0  0  0
  -22.4710  -12.9540   23.5410 H   0  0  0  0  0  0  0  0  0  0  0  0
  -26.5820  -15.2970   21.5520 N   0  0  0  0  0  0  0  0  0  0  0  0
  -25.9190  -15.9150   22.0050 H   0  0  0  0  0  0  0  0  0  0  0  0
  -27.4160  -15.7580   21.2210 H   0  0  0  0  0  0  0  0  0  0  0  0
  -27.0720  -21.1330   19.8840 C   0  0  0  0  0  2  0  0  0  0  0  0
  -26.5220  -22.0370   21.0070 C   0  0  0  0  0  2  0  0  0  0  0  0
  -26.8810  -23.5130   20.7680 C   0  0  0  0  0  2  0  0  0  0  0  0
  -26.5180  -24.4460   21.9380 C   0  0  0  0  0  2  0  0  0  0  0  0
  -27.0620  -25.8850   21.8050 C   0  0  0  0  0  2  0  0  0  0  0  0
  -28.5760  -26.0620   22.0760 C   0  0  0  0  0  2  0  0  0  0  0  0
  -29.4520  -25.8160   20.9060 N   0  0  0  0  0  4  0  0  0  0  0  0
  -29.3440  -24.8720   20.5720 H   0  0  0  0  0  0  0  0  0  0  0  0
  -30.3980  -25.8790   21.2510 H   0  0  0  0  0  0  0  0  0  0  0  0
  -29.3360  -26.7860   19.7870 C   0  0  0  0  0  2  0  0  0  0  0  0
  -28.5180  -26.2220   18.6110 C   0  0  0  0  0  2  0  0  0  0  0  0
  -28.0390  -27.2640   17.7690 O   0  0  0  0  0  0  0  0  0  0  0  0
  -24.5360  -31.0610   22.6420 C   0  0  0  0  0  0  0  0  0  0  0  0
  -26.8450  -27.8080   18.1670 C   0  0  0  0  0  0  0  0  0  0  0  0
  -23.1350  -29.9870   20.9050 C   0  0  0  0  0  3  0  0  0  0  0  0
  -24.3990  -28.9810   18.9340 C   0  0  0  0  0  0  0  0  0  0  0  0
  -25.5540  -30.6380   20.4090 C   0  0  0  0  0  2  0  0  0  0  0  0
  -25.6070  -29.4740   19.4450 C   0  0  0  0  0  0  0  0  0  0  0  0
  -26.8340  -28.8980   19.0610 C   0  0  0  0  0  3  0  0  0  0  0  0
  -25.6250  -27.3050   17.6670 C   0  0  0  0  0  3  0  0  0  0  0  0
  -24.4010  -27.8890   18.0470 C   0  0  0  0  0  3  0  0  0  0  0  0
  -23.1360  -29.6780   19.3850 C   0  0  0  0  0  2  0  0  0  0  0  0
  -24.4360  -30.5630   21.3770 N   0  0  0  0  0  0  0  0  0  0  0  0
  -23.5560  -31.0880   23.3990 O   0  0  0  0  0  0  0  0  0  0  0  0
  -22.7190  -28.7070   21.6630 C   0  0  0  0  0  0  0  0  0  0  0  0
  -21.4130  -28.3990   21.6370 N   0  0  0  0  0  0  0  0  0  0  0  0
  -23.5600  -28.0030   22.2280 O   0  0  0  0  0  0  0  0  0  0  0  0
  -20.7870  -29.0290   21.1560 H   0  0  0  0  0  0  0  0  0  0  0  0
  -18.2800  -26.6530   22.0580 C   0  0  0  0  0  0  0  0  0  0  0  0
  -20.7950  -27.2220   22.2440 C   0  0  0  0  0  3  0  0  0  0  0  0
  -21.0410  -25.9590   21.3880 C   0  0  0  0  0  2  0  0  0  0  0  0
  -19.9150  -25.6790   20.3880 C   0  0  0  0  0  2  0  0  0  0  0  0
  -18.5800  -25.4960   21.1190 C   0  0  0  0  0  2  0  0  0  0  0  0
  -19.3180  -27.4730   22.5730 C   0  0  0  0  0  0  0  0  0  0  0  0
  -18.9810  -28.5580   23.4110 C   0  0  0  0  0  3  0  0  0  0  0  0
  -17.6390  -28.8270   23.7380 C   0  0  0  0  0  3  0  0  0  0  0  0
  -16.6170  -27.9990   23.2410 C   0  0  0  0  0  3  0  0  0  0  0  0
  -16.9390  -26.9150   22.4080 C   0  0  0  0  0  3  0  0  0  0  0  0
  -25.8790  -31.6410   23.1900 C   0  0  0  0  0  3  0  0  0  0  0  0
  -25.5690  -32.9000   23.8790 N   0  0  0  0  0  0  0  0  0  0  0  0
  -25.7900  -34.1190   23.3710 C   0  0  0  0  0  0  0  0  0  0  0  0
  -26.3500  -34.3010   22.2860 O   0  0  0  0  0  0  0  0  0  0  0  0
  -25.0640  -32.8290   24.7510 H   0  0  0  0  0  0  0  0  0  0  0  0
  -23.9950  -35.8580   23.6070 C   0  0  0  0  0  1  0  0  0  0  0  0
  -25.3140  -35.3290   24.1940 C   0  0  0  0  0  3  0  0  0  0  0  0
  -27.4960  -36.0730   25.0380 C   0  0  0  0  0  1  0  0  0  0  0  0
  -26.3080  -36.4240   24.2620 N   0  0  0  0  0  0  0  0  0  0  0  0
  -25.8980  -37.2590   24.6700 H   0  0  0  0  0  0  0  0  0  0  0  0
  -26.6380  -30.6470   24.1520 C   0  0  1  0  0  0  0  0  0  0  0  0
  -25.7530  -30.0940   25.2940 C   0  0  0  0  0  1  0  0  0  0  0  0
  -27.2020  -29.4460   23.3550 C   0  0  0  0  0  1  0  0  0  0  0  0
  -27.8500  -31.3600   24.7930 C   0  0  0  0  0  1  0  0  0  0  0  0
  1  3  1  0
  2  1  1  0
  4  5  1  0
  4 14  1  0
  4  1  1  0
  5  6  1  0
  6  7  1  0
  7  8  1  0
  8  9  1  0
  9 10  1  0
 10 12  1  0
 10 11  1  0
 13 10  1  0
 14 15  1  0
 15 16  1  0
 16 17  1  0
 18 26  1  0
 19 24  1  0
 20 21  1  0
 20 19  1  0
 22 21  1  0
 22 31  1  0
 22 23  1  0
 24 18  1  0
 24 23  1  0
 25 18  2  0
 26 17  1  0
 26 27  1  0
 28 53  1  0
 28 29  2  0
 29 48  1  0
 30 29  1  0
 31 28  1  0
 32 31  1  0
 32 30  2  0
 33 30  1  0
 33 34  1  0
 35 34  2  0
 36 35  1  0
 37 38  1  0
 37 36  2  0
 38 33  2  0
 39 36  1  0
 39 40  1  0
 40 41  1  0
 41 42  2  0
 43 42  1  0
 43 47  1  0
 44 43  2  0
 45 40  2  0
 45 44  1  0
 46 45  1  0
 48 49  1  0
 49 51  1  0
 49 52  1  0
 50 48  2  0
 53 54  1  0
 55 53  1  0
 56  1  1  0
 56 57  1  0
 58 57  1  0
 58 59  1  0
 60 59  1  0
 60 61  1  0
 62 64  1  0
 62 61  1  0
 63 62  1  0
 65 62  1  0
 66 65  1  0
 67 69  1  0
 67 66  1  0
 68 79  2  0
 69 74  1  0
 70 78  1  0
 70 80  1  0
 71 77  1  0
 71 73  1  0
 72 78  1  0
 73 72  1  0
 74 73  2  0
 75 76  1  0
 75 69  2  0
 76 71  2  0
 77 70  1  0
 78 68  1  0
 80 82  2  0
 81 80  1  0
 83 81  1  0
 84 93  2  0
 84 89  1  0
 85 81  1  0
 85 89  1  0
 86 85  1  0
 87 88  1  0
 87 86  1  0
 88 84  1  0
 89 90  2  0
 90 91  1  0
 92 91  2  0
 93 92  1  0
 94 68  1  0
 94 95  1  0
 94104  1  0
 95 98  1  0
 96 95  1  0
 96100  1  0
 97 96  2  0
100 99  1  0
100102  1  0
102103  1  0
102101  1  0
104107  1  1
104105  1  0
106104  1  0
M  ISO  4  18 100  26 100  66 101  67 101
M  END
>  <TORSDO>  (55) 
F 36

>  <SCORE>  (55) 
-0.372

>  <name>  (55) 
55

>  <ligand_id>  (55) 
55

>  <original_smiles>  (55) 
[H]c1c([H])c([H])c2c(c1[H])C([H])([H])C([H])([H])C([H])([H])C2([H])N([H])C(=O)C1([H])N(C(=O)C([H])(N([H])C(=O)C([H])(N([H])C([H])([H])[H])C([H])([H])[H])C(C([H])([H])[H])(C([H])([H])[H])C([H])([H])[H])C([H])([H])c2c([H])c(OC([H])([H])C([H])([H])[N+]([H])([H])C([H])([H])C([H])([H])C([H])([H])C([H])([H])C([H])([H])C([H])([H])[N+]([H])([H])C([H])(C([H])([H])C([H])([H])C([H])([H])C([H])([H])N([H])C(=O)N3C([H])([H])C([H])([H])C([H])([H])C([H])(n4nc(-c5c([H])c([H])c(Oc6c([H])c([H])c(F)c([H])c6F)c([H])c5[H])c(C(=O)N([H])[H])c4N([H])[H])C3([H])[H])C([H])([H])C([H])([H])C([H])([H])C([H])([H])C([H])([H])[N+]([H])([H])[H])c([H])c([H])c2C1([H])[H]

>  <smiles>  (55) 
[H]c1c([H])c([H])c2c(c1[H])C([H])([H])C([H])([H])C([H])([H])C2([H])N([H])C(=O)C1([H])N(C(=O)C([H])(N([H])C(=O)C([H])(N([H])C([H])([H])[H])C([H])([H])[H])C(C([H])([H])[H])(C([H])([H])[H])C([H])([H])[H])C([H])([H])c2c([H])c(OC([H])([H])C([H])([H])[N+]([H])([H])C([H])([H])C([H])([H])C([H])([H])C([H])([H])C([H])([H])C([H])([H])[N+]([H])([H])C([H])(C([H])([H])C([H])([H])C([H])([H])C([H])([H])N([H])C(=O)N3C([H])([H])C([H])([H])C([H])([H])C([H])(n4nc(-c5c([H])c([H])c(Oc6c([H])c([H])c(F)c([H])c6F)c([H])c5[H])c(C(=O)N([H])[H])c4N([H])[H])C3([H])[H])C([H])([H])C([H])([H])C([H])([H])C([H])([H])C([H])([H])[N+]([H])([H])[H])c([H])c([H])c2C1([H])[H]

$$$$
56:0:0
     RDKit          3D

 94102  0  0  1  0  0  0  0  0999 V2000
  -33.6570  -22.5260   19.8380 C   0  0  0  0  0  3  0  0  0  0  0  0
  -32.8860  -23.5100   20.4870 C   0  0  0  0  0  3  0  0  0  0  0  0
  -33.0780  -21.2930   19.4850 C   0  0  0  0  0  3  0  0  0  0  0  0
  -30.9530  -22.0260   20.4330 C   0  0  0  0  0  3  0  0  0  0  0  0
  -31.5270  -23.2720   20.7870 C   0  0  0  0  0  0  0  0  0  0  0  0
  -31.7210  -21.0390   19.7810 C   0  0  0  0  0  0  0  0  0  0  0  0
  -30.7440  -24.3590   21.5260 C   0  0  0  0  0  2  0  0  0  0  0  0
  -29.2380  -24.4310   21.2390 C   0  0  0  0  0  0  0  0  0  0  0  0
  -28.4110  -24.0830   22.0870 O   0  0  0  0  0  0  0  0  0  0  0  0
  -28.7870  -24.9840   19.8900 C   0  0  0  0  0  2  0  0  0  0  0  0
  -28.4950  -26.4860   19.9460 C   0  0  0  0  0  2  0  0  0  0  0  0
  -27.6530  -26.7860   18.8400 O   0  0  0  0  0  0  0  0  0  0  0  0
  -24.4980  -31.5990   23.0550 C   0  0  0  0  0  0  0  0  0  0  0  0
  -26.5680  -27.5800   19.1130 C   0  0  0  0  0  0  0  0  0  0  0  0
  -23.0660  -30.5430   21.3340 C   0  0  0  0  0  3  0  0  0  0  0  0
  -24.2870  -29.1660   19.5720 C   0  0  0  0  0  0  0  0  0  0  0  0
  -25.5790  -30.7980   20.9570 C   0  0  0  0  0  2  0  0  0  0  0  0
  -25.5180  -29.5340   20.1280 C   0  0  0  0  0  0  0  0  0  0  0  0
  -26.6640  -28.7450   19.9050 C   0  0  0  0  0  3  0  0  0  0  0  0
  -25.3280  -27.2220   18.5520 C   0  0  0  0  0  3  0  0  0  0  0  0
  -24.1820  -28.0050   18.7840 C   0  0  0  0  0  3  0  0  0  0  0  0
  -23.1140  -30.0740   19.8550 C   0  0  0  0  0  2  0  0  0  0  0  0
  -24.4070  -30.9820   21.8440 N   0  0  0  0  0  0  0  0  0  0  0  0
  -23.4850  -31.8460   23.7250 O   0  0  0  0  0  0  0  0  0  0  0  0
  -22.4230  -29.4230   22.1830 C   0  0  0  0  0  0  0  0  0  0  0  0
  -21.0840  -29.3340   22.1410 N   0  0  0  0  0  0  0  0  0  0  0  0
  -23.1230  -28.6440   22.8370 O   0  0  0  0  0  0  0  0  0  0  0  0
  -20.5830  -30.0220   21.5950 H   0  0  0  0  0  0  0  0  0  0  0  0
  -17.6860  -28.2380   22.6880 C   0  0  0  0  0  0  0  0  0  0  0  0
  -20.2650  -28.3360   22.8270 C   0  0  0  0  0  3  0  0  0  0  0  0
  -20.2540  -26.9960   22.0550 C   0  0  0  0  0  2  0  0  0  0  0  0
  -19.0790  -26.8700   21.0790 C   0  0  0  0  0  2  0  0  0  0  0  0
  -17.7480  -26.9880   21.8260 C   0  0  0  0  0  2  0  0  0  0  0  0
  -18.8680  -28.8790   23.1460 C   0  0  0  0  0  0  0  0  0  0  0  0
  -18.7540  -30.0580   23.9150 C   0  0  0  0  0  3  0  0  0  0  0  0
  -17.4920  -30.5940   24.2290 C   0  0  0  0  0  3  0  0  0  0  0  0
  -16.3250  -29.9470   23.7860 C   0  0  0  0  0  3  0  0  0  0  0  0
  -16.4240  -28.7690   23.0230 C   0  0  0  0  0  3  0  0  0  0  0  0
  -25.8720  -32.0460   23.6480 C   0  0  0  0  0  3  0  0  0  0  0  0
  -25.6920  -33.3870   24.2200 N   0  0  0  0  0  0  0  0  0  0  0  0
  -26.0880  -34.5230   23.6310 C   0  0  0  0  0  0  0  0  0  0  0  0
  -26.7150  -34.5440   22.5680 O   0  0  0  0  0  0  0  0  0  0  0  0
  -25.1360  -33.4500   25.0600 H   0  0  0  0  0  0  0  0  0  0  0  0
  -24.5100  -36.4820   23.6480 C   0  0  0  0  0  1  0  0  0  0  0  0
  -25.7310  -35.8470   24.3330 C   0  0  0  0  0  3  0  0  0  0  0  0
  -27.9520  -36.4020   25.2200 C   0  0  0  0  0  1  0  0  0  0  0  0
  -26.8470  -36.8170   24.3600 N   0  0  0  0  0  0  0  0  0  0  0  0
  -26.5250  -37.7280   24.6740 H   0  0  0  0  0  0  0  0  0  0  0  0
  -26.4420  -31.0460   24.7280 C   0  0  1  0  0  0  0  0  0  0  0  0
  -25.4360  -30.7050   25.8500 C   0  0  0  0  0  1  0  0  0  0  0  0
  -26.8750  -29.7210   24.0580 C   0  0  0  0  0  1  0  0  0  0  0  0
  -27.7050  -31.6500   25.3880 C   0  0  0  0  0  1  0  0  0  0  0  0
  -31.0970  -19.6980   19.4310 C   0  0  0  0  0  2  0  0  0  0  0  0
  -31.1240  -18.7310   20.6280 C   0  0  0  0  0  2  0  0  0  0  0  0
  -30.6130  -17.3150   20.3080 C   0  0  0  0  0  2  0  0  0  0  0  0
  -30.9120  -16.3320   21.4600 C   0  0  0  0  0  2  0  0  0  0  0  0
  -30.8980  -14.0650   20.4070 C   0  0  0  0  0  0  0  0  0  0  0  0
  -30.5640  -11.8780   19.3140 C   0  0  0  0  0  2  0  0  0  0  0  0
  -29.6300  -12.0110   18.0960 C   0  0  0  0  0  2  0  0  0  0  0  0
  -28.1530  -11.8980   18.5220 C   0  0  0  0  0  2  0  0  0  0  0  0
  -27.8110  -12.8190   19.7230 C   0  0  0  0  0  3  0  0  0  0  0  0
  -28.8530  -12.6530   20.8540 C   0  0  0  0  0  2  0  0  0  0  0  0
  -30.1910  -12.9090   20.2950 N   0  0  0  0  0  0  0  0  0  0  0  0
  -31.9470  -14.2780   19.7920 O   0  0  0  0  0  0  0  0  0  0  0  0
  -30.3720  -14.9900   21.2240 N   0  0  0  0  0  0  0  0  0  0  0  0
  -29.5380  -14.7310   21.7300 H   0  0  0  0  0  0  0  0  0  0  0  0
  -25.4140  -13.4790   20.3980 C   0  0  0  0  0  0  0  0  0  0  0  0
  -24.3370  -12.7300   20.7950 C   0  0  0  0  0  0  0  0  0  0  0  0
  -24.7880  -11.3750   20.8210 C   0  0  0  0  0  0  0  0  0  0  0  0
  -26.4530  -12.5800   20.2080 N   0  0  0  0  0  0  0  0  0  0  0  0
  -26.0780  -11.3110   20.5170 N   0  0  0  0  0  0  0  0  0  0  0  0
  -24.0500  -10.1260   21.0630 C   0  0  0  0  0  0  0  0  0  0  0  0
  -24.4430   -9.2120   22.0650 C   0  0  0  0  0  3  0  0  0  0  0  0
  -23.7030   -8.0290   22.2880 C   0  0  0  0  0  3  0  0  0  0  0  0
  -22.5570   -7.7530   21.5070 C   0  0  0  0  0  0  0  0  0  0  0  0
  -22.1840   -8.6550   20.4940 C   0  0  0  0  0  3  0  0  0  0  0  0
  -22.9250   -9.8270   20.2700 C   0  0  0  0  0  3  0  0  0  0  0  0
  -21.7910   -6.6180   21.6340 O   0  0  0  0  0  0  0  0  0  0  0  0
  -21.6720   -5.9640   22.8320 C   0  0  0  0  0  0  0  0  0  0  0  0
  -21.1570   -6.6020   23.9820 C   0  0  0  0  0  3  0  0  0  0  0  0
  -20.9860   -5.8730   25.1750 C   0  0  0  0  0  3  0  0  0  0  0  0
  -21.3190   -4.5060   25.2200 C   0  0  0  0  0  0  0  0  0  0  0  0
  -21.8290   -3.8670   24.0740 C   0  0  0  0  0  3  0  0  0  0  0  0
  -22.0010   -4.5930   22.8850 C   0  0  0  0  0  0  0  0  0  0  0  0
  -22.4710   -3.9690   21.7780 F   0  0  0  0  0  0  0  0  0  0  0  0
  -21.1470   -3.8020   26.3640 F   0  0  0  0  0  0  0  0  0  0  0  0
  -22.9440  -13.2310   21.0460 C   0  0  0  0  0  0  0  0  0  0  0  0
  -22.2120  -12.5790   21.9440 N   0  0  0  0  0  0  0  0  0  0  0  0
  -22.5130  -14.2340   20.4800 O   0  0  0  0  0  0  0  0  0  0  0  0
  -22.5730  -11.7670   22.4220 H   0  0  0  0  0  0  0  0  0  0  0  0
  -21.2790  -12.8990   22.1560 H   0  0  0  0  0  0  0  0  0  0  0  0
  -25.5970  -14.8390   20.1640 N   0  0  0  0  0  0  0  0  0  0  0  0
  -24.8470  -15.5180   20.2530 H   0  0  0  0  0  0  0  0  0  0  0  0
  -26.4660  -15.2540   19.8490 H   0  0  0  0  0  0  0  0  0  0  0  0
  1  2  1  0
  2  5  2  0
  3  6  1  0
  3  1  2  0
  4  5  1  0
  5  7  1  0
  6  4  2  0
  8  7  1  0
  8  9  2  0
 10 11  1  0
 10  8  1  0
 12 14  1  0
 12 11  1  0
 13 24  2  0
 14 19  1  0
 15 23  1  0
 15 25  1  0
 16 22  1  0
 16 18  1  0
 17 23  1  0
 18 17  1  0
 19 18  2  0
 20 21  1  0
 20 14  2  0
 21 16  2  0
 22 15  1  0
 23 13  1  0
 25 27  2  0
 26 25  1  0
 28 26  1  0
 29 38  2  0
 29 34  1  0
 30 26  1  0
 30 34  1  0
 31 30  1  0
 32 33  1  0
 32 31  1  0
 33 29  1  0
 34 35  2  0
 35 36  1  0
 37 36  2  0
 38 37  1  0
 39 13  1  0
 39 40  1  0
 39 49  1  0
 40 43  1  0
 41 40  1  0
 41 45  1  0
 42 41  2  0
 45 44  1  0
 45 47  1  0
 47 48  1  0
 47 46  1  0
 49 52  1  1
 49 50  1  0
 51 49  1  0
 53  6  1  0
 53 54  1  0
 55 54  1  0
 55 56  1  0
 57 65  1  0
 58 63  1  0
 59 60  1  0
 59 58  1  0
 61 60  1  0
 61 70  1  0
 61 62  1  0
 63 57  1  0
 63 62  1  0
 64 57  2  0
 65 56  1  0
 65 66  1  0
 67 68  2  0
 68 69  1  0
 68 87  1  0
 69 72  1  0
 70 67  1  0
 70 71  1  0
 71 69  2  0
 72 73  1  0
 73 74  2  0
 75 78  1  0
 75 74  1  0
 76 75  2  0
 77 76  1  0
 77 72  2  0
 78 79  1  0
 79 84  2  0
 79 80  1  0
 80 81  2  0
 81 82  1  0
 82 86  1  0
 83 82  2  0
 84 83  1  0
 85 84  1  0
 87 88  1  0
 88 91  1  0
 88 90  1  0
 89 87  2  0
 92 93  1  0
 92 67  1  0
 94 92  1  0
M  ISO  4  11 101  12 101  57 100  65 100
M  END
>  <TORSDO>  (56) 
F 24

>  <SCORE>  (56) 
-10.603

>  <name>  (56) 
56

>  <ligand_id>  (56) 
56

>  <original_smiles>  (56) 
[H]c1c([H])c(C([H])([H])C(=O)C([H])([H])C([H])([H])Oc2c([H])c([H])c3c(c2[H])C([H])([H])N(C(=O)C([H])(N([H])C(=O)C([H])(N([H])C([H])([H])[H])C([H])([H])[H])C(C([H])([H])[H])(C([H])([H])[H])C([H])([H])[H])C([H])(C(=O)N([H])C2([H])c4c([H])c([H])c([H])c([H])c4C([H])([H])C([H])([H])C2([H])[H])C3([H])[H])c([H])c(C([H])([H])C([H])([H])C([H])([H])C([H])([H])N([H])C(=O)N2C([H])([H])C([H])([H])C([H])([H])C([H])(n3nc(-c4c([H])c([H])c(Oc5c([H])c([H])c(F)c([H])c5F)c([H])c4[H])c(C(=O)N([H])[H])c3N([H])[H])C2([H])[H])c1[H]

>  <smiles>  (56) 
[H]c1c([H])c(C([H])([H])C(=O)C([H])([H])C([H])([H])Oc2c([H])c([H])c3c(c2[H])C([H])([H])N(C(=O)C([H])(N([H])C(=O)C([H])(N([H])C([H])([H])[H])C([H])([H])[H])C(C([H])([H])[H])(C([H])([H])[H])C([H])([H])[H])C([H])(C(=O)N([H])C2([H])c4c([H])c([H])c([H])c([H])c4C([H])([H])C([H])([H])C2([H])[H])C3([H])[H])c([H])c(C([H])([H])C([H])([H])C([H])([H])C([H])([H])N([H])C(=O)N2C([H])([H])C([H])([H])C([H])([H])C([H])(n3nc(-c4c([H])c([H])c(Oc5c([H])c([H])c(F)c([H])c5F)c([H])c4[H])c(C(=O)N([H])[H])c3N([H])[H])C2([H])[H])c1[H]

$$$$
57:0:0
     RDKit          3D

 98107  0  0  1  0  0  0  0  0999 V2000
  -30.3980  -23.0190   23.6780 C   0  0  0  0  0  2  0  0  0  0  0  0
  -29.1390  -22.3940   23.1540 C   0  0  0  0  0  2  0  0  0  0  0  0
  -30.3590  -22.4810   22.2530 C   0  0  2  0  0  0  0  0  0  0  0  0
  -32.3580  -20.9120   22.3770 C   0  0  0  0  0  3  0  0  0  0  0  0
  -30.3100  -20.1280   21.3290 C   0  0  0  0  0  3  0  0  0  0  0  0
  -32.9570  -19.6540   22.1560 C   0  0  0  0  0  3  0  0  0  0  0  0
  -30.9060  -18.8740   21.1060 C   0  0  0  0  0  3  0  0  0  0  0  0
  -31.0290  -21.1640   21.9600 C   0  0  0  0  0  0  0  0  0  0  0  0
  -32.2310  -18.6300   21.5130 C   0  0  0  0  0  0  0  0  0  0  0  0
  -32.8500  -17.2700   21.2330 C   0  0  0  0  0  2  0  0  0  0  0  0
  -33.1460  -17.0690   19.7370 C   0  0  0  0  0  2  0  0  0  0  0  0
  -33.2100  -15.5940   19.3020 C   0  0  0  0  0  2  0  0  0  0  0  0
  -31.3500  -14.2870   18.3020 C   0  0  0  0  0  0  0  0  0  0  0  0
  -30.8050  -11.9220   18.0310 C   0  0  0  0  0  2  0  0  0  0  0  0
  -29.6520  -11.5990   17.0770 C   0  0  0  0  0  2  0  0  0  0  0  0
  -28.3240  -11.6050   17.8440 C   0  0  0  0  0  2  0  0  0  0  0  0
  -28.1170  -12.9150   18.6480 C   0  0  0  0  0  3  0  0  0  0  0  0
  -29.3660  -13.2950   19.4910 C   0  0  0  0  0  2  0  0  0  0  0  0
  -30.5830  -13.2310   18.6580 N   0  0  0  0  0  0  0  0  0  0  0  0
  -31.8450  -14.4310   17.1810 O   0  0  0  0  0  0  0  0  0  0  0  0
  -31.9000  -14.9180   19.3530 N   0  0  0  0  0  0  0  0  0  0  0  0
  -31.5300  -14.6810   20.2640 H   0  0  0  0  0  0  0  0  0  0  0  0
  -26.1570  -13.8590   20.0380 C   0  0  0  0  0  0  0  0  0  0  0  0
  -25.0780  -13.2580   20.6320 C   0  0  0  0  0  0  0  0  0  0  0  0
  -25.2190  -11.8590   20.3770 C   0  0  0  0  0  0  0  0  0  0  0  0
  -26.9020  -12.8380   19.4680 N   0  0  0  0  0  0  0  0  0  0  0  0
  -26.3500  -11.6220   19.7220 N   0  0  0  0  0  0  0  0  0  0  0  0
  -24.3130  -10.7410   20.6710 C   0  0  0  0  0  0  0  0  0  0  0  0
  -24.6910   -9.6880   21.5340 C   0  0  0  0  0  3  0  0  0  0  0  0
  -23.7960   -8.6340   21.8160 C   0  0  0  0  0  3  0  0  0  0  0  0
  -22.5040   -8.6270   21.2390 C   0  0  0  0  0  0  0  0  0  0  0  0
  -22.1400   -9.6660   20.3630 C   0  0  0  0  0  3  0  0  0  0  0  0
  -23.0360  -10.7090   20.0790 C   0  0  0  0  0  3  0  0  0  0  0  0
  -21.5780   -7.6300   21.4340 O   0  0  0  0  0  0  0  0  0  0  0  0
  -21.5700   -6.8670   22.5740 C   0  0  0  0  0  0  0  0  0  0  0  0
  -21.2960   -7.4260   23.8430 C   0  0  0  0  0  3  0  0  0  0  0  0
  -21.2290   -6.5940   24.9780 C   0  0  0  0  0  3  0  0  0  0  0  0
  -21.4290   -5.2060   24.8490 C   0  0  0  0  0  0  0  0  0  0  0  0
  -21.6980   -4.6480   23.5860 C   0  0  0  0  0  3  0  0  0  0  0  0
  -21.7660   -5.4770   22.4530 C   0  0  0  0  0  0  0  0  0  0  0  0
  -22.0020   -4.9320   21.2350 F   0  0  0  0  0  0  0  0  0  0  0  0
  -21.3570   -4.4050   25.9370 F   0  0  0  0  0  0  0  0  0  0  0  0
  -23.9340  -13.9460   21.3200 C   0  0  0  0  0  0  0  0  0  0  0  0
  -23.3420  -13.2960   22.3160 N   0  0  0  0  0  0  0  0  0  0  0  0
  -23.5910  -15.0860   21.0090 O   0  0  0  0  0  0  0  0  0  0  0  0
  -23.6420  -12.3690   22.5770 H   0  0  0  0  0  0  0  0  0  0  0  0
  -22.5750  -13.7230   22.8160 H   0  0  0  0  0  0  0  0  0  0  0  0
  -26.5590  -15.1850   19.9180 N   0  0  0  0  0  0  0  0  0  0  0  0
  -25.9890  -15.9560   20.2480 H   0  0  0  0  0  0  0  0  0  0  0  0
  -27.4120  -15.4840   19.4610 H   0  0  0  0  0  0  0  0  0  0  0  0
  -30.2680  -23.3880   21.0100 C   0  0  0  0  0  2  0  0  0  0  0  0
  -30.7390  -24.7820   21.2370 N   0  0  0  0  0  4  0  0  0  0  0  0
  -31.4790  -24.9420   20.5730 H   0  0  0  0  0  0  0  0  0  0  0  0
  -31.1910  -24.7900   22.1370 H   0  0  0  0  0  0  0  0  0  0  0  0
  -28.5280  -25.8430   22.0390 C   0  0  0  0  0  1  0  0  0  0  0  0
  -29.8030  -25.9560   21.1810 C   0  0  0  0  0  3  0  0  0  0  0  0
  -29.4940  -26.4360   19.7410 C   0  0  0  0  0  2  0  0  0  0  0  0
  -29.1770  -27.8400   19.7810 O   0  0  0  0  0  0  0  0  0  0  0  0
  -24.5730  -31.6850   23.6310 C   0  0  0  0  0  0  0  0  0  0  0  0
  -27.8720  -28.2690   19.9210 C   0  0  0  0  0  0  0  0  0  0  0  0
  -23.5850  -30.3370   21.8080 C   0  0  0  0  0  3  0  0  0  0  0  0
  -25.2420  -29.2960   20.1730 C   0  0  0  0  0  0  0  0  0  0  0  0
  -26.0000  -31.1660   21.6500 C   0  0  0  0  0  2  0  0  0  0  0  0
  -26.3070  -29.9330   20.8220 C   0  0  0  0  0  0  0  0  0  0  0  0
  -27.6200  -29.4300   20.6900 C   0  0  0  0  0  3  0  0  0  0  0  0
  -26.7850  -27.6410   19.2710 C   0  0  0  0  0  3  0  0  0  0  0  0
  -25.4790  -28.1500   19.3970 C   0  0  0  0  0  3  0  0  0  0  0  0
  -23.8710  -29.9080   20.3450 C   0  0  0  0  0  2  0  0  0  0  0  0
  -24.7370  -31.0730   22.4200 N   0  0  0  0  0  0  0  0  0  0  0  0
  -23.4790  -31.6760   24.2110 O   0  0  0  0  0  0  0  0  0  0  0  0
  -23.1560  -29.0900   22.6120 C   0  0  0  0  0  0  0  0  0  0  0  0
  -21.9750  -28.5390   22.2880 N   0  0  0  0  0  0  0  0  0  0  0  0
  -23.8880  -28.6220   23.4880 O   0  0  0  0  0  0  0  0  0  0  0  0
  -21.4180  -28.9890   21.5760 H   0  0  0  0  0  0  0  0  0  0  0  0
  -19.2190  -26.2180   22.0430 C   0  0  0  0  0  0  0  0  0  0  0  0
  -21.3930  -27.3380   22.8840 C   0  0  0  0  0  3  0  0  0  0  0  0
  -22.1200  -26.0640   22.3940 C   0  0  0  0  0  2  0  0  0  0  0  0
  -21.4580  -25.4250   21.1680 C   0  0  0  0  0  2  0  0  0  0  0  0
  -20.0050  -25.0490   21.4730 C   0  0  0  0  0  2  0  0  0  0  0  0
  -19.8730  -27.2990   22.6930 C   0  0  0  0  0  0  0  0  0  0  0  0
  -19.0970  -28.3770   23.1680 C   0  0  0  0  0  3  0  0  0  0  0  0
  -17.6980  -28.3860   23.0090 C   0  0  0  0  0  3  0  0  0  0  0  0
  -17.0570  -27.3070   22.3760 C   0  0  0  0  0  3  0  0  0  0  0  0
  -17.8170  -26.2240   21.9000 C   0  0  0  0  0  3  0  0  0  0  0  0
  -25.7440  -32.4440   24.3290 C   0  0  0  0  0  3  0  0  0  0  0  0
  -25.3500  -33.8570   24.4380 N   0  0  0  0  0  0  0  0  0  0  0  0
  -25.7940  -34.8320   23.6370 C   0  0  0  0  0  0  0  0  0  0  0  0
  -26.6430  -34.6480   22.7600 O   0  0  0  0  0  0  0  0  0  0  0  0
  -24.6130  -34.0720   25.0930 H   0  0  0  0  0  0  0  0  0  0  0  0
  -24.1360  -36.5080   22.7640 C   0  0  0  0  0  1  0  0  0  0  0  0
  -25.2020  -36.2400   23.8400 C   0  0  0  0  0  3  0  0  0  0  0  0
  -27.1530  -37.2470   24.9380 C   0  0  0  0  0  1  0  0  0  0  0  0
  -26.2180  -37.3150   23.8180 N   0  0  0  0  0  0  0  0  0  0  0  0
  -25.7740  -38.2280   23.8300 H   0  0  0  0  0  0  0  0  0  0  0  0
  -26.1120  -31.8550   25.7480 C   0  0  1  0  0  0  0  0  0  0  0  0
  -24.8860  -31.6040   26.6550 C   0  0  0  0  0  1  0  0  0  0  0  0
  -26.8680  -30.5140   25.5970 C   0  0  0  0  0  1  0  0  0  0  0  0
  -27.0600  -32.8240   26.4920 C   0  0  0  0  0  1  0  0  0  0  0  0
  2  1  1  0
  3  2  1  0
  3  1  1  0
  5  8  1  0
  6  4  1  0
  7  5  2  0
  7  9  1  0
  8  3  1  0
  8  4  2  0
  9  6  2  0
 10  9  1  0
 11 10  1  0
 12 21  1  0
 12 11  1  0
 13 19  1  0
 13 21  1  0
 14 19  1  0
 15 16  1  0
 15 14  1  0
 17 16  1  0
 17 26  1  0
 17 18  1  0
 19 18  1  0
 20 13  2  0
 21 22  1  0
 23 24  2  0
 24 43  1  0
 25 24  1  0
 25 28  1  0
 26 27  1  0
 26 23  1  0
 27 25  2  0
 28 29  1  0
 29 30  2  0
 31 34  1  0
 31 30  1  0
 32 31  2  0
 33 32  1  0
 33 28  2  0
 34 35  1  0
 35 36  1  0
 36 37  2  0
 38 37  1  0
 38 42  1  0
 39 38  2  0
 40 35  2  0
 40 39  1  0
 41 40  1  0
 43 44  1  0
 44 46  1  0
 44 47  1  0
 45 43  2  0
 48 23  1  0
 48 49  1  0
 50 48  1  0
 51 52  1  0
  3 51  1  6
 52 54  1  0
 53 52  1  0
 56 52  1  0
 56 55  1  0
 57 58  1  0
 57 56  1  0
 58 60  1  0
 59 70  2  0
 60 65  1  0
 61 69  1  0
 61 71  1  0
 62 68  1  0
 62 64  1  0
 63 69  1  0
 64 63  1  0
 65 64  2  0
 66 67  1  0
 66 60  2  0
 67 62  2  0
 68 61  1  0
 69 59  1  0
 71 73  2  0
 72 71  1  0
 74 72  1  0
 75 80  1  0
 76 72  1  0
 77 76  1  0
 78 79  1  0
 78 77  1  0
 79 75  1  0
 80 76  1  0
 80 81  2  0
 82 81  1  0
 83 82  2  0
 84 75  2  0
 84 83  1  0
 85 59  1  0
 85 86  1  0
 85 95  1  0
 86 89  1  0
 87 91  1  0
 87 86  1  0
 88 87  2  0
 91 90  1  0
 93 94  1  0
 93 91  1  0
 93 92  1  0
 95 98  1  1
 95 96  1  0
 97 95  1  0
M  ISO  4  13 100  21 100  57 101  58 101
M  END
>  <TORSDO>  (57) 
F 24

>  <SCORE>  (57) 
-7.377

>  <name>  (57) 
57

>  <ligand_id>  (57) 
57

>  <original_smiles>  (57) 
[H]c1c([H])c([H])c2c(c1[H])C([H])([H])C([H])([H])C([H])([H])C2([H])N([H])C(=O)C1([H])N(C(=O)C([H])(N([H])C(=O)C([H])(N([H])C([H])([H])[H])C([H])([H])[H])C(C([H])([H])[H])(C([H])([H])[H])C([H])([H])[H])C([H])([H])c2c([H])c(OC([H])([H])C([H])(C([H])([H])[H])[N+]([H])([H])C([H])([H])C3(c4c([H])c([H])c(C([H])([H])C([H])([H])C([H])([H])N([H])C(=O)N5C([H])([H])C([H])([H])C([H])([H])C([H])(n6nc(-c7c([H])c([H])c(Oc8c([H])c([H])c(F)c([H])c8F)c([H])c7[H])c(C(=O)N([H])[H])c6N([H])[H])C5([H])[H])c([H])c4[H])C([H])([H])C3([H])[H])c([H])c([H])c2C1([H])[H]

>  <smiles>  (57) 
[H]c1c([H])c([H])c2c(c1[H])C([H])([H])C([H])([H])C([H])([H])C2([H])N([H])C(=O)C1([H])N(C(=O)C([H])(N([H])C(=O)C([H])(N([H])C([H])([H])[H])C([H])([H])[H])C(C([H])([H])[H])(C([H])([H])[H])C([H])([H])[H])C([H])([H])c2c([H])c(OC([H])([H])C([H])(C([H])([H])[H])[N+]([H])([H])C([H])([H])C3(c4c([H])c([H])c(C([H])([H])C([H])([H])C([H])([H])N([H])C(=O)N5C([H])([H])C([H])([H])C([H])([H])C([H])(n6nc(-c7c([H])c([H])c(Oc8c([H])c([H])c(F)c([H])c8F)c([H])c7[H])c(C(=O)N([H])[H])c6N([H])[H])C5([H])[H])c([H])c4[H])C([H])([H])C3([H])[H])c([H])c([H])c2C1([H])[H]

$$$$
58:0:0
     RDKit          3D

 98107  0  0  1  0  0  0  0  0999 V2000
  -24.7430  -20.2400   18.3400 C   0  0  0  0  0  2  0  0  0  0  0  0
  -25.5260  -21.3240   17.5690 C   0  0  0  0  0  2  0  0  0  0  0  0
  -25.5830  -22.6710   18.3180 C   0  0  0  0  0  2  0  0  0  0  0  0
  -26.9600  -22.9800   18.9360 C   0  0  0  0  0  2  0  0  0  0  0  0
  -26.3760  -23.4230   21.3680 C   0  0  0  0  0  1  0  0  0  0  0  0
  -26.8790  -24.0420   20.0530 C   0  0  0  0  0  3  0  0  0  0  0  0
  -28.2320  -24.7530   20.2740 C   0  0  0  0  0  2  0  0  0  0  0  0
  -28.6070  -25.7860   19.1890 C   0  0  0  0  0  2  0  0  0  0  0  0
  -28.5000  -27.1280   19.6590 O   0  0  0  0  0  0  0  0  0  0  0  0
  -24.6640  -31.8840   23.2170 C   0  0  0  0  0  0  0  0  0  0  0  0
  -27.2830  -27.7720   19.7110 C   0  0  0  0  0  0  0  0  0  0  0  0
  -23.4280  -30.6260   21.4780 C   0  0  0  0  0  3  0  0  0  0  0  0
  -24.8660  -29.2250   19.9020 C   0  0  0  0  0  0  0  0  0  0  0  0
  -25.9440  -31.0110   21.2770 C   0  0  0  0  0  2  0  0  0  0  0  0
  -26.0220  -29.7030   20.5280 C   0  0  0  0  0  0  0  0  0  0  0  0
  -27.2270  -28.9770   20.4410 C   0  0  0  0  0  3  0  0  0  0  0  0
  -26.1170  -27.3240   19.0480 C   0  0  0  0  0  3  0  0  0  0  0  0
  -24.9080  -28.0330   19.1610 C   0  0  0  0  0  3  0  0  0  0  0  0
  -23.6120  -30.0540   20.0450 C   0  0  0  0  0  2  0  0  0  0  0  0
  -24.6970  -31.1840   22.0490 N   0  0  0  0  0  0  0  0  0  0  0  0
  -23.5920  -32.1000   23.8000 O   0  0  0  0  0  0  0  0  0  0  0  0
  -22.8020  -29.5240   22.3580 C   0  0  0  0  0  0  0  0  0  0  0  0
  -21.4760  -29.3550   22.2410 N   0  0  0  0  0  0  0  0  0  0  0  0
  -23.5040  -28.8290   23.0980 O   0  0  0  0  0  0  0  0  0  0  0  0
  -20.9790  -29.9650   21.6070 H   0  0  0  0  0  0  0  0  0  0  0  0
  -18.1130  -28.1250   22.6870 C   0  0  0  0  0  0  0  0  0  0  0  0
  -20.6750  -28.3520   22.9370 C   0  0  0  0  0  3  0  0  0  0  0  0
  -20.7690  -26.9830   22.2250 C   0  0  0  0  0  2  0  0  0  0  0  0
  -19.6460  -26.7600   21.2080 C   0  0  0  0  0  2  0  0  0  0  0  0
  -18.2760  -26.8420   21.8860 C   0  0  0  0  0  2  0  0  0  0  0  0
  -19.2410  -28.8420   23.1640 C   0  0  0  0  0  0  0  0  0  0  0  0
  -19.0400  -30.0470   23.8710 C   0  0  0  0  0  3  0  0  0  0  0  0
  -17.7410  -30.5370   24.1060 C   0  0  0  0  0  3  0  0  0  0  0  0
  -16.6270  -29.8140   23.6450 C   0  0  0  0  0  3  0  0  0  0  0  0
  -16.8130  -28.6110   22.9410 C   0  0  0  0  0  3  0  0  0  0  0  0
  -25.9640  -32.4610   23.8650 C   0  0  0  0  0  3  0  0  0  0  0  0
  -26.4870  -31.6020   25.0820 C   0  0  1  0  0  0  0  0  0  0  0  0
  -25.4020  -31.3140   26.1430 C   0  0  0  0  0  1  0  0  0  0  0  0
  -27.0490  -30.2460   24.5970 C   0  0  0  0  0  1  0  0  0  0  0  0
  -27.6540  -32.3370   25.7810 C   0  0  0  0  0  1  0  0  0  0  0  0
  -25.6710  -33.8370   24.2860 N   0  0  0  0  0  0  0  0  0  0  0  0
  -26.0140  -34.9330   23.5960 C   0  0  0  0  0  0  0  0  0  0  0  0
  -26.6850  -34.8910   22.5590 O   0  0  0  0  0  0  0  0  0  0  0  0
  -25.0770  -33.9390   25.0960 H   0  0  0  0  0  0  0  0  0  0  0  0
  -24.3070  -36.7640   23.3570 C   0  0  0  0  0  1  0  0  0  0  0  0
  -25.5390  -36.2910   24.1440 C   0  0  0  0  0  3  0  0  0  0  0  0
  -27.6750  -37.0990   25.0470 C   0  0  0  0  0  1  0  0  0  0  0  0
  -26.5830  -37.3400   24.1050 N   0  0  0  0  0  0  0  0  0  0  0  0
  -26.1850  -38.2510   24.3140 H   0  0  0  0  0  0  0  0  0  0  0  0
  -25.4150  -19.8650   19.5400 O   0  0  0  0  0  0  0  0  0  0  0  0
  -28.7610  -18.5930   20.3960 C   0  0  0  0  0  3  0  0  0  0  0  0
  -28.0490  -17.4980   18.3490 C   0  0  0  0  0  3  0  0  0  0  0  0
  -27.5320  -19.2790   20.4550 C   0  0  0  0  0  3  0  0  0  0  0  0
  -26.8280  -18.1980   18.3930 C   0  0  0  0  0  3  0  0  0  0  0  0
  -29.0440  -17.7160   19.3290 C   0  0  0  0  0  0  0  0  0  0  0  0
  -26.5690  -19.1160   19.4410 C   0  0  0  0  0  0  0  0  0  0  0  0
  -31.7760  -18.2460   18.1250 C   0  0  0  0  0  2  0  0  0  0  0  0
  -31.6460  -17.8840   19.6100 C   0  0  0  0  0  2  0  0  0  0  0  0
  -31.0460  -16.9390   17.8180 C   0  0  0  0  0  2  0  0  0  0  0  0
  -30.4090  -17.0250   19.2410 C   0  0  2  0  0  0  0  0  0  0  0  0
  -31.1590  -14.6690   19.9230 C   0  0  0  0  0  0  0  0  0  0  0  0
  -30.8200  -12.4620   18.9400 C   0  0  0  0  0  2  0  0  0  0  0  0
  -29.8370  -12.6710   17.7700 C   0  0  0  0  0  2  0  0  0  0  0  0
  -28.3810  -12.5510   18.2600 C   0  0  0  0  0  2  0  0  0  0  0  0
  -28.0970  -13.4040   19.5270 C   0  0  0  0  0  3  0  0  0  0  0  0
  -29.2060  -13.2290   20.5900 C   0  0  0  0  0  2  0  0  0  0  0  0
  -30.5060  -13.4810   19.9470 N   0  0  0  0  0  0  0  0  0  0  0  0
  -32.3380  -14.7790   19.5770 O   0  0  0  0  0  0  0  0  0  0  0  0
  -30.3330  -15.7320   19.9530 N   0  0  0  0  0  0  0  0  0  0  0  0
  -29.4110  -15.5120   20.2970 H   0  0  0  0  0  0  0  0  0  0  0  0
  -25.7530  -14.0220   20.3880 C   0  0  0  0  0  0  0  0  0  0  0  0
  -24.6940  -13.2520   20.7910 C   0  0  0  0  0  0  0  0  0  0  0  0
  -25.1340  -11.8970   20.6920 C   0  0  0  0  0  0  0  0  0  0  0  0
  -26.7700  -13.1330   20.0730 N   0  0  0  0  0  0  0  0  0  0  0  0
  -26.4050  -11.8470   20.3130 N   0  0  0  0  0  0  0  0  0  0  0  0
  -24.3990  -10.6390   20.8810 C   0  0  0  0  0  0  0  0  0  0  0  0
  -24.7800   -9.6990   21.8650 C   0  0  0  0  0  3  0  0  0  0  0  0
  -24.0470   -8.5050   22.0380 C   0  0  0  0  0  3  0  0  0  0  0  0
  -22.9190   -8.2430   21.2250 C   0  0  0  0  0  0  0  0  0  0  0  0
  -22.5550   -9.1730   20.2340 C   0  0  0  0  0  3  0  0  0  0  0  0
  -23.2890  -10.3570   20.0610 C   0  0  0  0  0  3  0  0  0  0  0  0
  -22.1600   -7.0990   21.3080 O   0  0  0  0  0  0  0  0  0  0  0  0
  -21.9320   -6.4690   22.5060 C   0  0  0  0  0  0  0  0  0  0  0  0
  -21.3050   -7.1290   23.5850 C   0  0  0  0  0  3  0  0  0  0  0  0
  -21.0280   -6.4240   24.7740 C   0  0  0  0  0  3  0  0  0  0  0  0
  -21.3670   -5.0620   24.8810 C   0  0  0  0  0  0  0  0  0  0  0  0
  -21.9890   -4.4040   23.8060 C   0  0  0  0  0  3  0  0  0  0  0  0
  -22.2690   -5.1060   22.6200 C   0  0  0  0  0  0  0  0  0  0  0  0
  -22.8470   -4.4610   21.5790 F   0  0  0  0  0  0  0  0  0  0  0  0
  -21.0960   -4.3830   26.0210 F   0  0  0  0  0  0  0  0  0  0  0  0
  -23.3210  -13.7400   21.1550 C   0  0  0  0  0  0  0  0  0  0  0  0
  -22.6330  -13.0310   22.0420 N   0  0  0  0  0  0  0  0  0  0  0  0
  -22.8690  -14.7830   20.6860 O   0  0  0  0  0  0  0  0  0  0  0  0
  -23.0120  -12.1870   22.4430 H   0  0  0  0  0  0  0  0  0  0  0  0
  -21.7150  -13.3390   22.3280 H   0  0  0  0  0  0  0  0  0  0  0  0
  -25.9280  -15.3940   20.2480 N   0  0  0  0  0  0  0  0  0  0  0  0
  -25.1760  -16.0490   20.4190 H   0  0  0  0  0  0  0  0  0  0  0  0
  -26.7570  -15.8430   19.8810 H   0  0  0  0  0  0  0  0  0  0  0  0
  1 50  1  0
  2  3  1  0
  2  1  1  0
  3  4  1  0
  4  6  1  0
  6  7  1  0
  6  5  1  0
  8  9  1  0
  8  7  1  0
  9 11  1  0
 10 21  2  0
 11 16  1  0
 12 20  1  0
 12 22  1  0
 13 19  1  0
 13 15  1  0
 14 20  1  0
 15 14  1  0
 16 15  2  0
 17 18  1  0
 17 11  2  0
 18 13  2  0
 19 12  1  0
 20 10  1  0
 22 24  2  0
 23 22  1  0
 25 23  1  0
 26 35  2  0
 26 31  1  0
 27 23  1  0
 27 31  1  0
 28 27  1  0
 29 30  1  0
 29 28  1  0
 30 26  1  0
 31 32  2  0
 32 33  1  0
 34 33  2  0
 35 34  1  0
 36 10  1  0
 36 41  1  0
 36 37  1  0
 37 40  1  1
 37 38  1  0
 39 37  1  0
 41 44  1  0
 42 46  1  0
 42 41  1  0
 43 42  2  0
 46 45  1  0
 48 46  1  0
 48 49  1  0
 48 47  1  0
 51 53  1  0
 52 54  2  0
 52 55  1  0
 54 56  1  0
 55 51  2  0
 56 50  1  0
 56 53  2  0
 57 58  1  0
 59 57  1  0
 59 60  1  0
 60 55  1  0
 60 58  1  0
 60 69  1  1
 61 67  1  0
 61 69  1  0
 62 67  1  0
 63 64  1  0
 63 62  1  0
 65 64  1  0
 65 74  1  0
 65 66  1  0
 67 66  1  0
 68 61  2  0
 69 70  1  0
 71 72  2  0
 72 91  1  0
 73 72  1  0
 73 76  1  0
 74 75  1  0
 74 71  1  0
 75 73  2  0
 76 77  1  0
 77 78  2  0
 79 82  1  0
 79 78  1  0
 80 79  2  0
 81 80  1  0
 81 76  2  0
 82 83  1  0
 83 88  2  0
 83 84  1  0
 84 85  2  0
 85 86  1  0
 86 90  1  0
 87 86  2  0
 88 87  1  0
 89 88  1  0
 91 92  1  0
 92 95  1  0
 92 94  1  0
 93 91  2  0
 96 71  1  0
 96 97  1  0
 98 96  1  0
M  ISO  4   8 101   9 101  61 100  69 100
M  END
>  <TORSDO>  (58) 
F 25

>  <SCORE>  (58) 
-9.630

>  <name>  (58) 
58

>  <ligand_id>  (58) 
58

>  <original_smiles>  (58) 
[H]c1c([H])c([H])c2c(c1[H])C([H])([H])C([H])([H])C([H])([H])C2([H])N([H])C(=O)C1([H])N(C(=O)C([H])(N([H])C(=O)C([H])(N([H])C([H])([H])[H])C([H])([H])[H])C(C([H])([H])[H])(C([H])([H])[H])C([H])([H])[H])C([H])([H])c2c([H])c(OC([H])([H])C([H])([H])C([H])(C([H])([H])[H])C([H])([H])C([H])([H])C([H])([H])C([H])([H])Oc3c([H])c([H])c(C4(N([H])C(=O)N5C([H])([H])C([H])([H])C([H])([H])C([H])(n6nc(-c7c([H])c([H])c(Oc8c([H])c([H])c(F)c([H])c8F)c([H])c7[H])c(C(=O)N([H])[H])c6N([H])[H])C5([H])[H])C([H])([H])C([H])([H])C4([H])[H])c([H])c3[H])c([H])c([H])c2C1([H])[H]

>  <smiles>  (58) 
[H]c1c([H])c([H])c2c(c1[H])C([H])([H])C([H])([H])C([H])([H])C2([H])N([H])C(=O)C1([H])N(C(=O)C([H])(N([H])C(=O)C([H])(N([H])C([H])([H])[H])C([H])([H])[H])C(C([H])([H])[H])(C([H])([H])[H])C([H])([H])[H])C([H])([H])c2c([H])c(OC([H])([H])C([H])([H])C([H])(C([H])([H])[H])C([H])([H])C([H])([H])C([H])([H])C([H])([H])Oc3c([H])c([H])c(C4(N([H])C(=O)N5C([H])([H])C([H])([H])C([H])([H])C([H])(n6nc(-c7c([H])c([H])c(Oc8c([H])c([H])c(F)c([H])c8F)c([H])c7[H])c(C(=O)N([H])[H])c6N([H])[H])C5([H])[H])C([H])([H])C([H])([H])C4([H])[H])c([H])c3[H])c([H])c([H])c2C1([H])[H]

$$$$
59:0:0
     RDKit          3D

 98 99  0  0  1  0  0  0  0  0999 V2000
  -26.6130  -16.0980   20.5410 C   0  0  0  0  0  3  0  0  0  0  0  0
  -21.4570  -13.7050   21.0210 C   0  0  0  0  0 15  0  0  0  0  0  0
  -22.9360  -13.2340   22.2980 C   0  0  0  0  0 15  0  0  0  0  0  0
  -21.7570  -15.0960   19.5960 C   0  0  0  0  0 15  0  0  0  0  0  0
  -24.7440  -14.1250   22.1340 C   0  0  0  0  0 15  0  0  0  0  0  0
  -23.5900  -15.9570   19.4190 C   0  0  0  0  0 15  0  0  0  0  0  0
  -25.0820  -15.4610   20.6720 C   0  0  0  0  0  1  0  0  0  0  0  0
  -27.6410  -15.0810   20.0690 N   0  0  0  0  0  4  0  0  0  0  0  0
  -27.5560  -14.2160   20.5770 H   0  0  0  0  0  0  0  0  0  0  0  0
  -27.1670  -14.8100   19.2210 H   0  0  0  0  0  0  0  0  0  0  0  0
  -29.0890  -15.1360   19.5710 C   0  0  0  0  0  2  0  0  0  0  0  0
  -30.3510  -15.2160   20.5240 C   0  0  0  0  0  2  0  0  0  0  0  0
  -31.7490  -13.1110   21.4170 C   0  0  0  0  0  0  0  0  0  0  0  0
  -32.0480  -10.6730   21.8580 C   0  0  0  0  0  2  0  0  0  0  0  0
  -31.6670   -9.8740   20.5910 C   0  0  0  0  0  2  0  0  0  0  0  0
  -30.1450   -9.7480   20.3540 C   0  0  0  0  0  2  0  0  0  0  0  0
  -29.4440  -11.0980   20.5500 C   0  0  0  0  0  3  0  0  0  0  0  0
  -29.8380  -11.6300   21.9370 C   0  0  0  0  0  2  0  0  0  0  0  0
  -31.2790  -11.9250   21.8720 N   0  0  0  0  0  0  0  0  0  0  0  0
  -32.9570  -13.3000   21.1660 O   0  0  0  0  0  0  0  0  0  0  0  0
  -30.6930  -13.9730   21.2420 N   0  0  0  0  0  0  0  0  0  0  0  0
  -29.8820  -13.6380   21.7460 H   0  0  0  0  0  0  0  0  0  0  0  0
  -27.1830  -11.7760   19.6690 C   0  0  0  0  0  0  0  0  0  0  0  0
  -25.9350  -11.3580   19.9850 C   0  0  0  0  0  0  0  0  0  0  0  0
  -26.0860  -10.1350   20.7140 C   0  0  0  0  0  3  0  0  0  0  0  0
  -28.0170  -10.9870   20.4130 N   0  0  0  0  0  0  0  0  0  0  0  0
  -27.3580   -9.9850   21.0400 N   0  0  0  0  0  2  0  0  0  0  0  0
  -25.1490   -9.0630   21.0800 C   0  0  0  0  0  0  0  0  0  0  0  0
  -25.1130   -8.5060   22.3810 C   0  0  0  0  0  3  0  0  0  0  0  0
  -24.1930   -7.4830   22.6950 C   0  0  0  0  0  3  0  0  0  0  0  0
  -23.3050   -7.0010   21.7060 C   0  0  0  0  0  0  0  0  0  0  0  0
  -23.3630   -7.5460   20.4090 C   0  0  0  0  0  3  0  0  0  0  0  0
  -24.2700   -8.5690   20.1010 C   0  0  0  0  0  3  0  0  0  0  0  0
  -22.4000   -5.9880   21.9110 O   0  0  0  0  0  0  0  0  0  0  0  0
  -21.4860   -6.0410   22.9300 C   0  0  0  0  0  0  0  0  0  0  0  0
  -20.7370   -7.2060   23.2020 C   0  0  0  0  0  3  0  0  0  0  0  0
  -19.7640   -7.2010   24.2230 C   0  0  0  0  0  3  0  0  0  0  0  0
  -19.5300   -6.0250   24.9610 C   0  0  0  0  0  0  0  0  0  0  0  0
  -20.2670   -4.8610   24.6910 C   0  0  0  0  0  3  0  0  0  0  0  0
  -21.2460   -4.8700   23.6790 C   0  0  0  0  0  0  0  0  0  0  0  0
  -21.9530   -3.7460   23.4150 F   0  0  0  0  0  0  0  0  0  0  0  0
  -18.5760   -6.0110   25.9250 F   0  0  0  0  0  0  0  0  0  0  0  0
  -24.7070  -12.1650   19.5860 C   0  0  0  0  0  2  0  0  0  0  0  0
  -22.8710  -12.7540   20.7380 N   0  0  0  0  0  2  0  0  0  0  0  0
  -25.0860  -12.5460   18.4540 O   0  0  0  0  0  1  0  0  0  0  0  0
  -22.7060  -12.3730   21.6530 H   0  0  0  0  0  0  0  0  0  0  0  0
  -22.2400  -13.4170   20.3220 H   0  0  0  0  0  0  0  0  0  0  0  0
  -27.6540  -12.7670   18.8090 N   0  0  0  0  0  0  0  0  0  0  0  0
  -26.9660  -12.9840   18.0910 H   0  0  0  0  0  0  0  0  0  0  0  0
  -28.5270  -12.5820   18.3160 H   0  0  0  0  0  0  0  0  0  0  0  0
  -26.7340  -17.4460   19.6830 C   0  0  0  0  0  2  0  0  0  0  0  0
  -28.1310  -18.2230   19.5250 C   0  0  0  0  0  3  0  0  0  0  0  0
  -28.4420  -19.0740   18.2110 C   0  0  0  0  0  3  0  0  0  0  0  0
  -29.7820  -19.9370   18.1010 C   0  0  0  0  0  3  0  0  0  0  0  0
  -29.5960  -21.5170   17.9780 C   0  0  0  0  0  3  0  0  0  0  0  0
  -30.8410  -22.4960   17.7730 C   0  0  0  0  0  2  0  0  0  0  0  0
  -30.9110  -23.7540   18.7360 C   0  0  0  0  0  2  0  0  0  0  0  0
  -31.1050  -25.1180   18.2210 O   0  0  0  0  0  0  0  0  0  0  0  0
  -25.3690  -27.5070   21.7550 C   0  0  0  0  0  0  0  0  0  0  0  0
  -29.9320  -25.8440   18.1850 C   0  0  0  0  0  0  0  0  0  0  0  0
  -25.1800  -27.3610   19.2970 C   0  0  0  0  0  3  0  0  0  0  0  0
  -27.3810  -27.0550   18.0230 C   0  0  0  0  0  0  0  0  0  0  0  0
  -27.4450  -27.8210   20.3980 C   0  0  0  0  0  2  0  0  0  0  0  0
  -28.1030  -27.1190   19.2220 C   0  0  0  0  0  0  0  0  0  0  0  0
  -29.3910  -26.5170   19.3150 C   0  0  0  0  0  3  0  0  0  0  0  0
  -29.2100  -25.8460   16.9780 C   0  0  0  0  0  3  0  0  0  0  0  0
  -27.9370  -26.4350   16.8900 C   0  0  0  0  0  3  0  0  0  0  0  0
  -25.9960  -27.6660   18.0100 C   0  0  0  0  0  2  0  0  0  0  0  0
  -25.9930  -27.5390   20.5430 N   0  0  0  0  0  0  0  0  0  0  0  0
  -24.1380  -27.3690   21.8450 O   0  0  0  0  0  0  0  0  0  0  0  0
  -24.5620  -25.9470   19.1670 C   0  0  0  0  0  0  0  0  0  0  0  0
  -23.5130  -25.8240   18.3370 N   0  0  0  0  0  0  0  0  0  0  0  0
  -25.0360  -24.9920   19.7870 O   0  0  0  0  0  0  0  0  0  0  0  0
  -23.1720  -26.6590   17.8800 H   0  0  0  0  0  0  0  0  0  0  0  0
  -20.8750  -24.4020   16.3180 C   0  0  0  0  0  0  0  0  0  0  0  0
  -22.8010  -24.5840   18.0350 C   0  0  0  0  0  3  0  0  0  0  0  0
  -23.6140  -23.7010   17.0590 C   0  0  0  0  0  2  0  0  0  0  0  0
  -23.2490  -23.9310   15.5890 C   0  0  0  0  0  2  0  0  0  0  0  0
  -21.7640  -23.6430   15.3490 C   0  0  0  0  0  2  0  0  0  0  0  0
  -21.3640  -24.8570   17.5730 C   0  0  0  0  0  0  0  0  0  0  0  0
  -20.5010  -25.5900   18.4170 C   0  0  0  0  0  3  0  0  0  0  0  0
  -19.1740  -25.8630   18.0290 C   0  0  0  0  0  3  0  0  0  0  0  0
  -18.6940  -25.4000   16.7920 C   0  0  0  0  0  3  0  0  0  0  0  0
  -19.5420  -24.6700   15.9410 C   0  0  0  0  0  3  0  0  0  0  0  0
  -26.1630  -27.6650   23.0900 C   0  0  0  0  0  3  0  0  0  0  0  0
  -25.3910  -28.5650   23.9580 N   0  0  0  0  0  0  0  0  0  0  0  0
  -25.6860  -29.8550   24.1720 C   0  0  0  0  0  0  0  0  0  0  0  0
  -26.6930  -30.3990   23.7090 O   0  0  0  0  0  0  0  0  0  0  0  0
  -24.5220  -28.2040   24.3250 H   0  0  0  0  0  0  0  0  0  0  0  0
  -23.8220  -31.5440   24.1420 C   0  0  0  0  0  1  0  0  0  0  0  0
  -24.7150  -30.6720   25.0420 C   0  0  0  0  0  3  0  0  0  0  0  0
  -26.0300  -30.7660   27.1150 C   0  0  0  0  0  1  0  0  0  0  0  0
  -25.3950  -31.5270   26.0410 N   0  0  0  0  0  0  0  0  0  0  0  0
  -24.7390  -32.1790   26.4610 H   0  0  0  0  0  0  0  0  0  0  0  0
  -26.4380  -26.2920   23.8150 C   0  0  1  0  0  0  0  0  0  0  0  0
  -25.1620  -25.4480   24.0360 C   0  0  0  0  0  1  0  0  0  0  0  0
  -27.4390  -25.4360   23.0050 C   0  0  0  0  0  1  0  0  0  0  0  0
  -27.0900  -26.5500   25.1940 C   0  0  0  0  0  1  0  0  0  0  0  0
  1  7  1  0
  8  1  1  0
  8  9  1  0
 10  8  1  0
 11  8  1  0
 11 12  1  0
 12 21  1  0
 13 19  1  0
 14 19  1  0
 15 14  1  0
 16 15  1  0
 17 16  1  0
 17 18  1  0
 19 18  1  0
 20 13  2  0
 21 13  1  0
 21 22  1  0
 23 24  2  0
 23 26  1  0
 24 25  1  0
 25 27  1  0
 25 28  1  0
 26 17  1  0
 26 27  1  0
 28 29  1  0
 29 30  2  0
 31 34  1  0
 31 30  1  0
 32 31  2  0
 33 32  1  0
 33 28  2  0
 34 35  1  0
 35 36  2  0
 35 40  1  0
 36 37  1  0
 37 38  2  0
 38 42  1  0
 39 38  1  0
 40 39  2  0
 41 40  1  0
 43 24  1  0
 44 46  1  0
 45 43  1  0
 47 44  1  0
 48 23  1  0
 49 48  1  0
 50 48  1  0
 51  1  1  0
 52 51  1  0
 53 52  2  0
 54 53  1  0
 55 54  2  0
 56 55  1  0
 56 57  1  0
 58 57  1  0
 59 70  2  0
 60 58  1  0
 60 65  1  0
 61 71  1  0
 61 69  1  0
 62 64  1  0
 63 69  1  0
 64 65  2  0
 64 63  1  0
 66 60  2  0
 67 66  1  0
 67 62  2  0
 68 62  1  0
 68 61  1  0
 69 59  1  0
 71 73  2  0
 72 71  1  0
 74 72  1  0
 75 80  1  0
 76 72  1  0
 77 76  1  0
 78 77  1  0
 79 78  1  0
 79 75  1  0
 80 76  1  0
 80 81  2  0
 82 81  1  0
 83 82  2  0
 84 75  2  0
 84 83  1  0
 85 59  1  0
 85 95  1  0
 85 86  1  0
 86 87  1  0
 86 89  1  0
 87 91  1  0
 88 87  2  0
 91 90  1  0
 91 93  1  0
 93 94  1  0
 93 92  1  0
 95 96  1  1
 95 98  1  0
 97 95  1  0
M  ISO  4  13 100  21 100  57 101  58 101
M  END
>  <TORSDO>  (59) 
F 27

>  <SCORE>  (59) 
-0.960

>  <name>  (59) 
59

>  <ligand_id>  (59) 
59

>  <original_smiles>  (59) 
[H]c1c([H])c([H])c(C([H])(C([H])([H])C([H])([H])C([H])([H])C([H])([H])C([H])([H])C([H])([H])C([H])([H])Oc2c([H])c([H])c3c(c2[H])C([H])([H])N(C(=O)C([H])(N([H])C(=O)C([H])(N([H])C([H])([H])[H])C([H])([H])[H])C(C([H])([H])[H])(C([H])([H])[H])C([H])([H])[H])C([H])(C(=O)N([H])C2([H])c4c([H])c([H])c([H])c([H])c4C([H])([H])C([H])([H])C2([H])[H])C3([H])[H])[N+]([H])([H])C([H])([H])C([H])([H])N([H])C(=O)N2C([H])([H])C([H])([H])C([H])([H])C([H])(n3nc(-c4c([H])c([H])c(Oc5c([H])c([H])c(F)c([H])c5F)c([H])c4[H])c(C(=O)N([H])[H])c3N([H])[H])C2([H])[H])c([H])c1[H]

>  <smiles>  (59) 
[H]c1c([H])c([H])c(C([H])(C([H])([H])C([H])([H])C([H])([H])C([H])([H])C([H])([H])C([H])([H])C([H])([H])Oc2c([H])c([H])c3c(c2[H])C([H])([H])N(C(=O)C([H])(N([H])C(=O)C([H])(N([H])C([H])([H])[H])C([H])([H])[H])C(C([H])([H])[H])(C([H])([H])[H])C([H])([H])[H])C([H])(C(=O)N([H])C2([H])c4c([H])c([H])c([H])c([H])c4C([H])([H])C([H])([H])C2([H])[H])C3([H])[H])[N+]([H])([H])C([H])([H])C([H])([H])N([H])C(=O)N2C([H])([H])C([H])([H])C([H])([H])C([H])(n3nc(-c4c([H])c([H])c(Oc5c([H])c([H])c(F)c([H])c5F)c([H])c4[H])c(C(=O)N([H])[H])c3N([H])[H])C2([H])[H])c([H])c1[H]

$$$$
60:0:0
     RDKit          3D

 98107  0  0  1  0  0  0  0  0999 V2000
  -25.0400  -22.8130   21.8150 C   0  0  0  0  0  2  0  0  0  0  0  0
  -24.6840  -23.7960   19.6190 C   0  0  0  0  0  2  0  0  0  0  0  0
  -26.1230  -23.8700   22.1670 C   0  0  0  0  0  2  0  0  0  0  0  0
  -25.6480  -24.9500   20.0040 C   0  0  0  0  0  2  0  0  0  0  0  0
  -25.0270  -22.4600   20.3110 C   0  0  0  0  0  3  0  0  0  0  0  0
  -26.7120  -24.5360   20.9670 N   0  0  1  0  0  4  0  0  0  0  0  0
  -27.2390  -23.8150   20.4890 H   0  0  0  0  0  0  0  0  0  0  0  0
  -26.5590  -21.5330   18.4550 C   0  0  0  0  0  3  0  0  0  0  0  0
  -27.3610  -21.5070   20.7500 C   0  0  0  0  0  3  0  0  0  0  0  0
  -27.7790  -20.9720   18.0220 C   0  0  0  0  0  3  0  0  0  0  0  0
  -28.5820  -20.9730   20.3170 C   0  0  0  0  0  3  0  0  0  0  0  0
  -26.3370  -21.8160   19.8260 C   0  0  0  0  0  0  0  0  0  0  0  0
  -28.8010  -20.6970   18.9570 C   0  0  0  0  0  0  0  0  0  0  0  0
  -30.1260  -20.0880   18.5430 C   0  0  0  0  0  2  0  0  0  0  0  0
  -30.4100  -18.7950   19.3220 C   0  0  0  0  0  2  0  0  0  0  0  0
  -31.8930  -18.5760   19.6690 C   0  0  0  0  0  2  0  0  0  0  0  0
  -32.0960  -17.5770   20.8290 C   0  0  0  0  0  2  0  0  0  0  0  0
  -31.6550  -15.3620   19.7690 C   0  0  0  0  0  0  0  0  0  0  0  0
  -31.4110  -12.9630   19.2680 C   0  0  0  0  0  2  0  0  0  0  0  0
  -30.4880  -12.6980   18.0690 C   0  0  0  0  0  2  0  0  0  0  0  0
  -29.0260  -12.5930   18.5330 C   0  0  0  0  0  2  0  0  0  0  0  0
  -28.5990  -13.7850   19.4290 C   0  0  0  0  0  3  0  0  0  0  0  0
  -29.6380  -14.0530   20.5440 C   0  0  0  0  0  2  0  0  0  0  0  0
  -30.9760  -14.1990   19.9340 N   0  0  0  0  0  0  0  0  0  0  0  0
  -32.5780  -15.4990   18.9620 O   0  0  0  0  0  0  0  0  0  0  0  0
  -31.3650  -16.3190   20.6580 N   0  0  0  0  0  0  0  0  0  0  0  0
  -30.6200  -16.1230   21.3110 H   0  0  0  0  0  0  0  0  0  0  0  0
  -26.3030  -14.5210   20.3410 C   0  0  0  0  0  0  0  0  0  0  0  0
  -25.1970  -13.8060   20.7230 C   0  0  0  0  0  0  0  0  0  0  0  0
  -25.5380  -12.4300   20.5520 C   0  0  0  0  0  0  0  0  0  0  0  0
  -27.2550  -13.5820   19.9730 N   0  0  0  0  0  0  0  0  0  0  0  0
  -26.7990  -12.3150   20.1530 N   0  0  0  0  0  0  0  0  0  0  0  0
  -24.7210  -11.2180   20.6950 C   0  0  0  0  0  0  0  0  0  0  0  0
  -25.0540  -10.2060   21.6210 C   0  0  0  0  0  3  0  0  0  0  0  0
  -24.2400   -9.0590   21.7540 C   0  0  0  0  0  3  0  0  0  0  0  0
  -23.0780   -8.9180   20.9580 C   0  0  0  0  0  0  0  0  0  0  0  0
  -22.7640   -9.9180   20.0210 C   0  0  0  0  0  3  0  0  0  0  0  0
  -23.5780  -11.0550   19.8860 C   0  0  0  0  0  3  0  0  0  0  0  0
  -22.2440   -7.8260   20.9970 O   0  0  0  0  0  0  0  0  0  0  0  0
  -21.9980   -7.1490   22.1640 C   0  0  0  0  0  0  0  0  0  0  0  0
  -21.4540   -7.7920   23.2980 C   0  0  0  0  0  3  0  0  0  0  0  0
  -21.1530   -7.0460   24.4540 C   0  0  0  0  0  3  0  0  0  0  0  0
  -21.3870   -5.6580   24.4780 C   0  0  0  0  0  0  0  0  0  0  0  0
  -21.9260   -5.0150   23.3500 C   0  0  0  0  0  3  0  0  0  0  0  0
  -22.2280   -5.7590   22.1950 C   0  0  0  0  0  0  0  0  0  0  0  0
  -22.7260   -5.1320   21.1030 F   0  0  0  0  0  0  0  0  0  0  0  0
  -21.0920   -4.9380   25.5860 F   0  0  0  0  0  0  0  0  0  0  0  0
  -23.8670  -14.3690   21.1320 C   0  0  0  0  0  0  0  0  0  0  0  0
  -23.1460  -13.6680   22.0020 N   0  0  0  0  0  0  0  0  0  0  0  0
  -23.4790  -15.4610   20.7170 O   0  0  0  0  0  0  0  0  0  0  0  0
  -23.4760  -12.7820   22.3580 H   0  0  0  0  0  0  0  0  0  0  0  0
  -22.2530  -14.0230   22.3150 H   0  0  0  0  0  0  0  0  0  0  0  0
  -26.5690  -15.8820   20.2620 N   0  0  0  0  0  0  0  0  0  0  0  0
  -25.8690  -16.5830   20.4780 H   0  0  0  0  0  0  0  0  0  0  0  0
  -27.4440  -16.2820   19.9470 H   0  0  0  0  0  0  0  0  0  0  0  0
  -27.6870  -25.6090   21.3440 C   0  0  0  0  0  2  0  0  0  0  0  0
  -28.6580  -26.0890   20.2090 C   0  0  0  0  0  2  0  0  0  0  0  0
  -28.8310  -27.5210   20.1540 O   0  0  0  0  0  0  0  0  0  0  0  0
  -24.8730  -32.1540   23.7500 C   0  0  0  0  0  0  0  0  0  0  0  0
  -27.6730  -28.2600   20.1380 C   0  0  0  0  0  0  0  0  0  0  0  0
  -23.7170  -30.9070   21.9580 C   0  0  0  0  0  3  0  0  0  0  0  0
  -25.2200  -29.6280   20.3550 C   0  0  0  0  0  0  0  0  0  0  0  0
  -26.2270  -31.4030   21.7990 C   0  0  0  0  0  2  0  0  0  0  0  0
  -26.3610  -30.1300   20.9940 C   0  0  0  0  0  0  0  0  0  0  0  0
  -27.5950  -29.4500   20.8890 C   0  0  0  0  0  3  0  0  0  0  0  0
  -26.5300  -27.8070   19.4460 C   0  0  0  0  0  3  0  0  0  0  0  0
  -25.2960  -28.4610   19.5830 C   0  0  0  0  0  3  0  0  0  0  0  0
  -23.9410  -30.4120   20.5060 C   0  0  0  0  0  2  0  0  0  0  0  0
  -24.9580  -31.4950   22.5600 N   0  0  0  0  0  0  0  0  0  0  0  0
  -23.7840  -32.3100   24.3200 O   0  0  0  0  0  0  0  0  0  0  0  0
  -23.1180  -29.7500   22.7900 C   0  0  0  0  0  0  0  0  0  0  0  0
  -21.8350  -29.4390   22.5470 N   0  0  0  0  0  0  0  0  0  0  0  0
  -23.8080  -29.1350   23.6090 O   0  0  0  0  0  0  0  0  0  0  0  0
  -21.3350  -29.9990   21.8730 H   0  0  0  0  0  0  0  0  0  0  0  0
  -18.6300  -27.7710   22.5870 C   0  0  0  0  0  0  0  0  0  0  0  0
  -21.0760  -28.3590   23.1760 C   0  0  0  0  0  3  0  0  0  0  0  0
  -21.4490  -26.9830   22.5780 C   0  0  0  0  0  2  0  0  0  0  0  0
  -20.5310  -26.5600   21.4310 C   0  0  0  0  0  2  0  0  0  0  0  0
  -19.0730  -26.4900   21.9040 C   0  0  0  0  0  2  0  0  0  0  0  0
  -19.5720  -28.6560   23.1740 C   0  0  0  0  0  0  0  0  0  0  0  0
  -19.1120  -29.8520   23.7700 C   0  0  0  0  0  3  0  0  0  0  0  0
  -17.7380  -30.1600   23.7940 C   0  0  0  0  0  3  0  0  0  0  0  0
  -16.8090  -29.2690   23.2340 C   0  0  0  0  0  3  0  0  0  0  0  0
  -17.2530  -28.0790   22.6310 C   0  0  0  0  0  3  0  0  0  0  0  0
  -26.1310  -32.7670   24.4340 C   0  0  0  0  0  3  0  0  0  0  0  0
  -25.8200  -34.1640   24.7650 N   0  0  0  0  0  0  0  0  0  0  0  0
  -26.1930  -35.2230   24.0350 C   0  0  0  0  0  0  0  0  0  0  0  0
  -26.9090  -35.1220   23.0320 O   0  0  0  0  0  0  0  0  0  0  0  0
  -25.1920  -34.3150   25.5420 H   0  0  0  0  0  0  0  0  0  0  0  0
  -24.4940  -37.0350   23.6300 C   0  0  0  0  0  1  0  0  0  0  0  0
  -25.6960  -36.6100   24.4860 C   0  0  0  0  0  3  0  0  0  0  0  0
  -27.8020  -37.4700   25.4110 C   0  0  0  0  0  1  0  0  0  0  0  0
  -26.7390  -37.6560   24.4270 N   0  0  0  0  0  0  0  0  0  0  0  0
  -26.3350  -38.5790   24.5680 H   0  0  0  0  0  0  0  0  0  0  0  0
  -26.5890  -31.9720   25.7190 C   0  0  1  0  0  0  0  0  0  0  0  0
  -25.4470  -31.7050   26.7260 C   0  0  0  0  0  1  0  0  0  0  0  0
  -27.1950  -30.6030   25.3280 C   0  0  0  0  0  1  0  0  0  0  0  0
  -27.7010  -32.7560   26.4550 C   0  0  0  0  0  1  0  0  0  0  0  0
  1  3  1  0
  2  4  1  0
  2  5  1  0
  4  6  1  0
  5 12  1  0
  5  1  1  0
  6 56  1  0
  6  3  1  0
  6  7  1  6
  8 12  1  0
 10  8  2  0
 10 13  1  0
 11  9  1  0
 12  9  2  0
 13 11  2  0
 14 13  1  0
 14 15  1  0
 15 16  1  0
 16 17  1  0
 18 24  1  0
 18 26  1  0
 19 24  1  0
 20 21  1  0
 20 19  1  0
 22 21  1  0
 22 31  1  0
 22 23  1  0
 24 23  1  0
 25 18  2  0
 26 17  1  0
 26 27  1  0
 28 29  2  0
 29 48  1  0
 30 33  1  0
 30 29  1  0
 31 32  1  0
 31 28  1  0
 32 30  2  0
 33 34  1  0
 34 35  2  0
 36 39  1  0
 36 35  1  0
 37 36  2  0
 38 37  1  0
 38 33  2  0
 39 40  1  0
 40 45  2  0
 40 41  1  0
 41 42  2  0
 42 43  1  0
 43 47  1  0
 44 43  2  0
 45 44  1  0
 46 45  1  0
 48 49  1  0
 49 52  1  0
 49 51  1  0
 50 48  2  0
 53 28  1  0
 53 54  1  0
 55 53  1  0
 57 56  1  0
 58 57  1  0
 59 70  2  0
 60 58  1  0
 60 65  1  0
 61 69  1  0
 61 71  1  0
 62 68  1  0
 62 64  1  0
 63 69  1  0
 64 63  1  0
 65 64  2  0
 66 67  1  0
 66 60  2  0
 67 62  2  0
 68 61  1  0
 69 59  1  0
 71 73  2  0
 72 71  1  0
 74 72  1  0
 75 84  2  0
 75 80  1  0
 76 72  1  0
 77 76  1  0
 78 79  1  0
 78 77  1  0
 79 75  1  0
 80 76  1  0
 80 81  2  0
 81 82  1  0
 83 82  2  0
 84 83  1  0
 85 59  1  0
 85 86  1  0
 85 95  1  0
 86 89  1  0
 87 91  1  0
 87 86  1  0
 88 87  2  0
 91 90  1  0
 93 91  1  0
 93 94  1  0
 93 92  1  0
 95 98  1  1
 95 96  1  0
 97 95  1  0
M  ISO  4  18 100  26 100  57 101  58 101
M  END
>  <TORSDO>  (60) 
F 23

>  <SCORE>  (60) 
-8.243

>  <name>  (60) 
60

>  <ligand_id>  (60) 
60

>  <original_smiles>  (60) 
[H]c1c([H])c([H])c2c(c1[H])C([H])([H])C([H])([H])C([H])([H])C2([H])N([H])C(=O)C1([H])N(C(=O)C([H])(N([H])C(=O)C([H])(N([H])C([H])([H])[H])C([H])([H])[H])C(C([H])([H])[H])(C([H])([H])[H])C([H])([H])[H])C([H])([H])c2c([H])c(OC([H])([H])C([H])([H])[N+]3([H])C([H])([H])C([H])([H])C([H])(c4c([H])c([H])c(C([H])([H])C([H])([H])C([H])([H])C([H])([H])N([H])C(=O)N5C([H])([H])C([H])([H])C([H])([H])C([H])(n6nc(-c7c([H])c([H])c(Oc8c([H])c([H])c(F)c([H])c8F)c([H])c7[H])c(C(=O)N([H])[H])c6N([H])[H])C5([H])[H])c([H])c4[H])C([H])([H])C3([H])[H])c([H])c([H])c2C1([H])[H]

>  <smiles>  (60) 
[H]c1c([H])c([H])c2c(c1[H])C([H])([H])C([H])([H])C([H])([H])C2([H])N([H])C(=O)C1([H])N(C(=O)C([H])(N([H])C(=O)C([H])(N([H])C([H])([H])[H])C([H])([H])[H])C(C([H])([H])[H])(C([H])([H])[H])C([H])([H])[H])C([H])([H])c2c([H])c(OC([H])([H])C([H])([H])[N+]3([H])C([H])([H])C([H])([H])C([H])(c4c([H])c([H])c(C([H])([H])C([H])([H])C([H])([H])C([H])([H])N([H])C(=O)N5C([H])([H])C([H])([H])C([H])([H])C([H])(n6nc(-c7c([H])c([H])c(Oc8c([H])c([H])c(F)c([H])c8F)c([H])c7[H])c(C(=O)N([H])[H])c6N([H])[H])C5([H])[H])c([H])c4[H])C([H])([H])C3([H])[H])c([H])c([H])c2C1([H])[H]

$$$$
61:0:0
     RDKit          3D

 96104  0  0  1  0  0  0  0  0999 V2000
  -28.9750  -20.8660   21.7470 C   0  0  0  0  0  3  0  0  0  0  0  0
  -28.5930  -22.2100   21.5910 C   0  0  0  0  0  3  0  0  0  0  0  0
  -28.0470  -20.3560   19.5550 C   0  0  0  0  0  3  0  0  0  0  0  0
  -28.7500  -19.9410   20.7040 C   0  0  0  0  0  0  0  0  0  0  0  0
  -27.9760  -22.6450   20.3980 C   0  0  0  0  0  0  0  0  0  0  0  0
  -27.6540  -21.7000   19.3850 C   0  0  0  0  0  0  0  0  0  0  0  0
  -29.3060  -18.5490   20.7700 C   0  0  0  0  0  0  0  0  0  0  0  0
  -30.5620  -18.4890   21.2240 N   0  0  0  0  0  0  0  0  0  0  0  0
  -28.7030  -17.5830   20.2940 O   0  0  0  0  0  0  0  0  0  0  0  0
  -30.9490  -19.3580   21.5650 H   0  0  0  0  0  0  0  0  0  0  0  0
  -31.5040  -17.4130   20.9610 C   0  0  0  0  0  2  0  0  0  0  0  0
  -31.3310  -16.2060   21.9060 C   0  0  0  0  0  2  0  0  0  0  0  0
  -30.8590  -14.4120   20.2260 C   0  0  0  0  0  0  0  0  0  0  0  0
  -30.3780  -12.3750   18.9190 C   0  0  0  0  0  2  0  0  0  0  0  0
  -29.3710  -12.6360   17.7870 C   0  0  0  0  0  2  0  0  0  0  0  0
  -27.9290  -12.4950   18.3030 C   0  0  0  0  0  2  0  0  0  0  0  0
  -27.6810  -13.3070   19.6030 C   0  0  0  0  0  3  0  0  0  0  0  0
  -28.7880  -13.0320   20.6410 C   0  0  0  0  0  2  0  0  0  0  0  0
  -30.0960  -13.3090   20.0180 N   0  0  0  0  0  0  0  0  0  0  0  0
  -31.8190  -14.7130   19.5110 O   0  0  0  0  0  0  0  0  0  0  0  0
  -30.5600  -15.1070   21.3280 N   0  0  0  0  0  0  0  0  0  0  0  0
  -29.7700  -14.7740   21.8610 H   0  0  0  0  0  0  0  0  0  0  0  0
  -25.3330  -13.9250   20.4610 C   0  0  0  0  0  0  0  0  0  0  0  0
  -24.2760  -13.1540   20.8690 C   0  0  0  0  0  0  0  0  0  0  0  0
  -24.7180  -11.7990   20.7780 C   0  0  0  0  0  0  0  0  0  0  0  0
  -26.3520  -13.0380   20.1480 N   0  0  0  0  0  0  0  0  0  0  0  0
  -25.9880  -11.7530   20.3940 N   0  0  0  0  0  0  0  0  0  0  0  0
  -23.9900  -10.5390   20.9780 C   0  0  0  0  0  0  0  0  0  0  0  0
  -24.4410   -9.5610   21.8920 C   0  0  0  0  0  3  0  0  0  0  0  0
  -23.7140   -8.3660   22.0800 C   0  0  0  0  0  3  0  0  0  0  0  0
  -22.5200   -8.1400   21.3550 C   0  0  0  0  0  0  0  0  0  0  0  0
  -22.0860   -9.1070   20.4310 C   0  0  0  0  0  3  0  0  0  0  0  0
  -22.8130  -10.2940   20.2410 C   0  0  0  0  0  3  0  0  0  0  0  0
  -21.7610   -6.9980   21.4530 O   0  0  0  0  0  0  0  0  0  0  0  0
  -21.7140   -6.2620   22.6090 C   0  0  0  0  0  0  0  0  0  0  0  0
  -21.2880   -6.8260   23.8330 C   0  0  0  0  0  3  0  0  0  0  0  0
  -21.1880   -6.0170   24.9820 C   0  0  0  0  0  3  0  0  0  0  0  0
  -21.5040   -4.6470   24.9110 C   0  0  0  0  0  0  0  0  0  0  0  0
  -21.9220   -4.0840   23.6930 C   0  0  0  0  0  3  0  0  0  0  0  0
  -22.0250   -4.8890   22.5450 C   0  0  0  0  0  0  0  0  0  0  0  0
  -22.4090   -4.3380   21.3690 F   0  0  0  0  0  0  0  0  0  0  0  0
  -21.3990   -3.8680   26.0130 F   0  0  0  0  0  0  0  0  0  0  0  0
  -22.9050  -13.6400   21.2370 C   0  0  0  0  0  0  0  0  0  0  0  0
  -22.2200  -12.9280   22.1270 N   0  0  0  0  0  0  0  0  0  0  0  0
  -22.4500  -14.6830   20.7710 O   0  0  0  0  0  0  0  0  0  0  0  0
  -22.5990  -12.0830   22.5220 H   0  0  0  0  0  0  0  0  0  0  0  0
  -21.3030  -13.2390   22.4140 H   0  0  0  0  0  0  0  0  0  0  0  0
  -25.5090  -15.2970   20.3120 N   0  0  0  0  0  0  0  0  0  0  0  0
  -24.7730  -15.9680   20.4990 H   0  0  0  0  0  0  0  0  0  0  0  0
  -26.3740  -15.7310   20.0090 H   0  0  0  0  0  0  0  0  0  0  0  0
  -25.7040  -21.2640   17.7810 C   0  0  0  0  0  1  0  0  0  0  0  0
  -26.9680  -22.0850   18.0740 C   0  0  0  0  0  2  0  0  0  0  0  0
  -27.7920  -24.1410   20.1980 C   0  0  0  0  0  2  0  0  0  0  0  0
  -28.9230  -24.6910   19.3010 C   0  0  0  0  0  2  0  0  0  0  0  0
  -28.8380  -26.1740   18.9160 C   0  0  0  0  0  2  0  0  0  0  0  0
  -28.5830  -26.9930   20.0550 O   0  0  0  0  0  0  0  0  0  0  0  0
  -24.6230  -31.9660   23.2460 C   0  0  0  0  0  0  0  0  0  0  0  0
  -27.3650  -27.6360   20.1050 C   0  0  0  0  0  0  0  0  0  0  0  0
  -23.4520  -30.5630   21.5820 C   0  0  0  0  0  3  0  0  0  0  0  0
  -24.9360  -29.0720   20.1540 C   0  0  0  0  0  0  0  0  0  0  0  0
  -25.9720  -30.9720   21.4040 C   0  0  0  0  0  2  0  0  0  0  0  0
  -26.0810  -29.6090   20.7560 C   0  0  0  0  0  0  0  0  0  0  0  0
  -27.2960  -28.8890   20.7470 C   0  0  0  0  0  3  0  0  0  0  0  0
  -26.1880  -27.0950   19.5320 C   0  0  0  0  0  3  0  0  0  0  0  0
  -24.9770  -27.8060   19.5540 C   0  0  0  0  0  3  0  0  0  0  0  0
  -23.6780  -29.9050   20.1980 C   0  0  0  0  0  2  0  0  0  0  0  0
  -24.7010  -31.1800   22.1350 N   0  0  0  0  0  0  0  0  0  0  0  0
  -23.5330  -32.2150   23.7790 O   0  0  0  0  0  0  0  0  0  0  0  0
  -22.8160  -29.5150   22.5240 C   0  0  0  0  0  0  0  0  0  0  0  0
  -21.4960  -29.3080   22.3810 N   0  0  0  0  0  0  0  0  0  0  0  0
  -23.5060  -28.8930   23.3360 O   0  0  0  0  0  0  0  0  0  0  0  0
  -21.0030  -29.8620   21.6960 H   0  0  0  0  0  0  0  0  0  0  0  0
  -18.1390  -28.0570   22.8330 C   0  0  0  0  0  0  0  0  0  0  0  0
  -20.6880  -28.3460   23.1290 C   0  0  0  0  0  3  0  0  0  0  0  0
  -20.8180  -26.9270   22.5310 C   0  0  0  0  0  2  0  0  0  0  0  0
  -19.7280  -26.6020   21.5050 C   0  0  0  0  0  2  0  0  0  0  0  0
  -18.3390  -26.7190   22.1390 C   0  0  0  0  0  2  0  0  0  0  0  0
  -19.2430  -28.8280   23.2820 C   0  0  0  0  0  0  0  0  0  0  0  0
  -19.0020  -30.0820   23.8850 C   0  0  0  0  0  3  0  0  0  0  0  0
  -17.6880  -30.5650   24.0430 C   0  0  0  0  0  3  0  0  0  0  0  0
  -16.5990  -29.7870   23.6150 C   0  0  0  0  0  3  0  0  0  0  0  0
  -16.8240  -28.5350   23.0160 C   0  0  0  0  0  3  0  0  0  0  0  0
  -25.8940  -32.6100   23.8830 C   0  0  0  0  0  3  0  0  0  0  0  0
  -25.5680  -34.0060   24.1980 N   0  0  0  0  0  0  0  0  0  0  0  0
  -25.9090  -35.0560   23.4390 C   0  0  0  0  0  0  0  0  0  0  0  0
  -26.6030  -34.9510   22.4250 O   0  0  0  0  0  0  0  0  0  0  0  0
  -24.9540  -34.1610   24.9860 H   0  0  0  0  0  0  0  0  0  0  0  0
  -24.1790  -36.8330   23.0280 C   0  0  0  0  0  1  0  0  0  0  0  0
  -25.4000  -36.4410   23.8740 C   0  0  0  0  0  3  0  0  0  0  0  0
  -27.5100  -37.3450   24.7540 C   0  0  0  0  0  1  0  0  0  0  0  0
  -26.4310  -37.5000   23.7820 N   0  0  0  0  0  0  0  0  0  0  0  0
  -26.0140  -38.4170   23.9140 H   0  0  0  0  0  0  0  0  0  0  0  0
  -26.4030  -31.8480   25.1670 C   0  0  1  0  0  0  0  0  0  0  0  0
  -25.2970  -31.5790   26.2150 C   0  0  0  0  0  1  0  0  0  0  0  0
  -27.0240  -30.4850   24.7810 C   0  0  0  0  0  1  0  0  0  0  0  0
  -27.5260  -32.6610   25.8520 C   0  0  0  0  0  1  0  0  0  0  0  0
  2  1  1  0
  3  4  1  0
  4  7  1  0
  4  1  2  0
  5  2  2  0
  6  3  2  0
  6  5  1  0
  7  8  1  0
  8 10  1  0
  9  7  2  0
 11  8  1  0
 11 12  1  0
 13 21  1  0
 14 19  1  0
 15 16  1  0
 15 14  1  0
 17 16  1  0
 17 26  1  0
 17 18  1  0
 19 13  1  0
 19 18  1  0
 20 13  2  0
 21 22  1  0
 21 12  1  0
 23 24  2  0
 24 43  1  0
 25 24  1  0
 25 28  1  0
 26 27  1  0
 26 23  1  0
 27 25  2  0
 28 29  1  0
 29 30  2  0
 31 34  1  0
 31 30  1  0
 32 31  2  0
 33 32  1  0
 33 28  2  0
 34 35  1  0
 35 36  1  0
 36 37  2  0
 38 37  1  0
 38 42  1  0
 39 38  2  0
 40 35  2  0
 40 39  1  0
 41 40  1  0
 43 44  1  0
 44 47  1  0
 44 46  1  0
 45 43  2  0
 48 23  1  0
 48 49  1  0
 50 48  1  0
 51 52  1  0
 52  6  1  0
 53  5  1  0
 54 53  1  0
 55 54  1  0
 55 56  1  0
 56 58  1  0
 57 68  2  0
 58 63  1  0
 59 67  1  0
 59 69  1  0
 60 66  1  0
 60 62  1  0
 61 67  1  0
 62 61  1  0
 63 62  2  0
 64 65  1  0
 64 58  2  0
 65 60  2  0
 66 59  1  0
 67 57  1  0
 69 71  2  0
 70 69  1  0
 72 70  1  0
 73 82  2  0
 73 78  1  0
 74 70  1  0
 74 78  1  0
 75 74  1  0
 76 77  1  0
 76 75  1  0
 77 73  1  0
 78 79  2  0
 79 80  1  0
 81 80  2  0
 82 81  1  0
 83 57  1  0
 83 84  1  0
 83 93  1  0
 84 87  1  0
 85 89  1  0
 85 84  1  0
 86 85  2  0
 89 88  1  0
 91 89  1  0
 91 92  1  0
 91 90  1  0
 93 96  1  1
 93 94  1  0
 95 93  1  0
M  ISO  4  13 100  21 100  55 101  56 101
M  END
>  <TORSDO>  (61) 
F 23

>  <SCORE>  (61) 
-12.904

>  <name>  (61) 
61

>  <ligand_id>  (61) 
61

>  <original_smiles>  (61) 
[H]c1c([H])c([H])c2c(c1[H])C([H])([H])C([H])([H])C([H])([H])C2([H])N([H])C(=O)C1([H])N(C(=O)C([H])(N([H])C(=O)C([H])(N([H])C([H])([H])[H])C([H])([H])[H])C(C([H])([H])[H])(C([H])([H])[H])C([H])([H])[H])C([H])([H])c2c([H])c(OC([H])([H])C([H])([H])C([H])([H])c3c([H])c([H])c(C(=O)N([H])C([H])([H])C([H])([H])N([H])C(=O)N4C([H])([H])C([H])([H])C([H])([H])C([H])(n5nc(-c6c([H])c([H])c(Oc7c([H])c([H])c(F)c([H])c7F)c([H])c6[H])c(C(=O)N([H])[H])c5N([H])[H])C4([H])[H])c([H])c3C([H])([H])C([H])([H])[H])c([H])c([H])c2C1([H])[H]

>  <smiles>  (61) 
[H]c1c([H])c([H])c2c(c1[H])C([H])([H])C([H])([H])C([H])([H])C2([H])N([H])C(=O)C1([H])N(C(=O)C([H])(N([H])C(=O)C([H])(N([H])C([H])([H])[H])C([H])([H])[H])C(C([H])([H])[H])(C([H])([H])[H])C([H])([H])[H])C([H])([H])c2c([H])c(OC([H])([H])C([H])([H])C([H])([H])c3c([H])c([H])c(C(=O)N([H])C([H])([H])C([H])([H])N([H])C(=O)N4C([H])([H])C([H])([H])C([H])([H])C([H])(n5nc(-c6c([H])c([H])c(Oc7c([H])c([H])c(F)c([H])c7F)c([H])c6[H])c(C(=O)N([H])[H])c5N([H])[H])C4([H])[H])c([H])c3C([H])([H])C([H])([H])[H])c([H])c([H])c2C1([H])[H]

$$$$
62:0:0
     RDKit          3D

 94101  0  0  1  0  0  0  0  0999 V2000
  -30.8070  -21.3750   21.5050 C   0  0  0  0  0  0  0  0  0  0  0  0
  -29.7250  -22.1300   21.2700 N   0  0  0  0  0  0  0  0  0  0  0  0
  -31.9490  -21.8180   21.3590 O   0  0  0  0  0  0  0  0  0  0  0  0
  -28.8400  -21.6580   21.3980 H   0  0  0  0  0  0  0  0  0  0  0  0
  -29.1620  -19.8220   22.7010 C   0  0  0  0  0  1  0  0  0  0  0  0
  -30.5720  -19.9290   22.0480 C   0  0  2  0  0  0  0  0  0  0  0  0
  -31.3890  -18.4510   24.0910 C   0  0  0  0  0  1  0  0  0  0  0  0
  -31.6520  -19.6390   23.1360 C   0  0  0  0  0  2  0  0  0  0  0  0
  -30.6210  -18.8770   20.9010 C   0  0  0  0  0  2  0  0  0  0  0  0
  -31.9950  -18.3920   20.3780 C   0  0  0  0  0  2  0  0  0  0  0  0
  -31.8420  -16.9870   19.7690 C   0  0  0  0  0  2  0  0  0  0  0  0
  -33.3040  -15.0630   19.1990 C   0  0  0  0  0  0  0  0  0  0  0  0
  -32.7310  -12.7450   18.5640 C   0  0  0  0  0  2  0  0  0  0  0  0
  -31.7130  -12.7140   17.4080 C   0  0  0  0  0  2  0  0  0  0  0  0
  -30.2660  -12.8110   17.9330 C   0  0  0  0  0  2  0  0  0  0  0  0
  -30.0820  -13.9580   18.9610 C   0  0  0  0  0  3  0  0  0  0  0  0
  -31.1980  -13.8980   20.0310 C   0  0  0  0  0  2  0  0  0  0  0  0
  -32.4990  -13.9700   19.3460 N   0  0  0  0  0  0  0  0  0  0  0  0
  -34.3300  -15.0460   18.5170 O   0  0  0  0  0  0  0  0  0  0  0  0
  -33.0390  -16.1560   19.9310 N   0  0  0  0  0  0  0  0  0  0  0  0
  -33.8700  -16.7180   20.0470 H   0  0  0  0  0  0  0  0  0  0  0  0
  -27.9200  -14.9890   19.9030 C   0  0  0  0  0  0  0  0  0  0  0  0
  -26.7560  -14.4240   20.3490 C   0  0  0  0  0  0  0  0  0  0  0  0
  -26.9330  -13.0120   20.2280 C   0  0  0  0  0  0  0  0  0  0  0  0
  -28.7460  -13.9330   19.5520 N   0  0  0  0  0  0  0  0  0  0  0  0
  -28.1560  -12.7350   19.7960 N   0  0  0  0  0  0  0  0  0  0  0  0
  -25.9900  -11.9050   20.4430 C   0  0  0  0  0  0  0  0  0  0  0  0
  -26.1760  -10.9720   21.4830 C   0  0  0  0  0  3  0  0  0  0  0  0
  -25.2440   -9.9300   21.6880 C   0  0  0  0  0  3  0  0  0  0  0  0
  -24.1130   -9.8130   20.8420 C   0  0  0  0  0  0  0  0  0  0  0  0
  -23.9480  -10.7330   19.7920 C   0  0  0  0  0  3  0  0  0  0  0  0
  -24.8770  -11.7680   19.5910 C   0  0  0  0  0  3  0  0  0  0  0  0
  -23.1730   -8.8160   20.9450 O   0  0  0  0  0  0  0  0  0  0  0  0
  -22.6780   -8.4200   22.1620 C   0  0  0  0  0  0  0  0  0  0  0  0
  -22.0030   -9.3150   23.0180 C   0  0  0  0  0  3  0  0  0  0  0  0
  -21.4490   -8.8510   24.2280 C   0  0  0  0  0  3  0  0  0  0  0  0
  -21.5590   -7.4910   24.5770 C   0  0  0  0  0  0  0  0  0  0  0  0
  -22.2230   -6.5960   23.7190 C   0  0  0  0  0  3  0  0  0  0  0  0
  -22.7770   -7.0590   22.5120 C   0  0  0  0  0  0  0  0  0  0  0  0
  -23.3980   -6.1900   21.6790 F   0  0  0  0  0  0  0  0  0  0  0  0
  -21.0210   -7.0390   25.7350 F   0  0  0  0  0  0  0  0  0  0  0  0
  -25.5070  -15.1510   20.7640 C   0  0  0  0  0  0  0  0  0  0  0  0
  -24.7370  -14.5730   21.6790 N   0  0  0  0  0  0  0  0  0  0  0  0
  -25.2330  -16.2600   20.3080 O   0  0  0  0  0  0  0  0  0  0  0  0
  -24.9750  -13.6740   22.0720 H   0  0  0  0  0  0  0  0  0  0  0  0
  -23.9040  -15.0430   22.0060 H   0  0  0  0  0  0  0  0  0  0  0  0
  -28.3420  -16.3060   19.7350 N   0  0  0  0  0  0  0  0  0  0  0  0
  -27.7440  -17.1060   19.9040 H   0  0  0  0  0  0  0  0  0  0  0  0
  -29.1940  -16.5380   19.2420 H   0  0  0  0  0  0  0  0  0  0  0  0
  -29.6690  -23.5800   21.0970 C   0  0  0  0  0  2  0  0  0  0  0  0
  -30.2030  -24.0530   19.7300 C   0  0  0  0  0  2  0  0  0  0  0  0
  -30.1680  -25.5900   19.5740 C   0  0  0  0  0  2  0  0  0  0  0  0
  -28.7560  -26.1260   19.2600 C   0  0  0  0  0  2  0  0  0  0  0  0
  -28.7080  -27.5440   19.4200 O   0  0  0  0  0  0  0  0  0  0  0  0
  -24.5820  -31.8860   23.2230 C   0  0  0  0  0  0  0  0  0  0  0  0
  -27.4590  -28.1140   19.5350 C   0  0  0  0  0  0  0  0  0  0  0  0
  -23.4220  -30.5590   21.4890 C   0  0  0  0  0  3  0  0  0  0  0  0
  -24.9290  -29.3420   19.8360 C   0  0  0  0  0  0  0  0  0  0  0  0
  -25.8840  -31.1950   21.2150 C   0  0  0  0  0  2  0  0  0  0  0  0
  -26.0610  -29.9140   20.4250 C   0  0  0  0  0  0  0  0  0  0  0  0
  -27.3260  -29.3090   20.2730 C   0  0  0  0  0  3  0  0  0  0  0  0
  -26.3050  -27.5490   18.9360 C   0  0  0  0  0  3  0  0  0  0  0  0
  -25.0430  -28.1540   19.0910 C   0  0  0  0  0  3  0  0  0  0  0  0
  -23.6130  -30.0560   20.0330 C   0  0  0  0  0  2  0  0  0  0  0  0
  -24.6500  -31.2220   22.0350 N   0  0  0  0  0  0  0  0  0  0  0  0
  -23.5120  -31.9880   23.8390 O   0  0  0  0  0  0  0  0  0  0  0  0
  -22.9250  -29.3780   22.3520 C   0  0  0  0  0  0  0  0  0  0  0  0
  -21.6370  -29.0280   22.2020 N   0  0  0  0  0  0  0  0  0  0  0  0
  -23.6920  -28.7820   23.1130 O   0  0  0  0  0  0  0  0  0  0  0  0
  -21.0710  -29.5640   21.5570 H   0  0  0  0  0  0  0  0  0  0  0  0
  -18.4820  -27.2920   22.5170 C   0  0  0  0  0  0  0  0  0  0  0  0
  -20.9610  -27.9250   22.8870 C   0  0  0  0  0  3  0  0  0  0  0  0
  -21.2990  -26.5670   22.2270 C   0  0  0  0  0  2  0  0  0  0  0  0
  -20.2850  -26.1460   21.1600 C   0  0  0  0  0  2  0  0  0  0  0  0
  -18.8820  -26.0310   21.7650 C   0  0  0  0  0  2  0  0  0  0  0  0
  -19.4580  -28.1860   23.0300 C   0  0  0  0  0  0  0  0  0  0  0  0
  -19.0310  -29.3580   23.6930 C   0  0  0  0  0  3  0  0  0  0  0  0
  -17.6620  -29.6450   23.8390 C   0  0  0  0  0  3  0  0  0  0  0  0
  -16.7010  -28.7470   23.3420 C   0  0  0  0  0  3  0  0  0  0  0  0
  -17.1090  -27.5710   22.6890 C   0  0  0  0  0  3  0  0  0  0  0  0
  -25.8360  -32.5690   23.8500 C   0  0  0  0  0  3  0  0  0  0  0  0
  -26.3860  -31.8150   25.1220 C   0  0  1  0  0  0  0  0  0  0  0  0
  -25.3010  -31.5120   26.1810 C   0  0  0  0  0  1  0  0  0  0  0  0
  -27.0430  -30.4720   24.7180 C   0  0  0  0  0  1  0  0  0  0  0  0
  -27.4900  -32.6630   25.7980 C   0  0  0  0  0  1  0  0  0  0  0  0
  -25.4680  -33.9510   24.1810 N   0  0  0  0  0  0  0  0  0  0  0  0
  -25.7950  -35.0220   23.4430 C   0  0  0  0  0  0  0  0  0  0  0  0
  -26.5090  -34.9520   22.4390 O   0  0  0  0  0  0  0  0  0  0  0  0
  -24.8410  -34.0780   24.9610 H   0  0  0  0  0  0  0  0  0  0  0  0
  -24.0320  -36.7640   23.0160 C   0  0  0  0  0  1  0  0  0  0  0  0
  -25.2370  -36.3860   23.8910 C   0  0  0  0  0  3  0  0  0  0  0  0
  -27.2920  -37.3220   24.8540 C   0  0  0  0  0  1  0  0  0  0  0  0
  -26.2410  -37.4710   23.8530 N   0  0  0  0  0  0  0  0  0  0  0  0
  -25.7970  -38.3750   23.9950 H   0  0  0  0  0  0  0  0  0  0  0  0
  1  6  1  0
  2  4  1  0
  2  1  1  0
  3  1  2  0
  6  5  1  1
  6  8  1  0
  8  7  1  0
  9  6  1  0
 10  9  1  0
 11 20  1  0
 11 10  1  0
 12 18  1  0
 12 20  1  0
 13 18  1  0
 14 15  1  0
 14 13  1  0
 16 15  1  0
 16 25  1  0
 16 17  1  0
 18 17  1  0
 19 12  2  0
 20 21  1  0
 22 23  2  0
 23 42  1  0
 24 23  1  0
 24 27  1  0
 25 26  1  0
 25 22  1  0
 26 24  2  0
 27 28  1  0
 28 29  2  0
 30 33  1  0
 30 29  1  0
 31 30  2  0
 32 31  1  0
 32 27  2  0
 33 34  1  0
 34 39  2  0
 34 35  1  0
 35 36  2  0
 36 37  1  0
 37 41  1  0
 38 37  2  0
 39 38  1  0
 40 39  1  0
 42 43  1  0
 43 46  1  0
 43 45  1  0
 44 42  2  0
 47 22  1  0
 47 48  1  0
 49 47  1  0
 50  2  1  0
 51 50  1  0
 52 51  1  0
 53 54  1  0
 53 52  1  0
 54 56  1  0
 55 66  2  0
 56 61  1  0
 57 65  1  0
 57 67  1  0
 58 64  1  0
 58 60  1  0
 59 65  1  0
 60 59  1  0
 61 60  2  0
 62 63  1  0
 62 56  2  0
 63 58  2  0
 64 57  1  0
 65 55  1  0
 67 69  2  0
 68 67  1  0
 70 68  1  0
 71 80  2  0
 71 76  1  0
 72 68  1  0
 72 76  1  0
 73 72  1  0
 74 75  1  0
 74 73  1  0
 75 71  1  0
 76 77  2  0
 77 78  1  0
 79 78  2  0
 80 79  1  0
 81 55  1  0
 81 86  1  0
 81 82  1  0
 82 85  1  1
 82 83  1  0
 84 82  1  0
 86 89  1  0
 87 91  1  0
 87 86  1  0
 88 87  2  0
 91 90  1  0
 93 91  1  0
 93 94  1  0
 93 92  1  0
M  ISO  4  12 100  20 100  53 101  54 101
M  END
>  <TORSDO>  (62) 
F 25

>  <SCORE>  (62) 
-4.524

>  <name>  (62) 
62

>  <ligand_id>  (62) 
62

>  <original_smiles>  (62) 
[H]c1c([H])c([H])c2c(c1[H])C([H])([H])C([H])([H])C([H])([H])C2([H])N([H])C(=O)C1([H])N(C(=O)C([H])(N([H])C(=O)C([H])(N([H])C([H])([H])[H])C([H])([H])[H])C(C([H])([H])[H])(C([H])([H])[H])C([H])([H])[H])C([H])([H])c2c([H])c(OC([H])([H])C([H])([H])C([H])([H])C([H])([H])N([H])C(=O)C(C([H])([H])[H])(C([H])([H])C([H])([H])[H])C([H])([H])C([H])([H])C([H])([H])N([H])C(=O)N3C([H])([H])C([H])([H])C([H])([H])C([H])(n4nc(-c5c([H])c([H])c(Oc6c([H])c([H])c(F)c([H])c6F)c([H])c5[H])c(C(=O)N([H])[H])c4N([H])[H])C3([H])[H])c([H])c([H])c2C1([H])[H]

>  <smiles>  (62) 
[H]c1c([H])c([H])c2c(c1[H])C([H])([H])C([H])([H])C([H])([H])C2([H])N([H])C(=O)C1([H])N(C(=O)C([H])(N([H])C(=O)C([H])(N([H])C([H])([H])[H])C([H])([H])[H])C(C([H])([H])[H])(C([H])([H])[H])C([H])([H])[H])C([H])([H])c2c([H])c(OC([H])([H])C([H])([H])C([H])([H])C([H])([H])N([H])C(=O)C(C([H])([H])[H])(C([H])([H])C([H])([H])[H])C([H])([H])C([H])([H])C([H])([H])N([H])C(=O)N3C([H])([H])C([H])([H])C([H])([H])C([H])(n4nc(-c5c([H])c([H])c(Oc6c([H])c([H])c(F)c([H])c6F)c([H])c5[H])c(C(=O)N([H])[H])c4N([H])[H])C3([H])[H])c([H])c([H])c2C1([H])[H]

$$$$
63:0:0
     RDKit          3D

 97105  0  0  1  0  0  0  0  0999 V2000
  -31.7450  -22.8030   22.5440 C   0  0  0  0  0  2  0  0  0  0  0  0
  -32.6030  -24.8850   19.4320 C   0  0  0  0  0  3  0  0  0  0  0  0
  -32.7210  -24.0150   20.5310 C   0  0  0  0  0  3  0  0  0  0  0  0
  -31.3620  -25.4790   19.1340 C   0  0  0  0  0  3  0  0  0  0  0  0
  -30.3540  -24.3190   21.0310 C   0  0  0  0  0  3  0  0  0  0  0  0
  -31.6010  -23.7320   21.3430 C   0  0  0  0  0  0  0  0  0  0  0  0
  -30.2310  -25.1860   19.9210 C   0  0  0  0  0  0  0  0  0  0  0  0
  -28.8860  -25.7930   19.5710 C   0  0  0  0  0  2  0  0  0  0  0  0
  -28.7910  -27.1360   20.0280 O   0  0  0  0  0  0  0  0  0  0  0  0
  -24.6620  -31.9250   23.2230 C   0  0  0  0  0  0  0  0  0  0  0  0
  -27.5560  -27.7450   20.0170 C   0  0  0  0  0  0  0  0  0  0  0  0
  -23.5410  -30.5260   21.5180 C   0  0  0  0  0  3  0  0  0  0  0  0
  -25.0800  -29.1110   20.0560 C   0  0  0  0  0  0  0  0  0  0  0  0
  -26.0460  -31.0150   21.3640 C   0  0  0  0  0  2  0  0  0  0  0  0
  -26.2000  -29.6770   20.6760 C   0  0  0  0  0  0  0  0  0  0  0  0
  -27.4370  -28.9990   20.6530 C   0  0  0  0  0  3  0  0  0  0  0  0
  -26.4110  -27.1830   19.4000 C   0  0  0  0  0  3  0  0  0  0  0  0
  -25.1790  -27.8640   19.4170 C   0  0  0  0  0  3  0  0  0  0  0  0
  -23.7940  -29.9030   20.1180 C   0  0  0  0  0  2  0  0  0  0  0  0
  -24.7660  -31.1690   22.0920 N   0  0  0  0  0  0  0  0  0  0  0  0
  -23.5640  -32.1250   23.7610 O   0  0  0  0  0  0  0  0  0  0  0  0
  -22.9330  -29.4410   22.4350 C   0  0  0  0  0  0  0  0  0  0  0  0
  -21.6170  -29.2110   22.3000 N   0  0  0  0  0  0  0  0  0  0  0  0
  -23.6430  -28.8090   23.2230 O   0  0  0  0  0  0  0  0  0  0  0  0
  -21.1060  -29.7770   21.6360 H   0  0  0  0  0  0  0  0  0  0  0  0
  -18.2920  -27.8670   22.7360 C   0  0  0  0  0  0  0  0  0  0  0  0
  -20.8360  -28.2120   23.0280 C   0  0  0  0  0  3  0  0  0  0  0  0
  -20.9960  -26.8100   22.3960 C   0  0  0  0  0  2  0  0  0  0  0  0
  -19.9090  -26.4850   21.3660 C   0  0  0  0  0  2  0  0  0  0  0  0
  -18.5220  -26.5530   22.0100 C   0  0  0  0  0  2  0  0  0  0  0  0
  -19.3780  -28.6550   23.2000 C   0  0  0  0  0  0  0  0  0  0  0  0
  -19.1080  -29.8870   23.8350 C   0  0  0  0  0  3  0  0  0  0  0  0
  -17.7850  -30.3300   24.0150 C   0  0  0  0  0  3  0  0  0  0  0  0
  -16.7130  -29.5390   23.5660 C   0  0  0  0  0  3  0  0  0  0  0  0
  -16.9670  -28.3100   22.9330 C   0  0  0  0  0  3  0  0  0  0  0  0
  -25.9100  -32.5950   23.8770 C   0  0  0  0  0  3  0  0  0  0  0  0
  -26.4210  -31.8400   25.1650 C   0  0  1  0  0  0  0  0  0  0  0  0
  -25.3120  -31.5820   26.2130 C   0  0  0  0  0  1  0  0  0  0  0  0
  -27.0480  -30.4770   24.7930 C   0  0  0  0  0  1  0  0  0  0  0  0
  -27.5350  -32.6670   25.8460 C   0  0  0  0  0  1  0  0  0  0  0  0
  -25.5490  -33.9840   24.1930 N   0  0  0  0  0  0  0  0  0  0  0  0
  -25.8870  -35.0470   23.4500 C   0  0  0  0  0  0  0  0  0  0  0  0
  -26.6030  -34.9630   22.4490 O   0  0  0  0  0  0  0  0  0  0  0  0
  -24.9140  -34.1200   24.9660 H   0  0  0  0  0  0  0  0  0  0  0  0
  -24.1270  -36.7930   23.0200 C   0  0  0  0  0  1  0  0  0  0  0  0
  -25.3420  -36.4200   23.8860 C   0  0  0  0  0  3  0  0  0  0  0  0
  -27.4160  -37.3610   24.8070 C   0  0  0  0  0  1  0  0  0  0  0  0
  -26.3490  -37.5010   23.8190 N   0  0  0  0  0  0  0  0  0  0  0  0
  -25.9130  -38.4090   23.9470 H   0  0  0  0  0  0  0  0  0  0  0  0
  -31.3250  -21.4280   22.2080 N   0  0  0  0  0  4  0  0  0  0  0  0
  -31.9440  -20.7870   22.6750 H   0  0  0  0  0  0  0  0  0  0  0  0
  -31.4720  -21.3250   21.2160 H   0  0  0  0  0  0  0  0  0  0  0  0
  -29.7670  -20.6790   24.0240 C   0  0  0  0  0  1  0  0  0  0  0  0
  -29.9220  -21.0890   22.5470 C   0  0  0  0  0  3  0  0  0  0  0  0
  -29.3170  -20.0680   21.5520 C   0  0  0  0  0  2  0  0  0  0  0  0
  -29.6950  -18.5750   21.7210 C   0  0  0  0  0  2  0  0  0  0  0  0
  -31.0370  -18.1280   21.1020 C   0  0  0  0  0  2  0  0  0  0  0  0
  -31.3780  -16.6620   21.4340 C   0  0  0  0  0  2  0  0  0  0  0  0
  -32.3920  -16.0210   20.4630 C   0  0  0  0  0  2  0  0  0  0  0  0
  -32.3310  -13.8820   19.3520 C   0  0  0  0  0  0  0  0  0  0  0  0
  -31.6740  -11.5640   18.8740 C   0  0  0  0  0  2  0  0  0  0  0  0
  -30.6130  -11.5390   17.7580 C   0  0  0  0  0  2  0  0  0  0  0  0
  -29.2020  -11.6910   18.3460 C   0  0  0  0  0  2  0  0  0  0  0  0
  -29.0850  -12.8950   19.3130 C   0  0  0  0  0  3  0  0  0  0  0  0
  -30.2380  -12.8910   20.3440 C   0  0  0  0  0  2  0  0  0  0  0  0
  -31.5110  -12.8290   19.6050 N   0  0  0  0  0  0  0  0  0  0  0  0
  -33.4320  -13.7730   18.8020 O   0  0  0  0  0  0  0  0  0  0  0  0
  -31.4270  -15.7730   18.2310 C   0  0  0  0  0  1  0  0  0  0  0  0
  -31.7760  -15.1050   19.4900 N   0  0  0  0  0  0  0  0  0  0  0  0
  -27.0510  -14.0250   20.4130 C   0  0  0  0  0  0  0  0  0  0  0  0
  -25.8530  -13.5220   20.8490 C   0  0  0  0  0  0  0  0  0  0  0  0
  -25.9070  -12.1150   20.6160 C   0  0  0  0  0  0  0  0  0  0  0  0
  -27.7720  -12.9340   19.9540 N   0  0  0  0  0  0  0  0  0  0  0  0
  -27.0930  -11.7720   20.1300 N   0  0  0  0  0  0  0  0  0  0  0  0
  -24.8750  -11.0810   20.7770 C   0  0  0  0  0  0  0  0  0  0  0  0
  -25.1240   -9.9080   21.5230 C   0  0  0  0  0  3  0  0  0  0  0  0
  -24.1160   -8.9300   21.6780 C   0  0  0  0  0  3  0  0  0  0  0  0
  -22.8430   -9.1260   21.0900 C   0  0  0  0  0  0  0  0  0  0  0  0
  -22.6090  -10.2840   20.3290 C   0  0  0  0  0  3  0  0  0  0  0  0
  -23.6150  -11.2530   20.1720 C   0  0  0  0  0  3  0  0  0  0  0  0
  -21.8120   -8.2230   21.1680 O   0  0  0  0  0  0  0  0  0  0  0  0
  -21.6820   -7.3700   22.2350 C   0  0  0  0  0  0  0  0  0  0  0  0
  -21.5830   -7.8450   23.5600 C   0  0  0  0  0  3  0  0  0  0  0  0
  -21.3820   -6.9380   24.6200 C   0  0  0  0  0  3  0  0  0  0  0  0
  -21.2670   -5.5600   24.3560 C   0  0  0  0  0  0  0  0  0  0  0  0
  -21.3610   -5.0850   23.0370 C   0  0  0  0  0  3  0  0  0  0  0  0
  -21.5650   -5.9890   21.9780 C   0  0  0  0  0  0  0  0  0  0  0  0
  -21.6340   -5.5290   20.7050 F   0  0  0  0  0  0  0  0  0  0  0  0
  -21.0650   -4.6890   25.3720 F   0  0  0  0  0  0  0  0  0  0  0  0
  -24.6850  -14.3140   21.3650 C   0  0  0  0  0  0  0  0  0  0  0  0
  -23.9000  -13.7290   22.2640 N   0  0  0  0  0  0  0  0  0  0  0  0
  -24.4860  -15.4740   21.0090 O   0  0  0  0  0  0  0  0  0  0  0  0
  -24.0710  -12.7810   22.5660 H   0  0  0  0  0  0  0  0  0  0  0  0
  -23.1150  -14.2320   22.6530 H   0  0  0  0  0  0  0  0  0  0  0  0
  -27.5760  -15.3110   20.3560 N   0  0  0  0  0  0  0  0  0  0  0  0
  -27.0480  -16.1280   20.6430 H   0  0  0  0  0  0  0  0  0  0  0  0
  -28.4980  -15.5350   20.0010 H   0  0  0  0  0  0  0  0  0  0  0  0
  2  3  1  0
  3  6  2  0
  4  2  2  0
  4  7  1  0
  5  6  1  0
  6  1  1  0
  7  5  2  0
  8  7  1  0
  8  9  1  0
 10 21  2  0
 11  9  1  0
 11 16  1  0
 12 20  1  0
 12 22  1  0
 13 19  1  0
 13 15  1  0
 14 20  1  0
 15 14  1  0
 16 15  2  0
 17 18  1  0
 17 11  2  0
 18 13  2  0
 19 12  1  0
 20 10  1  0
 22 24  2  0
 23 22  1  0
 25 23  1  0
 26 35  2  0
 26 31  1  0
 27 23  1  0
 27 31  1  0
 28 27  1  0
 29 30  1  0
 29 28  1  0
 30 26  1  0
 31 32  2  0
 32 33  1  0
 34 33  2  0
 35 34  1  0
 36 10  1  0
 36 41  1  0
 36 37  1  0
 37 40  1  1
 37 38  1  0
 39 37  1  0
 41 44  1  0
 42 46  1  0
 42 41  1  0
 43 42  2  0
 46 45  1  0
 48 46  1  0
 48 49  1  0
 48 47  1  0
 50  1  1  0
 50 54  1  0
 50 51  1  0
 52 50  1  0
 54 53  1  0
 55 56  1  0
 55 54  1  0
 57 58  1  0
 57 56  1  0
 59 58  1  0
 60 69  1  0
 60 66  1  0
 61 66  1  0
 62 63  1  0
 62 61  1  0
 64 63  1  0
 64 73  1  0
 64 65  1  0
 66 65  1  0
 67 60  2  0
 68 69  1  0
 69 59  1  0
 70 71  2  0
 71 90  1  0
 72 75  1  0
 72 71  1  0
 73 74  1  0
 73 70  1  0
 74 72  2  0
 75 76  1  0
 76 77  2  0
 78 81  1  0
 78 77  1  0
 79 78  2  0
 80 79  1  0
 80 75  2  0
 81 82  1  0
 82 83  1  0
 83 84  2  0
 85 84  1  0
 85 89  1  0
 86 85  2  0
 87 82  2  0
 87 86  1  0
 88 87  1  0
 90 91  1  0
 91 93  1  0
 91 94  1  0
 92 90  2  0
 95 70  1  0
 95 96  1  0
 97 95  1  0
M  ISO  4   8 101   9 101  60 100  69 100
M  END
>  <TORSDO>  (63) 
F 25

>  <SCORE>  (63) 
-7.345

>  <name>  (63) 
63

>  <ligand_id>  (63) 
63

>  <original_smiles>  (63) 
[H]c1c([H])c([H])c2c(c1[H])C([H])([H])C([H])([H])C([H])([H])C2([H])N([H])C(=O)C1([H])N(C(=O)C([H])(N([H])C(=O)C([H])(N([H])C([H])([H])[H])C([H])([H])[H])C(C([H])([H])[H])(C([H])([H])[H])C([H])([H])[H])C([H])([H])c2c([H])c(OC([H])([H])c3c([H])c([H])c([H])c(C([H])([H])[N+]([H])([H])C([H])(C([H])([H])[H])C([H])([H])C([H])([H])C([H])([H])C([H])([H])C([H])([H])N(C(=O)N4C([H])([H])C([H])([H])C([H])([H])C([H])(n5nc(-c6c([H])c([H])c(Oc7c([H])c([H])c(F)c([H])c7F)c([H])c6[H])c(C(=O)N([H])[H])c5N([H])[H])C4([H])[H])C([H])([H])[H])c3[H])c([H])c([H])c2C1([H])[H]

>  <smiles>  (63) 
[H]c1c([H])c([H])c2c(c1[H])C([H])([H])C([H])([H])C([H])([H])C2([H])N([H])C(=O)C1([H])N(C(=O)C([H])(N([H])C(=O)C([H])(N([H])C([H])([H])[H])C([H])([H])[H])C(C([H])([H])[H])(C([H])([H])[H])C([H])([H])[H])C([H])([H])c2c([H])c(OC([H])([H])c3c([H])c([H])c([H])c(C([H])([H])[N+]([H])([H])C([H])(C([H])([H])[H])C([H])([H])C([H])([H])C([H])([H])C([H])([H])C([H])([H])N(C(=O)N4C([H])([H])C([H])([H])C([H])([H])C([H])(n5nc(-c6c([H])c([H])c(Oc7c([H])c([H])c(F)c([H])c7F)c([H])c6[H])c(C(=O)N([H])[H])c5N([H])[H])C4([H])[H])C([H])([H])[H])c3[H])c([H])c([H])c2C1([H])[H]

$$$$
64:0:0
     RDKit          3D

 98106  0  0  1  0  0  0  0  0999 V2000
  -30.4930  -18.6360   24.2040 C   0  0  0  0  0  3  0  0  0  0  0  0
  -30.6120  -20.0300   24.3350 C   0  0  0  0  0  3  0  0  0  0  0  0
  -30.6590  -18.8450   21.7790 C   0  0  0  0  0  3  0  0  0  0  0  0
  -30.5110  -18.0380   22.9290 C   0  0  0  0  0  0  0  0  0  0  0  0
  -30.7650  -20.2480   21.9100 C   0  0  0  0  0  0  0  0  0  0  0  0
  -30.7370  -20.8520   23.1900 C   0  0  0  0  0  0  0  0  0  0  0  0
  -30.9780  -22.8490   24.5110 C   0  0  0  0  0  1  0  0  0  0  0  0
  -30.8290  -22.2270   23.2420 O   0  0  0  0  0  0  0  0  0  0  0  0
  -30.3280  -16.5340   22.8140 C   0  0  0  0  0  2  0  0  0  0  0  0
  -31.6050  -15.7930   22.3650 C   0  0  0  0  0  2  0  0  0  0  0  0
  -31.6860  -15.5380   20.8470 C   0  0  0  0  0  2  0  0  0  0  0  0
  -30.8940  -13.7260   19.3170 C   0  0  0  0  0  0  0  0  0  0  0  0
  -30.4300  -11.4560   18.4730 C   0  0  0  0  0  2  0  0  0  0  0  0
  -29.3400  -11.3840   17.3920 C   0  0  0  0  0  2  0  0  0  0  0  0
  -27.9440  -11.2890   18.0290 C   0  0  0  0  0  2  0  0  0  0  0  0
  -27.7130  -12.3840   19.0990 C   0  0  0  0  0  3  0  0  0  0  0  0
  -28.8860  -12.4340   20.1010 C   0  0  0  0  0  2  0  0  0  0  0  0
  -30.1520  -12.5930   19.3570 N   0  0  0  0  0  0  0  0  0  0  0  0
  -31.6850  -14.0100   18.4110 O   0  0  0  0  0  0  0  0  0  0  0  0
  -30.8570  -14.4020   20.4680 N   0  0  0  0  0  0  0  0  0  0  0  0
  -30.2630  -14.0080   21.1820 H   0  0  0  0  0  0  0  0  0  0  0  0
  -25.5100  -13.1490   20.1950 C   0  0  0  0  0  0  0  0  0  0  0  0
  -24.4530  -12.4460   20.7100 C   0  0  0  0  0  0  0  0  0  0  0  0
  -24.7910  -11.0650   20.5680 C   0  0  0  0  0  0  0  0  0  0  0  0
  -26.4310  -12.1990   19.7780 N   0  0  0  0  0  0  0  0  0  0  0  0
  -26.0080  -10.9390   20.0560 N   0  0  0  0  0  0  0  0  0  0  0  0
  -24.0030   -9.8550   20.8370 C   0  0  0  0  0  0  0  0  0  0  0  0
  -24.4170   -8.9030   21.7950 C   0  0  0  0  0  3  0  0  0  0  0  0
  -23.6340   -7.7560   22.0490 C   0  0  0  0  0  3  0  0  0  0  0  0
  -22.4230   -7.5550   21.3450 C   0  0  0  0  0  0  0  0  0  0  0  0
  -22.0270   -8.4950   20.3770 C   0  0  0  0  0  3  0  0  0  0  0  0
  -22.8100   -9.6320   20.1220 C   0  0  0  0  0  3  0  0  0  0  0  0
  -21.6100   -6.4590   21.5080 O   0  0  0  0  0  0  0  0  0  0  0  0
  -21.4370   -5.8670   22.7330 C   0  0  0  0  0  0  0  0  0  0  0  0
  -20.9180   -6.5770   23.8380 C   0  0  0  0  0  3  0  0  0  0  0  0
  -20.6910   -5.9130   25.0590 C   0  0  0  0  0  3  0  0  0  0  0  0
  -20.9730   -4.5380   25.1760 C   0  0  0  0  0  0  0  0  0  0  0  0
  -21.4840   -3.8270   24.0760 C   0  0  0  0  0  3  0  0  0  0  0  0
  -21.7130   -4.4900   22.8580 C   0  0  0  0  0  0  0  0  0  0  0  0
  -22.1850   -3.7960   21.7940 F   0  0  0  0  0  0  0  0  0  0  0  0
  -20.7470   -3.8960   26.3470 F   0  0  0  0  0  0  0  0  0  0  0  0
  -23.1590  -13.0170   21.2150 C   0  0  0  0  0  0  0  0  0  0  0  0
  -22.5400  -12.3580   22.1890 N   0  0  0  0  0  0  0  0  0  0  0  0
  -22.7140  -14.0770   20.7830 O   0  0  0  0  0  0  0  0  0  0  0  0
  -22.9150  -11.4960   22.5580 H   0  0  0  0  0  0  0  0  0  0  0  0
  -21.6770  -12.7190   22.5690 H   0  0  0  0  0  0  0  0  0  0  0  0
  -25.7560  -14.5090   20.0310 N   0  0  0  0  0  0  0  0  0  0  0  0
  -25.0770  -15.2210   20.2760 H   0  0  0  0  0  0  0  0  0  0  0  0
  -26.5890  -14.8900   19.5980 H   0  0  0  0  0  0  0  0  0  0  0  0
  -30.8690  -21.1410   20.6790 C   0  0  0  0  0  2  0  0  0  0  0  0
  -32.0270  -22.1650   20.7730 C   0  0  0  0  0  2  0  0  0  0  0  0
  -31.6580  -23.5930   20.3500 C   0  0  0  0  0  0  0  0  0  0  0  0
  -32.5440  -24.5430   20.6700 N   0  0  0  0  0  0  0  0  0  0  0  0
  -30.5970  -23.8480   19.7740 O   0  0  0  0  0  0  0  0  0  0  0  0
  -33.3890  -24.2530   21.1440 H   0  0  0  0  0  0  0  0  0  0  0  0
  -32.3750  -25.9790   20.4590 C   0  0  0  0  0  2  0  0  0  0  0  0
  -31.4230  -26.5780   21.5030 C   0  0  0  0  0  2  0  0  0  0  0  0
  -31.1380  -27.9370   21.1830 O   0  0  0  0  0  0  0  0  0  0  0  0
  -25.5880  -31.3070   24.0190 C   0  0  0  0  0  0  0  0  0  0  0  0
  -29.8120  -28.2550   21.0490 C   0  0  0  0  0  0  0  0  0  0  0  0
  -25.0830  -29.8450   22.0900 C   0  0  0  0  0  3  0  0  0  0  0  0
  -27.1010  -28.9830   20.7950 C   0  0  0  0  0  0  0  0  0  0  0  0
  -27.3820  -30.9340   22.3320 C   0  0  0  0  0  2  0  0  0  0  0  0
  -27.9550  -29.7350   21.6080 C   0  0  0  0  0  0  0  0  0  0  0  0
  -29.3120  -29.3750   21.7410 C   0  0  0  0  0  3  0  0  0  0  0  0
  -28.9470  -27.5060   20.2210 C   0  0  0  0  0  3  0  0  0  0  0  0
  -27.5910  -27.8600   20.0990 C   0  0  0  0  0  3  0  0  0  0  0  0
  -25.6620  -29.4360   20.7100 C   0  0  0  0  0  2  0  0  0  0  0  0
  -26.0250  -30.7040   22.8780 N   0  0  0  0  0  0  0  0  0  0  0  0
  -24.4140  -31.1950   24.3950 O   0  0  0  0  0  0  0  0  0  0  0  0
  -24.6460  -28.5670   22.8400 C   0  0  0  0  0  0  0  0  0  0  0  0
  -23.5240  -27.9740   22.4010 N   0  0  0  0  0  0  0  0  0  0  0  0
  -25.3220  -28.1120   23.7670 O   0  0  0  0  0  0  0  0  0  0  0  0
  -23.0260  -28.4100   21.6370 H   0  0  0  0  0  0  0  0  0  0  0  0
  -20.8150  -25.6300   21.9680 C   0  0  0  0  0  0  0  0  0  0  0  0
  -22.9400  -26.7430   22.9290 C   0  0  0  0  0  3  0  0  0  0  0  0
  -23.7040  -25.5030   22.4110 C   0  0  0  0  0  2  0  0  0  0  0  0
  -23.0940  -24.9090   21.1370 C   0  0  0  0  0  2  0  0  0  0  0  0
  -21.6390  -24.4980   21.3760 C   0  0  0  0  0  2  0  0  0  0  0  0
  -21.4290  -26.6920   22.6820 C   0  0  0  0  0  0  0  0  0  0  0  0
  -20.6220  -27.7400   23.1760 C   0  0  0  0  0  3  0  0  0  0  0  0
  -19.2280  -27.7330   22.9760 C   0  0  0  0  0  3  0  0  0  0  0  0
  -18.6230  -26.6680   22.2840 C   0  0  0  0  0  3  0  0  0  0  0  0
  -19.4170  -25.6200   21.7830 C   0  0  0  0  0  3  0  0  0  0  0  0
  -26.5390  -32.1840   24.8930 C   0  0  0  0  0  3  0  0  0  0  0  0
  -26.8120  -31.5740   26.3230 C   0  0  1  0  0  0  0  0  0  0  0  0
  -25.5290  -31.1150   27.0540 C   0  0  0  0  0  1  0  0  0  0  0  0
  -27.7620  -30.3570   26.2220 C   0  0  0  0  0  1  0  0  0  0  0  0
  -27.5270  -32.6180   27.2110 C   0  0  0  0  0  1  0  0  0  0  0  0
  -25.9340  -33.5180   24.9960 N   0  0  0  0  0  0  0  0  0  0  0  0
  -26.2900  -34.5710   24.2480 C   0  0  0  0  0  0  0  0  0  0  0  0
  -27.2230  -34.5380   23.4410 O   0  0  0  0  0  0  0  0  0  0  0  0
  -25.1260  -33.6050   25.5930 H   0  0  0  0  0  0  0  0  0  0  0  0
  -24.4570  -36.0030   23.2890 C   0  0  0  0  0  1  0  0  0  0  0  0
  -25.4810  -35.8700   24.4260 C   0  0  0  0  0  3  0  0  0  0  0  0
  -27.2110  -37.1240   25.6390 C   0  0  0  0  0  1  0  0  0  0  0  0
  -26.3240  -37.0850   24.4790 N   0  0  0  0  0  0  0  0  0  0  0  0
  -25.7460  -37.9200   24.4930 H   0  0  0  0  0  0  0  0  0  0  0  0
  1  2  1  0
  3  5  2  0
  3  4  1  0
  4  1  2  0
  5  6  1  0
  6  8  1  0
  6  2  2  0
  8  7  1  0
  9  4  1  0
 10  9  1  0
 11 10  1  0
 12 18  1  0
 12 20  1  0
 13 18  1  0
 14 15  1  0
 14 13  1  0
 16 15  1  0
 16 25  1  0
 16 17  1  0
 18 17  1  0
 19 12  2  0
 20 11  1  0
 20 21  1  0
 22 23  2  0
 23 42  1  0
 24 23  1  0
 24 27  1  0
 25 26  1  0
 25 22  1  0
 26 24  2  0
 27 28  1  0
 28 29  2  0
 30 33  1  0
 30 29  1  0
 31 30  2  0
 32 31  1  0
 32 27  2  0
 33 34  1  0
 34 39  2  0
 34 35  1  0
 35 36  2  0
 36 37  1  0
 37 41  1  0
 38 37  2  0
 39 38  1  0
 40 39  1  0
 42 43  1  0
 43 45  1  0
 43 46  1  0
 44 42  2  0
 47 22  1  0
 47 48  1  0
 49 47  1  0
 50 51  1  0
 50  5  1  0
 52 53  1  0
 52 51  1  0
 53 55  1  0
 54 52  2  0
 56 53  1  0
 56 57  1  0
 58 57  1  0
 59 70  2  0
 60 58  1  0
 60 65  1  0
 61 71  1  0
 61 69  1  0
 62 64  1  0
 63 69  1  0
 64 65  2  0
 64 63  1  0
 66 60  2  0
 67 66  1  0
 67 62  2  0
 68 62  1  0
 68 61  1  0
 69 59  1  0
 71 73  2  0
 72 71  1  0
 74 72  1  0
 75 80  1  0
 76 72  1  0
 77 76  1  0
 78 79  1  0
 78 77  1  0
 79 75  1  0
 80 76  1  0
 80 81  2  0
 82 81  1  0
 83 82  2  0
 84 75  2  0
 84 83  1  0
 85 59  1  0
 85 90  1  0
 85 86  1  0
 86 87  1  1
 86 89  1  0
 88 86  1  0
 90 93  1  0
 91 95  1  0
 91 90  1  0
 92 91  2  0
 95 94  1  0
 95 97  1  0
 97 98  1  0
 97 96  1  0
M  ISO  4  12 100  20 100  57 101  58 101
M  END
>  <TORSDO>  (64) 
F 25

>  <SCORE>  (64) 
-4.527

>  <name>  (64) 
64

>  <ligand_id>  (64) 
64

>  <original_smiles>  (64) 
[H]c1c([H])c([H])c2c(c1[H])C([H])([H])C([H])([H])C([H])([H])C2([H])N([H])C(=O)C1([H])N(C(=O)C([H])(N([H])C(=O)C([H])(N([H])C([H])([H])[H])C([H])([H])[H])C(C([H])([H])[H])(C([H])([H])[H])C([H])([H])[H])C([H])([H])c2c([H])c(OC([H])([H])C([H])([H])N([H])C(=O)C([H])([H])C([H])([H])c3c([H])c(C([H])([H])C([H])([H])C([H])([H])N([H])C(=O)N4C([H])([H])C([H])([H])C([H])([H])C([H])(n5nc(-c6c([H])c([H])c(Oc7c([H])c([H])c(F)c([H])c7F)c([H])c6[H])c(C(=O)N([H])[H])c5N([H])[H])C4([H])[H])c([H])c([H])c3OC([H])([H])[H])c([H])c([H])c2C1([H])[H]

>  <smiles>  (64) 
[H]c1c([H])c([H])c2c(c1[H])C([H])([H])C([H])([H])C([H])([H])C2([H])N([H])C(=O)C1([H])N(C(=O)C([H])(N([H])C(=O)C([H])(N([H])C([H])([H])[H])C([H])([H])[H])C(C([H])([H])[H])(C([H])([H])[H])C([H])([H])[H])C([H])([H])c2c([H])c(OC([H])([H])C([H])([H])N([H])C(=O)C([H])([H])C([H])([H])c3c([H])c(C([H])([H])C([H])([H])C([H])([H])N([H])C(=O)N4C([H])([H])C([H])([H])C([H])([H])C([H])(n5nc(-c6c([H])c([H])c(Oc7c([H])c([H])c(F)c([H])c7F)c([H])c6[H])c(C(=O)N([H])[H])c5N([H])[H])C4([H])[H])c([H])c([H])c3OC([H])([H])[H])c([H])c([H])c2C1([H])[H]

$$$$
65:0:0
     RDKit          3D

102111  0  0  1  0  0  0  0  0999 V2000
  -25.7330  -23.4690   22.0650 C   0  0  0  0  0  2  0  0  0  0  0  0
  -25.7540  -22.4170   20.9520 C   0  0  0  0  0  2  0  0  0  0  0  0
  -27.1380  -22.2810   20.3020 C   0  0  0  0  0  2  0  0  0  0  0  0
  -27.2650  -20.9540   19.5480 C   0  0  0  0  0  2  0  0  0  0  0  0
  -31.2150  -22.7520   21.1900 C   0  0  0  0  0  3  0  0  0  0  0  0
  -32.3560  -21.9460   20.9600 C   0  0  0  0  0  3  0  0  0  0  0  0
  -29.9430  -22.3550   20.7210 C   0  0  0  0  0  3  0  0  0  0  0  0
  -32.2430  -20.7300   20.2510 C   0  0  0  0  0  3  0  0  0  0  0  0
  -29.8460  -21.1470   20.0090 C   0  0  0  0  0  0  0  0  0  0  0  0
  -30.9730  -20.3570   19.7780 C   0  0  0  0  0  0  0  0  0  0  0  0
  -29.1250  -19.3750   18.7870 C   0  0  0  0  0  3  0  0  0  0  0  0
  -28.6980  -20.4920   19.3910 C   0  0  0  0  0  0  0  0  0  0  0  0
  -30.6060  -19.1200   18.9910 C   0  0  0  0  0  3  0  0  0  0  0  0
  -31.6680  -16.9610   19.6750 C   0  0  0  0  0  0  0  0  0  0  0  0
  -31.9440  -14.5160   19.7540 C   0  0  0  0  0  2  0  0  0  0  0  0
  -31.2040  -13.8950   18.5530 C   0  0  0  0  0  2  0  0  0  0  0  0
  -29.7120  -13.6650   18.8760 C   0  0  0  0  0  2  0  0  0  0  0  0
  -29.0320  -14.9150   19.4960 C   0  0  0  0  0  3  0  0  0  0  0  0
  -29.8950  -15.4660   20.6540 C   0  0  0  0  0  2  0  0  0  0  0  0
  -31.2470  -15.7520   20.1250 N   0  0  0  0  0  0  0  0  0  0  0  0
  -32.7550  -17.1560   19.1210 O   0  0  0  0  0  0  0  0  0  0  0  0
  -30.7330  -17.9040   19.7680 N   0  0  0  0  0  0  0  0  0  0  0  0
  -29.9130  -17.6370   20.2930 H   0  0  0  0  0  0  0  0  0  0  0  0
  -26.5930  -15.4840   20.1150 C   0  0  0  0  0  0  0  0  0  0  0  0
  -25.5310  -14.6920   20.4620 C   0  0  0  0  0  0  0  0  0  0  0  0
  -26.0220  -13.3520   20.4570 C   0  0  0  0  0  0  0  0  0  0  0  0
  -27.6660  -14.6230   19.9290 N   0  0  0  0  0  0  0  0  0  0  0  0
  -27.3200  -13.3360   20.1850 N   0  0  0  0  0  0  0  0  0  0  0  0
  -25.3180  -12.0750   20.6380 C   0  0  0  0  0  0  0  0  0  0  0  0
  -25.5240  -11.2740   21.7830 C   0  0  0  0  0  3  0  0  0  0  0  0
  -24.8230  -10.0600   21.9420 C   0  0  0  0  0  3  0  0  0  0  0  0
  -23.9030   -9.6350   20.9540 C   0  0  0  0  0  0  0  0  0  0  0  0
  -23.7180  -10.4260   19.8040 C   0  0  0  0  0  3  0  0  0  0  0  0
  -24.4210  -11.6330   19.6450 C   0  0  0  0  0  3  0  0  0  0  0  0
  -23.1990   -8.4580   21.0110 O   0  0  0  0  0  0  0  0  0  0  0  0
  -22.6520   -8.0030   22.1840 C   0  0  0  0  0  0  0  0  0  0  0  0
  -21.6960   -8.7570   22.9010 C   0  0  0  0  0  3  0  0  0  0  0  0
  -21.1050   -8.2220   24.0630 C   0  0  0  0  0  3  0  0  0  0  0  0
  -21.4630   -6.9350   24.5060 C   0  0  0  0  0  0  0  0  0  0  0  0
  -22.4090   -6.1800   23.7910 C   0  0  0  0  0  3  0  0  0  0  0  0
  -23.0000   -6.7130   22.6320 C   0  0  0  0  0  0  0  0  0  0  0  0
  -23.8960   -5.9750   21.9350 F   0  0  0  0  0  0  0  0  0  0  0  0
  -20.8900   -6.4160   25.6180 F   0  0  0  0  0  0  0  0  0  0  0  0
  -24.1160  -15.1420   20.6940 C   0  0  0  0  0  0  0  0  0  0  0  0
  -23.3800  -14.4370   21.5440 N   0  0  0  0  0  0  0  0  0  0  0  0
  -23.6710  -16.1560   20.1560 O   0  0  0  0  0  0  0  0  0  0  0  0
  -23.7490  -13.6190   22.0030 H   0  0  0  0  0  0  0  0  0  0  0  0
  -22.4310  -14.7240   21.7410 H   0  0  0  0  0  0  0  0  0  0  0  0
  -26.7310  -16.8560   19.9250 N   0  0  0  0  0  0  0  0  0  0  0  0
  -25.9430  -17.4890   19.9910 H   0  0  0  0  0  0  0  0  0  0  0  0
  -27.5680  -17.2970   19.5690 H   0  0  0  0  0  0  0  0  0  0  0  0
  -24.3190  -23.6950   22.6280 C   0  0  0  0  0  2  0  0  0  0  0  0
  -24.2820  -24.7700   23.7220 C   0  0  0  0  0  2  0  0  0  0  0  0
  -24.4040  -26.2070   23.1850 C   0  0  0  0  0  2  0  0  0  0  0  0
  -25.3900  -27.0730   23.9920 C   0  0  0  0  0  2  0  0  0  0  0  0
  -26.8700  -26.6940   23.7950 C   0  0  0  0  0  2  0  0  0  0  0  0
  -27.1840  -26.5360   22.3590 N   0  0  0  0  0  4  0  0  0  0  0  0
  -26.9720  -27.4030   21.8870 H   0  0  0  0  0  0  0  0  0  0  0  0
  -26.5750  -25.8270   21.9800 H   0  0  0  0  0  0  0  0  0  0  0  0
  -28.5890  -26.1700   22.0660 C   0  0  0  0  0  2  0  0  0  0  0  0
  -28.8800  -26.1330   20.5500 C   0  0  0  0  0  2  0  0  0  0  0  0
  -28.7690  -27.4380   19.9800 O   0  0  0  0  0  0  0  0  0  0  0  0
  -24.6130  -32.0570   23.3970 C   0  0  0  0  0  0  0  0  0  0  0  0
  -27.5320  -28.0290   20.0390 C   0  0  0  0  0  0  0  0  0  0  0  0
  -23.4830  -30.6620   21.6920 C   0  0  0  0  0  3  0  0  0  0  0  0
  -25.0230  -29.3080   20.1770 C   0  0  0  0  0  0  0  0  0  0  0  0
  -25.9680  -31.2250   21.4820 C   0  0  0  0  0  2  0  0  0  0  0  0
  -26.1460  -29.8990   20.7730 C   0  0  0  0  0  0  0  0  0  0  0  0
  -27.4020  -29.2660   20.7010 C   0  0  0  0  0  3  0  0  0  0  0  0
  -26.3960  -27.4350   19.4480 C   0  0  0  0  0  3  0  0  0  0  0  0
  -25.1410  -28.0720   19.5170 C   0  0  0  0  0  3  0  0  0  0  0  0
  -23.7200  -30.0670   20.2780 C   0  0  0  0  0  2  0  0  0  0  0  0
  -24.7070  -31.3250   22.2500 N   0  0  0  0  0  0  0  0  0  0  0  0
  -23.5270  -32.2180   23.9660 O   0  0  0  0  0  0  0  0  0  0  0  0
  -22.9180  -29.5530   22.6050 C   0  0  0  0  0  0  0  0  0  0  0  0
  -21.6490  -29.1770   22.3820 N   0  0  0  0  0  0  0  0  0  0  0  0
  -23.6230  -29.0290   23.4680 O   0  0  0  0  0  0  0  0  0  0  0  0
  -21.1320  -29.6600   21.6610 H   0  0  0  0  0  0  0  0  0  0  0  0
  -18.4800  -27.4630   22.5990 C   0  0  0  0  0  0  0  0  0  0  0  0
  -20.9290  -28.1210   23.0940 C   0  0  0  0  0  3  0  0  0  0  0  0
  -21.3110  -26.7270   22.5460 C   0  0  0  0  0  2  0  0  0  0  0  0
  -20.3680  -26.2320   21.4450 C   0  0  0  0  0  2  0  0  0  0  0  0
  -18.9290  -26.1560   21.9660 C   0  0  0  0  0  2  0  0  0  0  0  0
  -19.4220  -28.3910   23.1170 C   0  0  0  0  0  0  0  0  0  0  0  0
  -18.9570  -29.6060   23.6660 C   0  0  0  0  0  3  0  0  0  0  0  0
  -17.5810  -29.8970   23.7070 C   0  0  0  0  0  3  0  0  0  0  0  0
  -16.6520  -28.9670   23.2090 C   0  0  0  0  0  3  0  0  0  0  0  0
  -17.1010  -27.7530   22.6590 C   0  0  0  0  0  3  0  0  0  0  0  0
  -25.8630  -32.7410   24.0370 C   0  0  0  0  0  3  0  0  0  0  0  0
  -25.5130  -34.1430   24.3040 N   0  0  0  0  0  0  0  0  0  0  0  0
  -25.9170  -35.1810   23.5600 C   0  0  0  0  0  0  0  0  0  0  0  0
  -26.6950  -35.0610   22.6090 O   0  0  0  0  0  0  0  0  0  0  0  0
  -24.8400  -34.3090   25.0370 H   0  0  0  0  0  0  0  0  0  0  0  0
  -24.2300  -36.9480   22.9670 C   0  0  0  0  0  1  0  0  0  0  0  0
  -25.3710  -36.5740   23.9260 C   0  0  0  0  0  3  0  0  0  0  0  0
  -27.3960  -37.4890   24.9710 C   0  0  0  0  0  1  0  0  0  0  0  0
  -26.4030  -37.6330   23.9090 N   0  0  0  0  0  0  0  0  0  0  0  0
  -25.9770  -38.5520   24.0000 H   0  0  0  0  0  0  0  0  0  0  0  0
  -26.3550  -32.0260   25.3540 C   0  0  1  0  0  0  0  0  0  0  0  0
  -25.2260  -31.7580   26.3780 C   0  0  0  0  0  1  0  0  0  0  0  0
  -27.0210  -30.6690   25.0230 C   0  0  0  0  0  1  0  0  0  0  0  0
  -27.4310  -32.8920   26.0480 C   0  0  0  0  0  1  0  0  0  0  0  0
  1 52  1  0
  2  1  1  0
  3  2  1  0
  4  3  1  0
  6  5  1  0
  7  5  2  0
  8  6  2  0
  9  7  1  0
 10  9  2  0
 10  8  1  0
 11 13  1  0
 11 12  2  0
 12  4  1  0
 12  9  1  0
 13 22  1  0
 13 10  1  0
 14 22  1  0
 14 20  1  0
 15 20  1  0
 16 17  1  0
 16 15  1  0
 18 17  1  0
 18 27  1  0
 18 19  1  0
 20 19  1  0
 21 14  2  0
 22 23  1  0
 24 25  2  0
 25 44  1  0
 26 25  1  0
 26 29  1  0
 27 24  1  0
 27 28  1  0
 28 26  2  0
 29 30  1  0
 30 31  2  0
 32 35  1  0
 32 31  1  0
 33 32  2  0
 34 33  1  0
 34 29  2  0
 35 36  1  0
 36 41  2  0
 36 37  1  0
 37 38  2  0
 38 39  1  0
 39 43  1  0
 40 39  2  0
 41 40  1  0
 42 41  1  0
 44 45  1  0
 45 48  1  0
 45 47  1  0
 46 44  2  0
 49 50  1  0
 49 24  1  0
 51 49  1  0
 52 53  1  0
 54 53  1  0
 54 55  1  0
 56 55  1  0
 57 56  1  0
 58 57  1  0
 59 57  1  0
 60 57  1  0
 61 60  1  0
 62 64  1  0
 62 61  1  0
 63 74  2  0
 64 69  1  0
 65 73  1  0
 65 75  1  0
 66 72  1  0
 66 68  1  0
 67 73  1  0
 68 67  1  0
 69 68  2  0
 70 71  1  0
 70 64  2  0
 71 66  2  0
 72 65  1  0
 73 63  1  0
 75 77  2  0
 76 75  1  0
 78 76  1  0
 79 88  2  0
 79 84  1  0
 80 76  1  0
 80 84  1  0
 81 80  1  0
 82 83  1  0
 82 81  1  0
 83 79  1  0
 84 85  2  0
 85 86  1  0
 87 86  2  0
 88 87  1  0
 89 63  1  0
 89 90  1  0
 89 99  1  0
 90 93  1  0
 91 95  1  0
 91 90  1  0
 92 91  2  0
 95 94  1  0
 97 95  1  0
 97 98  1  0
 97 96  1  0
 99102  1  1
 99100  1  0
101 99  1  0
M  ISO  4  14 100  22 100  61 101  62 101
M  END
>  <TORSDO>  (65) 
F 28

>  <SCORE>  (65) 
-6.873

>  <name>  (65) 
65

>  <ligand_id>  (65) 
65

>  <original_smiles>  (65) 
[H]C1=C(C([H])([H])C([H])([H])C([H])([H])C([H])([H])C([H])([H])C([H])([H])C([H])([H])C([H])([H])C([H])([H])[N+]([H])([H])C([H])([H])C([H])([H])Oc2c([H])c([H])c3c(c2[H])C([H])([H])N(C(=O)C([H])(N([H])C(=O)C([H])(N([H])C([H])([H])[H])C([H])([H])[H])C(C([H])([H])[H])(C([H])([H])[H])C([H])([H])[H])C([H])(C(=O)N([H])C2([H])c4c([H])c([H])c([H])c([H])c4C([H])([H])C([H])([H])C2([H])[H])C3([H])[H])c2c([H])c([H])c([H])c([H])c2C1([H])N([H])C(=O)N1C([H])([H])C([H])([H])C([H])([H])C([H])(n2nc(-c3c([H])c([H])c(Oc4c([H])c([H])c(F)c([H])c4F)c([H])c3[H])c(C(=O)N([H])[H])c2N([H])[H])C1([H])[H]

>  <smiles>  (65) 
[H]C1=C(C([H])([H])C([H])([H])C([H])([H])C([H])([H])C([H])([H])C([H])([H])C([H])([H])C([H])([H])C([H])([H])[N+]([H])([H])C([H])([H])C([H])([H])Oc2c([H])c([H])c3c(c2[H])C([H])([H])N(C(=O)C([H])(N([H])C(=O)C([H])(N([H])C([H])([H])[H])C([H])([H])[H])C(C([H])([H])[H])(C([H])([H])[H])C([H])([H])[H])C([H])(C(=O)N([H])C2([H])c4c([H])c([H])c([H])c([H])c4C([H])([H])C([H])([H])C2([H])[H])C3([H])[H])c2c([H])c([H])c([H])c([H])c2C1([H])N([H])C(=O)N1C([H])([H])C([H])([H])C([H])([H])C([H])(n2nc(-c3c([H])c([H])c(Oc4c([H])c([H])c(F)c([H])c4F)c([H])c3[H])c(C(=O)N([H])[H])c2N([H])[H])C1([H])[H]

$$$$
66:0:0
     RDKit          3D

106113  0  0  1  0  0  0  0  0999 V2000
  -30.5870  -22.4180   22.0400 C   0  0  0  0  0  3  0  0  0  0  0  0
  -30.6140  -21.0300   22.5580 N   0  0  0  0  0  4  0  0  0  0  0  0
  -31.5720  -20.7230   22.5580 H   0  0  0  0  0  0  0  0  0  0  0  0
  -30.3130  -21.0710   23.5210 H   0  0  0  0  0  0  0  0  0  0  0  0
  -29.7880  -19.9910   21.9050 C   0  0  0  0  0  2  0  0  0  0  0  0
  -30.4610  -18.6250   22.1490 C   0  0  0  0  0  2  0  0  0  0  0  0
  -29.7220  -17.3580   21.6870 C   0  0  0  0  0  2  0  0  0  0  0  0
  -30.6220  -16.1320   21.9600 C   0  0  0  0  0  2  0  0  0  0  0  0
  -30.5200  -14.0080   20.6590 C   0  0  0  0  0  0  0  0  0  0  0  0
  -30.3340  -11.7760   19.6190 C   0  0  0  0  0  2  0  0  0  0  0  0
  -29.3420  -11.8020   18.4410 C   0  0  0  0  0  2  0  0  0  0  0  0
  -27.9000  -11.5720   18.9270 C   0  0  0  0  0  2  0  0  0  0  0  0
  -27.5230  -12.4960   20.1130 C   0  0  0  0  0  3  0  0  0  0  0  0
  -28.6130  -12.4580   21.2060 C   0  0  0  0  0  2  0  0  0  0  0  0
  -29.9090  -12.7980   20.5910 N   0  0  0  0  0  0  0  0  0  0  0  0
  -31.4880  -14.3120   19.9540 O   0  0  0  0  0  0  0  0  0  0  0  0
  -30.0300  -14.8470   21.5880 N   0  0  0  0  0  0  0  0  0  0  0  0
  -29.2620  -14.5040   22.1440 H   0  0  0  0  0  0  0  0  0  0  0  0
  -25.1700  -13.0060   21.0280 C   0  0  0  0  0  0  0  0  0  0  0  0
  -24.1420  -12.1920   21.4040 C   0  0  0  0  0  0  0  0  0  0  0  0
  -24.6110  -10.8530   21.2260 C   0  0  0  0  0  0  0  0  0  0  0  0
  -26.2080  -12.1650   20.6530 N   0  0  0  0  0  0  0  0  0  0  0  0
  -25.8760  -10.8610   20.8290 N   0  0  0  0  0  0  0  0  0  0  0  0
  -23.9110   -9.5680   21.3510 C   0  0  0  0  0  0  0  0  0  0  0  0
  -24.3700   -8.5680   22.2400 C   0  0  0  0  0  3  0  0  0  0  0  0
  -23.6730   -7.3470   22.3600 C   0  0  0  0  0  3  0  0  0  0  0  0
  -22.5020   -7.1160   21.5990 C   0  0  0  0  0  0  0  0  0  0  0  0
  -22.0650   -8.1060   20.7030 C   0  0  0  0  0  3  0  0  0  0  0  0
  -22.7600   -9.3200   20.5760 C   0  0  0  0  0  3  0  0  0  0  0  0
  -21.7750   -5.9520   21.6370 O   0  0  0  0  0  0  0  0  0  0  0  0
  -21.6730   -5.2020   22.7810 C   0  0  0  0  0  0  0  0  0  0  0  0
  -21.0790   -5.7130   23.9570 C   0  0  0  0  0  3  0  0  0  0  0  0
  -20.9320   -4.8840   25.0880 C   0  0  0  0  0  3  0  0  0  0  0  0
  -21.3610   -3.5450   25.0390 C   0  0  0  0  0  0  0  0  0  0  0  0
  -21.9490   -3.0340   23.8680 C   0  0  0  0  0  3  0  0  0  0  0  0
  -22.0970   -3.8580   22.7390 C   0  0  0  0  0  0  0  0  0  0  0  0
  -22.6420   -3.3560   21.6050 F   0  0  0  0  0  0  0  0  0  0  0  0
  -21.2140   -2.7450   26.1210 F   0  0  0  0  0  0  0  0  0  0  0  0
  -22.7600  -12.6170   21.8100 C   0  0  0  0  0  0  0  0  0  0  0  0
  -22.1100  -11.8520   22.6770 N   0  0  0  0  0  0  0  0  0  0  0  0
  -22.2680  -13.6700   21.3940 O   0  0  0  0  0  0  0  0  0  0  0  0
  -22.5140  -10.9960   23.0320 H   0  0  0  0  0  0  0  0  0  0  0  0
  -21.1860  -12.1200   22.9880 H   0  0  0  0  0  0  0  0  0  0  0  0
  -25.3130  -14.3900   20.9520 N   0  0  0  0  0  0  0  0  0  0  0  0
  -24.5550  -15.0320   21.1600 H   0  0  0  0  0  0  0  0  0  0  0  0
  -26.1430  -14.8630   20.6190 H   0  0  0  0  0  0  0  0  0  0  0  0
  -30.4160  -23.3540   23.2730 C   0  0  0  0  0  2  0  0  0  0  0  0
  -30.0190  -24.8240   23.0380 C   0  0  0  0  0  2  0  0  0  0  0  0
  -30.3510  -25.6780   24.2790 C   0  0  0  0  0  2  0  0  0  0  0  0
  -30.9990  -27.0420   23.9690 C   0  0  0  0  0  2  0  0  0  0  0  0
  -31.3800  -27.7570   25.2010 N   0  0  0  0  0  4  0  0  0  0  0  0
  -30.5680  -28.0440   25.7160 H   0  0  0  0  0  0  0  0  0  0  0  0
  -31.9150  -28.5810   24.9810 H   0  0  0  0  0  0  0  0  0  0  0  0
  -31.9350  -27.1740   25.8000 H   0  0  0  0  0  0  0  0  0  0  0  0
  -31.9240  -22.6460   21.2740 C   0  0  0  0  0  2  0  0  0  0  0  0
  -32.3350  -24.1040   20.9650 C   0  0  0  0  0  2  0  0  0  0  0  0
  -33.7720  -24.1890   20.4020 C   0  0  0  0  0  2  0  0  0  0  0  0
  -34.3850  -25.6080   20.4230 C   0  0  0  0  0  2  0  0  0  0  0  0
  -35.7110  -25.6820   19.6370 C   0  0  0  0  0  2  0  0  0  0  0  0
  -35.6590  -26.2740   18.2080 C   0  0  0  0  0  2  0  0  0  0  0  0
  -34.7690  -25.5140   17.2080 C   0  0  0  0  0  2  0  0  0  0  0  0
  -33.2800  -25.8240   17.4030 C   0  0  0  0  0  2  0  0  0  0  0  0
  -32.3040  -24.7120   16.9880 C   0  0  0  0  0  2  0  0  0  0  0  0
  -31.2520  -24.4850   18.0900 C   0  0  0  0  0  2  0  0  0  0  0  0
  -30.3340  -25.6930   18.2650 C   0  0  0  0  0  2  0  0  0  0  0  0
  -30.0700  -25.9680   19.6470 O   0  0  0  0  0  0  0  0  0  0  0  0
  -25.9960  -30.6920   23.1480 C   0  0  0  0  0  0  0  0  0  0  0  0
  -28.8650  -26.6000   19.8150 C   0  0  0  0  0  0  0  0  0  0  0  0
  -24.8800  -29.3390   21.4120 C   0  0  0  0  0  3  0  0  0  0  0  0
  -26.4120  -27.9620   19.9390 C   0  0  0  0  0  0  0  0  0  0  0  0
  -27.3900  -29.8310   21.2750 C   0  0  0  0  0  2  0  0  0  0  0  0
  -27.5440  -28.5080   20.5530 C   0  0  0  0  0  0  0  0  0  0  0  0
  -28.7830  -27.8340   20.4930 C   0  0  0  0  0  3  0  0  0  0  0  0
  -27.7000  -26.0290   19.2640 C   0  0  0  0  0  3  0  0  0  0  0  0
  -26.4770  -26.7120   19.3100 C   0  0  0  0  0  3  0  0  0  0  0  0
  -25.1390  -28.7670   19.9980 C   0  0  0  0  0  2  0  0  0  0  0  0
  -26.1050  -29.9670   22.0030 N   0  0  0  0  0  0  0  0  0  0  0  0
  -24.8990  -30.8620   23.6990 O   0  0  0  0  0  0  0  0  0  0  0  0
  -24.2780  -28.2200   22.2930 C   0  0  0  0  0  0  0  0  0  0  0  0
  -22.9910  -27.9110   22.0610 N   0  0  0  0  0  0  0  0  0  0  0  0
  -24.9640  -27.6440   23.1410 O   0  0  0  0  0  0  0  0  0  0  0  0
  -22.4950  -28.4430   21.3600 H   0  0  0  0  0  0  0  0  0  0  0  0
  -19.7530  -26.3080   22.2250 C   0  0  0  0  0  0  0  0  0  0  0  0
  -22.2210  -26.8700   22.7460 C   0  0  0  0  0  3  0  0  0  0  0  0
  -22.5480  -25.4640   22.1860 C   0  0  0  0  0  2  0  0  0  0  0  0
  -21.5980  -25.0180   21.0680 C   0  0  0  0  0  2  0  0  0  0  0  0
  -20.1530  -24.9940   21.5750 C   0  0  0  0  0  2  0  0  0  0  0  0
  -20.7240  -27.1970   22.7600 C   0  0  0  0  0  0  0  0  0  0  0  0
  -20.2960  -28.4190   23.3230 C   0  0  0  0  0  3  0  0  0  0  0  0
  -18.9320  -28.7600   23.3520 C   0  0  0  0  0  3  0  0  0  0  0  0
  -17.9740  -27.8740   22.8280 C   0  0  0  0  0  3  0  0  0  0  0  0
  -18.3830  -26.6480   22.2740 C   0  0  0  0  0  3  0  0  0  0  0  0
  -27.2340  -31.3530   23.8220 C   0  0  0  0  0  3  0  0  0  0  0  0
  -26.7890  -32.6270   24.4010 N   0  0  0  0  0  0  0  0  0  0  0  0
  -26.9520  -33.8180   23.8120 C   0  0  0  0  0  0  0  0  0  0  0  0
  -27.5660  -33.9680   22.7500 O   0  0  0  0  0  0  0  0  0  0  0  0
  -26.2200  -32.5680   25.2310 H   0  0  0  0  0  0  0  0  0  0  0  0
  -25.0330  -35.4410   23.8420 C   0  0  0  0  0  1  0  0  0  0  0  0
  -26.3580  -35.0540   24.5110 C   0  0  0  0  0  3  0  0  0  0  0  0
  -28.4130  -36.0470   25.3730 C   0  0  0  0  0  1  0  0  0  0  0  0
  -27.2780  -36.2040   24.4720 N   0  0  0  0  0  0  0  0  0  0  0  0
  -27.6400  -36.3020   23.5240 H   0  0  0  0  0  0  0  0  0  0  0  0
  -27.9020  -30.4380   24.9220 C   0  0  1  0  0  0  0  0  0  0  0  0
  -26.9130  -29.9020   25.9840 C   0  0  0  0  0  1  0  0  0  0  0  0
  -28.6130  -29.2320   24.2670 C   0  0  0  0  0  1  0  0  0  0  0  0
  -29.0040  -31.2320   25.6580 C   0  0  0  0  0  1  0  0  0  0  0  0
  1 55  1  0
  1  2  1  0
  1 47  1  0
  2  3  1  0
  2  4  1  0
  5  6  1  0
  5  2  1  0
  7  8  1  0
  7  6  1  0
  9 17  1  0
 10 15  1  0
 11 12  1  0
 11 10  1  0
 13 12  1  0
 13 22  1  0
 13 14  1  0
 15  9  1  0
 15 14  1  0
 16  9  2  0
 17  8  1  0
 17 18  1  0
 19 20  2  0
 20 39  1  0
 21 24  1  0
 21 20  1  0
 22 23  1  0
 22 19  1  0
 23 21  2  0
 24 25  1  0
 25 26  2  0
 27 30  1  0
 27 26  1  0
 28 27  2  0
 29 28  1  0
 29 24  2  0
 30 31  1  0
 31 32  1  0
 32 33  2  0
 34 33  1  0
 34 38  1  0
 35 34  2  0
 36 31  2  0
 36 35  1  0
 37 36  1  0
 39 40  1  0
 40 43  1  0
 40 42  1  0
 41 39  2  0
 44 19  1  0
 44 45  1  0
 46 44  1  0
 48 47  1  0
 48 49  1  0
 50 49  1  0
 50 51  1  0
 51 52  1  0
 51 54  1  0
 53 51  1  0
 56 55  1  0
 57 58  1  0
 57 56  1  0
 59 58  1  0
 60 59  1  0
 61 62  1  0
 61 60  1  0
 63 62  1  0
 63 64  1  0
 64 65  1  0
 65 66  1  0
 66 68  1  0
 67 78  2  0
 68 73  1  0
 69 77  1  0
 69 79  1  0
 70 76  1  0
 70 72  1  0
 71 77  1  0
 72 71  1  0
 73 72  2  0
 74 75  1  0
 74 68  2  0
 75 70  2  0
 76 69  1  0
 77 67  1  0
 79 81  2  0
 80 79  1  0
 82 80  1  0
 83 92  2  0
 83 88  1  0
 84 80  1  0
 84 88  1  0
 85 84  1  0
 86 87  1  0
 86 85  1  0
 87 83  1  0
 88 89  2  0
 89 90  1  0
 91 90  2  0
 92 91  1  0
 93 67  1  0
 93 94  1  0
 93103  1  0
 94 97  1  0
 95 94  1  0
 95 99  1  0
 96 95  2  0
 99 98  1  0
101 99  1  0
101100  1  0
102101  1  0
103106  1  1
103104  1  0
105103  1  0
M  ISO  4   9 100  17 100  65 101  66 101
M  END
>  <TORSDO>  (66) 
F 37

>  <SCORE>  (66) 
-2.872

>  <name>  (66) 
66

>  <ligand_id>  (66) 
66

>  <original_smiles>  (66) 
[H]c1c([H])c([H])c2c(c1[H])C([H])([H])C([H])([H])C([H])([H])C2([H])N([H])C(=O)C1([H])N(C(=O)C([H])(N([H])C(=O)C([H])(N([H])C([H])([H])[H])C([H])([H])[H])C(C([H])([H])[H])(C([H])([H])[H])C([H])([H])[H])C([H])([H])c2c([H])c(OC([H])([H])C([H])([H])C([H])([H])C([H])([H])C([H])([H])C([H])([H])C([H])([H])C([H])([H])C([H])([H])C([H])([H])C([H])([H])C([H])(C([H])([H])C([H])([H])C([H])([H])C([H])([H])[N+]([H])([H])[H])[N+]([H])([H])C([H])([H])C([H])([H])C([H])([H])C([H])([H])N([H])C(=O)N3C([H])([H])C([H])([H])C([H])([H])C([H])(n4nc(-c5c([H])c([H])c(Oc6c([H])c([H])c(F)c([H])c6F)c([H])c5[H])c(C(=O)N([H])[H])c4N([H])[H])C3([H])[H])c([H])c([H])c2C1([H])[H]

>  <smiles>  (66) 
[H]c1c([H])c([H])c2c(c1[H])C([H])([H])C([H])([H])C([H])([H])C2([H])N([H])C(=O)C1([H])N(C(=O)C([H])(N([H])C(=O)C([H])(N([H])C([H])([H])[H])C([H])([H])[H])C(C([H])([H])[H])(C([H])([H])[H])C([H])([H])[H])C([H])([H])c2c([H])c(OC([H])([H])C([H])([H])C([H])([H])C([H])([H])C([H])([H])C([H])([H])C([H])([H])C([H])([H])C([H])([H])C([H])([H])C([H])([H])C([H])(C([H])([H])C([H])([H])C([H])([H])C([H])([H])[N+]([H])([H])[H])[N+]([H])([H])C([H])([H])C([H])([H])C([H])([H])C([H])([H])N([H])C(=O)N3C([H])([H])C([H])([H])C([H])([H])C([H])(n4nc(-c5c([H])c([H])c(Oc6c([H])c([H])c(F)c([H])c6F)c([H])c5[H])c(C(=O)N([H])[H])c4N([H])[H])C3([H])[H])c([H])c([H])c2C1([H])[H]

$$$$
67:0:0
     RDKit          3D

 91 98  0  0  1  0  0  0  0  0999 V2000
  -28.3750  -22.6060   19.7720 C   0  0  0  0  0  0  0  0  0  0  0  0
  -28.7830  -23.8850   19.7210 N   0  0  0  0  0  0  0  0  0  0  0  0
  -27.8860  -22.0790   18.7750 O   0  0  0  0  0  0  0  0  0  0  0  0
  -28.6420  -24.3630   18.8410 H   0  0  0  0  0  0  0  0  0  0  0  0
  -28.5390  -21.8150   21.0840 C   0  0  0  0  0  2  0  0  0  0  0  0
  -27.8500  -20.4290   21.1420 C   0  0  0  0  0  2  0  0  0  0  0  0
  -28.5450  -19.3020   20.3560 C   0  0  0  0  0  2  0  0  0  0  0  0
  -29.8350  -18.7800   21.0140 C   0  0  0  0  0  2  0  0  0  0  0  0
  -30.4810  -17.6510   20.1920 C   0  0  0  0  0  2  0  0  0  0  0  0
  -31.3820  -16.7100   21.0220 C   0  0  0  0  0  2  0  0  0  0  0  0
  -31.3710  -14.3950   20.0820 C   0  0  0  0  0  0  0  0  0  0  0  0
  -30.8950  -12.2330   18.9910 C   0  0  0  0  0  2  0  0  0  0  0  0
  -29.9360  -12.4260   17.7970 C   0  0  0  0  0  2  0  0  0  0  0  0
  -28.4700  -12.3880   18.2650 C   0  0  0  0  0  2  0  0  0  0  0  0
  -28.2040  -13.3140   19.4810 C   0  0  0  0  0  3  0  0  0  0  0  0
  -29.2670  -13.0920   20.5800 C   0  0  0  0  0  2  0  0  0  0  0  0
  -30.6070  -13.2760   19.9880 N   0  0  0  0  0  0  0  0  0  0  0  0
  -32.4040  -14.5730   19.4270 O   0  0  0  0  0  0  0  0  0  0  0  0
  -30.9070  -15.3300   20.9150 N   0  0  0  0  0  0  0  0  0  0  0  0
  -30.0710  -15.0890   21.4280 H   0  0  0  0  0  0  0  0  0  0  0  0
  -25.8700  -14.0870   20.2560 C   0  0  0  0  0  0  0  0  0  0  0  0
  -24.7620  -13.3920   20.6610 C   0  0  0  0  0  0  0  0  0  0  0  0
  -25.1290  -12.0120   20.6210 C   0  0  0  0  0  0  0  0  0  0  0  0
  -26.8460  -13.1350   19.9960 N   0  0  0  0  0  0  0  0  0  0  0  0
  -26.4040  -11.8810   20.2730 N   0  0  0  0  0  0  0  0  0  0  0  0
  -24.3240  -10.8000   20.8460 C   0  0  0  0  0  0  0  0  0  0  0  0
  -24.7040   -9.8230   21.7920 C   0  0  0  0  0  3  0  0  0  0  0  0
  -23.9050   -8.6770   21.9980 C   0  0  0  0  0  3  0  0  0  0  0  0
  -22.7140   -8.4970   21.2560 C   0  0  0  0  0  0  0  0  0  0  0  0
  -22.3550   -9.4600   20.2960 C   0  0  0  0  0  3  0  0  0  0  0  0
  -23.1540  -10.5980   20.0870 C   0  0  0  0  0  3  0  0  0  0  0  0
  -21.8970   -7.4000   21.3650 O   0  0  0  0  0  0  0  0  0  0  0  0
  -21.7810   -6.7030   22.5430 C   0  0  0  0  0  0  0  0  0  0  0  0
  -21.3800   -7.3290   23.7420 C   0  0  0  0  0  3  0  0  0  0  0  0
  -21.2030   -6.5640   24.9110 C   0  0  0  0  0  3  0  0  0  0  0  0
  -21.4280   -5.1730   24.8850 C   0  0  0  0  0  0  0  0  0  0  0  0
  -21.8230   -4.5480   23.6890 C   0  0  0  0  0  3  0  0  0  0  0  0
  -21.9980   -5.3110   22.5230 C   0  0  0  0  0  0  0  0  0  0  0  0
  -22.3600   -4.7010   21.3690 F   0  0  0  0  0  0  0  0  0  0  0  0
  -21.2540   -4.4360   26.0060 F   0  0  0  0  0  0  0  0  0  0  0  0
  -23.4090  -13.9630   20.9730 C   0  0  0  0  0  0  0  0  0  0  0  0
  -22.6610  -13.3250   21.8670 N   0  0  0  0  0  0  0  0  0  0  0  0
  -23.0260  -15.0110   20.4590 O   0  0  0  0  0  0  0  0  0  0  0  0
  -22.9850  -12.4790   22.3110 H   0  0  0  0  0  0  0  0  0  0  0  0
  -21.7560  -13.6960   22.1150 H   0  0  0  0  0  0  0  0  0  0  0  0
  -26.1320  -15.4410   20.0760 N   0  0  0  0  0  0  0  0  0  0  0  0
  -25.4350  -16.1600   20.2270 H   0  0  0  0  0  0  0  0  0  0  0  0
  -27.0120  -15.8080   19.7370 H   0  0  0  0  0  0  0  0  0  0  0  0
  -29.4310  -24.6730   20.7740 C   0  0  0  0  0  2  0  0  0  0  0  0
  -28.5510  -25.8580   21.2220 C   0  0  0  0  0  2  0  0  0  0  0  0
  -28.4590  -26.8020   20.1570 O   0  0  0  0  0  0  0  0  0  0  0  0
  -24.6630  -31.9210   23.3210 C   0  0  0  0  0  0  0  0  0  0  0  0
  -27.3030  -27.5330   20.1880 C   0  0  0  0  0  0  0  0  0  0  0  0
  -23.4500  -30.5310   21.6700 C   0  0  0  0  0  3  0  0  0  0  0  0
  -24.9040  -29.0040   20.2280 C   0  0  0  0  0  0  0  0  0  0  0  0
  -25.9710  -30.8990   21.4650 C   0  0  0  0  0  2  0  0  0  0  0  0
  -26.0580  -29.5320   20.8180 C   0  0  0  0  0  0  0  0  0  0  0  0
  -27.2640  -28.8030   20.8020 C   0  0  0  0  0  3  0  0  0  0  0  0
  -26.1410  -27.0100   19.5870 C   0  0  0  0  0  3  0  0  0  0  0  0
  -24.9360  -27.7400   19.6100 C   0  0  0  0  0  3  0  0  0  0  0  0
  -23.6570  -29.8570   20.2840 C   0  0  0  0  0  2  0  0  0  0  0  0
  -24.7120  -31.1320   22.2120 N   0  0  0  0  0  0  0  0  0  0  0  0
  -23.5840  -32.1930   23.8660 O   0  0  0  0  0  0  0  0  0  0  0  0
  -22.8030  -29.5030   22.6260 C   0  0  0  0  0  0  0  0  0  0  0  0
  -21.4810  -29.3120   22.4900 N   0  0  0  0  0  0  0  0  0  0  0  0
  -23.4890  -28.8810   23.4410 O   0  0  0  0  0  0  0  0  0  0  0  0
  -20.9920  -29.8800   21.8140 H   0  0  0  0  0  0  0  0  0  0  0  0
  -18.1210  -28.0500   22.9170 C   0  0  0  0  0  0  0  0  0  0  0  0
  -20.6640  -28.3610   23.2460 C   0  0  0  0  0  3  0  0  0  0  0  0
  -20.8100  -26.9280   22.6840 C   0  0  0  0  0  2  0  0  0  0  0  0
  -19.7380  -26.5810   21.6470 C   0  0  0  0  0  2  0  0  0  0  0  0
  -18.3400  -26.7000   22.2590 C   0  0  0  0  0  2  0  0  0  0  0  0
  -19.2140  -28.8370   23.3660 C   0  0  0  0  0  0  0  0  0  0  0  0
  -18.9610  -30.1030   23.9370 C   0  0  0  0  0  3  0  0  0  0  0  0
  -17.6430  -30.5810   24.0680 C   0  0  0  0  0  3  0  0  0  0  0  0
  -16.5620  -29.7920   23.6380 C   0  0  0  0  0  3  0  0  0  0  0  0
  -16.8030  -28.5280   23.0710 C   0  0  0  0  0  3  0  0  0  0  0  0
  -25.9550  -32.5380   23.9440 C   0  0  0  0  0  3  0  0  0  0  0  0
  -25.6570  -33.9370   24.2740 N   0  0  0  0  0  0  0  0  0  0  0  0
  -25.9930  -34.9840   23.5090 C   0  0  0  0  0  0  0  0  0  0  0  0
  -26.6640  -34.8750   22.4800 O   0  0  0  0  0  0  0  0  0  0  0  0
  -25.0640  -34.0950   25.0760 H   0  0  0  0  0  0  0  0  0  0  0  0
  -24.2730  -36.7820   23.1460 C   0  0  0  0  0  1  0  0  0  0  0  0
  -25.5110  -36.3760   23.9610 C   0  0  0  0  0  3  0  0  0  0  0  0
  -27.6490  -37.2530   24.7870 C   0  0  0  0  0  1  0  0  0  0  0  0
  -26.5470  -37.4230   23.8440 N   0  0  0  0  0  0  0  0  0  0  0  0
  -26.1460  -38.3470   23.9900 H   0  0  0  0  0  0  0  0  0  0  0  0
  -26.4650  -31.7610   25.2190 C   0  0  1  0  0  0  0  0  0  0  0  0
  -25.3670  -31.5330   26.2850 C   0  0  0  0  0  1  0  0  0  0  0  0
  -27.0390  -30.3810   24.8230 C   0  0  0  0  0  1  0  0  0  0  0  0
  -27.6220  -32.5470   25.8800 C   0  0  0  0  0  1  0  0  0  0  0  0
  1  5  1  0
  2  1  1  0
  2 49  1  0
  3  1  2  0
  4  2  1  0
  5  6  1  0
  7  8  1  0
  7  6  1  0
  9  8  1  0
  9 10  1  0
 11 19  1  0
 12 17  1  0
 13 14  1  0
 13 12  1  0
 15 14  1  0
 15 24  1  0
 15 16  1  0
 17 11  1  0
 17 16  1  0
 18 11  2  0
 19 10  1  0
 19 20  1  0
 21 22  2  0
 22 41  1  0
 23 22  1  0
 23 26  1  0
 24 21  1  0
 24 25  1  0
 25 23  2  0
 26 27  1  0
 27 28  2  0
 29 32  1  0
 29 28  1  0
 30 29  2  0
 31 30  1  0
 31 26  2  0
 32 33  1  0
 33 34  1  0
 34 35  2  0
 36 35  1  0
 36 40  1  0
 37 36  2  0
 38 33  2  0
 38 37  1  0
 39 38  1  0
 41 42  1  0
 42 45  1  0
 42 44  1  0
 43 41  2  0
 46 47  1  0
 46 21  1  0
 48 46  1  0
 49 50  1  0
 51 53  1  0
 51 50  1  0
 52 63  2  0
 53 58  1  0
 54 62  1  0
 54 64  1  0
 55 61  1  0
 55 57  1  0
 56 62  1  0
 57 56  1  0
 58 57  2  0
 59 60  1  0
 59 53  2  0
 60 55  2  0
 61 54  1  0
 62 52  1  0
 64 66  2  0
 65 64  1  0
 67 65  1  0
 68 77  2  0
 68 73  1  0
 69 65  1  0
 69 73  1  0
 70 69  1  0
 71 72  1  0
 71 70  1  0
 72 68  1  0
 73 74  2  0
 74 75  1  0
 76 75  2  0
 77 76  1  0
 78 52  1  0
 78 79  1  0
 78 88  1  0
 79 82  1  0
 80 84  1  0
 80 79  1  0
 81 80  2  0
 84 83  1  0
 86 84  1  0
 86 87  1  0
 86 85  1  0
 88 91  1  1
 88 89  1  0
 90 88  1  0
M  ISO  4  11 100  19 100  50 101  51 101
M  END
>  <TORSDO>  (67) 
F 24

>  <SCORE>  (67) 
-11.535

>  <name>  (67) 
67

>  <ligand_id>  (67) 
67

>  <original_smiles>  (67) 
[H]c1c([H])c([H])c2c(c1[H])C([H])([H])C([H])([H])C([H])([H])C2([H])N([H])C(=O)C1([H])N(C(=O)C([H])(N([H])C(=O)C([H])(N([H])C([H])([H])[H])C([H])([H])[H])C(C([H])([H])[H])(C([H])([H])[H])C([H])([H])[H])C([H])([H])c2c([H])c(OC([H])([H])C([H])([H])N([H])C(=O)C([H])([H])C([H])([H])C([H])([H])C([H])([H])C([H])([H])C([H])([H])N([H])C(=O)N3C([H])([H])C([H])([H])C([H])([H])C([H])(n4nc(-c5c([H])c([H])c(Oc6c([H])c([H])c(F)c([H])c6F)c([H])c5[H])c(C(=O)N([H])[H])c4N([H])[H])C3([H])[H])c([H])c([H])c2C1([H])[H]

>  <smiles>  (67) 
[H]c1c([H])c([H])c2c(c1[H])C([H])([H])C([H])([H])C([H])([H])C2([H])N([H])C(=O)C1([H])N(C(=O)C([H])(N([H])C(=O)C([H])(N([H])C([H])([H])[H])C([H])([H])[H])C(C([H])([H])[H])(C([H])([H])[H])C([H])([H])[H])C([H])([H])c2c([H])c(OC([H])([H])C([H])([H])N([H])C(=O)C([H])([H])C([H])([H])C([H])([H])C([H])([H])C([H])([H])C([H])([H])N([H])C(=O)N3C([H])([H])C([H])([H])C([H])([H])C([H])(n4nc(-c5c([H])c([H])c(Oc6c([H])c([H])c(F)c([H])c6F)c([H])c5[H])c(C(=O)N([H])[H])c4N([H])[H])C3([H])[H])c([H])c([H])c2C1([H])[H]

$$$$
68:0:0
     RDKit          3D

 94101  0  0  1  0  0  0  0  0999 V2000
  -30.6520  -19.3030   18.4730 N   0  0  0  0  0  4  0  0  0  0  0  0
  -30.2870  -18.4850   18.0110 H   0  0  0  0  0  0  0  0  0  0  0  0
  -30.4880  -19.2140   19.4630 H   0  0  0  0  0  0  0  0  0  0  0  0
  -29.9100  -20.4950   17.9920 C   0  0  0  0  0  2  0  0  0  0  0  0
  -30.3840  -21.7940   18.6780 C   0  0  0  0  0  2  0  0  0  0  0  0
  -30.4930  -22.9840   17.7010 C   0  0  0  0  0  2  0  0  0  0  0  0
  -29.7070  -24.2380   18.1390 C   0  0  0  0  0  2  0  0  0  0  0  0
  -29.1800  -25.0580   16.9440 C   0  0  0  0  0  2  0  0  0  0  0  0
  -30.2490  -25.6950   16.2360 O   0  0  0  0  0  0  0  0  0  0  0  0
  -32.6140  -27.1660    9.7040 C   0  0  0  0  0  0  0  0  0  0  0  0
  -30.3190  -25.3030   14.9250 C   0  0  0  0  0  0  0  0  0  0  0  0
  -30.8820  -25.4040    9.8620 C   0  0  0  0  0  3  0  0  0  0  0  0
  -30.3820  -24.5500   12.2140 C   0  0  0  0  0  0  0  0  0  0  0  0
  -32.4910  -25.8290   11.8020 C   0  0  0  0  0  2  0  0  0  0  0  0
  -31.3910  -25.3700   12.7350 C   0  0  0  0  0  0  0  0  0  0  0  0
  -31.3660  -25.7500   14.0930 C   0  0  0  0  0  3  0  0  0  0  0  0
  -29.3130  -24.4720   14.3960 C   0  0  0  0  0  3  0  0  0  0  0  0
  -29.3370  -24.0970   13.0390 C   0  0  0  0  0  3  0  0  0  0  0  0
  -30.4780  -24.1940   10.7470 C   0  0  0  0  0  2  0  0  0  0  0  0
  -32.0140  -26.1920   10.4480 N   0  0  0  0  0  0  0  0  0  0  0  0
  -32.2680  -27.3810    8.5340 O   0  0  0  0  0  0  0  0  0  0  0  0
  -29.6220  -26.2540    9.5810 C   0  0  0  0  0  0  0  0  0  0  0  0
  -29.4310  -27.3200   10.3740 N   0  0  0  0  0  0  0  0  0  0  0  0
  -28.8590  -25.9660    8.6540 O   0  0  0  0  0  0  0  0  0  0  0  0
  -30.1030  -27.4840   11.1110 H   0  0  0  0  0  0  0  0  0  0  0  0
  -27.2810  -29.0470    8.0410 C   0  0  0  0  0  0  0  0  0  0  0  0
  -28.3370  -28.2850   10.2720 C   0  0  0  0  0  3  0  0  0  0  0  0
  -26.9770  -27.6160   10.5720 C   0  0  0  0  0  2  0  0  0  0  0  0
  -26.2630  -27.1110    9.3130 C   0  0  0  0  0  2  0  0  0  0  0  0
  -26.0130  -28.2640    8.3360 C   0  0  0  0  0  2  0  0  0  0  0  0
  -28.3780  -29.0440    8.9420 C   0  0  0  0  0  0  0  0  0  0  0  0
  -29.5470  -29.7610    8.6000 C   0  0  0  0  0  3  0  0  0  0  0  0
  -29.6290  -30.4690    7.3880 C   0  0  0  0  0  3  0  0  0  0  0  0
  -28.5330  -30.4830    6.5070 C   0  0  0  0  0  3  0  0  0  0  0  0
  -27.3610  -29.7780    6.8370 C   0  0  0  0  0  3  0  0  0  0  0  0
  -33.7750  -28.0370   10.2770 C   0  0  0  0  0  3  0  0  0  0  0  0
  -33.2890  -29.4250   10.8510 C   0  0  1  0  0  0  0  0  0  0  0  0
  -31.9190  -29.3540   11.5670 C   0  0  0  0  0  1  0  0  0  0  0  0
  -34.3190  -29.9870   11.8580 C   0  0  0  0  0  1  0  0  0  0  0  0
  -33.1860  -30.4600    9.7050 C   0  0  0  0  0  1  0  0  0  0  0  0
  -34.7550  -28.2330    9.2010 N   0  0  0  0  0  0  0  0  0  0  0  0
  -35.9500  -27.6310    9.1440 C   0  0  0  0  0  0  0  0  0  0  0  0
  -36.3750  -26.8980   10.0420 O   0  0  0  0  0  0  0  0  0  0  0  0
  -34.4540  -28.7780    8.4060 H   0  0  0  0  0  0  0  0  0  0  0  0
  -37.0090  -26.5590    7.1310 C   0  0  0  0  0  1  0  0  0  0  0  0
  -36.8100  -27.8800    7.8910 C   0  0  0  0  0  3  0  0  0  0  0  0
  -38.0320  -29.8700    8.6480 C   0  0  0  0  0  1  0  0  0  0  0  0
  -38.1260  -28.4860    8.1890 N   0  0  0  0  0  0  0  0  0  0  0  0
  -38.7260  -28.4660    7.3690 H   0  0  0  0  0  0  0  0  0  0  0  0
  -32.1230  -19.3280   18.2740 C   0  0  0  0  0  3  0  0  0  0  0  0
  -32.8070  -18.5570   19.4160 C   0  0  0  0  0  3  0  0  0  0  0  0
  -32.4090  -18.5560   20.5850 O   0  0  0  0  0  0  0  0  0  0  0  0
  -32.6740  -20.7730   18.1550 C   0  0  0  0  0  2  0  0  0  0  0  0
  -34.1080  -21.0230   18.6810 C   0  0  0  0  0  2  0  0  0  0  0  0
  -34.2100  -22.3860   19.3820 C   0  0  0  0  0  2  0  0  0  0  0  0
  -35.6400  -22.7760   19.8290 C   0  0  0  0  0  2  0  0  0  0  0  0
  -37.1620  -23.8790   18.0980 C   0  0  0  0  0  0  0  0  0  0  0  0
  -38.2640  -26.0830   18.2820 C   0  0  0  0  0  2  0  0  0  0  0  0
  -39.8020  -25.9860   18.3790 C   0  0  0  0  0  2  0  0  0  0  0  0
  -40.2640  -25.7380   19.8290 C   0  0  0  0  0  2  0  0  0  0  0  0
  -39.4790  -24.5890   20.5090 C   0  0  0  0  0  3  0  0  0  0  0  0
  -37.9740  -24.8260   20.3190 C   0  0  0  0  0  2  0  0  0  0  0  0
  -37.6610  -24.8780   18.8780 N   0  0  0  0  0  0  0  0  0  0  0  0
  -37.2640  -23.8880   16.8660 O   0  0  0  0  0  0  0  0  0  0  0  0
  -36.5670  -22.8250   18.6880 N   0  0  0  0  0  0  0  0  0  0  0  0
  -36.4200  -22.0700   18.0350 H   0  0  0  0  0  0  0  0  0  0  0  0
  -39.4830  -25.2760   22.9990 C   0  0  0  0  0  0  0  0  0  0  0  0
  -40.0020  -24.6680   24.1100 C   0  0  0  0  0  0  0  0  0  0  0  0
  -40.6420  -23.4780   23.6460 C   0  0  0  0  0  0  0  0  0  0  0  0
  -39.8190  -24.4610   21.9260 N   0  0  0  0  0  0  0  0  0  0  0  0
  -40.5700  -23.4010   22.3250 N   0  0  0  0  0  0  0  0  0  0  0  0
  -41.2670  -22.3760   24.3870 C   0  0  0  0  0  0  0  0  0  0  0  0
  -42.6630  -22.3170   24.5890 C   0  0  0  0  0  3  0  0  0  0  0  0
  -43.2350  -21.2580   25.3260 C   0  0  0  0  0  3  0  0  0  0  0  0
  -42.4110  -20.2440   25.8700 C   0  0  0  0  0  0  0  0  0  0  0  0
  -41.0240  -20.2970   25.6460 C   0  0  0  0  0  3  0  0  0  0  0  0
  -40.4570  -21.3480   24.9110 C   0  0  0  0  0  3  0  0  0  0  0  0
  -42.8830  -19.1620   26.5730 O   0  0  0  0  0  0  0  0  0  0  0  0
  -42.7040  -19.0510   27.9290 C   0  0  0  0  0  0  0  0  0  0  0  0
  -43.0940  -20.0750   28.8200 C   0  0  0  0  0  3  0  0  0  0  0  0
  -42.8270  -19.9470   30.1980 C   0  0  0  0  0  3  0  0  0  0  0  0
  -42.1650  -18.8050   30.6840 C   0  0  0  0  0  0  0  0  0  0  0  0
  -41.7730  -17.7860   29.7980 C   0  0  0  0  0  3  0  0  0  0  0  0
  -42.0380  -17.9110   28.4240 C   0  0  0  0  0  0  0  0  0  0  0  0
  -41.6370  -16.9400   27.5700 F   0  0  0  0  0  0  0  0  0  0  0  0
  -41.9020  -18.6850   32.0060 F   0  0  0  0  0  0  0  0  0  0  0  0
  -39.8340  -25.1130   25.5360 C   0  0  0  0  0  0  0  0  0  0  0  0
  -40.9320  -25.2920   26.2620 N   0  0  0  0  0  0  0  0  0  0  0  0
  -38.7210  -25.3480   26.0020 O   0  0  0  0  0  0  0  0  0  0  0  0
  -41.8530  -25.1180   25.8840 H   0  0  0  0  0  0  0  0  0  0  0  0
  -40.8530  -25.6070   27.2200 H   0  0  0  0  0  0  0  0  0  0  0  0
  -38.7380  -26.4400   22.8150 N   0  0  0  0  0  0  0  0  0  0  0  0
  -38.4150  -27.0000   23.5950 H   0  0  0  0  0  0  0  0  0  0  0  0
  -38.3550  -26.7380   21.9270 H   0  0  0  0  0  0  0  0  0  0  0  0
  1  3  1  0
  2  1  1  0
  4  1  1  0
  4  5  1  0
  6  7  1  0
  6  5  1  0
  8  7  1  0
  9  8  1  0
 10 20  1  0
 11  9  1  0
 12 22  1  0
 12 20  1  0
 12 19  1  0
 13 15  2  0
 13 18  1  0
 14 15  1  0
 15 16  1  0
 16 11  2  0
 17 11  1  0
 18 17  2  0
 19 13  1  0
 20 14  1  0
 21 10  2  0
 22 23  1  0
 23 25  1  0
 24 22  2  0
 26 30  1  0
 26 31  1  0
 27 23  1  0
 27 28  1  0
 29 28  1  0
 30 29  1  0
 31 27  1  0
 32 31  2  0
 33 32  1  0
 34 35  1  0
 34 33  2  0
 35 26  2  0
 36 10  1  0
 36 37  1  0
 37 38  1  1
 37 39  1  0
 40 37  1  0
 41 36  1  0
 42 41  1  0
 42 43  2  0
 44 41  1  0
 46 45  1  0
 46 48  1  0
 46 42  1  0
 48 47  1  0
 49 48  1  0
 50 53  1  0
 50  1  1  0
 50 51  1  0
 51 52  2  0
 53 54  1  0
 54 55  1  0
 55 56  1  0
 57 65  1  0
 57 63  1  0
 58 59  1  0
 58 63  1  0
 59 60  1  0
 61 60  1  0
 61 70  1  0
 62 61  1  0
 63 62  1  0
 64 57  2  0
 65 56  1  0
 66 65  1  0
 67 68  2  0
 68 87  1  0
 69 68  1  0
 69 72  1  0
 70 71  1  0
 70 67  1  0
 71 69  2  0
 72 73  2  0
 72 77  1  0
 73 74  1  0
 74 75  2  0
 75 78  1  0
 76 75  1  0
 77 76  2  0
 78 79  1  0
 79 84  2  0
 79 80  1  0
 80 81  2  0
 81 82  1  0
 82 86  1  0
 83 82  2  0
 84 83  1  0
 85 84  1  0
 87 89  2  0
 87 88  1  0
 88 91  1  0
 90 88  1  0
 92 67  1  0
 92 93  1  0
 94 92  1  0
M  ISO  4   8 101   9 101  57 100  65 100
M  END
>  <TORSDO>  (68) 
F 27

>  <SCORE>  (68) 
-3.338

>  <name>  (68) 
68

>  <ligand_id>  (68) 
68

>  <original_smiles>  (68) 
[H]C(=O)C([H])(C([H])([H])C([H])([H])C([H])([H])C([H])([H])N([H])C(=O)N1C([H])([H])C([H])([H])C([H])([H])C([H])(n2nc(-c3c([H])c([H])c(Oc4c([H])c([H])c(F)c([H])c4F)c([H])c3[H])c(C(=O)N([H])[H])c2N([H])[H])C1([H])[H])[N+]([H])([H])C([H])([H])C([H])([H])C([H])([H])C([H])([H])C([H])([H])Oc1c([H])c([H])c2c(c1[H])C([H])([H])N(C(=O)C([H])(N([H])C(=O)C([H])(N([H])C([H])([H])[H])C([H])([H])[H])C(C([H])([H])[H])(C([H])([H])[H])C([H])([H])[H])C([H])(C(=O)N([H])C1([H])c3c([H])c([H])c([H])c([H])c3C([H])([H])C([H])([H])C1([H])[H])C2([H])[H]

>  <smiles>  (68) 
[H]C(=O)C([H])(C([H])([H])C([H])([H])C([H])([H])C([H])([H])N([H])C(=O)N1C([H])([H])C([H])([H])C([H])([H])C([H])(n2nc(-c3c([H])c([H])c(Oc4c([H])c([H])c(F)c([H])c4F)c([H])c3[H])c(C(=O)N([H])[H])c2N([H])[H])C1([H])[H])[N+]([H])([H])C([H])([H])C([H])([H])C([H])([H])C([H])([H])C([H])([H])Oc1c([H])c([H])c2c(c1[H])C([H])([H])N(C(=O)C([H])(N([H])C(=O)C([H])(N([H])C([H])([H])[H])C([H])([H])[H])C(C([H])([H])[H])(C([H])([H])[H])C([H])([H])[H])C([H])(C(=O)N([H])C1([H])c3c([H])c([H])c([H])c([H])c3C([H])([H])C([H])([H])C1([H])[H])C2([H])[H]

$$$$
69:0:0
     RDKit          3D

 96102  0  0  1  0  0  0  0  0999 V2000
  -26.2750  -16.0590   17.3300 C   0  0  0  0  0  3  0  0  0  0  0  0
  -28.4380  -16.9110   17.9920 C   0  0  0  0  0  3  0  0  0  0  0  0
  -26.5180  -18.4200   17.9650 C   0  0  0  0  0  3  0  0  0  0  0  0
  -27.6410  -15.7390   17.5620 C   0  0  0  0  0  0  0  0  0  0  0  0
  -25.7180  -17.3500   17.5220 C   0  0  0  0  0  0  0  0  0  0  0  0
  -27.8890  -18.2650   18.2260 C   0  0  0  0  0  0  0  0  0  0  0  0
  -29.9110  -12.9710   21.3270 C   0  0  2  0  0  0  0  0  0  0  0  0
  -31.2810  -13.1340   20.6540 C   0  0  0  0  0  1  0  0  0  0  0  0
  -30.2200  -14.5690   19.7210 C   0  0  0  0  0  1  0  0  0  0  0  0
  -28.3750  -14.5850   20.2130 C   0  0  0  0  0  2  0  0  0  0  0  0
  -27.6060  -13.5550   21.4410 C   0  0  0  0  0  2  0  0  0  0  0  0
  -28.6930  -12.3250   22.2170 C   0  0  0  0  0  1  0  0  0  0  0  0
  -30.3610  -12.2070   21.8130 N   0  0  0  0  0  1  0  0  0  0  0  0
  -30.0660  -14.1460   22.1280 O   0  0  0  0  0  1  0  0  0  0  0  0
  -29.3450  -13.3640   17.2690 C   0  0  0  0  0  2  0  0  0  0  0  0
  -27.1840  -12.9960   18.2970 C   0  0  0  0  0  2  0  0  0  0  0  0
  -29.9290  -12.3170   18.4030 C   0  0  0  0  0  2  0  0  0  0  0  0
  -27.9980  -11.9120   19.2250 C   0  0  0  0  0  2  0  0  0  0  0  0
  -27.9700  -14.0970   17.4500 C   0  0  0  0  0  3  0  0  0  0  0  0
  -29.3360  -12.2600   19.8840 N   0  0  0  0  0  2  0  0  0  0  0  0
  -25.0850  -13.9480   21.3280 C   0  0  0  0  0  0  0  0  0  0  0  0
  -23.9930  -13.1180   21.2790 C   0  0  0  0  0  0  0  0  0  0  0  0
  -24.4870  -11.8010   21.0600 C   0  0  0  0  0  0  0  0  0  0  0  0
  -26.1930  -13.1320   21.2540 N   0  0  0  0  0  0  0  0  0  0  0  0
  -25.8110  -11.8180   21.1540 N   0  0  0  0  0  0  0  0  0  0  0  0
  -23.7640  -10.5340   20.8090 C   0  0  0  0  0  0  0  0  0  0  0  0
  -24.1300   -9.3350   21.4550 C   0  0  0  0  0  3  0  0  0  0  0  0
  -23.3910   -8.1510   21.2460 C   0  0  0  0  0  3  0  0  0  0  0  0
  -22.2670   -8.1540   20.3860 C   0  0  0  0  0  0  0  0  0  0  0  0
  -21.9090   -9.3470   19.7350 C   0  0  0  0  0  3  0  0  0  0  0  0
  -22.6500  -10.5250   19.9420 C   0  0  0  0  0  3  0  0  0  0  0  0
  -21.5090   -7.0420   20.1000 O   0  0  0  0  0  0  0  0  0  0  0  0
  -21.5320   -5.9310   20.9070 C   0  0  0  0  0  0  0  0  0  0  0  0
  -21.2270   -5.9980   22.2880 C   0  0  0  0  0  3  0  0  0  0  0  0
  -21.1900   -4.8170   23.0580 C   0  0  0  0  0  3  0  0  0  0  0  0
  -21.4510   -3.5690   22.4520 C   0  0  0  0  0  0  0  0  0  0  0  0
  -21.7430   -3.5030   21.0800 C   0  0  0  0  0  3  0  0  0  0  0  0
  -21.7770   -4.6820   20.3100 C   0  0  0  0  0  0  0  0  0  0  0  0
  -22.0420   -4.6020   18.9830 F   0  0  0  0  0  0  0  0  0  0  0  0
  -21.3990   -2.4360   23.1910 F   0  0  0  0  0  0  0  0  0  0  0  0
  -22.5630  -13.5410   21.3980 C   0  0  0  0  0  0  0  0  0  0  0  0
  -21.7330  -12.7080   22.0130 N   0  0  0  0  0  0  0  0  0  0  0  0
  -22.1880  -14.6460   21.0200 O   0  0  0  0  0  0  0  0  0  0  0  0
  -22.0490  -11.8100   22.3450 H   0  0  0  0  0  0  0  0  0  0  0  0
  -20.7680  -12.9710   22.1410 H   0  0  0  0  0  0  0  0  0  0  0  0
  -25.2310  -15.3180   21.4940 N   0  0  0  0  0  0  0  0  0  0  0  0
  -24.4240  -15.9280   21.5490 H   0  0  0  0  0  0  0  0  0  0  0  0
  -26.1100  -15.8230   21.5100 H   0  0  0  0  0  0  0  0  0  0  0  0
  -23.2480  -16.5620   17.6930 C   0  0  0  0  0  1  0  0  0  0  0  0
  -24.2420  -17.6490   17.2650 C   0  0  0  0  0  2  0  0  0  0  0  0
  -28.6830  -19.6150   18.6290 C   0  0  0  0  0  2  0  0  0  0  0  0
  -28.0960  -20.7810   19.6400 C   0  0  0  0  0  2  0  0  0  0  0  0
  -28.2520  -22.4040   19.3770 C   0  0  0  0  0  2  0  0  0  0  0  0
  -28.7000  -23.5520   20.4850 C   0  0  0  0  0  3  0  0  0  0  0  0
  -28.1550  -25.0890   20.3380 C   0  0  0  0  0  3  0  0  0  0  0  0
  -28.5790  -26.4030   21.0320 O   0  0  0  0  0  0  0  0  0  0  0  0
  -25.1930  -32.1610   24.2830 C   0  0  0  0  0  0  0  0  0  0  0  0
  -27.6130  -27.4560   21.0840 C   0  0  0  0  0  0  0  0  0  0  0  0
  -23.9750  -30.8360   22.6180 C   0  0  0  0  0  3  0  0  0  0  0  0
  -25.3810  -29.2780   21.1740 C   0  0  0  0  0  0  0  0  0  0  0  0
  -26.5510  -30.9990   22.5120 C   0  0  0  0  0  2  0  0  0  0  0  0
  -26.5720  -29.6330   21.8170 C   0  0  0  0  0  0  0  0  0  0  0  0
  -27.6930  -28.7190   21.7910 C   0  0  0  0  0  3  0  0  0  0  0  0
  -26.4060  -27.2450   20.3840 C   0  0  0  0  0  3  0  0  0  0  0  0
  -25.3020  -28.0880   20.4640 C   0  0  0  0  0  3  0  0  0  0  0  0
  -24.1940  -30.2150   21.2240 C   0  0  0  0  0  2  0  0  0  0  0  0
  -25.2620  -31.3520   23.1890 N   0  0  0  0  0  0  0  0  0  0  0  0
  -24.1060  -32.4790   24.7860 O   0  0  0  0  0  0  0  0  0  0  0  0
  -23.2620  -29.8140   23.5330 C   0  0  0  0  0  0  0  0  0  0  0  0
  -21.9930  -29.5020   23.2200 N   0  0  0  0  0  0  0  0  0  0  0  0
  -23.8500  -29.3060   24.4930 O   0  0  0  0  0  0  0  0  0  0  0  0
  -21.5760  -29.9620   22.4260 H   0  0  0  0  0  0  0  0  0  0  0  0
  -18.7540  -27.8820   23.1630 C   0  0  0  0  0  0  0  0  0  0  0  0
  -21.1330  -28.5490   23.9290 C   0  0  0  0  0  3  0  0  0  0  0  0
  -21.5390  -27.0930   23.6060 C   0  0  0  0  0  2  0  0  0  0  0  0
  -20.7410  -26.4920   22.4440 C   0  0  0  0  0  2  0  0  0  0  0  0
  -19.2410  -26.5030   22.7530 C   0  0  0  0  0  2  0  0  0  0  0  0
  -19.6460  -28.8480   23.7000 C   0  0  0  0  0  0  0  0  0  0  0  0
  -19.1470  -30.1280   24.0330 C   0  0  0  0  0  3  0  0  0  0  0  0
  -17.7880  -30.4420   23.8460 C   0  0  0  0  0  3  0  0  0  0  0  0
  -16.9080  -29.4750   23.3300 C   0  0  0  0  0  3  0  0  0  0  0  0
  -17.3900  -28.1980   22.9920 C   0  0  0  0  0  3  0  0  0  0  0  0
  -26.4780  -32.7460   24.9380 C   0  0  0  0  0  3  0  0  0  0  0  0
  -26.2230  -34.1670   25.2210 N   0  0  0  0  0  0  0  0  0  0  0  0
  -26.6510  -35.1840   24.4600 C   0  0  0  0  0  0  0  0  0  0  0  0
  -27.3690  -35.0210   23.4710 O   0  0  0  0  0  0  0  0  0  0  0  0
  -25.5990  -34.3740   25.9880 H   0  0  0  0  0  0  0  0  0  0  0  0
  -25.0340  -37.0510   23.9860 C   0  0  0  0  0  1  0  0  0  0  0  0
  -26.2130  -36.6060   24.8650 C   0  0  0  0  0  3  0  0  0  0  0  0
  -28.3550  -37.3950   25.7730 C   0  0  0  0  0  1  0  0  0  0  0  0
  -27.3040  -37.6030   24.7810 N   0  0  0  0  0  0  0  0  0  0  0  0
  -26.9390  -38.5440   24.8970 H   0  0  0  0  0  0  0  0  0  0  0  0
  -26.8960  -31.9830   26.2540 C   0  0  1  0  0  0  0  0  0  0  0  0
  -25.7390  -31.7910   27.2640 C   0  0  0  0  0  1  0  0  0  0  0  0
  -27.4640  -30.5830   25.9270 C   0  0  0  0  0  1  0  0  0  0  0  0
  -28.0260  -32.7620   26.9670 C   0  0  0  0  0  1  0  0  0  0  0  0
  1  5  2  0
  1  4  1  0
  2  6  1  0
  3  6  2  0
  4  2  2  0
  5  3  1  0
  6 51  1  0
  7 13  1  0
  7 14  1  0
  7 12  1  6
  8  7  1  0
  9 10  1  0
 10 11  1  0
 15 19  1  0
 15 17  1  0
 16 18  1  0
 17 20  1  0
 18 20  1  0
 19  4  1  0
 19 16  1  0
 21 46  1  0
 22 21  2  0
 22 41  1  0
 23 25  2  0
 23 22  1  0
 24 21  1  0
 24 11  1  0
 25 24  1  0
 26 23  1  0
 26 27  1  0
 28 27  2  0
 29 28  1  0
 30 31  1  0
 30 29  2  0
 31 26  2  0
 32 29  1  0
 32 33  1  0
 33 34  1  0
 34 35  2  0
 36 35  1  0
 36 40  1  0
 37 36  2  0
 38 33  2  0
 38 37  1  0
 39 38  1  0
 41 42  1  0
 42 45  1  0
 42 44  1  0
 43 41  2  0
 46 48  1  0
 46 47  1  0
 50  5  1  0
 50 49  1  0
 51 52  1  0
 53 52  1  0
 53 54  1  0
 55 54  2  0
 55 56  1  0
 56 58  1  0
 57 68  2  0
 58 63  1  0
 59 67  1  0
 59 69  1  0
 60 66  1  0
 60 62  1  0
 61 67  1  0
 62 61  1  0
 63 62  2  0
 64 65  1  0
 64 58  2  0
 65 60  2  0
 66 59  1  0
 67 57  1  0
 69 71  2  0
 70 69  1  0
 72 70  1  0
 73 78  1  0
 74 70  1  0
 75 74  1  0
 76 77  1  0
 76 75  1  0
 77 73  1  0
 78 74  1  0
 78 79  2  0
 80 79  1  0
 81 80  2  0
 82 73  2  0
 82 81  1  0
 83 57  1  0
 83 84  1  0
 83 93  1  0
 84 87  1  0
 85 89  1  0
 85 84  1  0
 86 85  2  0
 89 88  1  0
 91 89  1  0
 91 92  1  0
 91 90  1  0
 93 96  1  1
 93 94  1  0
 95 93  1  0
M  ISO  4   7 100  20 100  55 101  56 101
M  END
>  <TORSDO>  (69) 
F 22

>  <SCORE>  (69) 
21.540

>  <name>  (69) 
69

>  <ligand_id>  (69) 
69

>  <original_smiles>  (69) 
[H]c1c([H])c([H])c2c(c1[H])C([H])([H])C([H])([H])C([H])([H])C2([H])N([H])C(=O)C1([H])N(C(=O)C([H])(N([H])C(=O)C([H])(N([H])C([H])([H])[H])C([H])([H])[H])C(C([H])([H])[H])(C([H])([H])[H])C([H])([H])[H])C([H])([H])c2c([H])c(OC([H])([H])C([H])([H])C([H])([H])C([H])([H])C([H])([H])c3c([H])c(C([H])([H])C([H])([H])[H])c([H])c(C4([H])C([H])([H])C([H])([H])N(C(=O)N5C([H])([H])C([H])([H])C([H])([H])C([H])(n6nc(-c7c([H])c([H])c(Oc8c([H])c([H])c(F)c([H])c8F)c([H])c7[H])c(C(=O)N([H])[H])c6N([H])[H])C5([H])[H])C([H])([H])C4([H])[H])c3[H])c([H])c([H])c2C1([H])[H]

>  <smiles>  (69) 
[H]c1c([H])c([H])c2c(c1[H])C([H])([H])C([H])([H])C([H])([H])C2([H])N([H])C(=O)C1([H])N(C(=O)C([H])(N([H])C(=O)C([H])(N([H])C([H])([H])[H])C([H])([H])[H])C(C([H])([H])[H])(C([H])([H])[H])C([H])([H])[H])C([H])([H])c2c([H])c(OC([H])([H])C([H])([H])C([H])([H])C([H])([H])C([H])([H])c3c([H])c(C([H])([H])C([H])([H])[H])c([H])c(C4([H])C([H])([H])C([H])([H])N(C(=O)N5C([H])([H])C([H])([H])C([H])([H])C([H])(n6nc(-c7c([H])c([H])c(Oc8c([H])c([H])c(F)c([H])c8F)c([H])c7[H])c(C(=O)N([H])[H])c6N([H])[H])C5([H])[H])C([H])([H])C4([H])[H])c3[H])c([H])c([H])c2C1([H])[H]

$$$$
70:0:0
     RDKit          3D

 92100  0  0  1  0  0  0  0  0999 V2000
  -29.5430  -20.9080   22.1940 C   0  0  0  0  0  3  0  0  0  0  0  0
  -29.3380  -20.4480   19.8050 C   0  0  0  0  0  3  0  0  0  0  0  0
  -29.1600  -22.2510   21.9630 C   0  0  0  0  0  3  0  0  0  0  0  0
  -28.9110  -21.7620   19.5840 C   0  0  0  0  0  3  0  0  0  0  0  0
  -29.6450  -20.0140   21.1040 C   0  0  0  0  0  0  0  0  0  0  0  0
  -28.8160  -22.6660   20.6540 C   0  0  0  0  0  0  0  0  0  0  0  0
  -30.1210  -18.5830   21.1960 C   0  0  0  0  0  2  0  0  0  0  0  0
  -30.7120  -18.0540   22.5130 C   0  0  0  0  0  2  0  0  0  0  0  0
  -30.8680  -16.5220   22.4020 C   0  0  0  0  0  2  0  0  0  0  0  0
  -31.8790  -16.0270   21.3380 C   0  0  0  0  0  2  0  0  0  0  0  0
  -31.4680  -14.1690   19.7270 C   0  0  0  0  0  0  0  0  0  0  0  0
  -30.8410  -12.0960   18.5610 C   0  0  0  0  0  2  0  0  0  0  0  0
  -29.7700  -12.2660   17.4710 C   0  0  0  0  0  2  0  0  0  0  0  0
  -28.3810  -12.1220   18.1020 C   0  0  0  0  0  2  0  0  0  0  0  0
  -28.1870  -13.1170   19.2710 C   0  0  0  0  0  3  0  0  0  0  0  0
  -29.3390  -12.9980   20.2990 C   0  0  0  0  0  2  0  0  0  0  0  0
  -30.6450  -13.1030   19.6100 N   0  0  0  0  0  0  0  0  0  0  0  0
  -32.2410  -14.5490   18.8410 O   0  0  0  0  0  0  0  0  0  0  0  0
  -31.5030  -14.6700   20.9660 N   0  0  0  0  0  0  0  0  0  0  0  0
  -30.9860  -14.1460   21.6560 H   0  0  0  0  0  0  0  0  0  0  0  0
  -25.9570  -13.9000   20.3100 C   0  0  0  0  0  0  0  0  0  0  0  0
  -24.8670  -13.2070   20.7530 C   0  0  0  0  0  0  0  0  0  0  0  0
  -25.1860  -11.8260   20.5920 C   0  0  0  0  0  0  0  0  0  0  0  0
  -26.8790  -12.9470   19.9020 N   0  0  0  0  0  0  0  0  0  0  0  0
  -26.4210  -11.6900   20.1270 N   0  0  0  0  0  0  0  0  0  0  0  0
  -24.3670  -10.6280   20.8020 C   0  0  0  0  0  0  0  0  0  0  0  0
  -24.7650   -9.6030   21.6850 C   0  0  0  0  0  3  0  0  0  0  0  0
  -23.9460   -8.4700   21.8870 C   0  0  0  0  0  3  0  0  0  0  0  0
  -22.7130   -8.3520   21.1990 C   0  0  0  0  0  0  0  0  0  0  0  0
  -22.3330   -9.3660   20.3000 C   0  0  0  0  0  3  0  0  0  0  0  0
  -23.1530  -10.4890   20.1000 C   0  0  0  0  0  3  0  0  0  0  0  0
  -21.8760   -7.2690   21.3060 O   0  0  0  0  0  0  0  0  0  0  0  0
  -21.7660   -6.5530   22.4730 C   0  0  0  0  0  0  0  0  0  0  0  0
  -21.3810   -7.1640   23.6860 C   0  0  0  0  0  3  0  0  0  0  0  0
  -21.2110   -6.3780   24.8440 C   0  0  0  0  0  3  0  0  0  0  0  0
  -21.4200   -4.9870   24.7890 C   0  0  0  0  0  0  0  0  0  0  0  0
  -21.7950   -4.3790   23.5810 C   0  0  0  0  0  3  0  0  0  0  0  0
  -21.9640   -5.1590   22.4230 C   0  0  0  0  0  0  0  0  0  0  0  0
  -22.3030   -4.5620   21.2540 F   0  0  0  0  0  0  0  0  0  0  0  0
  -21.2490   -4.2330   25.9010 F   0  0  0  0  0  0  0  0  0  0  0  0
  -23.5670  -13.7900   21.2280 C   0  0  0  0  0  0  0  0  0  0  0  0
  -22.9000  -13.1160   22.1590 N   0  0  0  0  0  0  0  0  0  0  0  0
  -23.1630  -14.8730   20.8080 O   0  0  0  0  0  0  0  0  0  0  0  0
  -23.2570  -12.2450   22.5240 H   0  0  0  0  0  0  0  0  0  0  0  0
  -22.0310  -13.4830   22.5200 H   0  0  0  0  0  0  0  0  0  0  0  0
  -26.2340  -15.2590   20.2190 N   0  0  0  0  0  0  0  0  0  0  0  0
  -25.5400  -15.9470   20.4890 H   0  0  0  0  0  0  0  0  0  0  0  0
  -27.1250  -15.6680   19.9640 H   0  0  0  0  0  0  0  0  0  0  0  0
  -28.3510  -24.0730   20.3390 C   0  0  0  0  0  2  0  0  0  0  0  0
  -29.4250  -24.8670   19.5790 C   0  0  0  0  0  2  0  0  0  0  0  0
  -28.9330  -26.1860   18.9800 C   0  0  0  0  0  2  0  0  0  0  0  0
  -28.6490  -27.0990   20.0350 O   0  0  0  0  0  0  0  0  0  0  0  0
  -24.7090  -31.9340   23.4200 C   0  0  0  0  0  0  0  0  0  0  0  0
  -27.4210  -27.7140   20.1000 C   0  0  0  0  0  0  0  0  0  0  0  0
  -23.5110  -30.5700   21.7350 C   0  0  0  0  0  3  0  0  0  0  0  0
  -24.9760  -29.1220   20.2420 C   0  0  0  0  0  0  0  0  0  0  0  0
  -26.0220  -31.0040   21.5160 C   0  0  0  0  0  2  0  0  0  0  0  0
  -26.1300  -29.6620   20.8190 C   0  0  0  0  0  0  0  0  0  0  0  0
  -27.3520  -28.9660   20.7460 C   0  0  0  0  0  3  0  0  0  0  0  0
  -26.2340  -27.1580   19.5620 C   0  0  0  0  0  3  0  0  0  0  0  0
  -25.0210  -27.8640   19.6210 C   0  0  0  0  0  3  0  0  0  0  0  0
  -23.7150  -29.9480   20.3280 C   0  0  0  0  0  2  0  0  0  0  0  0
  -24.7680  -31.1790   22.2830 N   0  0  0  0  0  0  0  0  0  0  0  0
  -23.6300  -32.1650   23.9790 O   0  0  0  0  0  0  0  0  0  0  0  0
  -22.9010  -29.4940   22.6620 C   0  0  0  0  0  0  0  0  0  0  0  0
  -21.6000  -29.2160   22.4760 N   0  0  0  0  0  0  0  0  0  0  0  0
  -23.5960  -28.9130   23.5000 O   0  0  0  0  0  0  0  0  0  0  0  0
  -21.0940  -29.7450   21.7780 H   0  0  0  0  0  0  0  0  0  0  0  0
  -18.3410  -27.6900   22.7230 C   0  0  0  0  0  0  0  0  0  0  0  0
  -20.8250  -28.2110   23.2020 C   0  0  0  0  0  3  0  0  0  0  0  0
  -21.1100  -26.7870   22.6740 C   0  0  0  0  0  2  0  0  0  0  0  0
  -20.1420  -26.3480   21.5720 C   0  0  0  0  0  2  0  0  0  0  0  0
  -18.7080  -26.3540   22.1030 C   0  0  0  0  0  2  0  0  0  0  0  0
  -19.3370  -28.5690   23.2260 C   0  0  0  0  0  0  0  0  0  0  0  0
  -18.9430  -29.8150   23.7630 C   0  0  0  0  0  3  0  0  0  0  0  0
  -17.5850  -30.1830   23.8050 C   0  0  0  0  0  3  0  0  0  0  0  0
  -16.6030  -29.3050   23.3110 C   0  0  0  0  0  3  0  0  0  0  0  0
  -16.9830  -28.0590   22.7790 C   0  0  0  0  0  3  0  0  0  0  0  0
  -25.9900  -32.5650   24.0510 C   0  0  0  0  0  3  0  0  0  0  0  0
  -25.6740  -33.9600   24.3860 N   0  0  0  0  0  0  0  0  0  0  0  0
  -26.0070  -35.0160   23.6320 C   0  0  0  0  0  0  0  0  0  0  0  0
  -26.6840  -34.9190   22.6060 O   0  0  0  0  0  0  0  0  0  0  0  0
  -25.0800  -34.1120   25.1860 H   0  0  0  0  0  0  0  0  0  0  0  0
  -24.2680  -36.7990   23.2720 C   0  0  0  0  0  1  0  0  0  0  0  0
  -25.5070  -36.3990   24.0890 C   0  0  0  0  0  3  0  0  0  0  0  0
  -27.6310  -37.2970   24.9340 C   0  0  0  0  0  1  0  0  0  0  0  0
  -26.5330  -37.4570   23.9820 N   0  0  0  0  0  0  0  0  0  0  0  0
  -26.1250  -38.3760   24.1250 H   0  0  0  0  0  0  0  0  0  0  0  0
  -26.5080  -31.7900   25.3250 C   0  0  1  0  0  0  0  0  0  0  0  0
  -25.4020  -31.5000   26.3660 C   0  0  0  0  0  1  0  0  0  0  0  0
  -27.1430  -30.4370   24.9210 C   0  0  0  0  0  1  0  0  0  0  0  0
  -27.6250  -32.6070   26.0210 C   0  0  0  0  0  1  0  0  0  0  0  0
  2  5  1  0
  3  1  1  0
  4  2  2  0
  4  6  1  0
  5  7  1  0
  5  1  2  0
  6  3  2  0
  7  8  1  0
  9  8  1  0
 10  9  1  0
 11 19  1  0
 12 17  1  0
 13 14  1  0
 13 12  1  0
 15 14  1  0
 15 24  1  0
 15 16  1  0
 17 11  1  0
 17 16  1  0
 18 11  2  0
 19 10  1  0
 19 20  1  0
 21 22  2  0
 22 41  1  0
 23 22  1  0
 23 26  1  0
 24 25  1  0
 24 21  1  0
 25 23  2  0
 26 27  1  0
 27 28  2  0
 29 32  1  0
 29 28  1  0
 30 29  2  0
 31 30  1  0
 31 26  2  0
 32 33  1  0
 33 34  1  0
 34 35  2  0
 36 35  1  0
 36 40  1  0
 37 36  2  0
 38 33  2  0
 38 37  1  0
 39 38  1  0
 41 42  1  0
 42 45  1  0
 42 44  1  0
 43 41  2  0
 46 21  1  0
 46 47  1  0
 48 46  1  0
 49  6  1  0
 50 49  1  0
 51 50  1  0
 51 52  1  0
 52 54  1  0
 53 64  2  0
 54 59  1  0
 55 63  1  0
 55 65  1  0
 56 62  1  0
 56 58  1  0
 57 63  1  0
 58 57  1  0
 59 58  2  0
 60 61  1  0
 60 54  2  0
 61 56  2  0
 62 55  1  0
 63 53  1  0
 65 67  2  0
 66 65  1  0
 68 66  1  0
 69 78  2  0
 69 74  1  0
 70 66  1  0
 70 74  1  0
 71 70  1  0
 72 73  1  0
 72 71  1  0
 73 69  1  0
 74 75  2  0
 75 76  1  0
 77 76  2  0
 78 77  1  0
 79 53  1  0
 79 80  1  0
 79 89  1  0
 80 83  1  0
 81 85  1  0
 81 80  1  0
 82 81  2  0
 85 84  1  0
 87 85  1  0
 87 88  1  0
 87 86  1  0
 89 92  1  1
 89 90  1  0
 91 89  1  0
M  ISO  4  11 100  19 100  51 101  52 101
M  END
>  <TORSDO>  (70) 
F 23

>  <SCORE>  (70) 
-11.210

>  <name>  (70) 
70

>  <ligand_id>  (70) 
70

>  <original_smiles>  (70) 
[H]c1c([H])c([H])c2c(c1[H])C([H])([H])C([H])([H])C([H])([H])C2([H])N([H])C(=O)C1([H])N(C(=O)C([H])(N([H])C(=O)C([H])(N([H])C([H])([H])[H])C([H])([H])[H])C(C([H])([H])[H])(C([H])([H])[H])C([H])([H])[H])C([H])([H])c2c([H])c(OC([H])([H])C([H])([H])C([H])([H])c3c([H])c([H])c(C([H])([H])C([H])([H])C([H])([H])C([H])([H])N([H])C(=O)N4C([H])([H])C([H])([H])C([H])([H])C([H])(n5nc(-c6c([H])c([H])c(Oc7c([H])c([H])c(F)c([H])c7F)c([H])c6[H])c(C(=O)N([H])[H])c5N([H])[H])C4([H])[H])c([H])c3[H])c([H])c([H])c2C1([H])[H]

>  <smiles>  (70) 
[H]c1c([H])c([H])c2c(c1[H])C([H])([H])C([H])([H])C([H])([H])C2([H])N([H])C(=O)C1([H])N(C(=O)C([H])(N([H])C(=O)C([H])(N([H])C([H])([H])[H])C([H])([H])[H])C(C([H])([H])[H])(C([H])([H])[H])C([H])([H])[H])C([H])([H])c2c([H])c(OC([H])([H])C([H])([H])C([H])([H])c3c([H])c([H])c(C([H])([H])C([H])([H])C([H])([H])C([H])([H])N([H])C(=O)N4C([H])([H])C([H])([H])C([H])([H])C([H])(n5nc(-c6c([H])c([H])c(Oc7c([H])c([H])c(F)c([H])c7F)c([H])c6[H])c(C(=O)N([H])[H])c5N([H])[H])C4([H])[H])c([H])c3[H])c([H])c([H])c2C1([H])[H]

$$$$
71:0:0
     RDKit          3D

 96104  0  0  1  0  0  0  0  0999 V2000
  -25.2050  -21.6030   18.3420 C   0  0  0  0  0  3  0  0  0  0  0  0
  -24.3260  -22.5840   18.8360 C   0  0  0  0  0  3  0  0  0  0  0  0
  -26.9150  -22.3750   19.8950 C   0  0  0  0  0  3  0  0  0  0  0  0
  -26.5020  -21.4930   18.8780 C   0  0  0  0  0  0  0  0  0  0  0  0
  -26.0500  -23.3760   20.3880 C   0  0  0  0  0  0  0  0  0  0  0  0
  -24.7370  -23.4620   19.8600 C   0  0  0  0  0  0  0  0  0  0  0  0
  -23.8520  -24.3850   20.3350 O   0  0  0  0  0  0  0  0  0  0  0  0
  -23.0000  -24.3330   19.9120 H   0  0  0  0  0  0  0  0  0  0  0  0
  -26.5320  -24.3210   21.4900 C   0  0  0  0  0  2  0  0  0  0  0  0
  -28.0080  -24.7710   21.3770 C   0  0  0  0  0  2  0  0  0  0  0  0
  -28.4340  -25.3850   20.0230 C   0  0  0  0  0  2  0  0  0  0  0  0
  -28.4280  -26.8120   20.0540 O   0  0  0  0  0  0  0  0  0  0  0  0
  -24.5740  -31.8550   23.1990 C   0  0  0  0  0  0  0  0  0  0  0  0
  -27.2260  -27.4800   20.0550 C   0  0  0  0  0  0  0  0  0  0  0  0
  -23.3640  -30.4670   21.5440 C   0  0  0  0  0  3  0  0  0  0  0  0
  -24.8170  -28.9550   20.0970 C   0  0  0  0  0  0  0  0  0  0  0  0
  -25.8840  -30.8450   21.3390 C   0  0  0  0  0  2  0  0  0  0  0  0
  -25.9730  -29.4830   20.6840 C   0  0  0  0  0  0  0  0  0  0  0  0
  -27.1780  -28.7520   20.6610 C   0  0  0  0  0  3  0  0  0  0  0  0
  -26.0550  -26.9620   19.4550 C   0  0  0  0  0  3  0  0  0  0  0  0
  -24.8520  -27.6900   19.4830 C   0  0  0  0  0  3  0  0  0  0  0  0
  -23.5690  -29.8030   20.1570 C   0  0  0  0  0  2  0  0  0  0  0  0
  -24.6260  -31.0690   22.0860 N   0  0  0  0  0  0  0  0  0  0  0  0
  -23.4940  -32.1190   23.7460 O   0  0  0  0  0  0  0  0  0  0  0  0
  -22.7220  -29.4330   22.4950 C   0  0  0  0  0  0  0  0  0  0  0  0
  -21.3960  -29.2620   22.3800 N   0  0  0  0  0  0  0  0  0  0  0  0
  -23.4120  -28.7910   23.2910 O   0  0  0  0  0  0  0  0  0  0  0  0
  -20.9020  -29.8320   21.7080 H   0  0  0  0  0  0  0  0  0  0  0  0
  -18.0180  -28.0910   22.9000 C   0  0  0  0  0  0  0  0  0  0  0  0
  -20.5820  -28.3170   23.1440 C   0  0  0  0  0  3  0  0  0  0  0  0
  -20.6630  -26.8970   22.5380 C   0  0  0  0  0  2  0  0  0  0  0  0
  -19.5440  -26.6040   21.5340 C   0  0  0  0  0  2  0  0  0  0  0  0
  -18.1730  -26.7520   22.1990 C   0  0  0  0  0  2  0  0  0  0  0  0
  -19.1500  -28.8330   23.3300 C   0  0  0  0  0  0  0  0  0  0  0  0
  -18.9520  -30.0880   23.9450 C   0  0  0  0  0  3  0  0  0  0  0  0
  -17.6550  -30.6000   24.1370 C   0  0  0  0  0  3  0  0  0  0  0  0
  -16.5380  -29.8540   23.7230 C   0  0  0  0  0  3  0  0  0  0  0  0
  -16.7210  -28.6020   23.1110 C   0  0  0  0  0  3  0  0  0  0  0  0
  -25.8620  -32.4800   23.8200 C   0  0  0  0  0  3  0  0  0  0  0  0
  -26.3890  -31.6940   25.0830 C   0  0  1  0  0  0  0  0  0  0  0  0
  -25.3050  -31.4410   26.1550 C   0  0  0  0  0  1  0  0  0  0  0  0
  -26.9720  -30.3230   24.6670 C   0  0  0  0  0  1  0  0  0  0  0  0
  -27.5440  -32.4820   25.7470 C   0  0  0  0  0  1  0  0  0  0  0  0
  -25.5520  -33.8730   24.1660 N   0  0  0  0  0  0  0  0  0  0  0  0
  -25.8730  -34.9320   23.4110 C   0  0  0  0  0  0  0  0  0  0  0  0
  -26.5320  -34.8410   22.3720 O   0  0  0  0  0  0  0  0  0  0  0  0
  -24.9650  -34.0190   24.9740 H   0  0  0  0  0  0  0  0  0  0  0  0
  -24.1270  -36.7160   23.0950 C   0  0  0  0  0  1  0  0  0  0  0  0
  -25.3830  -36.3150   23.8850 C   0  0  0  0  0  3  0  0  0  0  0  0
  -27.5260  -37.2060   24.6870 C   0  0  0  0  0  1  0  0  0  0  0  0
  -26.4060  -37.3750   23.7640 N   0  0  0  0  0  0  0  0  0  0  0  0
  -25.9970  -38.2910   23.9280 H   0  0  0  0  0  0  0  0  0  0  0  0
  -27.4670  -20.4320   18.3880 C   0  0  0  0  0  2  0  0  0  0  0  0
  -27.6760  -19.3190   19.4310 C   0  0  0  0  0  2  0  0  0  0  0  0
  -29.1300  -18.8350   19.4980 C   0  0  0  0  0  2  0  0  0  0  0  0
  -29.3410  -17.7690   20.5800 C   0  0  0  0  0  2  0  0  0  0  0  0
  -30.8310  -17.4750   20.8170 C   0  0  0  0  0  2  0  0  0  0  0  0
  -31.0770  -16.3280   21.8170 C   0  0  0  0  0  2  0  0  0  0  0  0
  -30.8290  -14.3110   20.3780 C   0  0  0  0  0  0  0  0  0  0  0  0
  -30.3830  -12.2540   19.0970 C   0  0  0  0  0  2  0  0  0  0  0  0
  -29.4240  -12.5190   17.9220 C   0  0  0  0  0  2  0  0  0  0  0  0
  -27.9580  -12.4090   18.3790 C   0  0  0  0  0  2  0  0  0  0  0  0
  -27.6710  -13.2390   19.6560 C   0  0  0  0  0  3  0  0  0  0  0  0
  -28.7320  -12.9570   20.7430 C   0  0  0  0  0  2  0  0  0  0  0  0
  -30.0700  -13.2060   20.1720 N   0  0  0  0  0  0  0  0  0  0  0  0
  -31.8310  -14.5840   19.7090 O   0  0  0  0  0  0  0  0  0  0  0  0
  -30.4410  -15.0830   21.3990 N   0  0  0  0  0  0  0  0  0  0  0  0
  -29.6300  -14.7770   21.9170 H   0  0  0  0  0  0  0  0  0  0  0  0
  -25.2900  -13.9030   20.3830 C   0  0  0  0  0  0  0  0  0  0  0  0
  -24.2120  -13.1550   20.7740 C   0  0  0  0  0  0  0  0  0  0  0  0
  -24.6460  -11.7950   20.7510 C   0  0  0  0  0  0  0  0  0  0  0  0
  -26.3160  -13.0000   20.1510 N   0  0  0  0  0  0  0  0  0  0  0  0
  -25.9300  -11.7270   20.4260 N   0  0  0  0  0  0  0  0  0  0  0  0
  -23.8980  -10.5490   20.9650 C   0  0  0  0  0  0  0  0  0  0  0  0
  -24.3330   -9.5760   21.8930 C   0  0  0  0  0  3  0  0  0  0  0  0
  -23.5880   -8.3950   22.0930 C   0  0  0  0  0  3  0  0  0  0  0  0
  -22.3930   -8.1760   21.3650 C   0  0  0  0  0  0  0  0  0  0  0  0
  -21.9780   -9.1370   20.4270 C   0  0  0  0  0  3  0  0  0  0  0  0
  -22.7230  -10.3110   20.2240 C   0  0  0  0  0  3  0  0  0  0  0  0
  -21.6190   -7.0470   21.4750 O   0  0  0  0  0  0  0  0  0  0  0  0
  -21.5890   -6.3040   22.6280 C   0  0  0  0  0  0  0  0  0  0  0  0
  -21.2280   -6.8700   23.8700 C   0  0  0  0  0  3  0  0  0  0  0  0
  -21.1430   -6.0540   25.0160 C   0  0  0  0  0  3  0  0  0  0  0  0
  -21.4080   -4.6760   24.9230 C   0  0  0  0  0  0  0  0  0  0  0  0
  -21.7630   -4.1100   23.6850 C   0  0  0  0  0  3  0  0  0  0  0  0
  -21.8500   -4.9220   22.5410 C   0  0  0  0  0  0  0  0  0  0  0  0
  -22.1710   -4.3670   21.3470 F   0  0  0  0  0  0  0  0  0  0  0  0
  -21.3200   -3.8910   26.0220 F   0  0  0  0  0  0  0  0  0  0  0  0
  -22.8270  -13.6620   21.0620 C   0  0  0  0  0  0  0  0  0  0  0  0
  -22.1010  -12.9880   21.9470 N   0  0  0  0  0  0  0  0  0  0  0  0
  -22.4000  -14.6900   20.5390 O   0  0  0  0  0  0  0  0  0  0  0  0
  -22.4590  -12.1570   22.3930 H   0  0  0  0  0  0  0  0  0  0  0  0
  -21.1730  -13.3110   22.1840 H   0  0  0  0  0  0  0  0  0  0  0  0
  -25.4800  -15.2680   20.1890 N   0  0  0  0  0  0  0  0  0  0  0  0
  -24.7300  -15.9420   20.3050 H   0  0  0  0  0  0  0  0  0  0  0  0
  -26.3420  -15.6860   19.8630 H   0  0  0  0  0  0  0  0  0  0  0  0
  1  2  2  0
  1  4  1  0
  2  6  1  0
  3  5  1  0
  4  3  2  0
  5  9  1  0
  6  7  1  0
  6  5  2  0
  8  7  1  0
 10  9  1  0
 11 12  1  0
 11 10  1  0
 12 14  1  0
 13 24  2  0
 14 19  1  0
 15 23  1  0
 15 25  1  0
 16 22  1  0
 16 18  1  0
 17 23  1  0
 18 17  1  0
 19 18  2  0
 20 21  1  0
 20 14  2  0
 21 16  2  0
 22 15  1  0
 23 13  1  0
 25 27  2  0
 26 25  1  0
 28 26  1  0
 29 38  2  0
 29 34  1  0
 30 26  1  0
 30 34  1  0
 31 30  1  0
 32 33  1  0
 32 31  1  0
 33 29  1  0
 34 35  2  0
 35 36  1  0
 37 36  2  0
 38 37  1  0
 39 13  1  0
 39 44  1  0
 39 40  1  0
 40 43  1  1
 40 41  1  0
 42 40  1  0
 44 47  1  0
 45 49  1  0
 45 44  1  0
 46 45  2  0
 49 48  1  0
 51 49  1  0
 51 52  1  0
 51 50  1  0
 53  4  1  0
 53 54  1  0
 54 55  1  0
 55 56  1  0
 56 57  1  0
 57 58  1  0
 59 67  1  0
 60 65  1  0
 61 62  1  0
 61 60  1  0
 63 62  1  0
 63 72  1  0
 63 64  1  0
 65 59  1  0
 65 64  1  0
 66 59  2  0
 67 58  1  0
 67 68  1  0
 69 70  2  0
 70 89  1  0
 71 70  1  0
 71 74  1  0
 72 69  1  0
 72 73  1  0
 73 71  2  0
 74 75  1  0
 75 76  2  0
 77 80  1  0
 77 76  1  0
 78 77  2  0
 79 78  1  0
 79 74  2  0
 80 81  1  0
 81 82  1  0
 82 83  2  0
 84 83  1  0
 84 88  1  0
 85 84  2  0
 86 81  2  0
 86 85  1  0
 87 86  1  0
 89 90  1  0
 90 93  1  0
 90 92  1  0
 91 89  2  0
 94 95  1  0
 94 69  1  0
 96 94  1  0
M  ISO  4  11 101  12 101  59 100  67 100
M  END
>  <TORSDO>  (71) 
F 26

>  <SCORE>  (71) 
-12.412

>  <name>  (71) 
71

>  <ligand_id>  (71) 
71

>  <original_smiles>  (71) 
[H]Oc1c([H])c([H])c(C([H])([H])C([H])([H])C([H])([H])C([H])([H])C([H])([H])C([H])([H])N([H])C(=O)N2C([H])([H])C([H])([H])C([H])([H])C([H])(n3nc(-c4c([H])c([H])c(Oc5c([H])c([H])c(F)c([H])c5F)c([H])c4[H])c(C(=O)N([H])[H])c3N([H])[H])C2([H])[H])c([H])c1C([H])([H])C([H])([H])C([H])([H])Oc1c([H])c([H])c2c(c1[H])C([H])([H])N(C(=O)C([H])(N([H])C(=O)C([H])(N([H])C([H])([H])[H])C([H])([H])[H])C(C([H])([H])[H])(C([H])([H])[H])C([H])([H])[H])C([H])(C(=O)N([H])C1([H])c3c([H])c([H])c([H])c([H])c3C([H])([H])C([H])([H])C1([H])[H])C2([H])[H]

>  <smiles>  (71) 
[H]Oc1c([H])c([H])c(C([H])([H])C([H])([H])C([H])([H])C([H])([H])C([H])([H])C([H])([H])N([H])C(=O)N2C([H])([H])C([H])([H])C([H])([H])C([H])(n3nc(-c4c([H])c([H])c(Oc5c([H])c([H])c(F)c([H])c5F)c([H])c4[H])c(C(=O)N([H])[H])c3N([H])[H])C2([H])[H])c([H])c1C([H])([H])C([H])([H])C([H])([H])Oc1c([H])c([H])c2c(c1[H])C([H])([H])N(C(=O)C([H])(N([H])C(=O)C([H])(N([H])C([H])([H])[H])C([H])([H])[H])C(C([H])([H])[H])(C([H])([H])[H])C([H])([H])[H])C([H])(C(=O)N([H])C1([H])c3c([H])c([H])c([H])c([H])c3C([H])([H])C([H])([H])C1([H])[H])C2([H])[H]

$$$$
72:0:0
     RDKit          3D

 98106  0  0  1  0  0  0  0  0999 V2000
  -27.6880  -20.8250   17.2560 C   0  0  0  0  0  3  0  0  0  0  0  0
  -26.7010  -21.5730   17.9270 C   0  0  0  0  0  3  0  0  0  0  0  0
  -29.2360  -22.6920   17.4920 C   0  0  0  0  0  3  0  0  0  0  0  0
  -28.9640  -21.3830   17.0270 C   0  0  0  0  0  0  0  0  0  0  0  0
  -28.2440  -23.4570   18.1520 C   0  0  0  0  0  0  0  0  0  0  0  0
  -26.9730  -22.8820   18.3630 C   0  0  0  0  0  0  0  0  0  0  0  0
  -25.9850  -23.5890   18.9560 F   0  0  0  0  0  0  0  0  0  0  0  0
  -30.0100  -20.6340   16.2000 C   0  0  0  0  0  2  0  0  0  0  0  0
  -30.5590  -19.2920   16.7660 C   0  0  0  0  0  3  0  0  0  0  0  0
  -31.7620  -18.8970   16.0010 N   0  0  0  0  0  4  0  0  0  0  0  0
  -32.5220  -19.5290   16.1770 H   0  0  0  0  0  0  0  0  0  0  0  0
  -31.5720  -18.9040   15.0140 H   0  0  0  0  0  0  0  0  0  0  0  0
  -32.0570  -17.9700   16.2500 H   0  0  0  0  0  0  0  0  0  0  0  0
  -30.8100  -19.2910   18.2990 C   0  0  0  0  0  2  0  0  0  0  0  0
  -31.5450  -18.0350   18.8340 C   0  0  0  0  0  2  0  0  0  0  0  0
  -31.2090  -17.6350   20.2880 C   0  0  0  0  0  2  0  0  0  0  0  0
  -29.8890  -16.8270   20.3980 C   0  0  0  0  0  2  0  0  0  0  0  0
  -30.6890  -14.4620   20.5800 C   0  0  0  0  0  0  0  0  0  0  0  0
  -30.3740  -12.3180   19.4300 C   0  0  0  0  0  2  0  0  0  0  0  0
  -29.4600  -12.5880   18.2140 C   0  0  0  0  0  2  0  0  0  0  0  0
  -27.9760  -12.4700   18.6150 C   0  0  0  0  0  2  0  0  0  0  0  0
  -27.6330  -13.2760   19.8960 C   0  0  0  0  0  3  0  0  0  0  0  0
  -28.6670  -13.0120   21.0170 C   0  0  0  0  0  2  0  0  0  0  0  0
  -30.0130  -13.2860   20.4790 N   0  0  0  0  0  0  0  0  0  0  0  0
  -31.8100  -14.6350   20.0930 O   0  0  0  0  0  0  0  0  0  0  0  0
  -29.9670  -15.4990   21.0370 N   0  0  0  0  0  0  0  0  0  0  0  0
  -29.1410  -15.2350   21.5540 H   0  0  0  0  0  0  0  0  0  0  0  0
  -25.2170  -13.8930   20.5320 C   0  0  0  0  0  0  0  0  0  0  0  0
  -24.1380  -13.1250   20.8830 C   0  0  0  0  0  0  0  0  0  0  0  0
  -24.5980  -11.7740   20.8770 C   0  0  0  0  0  0  0  0  0  0  0  0
  -26.2670  -13.0090   20.3410 N   0  0  0  0  0  0  0  0  0  0  0  0
  -25.8950  -11.7300   20.6010 N   0  0  0  0  0  0  0  0  0  0  0  0
  -23.8640  -10.5130   21.0590 C   0  0  0  0  0  0  0  0  0  0  0  0
  -24.2810   -9.5480   22.0030 C   0  0  0  0  0  3  0  0  0  0  0  0
  -23.5480   -8.3530   22.1750 C   0  0  0  0  0  3  0  0  0  0  0  0
  -22.3880   -8.1130   21.4020 C   0  0  0  0  0  0  0  0  0  0  0  0
  -21.9890   -9.0680   20.4490 C   0  0  0  0  0  3  0  0  0  0  0  0
  -22.7220  -10.2550   20.2760 C   0  0  0  0  0  3  0  0  0  0  0  0
  -21.6310   -6.9700   21.4840 O   0  0  0  0  0  0  0  0  0  0  0  0
  -21.5730   -6.2250   22.6330 C   0  0  0  0  0  0  0  0  0  0  0  0
  -21.1470   -6.7770   23.8600 C   0  0  0  0  0  3  0  0  0  0  0  0
  -21.0380   -5.9590   25.0010 C   0  0  0  0  0  3  0  0  0  0  0  0
  -21.3400   -4.5870   24.9170 C   0  0  0  0  0  0  0  0  0  0  0  0
  -21.7590   -4.0330   23.6940 C   0  0  0  0  0  3  0  0  0  0  0  0
  -21.8700   -4.8480   22.5540 C   0  0  0  0  0  0  0  0  0  0  0  0
  -22.2540   -4.3050   21.3750 F   0  0  0  0  0  0  0  0  0  0  0  0
  -21.2270   -3.7970   26.0110 F   0  0  0  0  0  0  0  0  0  0  0  0
  -22.7340  -13.6080   21.1180 C   0  0  0  0  0  0  0  0  0  0  0  0
  -21.9850  -12.9200   21.9710 N   0  0  0  0  0  0  0  0  0  0  0  0
  -22.3080  -14.6280   20.5770 O   0  0  0  0  0  0  0  0  0  0  0  0
  -22.3410  -12.0950   22.4320 H   0  0  0  0  0  0  0  0  0  0  0  0
  -21.0440  -13.2240   22.1720 H   0  0  0  0  0  0  0  0  0  0  0  0
  -25.3890  -15.2600   20.3430 N   0  0  0  0  0  0  0  0  0  0  0  0
  -24.6230  -15.9210   20.4170 H   0  0  0  0  0  0  0  0  0  0  0  0
  -26.2490  -15.6870   20.0250 H   0  0  0  0  0  0  0  0  0  0  0  0
  -28.5080  -24.9150   18.5350 C   0  0  0  0  0  2  0  0  0  0  0  0
  -28.2950  -25.2550   20.0310 C   0  0  0  0  0  2  0  0  0  0  0  0
  -28.3530  -26.6680   20.2720 O   0  0  0  0  0  0  0  0  0  0  0  0
  -24.5210  -31.8440   23.2950 C   0  0  0  0  0  0  0  0  0  0  0  0
  -27.1710  -27.3870   20.2410 C   0  0  0  0  0  0  0  0  0  0  0  0
  -23.3190  -30.4350   21.6560 C   0  0  0  0  0  3  0  0  0  0  0  0
  -24.7760  -28.8970   20.2400 C   0  0  0  0  0  0  0  0  0  0  0  0
  -25.8460  -30.7940   21.4660 C   0  0  0  0  0  2  0  0  0  0  0  0
  -25.9320  -29.4210   20.8320 C   0  0  0  0  0  0  0  0  0  0  0  0
  -27.1330  -28.6720   20.8310 C   0  0  0  0  0  3  0  0  0  0  0  0
  -25.9950  -26.8880   19.6320 C   0  0  0  0  0  3  0  0  0  0  0  0
  -24.8010  -27.6270   19.6380 C   0  0  0  0  0  3  0  0  0  0  0  0
  -23.5330  -29.7510   20.2780 C   0  0  0  0  0  2  0  0  0  0  0  0
  -24.5810  -31.0350   22.2010 N   0  0  0  0  0  0  0  0  0  0  0  0
  -23.4350  -32.1230   23.8280 O   0  0  0  0  0  0  0  0  0  0  0  0
  -22.6610  -29.4190   22.6150 C   0  0  0  0  0  0  0  0  0  0  0  0
  -21.3350  -29.2410   22.4820 N   0  0  0  0  0  0  0  0  0  0  0  0
  -23.3360  -28.7980   23.4390 O   0  0  0  0  0  0  0  0  0  0  0  0
  -20.8480  -29.7970   21.7920 H   0  0  0  0  0  0  0  0  0  0  0  0
  -17.9470  -28.0780   22.9530 C   0  0  0  0  0  0  0  0  0  0  0  0
  -20.5040  -28.3100   23.2470 C   0  0  0  0  0  3  0  0  0  0  0  0
  -20.5980  -26.8760   22.6730 C   0  0  0  0  0  2  0  0  0  0  0  0
  -19.5010  -26.5650   21.6500 C   0  0  0  0  0  2  0  0  0  0  0  0
  -18.1160  -26.7250   22.2820 C   0  0  0  0  0  2  0  0  0  0  0  0
  -19.0680  -28.8300   23.3890 C   0  0  0  0  0  0  0  0  0  0  0  0
  -18.8520  -30.1030   23.9640 C   0  0  0  0  0  3  0  0  0  0  0  0
  -17.5500  -30.6160   24.1090 C   0  0  0  0  0  3  0  0  0  0  0  0
  -16.4440  -29.8550   23.6940 C   0  0  0  0  0  3  0  0  0  0  0  0
  -16.6430  -28.5890   23.1180 C   0  0  0  0  0  3  0  0  0  0  0  0
  -25.8060  -32.4730   23.9160 C   0  0  0  0  0  3  0  0  0  0  0  0
  -26.2980  -31.7170   25.2080 C   0  0  1  0  0  0  0  0  0  0  0  0
  -25.1900  -31.5060   26.2670 C   0  0  0  0  0  1  0  0  0  0  0  0
  -26.8660  -30.3290   24.8360 C   0  0  0  0  0  1  0  0  0  0  0  0
  -27.4480  -32.5090   25.8720 C   0  0  0  0  0  1  0  0  0  0  0  0
  -25.5090  -33.8760   24.2160 N   0  0  0  0  0  0  0  0  0  0  0  0
  -25.8690  -34.9100   23.4450 C   0  0  0  0  0  0  0  0  0  0  0  0
  -26.5560  -34.7840   22.4290 O   0  0  0  0  0  0  0  0  0  0  0  0
  -24.9020  -34.0520   25.0030 H   0  0  0  0  0  0  0  0  0  0  0  0
  -24.1680  -36.7140   23.0210 C   0  0  0  0  0  1  0  0  0  0  0  0
  -25.3870  -36.3120   23.8660 C   0  0  0  0  0  3  0  0  0  0  0  0
  -27.5150  -37.1820   24.7310 C   0  0  0  0  0  1  0  0  0  0  0  0
  -26.4360  -37.3490   23.7600 N   0  0  0  0  0  0  0  0  0  0  0  0
  -26.0360  -38.2750   23.8890 H   0  0  0  0  0  0  0  0  0  0  0  0
  1  2  1  0
  2  6  2  0
  3  5  2  0
  4  1  2  0
  4  3  1  0
  5  6  1  0
  5 56  1  0
  6  7  1  0
  8  4  1  0
  9  8  1  0
  9 14  1  0
 10 11  1  0
 10 13  1  0
 10  9  1  0
 12 10  1  0
 14 15  1  0
 15 16  1  0
 16 17  1  0
 17 26  1  0
 18 26  1  0
 19 24  1  0
 20 21  1  0
 20 19  1  0
 22 21  1  0
 22 31  1  0
 22 23  1  0
 24 18  1  0
 24 23  1  0
 25 18  2  0
 26 27  1  0
 28 29  2  0
 29 48  1  0
 30 29  1  0
 30 33  1  0
 31 28  1  0
 31 32  1  0
 32 30  2  0
 33 34  1  0
 34 35  2  0
 36 39  1  0
 36 35  1  0
 37 36  2  0
 38 37  1  0
 38 33  2  0
 39 40  1  0
 40 41  1  0
 41 42  2  0
 43 42  1  0
 43 47  1  0
 44 43  2  0
 45 40  2  0
 45 44  1  0
 46 45  1  0
 48 49  1  0
 49 52  1  0
 49 51  1  0
 50 48  2  0
 53 54  1  0
 53 28  1  0
 55 53  1  0
 56 57  1  0
 57 58  1  0
 59 70  2  0
 60 58  1  0
 60 65  1  0
 61 69  1  0
 61 71  1  0
 62 68  1  0
 62 64  1  0
 63 69  1  0
 64 63  1  0
 65 64  2  0
 66 67  1  0
 66 60  2  0
 67 62  2  0
 68 61  1  0
 69 59  1  0
 71 73  2  0
 72 71  1  0
 74 72  1  0
 75 84  2  0
 75 80  1  0
 76 72  1  0
 76 80  1  0
 77 76  1  0
 78 79  1  0
 78 77  1  0
 79 75  1  0
 80 81  2  0
 81 82  1  0
 83 82  2  0
 84 83  1  0
 85 59  1  0
 85 90  1  0
 85 86  1  0
 86 89  1  1
 86 87  1  0
 88 86  1  0
 90 93  1  0
 91 95  1  0
 91 90  1  0
 92 91  2  0
 95 94  1  0
 97 95  1  0
 97 98  1  0
 97 96  1  0
M  ISO  4  18 100  26 100  57 101  58 101
M  END
>  <TORSDO>  (72) 
F 25

>  <SCORE>  (72) 
-12.252

>  <name>  (72) 
72

>  <ligand_id>  (72) 
72

>  <original_smiles>  (72) 
[H]c1c([H])c([H])c2c(c1[H])C([H])([H])C([H])([H])C([H])([H])C2([H])N([H])C(=O)C1([H])N(C(=O)C([H])(N([H])C(=O)C([H])(N([H])C([H])([H])[H])C([H])([H])[H])C(C([H])([H])[H])(C([H])([H])[H])C([H])([H])[H])C([H])([H])c2c([H])c(OC([H])([H])C([H])([H])c3c([H])c(C([H])([H])C([H])(C([H])([H])C([H])([H])C([H])([H])C([H])([H])N([H])C(=O)N4C([H])([H])C([H])([H])C([H])([H])C([H])(n5nc(-c6c([H])c([H])c(Oc7c([H])c([H])c(F)c([H])c7F)c([H])c6[H])c(C(=O)N([H])[H])c5N([H])[H])C4([H])[H])[N+]([H])([H])[H])c([H])c([H])c3F)c([H])c([H])c2C1([H])[H]

>  <smiles>  (72) 
[H]c1c([H])c([H])c2c(c1[H])C([H])([H])C([H])([H])C([H])([H])C2([H])N([H])C(=O)C1([H])N(C(=O)C([H])(N([H])C(=O)C([H])(N([H])C([H])([H])[H])C([H])([H])[H])C(C([H])([H])[H])(C([H])([H])[H])C([H])([H])[H])C([H])([H])c2c([H])c(OC([H])([H])C([H])([H])c3c([H])c(C([H])([H])C([H])(C([H])([H])C([H])([H])C([H])([H])C([H])([H])N([H])C(=O)N4C([H])([H])C([H])([H])C([H])([H])C([H])(n5nc(-c6c([H])c([H])c(Oc7c([H])c([H])c(F)c([H])c7F)c([H])c6[H])c(C(=O)N([H])[H])c5N([H])[H])C4([H])[H])[N+]([H])([H])[H])c([H])c([H])c3F)c([H])c([H])c2C1([H])[H]

$$$$
73:0:0
     RDKit          3D

 92101  0  0  1  0  0  0  0  0999 V2000
  -28.1100  -19.3420   19.3830 C   0  0  0  0  0  3  0  0  0  0  0  0
  -27.4700  -20.5450   19.0030 C   0  0  0  0  0  3  0  0  0  0  0  0
  -29.6630  -20.5950   20.7960 C   0  0  0  0  0  3  0  0  0  0  0  0
  -29.2170  -19.3420   20.2770 C   0  0  0  0  0  0  0  0  0  0  0  0
  -27.9430  -21.7610   19.5240 C   0  0  0  0  0  0  0  0  0  0  0  0
  -29.0210  -21.7940   20.3940 C   0  0  0  0  0  0  0  0  0  0  0  0
  -27.3860  -23.1410   19.2650 C   0  0  0  0  0  2  0  0  0  0  0  0
  -29.3390  -23.2260   20.7980 C   0  0  0  0  0  2  0  0  0  0  0  0
  -28.1800  -24.1030   20.2000 C   0  0  0  0  0  3  0  0  0  0  0  0
  -29.8500  -18.0470   20.7370 C   0  0  0  0  0  0  0  0  0  0  0  0
  -30.2880  -17.9050   21.8830 O   0  0  0  0  0  0  0  0  0  0  0  0
  -30.0310  -16.8850   19.7270 C   0  0  0  0  0  2  0  0  0  0  0  0
  -30.7080  -14.4750   20.0200 C   0  0  0  0  0  0  0  0  0  0  0  0
  -30.3630  -12.3020   18.9230 C   0  0  0  0  0  2  0  0  0  0  0  0
  -29.3600  -12.5540   17.7740 C   0  0  0  0  0  2  0  0  0  0  0  0
  -27.9060  -12.4310   18.2770 C   0  0  0  0  0  2  0  0  0  0  0  0
  -27.6530  -13.2390   19.5770 C   0  0  0  0  0  3  0  0  0  0  0  0
  -28.7680  -12.9820   20.6200 C   0  0  0  0  0  2  0  0  0  0  0  0
  -30.0610  -13.2770   19.9820 N   0  0  0  0  0  0  0  0  0  0  0  0
  -31.8370  -14.6410   19.5460 O   0  0  0  0  0  0  0  0  0  0  0  0
  -29.9270  -15.5310   20.3310 N   0  0  0  0  0  0  0  0  0  0  0  0
  -29.0520  -15.3190   20.7860 H   0  0  0  0  0  0  0  0  0  0  0  0
  -25.3190  -13.8790   20.4370 C   0  0  0  0  0  0  0  0  0  0  0  0
  -24.2600  -13.1190   20.8560 C   0  0  0  0  0  0  0  0  0  0  0  0
  -24.6900  -11.7580   20.7710 C   0  0  0  0  0  0  0  0  0  0  0  0
  -26.3270  -12.9800   20.1260 N   0  0  0  0  0  0  0  0  0  0  0  0
  -25.9580  -11.7000   20.3870 N   0  0  0  0  0  0  0  0  0  0  0  0
  -23.9530  -10.5060   20.9780 C   0  0  0  0  0  0  0  0  0  0  0  0
  -24.4060   -9.5240   21.8870 C   0  0  0  0  0  3  0  0  0  0  0  0
  -23.6690   -8.3350   22.0810 C   0  0  0  0  0  3  0  0  0  0  0  0
  -22.4680   -8.1220   21.3660 C   0  0  0  0  0  0  0  0  0  0  0  0
  -22.0330   -9.0900   20.4440 C   0  0  0  0  0  3  0  0  0  0  0  0
  -22.7700  -10.2710   20.2490 C   0  0  0  0  0  3  0  0  0  0  0  0
  -21.6990   -6.9870   21.4710 O   0  0  0  0  0  0  0  0  0  0  0  0
  -21.6620   -6.2490   22.6260 C   0  0  0  0  0  0  0  0  0  0  0  0
  -21.2410   -6.8060   23.8520 C   0  0  0  0  0  3  0  0  0  0  0  0
  -21.1530   -5.9950   25.0010 C   0  0  0  0  0  3  0  0  0  0  0  0
  -21.4740   -4.6260   24.9230 C   0  0  0  0  0  0  0  0  0  0  0  0
  -21.8880   -4.0680   23.7000 C   0  0  0  0  0  3  0  0  0  0  0  0
  -21.9790   -4.8770   22.5550 C   0  0  0  0  0  0  0  0  0  0  0  0
  -22.3590   -4.3300   21.3740 F   0  0  0  0  0  0  0  0  0  0  0  0
  -21.3820   -3.8430   26.0230 F   0  0  0  0  0  0  0  0  0  0  0  0
  -22.8910  -13.6140   21.2230 C   0  0  0  0  0  0  0  0  0  0  0  0
  -22.2030  -12.9080   22.1140 N   0  0  0  0  0  0  0  0  0  0  0  0
  -22.4430  -14.6610   20.7580 O   0  0  0  0  0  0  0  0  0  0  0  0
  -22.5790  -12.0600   22.5110 H   0  0  0  0  0  0  0  0  0  0  0  0
  -21.2890  -13.2230   22.4090 H   0  0  0  0  0  0  0  0  0  0  0  0
  -25.5020  -15.2480   20.2720 N   0  0  0  0  0  0  0  0  0  0  0  0
  -24.7470  -15.9130   20.4090 H   0  0  0  0  0  0  0  0  0  0  0  0
  -26.3100  -15.6570   19.8230 H   0  0  0  0  0  0  0  0  0  0  0  0
  -28.6100  -25.4360   19.4980 C   0  0  0  0  0  2  0  0  0  0  0  0
  -28.4300  -26.6620   20.2420 O   0  0  0  0  0  0  0  0  0  0  0  0
  -24.5400  -31.8560   23.1940 C   0  0  0  0  0  0  0  0  0  0  0  0
  -27.2440  -27.3800   20.1760 C   0  0  0  0  0  0  0  0  0  0  0  0
  -23.3620  -30.4450   21.5380 C   0  0  0  0  0  3  0  0  0  0  0  0
  -24.8400  -28.8990   20.1440 C   0  0  0  0  0  0  0  0  0  0  0  0
  -25.8910  -30.8000   21.3810 C   0  0  0  0  0  2  0  0  0  0  0  0
  -25.9870  -29.4210   20.7530 C   0  0  0  0  0  0  0  0  0  0  0  0
  -27.1840  -28.6660   20.7720 C   0  0  0  0  0  3  0  0  0  0  0  0
  -26.0740  -26.8800   19.5570 C   0  0  0  0  0  3  0  0  0  0  0  0
  -24.8790  -27.6260   19.5460 C   0  0  0  0  0  3  0  0  0  0  0  0
  -23.5960  -29.7590   20.1660 C   0  0  0  0  0  2  0  0  0  0  0  0
  -24.6150  -31.0500   22.0960 N   0  0  0  0  0  0  0  0  0  0  0  0
  -23.4500  -32.1300   23.7160 O   0  0  0  0  0  0  0  0  0  0  0  0
  -22.6940  -29.4310   22.4950 C   0  0  0  0  0  0  0  0  0  0  0  0
  -21.3700  -29.2530   22.3550 N   0  0  0  0  0  0  0  0  0  0  0  0
  -23.3670  -28.8060   23.3200 O   0  0  0  0  0  0  0  0  0  0  0  0
  -20.8890  -29.8040   21.6570 H   0  0  0  0  0  0  0  0  0  0  0  0
  -17.9880  -28.0810   22.8340 C   0  0  0  0  0  0  0  0  0  0  0  0
  -20.5450  -28.3190   23.1200 C   0  0  0  0  0  3  0  0  0  0  0  0
  -20.6390  -26.8910   22.5370 C   0  0  0  0  0  2  0  0  0  0  0  0
  -19.5410  -26.5820   21.5150 C   0  0  0  0  0  2  0  0  0  0  0  0
  -18.1600  -26.7290   22.1590 C   0  0  0  0  0  2  0  0  0  0  0  0
  -19.1090  -28.8330   23.2720 C   0  0  0  0  0  0  0  0  0  0  0  0
  -18.8980  -30.0990   23.8640 C   0  0  0  0  0  3  0  0  0  0  0  0
  -17.5970  -30.6090   24.0280 C   0  0  0  0  0  3  0  0  0  0  0  0
  -16.4900  -29.8540   23.6010 C   0  0  0  0  0  3  0  0  0  0  0  0
  -16.6860  -28.5930   23.0090 C   0  0  0  0  0  3  0  0  0  0  0  0
  -25.8150  -32.4920   23.8310 C   0  0  0  0  0  3  0  0  0  0  0  0
  -26.3250  -31.7170   25.1080 C   0  0  1  0  0  0  0  0  0  0  0  0
  -25.2240  -31.4650   26.1650 C   0  0  0  0  0  1  0  0  0  0  0  0
  -26.9210  -30.3460   24.7130 C   0  0  0  0  0  1  0  0  0  0  0  0
  -27.4640  -32.5160   25.7850 C   0  0  0  0  0  1  0  0  0  0  0  0
  -25.4960  -33.8880   24.1610 N   0  0  0  0  0  0  0  0  0  0  0  0
  -25.8290  -34.9420   23.4040 C   0  0  0  0  0  0  0  0  0  0  0  0
  -26.5060  -34.8430   22.3780 O   0  0  0  0  0  0  0  0  0  0  0  0
  -24.8980  -34.0400   24.9590 H   0  0  0  0  0  0  0  0  0  0  0  0
  -24.0980  -36.7290   23.0330 C   0  0  0  0  0  1  0  0  0  0  0  0
  -25.3310  -36.3280   23.8580 C   0  0  0  0  0  3  0  0  0  0  0  0
  -27.4490  -37.2250   24.7180 C   0  0  0  0  0  1  0  0  0  0  0  0
  -26.3610  -37.3850   23.7580 N   0  0  0  0  0  0  0  0  0  0  0  0
  -25.9490  -38.3040   23.8950 H   0  0  0  0  0  0  0  0  0  0  0  0
  1  4  1  0
  2  1  2  0
  2  5  1  0
  4 10  1  0
  4  3  2  0
  5  6  2  0
  6  3  1  0
  6  8  1  0
  7  5  1  0
  7  9  1  0
  9 51  1  0
  9  8  1  0
 10 11  2  0
 12 21  1  0
 12 10  1  0
 13 21  1  0
 14 19  1  0
 15 16  1  0
 15 14  1  0
 17 16  1  0
 17 26  1  0
 17 18  1  0
 19 13  1  0
 19 18  1  0
 20 13  2  0
 21 22  1  0
 23 24  2  0
 24 43  1  0
 25 24  1  0
 25 28  1  0
 26 27  1  0
 26 23  1  0
 27 25  2  0
 28 29  1  0
 29 30  2  0
 31 34  1  0
 31 30  1  0
 32 31  2  0
 33 32  1  0
 33 28  2  0
 34 35  1  0
 35 36  1  0
 36 37  2  0
 38 37  1  0
 38 42  1  0
 39 38  2  0
 40 35  2  0
 40 39  1  0
 41 40  1  0
 43 44  1  0
 44 47  1  0
 44 46  1  0
 45 43  2  0
 48 49  1  0
 48 23  1  0
 50 48  1  0
 51 52  1  0
 53 64  2  0
 54 52  1  0
 54 59  1  0
 55 63  1  0
 55 65  1  0
 56 62  1  0
 56 58  1  0
 57 63  1  0
 58 59  2  0
 58 57  1  0
 60 54  2  0
 61 60  1  0
 61 56  2  0
 62 55  1  0
 63 53  1  0
 65 67  2  0
 66 65  1  0
 68 66  1  0
 69 78  2  0
 69 74  1  0
 70 66  1  0
 70 74  1  0
 71 70  1  0
 72 73  1  0
 72 71  1  0
 73 69  1  0
 74 75  2  0
 75 76  1  0
 77 76  2  0
 78 77  1  0
 79 53  1  0
 79 84  1  0
 79 80  1  0
 80 83  1  1
 80 81  1  0
 82 80  1  0
 84 87  1  0
 85 89  1  0
 85 84  1  0
 86 85  2  0
 89 88  1  0
 91 89  1  0
 91 92  1  0
 91 90  1  0
M  ISO  4  13 100  21 100  51 101  52 101
M  END
>  <TORSDO>  (73) 
F 19

>  <SCORE>  (73) 
-14.346

>  <name>  (73) 
73

>  <ligand_id>  (73) 
73

>  <original_smiles>  (73) 
[H]c1c([H])c([H])c2c(c1[H])C([H])([H])C([H])([H])C([H])([H])C2([H])N([H])C(=O)C1([H])N(C(=O)C([H])(N([H])C(=O)C([H])(N([H])C([H])([H])[H])C([H])([H])[H])C(C([H])([H])[H])(C([H])([H])[H])C([H])([H])[H])C([H])([H])c2c([H])c(OC([H])([H])C3([H])C([H])([H])c4c([H])c([H])c(C(=O)C([H])([H])N([H])C(=O)N5C([H])([H])C([H])([H])C([H])([H])C([H])(n6nc(-c7c([H])c([H])c(Oc8c([H])c([H])c(F)c([H])c8F)c([H])c7[H])c(C(=O)N([H])[H])c6N([H])[H])C5([H])[H])c([H])c4C3([H])[H])c([H])c([H])c2C1([H])[H]

>  <smiles>  (73) 
[H]c1c([H])c([H])c2c(c1[H])C([H])([H])C([H])([H])C([H])([H])C2([H])N([H])C(=O)C1([H])N(C(=O)C([H])(N([H])C(=O)C([H])(N([H])C([H])([H])[H])C([H])([H])[H])C(C([H])([H])[H])(C([H])([H])[H])C([H])([H])[H])C([H])([H])c2c([H])c(OC([H])([H])C3([H])C([H])([H])c4c([H])c([H])c(C(=O)C([H])([H])N([H])C(=O)N5C([H])([H])C([H])([H])C([H])([H])C([H])(n6nc(-c7c([H])c([H])c(Oc8c([H])c([H])c(F)c([H])c8F)c([H])c7[H])c(C(=O)N([H])[H])c6N([H])[H])C5([H])[H])c([H])c4C3([H])[H])c([H])c([H])c2C1([H])[H]

$$$$
74:0:0
     RDKit          3D

 88 95  0  0  1  0  0  0  0  0999 V2000
  -29.1710  -21.9590   20.2980 C   0  0  0  0  0  0  0  0  0  0  0  0
  -29.5040  -22.1710   19.1300 O   0  0  0  0  0  0  0  0  0  0  0  0
  -28.7290  -20.5520   20.7520 C   0  0  0  0  0  2  0  0  0  0  0  0
  -29.7960  -19.4390   20.5550 C   0  0  0  0  0  2  0  0  0  0  0  0
  -29.2900  -17.9970   20.8440 C   0  0  0  0  0  2  0  0  0  0  0  0
  -30.4150  -16.9310   20.7720 C   0  0  0  0  0  2  0  0  0  0  0  0
  -30.6520  -14.4730   20.4530 C   0  0  0  0  0  0  0  0  0  0  0  0
  -30.3400  -12.3020   19.3340 C   0  0  0  0  0  2  0  0  0  0  0  0
  -29.4040  -12.5050   18.1240 C   0  0  0  0  0  2  0  0  0  0  0  0
  -27.9290  -12.3790   18.5510 C   0  0  0  0  0  2  0  0  0  0  0  0
  -27.5930  -13.2250   19.8100 C   0  0  0  0  0  3  0  0  0  0  0  0
  -28.6460  -13.0130   20.9210 C   0  0  0  0  0  2  0  0  0  0  0  0
  -29.9690  -13.3000   20.3490 N   0  0  0  0  0  0  0  0  0  0  0  0
  -31.7940  -14.6200   20.0100 O   0  0  0  0  0  0  0  0  0  0  0  0
  -29.9470  -15.5360   20.8860 N   0  0  0  0  0  0  0  0  0  0  0  0
  -29.0070  -15.3690   21.2160 H   0  0  0  0  0  0  0  0  0  0  0  0
  -25.1930  -13.8420   20.5020 C   0  0  0  0  0  0  0  0  0  0  0  0
  -24.1210  -13.0740   20.8730 C   0  0  0  0  0  0  0  0  0  0  0  0
  -24.5820  -11.7220   20.8590 C   0  0  0  0  0  0  0  0  0  0  0  0
  -26.2380  -12.9560   20.2850 N   0  0  0  0  0  0  0  0  0  0  0  0
  -25.8720  -11.6770   20.5570 N   0  0  0  0  0  0  0  0  0  0  0  0
  -23.8530  -10.4620   21.0590 C   0  0  0  0  0  0  0  0  0  0  0  0
  -24.2950   -9.4910   21.9850 C   0  0  0  0  0  3  0  0  0  0  0  0
  -23.5650   -8.2970   22.1720 C   0  0  0  0  0  3  0  0  0  0  0  0
  -22.3820   -8.0650   21.4320 C   0  0  0  0  0  0  0  0  0  0  0  0
  -21.9600   -9.0230   20.4940 C   0  0  0  0  0  3  0  0  0  0  0  0
  -22.6890  -10.2090   20.3050 C   0  0  0  0  0  3  0  0  0  0  0  0
  -21.6230   -6.9230   21.5280 O   0  0  0  0  0  0  0  0  0  0  0  0
  -21.6030   -6.1670   22.6730 C   0  0  0  0  0  0  0  0  0  0  0  0
  -21.2300   -6.7150   23.9210 C   0  0  0  0  0  3  0  0  0  0  0  0
  -21.1560   -5.8860   25.0580 C   0  0  0  0  0  3  0  0  0  0  0  0
  -21.4440   -4.5120   24.9500 C   0  0  0  0  0  0  0  0  0  0  0  0
  -21.8100   -3.9660   23.7070 C   0  0  0  0  0  3  0  0  0  0  0  0
  -21.8860   -4.7910   22.5710 C   0  0  0  0  0  0  0  0  0  0  0  0
  -22.2180   -4.2560   21.3720 F   0  0  0  0  0  0  0  0  0  0  0  0
  -21.3660   -3.7140   26.0390 F   0  0  0  0  0  0  0  0  0  0  0  0
  -22.7240  -13.5560   21.1350 C   0  0  0  0  0  0  0  0  0  0  0  0
  -21.9930  -12.8710   22.0070 N   0  0  0  0  0  0  0  0  0  0  0  0
  -22.2880  -14.5760   20.6030 O   0  0  0  0  0  0  0  0  0  0  0  0
  -22.3600  -12.0460   22.4610 H   0  0  0  0  0  0  0  0  0  0  0  0
  -21.0550  -13.1740   22.2260 H   0  0  0  0  0  0  0  0  0  0  0  0
  -25.3610  -15.2090   20.3110 N   0  0  0  0  0  0  0  0  0  0  0  0
  -24.5940  -15.8660   20.4080 H   0  0  0  0  0  0  0  0  0  0  0  0
  -26.2130  -15.6420   19.9750 H   0  0  0  0  0  0  0  0  0  0  0  0
  -29.1780  -23.0820   21.3520 C   0  0  0  0  0  2  0  0  0  0  0  0
  -29.4330  -24.5360   20.8500 C   0  0  0  0  0  2  0  0  0  0  0  0
  -28.2150  -25.2360   20.2050 C   0  0  0  0  0  2  0  0  0  0  0  0
  -28.3730  -26.6690   20.1740 O   0  0  0  0  0  0  0  0  0  0  0  0
  -24.5960  -31.8790   23.2350 C   0  0  0  0  0  0  0  0  0  0  0  0
  -27.2100  -27.4170   20.1440 C   0  0  0  0  0  0  0  0  0  0  0  0
  -23.3770  -30.4790   21.6020 C   0  0  0  0  0  3  0  0  0  0  0  0
  -24.8200  -28.9410   20.1660 C   0  0  0  0  0  0  0  0  0  0  0  0
  -25.9050  -30.8310   21.3890 C   0  0  0  0  0  2  0  0  0  0  0  0
  -25.9840  -29.4600   20.7440 C   0  0  0  0  0  0  0  0  0  0  0  0
  -27.1830  -28.7090   20.7250 C   0  0  0  0  0  3  0  0  0  0  0  0
  -26.0240  -26.9210   19.5510 C   0  0  0  0  0  3  0  0  0  0  0  0
  -24.8360  -27.6720   19.5640 C   0  0  0  0  0  3  0  0  0  0  0  0
  -23.5770  -29.8010   20.2210 C   0  0  0  0  0  2  0  0  0  0  0  0
  -24.6450  -31.0780   22.1330 N   0  0  0  0  0  0  0  0  0  0  0  0
  -23.5180  -32.1530   23.7810 O   0  0  0  0  0  0  0  0  0  0  0  0
  -22.7300  -29.4590   22.5650 C   0  0  0  0  0  0  0  0  0  0  0  0
  -21.4050  -29.2770   22.4430 N   0  0  0  0  0  0  0  0  0  0  0  0
  -23.4160  -28.8350   23.3790 O   0  0  0  0  0  0  0  0  0  0  0  0
  -20.9120  -29.8340   21.7600 H   0  0  0  0  0  0  0  0  0  0  0  0
  -18.0340  -28.0730   22.9430 C   0  0  0  0  0  0  0  0  0  0  0  0
  -20.5910  -28.3400   23.2170 C   0  0  0  0  0  3  0  0  0  0  0  0
  -20.6980  -26.9060   22.6490 C   0  0  0  0  0  2  0  0  0  0  0  0
  -19.5980  -26.5750   21.6340 C   0  0  0  0  0  2  0  0  0  0  0  0
  -18.2150  -26.7210   22.2750 C   0  0  0  0  0  2  0  0  0  0  0  0
  -19.1500  -28.8400   23.3710 C   0  0  0  0  0  0  0  0  0  0  0  0
  -18.9270  -30.1070   23.9540 C   0  0  0  0  0  3  0  0  0  0  0  0
  -17.6210  -30.6070   24.1140 C   0  0  0  0  0  3  0  0  0  0  0  0
  -16.5190  -29.8360   23.7020 C   0  0  0  0  0  3  0  0  0  0  0  0
  -16.7260  -28.5710   23.1230 C   0  0  0  0  0  3  0  0  0  0  0  0
  -25.8870  -32.5070   23.8490 C   0  0  0  0  0  3  0  0  0  0  0  0
  -25.5810  -33.9040   24.1840 N   0  0  0  0  0  0  0  0  0  0  0  0
  -25.9110  -34.9580   23.4240 C   0  0  0  0  0  0  0  0  0  0  0  0
  -26.5730  -34.8550   22.3880 O   0  0  0  0  0  0  0  0  0  0  0  0
  -24.9920  -34.0570   24.9890 H   0  0  0  0  0  0  0  0  0  0  0  0
  -24.1800  -36.7520   23.0850 C   0  0  0  0  0  1  0  0  0  0  0  0
  -25.4260  -36.3450   23.8870 C   0  0  0  0  0  3  0  0  0  0  0  0
  -27.5690  -37.2260   24.7010 C   0  0  0  0  0  1  0  0  0  0  0  0
  -26.4590  -37.3980   23.7680 N   0  0  0  0  0  0  0  0  0  0  0  0
  -26.0540  -38.3180   23.9220 H   0  0  0  0  0  0  0  0  0  0  0  0
  -26.4140  -31.7310   25.1160 C   0  0  1  0  0  0  0  0  0  0  0  0
  -25.3320  -31.4910   26.1950 C   0  0  0  0  0  1  0  0  0  0  0  0
  -26.9910  -30.3540   24.7120 C   0  0  0  0  0  1  0  0  0  0  0  0
  -27.5730  -32.5210   25.7710 C   0  0  0  0  0  1  0  0  0  0  0  0
  1  3  1  0
  1 45  1  0
  2  1  2  0
  4  3  1  0
  4  5  1  0
  6  5  1  0
  6 15  1  0
  7 15  1  0
  8 13  1  0
  9 10  1  0
  9  8  1  0
 11 10  1  0
 11 20  1  0
 11 12  1  0
 13  7  1  0
 13 12  1  0
 14  7  2  0
 15 16  1  0
 17 18  2  0
 18 37  1  0
 19 18  1  0
 19 22  1  0
 20 17  1  0
 20 21  1  0
 21 19  2  0
 22 23  1  0
 23 24  2  0
 25 28  1  0
 25 24  1  0
 26 25  2  0
 27 26  1  0
 27 22  2  0
 28 29  1  0
 29 30  1  0
 30 31  2  0
 32 31  1  0
 32 36  1  0
 33 32  2  0
 34 29  2  0
 34 33  1  0
 35 34  1  0
 37 38  1  0
 38 41  1  0
 38 40  1  0
 39 37  2  0
 42 43  1  0
 42 17  1  0
 44 42  1  0
 46 45  1  0
 47 46  1  0
 48 47  1  0
 49 60  2  0
 50 48  1  0
 50 55  1  0
 51 59  1  0
 51 61  1  0
 52 58  1  0
 52 54  1  0
 53 59  1  0
 54 53  1  0
 55 54  2  0
 56 57  1  0
 56 50  2  0
 57 52  2  0
 58 51  1  0
 59 49  1  0
 61 63  2  0
 62 61  1  0
 64 62  1  0
 65 74  2  0
 65 70  1  0
 66 62  1  0
 66 70  1  0
 67 66  1  0
 68 69  1  0
 68 67  1  0
 69 65  1  0
 70 71  2  0
 71 72  1  0
 73 72  2  0
 74 73  1  0
 75 49  1  0
 75 76  1  0
 75 85  1  0
 76 79  1  0
 77 81  1  0
 77 76  1  0
 78 77  2  0
 81 80  1  0
 83 81  1  0
 83 84  1  0
 83 82  1  0
 85 88  1  1
 85 86  1  0
 87 85  1  0
M  ISO  4   7 100  15 100  47 101  48 101
M  END
>  <TORSDO>  (74) 
F 23

>  <SCORE>  (74) 
-12.649

>  <name>  (74) 
74

>  <ligand_id>  (74) 
74

>  <original_smiles>  (74) 
[H]c1c([H])c([H])c2c(c1[H])C([H])([H])C([H])([H])C([H])([H])C2([H])N([H])C(=O)C1([H])N(C(=O)C([H])(N([H])C(=O)C([H])(N([H])C([H])([H])[H])C([H])([H])[H])C(C([H])([H])[H])(C([H])([H])[H])C([H])([H])[H])C([H])([H])c2c([H])c(OC([H])([H])C([H])([H])C([H])([H])C(=O)C([H])([H])C([H])([H])C([H])([H])C([H])([H])N([H])C(=O)N3C([H])([H])C([H])([H])C([H])([H])C([H])(n4nc(-c5c([H])c([H])c(Oc6c([H])c([H])c(F)c([H])c6F)c([H])c5[H])c(C(=O)N([H])[H])c4N([H])[H])C3([H])[H])c([H])c([H])c2C1([H])[H]

>  <smiles>  (74) 
[H]c1c([H])c([H])c2c(c1[H])C([H])([H])C([H])([H])C([H])([H])C2([H])N([H])C(=O)C1([H])N(C(=O)C([H])(N([H])C(=O)C([H])(N([H])C([H])([H])[H])C([H])([H])[H])C(C([H])([H])[H])(C([H])([H])[H])C([H])([H])[H])C([H])([H])c2c([H])c(OC([H])([H])C([H])([H])C([H])([H])C(=O)C([H])([H])C([H])([H])C([H])([H])C([H])([H])N([H])C(=O)N3C([H])([H])C([H])([H])C([H])([H])C([H])(n4nc(-c5c([H])c([H])c(Oc6c([H])c([H])c(F)c([H])c6F)c([H])c5[H])c(C(=O)N([H])[H])c4N([H])[H])C3([H])[H])c([H])c([H])c2C1([H])[H]

$$$$
75:0:0
     RDKit          3D

 96104  0  0  1  0  0  0  0  0999 V2000
  -29.4390  -21.2810   23.7950 C   0  0  0  0  0  3  0  0  0  0  0  0
  -29.4160  -22.5960   24.2860 C   0  0  0  0  0  3  0  0  0  0  0  0
  -29.7240  -22.1480   21.5450 C   0  0  0  0  0  3  0  0  0  0  0  0
  -29.6500  -23.4920   22.0040 C   0  0  0  0  0  0  0  0  0  0  0  0
  -29.6090  -21.0490   22.4200 C   0  0  0  0  0  0  0  0  0  0  0  0
  -29.5060  -23.7030   23.4080 C   0  0  0  0  0  0  0  0  0  0  0  0
  -29.4530  -25.0870   24.0380 C   0  0  0  0  0  1  0  0  0  0  0  0
  -29.7480  -24.6270   21.0070 C   0  0  0  0  0  0  0  0  0  0  0  0
  -29.9800  -25.8040   21.3020 O   0  0  0  0  0  0  0  0  0  0  0  0
  -29.5390  -24.3090   19.5230 C   0  0  0  0  0  2  0  0  0  0  0  0
  -28.1030  -24.5940   19.0310 C   0  0  0  0  0  2  0  0  0  0  0  0
  -28.1220  -25.4930   17.7810 C   0  0  0  0  0  2  0  0  0  0  0  0
  -26.8040  -25.8410   17.3540 O   0  0  0  0  0  0  0  0  0  0  0  0
  -25.6360  -29.9800   23.0740 C   0  0  0  0  0  0  0  0  0  0  0  0
  -26.0460  -26.7700   18.0330 C   0  0  0  0  0  0  0  0  0  0  0  0
  -23.7650  -29.7750   21.4670 C   0  0  0  0  0  3  0  0  0  0  0  0
  -24.3450  -28.6870   19.2390 C   0  0  0  0  0  0  0  0  0  0  0  0
  -26.1920  -29.5480   20.6860 C   0  0  0  0  0  2  0  0  0  0  0  0
  -25.6880  -28.5990   19.6220 C   0  0  0  0  0  0  0  0  0  0  0  0
  -26.5420  -27.6470   19.0260 C   0  0  0  0  0  3  0  0  0  0  0  0
  -24.6900  -26.8770   17.6550 C   0  0  0  0  0  3  0  0  0  0  0  0
  -23.8380  -27.8330   18.2460 C   0  0  0  0  0  3  0  0  0  0  0  0
  -23.4960  -29.7220   19.9380 C   0  0  0  0  0  2  0  0  0  0  0  0
  -25.2300  -29.7530   21.7940 N   0  0  0  0  0  0  0  0  0  0  0  0
  -24.8210  -30.2510   23.9670 O   0  0  0  0  0  0  0  0  0  0  0  0
  -22.9730  -28.6350   22.1490 C   0  0  0  0  0  0  0  0  0  0  0  0
  -21.6360  -28.7450   22.1260 N   0  0  0  0  0  0  0  0  0  0  0  0
  -23.5570  -27.6710   22.6530 O   0  0  0  0  0  0  0  0  0  0  0  0
  -21.2430  -29.5680   21.6900 H   0  0  0  0  0  0  0  0  0  0  0  0
  -18.1150  -27.9560   22.3650 C   0  0  0  0  0  0  0  0  0  0  0  0
  -20.6770  -27.7850   22.6740 C   0  0  0  0  0  3  0  0  0  0  0  0
  -20.5960  -26.5120   21.7950 C   0  0  0  0  0  2  0  0  0  0  0  0
  -19.4850  -26.5820   20.7410 C   0  0  0  0  0  2  0  0  0  0  0  0
  -18.1200  -26.7770   21.4080 C   0  0  0  0  0  2  0  0  0  0  0  0
  -19.3160  -28.4390   22.9480 C   0  0  0  0  0  0  0  0  0  0  0  0
  -19.2530  -29.5620   23.8020 C   0  0  0  0  0  3  0  0  0  0  0  0
  -18.0240  -30.1900   24.0780 C   0  0  0  0  0  3  0  0  0  0  0  0
  -16.8390  -29.6940   23.5090 C   0  0  0  0  0  3  0  0  0  0  0  0
  -16.8840  -28.5780   22.6560 C   0  0  0  0  0  3  0  0  0  0  0  0
  -27.1470  -29.9390   23.4690 C   0  0  0  0  0  3  0  0  0  0  0  0
  -27.5760  -28.5790   24.1430 C   0  0  1  0  0  0  0  0  0  0  0  0
  -26.6630  -28.1540   25.3180 C   0  0  0  0  0  1  0  0  0  0  0  0
  -27.5690  -27.4410   23.0980 C   0  0  0  0  0  1  0  0  0  0  0  0
  -29.0260  -28.6910   24.6710 C   0  0  0  0  0  1  0  0  0  0  0  0
  -27.3860  -31.0630   24.3800 N   0  0  0  0  0  0  0  0  0  0  0  0
  -28.0740  -32.1680   24.0620 C   0  0  0  0  0  0  0  0  0  0  0  0
  -28.6340  -32.3170   22.9730 O   0  0  0  0  0  0  0  0  0  0  0  0
  -26.9100  -31.0280   25.2670 H   0  0  0  0  0  0  0  0  0  0  0  0
  -27.1890  -34.4190   24.7400 C   0  0  0  0  0  1  0  0  0  0  0  0
  -28.1500  -33.2830   25.1210 C   0  0  0  0  0  3  0  0  0  0  0  0
  -30.4310  -32.8820   25.9300 C   0  0  0  0  0  1  0  0  0  0  0  0
  -29.5130  -33.8270   25.3050 N   0  0  0  0  0  0  0  0  0  0  0  0
  -29.4900  -34.6700   25.8710 H   0  0  0  0  0  0  0  0  0  0  0  0
  -29.6660  -19.6200   21.9030 C   0  0  0  0  0  2  0  0  0  0  0  0
  -31.0590  -19.1970   21.4030 C   0  0  0  0  0  2  0  0  0  0  0  0
  -31.0950  -17.7080   21.0100 C   0  0  0  0  0  2  0  0  0  0  0  0
  -32.4320  -17.2860   20.3850 C   0  0  0  0  0  2  0  0  0  0  0  0
  -32.2820  -16.0840   19.4370 C   0  0  0  0  0  2  0  0  0  0  0  0
  -32.3120  -13.6550   19.8140 C   0  0  0  0  0  0  0  0  0  0  0  0
  -31.4650  -11.6960   18.6210 C   0  0  0  0  0  2  0  0  0  0  0  0
  -30.5200  -12.2180   17.5200 C   0  0  0  0  0  2  0  0  0  0  0  0
  -29.0860  -12.3830   18.0680 C   0  0  0  0  0  2  0  0  0  0  0  0
  -29.0270  -13.1490   19.4170 C   0  0  0  0  0  3  0  0  0  0  0  0
  -30.0930  -12.6200   20.4070 C   0  0  0  0  0  2  0  0  0  0  0  0
  -31.4000  -12.6550   19.7310 N   0  0  0  0  0  0  0  0  0  0  0  0
  -33.4600  -13.5730   19.3710 O   0  0  0  0  0  0  0  0  0  0  0  0
  -31.7850  -14.8590   20.0770 N   0  0  0  0  0  0  0  0  0  0  0  0
  -30.8240  -14.8640   20.3820 H   0  0  0  0  0  0  0  0  0  0  0  0
  -26.8750  -14.1650   20.4010 C   0  0  0  0  0  0  0  0  0  0  0  0
  -25.6910  -13.5930   20.7960 C   0  0  0  0  0  0  0  0  0  0  0  0
  -25.8420  -12.1880   20.5920 C   0  0  0  0  0  0  0  0  0  0  0  0
  -27.6810  -13.1120   19.9920 N   0  0  0  0  0  0  0  0  0  0  0  0
  -27.0670  -11.9150   20.1620 N   0  0  0  0  0  0  0  0  0  0  0  0
  -24.8720  -11.0930   20.7230 C   0  0  0  0  0  0  0  0  0  0  0  0
  -25.1540   -9.9490   21.5000 C   0  0  0  0  0  3  0  0  0  0  0  0
  -24.1990   -8.9180   21.6300 C   0  0  0  0  0  3  0  0  0  0  0  0
  -22.9440   -9.0240   20.9840 C   0  0  0  0  0  0  0  0  0  0  0  0
  -22.6760  -10.1580   20.1950 C   0  0  0  0  0  3  0  0  0  0  0  0
  -23.6300  -11.1810   20.0630 C   0  0  0  0  0  3  0  0  0  0  0  0
  -21.9660   -8.0600   21.0310 O   0  0  0  0  0  0  0  0  0  0  0  0
  -21.8180   -7.2400   22.1210 C   0  0  0  0  0  0  0  0  0  0  0  0
  -21.5840   -7.7540   23.4150 C   0  0  0  0  0  3  0  0  0  0  0  0
  -21.3700   -6.8730   24.4950 C   0  0  0  0  0  3  0  0  0  0  0  0
  -21.3760   -5.4810   24.2810 C   0  0  0  0  0  0  0  0  0  0  0  0
  -21.6030   -4.9680   22.9920 C   0  0  0  0  0  3  0  0  0  0  0  0
  -21.8190   -5.8460   21.9160 C   0  0  0  0  0  0  0  0  0  0  0  0
  -22.0140   -5.3460   20.6720 F   0  0  0  0  0  0  0  0  0  0  0  0
  -21.1620   -4.6350   25.3160 F   0  0  0  0  0  0  0  0  0  0  0  0
  -24.4550  -14.3180   21.2410 C   0  0  0  0  0  0  0  0  0  0  0  0
  -23.6810  -13.7130   22.1380 N   0  0  0  0  0  0  0  0  0  0  0  0
  -24.1920  -15.4460   20.8330 O   0  0  0  0  0  0  0  0  0  0  0  0
  -23.9000  -12.7930   22.4910 H   0  0  0  0  0  0  0  0  0  0  0  0
  -22.8520  -14.1780   22.4760 H   0  0  0  0  0  0  0  0  0  0  0  0
  -27.3190  -15.4810   20.3400 N   0  0  0  0  0  0  0  0  0  0  0  0
  -26.7230  -16.2650   20.5870 H   0  0  0  0  0  0  0  0  0  0  0  0
  -28.2120  -15.7790   19.9630 H   0  0  0  0  0  0  0  0  0  0  0  0
  1  2  1  0
  3  4  2  0
  3  5  1  0
  4  6  1  0
  5  1  2  0
  6  7  1  0
  6  2  2  0
  8  9  2  0
  8  4  1  0
 10  8  1  0
 11 10  1  0
 12 11  1  0
 13 12  1  0
 13 15  1  0
 14 25  2  0
 15 20  1  0
 16 24  1  0
 16 26  1  0
 17 19  1  0
 17 23  1  0
 18 24  1  0
 19 18  1  0
 20 19  2  0
 21 15  2  0
 21 22  1  0
 22 17  2  0
 23 16  1  0
 24 14  1  0
 26 28  2  0
 27 26  1  0
 29 27  1  0
 30 39  2  0
 30 35  1  0
 31 27  1  0
 31 35  1  0
 32 31  1  0
 33 34  1  0
 33 32  1  0
 34 30  1  0
 35 36  2  0
 36 37  1  0
 38 37  2  0
 39 38  1  0
 40 14  1  0
 40 41  1  0
 40 45  1  0
 41 44  1  1
 41 42  1  0
 43 41  1  0
 45 48  1  0
 46 45  1  0
 46 50  1  0
 47 46  2  0
 50 49  1  0
 50 52  1  0
 52 53  1  0
 52 51  1  0
 54  5  1  0
 55 54  1  0
 56 55  1  0
 57 56  1  0
 58 67  1  0
 58 57  1  0
 59 67  1  0
 60 65  1  0
 61 62  1  0
 61 60  1  0
 63 62  1  0
 63 72  1  0
 63 64  1  0
 65 59  1  0
 65 64  1  0
 66 59  2  0
 67 68  1  0
 69 70  2  0
 70 89  1  0
 71 74  1  0
 71 70  1  0
 72 73  1  0
 72 69  1  0
 73 71  2  0
 74 75  1  0
 75 76  2  0
 77 80  1  0
 77 76  1  0
 78 77  2  0
 79 78  1  0
 79 74  2  0
 80 81  1  0
 81 82  1  0
 82 83  2  0
 84 83  1  0
 84 88  1  0
 85 84  2  0
 86 81  2  0
 86 85  1  0
 87 86  1  0
 89 90  1  0
 90 93  1  0
 90 92  1  0
 91 89  2  0
 94 69  1  0
 94 95  1  0
 96 94  1  0
M  ISO  4  12 101  13 101  59 100  67 100
M  END
>  <TORSDO>  (75) 
F 25

>  <SCORE>  (75) 
-7.316

>  <name>  (75) 
75

>  <ligand_id>  (75) 
75

>  <original_smiles>  (75) 
[H]c1c([H])c([H])c2c(c1[H])C([H])([H])C([H])([H])C([H])([H])C2([H])N([H])C(=O)C1([H])N(C(=O)C([H])(N([H])C(=O)C([H])(N([H])C([H])([H])[H])C([H])([H])[H])C(C([H])([H])[H])(C([H])([H])[H])C([H])([H])[H])C([H])([H])c2c([H])c(OC([H])([H])C([H])([H])C([H])([H])C(=O)c3c([H])c(C([H])([H])C([H])([H])C([H])([H])C([H])([H])C([H])([H])N([H])C(=O)N4C([H])([H])C([H])([H])C([H])([H])C([H])(n5nc(-c6c([H])c([H])c(Oc7c([H])c([H])c(F)c([H])c7F)c([H])c6[H])c(C(=O)N([H])[H])c5N([H])[H])C4([H])[H])c([H])c([H])c3C([H])([H])[H])c([H])c([H])c2C1([H])[H]

>  <smiles>  (75) 
[H]c1c([H])c([H])c2c(c1[H])C([H])([H])C([H])([H])C([H])([H])C2([H])N([H])C(=O)C1([H])N(C(=O)C([H])(N([H])C(=O)C([H])(N([H])C([H])([H])[H])C([H])([H])[H])C(C([H])([H])[H])(C([H])([H])[H])C([H])([H])[H])C([H])([H])c2c([H])c(OC([H])([H])C([H])([H])C([H])([H])C(=O)c3c([H])c(C([H])([H])C([H])([H])C([H])([H])C([H])([H])C([H])([H])N([H])C(=O)N4C([H])([H])C([H])([H])C([H])([H])C([H])(n5nc(-c6c([H])c([H])c(Oc7c([H])c([H])c(F)c([H])c7F)c([H])c6[H])c(C(=O)N([H])[H])c5N([H])[H])C4([H])[H])c([H])c([H])c3C([H])([H])[H])c([H])c([H])c2C1([H])[H]

$$$$
76:0:0
     RDKit          3D

 93101  0  0  1  0  0  0  0  0999 V2000
  -28.8720  -20.1120   20.3540 C   0  0  0  0  0  3  0  0  0  0  0  0
  -28.5550  -21.4750   20.3890 C   0  0  0  0  0  3  0  0  0  0  0  0
  -27.0760  -19.7330   18.7660 C   0  0  0  0  0  3  0  0  0  0  0  0
  -28.1280  -19.2220   19.5580 C   0  0  0  0  0  0  0  0  0  0  0  0
  -27.5110  -21.9950   19.5980 C   0  0  0  0  0  0  0  0  0  0  0  0
  -26.7670  -21.1110   18.7720 C   0  0  0  0  0  0  0  0  0  0  0  0
  -25.6280  -21.5980   17.8930 C   0  0  0  0  0  1  0  0  0  0  0  0
  -28.4420  -17.7330   19.5320 C   0  0  0  0  0  2  0  0  0  0  0  0
  -28.9730  -17.1460   20.8570 C   0  0  0  0  0  2  0  0  0  0  0  0
  -30.5170  -17.1970   21.0130 C   0  0  0  0  0  2  0  0  0  0  0  0
  -31.1100  -16.0990   21.9150 C   0  0  0  0  0  2  0  0  0  0  0  0
  -30.9350  -14.2060   20.3090 C   0  0  0  0  0  0  0  0  0  0  0  0
  -30.4410  -12.2300   18.9270 C   0  0  0  0  0  2  0  0  0  0  0  0
  -29.4650  -12.5360   17.7780 C   0  0  0  0  0  2  0  0  0  0  0  0
  -28.0050  -12.4230   18.2520 C   0  0  0  0  0  2  0  0  0  0  0  0
  -27.7420  -13.2250   19.5520 C   0  0  0  0  0  3  0  0  0  0  0  0
  -28.8100  -12.8960   20.6170 C   0  0  0  0  0  2  0  0  0  0  0  0
  -30.1530  -13.1340   20.0460 N   0  0  0  0  0  0  0  0  0  0  0  0
  -31.8540  -14.5910   19.5750 O   0  0  0  0  0  0  0  0  0  0  0  0
  -30.6780  -14.7750   21.4890 N   0  0  0  0  0  0  0  0  0  0  0  0
  -29.9910  -14.3120   22.0650 H   0  0  0  0  0  0  0  0  0  0  0  0
  -25.3640  -13.8940   20.3000 C   0  0  0  0  0  0  0  0  0  0  0  0
  -24.2880  -13.1480   20.6980 C   0  0  0  0  0  0  0  0  0  0  0  0
  -24.7180  -11.7870   20.6660 C   0  0  0  0  0  0  0  0  0  0  0  0
  -26.3880  -12.9900   20.0570 N   0  0  0  0  0  0  0  0  0  0  0  0
  -26.0000  -11.7170   20.3290 N   0  0  0  0  0  0  0  0  0  0  0  0
  -23.9700  -10.5420   20.8830 C   0  0  0  0  0  0  0  0  0  0  0  0
  -24.3900   -9.5840   21.8310 C   0  0  0  0  0  3  0  0  0  0  0  0
  -23.6450   -8.4030   22.0340 C   0  0  0  0  0  3  0  0  0  0  0  0
  -22.4650   -8.1710   21.2890 C   0  0  0  0  0  0  0  0  0  0  0  0
  -22.0630   -9.1180   20.3300 C   0  0  0  0  0  3  0  0  0  0  0  0
  -22.8090  -10.2910   20.1250 C   0  0  0  0  0  3  0  0  0  0  0  0
  -21.6910   -7.0410   21.3990 O   0  0  0  0  0  0  0  0  0  0  0  0
  -21.6150   -6.3330   22.5700 C   0  0  0  0  0  0  0  0  0  0  0  0
  -21.1860   -6.9300   23.7760 C   0  0  0  0  0  3  0  0  0  0  0  0
  -21.0560   -6.1480   24.9410 C   0  0  0  0  0  3  0  0  0  0  0  0
  -21.3460   -4.7710   24.9040 C   0  0  0  0  0  0  0  0  0  0  0  0
  -21.7700   -4.1740   23.7030 C   0  0  0  0  0  3  0  0  0  0  0  0
  -21.9020   -4.9530   22.5390 C   0  0  0  0  0  0  0  0  0  0  0  0
  -22.2890   -4.3680   21.3800 F   0  0  0  0  0  0  0  0  0  0  0  0
  -21.2140   -4.0180   26.0210 F   0  0  0  0  0  0  0  0  0  0  0  0
  -22.9070  -13.6570   21.0010 C   0  0  0  0  0  0  0  0  0  0  0  0
  -22.1880  -12.9850   21.8940 N   0  0  0  0  0  0  0  0  0  0  0  0
  -22.4760  -14.6860   20.4820 O   0  0  0  0  0  0  0  0  0  0  0  0
  -22.5500  -12.1530   22.3360 H   0  0  0  0  0  0  0  0  0  0  0  0
  -21.2630  -13.3090   22.1390 H   0  0  0  0  0  0  0  0  0  0  0  0
  -25.5530  -15.2590   20.1090 N   0  0  0  0  0  0  0  0  0  0  0  0
  -24.8040  -15.9320   20.2340 H   0  0  0  0  0  0  0  0  0  0  0  0
  -26.4150  -15.6770   19.7840 H   0  0  0  0  0  0  0  0  0  0  0  0
  -27.1900  -23.4810   19.7270 C   0  0  0  0  0  2  0  0  0  0  0  0
  -28.4120  -24.4240   19.5830 C   0  0  0  0  0  2  0  0  0  0  0  0
  -28.4800  -25.5130   20.6740 C   0  0  0  0  0  2  0  0  0  0  0  0
  -28.4730  -26.8270   20.1300 O   0  0  0  0  0  0  0  0  0  0  0  0
  -24.6140  -31.9080   23.2380 C   0  0  0  0  0  0  0  0  0  0  0  0
  -27.2710  -27.4900   20.1670 C   0  0  0  0  0  0  0  0  0  0  0  0
  -23.4020  -30.4850   21.6150 C   0  0  0  0  0  3  0  0  0  0  0  0
  -24.8530  -28.9400   20.1980 C   0  0  0  0  0  0  0  0  0  0  0  0
  -25.9200  -30.8650   21.3930 C   0  0  0  0  0  2  0  0  0  0  0  0
  -26.0080  -29.4930   20.7630 C   0  0  0  0  0  0  0  0  0  0  0  0
  -27.2210  -28.7750   20.7410 C   0  0  0  0  0  3  0  0  0  0  0  0
  -26.0990  -26.9350   19.6120 C   0  0  0  0  0  3  0  0  0  0  0  0
  -24.8910  -27.6590   19.6210 C   0  0  0  0  0  3  0  0  0  0  0  0
  -23.6040  -29.7900   20.2410 C   0  0  0  0  0  2  0  0  0  0  0  0
  -24.6630  -31.1010   22.1410 N   0  0  0  0  0  0  0  0  0  0  0  0
  -23.5370  -32.1780   23.7880 O   0  0  0  0  0  0  0  0  0  0  0  0
  -22.7650  -29.4680   22.5910 C   0  0  0  0  0  0  0  0  0  0  0  0
  -21.4440  -29.2710   22.4640 N   0  0  0  0  0  0  0  0  0  0  0  0
  -23.4580  -28.8590   23.4110 O   0  0  0  0  0  0  0  0  0  0  0  0
  -20.9470  -29.8160   21.7740 H   0  0  0  0  0  0  0  0  0  0  0  0
  -18.0840  -28.0450   22.9740 C   0  0  0  0  0  0  0  0  0  0  0  0
  -20.6390  -28.3330   23.2450 C   0  0  0  0  0  3  0  0  0  0  0  0
  -20.7580  -26.8960   22.6880 C   0  0  0  0  0  2  0  0  0  0  0  0
  -19.6630  -26.5470   21.6770 C   0  0  0  0  0  2  0  0  0  0  0  0
  -18.2780  -26.6860   22.3180 C   0  0  0  0  0  2  0  0  0  0  0  0
  -19.1950  -28.8240   23.3960 C   0  0  0  0  0  0  0  0  0  0  0  0
  -18.9660  -30.0920   23.9680 C   0  0  0  0  0  3  0  0  0  0  0  0
  -17.6580  -30.5850   24.1260 C   0  0  0  0  0  3  0  0  0  0  0  0
  -16.5600  -29.8040   23.7230 C   0  0  0  0  0  3  0  0  0  0  0  0
  -16.7750  -28.5360   23.1540 C   0  0  0  0  0  3  0  0  0  0  0  0
  -25.9060  -32.5470   23.8420 C   0  0  0  0  0  3  0  0  0  0  0  0
  -25.5950  -33.9450   24.1720 N   0  0  0  0  0  0  0  0  0  0  0  0
  -25.9180  -34.9950   23.4070 C   0  0  0  0  0  0  0  0  0  0  0  0
  -26.5850  -34.8920   22.3730 O   0  0  0  0  0  0  0  0  0  0  0  0
  -25.0100  -34.1000   24.9800 H   0  0  0  0  0  0  0  0  0  0  0  0
  -24.1820  -36.7770   23.0440 C   0  0  0  0  0  1  0  0  0  0  0  0
  -25.4240  -36.3820   23.8600 C   0  0  0  0  0  3  0  0  0  0  0  0
  -27.5560  -37.2740   24.6900 C   0  0  0  0  0  1  0  0  0  0  0  0
  -26.4510  -37.4410   23.7480 N   0  0  0  0  0  0  0  0  0  0  0  0
  -26.0420  -38.3570   23.8990 H   0  0  0  0  0  0  0  0  0  0  0  0
  -26.4490  -31.7800   25.1110 C   0  0  1  0  0  0  0  0  0  0  0  0
  -25.3780  -31.5280   26.1960 C   0  0  0  0  0  1  0  0  0  0  0  0
  -27.0410  -30.4080   24.7080 C   0  0  0  0  0  1  0  0  0  0  0  0
  -27.6020  -32.5840   25.7570 C   0  0  0  0  0  1  0  0  0  0  0  0
  1  2  1  0
  3  6  2  0
  3  4  1  0
  4  1  2  0
  5 50  1  0
  5  2  2  0
  6  5  1  0
  7  6  1  0
  8  4  1  0
  8  9  1  0
  9 10  1  0
 10 11  1  0
 12 20  1  0
 13 18  1  0
 14 15  1  0
 14 13  1  0
 16 15  1  0
 16 25  1  0
 16 17  1  0
 18 12  1  0
 18 17  1  0
 19 12  2  0
 20 11  1  0
 20 21  1  0
 22 23  2  0
 23 42  1  0
 24 23  1  0
 24 27  1  0
 25 22  1  0
 25 26  1  0
 26 24  2  0
 27 28  1  0
 28 29  2  0
 30 33  1  0
 30 29  1  0
 31 30  2  0
 32 31  1  0
 32 27  2  0
 33 34  1  0
 34 35  1  0
 35 36  2  0
 37 36  1  0
 37 41  1  0
 38 37  2  0
 39 34  2  0
 39 38  1  0
 40 39  1  0
 42 43  1  0
 43 46  1  0
 43 45  1  0
 44 42  2  0
 47 48  1  0
 47 22  1  0
 49 47  1  0
 51 50  1  0
 51 52  1  0
 53 55  1  0
 53 52  1  0
 54 65  2  0
 55 60  1  0
 56 64  1  0
 56 66  1  0
 57 63  1  0
 57 59  1  0
 58 64  1  0
 59 58  1  0
 60 59  2  0
 61 62  1  0
 61 55  2  0
 62 57  2  0
 63 56  1  0
 64 54  1  0
 66 68  2  0
 67 66  1  0
 69 67  1  0
 70 79  2  0
 70 75  1  0
 71 67  1  0
 71 75  1  0
 72 71  1  0
 73 74  1  0
 73 72  1  0
 74 70  1  0
 75 76  2  0
 76 77  1  0
 78 77  2  0
 79 78  1  0
 80 54  1  0
 80 81  1  0
 80 90  1  0
 81 84  1  0
 82 86  1  0
 82 81  1  0
 83 82  2  0
 86 85  1  0
 88 86  1  0
 88 89  1  0
 88 87  1  0
 90 93  1  1
 90 91  1  0
 92 90  1  0
M  ISO  4  12 100  20 100  52 101  53 101
M  END
>  <TORSDO>  (76) 
F 23

>  <SCORE>  (76) 
-13.019

>  <name>  (76) 
76

>  <ligand_id>  (76) 
76

>  <original_smiles>  (76) 
[H]c1c([H])c([H])c2c(c1[H])C([H])([H])C([H])([H])C([H])([H])C2([H])N([H])C(=O)C1([H])N(C(=O)C([H])(N([H])C(=O)C([H])(N([H])C([H])([H])[H])C([H])([H])[H])C(C([H])([H])[H])(C([H])([H])[H])C([H])([H])[H])C([H])([H])c2c([H])c(OC([H])([H])C([H])([H])C([H])([H])c3c([H])c([H])c(C([H])([H])C([H])([H])C([H])([H])C([H])([H])N([H])C(=O)N4C([H])([H])C([H])([H])C([H])([H])C([H])(n5nc(-c6c([H])c([H])c(Oc7c([H])c([H])c(F)c([H])c7F)c([H])c6[H])c(C(=O)N([H])[H])c5N([H])[H])C4([H])[H])c([H])c3C([H])([H])[H])c([H])c([H])c2C1([H])[H]

>  <smiles>  (76) 
[H]c1c([H])c([H])c2c(c1[H])C([H])([H])C([H])([H])C([H])([H])C2([H])N([H])C(=O)C1([H])N(C(=O)C([H])(N([H])C(=O)C([H])(N([H])C([H])([H])[H])C([H])([H])[H])C(C([H])([H])[H])(C([H])([H])[H])C([H])([H])[H])C([H])([H])c2c([H])c(OC([H])([H])C([H])([H])C([H])([H])c3c([H])c([H])c(C([H])([H])C([H])([H])C([H])([H])C([H])([H])N([H])C(=O)N4C([H])([H])C([H])([H])C([H])([H])C([H])(n5nc(-c6c([H])c([H])c(Oc7c([H])c([H])c(F)c([H])c7F)c([H])c6[H])c(C(=O)N([H])[H])c5N([H])[H])C4([H])[H])c([H])c3C([H])([H])[H])c([H])c([H])c2C1([H])[H]

$$$$
77:0:0
     RDKit          3D

 93100  0  0  1  0  0  0  0  0999 V2000
  -29.4510  -22.3670   20.7610 C   0  0  0  0  0  3  0  0  0  0  0  0
  -29.4800  -21.8740   23.3010 C   0  0  0  0  0  1  0  0  0  0  0  0
  -29.5760  -22.9340   22.1960 C   0  0  0  0  0  2  0  0  0  0  0  0
  -29.4650  -23.5180   19.7230 C   0  0  0  0  0  2  0  0  0  0  0  0
  -28.1610  -24.3380   19.6120 C   0  0  0  0  0  2  0  0  0  0  0  0
  -28.3690  -25.7280   18.9730 C   0  0  0  0  0  2  0  0  0  0  0  0
  -28.2150  -26.7770   19.9310 O   0  0  0  0  0  0  0  0  0  0  0  0
  -24.5170  -31.8840   23.2200 C   0  0  0  0  0  0  0  0  0  0  0  0
  -27.0120  -27.4500   20.0000 C   0  0  0  0  0  0  0  0  0  0  0  0
  -23.2340  -30.5050   21.6140 C   0  0  0  0  0  3  0  0  0  0  0  0
  -24.6180  -28.9560   20.1380 C   0  0  0  0  0  0  0  0  0  0  0  0
  -25.7540  -30.8340   21.3320 C   0  0  0  0  0  2  0  0  0  0  0  0
  -25.8000  -29.4680   20.6840 C   0  0  0  0  0  0  0  0  0  0  0  0
  -26.9920  -28.7170   20.6250 C   0  0  0  0  0  3  0  0  0  0  0  0
  -25.8050  -26.9370   19.4690 C   0  0  0  0  0  3  0  0  0  0  0  0
  -24.6140  -27.6830   19.5390 C   0  0  0  0  0  3  0  0  0  0  0  0
  -23.3870  -29.8270   20.2260 C   0  0  0  0  0  2  0  0  0  0  0  0
  -24.5210  -31.0920   22.1100 N   0  0  0  0  0  0  0  0  0  0  0  0
  -23.4600  -32.1650   23.8000 O   0  0  0  0  0  0  0  0  0  0  0  0
  -22.6100  -29.4890   22.5950 C   0  0  0  0  0  0  0  0  0  0  0  0
  -21.2870  -29.2830   22.4800 N   0  0  0  0  0  0  0  0  0  0  0  0
  -23.3090  -28.8870   23.4150 O   0  0  0  0  0  0  0  0  0  0  0  0
  -20.7830  -29.8240   21.7900 H   0  0  0  0  0  0  0  0  0  0  0  0
  -17.9490  -27.9920   22.9650 C   0  0  0  0  0  0  0  0  0  0  0  0
  -20.4910  -28.3410   23.2660 C   0  0  0  0  0  3  0  0  0  0  0  0
  -20.6510  -26.8990   22.7340 C   0  0  0  0  0  2  0  0  0  0  0  0
  -19.5760  -26.5090   21.7160 C   0  0  0  0  0  2  0  0  0  0  0  0
  -18.1790  -26.6290   22.3330 C   0  0  0  0  0  2  0  0  0  0  0  0
  -19.0340  -28.8030   23.3880 C   0  0  0  0  0  0  0  0  0  0  0  0
  -18.7680  -30.0760   23.9350 C   0  0  0  0  0  3  0  0  0  0  0  0
  -17.4470  -30.5400   24.0670 C   0  0  0  0  0  3  0  0  0  0  0  0
  -16.3730  -29.7280   23.6620 C   0  0  0  0  0  3  0  0  0  0  0  0
  -16.6250  -28.4560   23.1160 C   0  0  0  0  0  3  0  0  0  0  0  0
  -25.8340  -32.4940   23.7930 C   0  0  0  0  0  3  0  0  0  0  0  0
  -26.3890  -31.7120   25.0490 C   0  0  1  0  0  0  0  0  0  0  0  0
  -25.3340  -31.4860   26.1560 C   0  0  0  0  0  1  0  0  0  0  0  0
  -26.9410  -30.3280   24.6320 C   0  0  0  0  0  1  0  0  0  0  0  0
  -27.5720  -32.4910   25.6710 C   0  0  0  0  0  1  0  0  0  0  0  0
  -25.5610  -33.8960   24.1320 N   0  0  0  0  0  0  0  0  0  0  0  0
  -25.8950  -34.9430   23.3670 C   0  0  0  0  0  0  0  0  0  0  0  0
  -26.5410  -34.8320   22.3220 O   0  0  0  0  0  0  0  0  0  0  0  0
  -24.9890  -34.0620   24.9470 H   0  0  0  0  0  0  0  0  0  0  0  0
  -24.1950  -36.7710   23.0540 C   0  0  0  0  0  1  0  0  0  0  0  0
  -25.4420  -36.3390   23.8400 C   0  0  0  0  0  3  0  0  0  0  0  0
  -27.6070  -37.1820   24.6360 C   0  0  0  0  0  1  0  0  0  0  0  0
  -26.4910  -37.3730   23.7120 N   0  0  0  0  0  0  0  0  0  0  0  0
  -26.1040  -38.3000   23.8680 H   0  0  0  0  0  0  0  0  0  0  0  0
  -30.5830  -21.3400   20.4490 C   0  0  0  0  0  2  0  0  0  0  0  0
  -30.8370  -19.3440   18.8820 C   0  0  0  0  0  1  0  0  0  0  0  0
  -30.1090  -19.8940   20.1270 C   0  0  0  0  0  3  0  0  0  0  0  0
  -30.2740  -19.0120   21.3140 N   0  0  0  0  0  4  0  0  0  0  0  0
  -31.2350  -19.0140   21.6160 H   0  0  0  0  0  0  0  0  0  0  0  0
  -29.7330  -19.4130   22.0630 H   0  0  0  0  0  0  0  0  0  0  0  0
  -29.8240  -17.6100   21.1710 C   0  0  0  0  0  2  0  0  0  0  0  0
  -31.0110  -16.6290   21.2020 C   0  0  0  0  0  2  0  0  0  0  0  0
  -31.0890  -14.3660   20.1550 C   0  0  0  0  0  0  0  0  0  0  0  0
  -30.7030  -12.2480   18.9580 C   0  0  0  0  0  2  0  0  0  0  0  0
  -29.7260  -12.4660   17.7870 C   0  0  0  0  0  2  0  0  0  0  0  0
  -28.2590  -12.3820   18.2490 C   0  0  0  0  0  2  0  0  0  0  0  0
  -27.9810  -13.2300   19.5190 C   0  0  0  0  0  3  0  0  0  0  0  0
  -29.0490  -12.9540   20.5990 C   0  0  0  0  0  2  0  0  0  0  0  0
  -30.3780  -13.2190   20.0130 N   0  0  0  0  0  0  0  0  0  0  0  0
  -32.1200  -14.6090   19.5210 O   0  0  0  0  0  0  0  0  0  0  0  0
  -30.5630  -15.2500   21.0120 N   0  0  0  0  0  0  0  0  0  0  0  0
  -29.7440  -14.9480   21.5190 H   0  0  0  0  0  0  0  0  0  0  0  0
  -25.6160  -13.9240   20.2670 C   0  0  0  0  0  0  0  0  0  0  0  0
  -24.5300  -13.1900   20.6620 C   0  0  0  0  0  0  0  0  0  0  0  0
  -24.9450  -11.8220   20.6260 C   0  0  0  0  0  0  0  0  0  0  0  0
  -26.6260  -13.0070   20.0200 N   0  0  0  0  0  0  0  0  0  0  0  0
  -26.2250  -11.7380   20.2880 N   0  0  0  0  0  0  0  0  0  0  0  0
  -24.1820  -10.5850   20.8370 C   0  0  0  0  0  0  0  0  0  0  0  0
  -24.5770   -9.6290   21.7980 C   0  0  0  0  0  3  0  0  0  0  0  0
  -23.8170   -8.4550   21.9930 C   0  0  0  0  0  3  0  0  0  0  0  0
  -22.6490   -8.2300   21.2270 C   0  0  0  0  0  0  0  0  0  0  0  0
  -22.2750   -9.1730   20.2540 C   0  0  0  0  0  3  0  0  0  0  0  0
  -23.0350  -10.3370   20.0570 C   0  0  0  0  0  3  0  0  0  0  0  0
  -21.8640   -7.1060   21.3320 O   0  0  0  0  0  0  0  0  0  0  0  0
  -21.7410   -6.4200   22.5140 C   0  0  0  0  0  0  0  0  0  0  0  0
  -21.2580   -7.0390   23.6880 C   0  0  0  0  0  3  0  0  0  0  0  0
  -21.0820   -6.2810   24.8620 C   0  0  0  0  0  3  0  0  0  0  0  0
  -21.3780   -4.9040   24.8650 C   0  0  0  0  0  0  0  0  0  0  0  0
  -21.8540   -4.2850   23.6960 C   0  0  0  0  0  3  0  0  0  0  0  0
  -22.0320   -5.0400   22.5230 C   0  0  0  0  0  0  0  0  0  0  0  0
  -22.4700   -4.4350   21.3930 F   0  0  0  0  0  0  0  0  0  0  0  0
  -21.2010   -4.1740   25.9890 F   0  0  0  0  0  0  0  0  0  0  0  0
  -23.1560  -13.7120   20.9690 C   0  0  0  0  0  0  0  0  0  0  0  0
  -22.4280  -13.0400   21.8540 N   0  0  0  0  0  0  0  0  0  0  0  0
  -22.7400  -14.7500   20.4570 O   0  0  0  0  0  0  0  0  0  0  0  0
  -22.7780  -12.2000   22.2880 H   0  0  0  0  0  0  0  0  0  0  0  0
  -21.5050  -13.3720   22.1010 H   0  0  0  0  0  0  0  0  0  0  0  0
  -25.8270  -15.2860   20.0790 N   0  0  0  0  0  0  0  0  0  0  0  0
  -25.0950  -15.9740   20.2050 H   0  0  0  0  0  0  0  0  0  0  0  0
  -26.6810  -15.6790   19.7030 H   0  0  0  0  0  0  0  0  0  0  0  0
  1  4  1  0
  1  3  1  0
  3  2  1  0
  5  4  1  0
  6  5  1  0
  6  7  1  0
  7  9  1  0
  8 19  2  0
  9 14  1  0
 10 18  1  0
 10 20  1  0
 11 17  1  0
 11 13  1  0
 12 18  1  0
 13 12  1  0
 14 13  2  0
 15 16  1  0
 15  9  2  0
 16 11  2  0
 17 10  1  0
 18  8  1  0
 20 22  2  0
 21 20  1  0
 23 21  1  0
 24 33  2  0
 24 29  1  0
 25 21  1  0
 25 29  1  0
 26 25  1  0
 27 28  1  0
 27 26  1  0
 28 24  1  0
 29 30  2  0
 30 31  1  0
 32 31  2  0
 33 32  1  0
 34  8  1  0
 34 39  1  0
 34 35  1  0
 35 38  1  1
 35 36  1  0
 37 35  1  0
 39 42  1  0
 40 44  1  0
 40 39  1  0
 41 40  2  0
 44 43  1  0
 46 44  1  0
 46 47  1  0
 46 45  1  0
 48  1  1  0
 50 49  1  0
 50 48  1  0
 50 51  1  0
 51 52  1  0
 51 53  1  0
 54 55  1  0
 54 51  1  0
 56 64  1  0
 57 62  1  0
 58 59  1  0
 58 57  1  0
 60 59  1  0
 60 69  1  0
 60 61  1  0
 62 56  1  0
 62 61  1  0
 63 56  2  0
 64 55  1  0
 64 65  1  0
 66 67  2  0
 67 86  1  0
 68 67  1  0
 68 71  1  0
 69 66  1  0
 69 70  1  0
 70 68  2  0
 71 72  1  0
 72 73  2  0
 74 77  1  0
 74 73  1  0
 75 74  2  0
 76 75  1  0
 76 71  2  0
 77 78  1  0
 78 83  2  0
 78 79  1  0
 79 80  2  0
 80 81  1  0
 81 85  1  0
 82 81  2  0
 83 82  1  0
 84 83  1  0
 86 87  1  0
 87 90  1  0
 87 89  1  0
 88 86  2  0
 91 92  1  0
 91 66  1  0
 93 91  1  0
M  ISO  4   6 101   7 101  56 100  64 100
M  END
>  <TORSDO>  (77) 
F 25

>  <SCORE>  (77) 
-12.059

>  <name>  (77) 
77

>  <ligand_id>  (77) 
77

>  <original_smiles>  (77) 
[H]c1c([H])c([H])c2c(c1[H])C([H])([H])C([H])([H])C([H])([H])C2([H])N([H])C(=O)C1([H])N(C(=O)C([H])(N([H])C(=O)C([H])(N([H])C([H])([H])[H])C([H])([H])[H])C(C([H])([H])[H])(C([H])([H])[H])C([H])([H])[H])C([H])([H])c2c([H])c(OC([H])([H])C([H])([H])C([H])([H])C([H])(C([H])([H])C([H])([H])[H])C([H])([H])C([H])(C([H])([H])[H])[N+]([H])([H])C([H])([H])C([H])([H])N([H])C(=O)N3C([H])([H])C([H])([H])C([H])([H])C([H])(n4nc(-c5c([H])c([H])c(Oc6c([H])c([H])c(F)c([H])c6F)c([H])c5[H])c(C(=O)N([H])[H])c4N([H])[H])C3([H])[H])c([H])c([H])c2C1([H])[H]

>  <smiles>  (77) 
[H]c1c([H])c([H])c2c(c1[H])C([H])([H])C([H])([H])C([H])([H])C2([H])N([H])C(=O)C1([H])N(C(=O)C([H])(N([H])C(=O)C([H])(N([H])C([H])([H])[H])C([H])([H])[H])C(C([H])([H])[H])(C([H])([H])[H])C([H])([H])[H])C([H])([H])c2c([H])c(OC([H])([H])C([H])([H])C([H])([H])C([H])(C([H])([H])C([H])([H])[H])C([H])([H])C([H])(C([H])([H])[H])[N+]([H])([H])C([H])([H])C([H])([H])N([H])C(=O)N3C([H])([H])C([H])([H])C([H])([H])C([H])(n4nc(-c5c([H])c([H])c(Oc6c([H])c([H])c(F)c([H])c6F)c([H])c5[H])c(C(=O)N([H])[H])c4N([H])[H])C3([H])[H])c([H])c([H])c2C1([H])[H]

$$$$
78:0:0
     RDKit          3D

 98106  0  0  1  0  0  0  0  0999 V2000
  -30.9120  -21.9610   10.6230 C   0  0  0  0  0  3  0  0  0  0  0  0
  -30.2010  -22.2810    9.4540 C   0  0  0  0  0  3  0  0  0  0  0  0
  -31.3190  -20.6360   10.8510 C   0  0  0  0  0  3  0  0  0  0  0  0
  -29.9010  -21.2880    8.4970 C   0  0  0  0  0  0  0  0  0  0  0  0
  -30.9750  -19.6160    9.9370 C   0  0  0  0  0  0  0  0  0  0  0  0
  -30.2430  -19.9340    8.7660 C   0  0  0  0  0  0  0  0  0  0  0  0
  -29.2490  -21.7300    7.2350 C   0  0  0  0  0  0  0  0  0  0  0  0
  -29.8460  -21.8760    6.1640 O   0  0  0  0  0  0  0  0  0  0  0  0
  -27.7220  -21.8650    7.2840 C   0  0  0  0  0  2  0  0  0  0  0  0
  -27.0860  -21.1690    8.5060 C   0  0  0  0  0  2  0  0  0  0  0  0
  -25.7200  -21.7550    8.9130 C   0  0  0  0  0  2  0  0  0  0  0  0
  -25.7570  -23.2640    9.1600 C   0  0  0  0  0  2  0  0  0  0  0  0
  -25.8090  -23.6000   10.6560 C   0  0  0  0  0  2  0  0  0  0  0  0
  -27.2550  -23.7440   11.1530 C   0  0  0  0  0  2  0  0  0  0  0  0
  -27.9730  -25.0380   10.7020 C   0  0  0  0  0  2  0  0  0  0  0  0
  -26.9610  -26.8860   12.0680 C   0  0  0  0  0  0  0  0  0  0  0  0
  -27.8600  -28.4200   13.7780 C   0  0  0  0  0  2  0  0  0  0  0  0
  -27.9410  -29.8700   13.2580 C   0  0  0  0  0  2  0  0  0  0  0  0
  -29.2520  -30.1190   12.4850 C   0  0  0  0  0  2  0  0  0  0  0  0
  -29.5440  -29.0120   11.4390 C   0  0  0  0  0  3  0  0  0  0  0  0
  -29.3900  -27.6230   12.0880 C   0  0  0  0  0  2  0  0  0  0  0  0
  -28.0320  -27.5040   12.6400 N   0  0  0  0  0  0  0  0  0  0  0  0
  -25.8090  -27.0230   12.4830 O   0  0  0  0  0  0  0  0  0  0  0  0
  -27.1520  -26.2320   10.9140 N   0  0  0  0  0  0  0  0  0  0  0  0
  -26.2800  -26.1580   10.4120 H   0  0  0  0  0  0  0  0  0  0  0  0
  -31.2800  -28.9610    9.5310 C   0  0  0  0  0  0  0  0  0  0  0  0
  -32.5980  -29.3260    9.4860 C   0  0  0  0  0  0  0  0  0  0  0  0
  -32.9320  -29.7600   10.8060 C   0  0  0  0  0  0  0  0  0  0  0  0
  -30.8690  -29.1750   10.8400 N   0  0  0  0  0  0  0  0  0  0  0  0
  -31.8930  -29.6100   11.6160 N   0  0  0  0  0  0  0  0  0  0  0  0
  -34.1620  -30.3670   11.3300 C   0  0  0  0  0  0  0  0  0  0  0  0
  -35.1150  -29.6130   12.0520 C   0  0  0  0  0  3  0  0  0  0  0  0
  -36.2980  -30.2220   12.5230 C   0  0  0  0  0  3  0  0  0  0  0  0
  -36.5410  -31.5950   12.2740 C   0  0  0  0  0  0  0  0  0  0  0  0
  -35.5780  -32.3440   11.5790 C   0  0  0  0  0  3  0  0  0  0  0  0
  -34.3990  -31.7400   11.1150 C   0  0  0  0  0  3  0  0  0  0  0  0
  -37.6480  -32.2770   12.7190 O   0  0  0  0  0  0  0  0  0  0  0  0
  -38.9050  -31.9830   12.2550 C   0  0  0  0  0  0  0  0  0  0  0  0
  -39.2920  -32.2640   10.9260 C   0  0  0  0  0  3  0  0  0  0  0  0
  -40.6170  -32.0140   10.5130 C   0  0  0  0  0  3  0  0  0  0  0  0
  -41.5520  -31.4890   11.4240 C   0  0  0  0  0  0  0  0  0  0  0  0
  -41.1660  -31.2080   12.7470 C   0  0  0  0  0  3  0  0  0  0  0  0
  -39.8460  -31.4600   13.1620 C   0  0  0  0  0  0  0  0  0  0  0  0
  -39.4870  -31.2130   14.4440 F   0  0  0  0  0  0  0  0  0  0  0  0
  -42.8260  -31.2550   11.0290 F   0  0  0  0  0  0  0  0  0  0  0  0
  -33.4730  -29.3670    8.2670 C   0  0  0  0  0  0  0  0  0  0  0  0
  -34.6460  -28.7440    8.3330 N   0  0  0  0  0  0  0  0  0  0  0  0
  -33.1020  -29.9170    7.2320 O   0  0  0  0  0  0  0  0  0  0  0  0
  -34.9510  -28.2880    9.1810 H   0  0  0  0  0  0  0  0  0  0  0  0
  -35.2570  -28.7500    7.5280 H   0  0  0  0  0  0  0  0  0  0  0  0
  -30.3940  -28.4900    8.5670 N   0  0  0  0  0  0  0  0  0  0  0  0
  -30.6660  -28.3530    7.6000 H   0  0  0  0  0  0  0  0  0  0  0  0
  -29.4210  -28.2750    8.7440 H   0  0  0  0  0  0  0  0  0  0  0  0
  -29.8740  -18.9160    7.9240 O   0  0  0  0  0  0  0  0  0  0  0  0
  -29.0900  -19.0770    7.4100 H   0  0  0  0  0  0  0  0  0  0  0  0
  -31.3830  -18.1810   10.2470 C   0  0  0  0  0  2  0  0  0  0  0  0
  -30.1690  -17.2430   10.3400 C   0  0  0  0  0  2  0  0  0  0  0  0
  -30.4270  -16.2040   11.2750 O   0  0  0  0  0  0  0  0  0  0  0  0
  -36.4620  -13.4090   13.7030 C   0  0  0  0  0  0  0  0  0  0  0  0
  -31.4240  -15.2840   11.0260 C   0  0  0  0  0  0  0  0  0  0  0  0
  -35.7850  -12.6490   11.4450 C   0  0  0  0  0  3  0  0  0  0  0  0
  -33.4380  -13.3240   10.7140 C   0  0  0  0  0  0  0  0  0  0  0  0
  -34.0380  -13.4280   13.1420 C   0  0  0  0  0  2  0  0  0  0  0  0
  -33.2010  -13.8920   11.9700 C   0  0  0  0  0  0  0  0  0  0  0  0
  -32.1970  -14.8650   12.1280 C   0  0  0  0  0  3  0  0  0  0  0  0
  -31.6900  -14.7170    9.7550 C   0  0  0  0  0  3  0  0  0  0  0  0
  -32.6870  -13.7360    9.6000 C   0  0  0  0  0  3  0  0  0  0  0  0
  -34.5160  -12.2690   10.6350 C   0  0  0  0  0  2  0  0  0  0  0  0
  -35.4610  -13.2010   12.8010 N   0  0  0  0  0  0  0  0  0  0  0  0
  -37.6330  -13.1060   13.4380 O   0  0  0  0  0  0  0  0  0  0  0  0
  -36.6440  -13.6030   10.5860 C   0  0  0  0  0  0  0  0  0  0  0  0
  -37.6800  -13.0500    9.9350 N   0  0  0  0  0  0  0  0  0  0  0  0
  -36.3590  -14.7990   10.4920 O   0  0  0  0  0  0  0  0  0  0  0  0
  -37.8580  -12.0650   10.0730 H   0  0  0  0  0  0  0  0  0  0  0  0
  -41.0350  -13.0030    8.6020 C   0  0  0  0  0  0  0  0  0  0  0  0
  -38.5990  -13.7480    9.0350 C   0  0  0  0  0  3  0  0  0  0  0  0
  -38.3290  -13.3710    7.5610 C   0  0  0  0  0  2  0  0  0  0  0  0
  -39.1880  -12.2010    7.0700 C   0  0  0  0  0  2  0  0  0  0  0  0
  -40.6750  -12.5360    7.2000 C   0  0  0  0  0  2  0  0  0  0  0  0
  -40.0570  -13.5580    9.4690 C   0  0  0  0  0  0  0  0  0  0  0  0
  -40.4330  -13.9430   10.7730 C   0  0  0  0  0  3  0  0  0  0  0  0
  -41.7600  -13.7870   11.2150 C   0  0  0  0  0  3  0  0  0  0  0  0
  -42.7300  -13.2530   10.3480 C   0  0  0  0  0  3  0  0  0  0  0  0
  -42.3680  -12.8670    9.0450 C   0  0  0  0  0  3  0  0  0  0  0  0
  -36.1810  -14.0130   15.1150 C   0  0  0  0  0  3  0  0  0  0  0  0
  -36.6640  -15.5080   15.2630 C   0  0  1  0  0  0  0  0  0  0  0  0
  -38.1390  -15.6450   15.7040 C   0  0  0  0  0  1  0  0  0  0  0  0
  -36.4970  -16.2710   13.9270 C   0  0  0  0  0  1  0  0  0  0  0  0
  -35.7890  -16.2420   16.3080 C   0  0  0  0  0  1  0  0  0  0  0  0
  -36.8450  -13.1510   16.1030 N   0  0  0  0  0  0  0  0  0  0  0  0
  -36.2870  -12.0720   16.6660 C   0  0  0  0  0  0  0  0  0  0  0  0
  -35.1160  -11.7370   16.4610 O   0  0  0  0  0  0  0  0  0  0  0  0
  -37.8240  -13.3280   16.2740 H   0  0  0  0  0  0  0  0  0  0  0  0
  -37.6090   -9.9440   16.8960 C   0  0  0  0  0  1  0  0  0  0  0  0
  -37.1670  -11.2320   17.6090 C   0  0  0  0  0  3  0  0  0  0  0  0
  -36.4300  -12.0100   19.8170 C   0  0  0  0  0  1  0  0  0  0  0  0
  -36.5040  -10.8880   18.8860 N   0  0  0  0  0  0  0  0  0  0  0  0
  -36.9900  -10.1240   19.3480 H   0  0  0  0  0  0  0  0  0  0  0  0
  1  3  1  0
  2  1  2  0
  4  6  2  0
  4  2  1  0
  5 56  1  0
  5  3  2  0
  6  5  1  0
  7  9  1  0
  7  4  1  0
  8  7  2  0
  9 10  1  0
 10 11  1  0
 11 12  1  0
 12 13  1  0
 13 14  1  0
 15 24  1  0
 15 14  1  0
 16 23  2  0
 16 22  1  0
 18 17  1  0
 19 18  1  0
 20 29  1  0
 20 21  1  0
 20 19  1  0
 21 22  1  0
 22 17  1  0
 24 16  1  0
 25 24  1  0
 26 29  1  0
 27 26  2  0
 27 28  1  0
 28 31  1  0
 28 30  2  0
 29 30  1  0
 31 32  1  0
 32 33  2  0
 34 33  1  0
 34 37  1  0
 35 34  2  0
 36 31  2  0
 36 35  1  0
 38 37  1  0
 38 43  1  0
 39 38  2  0
 40 39  1  0
 40 41  2  0
 41 42  1  0
 42 43  2  0
 43 44  1  0
 45 41  1  0
 46 47  1  0
 46 27  1  0
 47 49  1  0
 48 46  2  0
 50 47  1  0
 51 53  1  0
 51 26  1  0
 52 51  1  0
 54  6  1  0
 55 54  1  0
 56 57  1  0
 57 58  1  0
 60 58  1  0
 60 65  1  0
 61 71  1  0
 61 69  1  0
 62 64  1  0
 64 65  2  0
 64 63  1  0
 66 60  2  0
 67 66  1  0
 67 62  2  0
 68 62  1  0
 68 61  1  0
 69 63  1  0
 69 59  1  0
 70 59  2  0
 72 74  1  0
 72 71  1  0
 73 71  2  0
 75 84  2  0
 75 80  1  0
 76 80  1  0
 76 72  1  0
 77 76  1  0
 78 79  1  0
 78 77  1  0
 79 75  1  0
 80 81  2  0
 81 82  1  0
 83 82  2  0
 84 83  1  0
 85 59  1  0
 85 86  1  0
 85 90  1  0
 86 87  1  1
 86 89  1  0
 88 86  1  0
 90 93  1  0
 90 91  1  0
 91 95  1  0
 92 91  2  0
 95 94  1  0
 95 97  1  0
 97 98  1  0
 97 96  1  0
M  ISO  4  16 100  24 100  57 101  58 101
M  END
>  <TORSDO>  (78) 
F 27

>  <SCORE>  (78) 
-2.696

>  <name>  (78) 
78

>  <ligand_id>  (78) 
78

>  <original_smiles>  (78) 
[H]Oc1c(C(=O)C([H])([H])C([H])([H])C([H])([H])C([H])([H])C([H])([H])C([H])([H])C([H])([H])N([H])C(=O)N2C([H])([H])C([H])([H])C([H])([H])C([H])(n3nc(-c4c([H])c([H])c(Oc5c([H])c([H])c(F)c([H])c5F)c([H])c4[H])c(C(=O)N([H])[H])c3N([H])[H])C2([H])[H])c([H])c([H])c([H])c1C([H])([H])C([H])([H])Oc1c([H])c([H])c2c(c1[H])C([H])([H])N(C(=O)C([H])(N([H])C(=O)C([H])(N([H])C([H])([H])[H])C([H])([H])[H])C(C([H])([H])[H])(C([H])([H])[H])C([H])([H])[H])C([H])(C(=O)N([H])C1([H])c3c([H])c([H])c([H])c([H])c3C([H])([H])C([H])([H])C1([H])[H])C2([H])[H]

>  <smiles>  (78) 
[H]Oc1c(C(=O)C([H])([H])C([H])([H])C([H])([H])C([H])([H])C([H])([H])C([H])([H])C([H])([H])N([H])C(=O)N2C([H])([H])C([H])([H])C([H])([H])C([H])(n3nc(-c4c([H])c([H])c(Oc5c([H])c([H])c(F)c([H])c5F)c([H])c4[H])c(C(=O)N([H])[H])c3N([H])[H])C2([H])[H])c([H])c([H])c([H])c1C([H])([H])C([H])([H])Oc1c([H])c([H])c2c(c1[H])C([H])([H])N(C(=O)C([H])(N([H])C(=O)C([H])(N([H])C([H])([H])[H])C([H])([H])[H])C(C([H])([H])[H])(C([H])([H])[H])C([H])([H])[H])C([H])(C(=O)N([H])C1([H])c3c([H])c([H])c([H])c([H])c3C([H])([H])C([H])([H])C1([H])[H])C2([H])[H]

$$$$
79:0:0
     RDKit          3D

 99107  0  0  1  0  0  0  0  0999 V2000
  -26.6600  -20.8030   17.9710 C   0  0  0  0  0  3  0  0  0  0  0  0
  -28.0140  -21.0220   17.6530 C   0  0  0  0  0  3  0  0  0  0  0  0
  -26.5190  -23.0710   18.8200 C   0  0  0  0  0  3  0  0  0  0  0  0
  -25.9000  -21.8270   18.5750 C   0  0  0  0  0  0  0  0  0  0  0  0
  -28.6260  -22.2700   17.8920 C   0  0  0  0  0  0  0  0  0  0  0  0
  -27.8660  -23.3200   18.4670 C   0  0  0  0  0  0  0  0  0  0  0  0
  -30.0800  -22.4540   17.4870 C   0  0  0  0  0  1  0  0  0  0  0  0
  -24.4090  -21.7000   18.8840 C   0  0  0  0  0  2  0  0  0  0  0  0
  -23.7580  -20.2950   18.8990 C   0  0  0  0  0  2  0  0  0  0  0  0
  -23.5890  -19.6440   20.2910 C   0  0  0  0  0  2  0  0  0  0  0  0
  -24.5370  -18.4780   20.6130 C   0  0  0  0  0  2  0  0  0  0  0  0
  -25.9770  -18.8970   20.9420 C   0  0  0  0  0  2  0  0  0  0  0  0
  -26.7530  -17.7910   21.5430 N   0  0  0  0  0  4  0  0  0  0  0  0
  -26.5640  -16.9360   21.0350 H   0  0  0  0  0  0  0  0  0  0  0  0
  -26.4140  -17.6580   22.4840 H   0  0  0  0  0  0  0  0  0  0  0  0
  -28.2110  -18.0560   21.5860 C   0  0  0  0  0  2  0  0  0  0  0  0
  -28.9590  -17.1480   22.5850 C   0  0  0  0  0  2  0  0  0  0  0  0
  -29.0810  -15.6760   22.1560 C   0  0  0  0  0  2  0  0  0  0  0  0
  -30.6980  -14.4250   20.6150 C   0  0  0  0  0  0  0  0  0  0  0  0
  -30.4310  -12.3020   19.3980 C   0  0  0  0  0  2  0  0  0  0  0  0
  -29.4910  -12.5290   18.1920 C   0  0  0  0  0  2  0  0  0  0  0  0
  -28.0080  -12.3920   18.6020 C   0  0  0  0  0  2  0  0  0  0  0  0
  -27.6710  -13.1890   19.8910 C   0  0  0  0  0  3  0  0  0  0  0  0
  -28.7130  -12.8620   20.9830 C   0  0  0  0  0  2  0  0  0  0  0  0
  -30.0300  -13.2460   20.4540 N   0  0  0  0  0  0  0  0  0  0  0  0
  -31.8100  -14.6270   20.1240 O   0  0  0  0  0  0  0  0  0  0  0  0
  -30.0100  -15.5040   21.0360 N   0  0  0  0  0  0  0  0  0  0  0  0
  -30.5200  -16.3460   20.8130 H   0  0  0  0  0  0  0  0  0  0  0  0
  -25.2690  -13.8170   20.5700 C   0  0  0  0  0  0  0  0  0  0  0  0
  -24.1920  -13.0470   20.9240 C   0  0  0  0  0  0  0  0  0  0  0  0
  -24.6400  -11.6920   20.8770 C   0  0  0  0  0  0  0  0  0  0  0  0
  -26.3080  -12.9270   20.3420 N   0  0  0  0  0  0  0  0  0  0  0  0
  -25.9300  -11.6460   20.5750 N   0  0  0  0  0  0  0  0  0  0  0  0
  -23.9050  -10.4320   21.0420 C   0  0  0  0  0  0  0  0  0  0  0  0
  -24.3630   -9.4230   21.9180 C   0  0  0  0  0  3  0  0  0  0  0  0
  -23.6320   -8.2250   22.0750 C   0  0  0  0  0  3  0  0  0  0  0  0
  -22.4290   -8.0290   21.3550 C   0  0  0  0  0  0  0  0  0  0  0  0
  -21.9900   -9.0280   20.4680 C   0  0  0  0  0  3  0  0  0  0  0  0
  -22.7210  -10.2170   20.3090 C   0  0  0  0  0  3  0  0  0  0  0  0
  -21.6650   -6.8890   21.4240 O   0  0  0  0  0  0  0  0  0  0  0  0
  -21.6870   -6.0750   22.5280 C   0  0  0  0  0  0  0  0  0  0  0  0
  -21.4030   -6.5640   23.8220 C   0  0  0  0  0  3  0  0  0  0  0  0
  -21.3660   -5.6780   24.9180 C   0  0  0  0  0  3  0  0  0  0  0  0
  -21.6050   -4.3050   24.7220 C   0  0  0  0  0  0  0  0  0  0  0  0
  -21.8830   -3.8150   23.4340 C   0  0  0  0  0  3  0  0  0  0  0  0
  -21.9210   -4.6980   22.3400 C   0  0  0  0  0  0  0  0  0  0  0  0
  -22.1670   -4.2170   21.0980 F   0  0  0  0  0  0  0  0  0  0  0  0
  -21.5640   -3.4520   25.7740 F   0  0  0  0  0  0  0  0  0  0  0  0
  -22.7940  -13.5280   21.1860 C   0  0  0  0  0  0  0  0  0  0  0  0
  -22.0510  -12.8280   22.0350 N   0  0  0  0  0  0  0  0  0  0  0  0
  -22.3720  -14.5620   20.6700 O   0  0  0  0  0  0  0  0  0  0  0  0
  -22.4030  -11.9890   22.4720 H   0  0  0  0  0  0  0  0  0  0  0  0
  -21.1100  -13.1310   22.2390 H   0  0  0  0  0  0  0  0  0  0  0  0
  -25.4470  -15.1890   20.3860 N   0  0  0  0  0  0  0  0  0  0  0  0
  -24.5310  -15.6170   20.2990 H   0  0  0  0  0  0  0  0  0  0  0  0
  -25.9810  -15.3380   19.5380 H   0  0  0  0  0  0  0  0  0  0  0  0
  -28.4150  -24.7430   18.6270 C   0  0  0  0  0  2  0  0  0  0  0  0
  -28.3490  -25.2990   20.0660 C   0  0  0  0  0  2  0  0  0  0  0  0
  -28.4220  -26.7310   20.1010 O   0  0  0  0  0  0  0  0  0  0  0  0
  -24.6130  -31.8700   23.2100 C   0  0  0  0  0  0  0  0  0  0  0  0
  -27.2390  -27.4460   20.0910 C   0  0  0  0  0  0  0  0  0  0  0  0
  -23.4030  -30.4940   21.5490 C   0  0  0  0  0  3  0  0  0  0  0  0
  -24.8460  -28.9630   20.1190 C   0  0  0  0  0  0  0  0  0  0  0  0
  -25.9280  -30.8430   21.3570 C   0  0  0  0  0  2  0  0  0  0  0  0
  -26.0080  -29.4770   20.7070 C   0  0  0  0  0  0  0  0  0  0  0  0
  -27.2060  -28.7270   20.6890 C   0  0  0  0  0  3  0  0  0  0  0  0
  -26.0520  -26.9480   19.5050 C   0  0  0  0  0  3  0  0  0  0  0  0
  -24.8610  -27.6950   19.5190 C   0  0  0  0  0  3  0  0  0  0  0  0
  -23.6100  -29.8300   20.1640 C   0  0  0  0  0  2  0  0  0  0  0  0
  -24.6670  -31.0810   22.0990 N   0  0  0  0  0  0  0  0  0  0  0  0
  -23.5330  -32.1430   23.7520 O   0  0  0  0  0  0  0  0  0  0  0  0
  -22.7400  -29.4680   22.4970 C   0  0  0  0  0  0  0  0  0  0  0  0
  -21.4130  -29.3050   22.3710 N   0  0  0  0  0  0  0  0  0  0  0  0
  -23.4160  -28.8220   23.3020 O   0  0  0  0  0  0  0  0  0  0  0  0
  -20.9270  -29.8790   21.6950 H   0  0  0  0  0  0  0  0  0  0  0  0
  -18.0280  -28.1400   22.8490 C   0  0  0  0  0  0  0  0  0  0  0  0
  -20.5860  -28.3690   23.1320 C   0  0  0  0  0  3  0  0  0  0  0  0
  -20.6750  -26.9410   22.5430 C   0  0  0  0  0  2  0  0  0  0  0  0
  -19.5750  -26.6400   21.5210 C   0  0  0  0  0  2  0  0  0  0  0  0
  -18.1930  -26.7950   22.1610 C   0  0  0  0  0  2  0  0  0  0  0  0
  -19.1520  -28.8860   23.2910 C   0  0  0  0  0  0  0  0  0  0  0  0
  -18.9450  -30.1450   23.8940 C   0  0  0  0  0  3  0  0  0  0  0  0
  -17.6450  -30.6590   24.0580 C   0  0  0  0  0  3  0  0  0  0  0  0
  -16.5340  -29.9100   23.6320 C   0  0  0  0  0  3  0  0  0  0  0  0
  -16.7270  -28.6520   23.0340 C   0  0  0  0  0  3  0  0  0  0  0  0
  -25.9030  -32.4830   23.8380 C   0  0  0  0  0  3  0  0  0  0  0  0
  -25.5900  -33.8630   24.2310 N   0  0  0  0  0  0  0  0  0  0  0  0
  -25.9050  -34.9480   23.5110 C   0  0  0  0  0  0  0  0  0  0  0  0
  -26.5580  -34.8920   22.4660 O   0  0  0  0  0  0  0  0  0  0  0  0
  -25.0050  -33.9790   25.0450 H   0  0  0  0  0  0  0  0  0  0  0  0
  -24.1500  -36.7330   23.2630 C   0  0  0  0  0  1  0  0  0  0  0  0
  -25.4120  -36.3120   24.0330 C   0  0  0  0  0  3  0  0  0  0  0  0
  -27.5580  -37.1830   24.8450 C   0  0  0  0  0  1  0  0  0  0  0  0
  -26.4290  -37.3800   23.9400 N   0  0  0  0  0  0  0  0  0  0  0  0
  -26.0180  -38.2880   24.1400 H   0  0  0  0  0  0  0  0  0  0  0  0
  -26.4470  -31.6600   25.0700 C   0  0  1  0  0  0  0  0  0  0  0  0
  -25.3740  -31.3710   26.1450 C   0  0  0  0  0  1  0  0  0  0  0  0
  -27.0250  -30.3040   24.6020 C   0  0  0  0  0  1  0  0  0  0  0  0
  -27.6060  -32.4300   25.7470 C   0  0  0  0  0  1  0  0  0  0  0  0
  1  4  1  0
  2  5  1  0
  2  1  2  0
  4  3  2  0
  4  8  1  0
  5  6  2  0
  6 57  1  0
  6  3  1  0
  7  5  1  0
  8  9  1  0
  9 10  1  0
 10 11  1  0
 11 12  1  0
 12 13  1  0
 13 16  1  0
 13 15  1  0
 14 13  1  0
 16 17  1  0
 18 17  1  0
 19 27  1  0
 20 25  1  0
 21 22  1  0
 21 20  1  0
 23 22  1  0
 23 32  1  0
 23 24  1  0
 25 19  1  0
 25 24  1  0
 26 19  2  0
 27 18  1  0
 28 27  1  0
 29 30  2  0
 30 49  1  0
 31 30  1  0
 31 34  1  0
 32 29  1  0
 32 33  1  0
 33 31  2  0
 34 35  1  0
 35 36  2  0
 37 40  1  0
 37 36  1  0
 38 37  2  0
 39 38  1  0
 39 34  2  0
 40 41  1  0
 41 42  1  0
 42 43  2  0
 44 43  1  0
 44 48  1  0
 45 44  2  0
 46 41  2  0
 46 45  1  0
 47 46  1  0
 49 50  1  0
 50 53  1  0
 50 52  1  0
 51 49  2  0
 54 29  1  0
 55 54  1  0
 56 54  1  0
 57 58  1  0
 58 59  1  0
 60 71  2  0
 61 59  1  0
 61 66  1  0
 62 70  1  0
 62 72  1  0
 63 69  1  0
 63 65  1  0
 64 70  1  0
 65 64  1  0
 66 65  2  0
 67 68  1  0
 67 61  2  0
 68 63  2  0
 69 62  1  0
 70 60  1  0
 72 74  2  0
 73 72  1  0
 75 73  1  0
 76 85  2  0
 76 81  1  0
 77 73  1  0
 77 81  1  0
 78 77  1  0
 79 80  1  0
 79 78  1  0
 80 76  1  0
 81 82  2  0
 82 83  1  0
 84 83  2  0
 85 84  1  0
 86 60  1  0
 86 87  1  0
 86 96  1  0
 87 90  1  0
 88 92  1  0
 88 87  1  0
 89 88  2  0
 92 91  1  0
 94 92  1  0
 94 95  1  0
 94 93  1  0
 96 99  1  1
 96 97  1  0
 98 96  1  0
M  ISO  4  19 100  27 100  58 101  59 101
M  END
>  <TORSDO>  (79) 
F 27

>  <SCORE>  (79) 
5.017

>  <name>  (79) 
79

>  <ligand_id>  (79) 
79

>  <original_smiles>  (79) 
[H]c1c([H])c([H])c2c(c1[H])C([H])([H])C([H])([H])C([H])([H])C2([H])N([H])C(=O)C1([H])N(C(=O)C([H])(N([H])C(=O)C([H])(N([H])C([H])([H])[H])C([H])([H])[H])C(C([H])([H])[H])(C([H])([H])[H])C([H])([H])[H])C([H])([H])c2c([H])c(OC([H])([H])C([H])([H])c3c([H])c(C([H])([H])C([H])([H])C([H])([H])C([H])([H])C([H])([H])[N+]([H])([H])C([H])([H])C([H])([H])C([H])([H])N([H])C(=O)N4C([H])([H])C([H])([H])C([H])([H])C([H])(n5nc(-c6c([H])c([H])c(Oc7c([H])c([H])c(F)c([H])c7F)c([H])c6[H])c(C(=O)N([H])[H])c5N([H])[H])C4([H])[H])c([H])c([H])c3C([H])([H])[H])c([H])c([H])c2C1([H])[H]

>  <smiles>  (79) 
[H]c1c([H])c([H])c2c(c1[H])C([H])([H])C([H])([H])C([H])([H])C2([H])N([H])C(=O)C1([H])N(C(=O)C([H])(N([H])C(=O)C([H])(N([H])C([H])([H])[H])C([H])([H])[H])C(C([H])([H])[H])(C([H])([H])[H])C([H])([H])[H])C([H])([H])c2c([H])c(OC([H])([H])C([H])([H])c3c([H])c(C([H])([H])C([H])([H])C([H])([H])C([H])([H])C([H])([H])[N+]([H])([H])C([H])([H])C([H])([H])C([H])([H])N([H])C(=O)N4C([H])([H])C([H])([H])C([H])([H])C([H])(n5nc(-c6c([H])c([H])c(Oc7c([H])c([H])c(F)c([H])c7F)c([H])c6[H])c(C(=O)N([H])[H])c5N([H])[H])C4([H])[H])c([H])c([H])c3C([H])([H])[H])c([H])c([H])c2C1([H])[H]

$$$$
80:0:0
     RDKit          3D

 90 97  0  0  1  0  0  0  0  0999 V2000
  -31.4210  -22.7890   21.0550 C   0  0  0  0  0  3  0  0  0  0  0  0
  -30.4890  -23.7490   20.8380 C   0  0  0  0  0  3  0  0  0  0  0  0
  -31.0760  -21.3970   21.5330 C   0  0  0  0  0  2  0  0  0  0  0  0
  -31.8900  -21.0100   22.7810 C   0  0  0  0  0  2  0  0  0  0  0  0
  -32.0100  -19.4910   22.9670 C   0  0  0  0  0  2  0  0  0  0  0  0
  -30.6940  -18.8160   23.3970 C   0  0  0  0  0  2  0  0  0  0  0  0
  -30.5770  -17.3630   22.9150 C   0  0  0  0  0  2  0  0  0  0  0  0
  -30.2800  -17.2710   21.4070 C   0  0  0  0  0  2  0  0  0  0  0  0
  -29.9270  -15.8570   20.9300 C   0  0  0  0  0  2  0  0  0  0  0  0
  -31.4120  -14.0510   20.1560 C   0  0  0  0  0  0  0  0  0  0  0  0
  -30.8810  -11.9580   18.9580 C   0  0  0  0  0  2  0  0  0  0  0  0
  -29.9210  -12.2190   17.7820 C   0  0  0  0  0  2  0  0  0  0  0  0
  -28.4530  -12.2020   18.2520 C   0  0  0  0  0  2  0  0  0  0  0  0
  -28.2230  -13.0830   19.5070 C   0  0  0  0  0  3  0  0  0  0  0  0
  -29.2790  -12.7640   20.5880 C   0  0  0  0  0  2  0  0  0  0  0  0
  -30.6130  -12.9620   19.9970 N   0  0  0  0  0  0  0  0  0  0  0  0
  -32.4770  -14.2020   19.5510 O   0  0  0  0  0  0  0  0  0  0  0  0
  -31.0510  -14.9340   21.0970 N   0  0  0  0  0  0  0  0  0  0  0  0
  -31.8560  -15.4050   21.4850 H   0  0  0  0  0  0  0  0  0  0  0  0
  -25.9150  -13.9290   20.2720 C   0  0  0  0  0  0  0  0  0  0  0  0
  -24.7880  -13.2640   20.6750 C   0  0  0  0  0  0  0  0  0  0  0  0
  -25.1160  -11.8750   20.6390 C   0  0  0  0  0  0  0  0  0  0  0  0
  -26.8630  -12.9480   20.0210 N   0  0  0  0  0  0  0  0  0  0  0  0
  -26.3870  -11.7090   20.2940 N   0  0  0  0  0  0  0  0  0  0  0  0
  -24.2810  -10.6880   20.8560 C   0  0  0  0  0  0  0  0  0  0  0  0
  -24.6510   -9.6840   21.7770 C   0  0  0  0  0  3  0  0  0  0  0  0
  -23.8220   -8.5600   21.9810 C   0  0  0  0  0  3  0  0  0  0  0  0
  -22.6100   -8.4330   21.2630 C   0  0  0  0  0  0  0  0  0  0  0  0
  -22.2570   -9.4240   20.3310 C   0  0  0  0  0  3  0  0  0  0  0  0
  -23.0850  -10.5410   20.1250 C   0  0  0  0  0  3  0  0  0  0  0  0
  -21.7540   -7.3650   21.3780 O   0  0  0  0  0  0  0  0  0  0  0  0
  -21.6690   -6.6310   22.5340 C   0  0  0  0  0  0  0  0  0  0  0  0
  -21.3570   -7.2280   23.7750 C   0  0  0  0  0  3  0  0  0  0  0  0
  -21.2110   -6.4270   24.9250 C   0  0  0  0  0  3  0  0  0  0  0  0
  -21.3670   -5.0300   24.8360 C   0  0  0  0  0  0  0  0  0  0  0  0
  -21.6730   -4.4330   23.5990 C   0  0  0  0  0  3  0  0  0  0  0  0
  -21.8200   -5.2310   22.4510 C   0  0  0  0  0  0  0  0  0  0  0  0
  -22.0930   -4.6490   21.2590 F   0  0  0  0  0  0  0  0  0  0  0  0
  -21.2200   -4.2590   25.9380 F   0  0  0  0  0  0  0  0  0  0  0  0
  -23.4510  -13.8740   20.9830 C   0  0  0  0  0  0  0  0  0  0  0  0
  -22.6920  -13.2600   21.8850 N   0  0  0  0  0  0  0  0  0  0  0  0
  -23.0910  -14.9270   20.4610 O   0  0  0  0  0  0  0  0  0  0  0  0
  -22.9940  -12.4050   22.3280 H   0  0  0  0  0  0  0  0  0  0  0  0
  -21.7940  -13.6490   22.1340 H   0  0  0  0  0  0  0  0  0  0  0  0
  -26.2050  -15.2770   20.0810 N   0  0  0  0  0  0  0  0  0  0  0  0
  -25.5110  -16.0050   20.2100 H   0  0  0  0  0  0  0  0  0  0  0  0
  -27.0850  -15.6280   19.7260 H   0  0  0  0  0  0  0  0  0  0  0  0
  -30.1370  -25.1800   20.4270 C   0  0  0  0  0  2  0  0  0  0  0  0
  -28.6270  -25.4540   20.3900 C   0  0  0  0  0  2  0  0  0  0  0  0
  -28.5400  -26.8500   20.1470 O   0  0  0  0  0  0  0  0  0  0  0  0
  -24.6600  -31.9170   23.2100 C   0  0  0  0  0  0  0  0  0  0  0  0
  -27.3170  -27.4690   20.1860 C   0  0  0  0  0  0  0  0  0  0  0  0
  -23.4460  -30.4830   21.5960 C   0  0  0  0  0  3  0  0  0  0  0  0
  -24.8980  -28.9230   20.1950 C   0  0  0  0  0  0  0  0  0  0  0  0
  -25.9630  -30.8620   21.3680 C   0  0  0  0  0  2  0  0  0  0  0  0
  -26.0510  -29.4790   20.7570 C   0  0  0  0  0  0  0  0  0  0  0  0
  -27.2620  -28.7610   20.7450 C   0  0  0  0  0  3  0  0  0  0  0  0
  -26.1460  -26.9030   19.6360 C   0  0  0  0  0  3  0  0  0  0  0  0
  -24.9360  -27.6300   19.6350 C   0  0  0  0  0  3  0  0  0  0  0  0
  -23.6480  -29.7740   20.2280 C   0  0  0  0  0  2  0  0  0  0  0  0
  -24.7080  -31.1030   22.1170 N   0  0  0  0  0  0  0  0  0  0  0  0
  -23.5820  -32.1910   23.7550 O   0  0  0  0  0  0  0  0  0  0  0  0
  -22.8080  -29.4770   22.5800 C   0  0  0  0  0  0  0  0  0  0  0  0
  -21.4860  -29.2770   22.4510 N   0  0  0  0  0  0  0  0  0  0  0  0
  -23.4970  -28.8780   23.4080 O   0  0  0  0  0  0  0  0  0  0  0  0
  -20.9930  -29.8120   21.7510 H   0  0  0  0  0  0  0  0  0  0  0  0
  -18.1310  -28.0240   22.9260 C   0  0  0  0  0  0  0  0  0  0  0  0
  -20.6770  -28.3460   23.2380 C   0  0  0  0  0  3  0  0  0  0  0  0
  -20.8210  -26.9000   22.7100 C   0  0  0  0  0  2  0  0  0  0  0  0
  -19.7460  -26.5210   21.6870 C   0  0  0  0  0  2  0  0  0  0  0  0
  -18.3500  -26.6570   22.3000 C   0  0  0  0  0  2  0  0  0  0  0  0
  -19.2250  -28.8230   23.3520 C   0  0  0  0  0  0  0  0  0  0  0  0
  -18.9690  -30.1020   23.8940 C   0  0  0  0  0  3  0  0  0  0  0  0
  -17.6510  -30.5810   24.0170 C   0  0  0  0  0  3  0  0  0  0  0  0
  -16.5710  -29.7790   23.6090 C   0  0  0  0  0  3  0  0  0  0  0  0
  -16.8120  -28.5030   23.0690 C   0  0  0  0  0  3  0  0  0  0  0  0
  -25.9480  -32.5590   23.8130 C   0  0  0  0  0  3  0  0  0  0  0  0
  -26.4970  -31.7890   25.0760 C   0  0  1  0  0  0  0  0  0  0  0  0
  -25.4260  -31.5330   26.1620 C   0  0  0  0  0  1  0  0  0  0  0  0
  -27.0890  -30.4200   24.6620 C   0  0  0  0  0  1  0  0  0  0  0  0
  -27.6500  -32.5930   25.7210 C   0  0  0  0  0  1  0  0  0  0  0  0
  -25.6310  -33.9520   24.1520 N   0  0  0  0  0  0  0  0  0  0  0  0
  -25.9620  -35.0120   23.4010 C   0  0  0  0  0  0  0  0  0  0  0  0
  -26.6390  -34.9190   22.3740 O   0  0  0  0  0  0  0  0  0  0  0  0
  -25.0330  -34.0980   24.9510 H   0  0  0  0  0  0  0  0  0  0  0  0
  -24.2200  -36.7900   23.0500 C   0  0  0  0  0  1  0  0  0  0  0  0
  -25.4620  -36.3930   23.8640 C   0  0  0  0  0  3  0  0  0  0  0  0
  -27.5910  -37.2850   24.7000 C   0  0  0  0  0  1  0  0  0  0  0  0
  -26.4870  -37.4540   23.7590 N   0  0  0  0  0  0  0  0  0  0  0  0
  -26.0760  -38.3710   23.9150 H   0  0  0  0  0  0  0  0  0  0  0  0
  1  3  1  0
  2  1  2  0
  3  4  1  0
  4  5  1  0
  5  6  1  0
  7  6  1  0
  8  7  1  0
  9 18  1  0
  9  8  1  0
 10 18  1  0
 11 16  1  0
 12 13  1  0
 12 11  1  0
 14 13  1  0
 14 23  1  0
 14 15  1  0
 16 10  1  0
 16 15  1  0
 17 10  2  0
 18 19  1  0
 20 21  2  0
 21 40  1  0
 22 21  1  0
 22 25  1  0
 23 20  1  0
 23 24  1  0
 24 22  2  0
 25 26  1  0
 26 27  2  0
 28 31  1  0
 28 27  1  0
 29 28  2  0
 30 29  1  0
 30 25  2  0
 31 32  1  0
 32 33  1  0
 33 34  2  0
 35 34  1  0
 35 39  1  0
 36 35  2  0
 37 32  2  0
 37 36  1  0
 38 37  1  0
 40 41  1  0
 41 44  1  0
 41 43  1  0
 42 40  2  0
 45 46  1  0
 45 20  1  0
 47 45  1  0
 48  2  1  0
 49 48  1  0
 50 52  1  0
 50 49  1  0
 51 62  2  0
 52 57  1  0
 53 61  1  0
 53 63  1  0
 54 60  1  0
 54 56  1  0
 55 61  1  0
 56 55  1  0
 57 56  2  0
 58 52  2  0
 59 58  1  0
 59 54  2  0
 60 53  1  0
 61 51  1  0
 63 65  2  0
 64 63  1  0
 66 64  1  0
 67 76  2  0
 67 72  1  0
 68 64  1  0
 68 72  1  0
 69 68  1  0
 70 71  1  0
 70 69  1  0
 71 67  1  0
 72 73  2  0
 73 74  1  0
 75 74  2  0
 76 75  1  0
 77 51  1  0
 77 82  1  0
 77 78  1  0
 78 81  1  1
 78 79  1  0
 80 78  1  0
 82 85  1  0
 83 87  1  0
 83 82  1  0
 84 83  2  0
 87 86  1  0
 89 87  1  0
 89 90  1  0
 89 88  1  0
M  ISO  4  10 100  18 100  49 101  50 101
M  END
>  <TORSDO>  (80) 
F 25

>  <SCORE>  (80) 
-11.286

>  <name>  (80) 
80

>  <ligand_id>  (80) 
80

>  <original_smiles>  (80) 
[H]C(=C([H])C([H])([H])C([H])([H])C([H])([H])C([H])([H])C([H])([H])C([H])([H])C([H])([H])N([H])C(=O)N1C([H])([H])C([H])([H])C([H])([H])C([H])(n2nc(-c3c([H])c([H])c(Oc4c([H])c([H])c(F)c([H])c4F)c([H])c3[H])c(C(=O)N([H])[H])c2N([H])[H])C1([H])[H])C([H])([H])C([H])([H])Oc1c([H])c([H])c2c(c1[H])C([H])([H])N(C(=O)C([H])(N([H])C(=O)C([H])(N([H])C([H])([H])[H])C([H])([H])[H])C(C([H])([H])[H])(C([H])([H])[H])C([H])([H])[H])C([H])(C(=O)N([H])C1([H])c3c([H])c([H])c([H])c([H])c3C([H])([H])C([H])([H])C1([H])[H])C2([H])[H]

>  <smiles>  (80) 
[H]C(=C([H])C([H])([H])C([H])([H])C([H])([H])C([H])([H])C([H])([H])C([H])([H])C([H])([H])N([H])C(=O)N1C([H])([H])C([H])([H])C([H])([H])C([H])(n2nc(-c3c([H])c([H])c(Oc4c([H])c([H])c(F)c([H])c4F)c([H])c3[H])c(C(=O)N([H])[H])c2N([H])[H])C1([H])[H])C([H])([H])C([H])([H])Oc1c([H])c([H])c2c(c1[H])C([H])([H])N(C(=O)C([H])(N([H])C(=O)C([H])(N([H])C([H])([H])[H])C([H])([H])[H])C(C([H])([H])[H])(C([H])([H])[H])C([H])([H])[H])C([H])(C(=O)N([H])C1([H])c3c([H])c([H])c([H])c([H])c3C([H])([H])C([H])([H])C1([H])[H])C2([H])[H]

$$$$
81:0:0
     RDKit          3D

 97104  0  0  1  0  0  0  0  0999 V2000
  -28.1220  -19.7100   18.9860 C   0  0  0  0  0  3  0  0  0  0  0  0
  -27.6200  -20.9160   19.6980 N   0  0  0  0  0  4  0  0  0  0  0  0
  -26.6230  -20.9730   19.5630 H   0  0  0  0  0  0  0  0  0  0  0  0
  -27.7860  -20.8090   20.6850 H   0  0  0  0  0  0  0  0  0  0  0  0
  -28.2010  -22.1990   19.2300 C   0  0  0  0  0  2  0  0  0  0  0  0
  -28.0170  -23.3390   20.2500 C   0  0  0  0  0  2  0  0  0  0  0  0
  -28.5260  -24.7030   19.7380 C   0  0  0  0  0  2  0  0  0  0  0  0
  -28.4680  -25.7900   20.8280 C   0  0  0  0  0  2  0  0  0  0  0  0
  -28.5640  -27.1150   20.2940 O   0  0  0  0  0  0  0  0  0  0  0  0
  -24.6990  -32.1240   23.5250 C   0  0  0  0  0  0  0  0  0  0  0  0
  -27.3890  -27.8280   20.3010 C   0  0  0  0  0  0  0  0  0  0  0  0
  -23.5070  -30.7630   21.8370 C   0  0  0  0  0  3  0  0  0  0  0  0
  -24.9760  -29.2930   20.3630 C   0  0  0  0  0  0  0  0  0  0  0  0
  -26.0270  -31.1620   21.6500 C   0  0  0  0  0  2  0  0  0  0  0  0
  -26.1280  -29.8170   20.9630 C   0  0  0  0  0  0  0  0  0  0  0  0
  -27.3420  -29.0950   20.9220 C   0  0  0  0  0  3  0  0  0  0  0  0
  -26.2180  -27.3120   19.7030 C   0  0  0  0  0  3  0  0  0  0  0  0
  -25.0150  -28.0400   19.7300 C   0  0  0  0  0  3  0  0  0  0  0  0
  -23.7220  -30.1340   20.4360 C   0  0  0  0  0  2  0  0  0  0  0  0
  -24.7630  -31.3620   22.3970 N   0  0  0  0  0  0  0  0  0  0  0  0
  -23.6150  -32.3660   24.0740 O   0  0  0  0  0  0  0  0  0  0  0  0
  -22.8690  -29.7030   22.7620 C   0  0  0  0  0  0  0  0  0  0  0  0
  -21.5600  -29.4610   22.5780 N   0  0  0  0  0  0  0  0  0  0  0  0
  -23.5470  -29.1030   23.6010 O   0  0  0  0  0  0  0  0  0  0  0  0
  -21.0750  -29.9980   21.8720 H   0  0  0  0  0  0  0  0  0  0  0  0
  -18.2400  -28.0680   22.8820 C   0  0  0  0  0  0  0  0  0  0  0  0
  -20.7570  -28.4810   23.3070 C   0  0  0  0  0  3  0  0  0  0  0  0
  -20.9800  -27.0550   22.7540 C   0  0  0  0  0  2  0  0  0  0  0  0
  -19.9640  -26.6600   21.6780 C   0  0  0  0  0  2  0  0  0  0  0  0
  -18.5400  -26.7270   22.2340 C   0  0  0  0  0  2  0  0  0  0  0  0
  -19.2830  -28.8990   23.3720 C   0  0  0  0  0  0  0  0  0  0  0  0
  -18.9540  -30.1530   23.9320 C   0  0  0  0  0  3  0  0  0  0  0  0
  -17.6140  -30.5760   24.0110 C   0  0  0  0  0  3  0  0  0  0  0  0
  -16.5850  -29.7430   23.5400 C   0  0  0  0  0  3  0  0  0  0  0  0
  -16.8980  -28.4900   22.9810 C   0  0  0  0  0  3  0  0  0  0  0  0
  -25.9790  -32.7460   24.1640 C   0  0  0  0  0  3  0  0  0  0  0  0
  -25.6810  -34.1500   24.4760 N   0  0  0  0  0  0  0  0  0  0  0  0
  -26.0420  -35.1910   23.7130 C   0  0  0  0  0  0  0  0  0  0  0  0
  -26.7360  -35.0700   22.6990 O   0  0  0  0  0  0  0  0  0  0  0  0
  -25.0720  -34.3200   25.2630 H   0  0  0  0  0  0  0  0  0  0  0  0
  -24.3430  -36.9960   23.2920 C   0  0  0  0  0  1  0  0  0  0  0  0
  -25.5570  -36.5890   24.1430 C   0  0  0  0  0  3  0  0  0  0  0  0
  -27.6750  -37.4610   25.0270 C   0  0  0  0  0  1  0  0  0  0  0  0
  -26.6040  -37.6290   24.0490 N   0  0  0  0  0  0  0  0  0  0  0  0
  -26.2040  -38.5550   24.1740 H   0  0  0  0  0  0  0  0  0  0  0  0
  -26.4660  -31.9790   25.4540 C   0  0  1  0  0  0  0  0  0  0  0  0
  -25.3450  -31.7260   26.4890 C   0  0  0  0  0  1  0  0  0  0  0  0
  -27.0740  -30.6080   25.0750 C   0  0  0  0  0  1  0  0  0  0  0  0
  -27.5890  -32.7830   26.1490 C   0  0  0  0  0  1  0  0  0  0  0  0
  -27.0570  -18.5780   18.9520 C   0  0  0  0  0  2  0  0  0  0  0  0
  -27.5640  -17.2590   18.3480 C   0  0  0  0  0  0  0  0  0  0  0  0
  -27.3310  -16.1300   19.0090 N   0  0  0  0  0  0  0  0  0  0  0  0
  -28.1540  -17.2430   17.2700 O   0  0  0  0  0  0  0  0  0  0  0  0
  -26.8290  -16.1270   19.9010 H   0  0  0  0  0  0  0  0  0  0  0  0
  -27.6360  -15.2490   18.6240 H   0  0  0  0  0  0  0  0  0  0  0  0
  -29.4970  -19.2620   19.5480 C   0  0  0  0  0  2  0  0  0  0  0  0
  -29.4470  -18.3710   20.8070 C   0  0  0  0  0  2  0  0  0  0  0  0
  -30.8550  -18.0880   21.3620 C   0  0  0  0  0  2  0  0  0  0  0  0
  -30.8950  -17.0250   22.4790 C   0  0  0  0  0  2  0  0  0  0  0  0
  -30.9810  -14.9140   21.1560 C   0  0  0  0  0  0  0  0  0  0  0  0
  -30.6890  -12.9400   19.7110 C   0  0  0  0  0  2  0  0  0  0  0  0
  -29.7800  -13.2870   18.5160 C   0  0  0  0  0  2  0  0  0  0  0  0
  -28.2980  -13.0940   18.8860 C   0  0  0  0  0  2  0  0  0  0  0  0
  -27.9230  -13.7870   20.2230 C   0  0  0  0  0  3  0  0  0  0  0  0
  -28.9440  -13.4360   21.3280 C   0  0  0  0  0  2  0  0  0  0  0  0
  -30.2910  -13.7880   20.8420 N   0  0  0  0  0  0  0  0  0  0  0  0
  -32.0600  -15.2140   20.6390 O   0  0  0  0  0  0  0  0  0  0  0  0
  -30.3870  -15.7250   22.0410 N   0  0  0  0  0  0  0  0  0  0  0  0
  -29.5120  -15.4100   22.4330 H   0  0  0  0  0  0  0  0  0  0  0  0
  -25.5040  -14.3050   20.9370 C   0  0  0  0  0  0  0  0  0  0  0  0
  -24.4280  -13.4930   21.1720 C   0  0  0  0  0  0  0  0  0  0  0  0
  -24.8940  -12.1560   20.9870 C   0  0  0  0  0  0  0  0  0  0  0  0
  -26.5590  -13.4580   20.6290 N   0  0  0  0  0  0  0  0  0  0  0  0
  -26.1910  -12.1550   20.7140 N   0  0  0  0  0  0  0  0  0  0  0  0
  -24.1670  -10.8790   21.0010 C   0  0  0  0  0  0  0  0  0  0  0  0
  -24.5390   -9.8260   21.8670 C   0  0  0  0  0  3  0  0  0  0  0  0
  -23.8140   -8.6140   21.8740 C   0  0  0  0  0  3  0  0  0  0  0  0
  -22.7020   -8.4490   21.0150 C   0  0  0  0  0  0  0  0  0  0  0  0
  -22.3500   -9.4910   20.1390 C   0  0  0  0  0  3  0  0  0  0  0  0
  -23.0760  -10.6940   20.1300 C   0  0  0  0  0  3  0  0  0  0  0  0
  -21.9540   -7.2980   20.9340 O   0  0  0  0  0  0  0  0  0  0  0  0
  -21.7290   -6.5080   22.0320 C   0  0  0  0  0  0  0  0  0  0  0  0
  -21.1050   -7.0080   23.1960 C   0  0  0  0  0  3  0  0  0  0  0  0
  -20.8310   -6.1440   24.2750 C   0  0  0  0  0  3  0  0  0  0  0  0
  -21.1690   -4.7800   24.1880 C   0  0  0  0  0  0  0  0  0  0  0  0
  -21.7850   -4.2780   23.0280 C   0  0  0  0  0  3  0  0  0  0  0  0
  -22.0610   -5.1410   21.9520 C   0  0  0  0  0  0  0  0  0  0  0  0
  -22.6350   -4.6470   20.8280 F   0  0  0  0  0  0  0  0  0  0  0  0
  -20.8980   -3.9480   25.2210 F   0  0  0  0  0  0  0  0  0  0  0  0
  -23.0230  -13.9320   21.4720 C   0  0  0  0  0  0  0  0  0  0  0  0
  -22.2830  -13.1380   22.2360 N   0  0  0  0  0  0  0  0  0  0  0  0
  -22.5930  -15.0120   21.0690 O   0  0  0  0  0  0  0  0  0  0  0  0
  -22.6430  -12.2610   22.5830 H   0  0  0  0  0  0  0  0  0  0  0  0
  -21.3410  -13.4100   22.4780 H   0  0  0  0  0  0  0  0  0  0  0  0
  -25.6790  -15.6870   20.9510 N   0  0  0  0  0  0  0  0  0  0  0  0
  -24.9190  -16.2330   21.3460 H   0  0  0  0  0  0  0  0  0  0  0  0
  -26.5830  -16.0230   21.2580 H   0  0  0  0  0  0  0  0  0  0  0  0
  1 50  1  0
  1 56  1  0
  1  2  1  0
  2  4  1  0
  3  2  1  0
  5  2  1  0
  5  6  1  0
  7  6  1  0
  7  8  1  0
  9 11  1  0
  9  8  1  0
 10 21  2  0
 11 16  1  0
 12 20  1  0
 12 22  1  0
 13 19  1  0
 13 15  1  0
 14 20  1  0
 15 14  1  0
 16 15  2  0
 17 18  1  0
 17 11  2  0
 18 13  2  0
 19 12  1  0
 20 10  1  0
 22 24  2  0
 23 22  1  0
 25 23  1  0
 26 35  2  0
 26 31  1  0
 27 23  1  0
 27 31  1  0
 28 27  1  0
 29 30  1  0
 29 28  1  0
 30 26  1  0
 31 32  2  0
 32 33  1  0
 34 33  2  0
 35 34  1  0
 36 10  1  0
 36 37  1  0
 36 46  1  0
 37 40  1  0
 38 42  1  0
 38 37  1  0
 39 38  2  0
 42 41  1  0
 44 42  1  0
 44 45  1  0
 44 43  1  0
 46 49  1  1
 46 47  1  0
 48 46  1  0
 51 50  1  0
 51 52  1  0
 52 54  1  0
 53 51  2  0
 55 52  1  0
 56 57  1  0
 57 58  1  0
 58 59  1  0
 60 68  1  0
 61 66  1  0
 62 63  1  0
 62 61  1  0
 64 63  1  0
 64 73  1  0
 64 65  1  0
 66 60  1  0
 66 65  1  0
 67 60  2  0
 68 69  1  0
 68 59  1  0
 70 95  1  0
 70 71  2  0
 71 90  1  0
 72 75  1  0
 72 71  1  0
 73 74  1  0
 73 70  1  0
 74 72  2  0
 75 76  1  0
 76 77  2  0
 78 77  1  0
 79 78  2  0
 80 79  1  0
 80 75  2  0
 81 78  1  0
 81 82  1  0
 82 83  1  0
 83 84  2  0
 85 84  1  0
 85 89  1  0
 86 85  2  0
 87 82  2  0
 87 86  1  0
 88 87  1  0
 90 91  1  0
 91 94  1  0
 91 93  1  0
 92 90  2  0
 95 97  1  0
 95 96  1  0
M  ISO  4   8 101   9 101  60 100  68 100
M  END
>  <TORSDO>  (81) 
F 27

>  <SCORE>  (81) 
-9.243

>  <name>  (81) 
81

>  <ligand_id>  (81) 
81

>  <original_smiles>  (81) 
[H]c1c([H])c([H])c2c(c1[H])C([H])([H])C([H])([H])C([H])([H])C2([H])N([H])C(=O)C1([H])N(C(=O)C([H])(N([H])C(=O)C([H])(N([H])C([H])([H])[H])C([H])([H])[H])C(C([H])([H])[H])(C([H])([H])[H])C([H])([H])[H])C([H])([H])c2c([H])c(OC([H])([H])C([H])([H])C([H])([H])C([H])([H])[N+]([H])([H])C([H])(C([H])([H])C(=O)N([H])[H])C([H])([H])C([H])([H])C([H])([H])C([H])([H])N([H])C(=O)N3C([H])([H])C([H])([H])C([H])([H])C([H])(n4nc(-c5c([H])c([H])c(Oc6c([H])c([H])c(F)c([H])c6F)c([H])c5[H])c(C(=O)N([H])[H])c4N([H])[H])C3([H])[H])c([H])c([H])c2C1([H])[H]

>  <smiles>  (81) 
[H]c1c([H])c([H])c2c(c1[H])C([H])([H])C([H])([H])C([H])([H])C2([H])N([H])C(=O)C1([H])N(C(=O)C([H])(N([H])C(=O)C([H])(N([H])C([H])([H])[H])C([H])([H])[H])C(C([H])([H])[H])(C([H])([H])[H])C([H])([H])[H])C([H])([H])c2c([H])c(OC([H])([H])C([H])([H])C([H])([H])C([H])([H])[N+]([H])([H])C([H])(C([H])([H])C(=O)N([H])[H])C([H])([H])C([H])([H])C([H])([H])C([H])([H])N([H])C(=O)N3C([H])([H])C([H])([H])C([H])([H])C([H])(n4nc(-c5c([H])c([H])c(Oc6c([H])c([H])c(F)c([H])c6F)c([H])c5[H])c(C(=O)N([H])[H])c4N([H])[H])C3([H])[H])c([H])c([H])c2C1([H])[H]

$$$$
82:0:0
     RDKit          3D

 95103  0  0  1  0  0  0  0  0999 V2000
  -27.0600  -18.6450   18.1650 C   0  0  0  0  0  3  0  0  0  0  0  0
  -26.6450  -19.6710   19.0350 C   0  0  0  0  0  3  0  0  0  0  0  0
  -28.6390  -20.1900   17.1100 C   0  0  0  0  0  3  0  0  0  0  0  0
  -28.0760  -18.8940   17.2290 C   0  0  0  0  0  0  0  0  0  0  0  0
  -28.2260  -21.2250   17.9810 C   0  0  0  0  0  0  0  0  0  0  0  0
  -27.2260  -20.9480   18.9480 C   0  0  0  0  0  0  0  0  0  0  0  0
  -26.8230  -21.9140   19.8210 O   0  0  0  0  0  0  0  0  0  0  0  0
  -27.3610  -22.6960   19.7580 H   0  0  0  0  0  0  0  0  0  0  0  0
  -28.6630  -17.7290   16.4520 C   0  0  0  0  0  2  0  0  0  0  0  0
  -29.6390  -16.8820   17.3130 C   0  0  0  0  0  2  0  0  0  0  0  0
  -30.1310  -17.5520   18.6260 C   0  0  0  0  0  2  0  0  0  0  0  0
  -31.3060  -16.8230   19.3040 C   0  0  0  0  0  2  0  0  0  0  0  0
  -31.7290  -14.7270   20.5580 C   0  0  0  0  0  0  0  0  0  0  0  0
  -31.5990  -12.3290   20.2550 C   0  0  0  0  0  2  0  0  0  0  0  0
  -30.7820  -12.1170   18.9640 C   0  0  0  0  0  2  0  0  0  0  0  0
  -29.2640  -12.0940   19.2490 C   0  0  0  0  0  2  0  0  0  0  0  0
  -28.7840  -13.2690   20.1430 C   0  0  0  0  0  3  0  0  0  0  0  0
  -29.7230  -13.4410   21.3580 C   0  0  0  0  0  2  0  0  0  0  0  0
  -31.1060  -13.5670   20.8640 N   0  0  0  0  0  0  0  0  0  0  0  0
  -32.9440  -14.8360   20.3720 O   0  0  0  0  0  0  0  0  0  0  0  0
  -30.8870  -15.6670   20.0990 N   0  0  0  0  0  0  0  0  0  0  0  0
  -29.9060  -15.4330   20.1190 H   0  0  0  0  0  0  0  0  0  0  0  0
  -26.4280  -14.0760   20.7950 C   0  0  0  0  0  0  0  0  0  0  0  0
  -25.2690  -13.4030   21.0690 C   0  0  0  0  0  0  0  0  0  0  0  0
  -25.5980  -12.0130   20.9750 C   0  0  0  0  0  0  0  0  0  0  0  0
  -27.3940  -13.1100   20.5540 N   0  0  0  0  0  0  0  0  0  0  0  0
  -26.8880  -11.8600   20.7210 N   0  0  0  0  0  0  0  0  0  0  0  0
  -24.7450  -10.8240   21.0530 C   0  0  0  0  0  0  0  0  0  0  0  0
  -24.9650   -9.8170   22.0210 C   0  0  0  0  0  3  0  0  0  0  0  0
  -24.1220   -8.6880   22.0850 C   0  0  0  0  0  3  0  0  0  0  0  0
  -23.0380   -8.5590   21.1840 C   0  0  0  0  0  0  0  0  0  0  0  0
  -22.8350   -9.5520   20.2070 C   0  0  0  0  0  3  0  0  0  0  0  0
  -23.6800  -10.6750   20.1410 C   0  0  0  0  0  3  0  0  0  0  0  0
  -22.1810   -7.4850   21.1570 O   0  0  0  0  0  0  0  0  0  0  0  0
  -21.8650   -6.7930   22.2970 C   0  0  0  0  0  0  0  0  0  0  0  0
  -21.2060   -7.4080   23.3840 C   0  0  0  0  0  3  0  0  0  0  0  0
  -20.8370   -6.6420   24.5080 C   0  0  0  0  0  3  0  0  0  0  0  0
  -21.1130   -5.2610   24.5420 C   0  0  0  0  0  0  0  0  0  0  0  0
  -21.7610   -4.6460   23.4570 C   0  0  0  0  0  3  0  0  0  0  0  0
  -22.1290   -5.4100   22.3340 C   0  0  0  0  0  0  0  0  0  0  0  0
  -22.7370   -4.8090   21.2820 F   0  0  0  0  0  0  0  0  0  0  0  0
  -20.7490   -4.5230   25.6180 F   0  0  0  0  0  0  0  0  0  0  0  0
  -23.9120  -14.0020   21.3040 C   0  0  0  0  0  0  0  0  0  0  0  0
  -23.0750  -13.3430   22.0940 N   0  0  0  0  0  0  0  0  0  0  0  0
  -23.6060  -15.0960   20.8250 O   0  0  0  0  0  0  0  0  0  0  0  0
  -23.3370  -12.4620   22.5110 H   0  0  0  0  0  0  0  0  0  0  0  0
  -22.1600  -13.7290   22.2960 H   0  0  0  0  0  0  0  0  0  0  0  0
  -26.7300  -15.4310   20.7280 N   0  0  0  0  0  0  0  0  0  0  0  0
  -26.0120  -16.1270   20.8920 H   0  0  0  0  0  0  0  0  0  0  0  0
  -27.6290  -15.8340   20.5050 H   0  0  0  0  0  0  0  0  0  0  0  0
  -28.8260  -22.6330   17.9510 C   0  0  0  0  0  2  0  0  0  0  0  0
  -29.8370  -22.9970   16.8410 C   0  0  0  0  0  2  0  0  0  0  0  0
  -29.5940  -24.3690   16.1780 C   0  0  0  0  0  2  0  0  0  0  0  0
  -30.5840  -25.4510   16.6910 C   0  0  0  0  0  2  0  0  0  0  0  0
  -30.2550  -26.8370   16.5050 O   0  0  0  0  0  0  0  0  0  0  0  0
  -24.0220  -26.9430   20.0420 C   0  0  0  0  0  0  0  0  0  0  0  0
  -28.9240  -27.2000   16.5460 C   0  0  0  0  0  0  0  0  0  0  0  0
  -23.9720  -27.7420   17.7040 C   0  0  0  0  0  3  0  0  0  0  0  0
  -26.2430  -28.1030   16.6070 C   0  0  0  0  0  0  0  0  0  0  0  0
  -26.1150  -27.9100   19.0940 C   0  0  0  0  0  2  0  0  0  0  0  0
  -26.8930  -27.7650   17.8000 C   0  0  0  0  0  0  0  0  0  0  0  0
  -28.2360  -27.3140   17.7770 C   0  0  0  0  0  3  0  0  0  0  0  0
  -28.2600  -27.5730   15.3600 C   0  0  0  0  0  3  0  0  0  0  0  0
  -26.9230  -28.0070   15.3820 C   0  0  0  0  0  3  0  0  0  0  0  0
  -24.8140  -28.5810   16.7070 C   0  0  0  0  0  2  0  0  0  0  0  0
  -24.6970  -27.4870   18.9920 N   0  0  0  0  0  0  0  0  0  0  0  0
  -22.8120  -26.6880   19.9610 O   0  0  0  0  0  0  0  0  0  0  0  0
  -23.5160  -26.4480   16.9910 C   0  0  0  0  0  0  0  0  0  0  0  0
  -22.6710  -26.6010   15.9590 N   0  0  0  0  0  0  0  0  0  0  0  0
  -23.9370  -25.3450   17.3530 O   0  0  0  0  0  0  0  0  0  0  0  0
  -22.3600  -27.5350   15.7310 H   0  0  0  0  0  0  0  0  0  0  0  0
  -20.7670  -25.9140   12.9650 C   0  0  0  0  0  0  0  0  0  0  0  0
  -22.1360  -25.5260   15.1240 C   0  0  0  0  0  3  0  0  0  0  0  0
  -23.2310  -24.9410   14.2020 C   0  0  0  0  0  2  0  0  0  0  0  0
  -23.2750  -25.6040   12.8200 C   0  0  0  0  0  2  0  0  0  0  0  0
  -21.9290  -25.4460   12.1060 C   0  0  0  0  0  2  0  0  0  0  0  0
  -20.8710  -25.9670   14.3830 C   0  0  0  0  0  0  0  0  0  0  0  0
  -19.7740  -26.4470   15.1290 C   0  0  0  0  0  3  0  0  0  0  0  0
  -18.5920  -26.8640   14.4900 C   0  0  0  0  0  3  0  0  0  0  0  0
  -18.4900  -26.7970   13.0880 C   0  0  0  0  0  3  0  0  0  0  0  0
  -19.5760  -26.3200   12.3330 C   0  0  0  0  0  3  0  0  0  0  0  0
  -24.7330  -26.6360   21.3990 C   0  0  0  0  0  3  0  0  0  0  0  0
  -25.1020  -25.1120   21.5750 C   0  0  1  0  0  0  0  0  0  0  0  0
  -23.9150  -24.1520   21.3300 C   0  0  0  0  0  1  0  0  0  0  0  0
  -26.2420  -24.7110   20.6090 C   0  0  0  0  0  1  0  0  0  0  0  0
  -25.6290  -24.8660   23.0080 C   0  0  0  0  0  1  0  0  0  0  0  0
  -23.8370  -27.0820   22.4760 N   0  0  0  0  0  0  0  0  0  0  0  0
  -24.0140  -28.1980   23.1940 C   0  0  0  0  0  0  0  0  0  0  0  0
  -25.0010  -28.9300   23.0680 O   0  0  0  0  0  0  0  0  0  0  0  0
  -22.9850  -26.5540   22.6010 H   0  0  0  0  0  0  0  0  0  0  0  0
  -22.0250  -29.6670   23.6460 C   0  0  0  0  0  1  0  0  0  0  0  0
  -22.9230  -28.5600   24.2210 C   0  0  0  0  0  3  0  0  0  0  0  0
  -24.0910  -27.8970   26.2740 C   0  0  0  0  0  1  0  0  0  0  0  0
  -23.4630  -28.9860   25.5300 N   0  0  0  0  0  0  0  0  0  0  0  0
  -22.7280  -29.3830   26.1100 H   0  0  0  0  0  0  0  0  0  0  0  0
  1  2  1  0
  3  4  1  0
  3  5  2  0
  4  1  2  0
  5  6  1  0
  6  2  2  0
  6  7  1  0
  8  7  1  0
  9  4  1  0
  9 10  1  0
 10 11  1  0
 11 12  1  0
 12 21  1  0
 13 19  1  0
 14 19  1  0
 15 16  1  0
 15 14  1  0
 17 16  1  0
 17 26  1  0
 17 18  1  0
 19 18  1  0
 20 13  2  0
 21 22  1  0
 21 13  1  0
 23 24  2  0
 24 43  1  0
 25 28  1  0
 25 24  1  0
 26 27  1  0
 26 23  1  0
 27 25  2  0
 28 29  1  0
 29 30  2  0
 31 30  1  0
 32 31  2  0
 33 32  1  0
 33 28  2  0
 34 31  1  0
 34 35  1  0
 35 40  2  0
 35 36  1  0
 36 37  2  0
 37 38  1  0
 38 42  1  0
 39 38  2  0
 40 39  1  0
 41 40  1  0
 43 44  1  0
 44 47  1  0
 44 46  1  0
 45 43  2  0
 48 23  1  0
 48 49  1  0
 50 48  1  0
 51  5  1  0
 52 51  1  0
 53 54  1  0
 53 52  1  0
 55 57  1  0
 55 54  1  0
 57 62  1  0
 58 68  1  0
 58 66  1  0
 59 65  1  0
 59 61  1  0
 61 60  1  0
 62 61  2  0
 63 64  1  0
 63 57  2  0
 64 59  2  0
 65 58  1  0
 66 60  1  0
 66 56  1  0
 67 56  2  0
 68 70  2  0
 69 68  1  0
 71 69  1  0
 72 77  1  0
 73 69  1  0
 74 73  1  0
 75 74  1  0
 76 75  1  0
 76 72  1  0
 77 73  1  0
 77 78  2  0
 79 78  1  0
 80 79  2  0
 81 72  2  0
 81 80  1  0
 82 56  1  0
 82 83  1  0
 82 87  1  0
 83 86  1  1
 84 83  1  0
 85 83  1  0
 87 90  1  0
 87 88  1  0
 88 92  1  0
 89 88  2  0
 92 91  1  0
 92 94  1  0
 94 95  1  0
 94 93  1  0
M  ISO  4  13 100  21 100  54 101  55 101
M  END
>  <TORSDO>  (82) 
F 25

>  <SCORE>  (82) 
-6.032

>  <name>  (82) 
82

>  <ligand_id>  (82) 
82

>  <original_smiles>  (82) 
[H]Oc1c([H])c([H])c(C([H])([H])C([H])([H])C([H])([H])C([H])([H])N([H])C(=O)N2C([H])([H])C([H])([H])C([H])([H])C([H])(n3nc(-c4c([H])c([H])c(Oc5c([H])c([H])c(F)c([H])c5F)c([H])c4[H])c(C(=O)N([H])[H])c3N([H])[H])C2([H])[H])c([H])c1C([H])([H])C([H])([H])C([H])([H])C([H])([H])Oc1c([H])c([H])c2c(c1[H])C([H])([H])N(C(=O)C([H])(N([H])C(=O)C([H])(N([H])C([H])([H])[H])C([H])([H])[H])C(C([H])([H])[H])(C([H])([H])[H])C([H])([H])[H])C([H])(C(=O)N([H])C1([H])c3c([H])c([H])c([H])c([H])c3C([H])([H])C([H])([H])C1([H])[H])C2([H])[H]

>  <smiles>  (82) 
[H]Oc1c([H])c([H])c(C([H])([H])C([H])([H])C([H])([H])C([H])([H])N([H])C(=O)N2C([H])([H])C([H])([H])C([H])([H])C([H])(n3nc(-c4c([H])c([H])c(Oc5c([H])c([H])c(F)c([H])c5F)c([H])c4[H])c(C(=O)N([H])[H])c3N([H])[H])C2([H])[H])c([H])c1C([H])([H])C([H])([H])C([H])([H])C([H])([H])Oc1c([H])c([H])c2c(c1[H])C([H])([H])N(C(=O)C([H])(N([H])C(=O)C([H])(N([H])C([H])([H])[H])C([H])([H])[H])C(C([H])([H])[H])(C([H])([H])[H])C([H])([H])[H])C([H])(C(=O)N([H])C1([H])c3c([H])c([H])c([H])c([H])c3C([H])([H])C([H])([H])C1([H])[H])C2([H])[H]

$$$$
83:0:0
     RDKit          3D

 95102  0  0  1  0  0  0  0  0999 V2000
  -30.1110  -24.5830   21.0630 C   0  0  0  0  0  3  0  0  0  0  0  0
  -29.0650  -23.7570   20.3860 N   0  0  0  0  0  4  0  0  0  0  0  0
  -28.1980  -24.2740   20.4470 H   0  0  0  0  0  0  0  0  0  0  0  0
  -29.2840  -23.6900   19.4050 H   0  0  0  0  0  0  0  0  0  0  0  0
  -28.8040  -22.3870   20.9100 C   0  0  0  0  0  2  0  0  0  0  0  0
  -28.1230  -21.5000   19.8440 C   0  0  0  0  0  2  0  0  0  0  0  0
  -27.9190  -20.0080   20.2040 C   0  0  0  0  0  2  0  0  0  0  0  0
  -29.2190  -19.1990   20.4190 C   0  0  0  0  0  2  0  0  0  0  0  0
  -29.0080  -17.6700   20.4220 C   0  0  0  0  0  2  0  0  0  0  0  0
  -30.1600  -16.8880   21.0890 C   0  0  0  0  0  2  0  0  0  0  0  0
  -30.5820  -14.5430   20.3060 C   0  0  0  0  0  0  0  0  0  0  0  0
  -30.3310  -12.3900   19.1280 C   0  0  0  0  0  2  0  0  0  0  0  0
  -29.3620  -12.5730   17.9420 C   0  0  0  0  0  2  0  0  0  0  0  0
  -27.8940  -12.4000   18.3880 C   0  0  0  0  0  2  0  0  0  0  0  0
  -27.5580  -13.2270   19.6600 C   0  0  0  0  0  3  0  0  0  0  0  0
  -28.6330  -13.0100   20.7480 C   0  0  0  0  0  2  0  0  0  0  0  0
  -29.9480  -13.3480   20.1730 N   0  0  0  0  0  0  0  0  0  0  0  0
  -31.6440  -14.8150   19.7370 O   0  0  0  0  0  0  0  0  0  0  0  0
  -29.9060  -15.4480   21.0230 N   0  0  0  0  0  0  0  0  0  0  0  0
  -29.0570  -15.1170   21.4530 H   0  0  0  0  0  0  0  0  0  0  0  0
  -25.1460  -13.7740   20.3900 C   0  0  0  0  0  0  0  0  0  0  0  0
  -24.1070  -12.9740   20.7920 C   0  0  0  0  0  0  0  0  0  0  0  0
  -24.6120  -11.6380   20.7790 C   0  0  0  0  0  0  0  0  0  0  0  0
  -26.2170  -12.9220   20.1600 N   0  0  0  0  0  0  0  0  0  0  0  0
  -25.8980  -11.6340   20.4490 N   0  0  0  0  0  0  0  0  0  0  0  0
  -23.9310  -10.3570   21.0050 C   0  0  0  0  0  0  0  0  0  0  0  0
  -24.3830   -9.4400   21.9810 C   0  0  0  0  0  3  0  0  0  0  0  0
  -23.6990   -8.2220   22.1930 C   0  0  0  0  0  3  0  0  0  0  0  0
  -22.5490   -7.9150   21.4300 C   0  0  0  0  0  0  0  0  0  0  0  0
  -22.1140   -8.8210   20.4440 C   0  0  0  0  0  3  0  0  0  0  0  0
  -22.7990  -10.0290   20.2310 C   0  0  0  0  0  3  0  0  0  0  0  0
  -21.8330   -6.7480   21.5470 O   0  0  0  0  0  0  0  0  0  0  0  0
  -21.7700   -6.0580   22.7310 C   0  0  0  0  0  0  0  0  0  0  0  0
  -21.2700   -6.6500   23.9120 C   0  0  0  0  0  3  0  0  0  0  0  0
  -21.1600   -5.8860   25.0910 C   0  0  0  0  0  3  0  0  0  0  0  0
  -21.5360   -4.5290   25.0890 C   0  0  0  0  0  0  0  0  0  0  0  0
  -22.0290   -3.9370   23.9110 C   0  0  0  0  0  3  0  0  0  0  0  0
  -22.1430   -4.6990   22.7360 C   0  0  0  0  0  0  0  0  0  0  0  0
  -22.5970   -4.1150   21.6010 F   0  0  0  0  0  0  0  0  0  0  0  0
  -21.4220   -3.7930   26.2180 F   0  0  0  0  0  0  0  0  0  0  0  0
  -22.6970  -13.4140   21.0760 C   0  0  0  0  0  0  0  0  0  0  0  0
  -22.0020  -12.7200   21.9680 N   0  0  0  0  0  0  0  0  0  0  0  0
  -22.2160  -14.4150   20.5420 O   0  0  0  0  0  0  0  0  0  0  0  0
  -22.3990  -11.9140   22.4260 H   0  0  0  0  0  0  0  0  0  0  0  0
  -21.0590  -13.0010   22.2000 H   0  0  0  0  0  0  0  0  0  0  0  0
  -25.2670  -15.1430   20.1830 N   0  0  0  0  0  0  0  0  0  0  0  0
  -24.4850  -15.7820   20.2780 H   0  0  0  0  0  0  0  0  0  0  0  0
  -26.1090  -15.5930   19.8450 H   0  0  0  0  0  0  0  0  0  0  0  0
  -31.4570  -23.8450   21.2840 C   0  0  0  0  0  2  0  0  0  0  0  0
  -32.1440  -23.3190   20.0100 C   0  0  0  0  0  2  0  0  0  0  0  0
  -33.2450  -22.5060   20.3700 O   0  0  0  0  0  0  0  0  0  0  0  0
  -33.8460  -23.0380   20.8840 H   0  0  0  0  0  0  0  0  0  0  0  0
  -30.3440  -25.9270   20.3180 C   0  0  0  0  0  2  0  0  0  0  0  0
  -29.2810  -26.9940   20.5920 C   0  0  0  0  0  2  0  0  0  0  0  0
  -28.0890  -26.5920   19.9470 O   0  0  0  0  0  0  0  0  0  0  0  0
  -24.5390  -31.8510   23.2490 C   0  0  0  0  0  0  0  0  0  0  0  0
  -26.9920  -27.4160   20.0460 C   0  0  0  0  0  0  0  0  0  0  0  0
  -23.2540  -30.5120   21.6090 C   0  0  0  0  0  3  0  0  0  0  0  0
  -24.6320  -28.9600   20.1320 C   0  0  0  0  0  0  0  0  0  0  0  0
  -25.7780  -30.8190   21.3520 C   0  0  0  0  0  2  0  0  0  0  0  0
  -25.8110  -29.4540   20.7020 C   0  0  0  0  0  0  0  0  0  0  0  0
  -26.9950  -28.6900   20.6640 C   0  0  0  0  0  3  0  0  0  0  0  0
  -25.7980  -26.9300   19.4780 C   0  0  0  0  0  3  0  0  0  0  0  0
  -24.6160  -27.6950   19.5210 C   0  0  0  0  0  3  0  0  0  0  0  0
  -23.4120  -29.8480   20.2150 C   0  0  0  0  0  2  0  0  0  0  0  0
  -24.5440  -31.0710   22.1310 N   0  0  0  0  0  0  0  0  0  0  0  0
  -23.4800  -32.1440   23.8180 O   0  0  0  0  0  0  0  0  0  0  0  0
  -22.5990  -29.4940   22.5680 C   0  0  0  0  0  0  0  0  0  0  0  0
  -21.2800  -29.2970   22.4150 N   0  0  0  0  0  0  0  0  0  0  0  0
  -23.2730  -28.8810   23.4010 O   0  0  0  0  0  0  0  0  0  0  0  0
  -20.7980  -29.8400   21.7120 H   0  0  0  0  0  0  0  0  0  0  0  0
  -17.9230  -28.0240   22.7880 C   0  0  0  0  0  0  0  0  0  0  0  0
  -20.4550  -28.3610   23.1770 C   0  0  0  0  0  3  0  0  0  0  0  0
  -20.6260  -26.9170   22.6530 C   0  0  0  0  0  2  0  0  0  0  0  0
  -19.5850  -26.5310   21.5980 C   0  0  0  0  0  2  0  0  0  0  0  0
  -18.1700  -26.6580   22.1690 C   0  0  0  0  0  2  0  0  0  0  0  0
  -18.9980  -28.8300   23.2470 C   0  0  0  0  0  0  0  0  0  0  0  0
  -18.7170  -30.1070   23.7810 C   0  0  0  0  0  3  0  0  0  0  0  0
  -17.3940  -30.5780   23.8640 C   0  0  0  0  0  3  0  0  0  0  0  0
  -16.3320  -29.7680   23.4240 C   0  0  0  0  0  3  0  0  0  0  0  0
  -16.5980  -28.4940   22.8920 C   0  0  0  0  0  3  0  0  0  0  0  0
  -25.8590  -32.4310   23.8490 C   0  0  0  0  0  3  0  0  0  0  0  0
  -26.3750  -31.6320   25.1070 C   0  0  1  0  0  0  0  0  0  0  0  0
  -25.2970  -31.4180   26.1940 C   0  0  0  0  0  1  0  0  0  0  0  0
  -26.9030  -30.2390   24.6860 C   0  0  0  0  0  1  0  0  0  0  0  0
  -27.5660  -32.3780   25.7540 C   0  0  0  0  0  1  0  0  0  0  0  0
  -25.6070  -33.8370   24.1920 N   0  0  0  0  0  0  0  0  0  0  0  0
  -25.9590  -34.8790   23.4290 C   0  0  0  0  0  0  0  0  0  0  0  0
  -26.6020  -34.7570   22.3820 O   0  0  0  0  0  0  0  0  0  0  0  0
  -25.0360  -34.0080   25.0070 H   0  0  0  0  0  0  0  0  0  0  0  0
  -24.2760  -36.7230   23.1210 C   0  0  0  0  0  1  0  0  0  0  0  0
  -25.5260  -36.2800   23.8990 C   0  0  0  0  0  3  0  0  0  0  0  0
  -27.7060  -37.1000   24.6750 C   0  0  0  0  0  1  0  0  0  0  0  0
  -26.5870  -37.3010   23.7590 N   0  0  0  0  0  0  0  0  0  0  0  0
  -26.2120  -38.2340   23.9140 H   0  0  0  0  0  0  0  0  0  0  0  0
  1 53  1  0
  1 49  1  0
  2  3  1  0
  2  5  1  0
  2  1  1  0
  4  2  1  0
  6  7  1  0
  6  5  1  0
  7  8  1  0
  8  9  1  0
  9 10  1  0
 11 19  1  0
 12 17  1  0
 13 14  1  0
 13 12  1  0
 15 14  1  0
 15 24  1  0
 15 16  1  0
 17 11  1  0
 17 16  1  0
 18 11  2  0
 19 10  1  0
 19 20  1  0
 21 22  2  0
 22 41  1  0
 23 22  1  0
 23 26  1  0
 24 21  1  0
 24 25  1  0
 25 23  2  0
 26 27  1  0
 27 28  2  0
 29 32  1  0
 29 28  1  0
 30 29  2  0
 31 30  1  0
 31 26  2  0
 32 33  1  0
 33 38  2  0
 33 34  1  0
 34 35  2  0
 36 35  1  0
 36 40  1  0
 37 36  2  0
 38 37  1  0
 39 38  1  0
 41 42  1  0
 42 45  1  0
 42 44  1  0
 43 41  2  0
 46 47  1  0
 46 21  1  0
 48 46  1  0
 50 51  1  0
 50 49  1  0
 51 52  1  0
 53 54  1  0
 55 57  1  0
 55 54  1  0
 56 67  2  0
 57 62  1  0
 58 66  1  0
 58 68  1  0
 59 65  1  0
 59 61  1  0
 60 66  1  0
 61 60  1  0
 62 61  2  0
 63 64  1  0
 63 57  2  0
 64 59  2  0
 65 58  1  0
 66 56  1  0
 68 70  2  0
 69 68  1  0
 71 69  1  0
 72 81  2  0
 72 77  1  0
 73 69  1  0
 73 77  1  0
 74 73  1  0
 75 76  1  0
 75 74  1  0
 76 72  1  0
 77 78  2  0
 78 79  1  0
 80 79  2  0
 81 80  1  0
 82 56  1  0
 82 87  1  0
 82 83  1  0
 83 86  1  1
 83 84  1  0
 85 83  1  0
 87 90  1  0
 88 92  1  0
 88 87  1  0
 89 88  2  0
 92 91  1  0
 94 92  1  0
 94 95  1  0
 94 93  1  0
M  ISO  4  11 100  19 100  54 101  55 101
M  END
>  <TORSDO>  (83) 
F 28

>  <SCORE>  (83) 
-11.146

>  <name>  (83) 
83

>  <ligand_id>  (83) 
83

>  <original_smiles>  (83) 
[H]OC([H])([H])C([H])([H])C([H])(C([H])([H])C([H])([H])Oc1c([H])c([H])c2c(c1[H])C([H])([H])N(C(=O)C([H])(N([H])C(=O)C([H])(N([H])C([H])([H])[H])C([H])([H])[H])C(C([H])([H])[H])(C([H])([H])[H])C([H])([H])[H])C([H])(C(=O)N([H])C1([H])c3c([H])c([H])c([H])c([H])c3C([H])([H])C([H])([H])C1([H])[H])C2([H])[H])[N+]([H])([H])C([H])([H])C([H])([H])C([H])([H])C([H])([H])C([H])([H])C([H])([H])N([H])C(=O)N1C([H])([H])C([H])([H])C([H])([H])C([H])(n2nc(-c3c([H])c([H])c(Oc4c([H])c([H])c(F)c([H])c4F)c([H])c3[H])c(C(=O)N([H])[H])c2N([H])[H])C1([H])[H]

>  <smiles>  (83) 
[H]OC([H])([H])C([H])([H])C([H])(C([H])([H])C([H])([H])Oc1c([H])c([H])c2c(c1[H])C([H])([H])N(C(=O)C([H])(N([H])C(=O)C([H])(N([H])C([H])([H])[H])C([H])([H])[H])C(C([H])([H])[H])(C([H])([H])[H])C([H])([H])[H])C([H])(C(=O)N([H])C1([H])c3c([H])c([H])c([H])c([H])c3C([H])([H])C([H])([H])C1([H])[H])C2([H])[H])[N+]([H])([H])C([H])([H])C([H])([H])C([H])([H])C([H])([H])C([H])([H])C([H])([H])N([H])C(=O)N1C([H])([H])C([H])([H])C([H])([H])C([H])(n2nc(-c3c([H])c([H])c(Oc4c([H])c([H])c(F)c([H])c4F)c([H])c3[H])c(C(=O)N([H])[H])c2N([H])[H])C1([H])[H]

$$$$
84:0:0
     RDKit          3D

 91 98  0  0  1  0  0  0  0  0999 V2000
  -30.3390  -22.0000   22.0330 C   0  0  0  0  0  2  0  0  0  0  0  0
  -29.8720  -21.1650   20.8340 C   0  0  0  0  0  0  0  0  0  0  0  0
  -29.6730  -19.8590   21.0490 N   0  0  0  0  0  0  0  0  0  0  0  0
  -29.7070  -21.6780   19.7260 O   0  0  0  0  0  0  0  0  0  0  0  0
  -29.8140  -19.5000   21.9850 H   0  0  0  0  0  0  0  0  0  0  0  0
  -29.2910  -18.9200   20.0000 C   0  0  0  0  0  2  0  0  0  0  0  0
  -29.0140  -17.5050   20.5340 C   0  0  0  0  0  2  0  0  0  0  0  0
  -30.2400  -16.8010   21.1490 C   0  0  0  0  0  2  0  0  0  0  0  0
  -30.6620  -14.4200   20.5520 C   0  0  0  0  0  0  0  0  0  0  0  0
  -30.3480  -12.3130   19.3200 C   0  0  0  0  0  2  0  0  0  0  0  0
  -29.4010  -12.5690   18.1300 C   0  0  0  0  0  2  0  0  0  0  0  0
  -27.9270  -12.4320   18.5600 C   0  0  0  0  0  2  0  0  0  0  0  0
  -27.6020  -13.2300   19.8520 C   0  0  0  0  0  3  0  0  0  0  0  0
  -28.6560  -12.9480   20.9460 C   0  0  0  0  0  2  0  0  0  0  0  0
  -29.9870  -13.2540   20.3910 N   0  0  0  0  0  0  0  0  0  0  0  0
  -31.7440  -14.6600   20.0070 O   0  0  0  0  0  0  0  0  0  0  0  0
  -29.9950  -15.3620   21.2310 N   0  0  0  0  0  0  0  0  0  0  0  0
  -29.1350  -15.0650   21.6660 H   0  0  0  0  0  0  0  0  0  0  0  0
  -25.1920  -13.8340   20.5410 C   0  0  0  0  0  0  0  0  0  0  0  0
  -24.1260  -13.0590   20.9100 C   0  0  0  0  0  0  0  0  0  0  0  0
  -24.5930  -11.7080   20.8870 C   0  0  0  0  0  0  0  0  0  0  0  0
  -26.2440  -12.9560   20.3210 N   0  0  0  0  0  0  0  0  0  0  0  0
  -25.8840  -11.6720   20.5820 N   0  0  0  0  0  0  0  0  0  0  0  0
  -23.8720  -10.4440   21.0820 C   0  0  0  0  0  0  0  0  0  0  0  0
  -24.3250   -9.4700   21.9990 C   0  0  0  0  0  3  0  0  0  0  0  0
  -23.6050   -8.2700   22.1820 C   0  0  0  0  0  3  0  0  0  0  0  0
  -22.4190   -8.0340   21.4460 C   0  0  0  0  0  0  0  0  0  0  0  0
  -21.9860   -8.9980   20.5170 C   0  0  0  0  0  3  0  0  0  0  0  0
  -22.7060  -10.1890   20.3320 C   0  0  0  0  0  3  0  0  0  0  0  0
  -21.6680   -6.8890   21.5390 O   0  0  0  0  0  0  0  0  0  0  0  0
  -21.6600   -6.1240   22.6790 C   0  0  0  0  0  0  0  0  0  0  0  0
  -21.2930   -6.6570   23.9330 C   0  0  0  0  0  3  0  0  0  0  0  0
  -21.2320   -5.8190   25.0650 C   0  0  0  0  0  3  0  0  0  0  0  0
  -21.5290   -4.4490   24.9430 C   0  0  0  0  0  0  0  0  0  0  0  0
  -21.8880   -3.9140   23.6930 C   0  0  0  0  0  3  0  0  0  0  0  0
  -21.9510   -4.7500   22.5640 C   0  0  0  0  0  0  0  0  0  0  0  0
  -22.2780   -4.2250   21.3580 F   0  0  0  0  0  0  0  0  0  0  0  0
  -21.4640   -3.6410   26.0270 F   0  0  0  0  0  0  0  0  0  0  0  0
  -22.7260  -13.5310   21.1790 C   0  0  0  0  0  0  0  0  0  0  0  0
  -21.9990  -12.8360   22.0480 N   0  0  0  0  0  0  0  0  0  0  0  0
  -22.2830  -14.5510   20.6520 O   0  0  0  0  0  0  0  0  0  0  0  0
  -22.3680  -12.0100   22.4960 H   0  0  0  0  0  0  0  0  0  0  0  0
  -21.0610  -13.1350   22.2690 H   0  0  0  0  0  0  0  0  0  0  0  0
  -25.3520  -15.2040   20.3570 N   0  0  0  0  0  0  0  0  0  0  0  0
  -24.5860  -15.8590   20.4680 H   0  0  0  0  0  0  0  0  0  0  0  0
  -26.2010  -15.6400   20.0190 H   0  0  0  0  0  0  0  0  0  0  0  0
  -30.8940  -23.3970   21.6720 C   0  0  0  0  0  2  0  0  0  0  0  0
  -29.8180  -24.4820   21.4720 C   0  0  0  0  0  2  0  0  0  0  0  0
  -30.4180  -25.8210   21.0030 C   0  0  0  0  0  2  0  0  0  0  0  0
  -29.4080  -26.9800   20.9920 C   0  0  0  0  0  2  0  0  0  0  0  0
  -28.3560  -26.6910   20.0790 O   0  0  0  0  0  0  0  0  0  0  0  0
  -24.5820  -31.8910   23.2240 C   0  0  0  0  0  0  0  0  0  0  0  0
  -27.2210  -27.4700   20.1390 C   0  0  0  0  0  0  0  0  0  0  0  0
  -23.3610  -30.4870   21.5890 C   0  0  0  0  0  3  0  0  0  0  0  0
  -24.8070  -28.9440   20.1620 C   0  0  0  0  0  0  0  0  0  0  0  0
  -25.8800  -30.8540   21.3710 C   0  0  0  0  0  2  0  0  0  0  0  0
  -25.9630  -29.4810   20.7420 C   0  0  0  0  0  0  0  0  0  0  0  0
  -27.1690  -28.7520   20.7370 C   0  0  0  0  0  3  0  0  0  0  0  0
  -26.0510  -26.9450   19.5530 C   0  0  0  0  0  3  0  0  0  0  0  0
  -24.8440  -27.6700   19.5660 C   0  0  0  0  0  3  0  0  0  0  0  0
  -23.5610  -29.7980   20.2110 C   0  0  0  0  0  2  0  0  0  0  0  0
  -24.6250  -31.0920   22.1200 N   0  0  0  0  0  0  0  0  0  0  0  0
  -23.5050  -32.1650   23.7720 O   0  0  0  0  0  0  0  0  0  0  0  0
  -22.7150  -29.4710   22.5560 C   0  0  0  0  0  0  0  0  0  0  0  0
  -21.3890  -29.2950   22.4400 N   0  0  0  0  0  0  0  0  0  0  0  0
  -23.4030  -28.8430   23.3660 O   0  0  0  0  0  0  0  0  0  0  0  0
  -20.8970  -29.8530   21.7550 H   0  0  0  0  0  0  0  0  0  0  0  0
  -18.0140  -28.1230   22.9610 C   0  0  0  0  0  0  0  0  0  0  0  0
  -20.5740  -28.3620   23.2160 C   0  0  0  0  0  3  0  0  0  0  0  0
  -20.6630  -26.9310   22.6370 C   0  0  0  0  0  2  0  0  0  0  0  0
  -19.5520  -26.6170   21.6310 C   0  0  0  0  0  2  0  0  0  0  0  0
  -18.1760  -26.7710   22.2850 C   0  0  0  0  0  2  0  0  0  0  0  0
  -19.1400  -28.8770   23.3840 C   0  0  0  0  0  0  0  0  0  0  0  0
  -18.9360  -30.1420   23.9760 C   0  0  0  0  0  3  0  0  0  0  0  0
  -17.6370  -30.6540   24.1490 C   0  0  0  0  0  3  0  0  0  0  0  0
  -16.5230  -29.8980   23.7430 C   0  0  0  0  0  3  0  0  0  0  0  0
  -16.7130  -28.6340   23.1560 C   0  0  0  0  0  3  0  0  0  0  0  0
  -25.8760  -32.5170   23.8340 C   0  0  0  0  0  3  0  0  0  0  0  0
  -25.5740  -33.9130   24.1720 N   0  0  0  0  0  0  0  0  0  0  0  0
  -25.9040  -34.9670   23.4140 C   0  0  0  0  0  0  0  0  0  0  0  0
  -26.5680  -34.8660   22.3780 O   0  0  0  0  0  0  0  0  0  0  0  0
  -24.9840  -34.0670   24.9780 H   0  0  0  0  0  0  0  0  0  0  0  0
  -24.1770  -36.7630   23.0740 C   0  0  0  0  0  1  0  0  0  0  0  0
  -25.4220  -36.3550   23.8780 C   0  0  0  0  0  3  0  0  0  0  0  0
  -27.5630  -37.2280   24.6990 C   0  0  0  0  0  1  0  0  0  0  0  0
  -26.4560  -37.4050   23.7650 N   0  0  0  0  0  0  0  0  0  0  0  0
  -26.0520  -38.3250   23.9220 H   0  0  0  0  0  0  0  0  0  0  0  0
  -26.4090  -31.7370   25.0980 C   0  0  1  0  0  0  0  0  0  0  0  0
  -25.3290  -31.4950   26.1770 C   0  0  0  0  0  1  0  0  0  0  0  0
  -26.9860  -30.3620   24.6870 C   0  0  0  0  0  1  0  0  0  0  0  0
  -27.5690  -32.5270   25.7510 C   0  0  0  0  0  1  0  0  0  0  0  0
  2  3  1  0
  2  1  1  0
  3  5  1  0
  4  2  2  0
  6  7  1  0
  6  3  1  0
  7  8  1  0
  8 17  1  0
  9 17  1  0
 10 15  1  0
 11 12  1  0
 11 10  1  0
 13 12  1  0
 13 22  1  0
 13 14  1  0
 15  9  1  0
 15 14  1  0
 16  9  2  0
 17 18  1  0
 19 20  2  0
 20 39  1  0
 21 20  1  0
 21 24  1  0
 22 19  1  0
 22 23  1  0
 23 21  2  0
 24 25  1  0
 25 26  2  0
 27 30  1  0
 27 26  1  0
 28 27  2  0
 29 28  1  0
 29 24  2  0
 30 31  1  0
 31 32  1  0
 32 33  2  0
 34 33  1  0
 34 38  1  0
 35 34  2  0
 36 31  2  0
 36 35  1  0
 37 36  1  0
 39 40  1  0
 40 43  1  0
 40 42  1  0
 41 39  2  0
 44 45  1  0
 44 19  1  0
 46 44  1  0
 47  1  1  0
 48 47  1  0
 49 48  1  0
 50 49  1  0
 51 53  1  0
 51 50  1  0
 52 63  2  0
 53 58  1  0
 54 62  1  0
 54 64  1  0
 55 61  1  0
 55 57  1  0
 56 62  1  0
 57 56  1  0
 58 57  2  0
 59 60  1  0
 59 53  2  0
 60 55  2  0
 61 54  1  0
 62 52  1  0
 64 66  2  0
 65 64  1  0
 67 65  1  0
 68 77  2  0
 68 73  1  0
 69 65  1  0
 69 73  1  0
 70 69  1  0
 71 72  1  0
 71 70  1  0
 72 68  1  0
 73 74  2  0
 74 75  1  0
 76 75  2  0
 77 76  1  0
 78 52  1  0
 78 79  1  0
 78 88  1  0
 79 82  1  0
 80 84  1  0
 80 79  1  0
 81 80  2  0
 84 83  1  0
 86 84  1  0
 86 87  1  0
 86 85  1  0
 88 91  1  1
 88 89  1  0
 90 88  1  0
M  ISO  4   9 100  17 100  50 101  51 101
M  END
>  <TORSDO>  (84) 
F 24

>  <SCORE>  (84) 
-12.637

>  <name>  (84) 
84

>  <ligand_id>  (84) 
84

>  <original_smiles>  (84) 
[H]c1c([H])c([H])c2c(c1[H])C([H])([H])C([H])([H])C([H])([H])C2([H])N([H])C(=O)C1([H])N(C(=O)C([H])(N([H])C(=O)C([H])(N([H])C([H])([H])[H])C([H])([H])[H])C(C([H])([H])[H])(C([H])([H])[H])C([H])([H])[H])C([H])([H])c2c([H])c(OC([H])([H])C([H])([H])C([H])([H])C([H])([H])C([H])([H])C(=O)N([H])C([H])([H])C([H])([H])C([H])([H])N([H])C(=O)N3C([H])([H])C([H])([H])C([H])([H])C([H])(n4nc(-c5c([H])c([H])c(Oc6c([H])c([H])c(F)c([H])c6F)c([H])c5[H])c(C(=O)N([H])[H])c4N([H])[H])C3([H])[H])c([H])c([H])c2C1([H])[H]

>  <smiles>  (84) 
[H]c1c([H])c([H])c2c(c1[H])C([H])([H])C([H])([H])C([H])([H])C2([H])N([H])C(=O)C1([H])N(C(=O)C([H])(N([H])C(=O)C([H])(N([H])C([H])([H])[H])C([H])([H])[H])C(C([H])([H])[H])(C([H])([H])[H])C([H])([H])[H])C([H])([H])c2c([H])c(OC([H])([H])C([H])([H])C([H])([H])C([H])([H])C([H])([H])C(=O)N([H])C([H])([H])C([H])([H])C([H])([H])N([H])C(=O)N3C([H])([H])C([H])([H])C([H])([H])C([H])(n4nc(-c5c([H])c([H])c(Oc6c([H])c([H])c(F)c([H])c6F)c([H])c5[H])c(C(=O)N([H])[H])c4N([H])[H])C3([H])[H])c([H])c([H])c2C1([H])[H]

$$$$
85:0:0
     RDKit          3D

 88 95  0  0  1  0  0  0  0  0999 V2000
  -29.4750  -22.0820   20.1420 C   0  0  0  0  0  2  0  0  0  0  0  0
  -28.9880  -20.6770   20.5710 C   0  0  0  0  0  0  0  0  0  0  0  0
  -27.8280  -20.4990   20.9490 O   0  0  0  0  0  0  0  0  0  0  0  0
  -29.9980  -19.5070   20.5060 C   0  0  0  0  0  2  0  0  0  0  0  0
  -29.4110  -18.0710   20.6880 C   0  0  0  0  0  2  0  0  0  0  0  0
  -30.5070  -16.9680   20.7310 C   0  0  0  0  0  2  0  0  0  0  0  0
  -30.6810  -14.5060   20.3300 C   0  0  0  0  0  0  0  0  0  0  0  0
  -30.3490  -12.3430   19.1990 C   0  0  0  0  0  2  0  0  0  0  0  0
  -29.4050  -12.5550   17.9970 C   0  0  0  0  0  2  0  0  0  0  0  0
  -27.9350  -12.4240   18.4360 C   0  0  0  0  0  2  0  0  0  0  0  0
  -27.6070  -13.2600   19.7010 C   0  0  0  0  0  3  0  0  0  0  0  0
  -28.6700  -13.0510   20.8050 C   0  0  0  0  0  2  0  0  0  0  0  0
  -29.9890  -13.3390   20.2220 N   0  0  0  0  0  0  0  0  0  0  0  0
  -31.8200  -14.6440   19.8800 O   0  0  0  0  0  0  0  0  0  0  0  0
  -29.9970  -15.5780   20.7840 N   0  0  0  0  0  0  0  0  0  0  0  0
  -29.0600  -15.4220   21.1250 H   0  0  0  0  0  0  0  0  0  0  0  0
  -25.2120  -13.8700   20.4100 C   0  0  0  0  0  0  0  0  0  0  0  0
  -24.1430  -13.1010   20.7870 C   0  0  0  0  0  0  0  0  0  0  0  0
  -24.6040  -11.7490   20.7680 C   0  0  0  0  0  0  0  0  0  0  0  0
  -26.2560  -12.9880   20.1870 N   0  0  0  0  0  0  0  0  0  0  0  0
  -25.8940  -11.7070   20.4580 N   0  0  0  0  0  0  0  0  0  0  0  0
  -23.8770  -10.4900   20.9730 C   0  0  0  0  0  0  0  0  0  0  0  0
  -24.3070   -9.5330   21.9190 C   0  0  0  0  0  3  0  0  0  0  0  0
  -23.5820   -8.3370   22.1070 C   0  0  0  0  0  3  0  0  0  0  0  0
  -22.4110   -8.0900   21.3510 C   0  0  0  0  0  0  0  0  0  0  0  0
  -22.0010   -9.0350   20.3950 C   0  0  0  0  0  3  0  0  0  0  0  0
  -22.7270  -10.2230   20.2050 C   0  0  0  0  0  3  0  0  0  0  0  0
  -21.6580   -6.9460   21.4490 O   0  0  0  0  0  0  0  0  0  0  0  0
  -21.6030   -6.2160   22.6100 C   0  0  0  0  0  0  0  0  0  0  0  0
  -21.1610   -6.7830   23.8250 C   0  0  0  0  0  3  0  0  0  0  0  0
  -21.0560   -5.9780   24.9780 C   0  0  0  0  0  3  0  0  0  0  0  0
  -21.3810   -4.6110   24.9160 C   0  0  0  0  0  0  0  0  0  0  0  0
  -21.8160   -4.0440   23.7050 C   0  0  0  0  0  3  0  0  0  0  0  0
  -21.9230   -4.8450   22.5540 C   0  0  0  0  0  0  0  0  0  0  0  0
  -22.3230   -4.2900   21.3850 F   0  0  0  0  0  0  0  0  0  0  0  0
  -21.2730   -3.8370   26.0210 F   0  0  0  0  0  0  0  0  0  0  0  0
  -22.7480  -13.5820   21.0590 C   0  0  0  0  0  0  0  0  0  0  0  0
  -22.0200  -12.8930   21.9310 N   0  0  0  0  0  0  0  0  0  0  0  0
  -22.3100  -14.6050   20.5330 O   0  0  0  0  0  0  0  0  0  0  0  0
  -22.3870  -12.0650   22.3790 H   0  0  0  0  0  0  0  0  0  0  0  0
  -21.0840  -13.1980   22.1550 H   0  0  0  0  0  0  0  0  0  0  0  0
  -25.3760  -15.2390   20.2190 N   0  0  0  0  0  0  0  0  0  0  0  0
  -24.6060  -15.8910   20.3210 H   0  0  0  0  0  0  0  0  0  0  0  0
  -26.2220  -15.6760   19.8770 H   0  0  0  0  0  0  0  0  0  0  0  0
  -28.9600  -23.2850   20.9960 C   0  0  0  0  0  2  0  0  0  0  0  0
  -27.9420  -24.2440   20.3140 C   0  0  0  0  0  2  0  0  0  0  0  0
  -28.5410  -25.4440   19.5240 C   0  0  0  0  0  2  0  0  0  0  0  0
  -28.4450  -26.7220   20.1900 O   0  0  0  0  0  0  0  0  0  0  0  0
  -24.6100  -31.8890   23.2750 C   0  0  0  0  0  0  0  0  0  0  0  0
  -27.2560  -27.4370   20.1730 C   0  0  0  0  0  0  0  0  0  0  0  0
  -23.4070  -30.4940   21.6260 C   0  0  0  0  0  3  0  0  0  0  0  0
  -24.8600  -28.9620   20.1950 C   0  0  0  0  0  0  0  0  0  0  0  0
  -25.9360  -30.8450   21.4370 C   0  0  0  0  0  2  0  0  0  0  0  0
  -26.0200  -29.4760   20.7890 C   0  0  0  0  0  0  0  0  0  0  0  0
  -27.2170  -28.7200   20.7750 C   0  0  0  0  0  3  0  0  0  0  0  0
  -26.0690  -26.9390   19.5860 C   0  0  0  0  0  3  0  0  0  0  0  0
  -24.8810  -27.6940   19.5940 C   0  0  0  0  0  3  0  0  0  0  0  0
  -23.6180  -29.8230   20.2430 C   0  0  0  0  0  2  0  0  0  0  0  0
  -24.6700  -31.0910   22.1710 N   0  0  0  0  0  0  0  0  0  0  0  0
  -23.5280  -32.1590   23.8150 O   0  0  0  0  0  0  0  0  0  0  0  0
  -22.7550  -29.4670   22.5810 C   0  0  0  0  0  0  0  0  0  0  0  0
  -21.4320  -29.2810   22.4500 N   0  0  0  0  0  0  0  0  0  0  0  0
  -23.4380  -28.8410   23.3970 O   0  0  0  0  0  0  0  0  0  0  0  0
  -20.9420  -29.8380   21.7630 H   0  0  0  0  0  0  0  0  0  0  0  0
  -18.0590  -28.0790   22.9360 C   0  0  0  0  0  0  0  0  0  0  0  0
  -20.6150  -28.3390   23.2150 C   0  0  0  0  0  3  0  0  0  0  0  0
  -20.7210  -26.9110   22.6320 C   0  0  0  0  0  2  0  0  0  0  0  0
  -19.6220  -26.5910   21.6140 C   0  0  0  0  0  2  0  0  0  0  0  0
  -18.2390  -26.7330   22.2560 C   0  0  0  0  0  2  0  0  0  0  0  0
  -19.1750  -28.8400   23.3720 C   0  0  0  0  0  0  0  0  0  0  0  0
  -18.9540  -30.1020   23.9670 C   0  0  0  0  0  3  0  0  0  0  0  0
  -17.6490  -30.6020   24.1310 C   0  0  0  0  0  3  0  0  0  0  0  0
  -16.5460  -29.8370   23.7120 C   0  0  0  0  0  3  0  0  0  0  0  0
  -16.7520  -28.5780   23.1200 C   0  0  0  0  0  3  0  0  0  0  0  0
  -25.8950  -32.5180   23.8980 C   0  0  0  0  0  3  0  0  0  0  0  0
  -25.5920  -33.9200   24.2130 N   0  0  0  0  0  0  0  0  0  0  0  0
  -25.9360  -34.9640   23.4460 C   0  0  0  0  0  0  0  0  0  0  0  0
  -26.6140  -34.8460   22.4210 O   0  0  0  0  0  0  0  0  0  0  0  0
  -24.9920  -34.0850   25.0070 H   0  0  0  0  0  0  0  0  0  0  0  0
  -24.2230  -36.7640   23.0560 C   0  0  0  0  0  1  0  0  0  0  0  0
  -25.4520  -36.3590   23.8850 C   0  0  0  0  0  3  0  0  0  0  0  0
  -27.5820  -37.2390   24.7350 C   0  0  0  0  0  1  0  0  0  0  0  0
  -26.4930  -37.4040   23.7750 N   0  0  0  0  0  0  0  0  0  0  0  0
  -26.0910  -38.3280   23.9080 H   0  0  0  0  0  0  0  0  0  0  0  0
  -26.4000  -31.7550   25.1850 C   0  0  1  0  0  0  0  0  0  0  0  0
  -25.2980  -31.5330   26.2470 C   0  0  0  0  0  1  0  0  0  0  0  0
  -26.9790  -30.3710   24.8080 C   0  0  0  0  0  1  0  0  0  0  0  0
  -27.5500  -32.5510   25.8480 C   0  0  0  0  0  1  0  0  0  0  0  0
  1  2  1  0
  1 45  1  0
  2  3  2  0
  4  2  1  0
  4  5  1  0
  5  6  1  0
  6 15  1  0
  7 15  1  0
  8 13  1  0
  9 10  1  0
  9  8  1  0
 11 10  1  0
 11 20  1  0
 11 12  1  0
 13  7  1  0
 13 12  1  0
 14  7  2  0
 15 16  1  0
 17 18  2  0
 18 37  1  0
 19 18  1  0
 19 22  1  0
 20 17  1  0
 20 21  1  0
 21 19  2  0
 22 23  1  0
 23 24  2  0
 25 28  1  0
 25 24  1  0
 26 25  2  0
 27 26  1  0
 27 22  2  0
 28 29  1  0
 29 30  1  0
 30 31  2  0
 32 31  1  0
 32 36  1  0
 33 32  2  0
 34 29  2  0
 34 33  1  0
 35 34  1  0
 37 38  1  0
 38 41  1  0
 38 40  1  0
 39 37  2  0
 42 43  1  0
 42 17  1  0
 44 42  1  0
 46 45  1  0
 47 48  1  0
 47 46  1  0
 49 60  2  0
 50 48  1  0
 50 55  1  0
 51 59  1  0
 51 61  1  0
 52 58  1  0
 52 54  1  0
 53 59  1  0
 54 53  1  0
 55 54  2  0
 56 57  1  0
 56 50  2  0
 57 52  2  0
 58 51  1  0
 59 49  1  0
 61 63  2  0
 62 61  1  0
 64 62  1  0
 65 74  2  0
 65 70  1  0
 66 62  1  0
 66 70  1  0
 67 66  1  0
 68 69  1  0
 68 67  1  0
 69 65  1  0
 70 71  2  0
 71 72  1  0
 73 72  2  0
 74 73  1  0
 75 49  1  0
 75 76  1  0
 75 85  1  0
 76 79  1  0
 77 81  1  0
 77 76  1  0
 78 77  2  0
 81 80  1  0
 83 81  1  0
 83 84  1  0
 83 82  1  0
 85 88  1  1
 85 86  1  0
 87 85  1  0
M  ISO  4   7 100  15 100  47 101  48 101
M  END
>  <TORSDO>  (85) 
F 23

>  <SCORE>  (85) 
-12.507

>  <name>  (85) 
85

>  <ligand_id>  (85) 
85

>  <original_smiles>  (85) 
[H]c1c([H])c([H])c2c(c1[H])C([H])([H])C([H])([H])C([H])([H])C2([H])N([H])C(=O)C1([H])N(C(=O)C([H])(N([H])C(=O)C([H])(N([H])C([H])([H])[H])C([H])([H])[H])C(C([H])([H])[H])(C([H])([H])[H])C([H])([H])[H])C([H])([H])c2c([H])c(OC([H])([H])C([H])([H])C([H])([H])C([H])([H])C(=O)C([H])([H])C([H])([H])C([H])([H])N([H])C(=O)N3C([H])([H])C([H])([H])C([H])([H])C([H])(n4nc(-c5c([H])c([H])c(Oc6c([H])c([H])c(F)c([H])c6F)c([H])c5[H])c(C(=O)N([H])[H])c4N([H])[H])C3([H])[H])c([H])c([H])c2C1([H])[H]

>  <smiles>  (85) 
[H]c1c([H])c([H])c2c(c1[H])C([H])([H])C([H])([H])C([H])([H])C2([H])N([H])C(=O)C1([H])N(C(=O)C([H])(N([H])C(=O)C([H])(N([H])C([H])([H])[H])C([H])([H])[H])C(C([H])([H])[H])(C([H])([H])[H])C([H])([H])[H])C([H])([H])c2c([H])c(OC([H])([H])C([H])([H])C([H])([H])C([H])([H])C(=O)C([H])([H])C([H])([H])C([H])([H])N([H])C(=O)N3C([H])([H])C([H])([H])C([H])([H])C([H])(n4nc(-c5c([H])c([H])c(Oc6c([H])c([H])c(F)c([H])c6F)c([H])c5[H])c(C(=O)N([H])[H])c4N([H])[H])C3([H])[H])c([H])c([H])c2C1([H])[H]

$$$$
86:0:0
     RDKit          3D

 91 98  0  0  1  0  0  0  0  0999 V2000
  -29.6970  -23.1080   20.6680 N   0  0  0  0  0  4  0  0  0  0  0  0
  -29.5030  -23.1960   21.6550 H   0  0  0  0  0  0  0  0  0  0  0  0
  -30.6810  -22.9160   20.5740 H   0  0  0  0  0  0  0  0  0  0  0  0
  -29.4460  -24.4170   19.9650 C   0  0  0  0  0  2  0  0  0  0  0  0
  -28.3500  -25.3320   20.5910 C   0  0  0  0  0  2  0  0  0  0  0  0
  -28.4250  -26.7000   20.1100 O   0  0  0  0  0  0  0  0  0  0  0  0
  -24.6290  -31.9040   23.2270 C   0  0  0  0  0  0  0  0  0  0  0  0
  -27.2570  -27.4430   20.1340 C   0  0  0  0  0  0  0  0  0  0  0  0
  -23.4140  -30.5020   21.5910 C   0  0  0  0  0  3  0  0  0  0  0  0
  -24.8600  -28.9650   20.1570 C   0  0  0  0  0  0  0  0  0  0  0  0
  -25.9390  -30.8590   21.3770 C   0  0  0  0  0  2  0  0  0  0  0  0
  -26.0240  -29.4850   20.7370 C   0  0  0  0  0  0  0  0  0  0  0  0
  -27.2260  -28.7350   20.7170 C   0  0  0  0  0  3  0  0  0  0  0  0
  -26.0760  -26.9480   19.5350 C   0  0  0  0  0  3  0  0  0  0  0  0
  -24.8830  -27.6960   19.5490 C   0  0  0  0  0  3  0  0  0  0  0  0
  -23.6170  -29.8250   20.2100 C   0  0  0  0  0  2  0  0  0  0  0  0
  -24.6790  -31.1040   22.1230 N   0  0  0  0  0  0  0  0  0  0  0  0
  -23.5500  -32.1720   23.7750 O   0  0  0  0  0  0  0  0  0  0  0  0
  -22.7690  -29.4790   22.5560 C   0  0  0  0  0  0  0  0  0  0  0  0
  -21.4440  -29.2910   22.4330 N   0  0  0  0  0  0  0  0  0  0  0  0
  -23.4570  -28.8550   23.3670 O   0  0  0  0  0  0  0  0  0  0  0  0
  -20.9500  -29.8460   21.7500 H   0  0  0  0  0  0  0  0  0  0  0  0
  -18.0770  -28.0750   22.9410 C   0  0  0  0  0  0  0  0  0  0  0  0
  -20.6340  -28.3500   23.2060 C   0  0  0  0  0  3  0  0  0  0  0  0
  -20.7450  -26.9180   22.6350 C   0  0  0  0  0  2  0  0  0  0  0  0
  -19.6430  -26.5850   21.6230 C   0  0  0  0  0  2  0  0  0  0  0  0
  -18.2610  -26.7250   22.2670 C   0  0  0  0  0  2  0  0  0  0  0  0
  -19.1920  -28.8440   23.3670 C   0  0  0  0  0  0  0  0  0  0  0  0
  -18.9680  -30.1070   23.9550 C   0  0  0  0  0  3  0  0  0  0  0  0
  -17.6610  -30.6040   24.1200 C   0  0  0  0  0  3  0  0  0  0  0  0
  -16.5600  -29.8320   23.7090 C   0  0  0  0  0  3  0  0  0  0  0  0
  -16.7680  -28.5690   23.1270 C   0  0  0  0  0  3  0  0  0  0  0  0
  -25.9180  -32.5370   23.8370 C   0  0  0  0  0  3  0  0  0  0  0  0
  -26.4460  -31.7660   25.1090 C   0  0  1  0  0  0  0  0  0  0  0  0
  -25.3620  -31.5260   26.1860 C   0  0  0  0  0  1  0  0  0  0  0  0
  -27.0250  -30.3880   24.7090 C   0  0  0  0  0  1  0  0  0  0  0  0
  -27.6010  -32.5610   25.7610 C   0  0  0  0  0  1  0  0  0  0  0  0
  -25.6100  -33.9350   24.1690 N   0  0  0  0  0  0  0  0  0  0  0  0
  -25.9340  -34.9870   23.4060 C   0  0  0  0  0  0  0  0  0  0  0  0
  -26.6000  -34.8840   22.3720 O   0  0  0  0  0  0  0  0  0  0  0  0
  -25.0190  -34.0870   24.9740 H   0  0  0  0  0  0  0  0  0  0  0  0
  -24.2010  -36.7760   23.0570 C   0  0  0  0  0  1  0  0  0  0  0  0
  -25.4450  -36.3740   23.8640 C   0  0  0  0  0  3  0  0  0  0  0  0
  -27.5840  -37.2610   24.6810 C   0  0  0  0  0  1  0  0  0  0  0  0
  -26.4770  -37.4300   23.7460 N   0  0  0  0  0  0  0  0  0  0  0  0
  -26.0690  -38.3480   23.9010 H   0  0  0  0  0  0  0  0  0  0  0  0
  -28.9850  -21.8800   20.1990 C   0  0  0  0  0  3  0  0  0  0  0  0
  -27.6570  -21.8570   20.9660 C   0  0  0  0  0  3  0  0  0  0  0  0
  -27.5380  -22.2620   22.1270 O   0  0  0  0  0  0  0  0  0  0  0  0
  -29.8030  -20.5510   20.4380 C   0  0  0  0  0  3  0  0  0  0  0  0
  -29.0900  -19.2260   20.0010 C   0  0  0  0  0  3  0  0  0  0  0  0
  -29.9390  -17.9160   19.8360 C   0  0  0  0  0  2  0  0  0  0  0  0
  -30.1720  -17.0240   21.0960 C   0  0  0  0  0  2  0  0  0  0  0  0
  -30.6350  -14.5760   20.4450 C   0  0  0  0  0  0  0  0  0  0  0  0
  -30.3910  -12.3960   19.3000 C   0  0  0  0  0  2  0  0  0  0  0  0
  -29.4430  -12.5670   18.0930 C   0  0  0  0  0  2  0  0  0  0  0  0
  -27.9670  -12.4300   18.5200 C   0  0  0  0  0  2  0  0  0  0  0  0
  -27.6230  -13.2730   19.7750 C   0  0  0  0  0  3  0  0  0  0  0  0
  -28.6750  -13.0530   20.8850 C   0  0  0  0  0  2  0  0  0  0  0  0
  -29.9960  -13.3800   20.3200 N   0  0  0  0  0  0  0  0  0  0  0  0
  -31.7790  -14.7710   20.0250 O   0  0  0  0  0  0  0  0  0  0  0  0
  -29.8630  -15.5850   20.9110 N   0  0  0  0  0  0  0  0  0  0  0  0
  -28.9340  -15.3040   21.1850 H   0  0  0  0  0  0  0  0  0  0  0  0
  -25.2180  -13.8900   20.4580 C   0  0  0  0  0  0  0  0  0  0  0  0
  -24.1480  -13.1220   20.8320 C   0  0  0  0  0  0  0  0  0  0  0  0
  -24.6100  -11.7700   20.8240 C   0  0  0  0  0  0  0  0  0  0  0  0
  -26.2660  -13.0060   20.2490 N   0  0  0  0  0  0  0  0  0  0  0  0
  -25.9040  -11.7270   20.5280 N   0  0  0  0  0  0  0  0  0  0  0  0
  -23.8830  -10.5110   21.0280 C   0  0  0  0  0  0  0  0  0  0  0  0
  -24.3190   -9.5510   21.9680 C   0  0  0  0  0  3  0  0  0  0  0  0
  -23.5940   -8.3540   22.1570 C   0  0  0  0  0  3  0  0  0  0  0  0
  -22.4180   -8.1100   21.4070 C   0  0  0  0  0  0  0  0  0  0  0  0
  -22.0040   -9.0580   20.4550 C   0  0  0  0  0  3  0  0  0  0  0  0
  -22.7300  -10.2460   20.2640 C   0  0  0  0  0  3  0  0  0  0  0  0
  -21.6660   -6.9660   21.5060 O   0  0  0  0  0  0  0  0  0  0  0  0
  -21.6290   -6.2250   22.6600 C   0  0  0  0  0  0  0  0  0  0  0  0
  -21.2290   -6.7850   23.8920 C   0  0  0  0  0  3  0  0  0  0  0  0
  -21.1390   -5.9700   25.0390 C   0  0  0  0  0  3  0  0  0  0  0  0
  -21.4420   -4.5980   24.9550 C   0  0  0  0  0  0  0  0  0  0  0  0
  -21.8350   -4.0380   23.7270 C   0  0  0  0  0  3  0  0  0  0  0  0
  -21.9260   -4.8490   22.5820 C   0  0  0  0  0  0  0  0  0  0  0  0
  -22.2860   -4.3000   21.3970 F   0  0  0  0  0  0  0  0  0  0  0  0
  -21.3480   -3.8140   26.0540 F   0  0  0  0  0  0  0  0  0  0  0  0
  -22.7480  -13.6020   21.0850 C   0  0  0  0  0  0  0  0  0  0  0  0
  -22.0130  -12.9170   21.9550 N   0  0  0  0  0  0  0  0  0  0  0  0
  -22.3130  -14.6180   20.5450 O   0  0  0  0  0  0  0  0  0  0  0  0
  -22.3760  -12.0950   22.4120 H   0  0  0  0  0  0  0  0  0  0  0  0
  -21.0730  -13.2220   22.1660 H   0  0  0  0  0  0  0  0  0  0  0  0
  -25.3850  -15.2580   20.2590 N   0  0  0  0  0  0  0  0  0  0  0  0
  -24.6170  -15.9140   20.3450 H   0  0  0  0  0  0  0  0  0  0  0  0
  -26.2330  -15.6870   19.9090 H   0  0  0  0  0  0  0  0  0  0  0  0
  1  2  1  0
  3  1  1  0
  4  5  1  0
  4  1  1  0
  6  8  1  0
  6  5  1  0
  7 18  2  0
  8 13  1  0
  9 17  1  0
  9 19  1  0
 10 16  1  0
 10 12  1  0
 11 17  1  0
 12 11  1  0
 13 12  2  0
 14 15  1  0
 14  8  2  0
 15 10  2  0
 16  9  1  0
 17  7  1  0
 19 21  2  0
 20 19  1  0
 22 20  1  0
 23 32  2  0
 23 28  1  0
 24 20  1  0
 24 28  1  0
 25 24  1  0
 26 27  1  0
 26 25  1  0
 27 23  1  0
 28 29  2  0
 29 30  1  0
 31 30  2  0
 32 31  1  0
 33  7  1  0
 33 38  1  0
 33 34  1  0
 34 37  1  1
 34 35  1  0
 36 34  1  0
 38 41  1  0
 39 43  1  0
 39 38  1  0
 40 39  2  0
 43 42  1  0
 45 43  1  0
 45 46  1  0
 45 44  1  0
 47 50  1  0
 47  1  1  0
 47 48  1  0
 48 49  2  0
 51 50  2  0
 52 51  1  0
 52 53  1  0
 54 62  1  0
 55 60  1  0
 56 57  1  0
 56 55  1  0
 58 57  1  0
 58 67  1  0
 58 59  1  0
 60 54  1  0
 60 59  1  0
 61 54  2  0
 62 53  1  0
 62 63  1  0
 64 65  2  0
 65 84  1  0
 66 65  1  0
 66 69  1  0
 67 64  1  0
 67 68  1  0
 68 66  2  0
 69 70  1  0
 70 71  2  0
 72 75  1  0
 72 71  1  0
 73 72  2  0
 74 73  1  0
 74 69  2  0
 75 76  1  0
 76 77  1  0
 77 78  2  0
 79 78  1  0
 79 83  1  0
 80 79  2  0
 81 76  2  0
 81 80  1  0
 82 81  1  0
 84 85  1  0
 85 88  1  0
 85 87  1  0
 86 84  2  0
 89 90  1  0
 89 64  1  0
 91 89  1  0
M  ISO  4   5 101   6 101  54 100  62 100
M  END
>  <TORSDO>  (86) 
F 24

>  <SCORE>  (86) 
-12.202

>  <name>  (86) 
86

>  <ligand_id>  (86) 
86

>  <original_smiles>  (86) 
[H]C(=O)C([H])(C([H])([H])C([H])([H])C([H])([H])C([H])([H])N([H])C(=O)N1C([H])([H])C([H])([H])C([H])([H])C([H])(n2nc(-c3c([H])c([H])c(Oc4c([H])c([H])c(F)c([H])c4F)c([H])c3[H])c(C(=O)N([H])[H])c2N([H])[H])C1([H])[H])[N+]([H])([H])C([H])([H])C([H])([H])Oc1c([H])c([H])c2c(c1[H])C([H])([H])N(C(=O)C([H])(N([H])C(=O)C([H])(N([H])C([H])([H])[H])C([H])([H])[H])C(C([H])([H])[H])(C([H])([H])[H])C([H])([H])[H])C([H])(C(=O)N([H])C1([H])c3c([H])c([H])c([H])c([H])c3C([H])([H])C([H])([H])C1([H])[H])C2([H])[H]

>  <smiles>  (86) 
[H]C(=O)C([H])(C([H])([H])C([H])([H])C([H])([H])C([H])([H])N([H])C(=O)N1C([H])([H])C([H])([H])C([H])([H])C([H])(n2nc(-c3c([H])c([H])c(Oc4c([H])c([H])c(F)c([H])c4F)c([H])c3[H])c(C(=O)N([H])[H])c2N([H])[H])C1([H])[H])[N+]([H])([H])C([H])([H])C([H])([H])Oc1c([H])c([H])c2c(c1[H])C([H])([H])N(C(=O)C([H])(N([H])C(=O)C([H])(N([H])C([H])([H])[H])C([H])([H])[H])C(C([H])([H])[H])(C([H])([H])[H])C([H])([H])[H])C([H])(C(=O)N([H])C1([H])c3c([H])c([H])c([H])c([H])c3C([H])([H])C([H])([H])C1([H])[H])C2([H])[H]

$$$$
87:0:0
     RDKit          3D

 91 98  0  0  1  0  0  0  0  0999 V2000
  -28.6890  -23.0760   20.6970 N   0  0  0  0  0  4  0  0  0  0  0  0
  -27.7770  -22.7670   20.9930 H   0  0  0  0  0  0  0  0  0  0  0  0
  -28.7250  -22.9700   19.6940 H   0  0  0  0  0  0  0  0  0  0  0  0
  -27.9680  -24.8760   22.2490 C   0  0  0  0  0  1  0  0  0  0  0  0
  -28.8440  -24.5190   21.0310 C   0  0  0  0  0  3  0  0  0  0  0  0
  -28.5220  -25.3920   19.7930 C   0  0  0  0  0  2  0  0  0  0  0  0
  -28.4540  -26.7880   20.1260 O   0  0  0  0  0  0  0  0  0  0  0  0
  -24.6050  -31.9050   23.2200 C   0  0  0  0  0  0  0  0  0  0  0  0
  -27.2460  -27.4640   20.1240 C   0  0  0  0  0  0  0  0  0  0  0  0
  -23.3990  -30.5130   21.5700 C   0  0  0  0  0  3  0  0  0  0  0  0
  -24.8490  -28.9790   20.1470 C   0  0  0  0  0  0  0  0  0  0  0  0
  -25.9270  -30.8620   21.3830 C   0  0  0  0  0  2  0  0  0  0  0  0
  -26.0070  -29.4930   20.7410 C   0  0  0  0  0  0  0  0  0  0  0  0
  -27.2030  -28.7410   20.7290 C   0  0  0  0  0  3  0  0  0  0  0  0
  -26.0610  -26.9690   19.5220 C   0  0  0  0  0  3  0  0  0  0  0  0
  -24.8720  -27.7160   19.5390 C   0  0  0  0  0  3  0  0  0  0  0  0
  -23.6090  -29.8410   20.1890 C   0  0  0  0  0  2  0  0  0  0  0  0
  -24.6620  -31.1080   22.1160 N   0  0  0  0  0  0  0  0  0  0  0  0
  -23.5230  -32.1770   23.7570 O   0  0  0  0  0  0  0  0  0  0  0  0
  -22.7450  -29.4870   22.5230 C   0  0  0  0  0  0  0  0  0  0  0  0
  -21.4200  -29.3090   22.3920 N   0  0  0  0  0  0  0  0  0  0  0  0
  -23.4250  -28.8530   23.3350 O   0  0  0  0  0  0  0  0  0  0  0  0
  -20.9330  -29.8740   21.7100 H   0  0  0  0  0  0  0  0  0  0  0  0
  -18.0400  -28.1310   22.8760 C   0  0  0  0  0  0  0  0  0  0  0  0
  -20.5980  -28.3720   23.1560 C   0  0  0  0  0  3  0  0  0  0  0  0
  -20.6950  -26.9440   22.5720 C   0  0  0  0  0  2  0  0  0  0  0  0
  -19.5930  -26.6320   21.5550 C   0  0  0  0  0  2  0  0  0  0  0  0
  -18.2100  -26.7830   22.1960 C   0  0  0  0  0  2  0  0  0  0  0  0
  -19.1620  -28.8830   23.3130 C   0  0  0  0  0  0  0  0  0  0  0  0
  -18.9500  -30.1450   23.9090 C   0  0  0  0  0  3  0  0  0  0  0  0
  -17.6490  -30.6540   24.0740 C   0  0  0  0  0  3  0  0  0  0  0  0
  -16.5400  -29.8980   23.6550 C   0  0  0  0  0  3  0  0  0  0  0  0
  -16.7370  -28.6390   23.0610 C   0  0  0  0  0  3  0  0  0  0  0  0
  -25.8910  -32.5280   23.8440 C   0  0  0  0  0  3  0  0  0  0  0  0
  -26.4070  -31.7490   25.1160 C   0  0  1  0  0  0  0  0  0  0  0  0
  -25.3130  -31.5060   26.1810 C   0  0  0  0  0  1  0  0  0  0  0  0
  -26.9890  -30.3740   24.7130 C   0  0  0  0  0  1  0  0  0  0  0  0
  -27.5570  -32.5390   25.7830 C   0  0  0  0  0  1  0  0  0  0  0  0
  -25.5840  -33.9250   24.1790 N   0  0  0  0  0  0  0  0  0  0  0  0
  -25.9180  -34.9800   23.4230 C   0  0  0  0  0  0  0  0  0  0  0  0
  -26.5870  -34.8790   22.3900 O   0  0  0  0  0  0  0  0  0  0  0  0
  -24.9920  -34.0770   24.9830 H   0  0  0  0  0  0  0  0  0  0  0  0
  -24.1880  -36.7710   23.0750 C   0  0  0  0  0  1  0  0  0  0  0  0
  -25.4300  -36.3660   23.8840 C   0  0  0  0  0  3  0  0  0  0  0  0
  -27.5670  -37.2480   24.7100 C   0  0  0  0  0  1  0  0  0  0  0  0
  -26.4620  -37.4210   23.7710 N   0  0  0  0  0  0  0  0  0  0  0  0
  -26.0570  -38.3400   23.9230 H   0  0  0  0  0  0  0  0  0  0  0  0
  -29.7170  -22.1720   21.2590 C   0  0  0  0  0  2  0  0  0  0  0  0
  -29.3420  -20.6810   21.0860 C   0  0  0  0  0  2  0  0  0  0  0  0
  -30.5480  -19.7400   21.2620 C   0  0  0  0  0  2  0  0  0  0  0  0
  -30.1810  -18.2450   21.3490 C   0  0  0  0  0  2  0  0  0  0  0  0
  -31.4390  -17.3550   21.3380 C   0  0  0  0  0  2  0  0  0  0  0  0
  -31.2790  -15.9650   21.9860 C   0  0  0  0  0  2  0  0  0  0  0  0
  -30.7300  -14.3050   20.2050 C   0  0  0  0  0  0  0  0  0  0  0  0
  -30.2730  -12.2440   18.9250 C   0  0  0  0  0  2  0  0  0  0  0  0
  -29.2780  -12.4720   17.7730 C   0  0  0  0  0  2  0  0  0  0  0  0
  -27.8280  -12.3390   18.2730 C   0  0  0  0  0  2  0  0  0  0  0  0
  -27.5600  -13.1760   19.5500 C   0  0  0  0  0  3  0  0  0  0  0  0
  -28.6540  -12.9250   20.6100 C   0  0  0  0  0  2  0  0  0  0  0  0
  -29.9670  -13.2000   19.9990 N   0  0  0  0  0  0  0  0  0  0  0  0
  -31.7210  -14.5800   19.5220 O   0  0  0  0  0  0  0  0  0  0  0  0
  -30.3960  -15.0360   21.2770 N   0  0  0  0  0  0  0  0  0  0  0  0
  -29.5620  -14.7430   21.7660 H   0  0  0  0  0  0  0  0  0  0  0  0
  -25.2020  -13.8160   20.3620 C   0  0  0  0  0  0  0  0  0  0  0  0
  -24.1390  -13.0570   20.7750 C   0  0  0  0  0  0  0  0  0  0  0  0
  -24.5790  -11.6990   20.7190 C   0  0  0  0  0  0  0  0  0  0  0  0
  -26.2240  -12.9200   20.0850 N   0  0  0  0  0  0  0  0  0  0  0  0
  -25.8540  -11.6430   20.3540 N   0  0  0  0  0  0  0  0  0  0  0  0
  -23.8430  -10.4460   20.9380 C   0  0  0  0  0  0  0  0  0  0  0  0
  -24.2960   -9.4750   21.8580 C   0  0  0  0  0  3  0  0  0  0  0  0
  -23.5630   -8.2860   22.0630 C   0  0  0  0  0  3  0  0  0  0  0  0
  -22.3630   -8.0610   21.3470 C   0  0  0  0  0  0  0  0  0  0  0  0
  -21.9290   -9.0200   20.4150 C   0  0  0  0  0  3  0  0  0  0  0  0
  -22.6630  -10.2000   20.2090 C   0  0  0  0  0  3  0  0  0  0  0  0
  -21.5990   -6.9240   21.4620 O   0  0  0  0  0  0  0  0  0  0  0  0
  -21.5740   -6.1870   22.6190 C   0  0  0  0  0  0  0  0  0  0  0  0
  -21.2040   -6.7570   23.8570 C   0  0  0  0  0  3  0  0  0  0  0  0
  -21.1250   -5.9470   25.0080 C   0  0  0  0  0  3  0  0  0  0  0  0
  -21.4050   -4.5700   24.9220 C   0  0  0  0  0  0  0  0  0  0  0  0
  -21.7690   -4.0010   23.6890 C   0  0  0  0  0  3  0  0  0  0  0  0
  -21.8510   -4.8070   22.5400 C   0  0  0  0  0  0  0  0  0  0  0  0
  -22.1790   -4.2510   21.3500 F   0  0  0  0  0  0  0  0  0  0  0  0
  -21.3220   -3.7910   26.0250 F   0  0  0  0  0  0  0  0  0  0  0  0
  -22.7620  -13.5520   21.1100 C   0  0  0  0  0  0  0  0  0  0  0  0
  -22.0640  -12.8640   22.0060 N   0  0  0  0  0  0  0  0  0  0  0  0
  -22.3160  -14.5870   20.6140 O   0  0  0  0  0  0  0  0  0  0  0  0
  -22.4380  -12.0280   22.4300 H   0  0  0  0  0  0  0  0  0  0  0  0
  -21.1400  -13.1760   22.2710 H   0  0  0  0  0  0  0  0  0  0  0  0
  -25.3800  -15.1850   20.1830 N   0  0  0  0  0  0  0  0  0  0  0  0
  -24.6320  -15.8540   20.3310 H   0  0  0  0  0  0  0  0  0  0  0  0
  -26.2310  -15.6090   19.8350 H   0  0  0  0  0  0  0  0  0  0  0  0
  1  2  1  0
  1  5  1  0
  1 48  1  0
  3  1  1  0
  5  4  1  0
  6  7  1  0
  6  5  1  0
  8 19  2  0
  9  7  1  0
  9 14  1  0
 10 18  1  0
 10 20  1  0
 11 17  1  0
 11 13  1  0
 12 18  1  0
 13 12  1  0
 14 13  2  0
 15 16  1  0
 15  9  2  0
 16 11  2  0
 17 10  1  0
 18  8  1  0
 20 22  2  0
 21 20  1  0
 23 21  1  0
 24 33  2  0
 24 29  1  0
 25 21  1  0
 25 29  1  0
 26 25  1  0
 27 28  1  0
 27 26  1  0
 28 24  1  0
 29 30  2  0
 30 31  1  0
 32 31  2  0
 33 32  1  0
 34  8  1  0
 34 39  1  0
 34 35  1  0
 35 38  1  1
 35 36  1  0
 37 35  1  0
 39 42  1  0
 40 44  1  0
 40 39  1  0
 41 40  2  0
 44 43  1  0
 46 44  1  0
 46 47  1  0
 46 45  1  0
 49 48  1  0
 49 50  1  0
 50 51  1  0
 52 51  1  0
 52 53  1  0
 54 62  1  0
 55 60  1  0
 56 57  1  0
 56 55  1  0
 58 57  1  0
 58 67  1  0
 58 59  1  0
 60 54  1  0
 60 59  1  0
 61 54  2  0
 62 63  1  0
 62 53  1  0
 64 65  2  0
 65 84  1  0
 66 65  1  0
 66 69  1  0
 67 68  1  0
 67 64  1  0
 68 66  2  0
 69 70  1  0
 70 71  2  0
 72 75  1  0
 72 71  1  0
 73 72  2  0
 74 73  1  0
 74 69  2  0
 75 76  1  0
 76 77  1  0
 77 78  2  0
 79 78  1  0
 79 83  1  0
 80 79  2  0
 81 76  2  0
 81 80  1  0
 82 81  1  0
 84 85  1  0
 85 88  1  0
 85 87  1  0
 86 84  2  0
 89 90  1  0
 89 64  1  0
 91 89  1  0
M  ISO  4   6 101   7 101  54 100  62 100
M  END
>  <TORSDO>  (87) 
F 24

>  <SCORE>  (87) 
-12.107

>  <name>  (87) 
87

>  <ligand_id>  (87) 
87

>  <original_smiles>  (87) 
[H]c1c([H])c([H])c2c(c1[H])C([H])([H])C([H])([H])C([H])([H])C2([H])N([H])C(=O)C1([H])N(C(=O)C([H])(N([H])C(=O)C([H])(N([H])C([H])([H])[H])C([H])([H])[H])C(C([H])([H])[H])(C([H])([H])[H])C([H])([H])[H])C([H])([H])c2c([H])c(OC([H])([H])C([H])(C([H])([H])[H])[N+]([H])([H])C([H])([H])C([H])([H])C([H])([H])C([H])([H])C([H])([H])C([H])([H])N([H])C(=O)N3C([H])([H])C([H])([H])C([H])([H])C([H])(n4nc(-c5c([H])c([H])c(Oc6c([H])c([H])c(F)c([H])c6F)c([H])c5[H])c(C(=O)N([H])[H])c4N([H])[H])C3([H])[H])c([H])c([H])c2C1([H])[H]

>  <smiles>  (87) 
[H]c1c([H])c([H])c2c(c1[H])C([H])([H])C([H])([H])C([H])([H])C2([H])N([H])C(=O)C1([H])N(C(=O)C([H])(N([H])C(=O)C([H])(N([H])C([H])([H])[H])C([H])([H])[H])C(C([H])([H])[H])(C([H])([H])[H])C([H])([H])[H])C([H])([H])c2c([H])c(OC([H])([H])C([H])(C([H])([H])[H])[N+]([H])([H])C([H])([H])C([H])([H])C([H])([H])C([H])([H])C([H])([H])C([H])([H])N([H])C(=O)N3C([H])([H])C([H])([H])C([H])([H])C([H])(n4nc(-c5c([H])c([H])c(Oc6c([H])c([H])c(F)c([H])c6F)c([H])c5[H])c(C(=O)N([H])[H])c4N([H])[H])C3([H])[H])c([H])c([H])c2C1([H])[H]

$$$$
88:0:0
     RDKit          3D

 94102  0  0  1  0  0  0  0  0999 V2000
  -27.3010  -20.6670   19.8600 C   0  0  0  0  0  3  0  0  0  0  0  0
  -26.5060  -21.7240   20.3390 C   0  0  0  0  0  3  0  0  0  0  0  0
  -29.2670  -22.1040   19.9520 C   0  0  0  0  0  3  0  0  0  0  0  0
  -28.6850  -20.8470   19.6520 C   0  0  0  0  0  0  0  0  0  0  0  0
  -28.4700  -23.1780   20.4230 C   0  0  0  0  0  0  0  0  0  0  0  0
  -27.0770  -22.9830   20.6040 C   0  0  0  0  0  0  0  0  0  0  0  0
  -26.2470  -24.0250   21.0210 N   0  0  0  0  0  0  0  0  0  0  0  0
  -25.2800  -23.8750   21.2920 H   0  0  0  0  0  0  0  0  0  0  0  0
  -26.6110  -24.9440   21.2480 H   0  0  0  0  0  0  0  0  0  0  0  0
  -29.5200  -19.7380   19.0090 C   0  0  0  0  0  2  0  0  0  0  0  0
  -29.2850  -18.2910   19.5120 C   0  0  0  0  0  2  0  0  0  0  0  0
  -29.7080  -17.9980   20.9670 C   0  0  0  0  0  2  0  0  0  0  0  0
  -30.8040  -16.9160   21.1010 C   0  0  0  0  0  2  0  0  0  0  0  0
  -30.9400  -14.5680   20.2560 C   0  0  0  0  0  0  0  0  0  0  0  0
  -30.5780  -12.4460   19.0570 C   0  0  0  0  0  2  0  0  0  0  0  0
  -29.6270  -12.7030   17.8720 C   0  0  0  0  0  2  0  0  0  0  0  0
  -28.1540  -12.5790   18.3150 C   0  0  0  0  0  2  0  0  0  0  0  0
  -27.8520  -13.3840   19.6070 C   0  0  0  0  0  3  0  0  0  0  0  0
  -28.9200  -13.1210   20.6920 C   0  0  0  0  0  2  0  0  0  0  0  0
  -30.2410  -13.4110   20.1110 N   0  0  0  0  0  0  0  0  0  0  0  0
  -32.0440  -14.7600   19.7380 O   0  0  0  0  0  0  0  0  0  0  0  0
  -30.3000  -15.5500   20.9080 N   0  0  0  0  0  0  0  0  0  0  0  0
  -29.3990  -15.3200   21.3010 H   0  0  0  0  0  0  0  0  0  0  0  0
  -25.4680  -13.9990   20.3490 C   0  0  0  0  0  0  0  0  0  0  0  0
  -24.4010  -13.2300   20.7340 C   0  0  0  0  0  0  0  0  0  0  0  0
  -24.8540  -11.8770   20.6890 C   0  0  0  0  0  0  0  0  0  0  0  0
  -26.5050  -13.1120   20.1040 N   0  0  0  0  0  0  0  0  0  0  0  0
  -26.1400  -11.8300   20.3620 N   0  0  0  0  0  0  0  0  0  0  0  0
  -24.1250  -10.6160   20.8800 C   0  0  0  0  0  0  0  0  0  0  0  0
  -24.5250   -9.6700   21.8500 C   0  0  0  0  0  3  0  0  0  0  0  0
  -23.7980   -8.4720   22.0260 C   0  0  0  0  0  3  0  0  0  0  0  0
  -22.6540   -8.2160   21.2340 C   0  0  0  0  0  0  0  0  0  0  0  0
  -22.2760   -9.1490   20.2530 C   0  0  0  0  0  3  0  0  0  0  0  0
  -23.0040  -10.3370   20.0740 C   0  0  0  0  0  3  0  0  0  0  0  0
  -21.9010   -7.0710   21.3170 O   0  0  0  0  0  0  0  0  0  0  0  0
  -21.7660   -6.3800   22.4950 C   0  0  0  0  0  0  0  0  0  0  0  0
  -21.1970   -6.9720   23.6430 C   0  0  0  0  0  3  0  0  0  0  0  0
  -21.0130   -6.2060   24.8110 C   0  0  0  0  0  3  0  0  0  0  0  0
  -21.3910   -4.8500   24.8310 C   0  0  0  0  0  0  0  0  0  0  0  0
  -21.9570   -4.2600   23.6880 C   0  0  0  0  0  3  0  0  0  0  0  0
  -22.1390   -5.0220   22.5220 C   0  0  0  0  0  0  0  0  0  0  0  0
  -22.6640   -4.4430   21.4140 F   0  0  0  0  0  0  0  0  0  0  0  0
  -21.2090   -4.1110   25.9490 F   0  0  0  0  0  0  0  0  0  0  0  0
  -23.0130  -13.7150   21.0340 C   0  0  0  0  0  0  0  0  0  0  0  0
  -22.2950  -13.0120   21.9050 N   0  0  0  0  0  0  0  0  0  0  0  0
  -22.5740  -14.7480   20.5320 O   0  0  0  0  0  0  0  0  0  0  0  0
  -22.6670  -12.1740   22.3290 H   0  0  0  0  0  0  0  0  0  0  0  0
  -21.3640  -13.3180   22.1510 H   0  0  0  0  0  0  0  0  0  0  0  0
  -25.6370  -15.3670   20.1690 N   0  0  0  0  0  0  0  0  0  0  0  0
  -24.8650  -16.0200   20.2410 H   0  0  0  0  0  0  0  0  0  0  0  0
  -26.4700  -15.7900   19.7780 H   0  0  0  0  0  0  0  0  0  0  0  0
  -29.1050  -24.5360   20.7370 C   0  0  0  0  0  2  0  0  0  0  0  0
  -28.9500  -25.5710   19.6020 C   0  0  0  0  0  2  0  0  0  0  0  0
  -28.7460  -26.8960   20.1140 O   0  0  0  0  0  0  0  0  0  0  0  0
  -24.5400  -31.7530   23.1850 C   0  0  0  0  0  0  0  0  0  0  0  0
  -27.5000  -27.4980   20.0930 C   0  0  0  0  0  0  0  0  0  0  0  0
  -23.4580  -30.3300   21.4750 C   0  0  0  0  0  3  0  0  0  0  0  0
  -25.0250  -28.8910   20.0740 C   0  0  0  0  0  0  0  0  0  0  0  0
  -25.9730  -30.8030   21.3780 C   0  0  0  0  0  2  0  0  0  0  0  0
  -26.1390  -29.4520   20.7090 C   0  0  0  0  0  0  0  0  0  0  0  0
  -27.3740  -28.7650   20.7120 C   0  0  0  0  0  3  0  0  0  0  0  0
  -26.3530  -26.9440   19.4730 C   0  0  0  0  0  3  0  0  0  0  0  0
  -25.1280  -27.6370   19.4540 C   0  0  0  0  0  3  0  0  0  0  0  0
  -23.7460  -29.6920   20.0920 C   0  0  0  0  0  2  0  0  0  0  0  0
  -24.6710  -30.9800   22.0700 N   0  0  0  0  0  0  0  0  0  0  0  0
  -23.4290  -31.9620   23.6920 O   0  0  0  0  0  0  0  0  0  0  0  0
  -22.8270  -29.2580   22.3930 C   0  0  0  0  0  0  0  0  0  0  0  0
  -21.5110  -29.0380   22.2340 N   0  0  0  0  0  0  0  0  0  0  0  0
  -23.5170  -28.6320   23.2020 O   0  0  0  0  0  0  0  0  0  0  0  0
  -21.0210  -29.5960   21.5490 H   0  0  0  0  0  0  0  0  0  0  0  0
  -18.1640  -27.7370   22.6600 C   0  0  0  0  0  0  0  0  0  0  0  0
  -20.7140  -28.0450   22.9540 C   0  0  0  0  0  3  0  0  0  0  0  0
  -20.8560  -26.6470   22.3100 C   0  0  0  0  0  2  0  0  0  0  0  0
  -19.7630  -26.3510   21.2760 C   0  0  0  0  0  2  0  0  0  0  0  0
  -18.3760  -26.4280   21.9180 C   0  0  0  0  0  2  0  0  0  0  0  0
  -19.2630  -28.5060   23.1290 C   0  0  0  0  0  0  0  0  0  0  0  0
  -19.0130  -29.7340   23.7770 C   0  0  0  0  0  3  0  0  0  0  0  0
  -17.6960  -30.2010   23.9560 C   0  0  0  0  0  3  0  0  0  0  0  0
  -16.6120  -29.4310   23.5010 C   0  0  0  0  0  3  0  0  0  0  0  0
  -16.8470  -28.2000   22.8620 C   0  0  0  0  0  3  0  0  0  0  0  0
  -25.7740  -32.4280   23.8610 C   0  0  0  0  0  3  0  0  0  0  0  0
  -25.4080  -33.8190   24.1570 N   0  0  0  0  0  0  0  0  0  0  0  0
  -25.7330  -34.8700   23.3910 C   0  0  0  0  0  0  0  0  0  0  0  0
  -26.4490  -34.7720   22.3890 O   0  0  0  0  0  0  0  0  0  0  0  0
  -24.7770  -33.9660   24.9320 H   0  0  0  0  0  0  0  0  0  0  0  0
  -23.9670  -36.5990   22.9260 C   0  0  0  0  0  1  0  0  0  0  0  0
  -25.1800  -36.2480   23.8020 C   0  0  0  0  0  3  0  0  0  0  0  0
  -27.2370  -37.2190   24.7270 C   0  0  0  0  0  1  0  0  0  0  0  0
  -26.1830  -37.3320   23.7220 N   0  0  0  0  0  0  0  0  0  0  0  0
  -25.7430  -38.2430   23.8260 H   0  0  0  0  0  0  0  0  0  0  0  0
  -26.2540  -31.6860   25.1680 C   0  0  1  0  0  0  0  0  0  0  0  0
  -25.1210  -31.4190   26.1860 C   0  0  0  0  0  1  0  0  0  0  0  0
  -26.9010  -30.3250   24.8210 C   0  0  0  0  0  1  0  0  0  0  0  0
  -27.3470  -32.5260   25.8730 C   0  0  0  0  0  1  0  0  0  0  0  0
  1  2  1  0
  2  6  2  0
  3  5  2  0
  4  1  2  0
  4  3  1  0
  5  6  1  0
  5 52  1  0
  6  7  1  0
  7  9  1  0
  7  8  1  0
 10 11  1  0
 10  4  1  0
 11 12  1  0
 12 13  1  0
 14 22  1  0
 15 20  1  0
 16 17  1  0
 16 15  1  0
 18 17  1  0
 18 27  1  0
 18 19  1  0
 20 14  1  0
 20 19  1  0
 21 14  2  0
 22 13  1  0
 22 23  1  0
 24 25  2  0
 25 44  1  0
 26 25  1  0
 26 29  1  0
 27 24  1  0
 27 28  1  0
 28 26  2  0
 29 30  1  0
 30 31  2  0
 32 35  1  0
 32 31  1  0
 33 32  2  0
 34 33  1  0
 34 29  2  0
 35 36  1  0
 36 41  2  0
 36 37  1  0
 37 38  2  0
 38 39  1  0
 39 43  1  0
 40 39  2  0
 41 40  1  0
 42 41  1  0
 44 45  1  0
 45 48  1  0
 45 47  1  0
 46 44  2  0
 49 50  1  0
 49 24  1  0
 51 49  1  0
 53 54  1  0
 53 52  1  0
 55 66  2  0
 56 54  1  0
 56 61  1  0
 57 65  1  0
 57 67  1  0
 58 64  1  0
 58 60  1  0
 59 65  1  0
 60 61  2  0
 60 59  1  0
 62 56  2  0
 63 62  1  0
 63 58  2  0
 64 57  1  0
 65 55  1  0
 67 69  2  0
 68 67  1  0
 70 68  1  0
 71 80  2  0
 71 76  1  0
 72 68  1  0
 72 76  1  0
 73 72  1  0
 74 75  1  0
 74 73  1  0
 75 71  1  0
 76 77  2  0
 77 78  1  0
 79 78  2  0
 80 79  1  0
 81 55  1  0
 81 82  1  0
 81 91  1  0
 82 85  1  0
 83 87  1  0
 83 82  1  0
 84 83  2  0
 87 86  1  0
 89 87  1  0
 89 90  1  0
 89 88  1  0
 91 94  1  1
 91 92  1  0
 93 91  1  0
M  ISO  4  14 100  22 100  53 101  54 101
M  END
>  <TORSDO>  (88) 
F 23

>  <SCORE>  (88) 
-11.820

>  <name>  (88) 
88

>  <ligand_id>  (88) 
88

>  <original_smiles>  (88) 
[H]c1c([H])c([H])c2c(c1[H])C([H])([H])C([H])([H])C([H])([H])C2([H])N([H])C(=O)C1([H])N(C(=O)C([H])(N([H])C(=O)C([H])(N([H])C([H])([H])[H])C([H])([H])[H])C(C([H])([H])[H])(C([H])([H])[H])C([H])([H])[H])C([H])([H])c2c([H])c(OC([H])([H])C([H])([H])c3c([H])c(C([H])([H])C([H])([H])C([H])([H])C([H])([H])N([H])C(=O)N4C([H])([H])C([H])([H])C([H])([H])C([H])(n5nc(-c6c([H])c([H])c(Oc7c([H])c([H])c(F)c([H])c7F)c([H])c6[H])c(C(=O)N([H])[H])c5N([H])[H])C4([H])[H])c([H])c([H])c3N([H])[H])c([H])c([H])c2C1([H])[H]

>  <smiles>  (88) 
[H]c1c([H])c([H])c2c(c1[H])C([H])([H])C([H])([H])C([H])([H])C2([H])N([H])C(=O)C1([H])N(C(=O)C([H])(N([H])C(=O)C([H])(N([H])C([H])([H])[H])C([H])([H])[H])C(C([H])([H])[H])(C([H])([H])[H])C([H])([H])[H])C([H])([H])c2c([H])c(OC([H])([H])C([H])([H])c3c([H])c(C([H])([H])C([H])([H])C([H])([H])C([H])([H])N([H])C(=O)N4C([H])([H])C([H])([H])C([H])([H])C([H])(n5nc(-c6c([H])c([H])c(Oc7c([H])c([H])c(F)c([H])c7F)c([H])c6[H])c(C(=O)N([H])[H])c5N([H])[H])C4([H])[H])c([H])c([H])c3N([H])[H])c([H])c([H])c2C1([H])[H]

$$$$
89:0:0
     RDKit          3D

 97105  0  0  1  0  0  0  0  0999 V2000
  -27.6940  -22.6180   18.0340 C   0  0  0  0  0  3  0  0  0  0  0  0
  -27.7310  -21.2930   17.5560 C   0  0  0  0  0  3  0  0  0  0  0  0
  -29.8900  -23.0150   17.0810 C   0  0  0  0  0  3  0  0  0  0  0  0
  -28.7740  -23.4960   17.8020 C   0  0  0  0  0  0  0  0  0  0  0  0
  -28.8450  -20.8060   16.8400 C   0  0  0  0  0  0  0  0  0  0  0  0
  -29.9330  -21.6870   16.5870 C   0  0  0  0  0  0  0  0  0  0  0  0
  -31.1430  -21.2530   15.7690 C   0  0  0  0  0  1  0  0  0  0  0  0
  -28.7080  -24.9520   18.2870 C   0  0  0  0  0  2  0  0  0  0  0  0
  -28.4980  -25.1010   19.8130 C   0  0  0  0  0  2  0  0  0  0  0  0
  -28.4360  -26.4630   20.2710 O   0  0  0  0  0  0  0  0  0  0  0  0
  -24.5650  -31.6500   23.2620 C   0  0  0  0  0  0  0  0  0  0  0  0
  -27.2380  -27.1560   20.2480 C   0  0  0  0  0  0  0  0  0  0  0  0
  -23.3810  -30.2690   21.5830 C   0  0  0  0  0  3  0  0  0  0  0  0
  -24.8510  -28.6950   20.2040 C   0  0  0  0  0  0  0  0  0  0  0  0
  -25.9170  -30.5720   21.4660 C   0  0  0  0  0  2  0  0  0  0  0  0
  -25.9950  -29.1980   20.8310 C   0  0  0  0  0  0  0  0  0  0  0  0
  -27.1850  -28.4350   20.8540 C   0  0  0  0  0  3  0  0  0  0  0  0
  -26.0710  -26.6650   19.6190 C   0  0  0  0  0  3  0  0  0  0  0  0
  -24.8850  -27.4280   19.5910 C   0  0  0  0  0  3  0  0  0  0  0  0
  -23.6200  -29.5740   20.2130 C   0  0  0  0  0  2  0  0  0  0  0  0
  -24.6380  -30.8450   22.1630 N   0  0  0  0  0  0  0  0  0  0  0  0
  -23.4740  -31.9430   23.7730 O   0  0  0  0  0  0  0  0  0  0  0  0
  -22.6820  -29.2660   22.5270 C   0  0  0  0  0  0  0  0  0  0  0  0
  -21.3600  -29.1050   22.3580 N   0  0  0  0  0  0  0  0  0  0  0  0
  -23.3260  -28.6330   23.3690 O   0  0  0  0  0  0  0  0  0  0  0  0
  -20.9040  -29.6580   21.6440 H   0  0  0  0  0  0  0  0  0  0  0  0
  -17.9540  -27.9580   22.7300 C   0  0  0  0  0  0  0  0  0  0  0  0
  -20.5020  -28.1870   23.1050 C   0  0  0  0  0  3  0  0  0  0  0  0
  -20.6100  -26.7490   22.5460 C   0  0  0  0  0  2  0  0  0  0  0  0
  -19.5450  -26.4300   21.4940 C   0  0  0  0  0  2  0  0  0  0  0  0
  -18.1400  -26.6000   22.0780 C   0  0  0  0  0  2  0  0  0  0  0  0
  -19.0640  -28.7110   23.2000 C   0  0  0  0  0  0  0  0  0  0  0  0
  -18.8360  -29.9860   23.7650 C   0  0  0  0  0  3  0  0  0  0  0  0
  -17.5320  -30.5040   23.8710 C   0  0  0  0  0  3  0  0  0  0  0  0
  -16.4380  -29.7480   23.4210 C   0  0  0  0  0  3  0  0  0  0  0  0
  -16.6490  -28.4780   22.8540 C   0  0  0  0  0  3  0  0  0  0  0  0
  -25.8440  -32.2610   23.9140 C   0  0  0  0  0  3  0  0  0  0  0  0
  -26.2960  -31.4940   25.2170 C   0  0  1  0  0  0  0  0  0  0  0  0
  -25.1610  -31.2950   26.2480 C   0  0  0  0  0  1  0  0  0  0  0  0
  -26.8600  -30.0990   24.8580 C   0  0  0  0  0  1  0  0  0  0  0  0
  -27.4430  -32.2670   25.9080 C   0  0  0  0  0  1  0  0  0  0  0  0
  -25.5620  -33.6690   24.2170 N   0  0  0  0  0  0  0  0  0  0  0  0
  -25.9280  -34.7030   23.4470 C   0  0  0  0  0  0  0  0  0  0  0  0
  -26.6140  -34.5690   22.4300 O   0  0  0  0  0  0  0  0  0  0  0  0
  -24.9660  -33.8450   25.0120 H   0  0  0  0  0  0  0  0  0  0  0  0
  -24.2430  -36.5210   23.0280 C   0  0  0  0  0  1  0  0  0  0  0  0
  -25.4610  -36.1090   23.8710 C   0  0  0  0  0  3  0  0  0  0  0  0
  -27.5960  -36.9660   24.7260 C   0  0  0  0  0  1  0  0  0  0  0  0
  -26.5150  -37.1420   23.7610 N   0  0  0  0  0  0  0  0  0  0  0  0
  -26.1240  -38.0710   23.8890 H   0  0  0  0  0  0  0  0  0  0  0  0
  -28.7920  -19.3720   16.3050 C   0  0  0  0  0  2  0  0  0  0  0  0
  -29.9020  -18.4080   16.7870 C   0  0  0  0  0  2  0  0  0  0  0  0
  -29.7910  -17.9280   18.2470 C   0  0  0  0  0  2  0  0  0  0  0  0
  -30.4650  -18.8640   19.2710 C   0  0  0  0  0  2  0  0  0  0  0  0
  -28.6500  -19.0100   21.0440 C   0  0  0  0  0  1  0  0  0  0  0  0
  -30.1010  -18.5940   20.7520 C   0  0  0  0  0  3  0  0  0  0  0  0
  -30.3380  -17.1380   21.2140 C   0  0  0  0  0  2  0  0  0  0  0  0
  -31.7740  -16.6150   20.9840 C   0  0  0  0  0  2  0  0  0  0  0  0
  -31.9950  -15.1840   21.4990 C   0  0  0  0  0  2  0  0  0  0  0  0
  -31.0100  -13.7630   19.6800 C   0  0  0  0  0  0  0  0  0  0  0  0
  -30.3260  -11.7200   18.4860 C   0  0  0  0  0  2  0  0  0  0  0  0
  -29.2460  -11.9210   17.4140 C   0  0  0  0  0  2  0  0  0  0  0  0
  -27.8450  -11.8510   18.0410 C   0  0  0  0  0  2  0  0  0  0  0  0
  -27.7040  -12.7920   19.2630 C   0  0  0  0  0  3  0  0  0  0  0  0
  -28.8680  -12.5860   20.2550 C   0  0  0  0  0  2  0  0  0  0  0  0
  -30.1500  -12.7310   19.5370 N   0  0  0  0  0  0  0  0  0  0  0  0
  -31.8360  -14.0990   18.8240 O   0  0  0  0  0  0  0  0  0  0  0  0
  -31.0400  -14.2390   20.9300 N   0  0  0  0  0  0  0  0  0  0  0  0
  -30.3620  -13.8410   21.5650 H   0  0  0  0  0  0  0  0  0  0  0  0
  -25.4760  -13.5820   20.2870 C   0  0  0  0  0  0  0  0  0  0  0  0
  -24.4060  -12.8910   20.7920 C   0  0  0  0  0  0  0  0  0  0  0  0
  -24.7470  -11.5090   20.6920 C   0  0  0  0  0  0  0  0  0  0  0  0
  -26.4070  -12.6230   19.9160 N   0  0  0  0  0  0  0  0  0  0  0  0
  -25.9780  -11.3700   20.2140 N   0  0  0  0  0  0  0  0  0  0  0  0
  -23.9540  -10.3040   20.9740 C   0  0  0  0  0  0  0  0  0  0  0  0
  -24.4140   -9.3040   21.8590 C   0  0  0  0  0  3  0  0  0  0  0  0
  -23.6250   -8.1650   22.1250 C   0  0  0  0  0  3  0  0  0  0  0  0
  -22.3600   -8.0190   21.5080 C   0  0  0  0  0  0  0  0  0  0  0  0
  -21.9160   -9.0050   20.6100 C   0  0  0  0  0  3  0  0  0  0  0  0
  -22.7050  -10.1360   20.3420 C   0  0  0  0  0  3  0  0  0  0  0  0
  -21.5350   -6.9330   21.6870 O   0  0  0  0  0  0  0  0  0  0  0  0
  -21.5500   -6.2020   22.8470 C   0  0  0  0  0  0  0  0  0  0  0  0
  -21.2970   -6.7920   24.1040 C   0  0  0  0  0  3  0  0  0  0  0  0
  -21.2530   -5.9900   25.2620 C   0  0  0  0  0  3  0  0  0  0  0  0
  -21.4540   -4.6010   25.1650 C   0  0  0  0  0  0  0  0  0  0  0  0
  -21.7020   -4.0100   23.9140 C   0  0  0  0  0  3  0  0  0  0  0  0
  -21.7480   -4.8090   22.7580 C   0  0  0  0  0  0  0  0  0  0  0  0
  -21.9650   -4.2310   21.5510 F   0  0  0  0  0  0  0  0  0  0  0  0
  -21.4050   -3.8290   26.2760 F   0  0  0  0  0  0  0  0  0  0  0  0
  -23.1010  -13.4740   21.2520 C   0  0  0  0  0  0  0  0  0  0  0  0
  -22.4520  -12.8350   22.2220 N   0  0  0  0  0  0  0  0  0  0  0  0
  -22.6710  -14.5280   20.7880 O   0  0  0  0  0  0  0  0  0  0  0  0
  -22.8150  -11.9810   22.6160 H   0  0  0  0  0  0  0  0  0  0  0  0
  -21.5820  -13.2070   22.5720 H   0  0  0  0  0  0  0  0  0  0  0  0
  -25.7270  -14.9370   20.0970 N   0  0  0  0  0  0  0  0  0  0  0  0
  -25.0420  -15.6530   20.3140 H   0  0  0  0  0  0  0  0  0  0  0  0
  -26.5750  -15.3100   19.6890 H   0  0  0  0  0  0  0  0  0  0  0  0
  2  1  2  0
  3  4  2  0
  4  1  1  0
  4  8  1  0
  5  2  1  0
  6  5  2  0
  6  3  1  0
  7  6  1  0
  8  9  1  0
  9 10  1  0
 11 22  2  0
 12 10  1  0
 12 17  1  0
 13 21  1  0
 13 23  1  0
 14 20  1  0
 14 16  1  0
 15 21  1  0
 16 17  2  0
 16 15  1  0
 18 12  2  0
 19 18  1  0
 19 14  2  0
 20 13  1  0
 21 11  1  0
 23 25  2  0
 24 23  1  0
 26 24  1  0
 27 36  2  0
 27 32  1  0
 28 24  1  0
 28 32  1  0
 29 28  1  0
 30 31  1  0
 30 29  1  0
 31 27  1  0
 32 33  2  0
 33 34  1  0
 35 34  2  0
 36 35  1  0
 37 11  1  0
 37 42  1  0
 37 38  1  0
 38 41  1  1
 38 39  1  0
 40 38  1  0
 42 45  1  0
 43 47  1  0
 43 42  1  0
 44 43  2  0
 47 46  1  0
 49 47  1  0
 49 50  1  0
 49 48  1  0
 51 52  1  0
 51  5  1  0
 52 53  1  0
 53 54  1  0
 54 56  1  0
 56 55  1  0
 56 57  1  0
 58 57  1  0
 58 59  1  0
 60 68  1  0
 61 66  1  0
 62 63  1  0
 62 61  1  0
 64 63  1  0
 64 73  1  0
 64 65  1  0
 66 60  1  0
 66 65  1  0
 67 60  2  0
 68 59  1  0
 68 69  1  0
 70 71  2  0
 71 90  1  0
 72 71  1  0
 72 75  1  0
 73 74  1  0
 73 70  1  0
 74 72  2  0
 75 76  1  0
 76 77  2  0
 78 81  1  0
 78 77  1  0
 79 78  2  0
 80 79  1  0
 80 75  2  0
 81 82  1  0
 82 83  1  0
 83 84  2  0
 85 84  1  0
 85 89  1  0
 86 85  2  0
 87 82  2  0
 87 86  1  0
 88 87  1  0
 90 91  1  0
 91 94  1  0
 91 93  1  0
 92 90  2  0
 95 70  1  0
 95 96  1  0
 97 95  1  0
M  ISO  4   9 101  10 101  60 100  68 100
M  END
>  <TORSDO>  (89) 
F 26

>  <SCORE>  (89) 
-10.249

>  <name>  (89) 
89

>  <ligand_id>  (89) 
89

>  <original_smiles>  (89) 
[H]c1c([H])c([H])c2c(c1[H])C([H])([H])C([H])([H])C([H])([H])C2([H])N([H])C(=O)C1([H])N(C(=O)C([H])(N([H])C(=O)C([H])(N([H])C([H])([H])[H])C([H])([H])[H])C(C([H])([H])[H])(C([H])([H])[H])C([H])([H])[H])C([H])([H])c2c([H])c(OC([H])([H])C([H])([H])c3c([H])c([H])c(C([H])([H])C([H])([H])C([H])([H])C([H])([H])C([H])(C([H])([H])[H])C([H])([H])C([H])([H])C([H])([H])N([H])C(=O)N4C([H])([H])C([H])([H])C([H])([H])C([H])(n5nc(-c6c([H])c([H])c(Oc7c([H])c([H])c(F)c([H])c7F)c([H])c6[H])c(C(=O)N([H])[H])c5N([H])[H])C4([H])[H])c(C([H])([H])[H])c3[H])c([H])c([H])c2C1([H])[H]

>  <smiles>  (89) 
[H]c1c([H])c([H])c2c(c1[H])C([H])([H])C([H])([H])C([H])([H])C2([H])N([H])C(=O)C1([H])N(C(=O)C([H])(N([H])C(=O)C([H])(N([H])C([H])([H])[H])C([H])([H])[H])C(C([H])([H])[H])(C([H])([H])[H])C([H])([H])[H])C([H])([H])c2c([H])c(OC([H])([H])C([H])([H])c3c([H])c([H])c(C([H])([H])C([H])([H])C([H])([H])C([H])([H])C([H])(C([H])([H])[H])C([H])([H])C([H])([H])C([H])([H])N([H])C(=O)N4C([H])([H])C([H])([H])C([H])([H])C([H])(n5nc(-c6c([H])c([H])c(Oc7c([H])c([H])c(F)c([H])c7F)c([H])c6[H])c(C(=O)N([H])[H])c5N([H])[H])C4([H])[H])c(C([H])([H])[H])c3[H])c([H])c([H])c2C1([H])[H]

$$$$
90:0:0
     RDKit          3D

 99105  0  0  1  0  0  0  0  0999 V2000
  -19.3810  -29.9930   23.6960 C   0  0  0  0  0  1  0  0  0  0  0  0
  -21.1970  -29.9020   24.0520 C   0  0  0  0  0  2  0  0  0  0  0  0
  -18.3640  -27.6110   24.5520 C   0  0  0  0  0  1  0  0  0  0  0  0
  -21.2700  -27.0490   25.1030 C   0  0  0  0  0  2  0  0  0  0  0  0
  -22.0620  -28.4120   24.6300 C   0  0  0  0  0  3  0  0  0  0  0  0
  -19.7060  -26.5360   25.0350 C   0  0  0  0  0  3  0  0  0  0  0  0
  -23.7780  -27.7300   24.4320 C   0  0  0  0  0  0  0  0  0  0  0  0
  -24.4520  -27.6770   25.4610 O   0  0  0  0  0  0  0  0  0  0  0  0
  -24.6630  -27.0480   22.9240 C   0  0  0  0  0  2  0  0  0  0  0  0
  -26.2540  -27.0240   22.2380 O   0  0  0  0  0  0  0  0  0  0  0  0
  -24.6130  -31.9630   23.0660 C   0  0  0  0  0  0  0  0  0  0  0  0
  -26.6340  -27.3930   20.9210 C   0  0  0  0  0  3  0  0  0  0  0  0
  -23.3920  -30.8070   21.0990 C   0  0  0  0  0  3  0  0  0  0  0  0
  -24.8890  -29.1430   19.8870 C   0  0  0  0  0  0  0  0  0  0  0  0
  -25.9510  -30.9910   21.2170 C   0  0  0  0  0  2  0  0  0  0  0  0
  -25.9970  -29.6040   20.6140 C   0  0  0  0  0  0  0  0  0  0  0  0
  -27.0410  -28.7290   20.9290 C   0  0  0  0  0  2  0  0  0  0  0  0
  -25.8410  -26.9260   19.8540 C   0  0  0  0  0  3  0  0  0  0  0  0
  -24.8570  -27.8160   19.4010 C   0  0  0  0  0  3  0  0  0  0  0  0
  -23.7470  -30.1300   19.7500 C   0  0  0  0  0  2  0  0  0  0  0  0
  -24.6530  -31.3150   21.8470 N   0  0  0  0  0  0  0  0  0  0  0  0
  -23.5410  -32.2060   23.6310 O   0  0  0  0  0  0  0  0  0  0  0  0
  -22.7590  -29.6470   21.7890 C   0  0  0  0  0  0  0  0  0  0  0  0
  -21.5880  -28.9960   21.5460 N   0  0  0  0  0  0  0  0  0  0  0  0
  -23.5080  -29.3320   22.6250 O   0  0  0  0  0  0  0  0  0  0  0  0
  -20.9670  -29.3630   20.8400 H   0  0  0  0  0  0  0  0  0  0  0  0
  -18.5620  -28.2010   22.3190 C   0  0  0  0  0  3  0  0  0  0  0  0
  -21.1430  -27.7800   22.2970 C   0  0  0  0  0  3  0  0  0  0  0  0
  -20.7820  -26.5060   21.6430 C   0  0  0  0  0  2  0  0  0  0  0  0
  -19.4870  -26.5070   20.8550 C   0  0  0  0  0  2  0  0  0  0  0  0
  -18.2340  -26.9650   21.5640 C   0  0  0  0  0  2  0  0  0  0  0  0
  -20.0140  -28.0140   23.2090 C   0  0  0  0  0  2  0  0  0  0  0  0
  -19.7190  -28.9470   25.5460 C   0  0  0  0  0  1  0  0  0  0  0  0
  -18.1130  -29.7230   25.6140 C   0  0  0  0  0  2  0  0  0  0  0  0
  -17.0370  -29.6910   24.3370 C   0  0  0  0  0  3  0  0  0  0  0  0
  -17.2400  -28.9950   22.8840 C   0  0  0  0  0  3  0  0  0  0  0  0
  -25.9020  -32.5020   23.7920 C   0  0  0  0  0  3  0  0  0  0  0  0
  -25.5930  -33.8700   24.2200 N   0  0  0  0  0  0  0  0  0  0  0  0
  -25.9040  -34.9610   23.5080 C   0  0  0  0  0  0  0  0  0  0  0  0
  -26.5610  -34.9120   22.4640 O   0  0  0  0  0  0  0  0  0  0  0  0
  -25.0100  -33.9730   25.0380 H   0  0  0  0  0  0  0  0  0  0  0  0
  -24.1470  -36.7360   23.2660 C   0  0  0  0  0  1  0  0  0  0  0  0
  -25.4090  -36.3180   24.0360 C   0  0  0  0  0  3  0  0  0  0  0  0
  -27.5580  -37.1830   24.8460 C   0  0  0  0  0  1  0  0  0  0  0  0
  -26.4250  -37.3880   23.9460 N   0  0  0  0  0  0  0  0  0  0  0  0
  -26.0180  -38.2950   24.1530 H   0  0  0  0  0  0  0  0  0  0  0  0
  -26.4160  -31.6550   25.0290 C   0  0  1  0  0  0  0  0  0  0  0  0
  -25.3340  -31.3630   26.0940 C   0  0  0  0  0  1  0  0  0  0  0  0
  -26.9910  -30.3030   24.5530 C   0  0  0  0  0  1  0  0  0  0  0  0
  -27.5810  -32.4070   25.7310 C   0  0  0  0  0  1  0  0  0  0  0  0
  -19.8230  -24.8950   25.0820 C   0  0  0  0  0  2  0  0  0  0  0  0
  -20.7950  -23.7490   24.2110 C   0  0  0  0  0  2  0  0  0  0  0  0
  -22.4530  -23.3560   24.0510 C   0  0  0  0  0  2  0  0  0  0  0  0
  -23.0120  -21.8730   23.7620 N   0  0  0  0  0  4  0  0  0  0  0  0
  -22.2560  -21.3540   23.3460 H   0  0  0  0  0  0  0  0  0  0  0  0
  -23.1370  -21.4780   24.6800 H   0  0  0  0  0  0  0  0  0  0  0  0
  -24.3250  -21.4540   22.9330 C   0  0  0  0  0  3  0  0  0  0  0  0
  -25.2020  -19.9800   23.1060 C   0  0  0  0  0  3  0  0  0  0  0  0
  -26.3670  -19.2890   22.0470 C   0  0  0  0  0  2  0  0  0  0  0  0
  -27.2570  -17.8320   22.2310 C   0  0  0  0  0  3  0  0  0  0  0  0
  -28.5040  -17.1910   21.2290 C   0  0  0  0  0  3  0  0  0  0  0  0
  -30.1500  -14.8720   20.7290 C   0  0  0  0  0  0  0  0  0  0  0  0
  -30.4450  -12.6030   19.5550 C   0  0  0  0  0  2  0  0  0  0  0  0
  -29.5410  -12.5810   18.2910 C   0  0  0  0  0  2  0  0  0  0  0  0
  -28.0600  -12.3180   18.6500 C   0  0  0  0  0  2  0  0  0  0  0  0
  -27.6130  -13.1800   19.8610 C   0  0  0  0  0  3  0  0  0  0  0  0
  -28.5900  -12.9760   21.0280 C   0  0  0  0  0  2  0  0  0  0  0  0
  -29.8490  -13.5320   20.5650 N   0  0  0  0  0  0  0  0  0  0  0  0
  -31.2680  -15.2380   20.3040 O   0  0  0  0  0  0  0  0  0  0  0  0
  -29.0780  -15.6940   21.2500 N   0  0  0  0  0  0  0  0  0  0  0  0
  -28.3560  -15.0700   21.5790 H   0  0  0  0  0  0  0  0  0  0  0  0
  -25.2380  -13.8090   20.5580 C   0  0  0  0  0  0  0  0  0  0  0  0
  -24.1650  -13.0390   20.9130 C   0  0  0  0  0  0  0  0  0  0  0  0
  -24.6190  -11.6850   20.8670 C   0  0  0  0  0  0  0  0  0  0  0  0
  -26.2630  -12.9140   20.3030 N   0  0  0  0  0  0  0  0  0  0  0  0
  -25.9050  -11.6350   20.5570 N   0  0  0  0  0  0  0  0  0  0  0  0
  -23.8930  -10.4240   21.0390 C   0  0  0  0  0  0  0  0  0  0  0  0
  -24.3540   -9.4200   21.9190 C   0  0  0  0  0  3  0  0  0  0  0  0
  -23.6240   -8.2240   22.0790 C   0  0  0  0  0  3  0  0  0  0  0  0
  -22.4230   -8.0250   21.3570 C   0  0  0  0  0  0  0  0  0  0  0  0
  -21.9800   -9.0200   20.4690 C   0  0  0  0  0  3  0  0  0  0  0  0
  -22.7100  -10.2080   20.3060 C   0  0  0  0  0  3  0  0  0  0  0  0
  -21.6620   -6.8850   21.4250 O   0  0  0  0  0  0  0  0  0  0  0  0
  -21.6820   -6.0730   22.5290 C   0  0  0  0  0  0  0  0  0  0  0  0
  -21.4020   -6.5660   23.8220 C   0  0  0  0  0  3  0  0  0  0  0  0
  -21.3630   -5.6800   24.9170 C   0  0  0  0  0  3  0  0  0  0  0  0
  -21.6030   -4.3070   24.7210 C   0  0  0  0  0  0  0  0  0  0  0  0
  -21.8840   -3.8160   23.4340 C   0  0  0  0  0  3  0  0  0  0  0  0
  -21.9200   -4.6970   22.3390 C   0  0  0  0  0  0  0  0  0  0  0  0
  -22.1680   -4.2170   21.0960 F   0  0  0  0  0  0  0  0  0  0  0  0
  -21.5580   -3.4550   25.7730 F   0  0  0  0  0  0  0  0  0  0  0  0
  -22.7710  -13.5210   21.1840 C   0  0  0  0  0  0  0  0  0  0  0  0
  -22.0330  -12.8220   22.0370 N   0  0  0  0  0  0  0  0  0  0  0  0
  -22.3400  -14.5510   20.6670 O   0  0  0  0  0  0  0  0  0  0  0  0
  -22.3930  -11.9900   22.4810 H   0  0  0  0  0  0  0  0  0  0  0  0
  -21.1040  -13.1390   22.2710 H   0  0  0  0  0  0  0  0  0  0  0  0
  -25.4210  -15.1830   20.4180 N   0  0  0  0  0  0  0  0  0  0  0  0
  -24.6560  -15.8380   20.5360 H   0  0  0  0  0  0  0  0  0  0  0  0
  -26.2800  -15.6280   20.1250 H   0  0  0  0  0  0  0  0  0  0  0  0
  1  2  1  0
  5  2  1  0
  5  4  1  0
  6  3  1  0
  6 51  1  0
  6  4  1  0
  7  5  1  0
  7  8  2  0
  9  7  1  0
 10  9  1  0
 11 22  2  0
 12 17  1  0
 12 10  1  0
 13 23  1  0
 13 21  1  0
 14 16  2  0
 15 21  1  0
 16 17  1  0
 16 15  1  0
 18 12  1  0
 19 18  2  0
 19 14  1  0
 20 14  1  0
 20 13  1  0
 21 11  1  0
 23 25  2  0
 24 23  1  0
 26 24  1  0
 27 36  1  0
 27 32  1  0
 28 24  1  0
 28 32  1  0
 29 28  1  0
 30 31  1  0
 30 29  1  0
 31 27  1  0
 33 34  1  0
 35 34  1  0
 36 35  2  0
 37 11  1  0
 37 38  1  0
 37 47  1  0
 38 41  1  0
 39 43  1  0
 39 38  1  0
 40 39  2  0
 43 42  1  0
 45 43  1  0
 45 46  1  0
 45 44  1  0
 47 50  1  1
 47 48  1  0
 49 47  1  0
 52 51  1  0
 53 52  1  0
 54 53  1  0
 54 56  1  0
 55 54  1  0
 57 58  2  0
 57 54  1  0
 59 60  1  0
 59 58  1  0
 61 70  1  0
 61 60  2  0
 62 70  1  0
 63 68  1  0
 64 65  1  0
 64 63  1  0
 66 65  1  0
 66 75  1  0
 66 67  1  0
 68 62  1  0
 68 67  1  0
 69 62  2  0
 70 71  1  0
 72 73  2  0
 73 92  1  0
 74 73  1  0
 74 77  1  0
 75 76  1  0
 75 72  1  0
 76 74  2  0
 77 78  1  0
 78 79  2  0
 80 83  1  0
 80 79  1  0
 81 80  2  0
 82 81  1  0
 82 77  2  0
 83 84  1  0
 84 85  1  0
 85 86  2  0
 87 86  1  0
 87 91  1  0
 88 87  2  0
 89 84  2  0
 89 88  1  0
 90 89  1  0
 92 93  1  0
 93 96  1  0
 93 95  1  0
 94 92  2  0
 97 98  1  0
 97 72  1  0
 99 97  1  0
M  ISO  4   9 101  10 101  62 100  70 100
M  END
>  <TORSDO>  (90) 
F 27

>  <SCORE>  (90) 
67.633

>  <name>  (90) 
90

>  <ligand_id>  (90) 
90

>  <original_smiles>  (90) 
[H]c1c([H])c([H])c2c(c1[H])C([H])([H])C([H])([H])C([H])([H])C2([H])N([H])C(=O)C1([H])N(C(=O)C([H])(N([H])C(=O)C([H])(N([H])C([H])([H])[H])C([H])([H])[H])C(C([H])([H])[H])(C([H])([H])[H])C([H])([H])[H])C([H])([H])c2c([H])c(OC([H])([H])C(=O)c3c([H])c([H])c([H])c(C([H])([H])C([H])([H])C([H])([H])[N+]([H])([H])C([H])([H])C([H])([H])C([H])([H])C([H])([H])C([H])([H])N([H])C(=O)N4C([H])([H])C([H])([H])C([H])([H])C([H])(n5nc(-c6c([H])c([H])c(Oc7c([H])c([H])c(F)c([H])c7F)c([H])c6[H])c(C(=O)N([H])[H])c5N([H])[H])C4([H])[H])c3[H])c([H])c([H])c2C1([H])[H]

>  <smiles>  (90) 
[H]c1c([H])c([H])c2c(c1[H])C([H])([H])C([H])([H])C([H])([H])C2([H])N([H])C(=O)C1([H])N(C(=O)C([H])(N([H])C(=O)C([H])(N([H])C([H])([H])[H])C([H])([H])[H])C(C([H])([H])[H])(C([H])([H])[H])C([H])([H])[H])C([H])([H])c2c([H])c(OC([H])([H])C(=O)c3c([H])c([H])c([H])c(C([H])([H])C([H])([H])C([H])([H])[N+]([H])([H])C([H])([H])C([H])([H])C([H])([H])C([H])([H])C([H])([H])N([H])C(=O)N4C([H])([H])C([H])([H])C([H])([H])C([H])(n5nc(-c6c([H])c([H])c(Oc7c([H])c([H])c(F)c([H])c7F)c([H])c6[H])c(C(=O)N([H])[H])c5N([H])[H])C4([H])[H])c3[H])c([H])c([H])c2C1([H])[H]

$$$$
92:0:0
     RDKit          3D

 96104  0  0  1  0  0  0  0  0999 V2000
  -29.8670  -19.2720   21.3930 C   0  0  0  0  0  2  0  0  0  0  0  0
  -29.5430  -17.7840   21.6160 C   0  0  0  0  0  2  0  0  0  0  0  0
  -29.8470  -17.3600   19.1590 C   0  0  0  0  0  2  0  0  0  0  0  0
  -29.4970  -19.7650   19.9700 C   0  0  0  0  0  3  0  0  0  0  0  0
  -30.2560  -16.9070   20.5760 C   0  0  0  0  0  3  0  0  0  0  0  0
  -30.1730  -18.8520   18.9050 C   0  0  0  0  0  3  0  0  0  0  0  0
  -30.6770  -14.4690   20.2960 C   0  0  0  0  0  0  0  0  0  0  0  0
  -30.3290  -12.3640   19.0860 C   0  0  0  0  0  2  0  0  0  0  0  0
  -29.3600  -12.6470   17.9190 C   0  0  0  0  0  2  0  0  0  0  0  0
  -27.8940  -12.5170   18.3820 C   0  0  0  0  0  2  0  0  0  0  0  0
  -27.6040  -13.2980   19.6920 C   0  0  0  0  0  3  0  0  0  0  0  0
  -28.6840  -13.0030   20.7600 C   0  0  0  0  0  2  0  0  0  0  0  0
  -30.0000  -13.3000   20.1680 N   0  0  0  0  0  0  0  0  0  0  0  0
  -31.7960  -14.6620   19.8140 O   0  0  0  0  0  0  0  0  0  0  0  0
  -29.9470  -15.4860   20.7800 N   0  0  0  0  0  0  0  0  0  0  0  0
  -29.0380  -15.2490   21.1450 H   0  0  0  0  0  0  0  0  0  0  0  0
  -25.2140  -13.8980   20.4420 C   0  0  0  0  0  0  0  0  0  0  0  0
  -24.1550  -13.1220   20.8300 C   0  0  0  0  0  0  0  0  0  0  0  0
  -24.6200  -11.7720   20.7890 C   0  0  0  0  0  0  0  0  0  0  0  0
  -26.2580  -13.0210   20.1930 N   0  0  0  0  0  0  0  0  0  0  0  0
  -25.9050  -11.7370   20.4570 N   0  0  0  0  0  0  0  0  0  0  0  0
  -23.9030  -10.5070   20.9920 C   0  0  0  0  0  0  0  0  0  0  0  0
  -24.3630   -9.5350   21.9070 C   0  0  0  0  0  3  0  0  0  0  0  0
  -23.6440   -8.3350   22.0980 C   0  0  0  0  0  3  0  0  0  0  0  0
  -22.4520   -8.0990   21.3730 C   0  0  0  0  0  0  0  0  0  0  0  0
  -22.0110   -9.0600   20.4460 C   0  0  0  0  0  3  0  0  0  0  0  0
  -22.7300  -10.2520   20.2540 C   0  0  0  0  0  3  0  0  0  0  0  0
  -21.7050   -6.9500   21.4730 O   0  0  0  0  0  0  0  0  0  0  0  0
  -21.6980   -6.1940   22.6160 C   0  0  0  0  0  0  0  0  0  0  0  0
  -21.3190   -6.7350   23.8640 C   0  0  0  0  0  3  0  0  0  0  0  0
  -21.2580   -5.9060   25.0020 C   0  0  0  0  0  3  0  0  0  0  0  0
  -21.5650   -4.5360   24.8940 C   0  0  0  0  0  0  0  0  0  0  0  0
  -21.9350   -3.9940   23.6500 C   0  0  0  0  0  3  0  0  0  0  0  0
  -21.9980   -4.8210   22.5150 C   0  0  0  0  0  0  0  0  0  0  0  0
  -22.3350   -4.2890   21.3150 F   0  0  0  0  0  0  0  0  0  0  0  0
  -21.4980   -3.7370   25.9850 F   0  0  0  0  0  0  0  0  0  0  0  0
  -22.7620  -13.5950   21.1300 C   0  0  0  0  0  0  0  0  0  0  0  0
  -22.0550  -12.8970   22.0110 N   0  0  0  0  0  0  0  0  0  0  0  0
  -22.3090  -14.6200   20.6200 O   0  0  0  0  0  0  0  0  0  0  0  0
  -22.4330  -12.0670   22.4460 H   0  0  0  0  0  0  0  0  0  0  0  0
  -21.1220  -13.1950   22.2570 H   0  0  0  0  0  0  0  0  0  0  0  0
  -25.3700  -15.2700   20.2620 N   0  0  0  0  0  0  0  0  0  0  0  0
  -24.6010  -15.9180   20.3880 H   0  0  0  0  0  0  0  0  0  0  0  0
  -26.2090  -15.7150   19.9150 H   0  0  0  0  0  0  0  0  0  0  0  0
  -29.8000  -19.2270   17.5260 N   0  0  0  0  0  4  0  0  0  0  0  0
  -28.8200  -19.0880   17.3560 H   0  0  0  0  0  0  0  0  0  0  0  0
  -30.3160  -18.6750   16.8620 H   0  0  0  0  0  0  0  0  0  0  0  0
  -30.0200  -20.1900   17.3440 H   0  0  0  0  0  0  0  0  0  0  0  0
  -29.8800  -21.2600   19.7670 C   0  0  0  0  0  2  0  0  0  0  0  0
  -29.0060  -22.2940   20.4930 C   0  0  0  0  0  0  0  0  0  0  0  0
  -28.0930  -21.9700   21.2570 O   0  0  0  0  0  0  0  0  0  0  0  0
  -29.2900  -23.7680   20.2000 C   0  0  0  0  0  2  0  0  0  0  0  0
  -30.1700  -24.4400   21.2740 C   0  0  0  0  0  2  0  0  0  0  0  0
  -30.5550  -25.8980   20.9410 C   0  0  0  0  0  2  0  0  0  0  0  0
  -29.4370  -26.9400   21.1300 C   0  0  0  0  0  2  0  0  0  0  0  0
  -28.4040  -26.7110   20.1810 O   0  0  0  0  0  0  0  0  0  0  0  0
  -24.5990  -31.9480   23.2520 C   0  0  0  0  0  0  0  0  0  0  0  0
  -27.2710  -27.4900   20.2440 C   0  0  0  0  0  0  0  0  0  0  0  0
  -23.3960  -30.5240   21.6230 C   0  0  0  0  0  3  0  0  0  0  0  0
  -24.8590  -28.9670   20.2280 C   0  0  0  0  0  0  0  0  0  0  0  0
  -25.9180  -30.8880   21.4290 C   0  0  0  0  0  2  0  0  0  0  0  0
  -26.0090  -29.5070   20.8200 C   0  0  0  0  0  0  0  0  0  0  0  0
  -27.2140  -28.7730   20.8390 C   0  0  0  0  0  3  0  0  0  0  0  0
  -26.1070  -26.9630   19.6470 C   0  0  0  0  0  3  0  0  0  0  0  0
  -24.9000  -27.6900   19.6420 C   0  0  0  0  0  3  0  0  0  0  0  0
  -23.6120  -29.8210   20.2550 C   0  0  0  0  0  2  0  0  0  0  0  0
  -24.6560  -31.1350   22.1600 N   0  0  0  0  0  0  0  0  0  0  0  0
  -23.5170  -32.2290   23.7860 O   0  0  0  0  0  0  0  0  0  0  0  0
  -22.7430  -29.5170   22.5960 C   0  0  0  0  0  0  0  0  0  0  0  0
  -21.4180  -29.3390   22.4670 N   0  0  0  0  0  0  0  0  0  0  0  0
  -23.4240  -28.8990   23.4170 O   0  0  0  0  0  0  0  0  0  0  0  0
  -20.9320  -29.8910   21.7750 H   0  0  0  0  0  0  0  0  0  0  0  0
  -18.0360  -28.1790   22.9710 C   0  0  0  0  0  0  0  0  0  0  0  0
  -20.5940  -28.4150   23.2430 C   0  0  0  0  0  3  0  0  0  0  0  0
  -20.6850  -26.9790   22.6780 C   0  0  0  0  0  2  0  0  0  0  0  0
  -19.5820  -26.6590   21.6650 C   0  0  0  0  0  2  0  0  0  0  0  0
  -18.2010  -26.8230   22.3070 C   0  0  0  0  0  2  0  0  0  0  0  0
  -19.1610  -28.9350   23.3960 C   0  0  0  0  0  0  0  0  0  0  0  0
  -18.9530  -30.2070   23.9730 C   0  0  0  0  0  3  0  0  0  0  0  0
  -17.6530  -30.7220   24.1310 C   0  0  0  0  0  3  0  0  0  0  0  0
  -16.5420  -29.9610   23.7240 C   0  0  0  0  0  3  0  0  0  0  0  0
  -16.7340  -28.6910   23.1510 C   0  0  0  0  0  3  0  0  0  0  0  0
  -25.8850  -32.5840   23.8690 C   0  0  0  0  0  3  0  0  0  0  0  0
  -26.3990  -31.8260   25.1540 C   0  0  1  0  0  0  0  0  0  0  0  0
  -25.3030  -31.6020   26.2230 C   0  0  0  0  0  1  0  0  0  0  0  0
  -26.9780  -30.4440   24.7740 C   0  0  0  0  0  1  0  0  0  0  0  0
  -27.5490  -32.6260   25.8080 C   0  0  0  0  0  1  0  0  0  0  0  0
  -25.5790  -33.9870   24.1780 N   0  0  0  0  0  0  0  0  0  0  0  0
  -25.9170  -35.0260   23.4030 C   0  0  0  0  0  0  0  0  0  0  0  0
  -26.5920  -34.9050   22.3770 O   0  0  0  0  0  0  0  0  0  0  0  0
  -24.9780  -34.1540   24.9720 H   0  0  0  0  0  0  0  0  0  0  0  0
  -24.1920  -36.8130   23.0170 C   0  0  0  0  0  1  0  0  0  0  0  0
  -25.4320  -36.4210   23.8370 C   0  0  0  0  0  3  0  0  0  0  0  0
  -27.5690  -37.3140   24.6510 C   0  0  0  0  0  1  0  0  0  0  0  0
  -26.4650  -37.4720   23.7090 N   0  0  0  0  0  0  0  0  0  0  0  0
  -26.0600  -38.3940   23.8480 H   0  0  0  0  0  0  0  0  0  0  0  0
  1  2  1  0
  3  5  1  0
  4 49  1  0
  4  1  1  0
  5 15  1  0
  5  2  1  0
  6 45  1  0
  6  3  1  0
  6  4  1  0
  7 15  1  0
  8 13  1  0
  9 10  1  0
  9  8  1  0
 11 10  1  0
 11 20  1  0
 11 12  1  0
 13  7  1  0
 13 12  1  0
 14  7  2  0
 15 16  1  0
 17 18  2  0
 18 37  1  0
 19 18  1  0
 19 22  1  0
 20 17  1  0
 20 21  1  0
 21 19  2  0
 22 23  1  0
 23 24  2  0
 25 28  1  0
 25 24  1  0
 26 25  2  0
 27 26  1  0
 27 22  2  0
 28 29  1  0
 29 30  1  0
 30 31  2  0
 32 31  1  0
 32 36  1  0
 33 32  2  0
 34 29  2  0
 34 33  1  0
 35 34  1  0
 37 38  1  0
 38 41  1  0
 38 40  1  0
 39 37  2  0
 42 43  1  0
 42 17  1  0
 44 42  1  0
 46 45  1  0
 47 45  1  0
 48 45  1  0
 49 50  1  0
 50 51  2  0
 52 50  1  0
 52 53  1  0
 54 55  1  0
 54 53  1  0
 56 58  1  0
 56 55  1  0
 57 68  2  0
 58 63  1  0
 59 67  1  0
 59 69  1  0
 60 66  1  0
 60 62  1  0
 61 67  1  0
 62 63  2  0
 62 61  1  0
 64 58  2  0
 65 64  1  0
 65 60  2  0
 66 59  1  0
 67 57  1  0
 69 71  2  0
 70 69  1  0
 72 70  1  0
 73 82  2  0
 73 78  1  0
 74 70  1  0
 74 78  1  0
 75 74  1  0
 76 77  1  0
 76 75  1  0
 77 73  1  0
 78 79  2  0
 79 80  1  0
 81 80  2  0
 82 81  1  0
 83 57  1  0
 83 88  1  0
 83 84  1  0
 84 87  1  1
 84 85  1  0
 86 84  1  0
 88 91  1  0
 89 93  1  0
 89 88  1  0
 90 89  2  0
 93 92  1  0
 95 93  1  0
 95 96  1  0
 95 94  1  0
M  ISO  4   7 100  15 100  55 101  56 101
M  END
>  <TORSDO>  (91) 
F 23

>  <SCORE>  (91) 
-12.721

>  <name>  (91) 
92

>  <ligand_id>  (91) 
92

>  <original_smiles>  (91) 
[H]c1c([H])c([H])c2c(c1[H])C([H])([H])C([H])([H])C([H])([H])C2([H])N([H])C(=O)C1([H])N(C(=O)C([H])(N([H])C(=O)C([H])(N([H])C([H])([H])[H])C([H])([H])[H])C(C([H])([H])[H])(C([H])([H])[H])C([H])([H])[H])C([H])([H])c2c([H])c(OC([H])([H])C([H])([H])C([H])([H])C([H])([H])C(=O)C([H])([H])C3([H])C([H])([H])C([H])([H])C([H])(N([H])C(=O)N4C([H])([H])C([H])([H])C([H])([H])C([H])(n5nc(-c6c([H])c([H])c(Oc7c([H])c([H])c(F)c([H])c7F)c([H])c6[H])c(C(=O)N([H])[H])c5N([H])[H])C4([H])[H])C([H])([H])C3([H])[N+]([H])([H])[H])c([H])c([H])c2C1([H])[H]

>  <smiles>  (91) 
[H]c1c([H])c([H])c2c(c1[H])C([H])([H])C([H])([H])C([H])([H])C2([H])N([H])C(=O)C1([H])N(C(=O)C([H])(N([H])C(=O)C([H])(N([H])C([H])([H])[H])C([H])([H])[H])C(C([H])([H])[H])(C([H])([H])[H])C([H])([H])[H])C([H])([H])c2c([H])c(OC([H])([H])C([H])([H])C([H])([H])C([H])([H])C(=O)C([H])([H])C3([H])C([H])([H])C([H])([H])C([H])(N([H])C(=O)N4C([H])([H])C([H])([H])C([H])([H])C([H])(n5nc(-c6c([H])c([H])c(Oc7c([H])c([H])c(F)c([H])c7F)c([H])c6[H])c(C(=O)N([H])[H])c5N([H])[H])C4([H])[H])C([H])([H])C3([H])[N+]([H])([H])[H])c([H])c([H])c2C1([H])[H]

$$$$
93:0:0
     RDKit          3D

 93 93  0  0  1  0  0  0  0  0999 V2000
  -20.8340  -25.8620   18.7380 C   0  0  0  0  0  3  0  0  0  0  0  0
  -20.9680  -27.1510   19.3560 C   0  0  0  0  0  3  0  0  0  0  0  0
  -21.7630  -24.7280   18.7280 C   0  0  0  0  0  3  0  0  0  0  0  0
  -23.1450  -26.2170   19.7020 C   0  0  0  0  0  3  0  0  0  0  0  0
  -22.1330  -27.4960   20.0750 C   0  0  0  0  0  3  0  0  0  0  0  0
  -23.1410  -24.6750   19.2070 C   0  0  0  0  0  0  0  0  0  0  0  0
  -22.1180  -29.1300   21.2340 C   0  0  0  0  0  2  0  0  0  0  0  0
  -21.5940  -30.1380   20.7680 O   0  0  0  0  0  0  0  0  0  0  0  0
  -22.9870  -29.3200   23.1750 C   0  0  0  0  0 15  0  0  0  0  0  0
  -25.0590  -28.4880   23.8290 C   0  0  0  0  0 15  0  0  0  0  0  0
  -26.5090  -27.5790   22.9030 O   0  0  0  0  0  1  0  0  0  0  0  0
  -24.9430  -31.1540   23.2790 C   0  0  0  0  0  0  0  0  0  0  0  0
  -27.1830  -27.3750   21.5640 C   0  0  0  0  0  3  0  0  0  0  0  0
  -24.4470  -28.7830   21.4720 C   0  0  0  0  0  2  0  0  0  0  0  0
  -25.8910  -28.7150   19.7320 C   0  0  0  0  0  3  0  0  0  0  0  0
  -26.3770  -30.4780   21.5150 C   0  0  0  0  0  2  0  0  0  0  0  0
  -26.8180  -29.3190   20.6320 C   0  0  0  0  0  3  0  0  0  0  0  0
  -27.8220  -28.5220   21.1530 C   0  0  0  0  0  2  0  0  0  0  0  0
  -26.6710  -26.6070   20.4420 C   0  0  0  0  0  2  0  0  0  0  0  0
  -26.0950  -27.3620   19.4070 C   0  0  0  0  0  2  0  0  0  0  0  0
  -24.4610  -29.0660   19.9670 C   0  0  0  0  0  2  0  0  0  0  0  0
  -25.0680  -30.2720   22.1050 N   0  0  0  0  0  0  0  0  0  0  0  0
  -23.8410  -31.5500   23.7030 O   0  0  0  0  0  0  0  0  0  0  0  0
  -23.8030  -27.0760   22.3000 C   0  0  0  0  0  2  0  0  0  0  0  0
  -22.5470  -26.7320   22.9500 N   0  0  0  0  0  0  0  0  0  0  0  0
  -24.4730  -26.3120   22.8550 O   0  0  0  0  0  1  0  0  0  0  0  0
  -22.8310  -25.8660   23.4060 H   0  0  0  0  0  0  0  0  0  0  0  0
  -18.4840  -26.9820   22.3020 C   0  0  0  0  0  0  0  0  0  0  0  0
  -21.0100  -26.6830   23.0470 C   0  0  0  0  0  0  0  0  0  0  0  0
  -20.9110  -25.2940   22.4560 C   0  0  0  0  0  3  0  0  0  0  0  0
  -19.7360  -24.8860   21.6200 C   0  0  0  0  0  3  0  0  0  0  0  0
  -18.4780  -25.6740   21.5800 C   0  0  0  0  0  3  0  0  0  0  0  0
  -19.6650  -27.5870   22.8740 C   0  0  0  0  0  0  0  0  0  0  0  0
  -19.4070  -28.9000   23.3930 C   0  0  0  0  0  3  0  0  0  0  0  0
  -18.0890  -29.4560   23.4920 C   0  0  0  0  0  3  0  0  0  0  0  0
  -16.9580  -28.7360   23.0550 C   0  0  0  0  0  3  0  0  0  0  0  0
  -17.1780  -27.5310   22.3750 C   0  0  0  0  0  3  0  0  0  0  0  0
  -26.1490  -31.6330   24.2700 C   0  0  0  0  0  3  0  0  0  0  0  0
  -25.8920  -33.0620   24.4940 N   0  0  0  0  0  0  0  0  0  0  0  0
  -26.4340  -34.0450   23.7880 C   0  0  0  0  0  0  0  0  0  0  0  0
  -27.2500  -33.8360   22.8870 O   0  0  0  0  0  0  0  0  0  0  0  0
  -25.1470  -33.2660   25.1270 H   0  0  0  0  0  0  0  0  0  0  0  0
  -24.9430  -35.9730   23.1350 C   0  0  0  0  0  1  0  0  0  0  0  0
  -26.0090  -35.4860   24.1290 C   0  0  0  0  0  3  0  0  0  0  0  0
  -28.0910  -36.2430   25.1960 C   0  0  0  0  0  1  0  0  0  0  0  0
  -27.1430  -36.4270   24.1080 N   0  0  0  0  0  0  0  0  0  0  0  0
  -26.8050  -37.3820   24.1370 H   0  0  0  0  0  0  0  0  0  0  0  0
  -26.3430  -31.0100   25.7830 C   0  0  1  0  0  0  0  0  0  0  0  0
  -25.0010  -30.8650   26.5820 C   0  0  0  0  0  1  0  0  0  0  0  0
  -27.1270  -29.6420   25.8810 C   0  0  0  0  0  1  0  0  0  0  0  0
  -27.3170  -31.9090   26.6040 C   0  0  0  0  0  1  0  0  0  0  0  0
  -24.1010  -22.9590   19.2110 C   0  0  0  0  0  1  0  0  0  0  0  0
  -25.5890  -21.6820   18.6500 C   0  0  0  0  0 15  0  0  0  0  0  0
  -26.2960  -19.7620   18.8480 C   0  0  0  0  0 15  0  0  0  0  0  0
  -27.9560  -18.5290   18.7630 C   0  0  0  0  0  1  0  0  0  0  0  0
  -29.9170  -15.7060   19.2060 C   0  0  0  0  0  0  0  0  0  0  0  0
  -30.6680  -13.1360   18.7910 C   0  0  0  0  0  2  0  0  0  0  0  0
  -29.8110  -12.2980   17.7950 C   0  0  0  0  0  2  0  0  0  0  0  0
  -28.4950  -11.8580   18.4570 C   0  0  0  0  0  2  0  0  0  0  0  0
  -27.9330  -12.9980   19.3260 C   0  0  0  0  0  3  0  0  0  0  0  0
  -28.9450  -13.5540   20.3170 C   0  0  0  0  0  2  0  0  0  0  0  0
  -29.8400  -14.2590   19.4260 N   0  0  0  0  0  0  0  0  0  0  0  0
  -31.1510  -15.8610   18.9780 O   0  0  0  0  0  0  0  0  0  0  0  0
  -28.7600  -16.8600   19.1020 N   0  0  0  0  0  0  0  0  0  0  0  0
  -29.6000  -17.3970   19.0310 H   0  0  0  0  0  0  0  0  0  0  0  0
  -25.8100  -13.6430   20.4830 C   0  0  0  0  0  0  0  0  0  0  0  0
  -24.7620  -12.9020   20.9310 C   0  0  0  0  0  0  0  0  0  0  0  0
  -25.1200  -11.5310   20.7250 C   0  0  0  0  0  0  0  0  0  0  0  0
  -26.7080  -12.7170   19.9990 N   0  0  0  0  0  0  0  0  0  0  0  0
  -26.3390  -11.4380   20.2260 N   0  0  0  0  0  0  0  0  0  0  0  0
  -24.3460  -10.3090   20.9020 C   0  0  0  0  0  0  0  0  0  0  0  0
  -24.6390   -9.3960   21.9360 C   0  0  0  0  0  3  0  0  0  0  0  0
  -23.8650   -8.2270   22.0940 C   0  0  0  0  0  3  0  0  0  0  0  0
  -22.7850   -7.9700   21.2130 C   0  0  0  0  0  0  0  0  0  0  0  0
  -22.5170   -8.8720   20.1670 C   0  0  0  0  0  3  0  0  0  0  0  0
  -23.2940  -10.0310   20.0110 C   0  0  0  0  0  3  0  0  0  0  0  0
  -21.9900   -6.8510   21.2750 O   0  0  0  0  0  0  0  0  0  0  0  0
  -21.5380   -6.3630   22.4720 C   0  0  0  0  0  0  0  0  0  0  0  0
  -20.7050   -7.1230   23.3220 C   0  0  0  0  0  3  0  0  0  0  0  0
  -20.2060   -6.5560   24.5100 C   0  0  0  0  0  3  0  0  0  0  0  0
  -20.5290   -5.2270   24.8450 C   0  0  0  0  0  0  0  0  0  0  0  0
  -21.3530   -4.4660   23.9970 C   0  0  0  0  0  3  0  0  0  0  0  0
  -21.8540   -5.0330   22.8120 C   0  0  0  0  0  0  0  0  0  0  0  0
  -22.6330   -4.2910   21.9880 F   0  0  0  0  0  0  0  0  0  0  0  0
  -20.0420   -4.6750   25.9810 F   0  0  0  0  0  0  0  0  0  0  0  0
  -23.4550  -13.4440   21.4210 C   0  0  0  0  0  0  0  0  0  0  0  0
  -22.7950  -12.7190   22.3190 N   0  0  0  0  0  0  0  0  0  0  0  0
  -23.0340  -14.5400   21.0480 O   0  0  0  0  0  0  0  0  0  0  0  0
  -23.1550  -11.8300   22.6370 H   0  0  0  0  0  0  0  0  0  0  0  0
  -21.9190  -13.0550   22.6960 H   0  0  0  0  0  0  0  0  0  0  0  0
  -26.0580  -15.0090   20.4000 N   0  0  0  0  0  0  0  0  0  0  0  0
  -25.3760  -15.6980   20.6900 H   0  0  0  0  0  0  0  0  0  0  0  0
  -26.8960  -15.4260   20.0050 H   0  0  0  0  0  0  0  0  0  0  0  0
  1  2  1  0
  2  5  2  0
  3  1  2  0
  3  6  1  0
  4  5  1  0
  6 52  1  0
  6  4  2  0
  8  7  2  0
 12 23  2  0
 13 11  1  0
 14 22  1  0
 15 20  1  0
 15 21  1  0
 15 17  1  0
 16 22  1  0
 17 18  1  0
 17 16  1  0
 18 13  1  0
 19 13  1  0
 20 19  1  0
 21 14  1  0
 22 12  1  0
 24 26  1  0
 24 25  1  0
 25 29  1  0
 25 27  1  0
 28 37  2  0
 28 33  1  0
 30 29  2  0
 31 30  1  0
 32 31  2  0
 32 28  1  0
 33 29  1  0
 33 34  2  0
 34 35  1  0
 36 35  2  0
 37 36  1  0
 38 12  1  0
 38 39  1  0
 38 48  1  0
 39 42  1  0
 40 44  1  0
 40 39  1  0
 41 40  2  0
 44 43  1  0
 46 44  1  0
 46 47  1  0
 46 45  1  0
 48 50  1  6
 48 49  1  0
 48 51  1  0
 55 64  1  0
 56 62  1  0
 57 62  1  0
 58 59  1  0
 58 57  1  0
 60 59  1  0
 60 69  1  0
 60 61  1  0
 62 61  1  0
 63 56  2  0
 64 56  1  0
 65 64  1  0
 66 67  2  0
 67 86  1  0
 68 71  1  0
 68 67  1  0
 69 70  1  0
 69 66  1  0
 70 68  2  0
 71 72  1  0
 72 73  2  0
 74 77  1  0
 74 73  1  0
 75 74  2  0
 76 75  1  0
 76 71  2  0
 77 78  1  0
 78 83  2  0
 78 79  1  0
 79 80  2  0
 80 81  1  0
 81 85  1  0
 82 81  2  0
 83 82  1  0
 84 83  1  0
 86 87  1  0
 87 89  1  0
 87 90  1  0
 88 86  2  0
 91 66  1  0
 91 92  1  0
 93 91  1  0
M  ISO  4  10 101  11 101  56 100  64 100
M  END
>  <TORSDO>  (92) 
F 23

>  <SCORE>  (92) 
-11.240

>  <name>  (92) 
93

>  <ligand_id>  (92) 
93

>  <original_smiles>  (92) 
[H]c1c([H])c(C(=O)C([H])([H])C([H])([H])Oc2c([H])c([H])c3c(c2[H])C([H])([H])N(C(=O)C([H])(N([H])C(=O)C([H])(N([H])C([H])([H])[H])C([H])([H])[H])C(C([H])([H])[H])(C([H])([H])[H])C([H])([H])[H])C([H])(C(=O)N([H])C2([H])c4c([H])c([H])c([H])c([H])c4C([H])([H])C([H])([H])C2([H])[H])C3([H])[H])c([H])c(C([H])([H])C([H])([H])C([H])([H])C([H])([H])N([H])C(=O)N2C([H])([H])C([H])([H])C([H])([H])C([H])(n3nc(-c4c([H])c([H])c(Oc5c([H])c([H])c(F)c([H])c5F)c([H])c4[H])c(C(=O)N([H])[H])c3N([H])[H])C2([H])[H])c1[H]

>  <smiles>  (92) 
[H]c1c([H])c(C(=O)C([H])([H])C([H])([H])Oc2c([H])c([H])c3c(c2[H])C([H])([H])N(C(=O)C([H])(N([H])C(=O)C([H])(N([H])C([H])([H])[H])C([H])([H])[H])C(C([H])([H])[H])(C([H])([H])[H])C([H])([H])[H])C([H])(C(=O)N([H])C2([H])c4c([H])c([H])c([H])c([H])c4C([H])([H])C([H])([H])C2([H])[H])C3([H])[H])c([H])c(C([H])([H])C([H])([H])C([H])([H])C([H])([H])N([H])C(=O)N2C([H])([H])C([H])([H])C([H])([H])C([H])(n3nc(-c4c([H])c([H])c(Oc5c([H])c([H])c(F)c([H])c5F)c([H])c4[H])c(C(=O)N([H])[H])c3N([H])[H])C2([H])[H])c1[H]

$$$$
94:0:0
     RDKit          3D

 98106  0  0  1  0  0  0  0  0999 V2000
  -38.1360  -24.0860   19.6800 C   0  0  0  0  0  0  0  0  0  0  0  0
  -37.8380  -24.6830   18.4920 C   0  0  0  0  0  0  0  0  0  0  0  0
  -38.6050  -24.9000   20.8890 C   0  0  0  0  0  2  0  0  0  0  0  0
  -38.3210  -26.3950   20.7560 C   0  0  0  0  0  2  0  0  0  0  0  0
  -38.8080  -26.8830   19.3990 C   0  0  0  0  0  2  0  0  0  0  0  0
  -38.0640  -26.1860   18.2390 C   0  0  0  0  0  3  0  0  0  0  0  0
  -37.2850  -23.9320   17.2840 C   0  0  0  0  0  1  0  0  0  0  0  0
  -38.7760  -26.4490   16.8850 C   0  0  0  0  0  2  0  0  0  0  0  0
  -38.0090  -27.3780   15.9270 C   0  0  0  0  0  2  0  0  0  0  0  0
  -36.6090  -27.7540   16.4300 C   0  0  0  0  0  2  0  0  0  0  0  0
  -35.9780  -28.8740   15.5900 C   0  0  0  0  0  2  0  0  0  0  0  0
  -35.5500  -28.3540   14.3370 O   0  0  0  0  0  0  0  0  0  0  0  0
  -28.6530  -27.5210   12.8130 C   0  0  0  0  0  0  0  0  0  0  0  0
  -34.3910  -28.9260   13.8860 C   0  0  0  0  0  0  0  0  0  0  0  0
  -29.6860  -29.6350   12.0430 C   0  0  0  0  0  3  0  0  0  0  0  0
  -32.0190  -30.1240   12.9560 C   0  0  0  0  0  0  0  0  0  0  0  0
  -30.5940  -28.4080   14.0940 C   0  0  0  0  0  2  0  0  0  0  0  0
  -31.9550  -28.9730   13.7530 C   0  0  0  0  0  0  0  0  0  0  0  0
  -33.1400  -28.3680   14.2220 C   0  0  0  0  0  3  0  0  0  0  0  0
  -34.4480  -30.0790   13.0790 C   0  0  0  0  0  3  0  0  0  0  0  0
  -33.2640  -30.6800   12.6090 C   0  0  0  0  0  3  0  0  0  0  0  0
  -30.7020  -30.7140   12.5060 C   0  0  0  0  0  2  0  0  0  0  0  0
  -29.6280  -28.4600   12.9740 N   0  0  0  0  0  0  0  0  0  0  0  0
  -27.7870  -27.6410   11.9340 O   0  0  0  0  0  0  0  0  0  0  0  0
  -30.0170  -29.2440   10.5860 C   0  0  0  0  0  0  0  0  0  0  0  0
  -29.2970  -29.8490    9.6280 N   0  0  0  0  0  0  0  0  0  0  0  0
  -30.9190  -28.4400   10.3340 O   0  0  0  0  0  0  0  0  0  0  0  0
  -28.5710  -30.4900    9.9150 H   0  0  0  0  0  0  0  0  0  0  0  0
  -27.7680  -30.5110    6.4210 C   0  0  0  0  0  0  0  0  0  0  0  0
  -29.4590  -29.6700    8.1860 C   0  0  0  0  0  3  0  0  0  0  0  0
  -30.4350  -30.7180    7.6000 C   0  0  0  0  0  2  0  0  0  0  0  0
  -29.7310  -31.9710    7.0730 C   0  0  0  0  0  2  0  0  0  0  0  0
  -28.7280  -31.6020    5.9750 C   0  0  0  0  0  2  0  0  0  0  0  0
  -28.1050  -29.6150    7.4700 C   0  0  0  0  0  0  0  0  0  0  0  0
  -27.1630  -28.6430    7.8710 C   0  0  0  0  0  3  0  0  0  0  0  0
  -25.9060  -28.5570    7.2420 C   0  0  0  0  0  3  0  0  0  0  0  0
  -25.5840  -29.4350    6.1940 C   0  0  0  0  0  3  0  0  0  0  0  0
  -26.5150  -30.4050    5.7820 C   0  0  0  0  0  3  0  0  0  0  0  0
  -28.5660  -26.2650   13.7350 C   0  0  0  0  0  3  0  0  0  0  0  0
  -29.1920  -24.9700   13.0830 C   0  0  1  0  0  0  0  0  0  0  0  0
  -28.1910  -24.1600   12.2250 C   0  0  0  0  0  1  0  0  0  0  0  0
  -30.3920  -25.3420   12.1840 C   0  0  0  0  0  1  0  0  0  0  0  0
  -29.7400  -24.0380   14.1900 C   0  0  0  0  0  1  0  0  0  0  0  0
  -27.1510  -26.0530   14.0600 N   0  0  0  0  0  0  0  0  0  0  0  0
  -26.6250  -26.1820   15.2870 C   0  0  0  0  0  0  0  0  0  0  0  0
  -27.3080  -26.4270   16.2850 O   0  0  0  0  0  0  0  0  0  0  0  0
  -26.5260  -25.9010   13.2820 H   0  0  0  0  0  0  0  0  0  0  0  0
  -24.4490  -27.3890   15.6400 C   0  0  0  0  0  1  0  0  0  0  0  0
  -25.1020  -26.0140   15.4270 C   0  0  0  0  0  3  0  0  0  0  0  0
  -24.0060  -23.9080   16.0550 C   0  0  0  0  0  1  0  0  0  0  0  0
  -24.7080  -25.1010   16.5220 N   0  0  0  0  0  0  0  0  0  0  0  0
  -24.1080  -25.5780   17.1900 H   0  0  0  0  0  0  0  0  0  0  0  0
  -38.0920  -22.5680   19.9290 C   0  0  0  0  0  3  0  0  0  0  0  0
  -39.1340  -21.9040   19.1210 N   0  0  0  0  0  4  0  0  0  0  0  0
  -38.9680  -22.0340   18.1400 H   0  0  0  0  0  0  0  0  0  0  0  0
  -39.1660  -20.9170   19.3040 H   0  0  0  0  0  0  0  0  0  0  0  0
  -40.0370  -22.2900   19.3390 H   0  0  0  0  0  0  0  0  0  0  0  0
  -36.6780  -22.0020   19.6440 C   0  0  0  0  0  2  0  0  0  0  0  0
  -35.5940  -22.2870   20.7000 C   0  0  0  0  0  2  0  0  0  0  0  0
  -35.1530  -21.0610   21.5220 C   0  0  0  0  0  2  0  0  0  0  0  0
  -33.2620  -19.5280   21.0760 C   0  0  0  0  0  0  0  0  0  0  0  0
  -31.2150  -18.4610   20.2150 C   0  0  0  0  0  2  0  0  0  0  0  0
  -31.1880  -16.9440   20.4590 C   0  0  0  0  0  2  0  0  0  0  0  0
  -31.9000  -16.1970   19.3180 C   0  0  0  0  0  2  0  0  0  0  0  0
  -33.3050  -16.7800   19.0160 C   0  0  0  0  0  3  0  0  0  0  0  0
  -33.2430  -18.3170   18.8660 C   0  0  0  0  0  2  0  0  0  0  0  0
  -32.6120  -18.8880   20.0730 N   0  0  0  0  0  0  0  0  0  0  0  0
  -32.7890  -19.7000   22.2040 O   0  0  0  0  0  0  0  0  0  0  0  0
  -34.4090  -20.1060   20.7070 N   0  0  0  0  0  0  0  0  0  0  0  0
  -34.6710  -19.9820   19.7420 H   0  0  0  0  0  0  0  0  0  0  0  0
  -35.0730  -15.4130   17.7330 C   0  0  0  0  0  0  0  0  0  0  0  0
  -35.1330  -14.9860   16.4330 C   0  0  0  0  0  0  0  0  0  0  0  0
  -33.9560  -15.4890   15.7990 C   0  0  0  0  0  0  0  0  0  0  0  0
  -33.9010  -16.1460   17.8410 N   0  0  0  0  0  0  0  0  0  0  0  0
  -33.2560  -16.2310   16.6490 N   0  0  0  0  0  0  0  0  0  0  0  0
  -33.4260  -15.2620   14.4480 C   0  0  0  0  0  0  0  0  0  0  0  0
  -32.8030  -16.2960   13.7150 C   0  0  0  0  0  3  0  0  0  0  0  0
  -32.3190  -16.0590   12.4100 C   0  0  0  0  0  3  0  0  0  0  0  0
  -32.4580  -14.7780   11.8250 C   0  0  0  0  0  0  0  0  0  0  0  0
  -33.0580  -13.7460   12.5660 C   0  0  0  0  0  3  0  0  0  0  0  0
  -33.5350  -13.9830   13.8670 C   0  0  0  0  0  3  0  0  0  0  0  0
  -31.9940  -14.4490   10.5740 O   0  0  0  0  0  0  0  0  0  0  0  0
  -32.2050  -15.2610    9.4890 C   0  0  0  0  0  0  0  0  0  0  0  0
  -33.4700  -15.3600    8.8680 C   0  0  0  0  0  3  0  0  0  0  0  0
  -33.6270  -16.1530    7.7140 C   0  0  0  0  0  3  0  0  0  0  0  0
  -32.5220  -16.8410    7.1750 C   0  0  0  0  0  0  0  0  0  0  0  0
  -31.2620  -16.7390    7.7880 C   0  0  0  0  0  3  0  0  0  0  0  0
  -31.1040  -15.9500    8.9410 C   0  0  0  0  0  0  0  0  0  0  0  0
  -29.8820  -15.8390    9.5180 F   0  0  0  0  0  0  0  0  0  0  0  0
  -32.6720  -17.5960    6.0620 F   0  0  0  0  0  0  0  0  0  0  0  0
  -36.1700  -14.0810   15.8340 C   0  0  0  0  0  0  0  0  0  0  0  0
  -36.9230  -14.5740   14.8550 N   0  0  0  0  0  0  0  0  0  0  0  0
  -36.3540  -12.9440   16.2660 O   0  0  0  0  0  0  0  0  0  0  0  0
  -36.7870  -15.5140   14.5150 H   0  0  0  0  0  0  0  0  0  0  0  0
  -37.6460  -14.0030   14.4430 H   0  0  0  0  0  0  0  0  0  0  0  0
  -35.9030  -15.2260   18.8340 N   0  0  0  0  0  0  0  0  0  0  0  0
  -36.7100  -14.6130   18.7980 H   0  0  0  0  0  0  0  0  0  0  0  0
  -35.6770  -15.5250   19.7740 H   0  0  0  0  0  0  0  0  0  0  0  0
  1 53  1  0
  1  3  1  0
  2  1  2  0
  4  3  1  0
  5  4  1  0
  6  8  1  0
  6  2  1  0
  6  5  1  0
  7  2  1  0
  9 10  1  0
  9  8  1  0
 11 10  1  0
 12 11  1  0
 13 23  1  0
 14 19  1  0
 14 12  1  0
 15 25  1  0
 15 22  1  0
 15 23  1  0
 16 18  1  0
 18 17  1  0
 18 19  2  0
 20 14  2  0
 21 16  2  0
 21 20  1  0
 22 16  1  0
 23 17  1  0
 24 13  2  0
 26 28  1  0
 26 25  1  0
 27 25  2  0
 29 34  1  0
 30 26  1  0
 31 30  1  0
 32 31  1  0
 33 29  1  0
 33 32  1  0
 34 35  2  0
 34 30  1  0
 36 35  1  0
 37 36  2  0
 38 37  1  0
 38 29  2  0
 39 13  1  0
 39 44  1  0
 40 39  1  0
 40 43  1  1
 41 40  1  0
 42 40  1  0
 44 45  1  0
 45 49  1  0
 45 46  2  0
 47 44  1  0
 49 48  1  0
 49 51  1  0
 50 51  1  0
 51 52  1  0
 53 58  1  0
 54 56  1  0
 54 57  1  0
 54 53  1  0
 55 54  1  0
 58 59  1  0
 59 60  1  0
 61 68  2  0
 62 63  1  0
 64 63  1  0
 65 74  1  0
 65 64  1  0
 66 65  1  0
 66 67  1  0
 67 62  1  0
 67 61  1  0
 69 61  1  0
 69 60  1  0
 70 69  1  0
 71 74  1  0
 71 96  1  0
 72 71  2  0
 73 72  1  0
 73 75  2  0
 75 74  1  0
 76 73  1  0
 77 76  2  0
 78 77  1  0
 79 78  2  0
 79 80  1  0
 80 81  2  0
 81 76  1  0
 82 79  1  0
 83 82  1  0
 84 83  2  0
 85 84  1  0
 86 85  2  0
 86 87  1  0
 87 88  2  0
 88 83  1  0
 88 89  1  0
 90 86  1  0
 91 93  2  0
 91 72  1  0
 92 91  1  0
 94 92  1  0
 95 92  1  0
 96 98  1  0
 97 96  1  0
M  ISO  4  11 101  12 101  61 100  69 100
M  END
>  <TORSDO>  (93) 
F 25

>  <SCORE>  (93) 
-3.909

>  <name>  (93) 
94

>  <ligand_id>  (93) 
94

>  <original_smiles>  (93) 
[H]c1c([H])c([H])c2c(c1[H])C([H])([H])C([H])([H])C([H])([H])C2([H])N([H])C(=O)C1([H])N(C(=O)C([H])(N([H])C(=O)C([H])(N([H])C([H])([H])[H])C([H])([H])[H])C(C([H])([H])[H])(C([H])([H])[H])C([H])([H])[H])C([H])([H])c2c([H])c(OC([H])([H])C([H])([H])C([H])([H])C([H])([H])C3([H])C(C([H])([H])[H])=C(C([H])(C([H])([H])C([H])([H])C([H])([H])N([H])C(=O)N4C([H])([H])C([H])([H])C([H])([H])C([H])(n5nc(-c6c([H])c([H])c(Oc7c([H])c([H])c(F)c([H])c7F)c([H])c6[H])c(C(=O)N([H])[H])c5N([H])[H])C4([H])[H])[N+]([H])([H])[H])C([H])([H])C([H])([H])C3([H])[H])c([H])c([H])c2C1([H])[H]

>  <smiles>  (93) 
[H]c1c([H])c([H])c2c(c1[H])C([H])([H])C([H])([H])C([H])([H])C2([H])N([H])C(=O)C1([H])N(C(=O)C([H])(N([H])C(=O)C([H])(N([H])C([H])([H])[H])C([H])([H])[H])C(C([H])([H])[H])(C([H])([H])[H])C([H])([H])[H])C([H])([H])c2c([H])c(OC([H])([H])C([H])([H])C([H])([H])C([H])([H])C3([H])C(C([H])([H])[H])=C(C([H])(C([H])([H])C([H])([H])C([H])([H])N([H])C(=O)N4C([H])([H])C([H])([H])C([H])([H])C([H])(n5nc(-c6c([H])c([H])c(Oc7c([H])c([H])c(F)c([H])c7F)c([H])c6[H])c(C(=O)N([H])[H])c5N([H])[H])C4([H])[H])[N+]([H])([H])[H])C([H])([H])C([H])([H])C3([H])[H])c([H])c([H])c2C1([H])[H]

$$$$
95:0:0
     RDKit          3D

100107  0  0  1  0  0  0  0  0999 V2000
  -23.3710  -23.1100   18.5740 C   0  0  0  0  0  2  0  0  0  0  0  0
  -23.7030  -22.0300   17.5090 C   0  0  0  0  0  2  0  0  0  0  0  0
  -25.1950  -21.6740   17.2580 C   0  0  0  0  0  3  0  0  0  0  0  0
  -25.6990  -20.8070   18.3500 N   0  0  0  0  0  4  0  0  0  0  0  0
  -25.5450  -21.3040   19.2140 H   0  0  0  0  0  0  0  0  0  0  0  0
  -25.1200  -19.9830   18.3620 H   0  0  0  0  0  0  0  0  0  0  0  0
  -27.1130  -20.3680   18.3260 C   0  0  0  0  0  2  0  0  0  0  0  0
  -27.3320  -19.3000   19.4100 C   0  0  0  0  0  2  0  0  0  0  0  0
  -28.8030  -18.9440   19.6780 C   0  0  0  0  0  2  0  0  0  0  0  0
  -28.8710  -17.7170   20.5970 C   0  0  0  0  0  2  0  0  0  0  0  0
  -30.2800  -17.1840   20.9000 C   0  0  0  0  0  2  0  0  0  0  0  0
  -30.9330  -14.8010   20.8570 C   0  0  0  0  0  0  0  0  0  0  0  0
  -30.6570  -12.7730   19.5130 C   0  0  0  0  0  2  0  0  0  0  0  0
  -29.7840  -13.1420   18.2960 C   0  0  0  0  0  2  0  0  0  0  0  0
  -28.2880  -12.9860   18.6340 C   0  0  0  0  0  2  0  0  0  0  0  0
  -27.9020  -13.7010   19.9550 C   0  0  0  0  0  3  0  0  0  0  0  0
  -28.8940  -13.3440   21.0900 C   0  0  0  0  0  2  0  0  0  0  0  0
  -30.2590  -13.6490   20.6220 N   0  0  0  0  0  0  0  0  0  0  0  0
  -32.0790  -15.0230   20.4590 O   0  0  0  0  0  0  0  0  0  0  0  0
  -30.1620  -15.7890   21.3220 N   0  0  0  0  0  0  0  0  0  0  0  0
  -29.2620  -15.5000   21.6750 H   0  0  0  0  0  0  0  0  0  0  0  0
  -25.4520  -14.2890   20.4810 C   0  0  0  0  0  0  0  0  0  0  0  0
  -24.3700  -13.5060   20.7780 C   0  0  0  0  0  0  0  0  0  0  0  0
  -24.8490  -12.1590   20.7870 C   0  0  0  0  0  0  0  0  0  0  0  0
  -26.5220  -13.4200   20.3360 N   0  0  0  0  0  0  0  0  0  0  0  0
  -26.1590  -12.1360   20.5750 N   0  0  0  0  0  0  0  0  0  0  0  0
  -24.1300  -10.8880   20.9330 C   0  0  0  0  0  0  0  0  0  0  0  0
  -24.4990   -9.9400   21.9120 C   0  0  0  0  0  3  0  0  0  0  0  0
  -23.7820   -8.7310   22.0440 C   0  0  0  0  0  3  0  0  0  0  0  0
  -22.6800   -8.4650   21.1970 C   0  0  0  0  0  0  0  0  0  0  0  0
  -22.3300   -9.4030   20.2110 C   0  0  0  0  0  3  0  0  0  0  0  0
  -23.0490  -10.6020   20.0760 C   0  0  0  0  0  3  0  0  0  0  0  0
  -21.9400   -7.3070   21.2360 O   0  0  0  0  0  0  0  0  0  0  0  0
  -21.7860   -6.5920   22.3970 C   0  0  0  0  0  0  0  0  0  0  0  0
  -21.2130   -7.1620   23.5540 C   0  0  0  0  0  3  0  0  0  0  0  0
  -21.0090   -6.3720   24.7010 C   0  0  0  0  0  3  0  0  0  0  0  0
  -21.3660   -5.0110   24.6940 C   0  0  0  0  0  0  0  0  0  0  0  0
  -21.9320   -4.4380   23.5390 C   0  0  0  0  0  3  0  0  0  0  0  0
  -22.1390   -5.2280   22.3940 C   0  0  0  0  0  0  0  0  0  0  0  0
  -22.6640   -4.6660   21.2790 F   0  0  0  0  0  0  0  0  0  0  0  0
  -21.1640   -4.2470   25.7930 F   0  0  0  0  0  0  0  0  0  0  0  0
  -22.9490  -13.9640   20.9480 C   0  0  0  0  0  0  0  0  0  0  0  0
  -22.1750  -13.2650   21.7700 N   0  0  0  0  0  0  0  0  0  0  0  0
  -22.5330  -14.9760   20.3880 O   0  0  0  0  0  0  0  0  0  0  0  0
  -22.5250  -12.4470   22.2470 H   0  0  0  0  0  0  0  0  0  0  0  0
  -21.2220  -13.5560   21.9320 H   0  0  0  0  0  0  0  0  0  0  0  0
  -25.6110  -15.6600   20.3070 N   0  0  0  0  0  0  0  0  0  0  0  0
  -24.8350  -16.3100   20.3830 H   0  0  0  0  0  0  0  0  0  0  0  0
  -26.4810  -16.1060   20.0500 H   0  0  0  0  0  0  0  0  0  0  0  0
  -26.0700  -22.9340   17.1140 C   0  0  0  0  0  3  0  0  0  0  0  0
  -26.4540  -23.6220   18.0630 O   0  0  0  0  0  0  0  0  0  0  0  0
  -23.9750  -22.9040   19.9820 C   0  0  0  0  0  2  0  0  0  0  0  0
  -23.7080  -24.0850   20.9280 C   0  0  0  0  0  2  0  0  0  0  0  0
  -24.8030  -24.2340   21.9980 C   0  0  0  0  0  2  0  0  0  0  0  0
  -24.5660  -25.4280   22.9350 C   0  0  0  0  0  2  0  0  0  0  0  0
  -25.7890  -25.8210   23.7860 C   0  0  0  0  0  2  0  0  0  0  0  0
  -26.8750  -26.6290   23.0300 C   0  0  0  0  0  2  0  0  0  0  0  0
  -28.1110  -25.8350   22.5270 C   0  0  0  0  0  2  0  0  0  0  0  0
  -28.2670  -25.6050   21.0010 C   0  0  0  0  0  2  0  0  0  0  0  0
  -28.3360  -26.8160   20.2400 O   0  0  0  0  0  0  0  0  0  0  0  0
  -24.5410  -31.9540   23.2690 C   0  0  0  0  0  0  0  0  0  0  0  0
  -27.1720  -27.5390   20.1800 C   0  0  0  0  0  0  0  0  0  0  0  0
  -23.3280  -30.5490   21.6340 C   0  0  0  0  0  3  0  0  0  0  0  0
  -24.7750  -29.0190   20.1960 C   0  0  0  0  0  0  0  0  0  0  0  0
  -25.8460  -30.9270   21.4120 C   0  0  0  0  0  2  0  0  0  0  0  0
  -25.9320  -29.5590   20.7700 C   0  0  0  0  0  0  0  0  0  0  0  0
  -27.1370  -28.8260   20.7550 C   0  0  0  0  0  3  0  0  0  0  0  0
  -26.0050  -27.0130   19.5820 C   0  0  0  0  0  3  0  0  0  0  0  0
  -24.8040  -27.7460   19.5950 C   0  0  0  0  0  3  0  0  0  0  0  0
  -23.5270  -29.8710   20.2510 C   0  0  0  0  0  2  0  0  0  0  0  0
  -24.5910  -31.1570   22.1650 N   0  0  0  0  0  0  0  0  0  0  0  0
  -23.4630  -32.2220   23.8190 O   0  0  0  0  0  0  0  0  0  0  0  0
  -22.6880  -29.5240   22.5960 C   0  0  0  0  0  0  0  0  0  0  0  0
  -21.3760  -29.2860   22.4310 N   0  0  0  0  0  0  0  0  0  0  0  0
  -23.3670  -28.9470   23.4500 O   0  0  0  0  0  0  0  0  0  0  0  0
  -20.8920  -29.8060   21.7140 H   0  0  0  0  0  0  0  0  0  0  0  0
  -18.0480  -27.9330   22.7950 C   0  0  0  0  0  0  0  0  0  0  0  0
  -20.5710  -28.3360   23.1960 C   0  0  0  0  0  3  0  0  0  0  0  0
  -20.7800  -26.8910   22.6860 C   0  0  0  0  0  2  0  0  0  0  0  0
  -19.7530  -26.4710   21.6300 C   0  0  0  0  0  2  0  0  0  0  0  0
  -18.3320  -26.5670   22.1920 C   0  0  0  0  0  2  0  0  0  0  0  0
  -19.1010  -28.7690   23.2550 C   0  0  0  0  0  0  0  0  0  0  0  0
  -18.7850  -30.0430   23.7760 C   0  0  0  0  0  3  0  0  0  0  0  0
  -17.4500  -30.4810   23.8480 C   0  0  0  0  0  3  0  0  0  0  0  0
  -16.4090  -29.6420   23.4100 C   0  0  0  0  0  3  0  0  0  0  0  0
  -16.7110  -28.3710   22.8880 C   0  0  0  0  0  3  0  0  0  0  0  0
  -25.8310  -32.5860   23.8800 C   0  0  0  0  0  3  0  0  0  0  0  0
  -26.3470  -31.8270   25.1630 C   0  0  1  0  0  0  0  0  0  0  0  0
  -25.2550  -31.5970   26.2340 C   0  0  0  0  0  1  0  0  0  0  0  0
  -26.9300  -30.4460   24.7780 C   0  0  0  0  0  1  0  0  0  0  0  0
  -27.4990  -32.6290   25.8180 C   0  0  0  0  0  1  0  0  0  0  0  0
  -25.5300  -33.9890   24.1890 N   0  0  0  0  0  0  0  0  0  0  0  0
  -25.8920  -35.0300   23.4290 C   0  0  0  0  0  0  0  0  0  0  0  0
  -26.5860  -34.9110   22.4160 O   0  0  0  0  0  0  0  0  0  0  0  0
  -24.9100  -34.1560   24.9700 H   0  0  0  0  0  0  0  0  0  0  0  0
  -24.1930  -36.8390   23.0100 C   0  0  0  0  0  1  0  0  0  0  0  0
  -25.4060  -36.4280   23.8600 C   0  0  0  0  0  3  0  0  0  0  0  0
  -27.5280  -37.2960   24.7410 C   0  0  0  0  0  1  0  0  0  0  0  0
  -26.4530  -37.4680   23.7680 N   0  0  0  0  0  0  0  0  0  0  0  0
  -26.0530  -38.3940   23.9000 H   0  0  0  0  0  0  0  0  0  0  0  0
  1 52  1  0
  2  1  1  0
  3 50  1  0
  3  2  1  0
  3  4  1  0
  4  6  1  0
  4  5  1  0
  7  4  1  0
  7  8  1  0
  8  9  1  0
  9 10  1  0
 10 11  1  0
 11 20  1  0
 12 20  1  0
 13 18  1  0
 14 15  1  0
 14 13  1  0
 16 15  1  0
 16 25  1  0
 16 17  1  0
 18 12  1  0
 18 17  1  0
 19 12  2  0
 20 21  1  0
 22 23  2  0
 23 24  1  0
 23 42  1  0
 24 27  1  0
 25 22  1  0
 25 26  1  0
 26 24  2  0
 27 28  1  0
 28 29  2  0
 30 33  1  0
 30 29  1  0
 31 30  2  0
 32 31  1  0
 32 27  2  0
 33 34  1  0
 34 35  1  0
 35 36  2  0
 37 36  1  0
 37 41  1  0
 38 37  2  0
 39 34  2  0
 39 38  1  0
 40 39  1  0
 42 43  1  0
 43 46  1  0
 43 45  1  0
 44 42  2  0
 47 48  1  0
 47 22  1  0
 49 47  1  0
 50 51  2  0
 52 53  1  0
 53 54  1  0
 54 55  1  0
 55 56  1  0
 57 56  1  0
 58 57  1  0
 59 58  1  0
 60 59  1  0
 61 72  2  0
 62 60  1  0
 62 67  1  0
 63 71  1  0
 63 73  1  0
 64 70  1  0
 64 66  1  0
 65 71  1  0
 66 65  1  0
 67 66  2  0
 68 69  1  0
 68 62  2  0
 69 64  2  0
 70 63  1  0
 71 61  1  0
 73 75  2  0
 74 73  1  0
 76 74  1  0
 77 86  2  0
 77 82  1  0
 78 74  1  0
 78 82  1  0
 79 78  1  0
 80 81  1  0
 80 79  1  0
 81 77  1  0
 82 83  2  0
 83 84  1  0
 85 84  2  0
 86 85  1  0
 87 61  1  0
 87 92  1  0
 87 88  1  0
 88 91  1  1
 88 89  1  0
 90 88  1  0
 92 95  1  0
 93 97  1  0
 93 92  1  0
 94 93  2  0
 97 96  1  0
 99 97  1  0
 99100  1  0
 99 98  1  0
M  ISO  4  12 100  20 100  59 101  60 101
M  END
>  <TORSDO>  (94) 
F 33

>  <SCORE>  (94) 
-10.031

>  <name>  (94) 
95

>  <ligand_id>  (94) 
95

>  <original_smiles>  (94) 
[H]C(=O)C([H])(C([H])([H])C([H])([H])C([H])([H])C([H])([H])C([H])([H])C([H])([H])C([H])([H])C([H])([H])C([H])([H])C([H])([H])Oc1c([H])c([H])c2c(c1[H])C([H])([H])N(C(=O)C([H])(N([H])C(=O)C([H])(N([H])C([H])([H])[H])C([H])([H])[H])C(C([H])([H])[H])(C([H])([H])[H])C([H])([H])[H])C([H])(C(=O)N([H])C1([H])c3c([H])c([H])c([H])c([H])c3C([H])([H])C([H])([H])C1([H])[H])C2([H])[H])[N+]([H])([H])C([H])([H])C([H])([H])C([H])([H])C([H])([H])C([H])([H])N([H])C(=O)N1C([H])([H])C([H])([H])C([H])([H])C([H])(n2nc(-c3c([H])c([H])c(Oc4c([H])c([H])c(F)c([H])c4F)c([H])c3[H])c(C(=O)N([H])[H])c2N([H])[H])C1([H])[H]

>  <smiles>  (94) 
[H]C(=O)C([H])(C([H])([H])C([H])([H])C([H])([H])C([H])([H])C([H])([H])C([H])([H])C([H])([H])C([H])([H])C([H])([H])C([H])([H])Oc1c([H])c([H])c2c(c1[H])C([H])([H])N(C(=O)C([H])(N([H])C(=O)C([H])(N([H])C([H])([H])[H])C([H])([H])[H])C(C([H])([H])[H])(C([H])([H])[H])C([H])([H])[H])C([H])(C(=O)N([H])C1([H])c3c([H])c([H])c([H])c([H])c3C([H])([H])C([H])([H])C1([H])[H])C2([H])[H])[N+]([H])([H])C([H])([H])C([H])([H])C([H])([H])C([H])([H])C([H])([H])N([H])C(=O)N1C([H])([H])C([H])([H])C([H])([H])C([H])(n2nc(-c3c([H])c([H])c(Oc4c([H])c([H])c(F)c([H])c4F)c([H])c3[H])c(C(=O)N([H])[H])c2N([H])[H])C1([H])[H]

$$$$
96:0:0
     RDKit          3D

103111  0  0  1  0  0  0  0  0999 V2000
  -30.9300  -21.9290   20.0250 C   0  0  0  0  0  3  0  0  0  0  0  0
  -32.0040  -21.0300   20.1770 C   0  0  0  0  0  3  0  0  0  0  0  0
  -30.0900  -21.2750   22.2090 C   0  0  0  0  0  3  0  0  0  0  0  0
  -29.9500  -22.0400   21.0340 C   0  0  0  0  0  0  0  0  0  0  0  0
  -32.1430  -20.2540   21.3500 C   0  0  0  0  0  0  0  0  0  0  0  0
  -31.1860  -20.4030   22.3900 C   0  0  0  0  0  0  0  0  0  0  0  0
  -28.7820  -24.0000   22.0820 C   0  0  0  0  0  1  0  0  0  0  0  0
  -28.7830  -23.0120   20.9040 C   0  0  0  0  0  3  0  0  0  0  0  0
  -28.8060  -23.7000   19.5940 N   0  0  0  0  0  4  0  0  0  0  0  0
  -29.7680  -23.8460   19.3350 H   0  0  0  0  0  0  0  0  0  0  0  0
  -28.4040  -23.0720   18.9150 H   0  0  0  0  0  0  0  0  0  0  0  0
  -28.0700  -24.9910   19.5510 C   0  0  0  0  0  2  0  0  0  0  0  0
  -28.5300  -25.8920   18.3870 C   0  0  0  0  0  2  0  0  0  0  0  0
  -28.4370  -27.2680   18.7570 O   0  0  0  0  0  0  0  0  0  0  0  0
  -24.5390  -31.2470   23.1550 C   0  0  0  0  0  0  0  0  0  0  0  0
  -27.1900  -27.7960   19.0110 C   0  0  0  0  0  0  0  0  0  0  0  0
  -23.2790  -30.0440   21.4000 C   0  0  0  0  0  3  0  0  0  0  0  0
  -24.6820  -28.9700   19.5660 C   0  0  0  0  0  0  0  0  0  0  0  0
  -25.7130  -30.7260   21.0200 C   0  0  0  0  0  2  0  0  0  0  0  0
  -25.8460  -29.5130   20.1230 C   0  0  0  0  0  0  0  0  0  0  0  0
  -27.1010  -28.9320   19.8430 C   0  0  0  0  0  3  0  0  0  0  0  0
  -26.0060  -27.2610   18.4530 C   0  0  0  0  0  3  0  0  0  0  0  0
  -24.7560  -27.8410   18.7360 C   0  0  0  0  0  3  0  0  0  0  0  0
  -23.3790  -29.6570   19.9020 C   0  0  0  0  0  2  0  0  0  0  0  0
  -24.5350  -30.6780   21.9170 N   0  0  0  0  0  0  0  0  0  0  0  0
  -23.5090  -31.2900   23.8430 O   0  0  0  0  0  0  0  0  0  0  0  0
  -22.8470  -28.7950   22.2030 C   0  0  0  0  0  0  0  0  0  0  0  0
  -21.5990  -28.3500   21.9880 N   0  0  0  0  0  0  0  0  0  0  0  0
  -23.6320  -28.2350   22.9730 O   0  0  0  0  0  0  0  0  0  0  0  0
  -21.0160  -28.8660   21.3430 H   0  0  0  0  0  0  0  0  0  0  0  0
  -18.5990  -26.3420   22.0680 C   0  0  0  0  0  0  0  0  0  0  0  0
  -20.9880  -27.1710   22.6010 C   0  0  0  0  0  3  0  0  0  0  0  0
  -21.4820  -25.8740   21.9230 C   0  0  0  0  0  2  0  0  0  0  0  0
  -20.5690  -25.4010   20.7880 C   0  0  0  0  0  2  0  0  0  0  0  0
  -19.1510  -25.1470   21.3080 C   0  0  0  0  0  2  0  0  0  0  0  0
  -19.4620  -27.2990   22.6620 C   0  0  0  0  0  0  0  0  0  0  0  0
  -18.8970  -28.4090   23.3270 C   0  0  0  0  0  3  0  0  0  0  0  0
  -17.5000  -28.5670   23.4090 C   0  0  0  0  0  3  0  0  0  0  0  0
  -16.6520  -27.6050   22.8350 C   0  0  0  0  0  3  0  0  0  0  0  0
  -17.2010  -26.4950   22.1680 C   0  0  0  0  0  3  0  0  0  0  0  0
  -25.8270  -31.8950   23.7520 C   0  0  0  0  0  3  0  0  0  0  0  0
  -25.4950  -33.2740   24.1300 N   0  0  0  0  0  0  0  0  0  0  0  0
  -25.8380  -34.3590   23.4220 C   0  0  0  0  0  0  0  0  0  0  0  0
  -26.5380  -34.3020   22.4070 O   0  0  0  0  0  0  0  0  0  0  0  0
  -24.8710  -33.3930   24.9140 H   0  0  0  0  0  0  0  0  0  0  0  0
  -24.1100  -36.1530   23.0770 C   0  0  0  0  0  1  0  0  0  0  0  0
  -25.3200  -35.7230   23.9190 C   0  0  0  0  0  3  0  0  0  0  0  0
  -27.4130  -36.5790   24.8700 C   0  0  0  0  0  1  0  0  0  0  0  0
  -26.3480  -36.7860   23.8950 N   0  0  0  0  0  0  0  0  0  0  0  0
  -25.9300  -37.6970   24.0680 H   0  0  0  0  0  0  0  0  0  0  0  0
  -26.4040  -31.1010   24.9860 C   0  0  1  0  0  0  0  0  0  0  0  0
  -25.3440  -30.7670   26.0610 C   0  0  0  0  0  1  0  0  0  0  0  0
  -27.0440  -29.7710   24.5250 C   0  0  0  0  0  1  0  0  0  0  0  0
  -27.5300  -31.9230   25.6580 C   0  0  0  0  0  1  0  0  0  0  0  0
  -31.2930  -19.6830   23.7270 C   0  0  0  0  0  2  0  0  0  0  0  0
  -30.9480  -17.5070   25.0040 C   0  0  0  0  0  1  0  0  0  0  0  0
  -30.8290  -18.2240   23.6540 C   0  0  0  0  0  2  0  0  0  0  0  0
  -33.3200  -19.2800   21.4370 C   0  0  0  0  0  2  0  0  0  0  0  0
  -33.0290  -18.7390   19.0280 C   0  0  0  0  0  0  0  0  0  0  0  0
  -33.4310  -18.4210   20.2630 N   0  0  0  0  0  0  0  0  0  0  0  0
  -32.5420  -19.8380   18.7560 O   0  0  0  0  0  0  0  0  0  0  0  0
  -33.8580  -17.5140   20.3880 H   0  0  0  0  0  0  0  0  0  0  0  0
  -33.1750  -17.6870   17.9210 C   0  0  0  0  0  2  0  0  0  0  0  0
  -33.7320  -16.3130   18.3610 C   0  0  0  0  0  2  0  0  0  0  0  0
  -33.4880  -15.1630   17.3560 C   0  0  0  0  0  2  0  0  0  0  0  0
  -33.9740  -13.4320   19.0250 C   0  0  0  0  0  0  0  0  0  0  0  0
  -34.0490  -12.8210   21.4160 C   0  0  0  0  0  2  0  0  0  0  0  0
  -33.5600  -11.3780   21.6350 C   0  0  0  0  0  2  0  0  0  0  0  0
  -32.0270  -11.3290   21.7800 C   0  0  0  0  0  2  0  0  0  0  0  0
  -31.3000  -12.1100   20.6570 C   0  0  0  0  0  3  0  0  0  0  0  0
  -31.9140  -13.5150   20.4790 C   0  0  0  0  0  2  0  0  0  0  0  0
  -33.3620  -13.3640   20.2350 N   0  0  0  0  0  0  0  0  0  0  0  0
  -35.1470  -13.1040   18.8300 O   0  0  0  0  0  0  0  0  0  0  0  0
  -33.2150  -13.8890   18.0220 N   0  0  0  0  0  0  0  0  0  0  0  0
  -33.1070  -13.1550   17.3370 H   0  0  0  0  0  0  0  0  0  0  0  0
  -29.0270  -13.2920   20.9120 C   0  0  0  0  0  0  0  0  0  0  0  0
  -27.7660  -12.8100   21.1400 C   0  0  0  0  0  0  0  0  0  0  0  0
  -27.8990  -11.3930   21.2590 C   0  0  0  0  0  0  0  0  0  0  0  0
  -29.8620  -12.1860   20.9080 N   0  0  0  0  0  0  0  0  0  0  0  0
  -29.1760  -11.0440   21.1690 N   0  0  0  0  0  0  0  0  0  0  0  0
  -26.8810  -10.3430   21.3930 C   0  0  0  0  0  0  0  0  0  0  0  0
  -26.6290   -9.7070   22.6300 C   0  0  0  0  0  3  0  0  0  0  0  0
  -25.6320   -8.7130   22.7350 C   0  0  0  0  0  3  0  0  0  0  0  0
  -24.8700   -8.3520   21.5970 C   0  0  0  0  0  0  0  0  0  0  0  0
  -25.1400   -8.9720   20.3640 C   0  0  0  0  0  3  0  0  0  0  0  0
  -26.1410   -9.9520   20.2610 C   0  0  0  0  0  3  0  0  0  0  0  0
  -23.8980   -7.3800   21.5990 O   0  0  0  0  0  0  0  0  0  0  0  0
  -22.8800   -7.3820   22.5190 C   0  0  0  0  0  0  0  0  0  0  0  0
  -22.0670   -8.5170   22.7260 C   0  0  0  0  0  3  0  0  0  0  0  0
  -20.9870   -8.4550   23.6300 C   0  0  0  0  0  3  0  0  0  0  0  0
  -20.7150   -7.2580   24.3200 C   0  0  0  0  0  0  0  0  0  0  0  0
  -21.5210   -6.1260   24.1120 C   0  0  0  0  0  3  0  0  0  0  0  0
  -22.5980   -6.1870   23.2110 C   0  0  0  0  0  0  0  0  0  0  0  0
  -23.3600   -5.0870   22.9990 F   0  0  0  0  0  0  0  0  0  0  0  0
  -19.6710   -7.1950   25.1800 F   0  0  0  0  0  0  0  0  0  0  0  0
  -26.4930  -13.6050   21.1490 C   0  0  0  0  0  0  0  0  0  0  0  0
  -25.5250  -13.2040   21.9680 N   0  0  0  0  0  0  0  0  0  0  0  0
  -26.3650  -14.6150   20.4590 O   0  0  0  0  0  0  0  0  0  0  0  0
  -25.6380  -12.3840   22.5450 H   0  0  0  0  0  0  0  0  0  0  0  0
  -24.6560  -13.7160   22.0020 H   0  0  0  0  0  0  0  0  0  0  0  0
  -29.5270  -14.5710   20.6890 N   0  0  0  0  0  0  0  0  0  0  0  0
  -28.9170  -15.3750   20.6130 H   0  0  0  0  0  0  0  0  0  0  0  0
  -30.4880  -14.7740   20.4450 H   0  0  0  0  0  0  0  0  0  0  0  0
  1  2  2  0
  1  4  1  0
  2  5  1  0
  3  6  1  0
  4  3  2  0
  5 58  1  0
  5  6  2  0
  6 55  1  0
  8  4  1  0
  8  7  1  0
  9  8  1  0
 10  9  1  0
 11  9  1  0
 12  9  1  0
 13 14  1  0
 13 12  1  0
 14 16  1  0
 15 26  2  0
 16 21  1  0
 17 25  1  0
 17 27  1  0
 18 24  1  0
 18 20  1  0
 19 25  1  0
 20 19  1  0
 21 20  2  0
 22 23  1  0
 22 16  2  0
 23 18  2  0
 24 17  1  0
 25 15  1  0
 27 29  2  0
 28 27  1  0
 30 28  1  0
 31 40  2  0
 31 36  1  0
 32 28  1  0
 32 36  1  0
 33 32  1  0
 34 35  1  0
 34 33  1  0
 35 31  1  0
 36 37  2  0
 37 38  1  0
 39 38  2  0
 40 39  1  0
 41 15  1  0
 41 42  1  0
 41 51  1  0
 42 45  1  0
 43 47  1  0
 43 42  1  0
 44 43  2  0
 47 46  1  0
 49 47  1  0
 49 50  1  0
 49 48  1  0
 51 54  1  1
 51 52  1  0
 53 51  1  0
 57 55  1  0
 57 56  1  0
 59 60  1  0
 60 62  1  0
 60 58  1  0
 61 59  2  0
 63 64  1  0
 63 59  1  0
 65 74  1  0
 65 64  1  0
 66 72  1  0
 67 68  1  0
 68 69  1  0
 70 71  1  0
 70 79  1  0
 70 69  1  0
 72 71  1  0
 72 67  1  0
 73 66  2  0
 74 66  1  0
 75 74  1  0
 76 77  2  0
 77 96  1  0
 77 78  1  0
 78 81  1  0
 79 76  1  0
 79 80  1  0
 80 78  2  0
 81 82  1  0
 82 83  2  0
 84 87  1  0
 84 83  1  0
 85 84  2  0
 86 85  1  0
 86 81  2  0
 87 88  1  0
 88 89  2  0
 88 93  1  0
 89 90  1  0
 90 91  2  0
 91 95  1  0
 92 91  1  0
 93 92  2  0
 94 93  1  0
 96 97  1  0
 97100  1  0
 97 99  1  0
 98 96  2  0
101 76  1  0
102101  1  0
103101  1  0
M  ISO  4  13 101  14 101  66 100  74 100
M  END
>  <TORSDO>  (95) 
F 27

>  <SCORE>  (95) 
-4.967

>  <name>  (95) 
96

>  <ligand_id>  (95) 
96

>  <original_smiles>  (95) 
[H]c1c([H])c([H])c2c(c1[H])C([H])([H])C([H])([H])C([H])([H])C2([H])N([H])C(=O)C1([H])N(C(=O)C([H])(N([H])C(=O)C([H])(N([H])C([H])([H])[H])C([H])([H])[H])C(C([H])([H])[H])(C([H])([H])[H])C([H])([H])[H])C([H])([H])c2c([H])c(OC([H])([H])C([H])([H])[N+]([H])([H])C([H])(c3c([H])c([H])c(C([H])([H])N([H])C(=O)C([H])([H])C([H])([H])C([H])([H])N([H])C(=O)N4C([H])([H])C([H])([H])C([H])([H])C([H])(n5nc(-c6c([H])c([H])c(Oc7c([H])c([H])c(F)c([H])c7F)c([H])c6[H])c(C(=O)N([H])[H])c5N([H])[H])C4([H])[H])c(C([H])([H])C([H])([H])C([H])([H])[H])c3[H])C([H])([H])[H])c([H])c([H])c2C1([H])[H]

>  <smiles>  (95) 
[H]c1c([H])c([H])c2c(c1[H])C([H])([H])C([H])([H])C([H])([H])C2([H])N([H])C(=O)C1([H])N(C(=O)C([H])(N([H])C(=O)C([H])(N([H])C([H])([H])[H])C([H])([H])[H])C(C([H])([H])[H])(C([H])([H])[H])C([H])([H])[H])C([H])([H])c2c([H])c(OC([H])([H])C([H])([H])[N+]([H])([H])C([H])(c3c([H])c([H])c(C([H])([H])N([H])C(=O)C([H])([H])C([H])([H])C([H])([H])N([H])C(=O)N4C([H])([H])C([H])([H])C([H])([H])C([H])(n5nc(-c6c([H])c([H])c(Oc7c([H])c([H])c(F)c([H])c7F)c([H])c6[H])c(C(=O)N([H])[H])c5N([H])[H])C4([H])[H])c(C([H])([H])C([H])([H])C([H])([H])[H])c3[H])C([H])([H])[H])c([H])c([H])c2C1([H])[H]

$$$$
97:0:0
     RDKit          3D

 99107  0  0  1  0  0  0  0  0999 V2000
  -25.8810  -24.6890   22.6250 C   0  0  0  0  0  3  0  0  0  0  0  0
  -25.6920  -23.3270   22.3140 C   0  0  0  0  0  3  0  0  0  0  0  0
  -26.9090  -25.4260   22.0050 C   0  0  0  0  0  3  0  0  0  0  0  0
  -26.5190  -22.6870   21.3670 C   0  0  0  0  0  0  0  0  0  0  0  0
  -27.7390  -24.8070   21.0400 C   0  0  0  0  0  0  0  0  0  0  0  0
  -27.5120  -23.4520   20.7030 C   0  0  0  0  0  0  0  0  0  0  0  0
  -28.2920  -22.8840   19.7520 F   0  0  0  0  0  0  0  0  0  0  0  0
  -26.3060  -21.1870   21.1100 C   0  0  0  0  0  2  0  0  0  0  0  0
  -27.4420  -20.4110   20.3860 C   0  0  0  0  0  2  0  0  0  0  0  0
  -28.8770  -20.9720   20.5730 C   0  0  0  0  0  3  0  0  0  0  0  0
  -29.1870  -21.2350   21.9910 N   0  0  0  0  0  4  0  0  0  0  0  0
  -29.2100  -20.3850   22.5230 H   0  0  0  0  0  0  0  0  0  0  0  0
  -28.4990  -21.8470   22.3950 H   0  0  0  0  0  0  0  0  0  0  0  0
  -30.0780  -21.6900   22.0830 H   0  0  0  0  0  0  0  0  0  0  0  0
  -29.9790  -20.1310   19.8730 C   0  0  0  0  0  2  0  0  0  0  0  0
  -30.2040  -18.6690   20.3360 C   0  0  0  0  0  2  0  0  0  0  0  0
  -31.4670  -18.0630   19.6690 C   0  0  0  0  0  2  0  0  0  0  0  0
  -32.1530  -16.9000   20.4170 C   0  0  0  0  0  2  0  0  0  0  0  0
  -31.8900  -14.5180   19.6760 C   0  0  0  0  0  0  0  0  0  0  0  0
  -31.5460  -12.0830   19.3850 C   0  0  0  0  0  2  0  0  0  0  0  0
  -30.5810  -11.7810   18.2250 C   0  0  0  0  0  2  0  0  0  0  0  0
  -29.1190  -11.8220   18.7080 C   0  0  0  0  0  2  0  0  0  0  0  0
  -28.7990  -13.1070   19.5160 C   0  0  0  0  0  3  0  0  0  0  0  0
  -29.8640  -13.3450   20.6060 C   0  0  0  0  0  2  0  0  0  0  0  0
  -31.1860  -13.3910   19.9550 N   0  0  0  0  0  0  0  0  0  0  0  0
  -32.8930  -14.5270   18.9550 O   0  0  0  0  0  0  0  0  0  0  0  0
  -31.4520  -15.6220   20.3050 N   0  0  0  0  0  0  0  0  0  0  0  0
  -30.6300  -15.4990   20.8780 H   0  0  0  0  0  0  0  0  0  0  0  0
  -26.6410  -14.1030   20.5020 C   0  0  0  0  0  0  0  0  0  0  0  0
  -25.4620  -13.5230   20.8850 C   0  0  0  0  0  0  0  0  0  0  0  0
  -25.6220  -12.1210   20.6700 C   0  0  0  0  0  0  0  0  0  0  0  0
  -27.4550  -13.0610   20.0820 N   0  0  0  0  0  0  0  0  0  0  0  0
  -26.8470  -11.8560   20.2390 N   0  0  0  0  0  0  0  0  0  0  0  0
  -24.6600  -11.0180   20.7940 C   0  0  0  0  0  0  0  0  0  0  0  0
  -24.9510   -9.8690   21.5620 C   0  0  0  0  0  3  0  0  0  0  0  0
  -24.0020   -8.8310   21.6820 C   0  0  0  0  0  3  0  0  0  0  0  0
  -22.7500   -8.9350   21.0320 C   0  0  0  0  0  0  0  0  0  0  0  0
  -22.4750  -10.0700   20.2510 C   0  0  0  0  0  3  0  0  0  0  0  0
  -23.4200  -11.1020   20.1270 C   0  0  0  0  0  3  0  0  0  0  0  0
  -21.7770   -7.9660   21.0700 O   0  0  0  0  0  0  0  0  0  0  0  0
  -21.6350   -7.1290   22.1490 C   0  0  0  0  0  0  0  0  0  0  0  0
  -21.4370   -7.6260   23.4550 C   0  0  0  0  0  3  0  0  0  0  0  0
  -21.2280   -6.7310   24.5250 C   0  0  0  0  0  3  0  0  0  0  0  0
  -21.2050   -5.3440   24.2890 C   0  0  0  0  0  0  0  0  0  0  0  0
  -21.3950   -4.8480   22.9870 C   0  0  0  0  0  3  0  0  0  0  0  0
  -21.6070   -5.7390   21.9210 C   0  0  0  0  0  0  0  0  0  0  0  0
  -21.7690   -5.2570   20.6650 F   0  0  0  0  0  0  0  0  0  0  0  0
  -20.9960   -4.4840   25.3130 F   0  0  0  0  0  0  0  0  0  0  0  0
  -24.2220  -14.2360   21.3420 C   0  0  0  0  0  0  0  0  0  0  0  0
  -23.4420  -13.6070   22.2160 N   0  0  0  0  0  0  0  0  0  0  0  0
  -23.9650  -15.3770   20.9640 O   0  0  0  0  0  0  0  0  0  0  0  0
  -23.6630  -12.6770   22.5410 H   0  0  0  0  0  0  0  0  0  0  0  0
  -22.6130  -14.0630   22.5670 H   0  0  0  0  0  0  0  0  0  0  0  0
  -27.0820  -15.4230   20.4610 N   0  0  0  0  0  0  0  0  0  0  0  0
  -26.4790  -16.1980   20.7150 H   0  0  0  0  0  0  0  0  0  0  0  0
  -27.9890  -15.7180   20.1240 H   0  0  0  0  0  0  0  0  0  0  0  0
  -28.9310  -25.5070   20.3750 C   0  0  0  0  0  2  0  0  0  0  0  0
  -29.2510  -26.9780   20.7370 C   0  0  0  0  0  2  0  0  0  0  0  0
  -28.7280  -27.8830   19.7710 O   0  0  0  0  0  0  0  0  0  0  0  0
  -24.7500  -31.9880   24.0450 C   0  0  0  0  0  0  0  0  0  0  0  0
  -27.5230  -28.4620   20.0570 C   0  0  0  0  0  0  0  0  0  0  0  0
  -23.5610  -30.8680   22.1870 C   0  0  0  0  0  3  0  0  0  0  0  0
  -25.0460  -29.7450   20.4440 C   0  0  0  0  0  0  0  0  0  0  0  0
  -26.0450  -31.4360   21.9890 C   0  0  0  0  0  2  0  0  0  0  0  0
  -26.1900  -30.2210   21.0990 C   0  0  0  0  0  0  0  0  0  0  0  0
  -27.4330  -29.5810   20.9120 C   0  0  0  0  0  3  0  0  0  0  0  0
  -26.3690  -27.9910   19.4020 C   0  0  0  0  0  3  0  0  0  0  0  0
  -25.1270  -28.6260   19.5970 C   0  0  0  0  0  3  0  0  0  0  0  0
  -23.7550  -30.4920   20.6920 C   0  0  0  0  0  2  0  0  0  0  0  0
  -24.8060  -31.4370   22.8010 N   0  0  0  0  0  0  0  0  0  0  0  0
  -23.6800  -32.0710   24.6640 O   0  0  0  0  0  0  0  0  0  0  0  0
  -23.0160  -29.6330   22.9370 C   0  0  0  0  0  0  0  0  0  0  0  0
  -21.8070  -29.1910   22.5520 N   0  0  0  0  0  0  0  0  0  0  0  0
  -23.6850  -29.0790   23.8140 O   0  0  0  0  0  0  0  0  0  0  0  0
  -21.3210  -29.7160   21.8380 H   0  0  0  0  0  0  0  0  0  0  0  0
  -18.9300  -27.0570   22.0800 C   0  0  0  0  0  0  0  0  0  0  0  0
  -21.1110  -28.0190   23.0790 C   0  0  0  0  0  3  0  0  0  0  0  0
  -21.7930  -26.7120   22.6050 C   0  0  0  0  0  2  0  0  0  0  0  0
  -21.1670  -26.1370   21.3300 C   0  0  0  0  0  2  0  0  0  0  0  0
  -19.6780  -25.8470   21.5480 C   0  0  0  0  0  2  0  0  0  0  0  0
  -19.6070  -28.0850   22.7890 C   0  0  0  0  0  0  0  0  0  0  0  0
  -18.8750  -29.2080   23.2320 C   0  0  0  0  0  3  0  0  0  0  0  0
  -17.4920  -29.3040   22.9940 C   0  0  0  0  0  3  0  0  0  0  0  0
  -16.8230  -28.2770   22.3070 C   0  0  0  0  0  3  0  0  0  0  0  0
  -17.5400  -27.1560   21.8530 C   0  0  0  0  0  3  0  0  0  0  0  0
  -26.0230  -32.5620   24.7410 C   0  0  0  0  0  3  0  0  0  0  0  0
  -26.4580  -31.7360   26.0140 C   0  0  1  0  0  0  0  0  0  0  0  0
  -25.2920  -31.4360   26.9860 C   0  0  0  0  0  1  0  0  0  0  0  0
  -27.0830  -30.3850   25.5990 C   0  0  0  0  0  1  0  0  0  0  0  0
  -27.5520  -32.5070   26.7900 C   0  0  0  0  0  1  0  0  0  0  0  0
  -25.7400  -33.9600   25.0970 N   0  0  0  0  0  0  0  0  0  0  0  0
  -26.2030  -35.0210   24.4220 C   0  0  0  0  0  0  0  0  0  0  0  0
  -26.9770  -34.9200   23.4660 O   0  0  0  0  0  0  0  0  0  0  0  0
  -25.0660  -34.1150   25.8320 H   0  0  0  0  0  0  0  0  0  0  0  0
  -24.6190  -36.9110   23.9330 C   0  0  0  0  0  1  0  0  0  0  0  0
  -25.7290  -36.4150   24.8750 C   0  0  0  0  0  3  0  0  0  0  0  0
  -27.8110  -37.1200   25.9690 C   0  0  0  0  0  1  0  0  0  0  0  0
  -26.8180  -37.4160   24.9400 N   0  0  0  0  0  0  0  0  0  0  0  0
  -26.4440  -38.3450   25.1200 H   0  0  0  0  0  0  0  0  0  0  0  0
  2  1  1  0
  3  1  2  0
  4  2  2  0
  5  3  1  0
  6  5  2  0
  6  4  1  0
  7  6  1  0
  8  4  1  0
  9 10  1  0
  9  8  1  0
 10 15  1  0
 10 11  1  0
 11 14  1  0
 11 13  1  0
 11 12  1  0
 15 16  1  0
 17 16  1  0
 17 18  1  0
 19 25  1  0
 19 27  1  0
 20 25  1  0
 21 22  1  0
 21 20  1  0
 23 22  1  0
 23 32  1  0
 23 24  1  0
 25 24  1  0
 26 19  2  0
 27 18  1  0
 27 28  1  0
 29 30  2  0
 30 49  1  0
 31 34  1  0
 31 30  1  0
 32 33  1  0
 32 29  1  0
 33 31  2  0
 34 35  1  0
 35 36  2  0
 37 40  1  0
 37 36  1  0
 38 37  2  0
 39 38  1  0
 39 34  2  0
 40 41  1  0
 41 42  1  0
 42 43  2  0
 44 43  1  0
 44 48  1  0
 45 44  2  0
 46 41  2  0
 46 45  1  0
 47 46  1  0
 49 50  1  0
 50 52  1  0
 50 53  1  0
 51 49  2  0
 54 29  1  0
 54 55  1  0
 56 54  1  0
 57 58  1  0
 57  5  1  0
 59 61  1  0
 59 58  1  0
 60 71  2  0
 61 66  1  0
 62 70  1  0
 62 72  1  0
 63 69  1  0
 63 65  1  0
 64 70  1  0
 65 64  1  0
 66 65  2  0
 67 68  1  0
 67 61  2  0
 68 63  2  0
 69 62  1  0
 70 60  1  0
 72 74  2  0
 73 72  1  0
 75 73  1  0
 76 81  1  0
 77 73  1  0
 78 77  1  0
 79 80  1  0
 79 78  1  0
 80 76  1  0
 81 77  1  0
 81 82  2  0
 83 82  1  0
 84 83  2  0
 85 76  2  0
 85 84  1  0
 86 60  1  0
 86 91  1  0
 86 87  1  0
 87 90  1  1
 87 88  1  0
 89 87  1  0
 91 94  1  0
 92 96  1  0
 92 91  1  0
 93 92  2  0
 96 95  1  0
 96 98  1  0
 98 99  1  0
 98 97  1  0
M  ISO  4  19 100  27 100  58 101  59 101
M  END
>  <TORSDO>  (96) 
F 26

>  <SCORE>  (96) 
-5.956

>  <name>  (96) 
97

>  <ligand_id>  (96) 
97

>  <original_smiles>  (96) 
[H]c1c([H])c([H])c2c(c1[H])C([H])([H])C([H])([H])C([H])([H])C2([H])N([H])C(=O)C1([H])N(C(=O)C([H])(N([H])C(=O)C([H])(N([H])C([H])([H])[H])C([H])([H])[H])C(C([H])([H])[H])(C([H])([H])[H])C([H])([H])[H])C([H])([H])c2c([H])c(OC([H])([H])C([H])([H])c3c([H])c([H])c([H])c(C([H])([H])C([H])([H])C([H])(C([H])([H])C([H])([H])C([H])([H])C([H])([H])N([H])C(=O)N4C([H])([H])C([H])([H])C([H])([H])C([H])(n5nc(-c6c([H])c([H])c(Oc7c([H])c([H])c(F)c([H])c7F)c([H])c6[H])c(C(=O)N([H])[H])c5N([H])[H])C4([H])[H])[N+]([H])([H])[H])c3F)c([H])c([H])c2C1([H])[H]

>  <smiles>  (96) 
[H]c1c([H])c([H])c2c(c1[H])C([H])([H])C([H])([H])C([H])([H])C2([H])N([H])C(=O)C1([H])N(C(=O)C([H])(N([H])C(=O)C([H])(N([H])C([H])([H])[H])C([H])([H])[H])C(C([H])([H])[H])(C([H])([H])[H])C([H])([H])[H])C([H])([H])c2c([H])c(OC([H])([H])C([H])([H])c3c([H])c([H])c([H])c(C([H])([H])C([H])([H])C([H])(C([H])([H])C([H])([H])C([H])([H])C([H])([H])N([H])C(=O)N4C([H])([H])C([H])([H])C([H])([H])C([H])(n5nc(-c6c([H])c([H])c(Oc7c([H])c([H])c(F)c([H])c7F)c([H])c6[H])c(C(=O)N([H])[H])c5N([H])[H])C4([H])[H])[N+]([H])([H])[H])c3F)c([H])c([H])c2C1([H])[H]

$$$$
