0:0:0
     RDKit          3D

 91 98  0  0  1  0  0  0  0  0999 V2000
  -29.6970  -23.1080   20.6680 N   0  0  0  0  0  4  0  0  0  0  0  0
  -29.5030  -23.1960   21.6550 H   0  0  0  0  0  0  0  0  0  0  0  0
  -30.6810  -22.9160   20.5740 H   0  0  0  0  0  0  0  0  0  0  0  0
  -29.4460  -24.4170   19.9650 C   0  0  0  0  0  2  0  0  0  0  0  0
  -28.3500  -25.3320   20.5910 C   0  0  0  0  0  2  0  0  0  0  0  0
  -28.4250  -26.7000   20.1100 O   0  0  0  0  0  0  0  0  0  0  0  0
  -24.6290  -31.9040   23.2270 C   0  0  0  0  0  0  0  0  0  0  0  0
  -27.2570  -27.4430   20.1340 C   0  0  0  0  0  0  0  0  0  0  0  0
  -23.4140  -30.5020   21.5910 C   0  0  0  0  0  3  0  0  0  0  0  0
  -24.8600  -28.9650   20.1570 C   0  0  0  0  0  0  0  0  0  0  0  0
  -25.9390  -30.8590   21.3770 C   0  0  0  0  0  2  0  0  0  0  0  0
  -26.0240  -29.4850   20.7370 C   0  0  0  0  0  0  0  0  0  0  0  0
  -27.2260  -28.7350   20.7170 C   0  0  0  0  0  3  0  0  0  0  0  0
  -26.0760  -26.9480   19.5350 C   0  0  0  0  0  3  0  0  0  0  0  0
  -24.8830  -27.6960   19.5490 C   0  0  0  0  0  3  0  0  0  0  0  0
  -23.6170  -29.8250   20.2100 C   0  0  0  0  0  2  0  0  0  0  0  0
  -24.6790  -31.1040   22.1230 N   0  0  0  0  0  0  0  0  0  0  0  0
  -23.5500  -32.1720   23.7750 O   0  0  0  0  0  0  0  0  0  0  0  0
  -22.7690  -29.4790   22.5560 C   0  0  0  0  0  0  0  0  0  0  0  0
  -21.4440  -29.2910   22.4330 N   0  0  0  0  0  0  0  0  0  0  0  0
  -23.4570  -28.8550   23.3670 O   0  0  0  0  0  0  0  0  0  0  0  0
  -20.9500  -29.8460   21.7500 H   0  0  0  0  0  0  0  0  0  0  0  0
  -18.0770  -28.0750   22.9410 C   0  0  0  0  0  0  0  0  0  0  0  0
  -20.6340  -28.3500   23.2060 C   0  0  0  0  0  3  0  0  0  0  0  0
  -20.7450  -26.9180   22.6350 C   0  0  0  0  0  2  0  0  0  0  0  0
  -19.6430  -26.5850   21.6230 C   0  0  0  0  0  2  0  0  0  0  0  0
  -18.2610  -26.7250   22.2670 C   0  0  0  0  0  2  0  0  0  0  0  0
  -19.1920  -28.8440   23.3670 C   0  0  0  0  0  0  0  0  0  0  0  0
  -18.9680  -30.1070   23.9550 C   0  0  0  0  0  3  0  0  0  0  0  0
  -17.6610  -30.6040   24.1200 C   0  0  0  0  0  3  0  0  0  0  0  0
  -16.5600  -29.8320   23.7090 C   0  0  0  0  0  3  0  0  0  0  0  0
  -16.7680  -28.5690   23.1270 C   0  0  0  0  0  3  0  0  0  0  0  0
  -25.9180  -32.5370   23.8370 C   0  0  0  0  0  3  0  0  0  0  0  0
  -26.4460  -31.7660   25.1090 C   0  0  1  0  0  0  0  0  0  0  0  0
  -25.3620  -31.5260   26.1860 C   0  0  0  0  0  1  0  0  0  0  0  0
  -27.0250  -30.3880   24.7090 C   0  0  0  0  0  1  0  0  0  0  0  0
  -27.6010  -32.5610   25.7610 C   0  0  0  0  0  1  0  0  0  0  0  0
  -25.6100  -33.9350   24.1690 N   0  0  0  0  0  0  0  0  0  0  0  0
  -25.9340  -34.9870   23.4060 C   0  0  0  0  0  0  0  0  0  0  0  0
  -26.6000  -34.8840   22.3720 O   0  0  0  0  0  0  0  0  0  0  0  0
  -25.0190  -34.0870   24.9740 H   0  0  0  0  0  0  0  0  0  0  0  0
  -24.2010  -36.7760   23.0570 C   0  0  0  0  0  1  0  0  0  0  0  0
  -25.4450  -36.3740   23.8640 C   0  0  0  0  0  3  0  0  0  0  0  0
  -27.5840  -37.2610   24.6810 C   0  0  0  0  0  1  0  0  0  0  0  0
  -26.4770  -37.4300   23.7460 N   0  0  0  0  0  0  0  0  0  0  0  0
  -26.0690  -38.3480   23.9010 H   0  0  0  0  0  0  0  0  0  0  0  0
  -28.9850  -21.8800   20.1990 C   0  0  0  0  0  3  0  0  0  0  0  0
  -27.6570  -21.8570   20.9660 C   0  0  0  0  0  3  0  0  0  0  0  0
  -27.5380  -22.2620   22.1270 O   0  0  0  0  0  0  0  0  0  0  0  0
  -29.8030  -20.5510   20.4380 C   0  0  0  0  0  3  0  0  0  0  0  0
  -29.0900  -19.2260   20.0010 C   0  0  0  0  0  3  0  0  0  0  0  0
  -29.9390  -17.9160   19.8360 C   0  0  0  0  0  2  0  0  0  0  0  0
  -30.1720  -17.0240   21.0960 C   0  0  0  0  0  2  0  0  0  0  0  0
  -30.6350  -14.5760   20.4450 C   0  0  0  0  0  0  0  0  0  0  0  0
  -30.3910  -12.3960   19.3000 C   0  0  0  0  0  2  0  0  0  0  0  0
  -29.4430  -12.5670   18.0930 C   0  0  0  0  0  2  0  0  0  0  0  0
  -27.9670  -12.4300   18.5200 C   0  0  0  0  0  2  0  0  0  0  0  0
  -27.6230  -13.2730   19.7750 C   0  0  0  0  0  3  0  0  0  0  0  0
  -28.6750  -13.0530   20.8850 C   0  0  0  0  0  2  0  0  0  0  0  0
  -29.9960  -13.3800   20.3200 N   0  0  0  0  0  0  0  0  0  0  0  0
  -31.7790  -14.7710   20.0250 O   0  0  0  0  0  0  0  0  0  0  0  0
  -29.8630  -15.5850   20.9110 N   0  0  0  0  0  0  0  0  0  0  0  0
  -28.9340  -15.3040   21.1850 H   0  0  0  0  0  0  0  0  0  0  0  0
  -25.2180  -13.8900   20.4580 C   0  0  0  0  0  0  0  0  0  0  0  0
  -24.1480  -13.1220   20.8320 C   0  0  0  0  0  0  0  0  0  0  0  0
  -24.6100  -11.7700   20.8240 C   0  0  0  0  0  0  0  0  0  0  0  0
  -26.2660  -13.0060   20.2490 N   0  0  0  0  0  0  0  0  0  0  0  0
  -25.9040  -11.7270   20.5280 N   0  0  0  0  0  0  0  0  0  0  0  0
  -23.8830  -10.5110   21.0280 C   0  0  0  0  0  0  0  0  0  0  0  0
  -24.3190   -9.5510   21.9680 C   0  0  0  0  0  3  0  0  0  0  0  0
  -23.5940   -8.3540   22.1570 C   0  0  0  0  0  3  0  0  0  0  0  0
  -22.4180   -8.1100   21.4070 C   0  0  0  0  0  0  0  0  0  0  0  0
  -22.0040   -9.0580   20.4550 C   0  0  0  0  0  3  0  0  0  0  0  0
  -22.7300  -10.2460   20.2640 C   0  0  0  0  0  3  0  0  0  0  0  0
  -21.6660   -6.9660   21.5060 O   0  0  0  0  0  0  0  0  0  0  0  0
  -21.6290   -6.2250   22.6600 C   0  0  0  0  0  0  0  0  0  0  0  0
  -21.2290   -6.7850   23.8920 C   0  0  0  0  0  3  0  0  0  0  0  0
  -21.1390   -5.9700   25.0390 C   0  0  0  0  0  3  0  0  0  0  0  0
  -21.4420   -4.5980   24.9550 C   0  0  0  0  0  0  0  0  0  0  0  0
  -21.8350   -4.0380   23.7270 C   0  0  0  0  0  3  0  0  0  0  0  0
  -21.9260   -4.8490   22.5820 C   0  0  0  0  0  0  0  0  0  0  0  0
  -22.2860   -4.3000   21.3970 F   0  0  0  0  0  0  0  0  0  0  0  0
  -21.3480   -3.8140   26.0540 F   0  0  0  0  0  0  0  0  0  0  0  0
  -22.7480  -13.6020   21.0850 C   0  0  0  0  0  0  0  0  0  0  0  0
  -22.0130  -12.9170   21.9550 N   0  0  0  0  0  0  0  0  0  0  0  0
  -22.3130  -14.6180   20.5450 O   0  0  0  0  0  0  0  0  0  0  0  0
  -22.3760  -12.0950   22.4120 H   0  0  0  0  0  0  0  0  0  0  0  0
  -21.0730  -13.2220   22.1660 H   0  0  0  0  0  0  0  0  0  0  0  0
  -25.3850  -15.2580   20.2590 N   0  0  0  0  0  0  0  0  0  0  0  0
  -24.6170  -15.9140   20.3450 H   0  0  0  0  0  0  0  0  0  0  0  0
  -26.2330  -15.6870   19.9090 H   0  0  0  0  0  0  0  0  0  0  0  0
  1  2  1  0
  3  1  1  0
  4  5  1  0
  4  1  1  0
  6  8  1  0
  6  5  1  0
  7 18  2  0
  8 13  1  0
  9 17  1  0
  9 19  1  0
 10 16  1  0
 10 12  1  0
 11 17  1  0
 12 11  1  0
 13 12  2  0
 14 15  1  0
 14  8  2  0
 15 10  2  0
 16  9  1  0
 17  7  1  0
 19 21  2  0
 20 19  1  0
 22 20  1  0
 23 32  2  0
 23 28  1  0
 24 20  1  0
 24 28  1  0
 25 24  1  0
 26 27  1  0
 26 25  1  0
 27 23  1  0
 28 29  2  0
 29 30  1  0
 31 30  2  0
 32 31  1  0
 33  7  1  0
 33 38  1  0
 33 34  1  0
 34 37  1  1
 34 35  1  0
 36 34  1  0
 38 41  1  0
 39 43  1  0
 39 38  1  0
 40 39  2  0
 43 42  1  0
 45 43  1  0
 45 46  1  0
 45 44  1  0
 47 50  1  0
 47  1  1  0
 47 48  1  0
 48 49  2  0
 51 50  2  0
 52 51  1  0
 52 53  1  0
 54 62  1  0
 55 60  1  0
 56 57  1  0
 56 55  1  0
 58 57  1  0
 58 67  1  0
 58 59  1  0
 60 54  1  0
 60 59  1  0
 61 54  2  0
 62 53  1  0
 62 63  1  0
 64 65  2  0
 65 84  1  0
 66 65  1  0
 66 69  1  0
 67 64  1  0
 67 68  1  0
 68 66  2  0
 69 70  1  0
 70 71  2  0
 72 75  1  0
 72 71  1  0
 73 72  2  0
 74 73  1  0
 74 69  2  0
 75 76  1  0
 76 77  1  0
 77 78  2  0
 79 78  1  0
 79 83  1  0
 80 79  2  0
 81 76  2  0
 81 80  1  0
 82 81  1  0
 84 85  1  0
 85 88  1  0
 85 87  1  0
 86 84  2  0
 89 90  1  0
 89 64  1  0
 91 89  1  0
M  ISO  4   5 101   6 101  54 100  62 100
M  END
>  <TORSDO>  (1) 
F 24

>  <SCORE>  (1) 
-12.202

>  <name>  (1) 
0

>  <ligand_id>  (1) 
0

>  <original_smiles>  (1) 
[H]C(=O)C([H])(C([H])([H])C([H])([H])C([H])([H])C([H])([H])N([H])C(=O)N1C([H])([H])C([H])([H])C([H])([H])C([H])(n2nc(-c3c([H])c([H])c(Oc4c([H])c([H])c(F)c([H])c4F)c([H])c3[H])c(C(=O)N([H])[H])c2N([H])[H])C1([H])[H])[N+]([H])([H])C([H])([H])C([H])([H])Oc1c([H])c([H])c2c(c1[H])C([H])([H])N(C(=O)C([H])(N([H])C(=O)C([H])(N([H])C([H])([H])[H])C([H])([H])[H])C(C([H])([H])[H])(C([H])([H])[H])C([H])([H])[H])C([H])(C(=O)N([H])C1([H])c3c([H])c([H])c([H])c([H])c3C([H])([H])C([H])([H])C1([H])[H])C2([H])[H]

>  <smiles>  (1) 
[H]C(=O)C([H])(C([H])([H])C([H])([H])C([H])([H])C([H])([H])N([H])C(=O)N1C([H])([H])C([H])([H])C([H])([H])C([H])(n2nc(-c3c([H])c([H])c(Oc4c([H])c([H])c(F)c([H])c4F)c([H])c3[H])c(C(=O)N([H])[H])c2N([H])[H])C1([H])[H])[N+]([H])([H])C([H])([H])C([H])([H])Oc1c([H])c([H])c2c(c1[H])C([H])([H])N(C(=O)C([H])(N([H])C(=O)C([H])(N([H])C([H])([H])[H])C([H])([H])[H])C(C([H])([H])[H])(C([H])([H])[H])C([H])([H])[H])C([H])(C(=O)N([H])C1([H])c3c([H])c([H])c([H])c([H])c3C([H])([H])C([H])([H])C1([H])[H])C2([H])[H]

$$$$
1:0:0
     RDKit          3D

 97106  0  0  1  0  0  0  0  0999 V2000
  -28.5450  -21.5500   21.9490 C   0  0  0  0  0  3  0  0  0  0  0  0
  -29.4870  -20.7810   21.2420 C   0  0  0  0  0  3  0  0  0  0  0  0
  -27.6310  -22.3660   21.2570 C   0  0  0  0  0  3  0  0  0  0  0  0
  -28.5650  -21.6020   19.1400 C   0  0  0  0  0  3  0  0  0  0  0  0
  -29.4960  -20.7900   19.8270 C   0  0  0  0  0  0  0  0  0  0  0  0
  -27.6450  -22.4080   19.8480 C   0  0  0  0  0  0  0  0  0  0  0  0
  -30.5400  -20.0100   19.0240 C   0  0  0  0  0  2  0  0  0  0  0  0
  -32.7090  -16.2430   19.6730 C   0  0  0  0  0  2  0  0  0  0  0  0
  -30.4760  -17.4480   19.4190 C   0  0  0  0  0  2  0  0  0  0  0  0
  -33.3570  -17.5980   19.9930 C   0  0  0  0  0  2  0  0  0  0  0  0
  -31.2120  -16.2450   20.0550 C   0  0  0  0  0  3  0  0  0  0  0  0
  -31.2030  -18.7900   19.7140 C   0  0  0  0  0  3  0  0  0  0  0  0
  -32.6300  -18.6970   19.3210 N   0  0  0  0  0  4  0  0  0  0  0  0
  -32.7080  -18.5920   18.3220 H   0  0  0  0  0  0  0  0  0  0  0  0
  -33.0890  -19.5610   19.5650 H   0  0  0  0  0  0  0  0  0  0  0  0
  -30.7700  -14.0220   18.8730 C   0  0  0  0  0  0  0  0  0  0  0  0
  -30.4210  -11.6380   18.3200 C   0  0  0  0  0  2  0  0  0  0  0  0
  -29.2500  -11.4110   17.3470 C   0  0  0  0  0  2  0  0  0  0  0  0
  -27.9150  -11.3170   18.1120 C   0  0  0  0  0  2  0  0  0  0  0  0
  -27.7220  -12.4890   19.1070 C   0  0  0  0  0  3  0  0  0  0  0  0
  -28.9730  -12.6570   19.9940 C   0  0  0  0  0  2  0  0  0  0  0  0
  -30.1470  -12.8410   19.1170 N   0  0  0  0  0  0  0  0  0  0  0  0
  -31.5550  -14.1940   17.9350 O   0  0  0  0  0  0  0  0  0  0  0  0
  -30.5490  -14.9560   19.8120 N   0  0  0  0  0  0  0  0  0  0  0  0
  -29.8780  -14.6780   20.5140 H   0  0  0  0  0  0  0  0  0  0  0  0
  -25.7770  -13.2530   20.6130 C   0  0  0  0  0  0  0  0  0  0  0  0
  -24.7100  -12.5760   21.1380 C   0  0  0  0  0  0  0  0  0  0  0  0
  -24.8550  -11.2190   20.7160 C   0  0  0  0  0  0  0  0  0  0  0  0
  -26.5170  -12.3110   19.9130 N   0  0  0  0  0  0  0  0  0  0  0  0
  -25.9790  -11.0700   20.0260 N   0  0  0  0  0  0  0  0  0  0  0  0
  -23.9630  -10.0660   20.8780 C   0  0  0  0  0  0  0  0  0  0  0  0
  -24.2990   -8.9860   21.7260 C   0  0  0  0  0  3  0  0  0  0  0  0
  -23.4170   -7.8950   21.8790 C   0  0  0  0  0  3  0  0  0  0  0  0
  -22.1850   -7.8770   21.1840 C   0  0  0  0  0  0  0  0  0  0  0  0
  -21.8650   -8.9420   20.3240 C   0  0  0  0  0  3  0  0  0  0  0  0
  -22.7460  -10.0250   20.1690 C   0  0  0  0  0  3  0  0  0  0  0  0
  -21.2770   -6.8470   21.2510 O   0  0  0  0  0  0  0  0  0  0  0  0
  -21.0760   -6.1390   22.4080 C   0  0  0  0  0  0  0  0  0  0  0  0
  -20.5910   -6.7540   23.5840 C   0  0  0  0  0  3  0  0  0  0  0  0
  -20.3340   -5.9760   24.7300 C   0  0  0  0  0  3  0  0  0  0  0  0
  -20.5510   -4.5850   24.7010 C   0  0  0  0  0  0  0  0  0  0  0  0
  -21.0280   -3.9700   23.5300 C   0  0  0  0  0  3  0  0  0  0  0  0
  -21.2870   -4.7460   22.3860 C   0  0  0  0  0  0  0  0  0  0  0  0
  -21.7270   -4.1450   21.2540 F   0  0  0  0  0  0  0  0  0  0  0  0
  -20.2950   -3.8350   25.7990 F   0  0  0  0  0  0  0  0  0  0  0  0
  -23.5650  -13.1670   21.9100 C   0  0  0  0  0  0  0  0  0  0  0  0
  -22.9950  -12.4090   22.8400 N   0  0  0  0  0  0  0  0  0  0  0  0
  -23.2000  -14.3280   21.7240 O   0  0  0  0  0  0  0  0  0  0  0  0
  -23.3090  -11.4630   23.0060 H   0  0  0  0  0  0  0  0  0  0  0  0
  -22.2360  -12.7780   23.3960 H   0  0  0  0  0  0  0  0  0  0  0  0
  -26.1720  -14.5860   20.6520 N   0  0  0  0  0  0  0  0  0  0  0  0
  -25.6260  -15.3050   21.1140 H   0  0  0  0  0  0  0  0  0  0  0  0
  -26.9880  -14.9520   20.1770 H   0  0  0  0  0  0  0  0  0  0  0  0
  -26.6730  -23.3240   19.1090 C   0  0  0  0  0  2  0  0  0  0  0  0
  -27.3440  -24.1620   18.0060 C   0  0  0  0  0  2  0  0  0  0  0  0
  -26.4780  -25.3290   17.4910 C   0  0  0  0  0  2  0  0  0  0  0  0
  -26.8920  -26.5560   18.1010 O   0  0  0  0  0  0  0  0  0  0  0  0
  -25.7170  -29.9820   24.2140 C   0  0  0  0  0  0  0  0  0  0  0  0
  -26.0090  -27.3610   18.7930 C   0  0  0  0  0  0  0  0  0  0  0  0
  -23.8120  -29.9230   22.6410 C   0  0  0  0  0  3  0  0  0  0  0  0
  -24.3350  -29.0870   20.2890 C   0  0  0  0  0  0  0  0  0  0  0  0
  -26.2190  -29.7890   21.7780 C   0  0  0  0  0  2  0  0  0  0  0  0
  -25.6910  -28.9800   20.6110 C   0  0  0  0  0  0  0  0  0  0  0  0
  -26.5290  -28.1240   19.8630 C   0  0  0  0  0  3  0  0  0  0  0  0
  -24.6260  -27.4560   18.5090 C   0  0  0  0  0  3  0  0  0  0  0  0
  -23.7950  -28.3200   19.2440 C   0  0  0  0  0  3  0  0  0  0  0  0
  -23.5060  -30.0370   21.1240 C   0  0  0  0  0  2  0  0  0  0  0  0
  -25.2820  -29.8800   22.9260 N   0  0  0  0  0  0  0  0  0  0  0  0
  -24.9220  -30.1510   25.1470 O   0  0  0  0  0  0  0  0  0  0  0  0
  -23.0390  -28.7120   23.2110 C   0  0  0  0  0  0  0  0  0  0  0  0
  -21.7360  -28.6310   22.8970 N   0  0  0  0  0  0  0  0  0  0  0  0
  -23.6140  -27.8620   23.8960 O   0  0  0  0  0  0  0  0  0  0  0  0
  -21.3380  -29.3720   22.3370 H   0  0  0  0  0  0  0  0  0  0  0  0
  -18.5420  -27.1090   22.1530 C   0  0  0  0  0  0  0  0  0  0  0  0
  -20.8190  -27.5630   23.2920 C   0  0  0  0  0  3  0  0  0  0  0  0
  -21.2660  -26.2010   22.7100 C   0  0  0  0  0  2  0  0  0  0  0  0
  -20.6070  -25.8740   21.3660 C   0  0  0  0  0  2  0  0  0  0  0  0
  -19.0820  -25.8430   21.5090 C   0  0  0  0  0  2  0  0  0  0  0  0
  -19.3630  -27.9240   22.9770 C   0  0  0  0  0  0  0  0  0  0  0  0
  -18.8210  -29.1100   23.5220 C   0  0  0  0  0  3  0  0  0  0  0  0
  -17.4880  -29.4780   23.2620 C   0  0  0  0  0  3  0  0  0  0  0  0
  -16.6760  -28.6590   22.4600 C   0  0  0  0  0  3  0  0  0  0  0  0
  -17.2020  -27.4760   21.9090 C   0  0  0  0  0  3  0  0  0  0  0  0
  -27.2350  -29.9170   24.5700 C   0  0  0  0  0  3  0  0  0  0  0  0
  -27.5120  -31.0060   25.5150 N   0  0  0  0  0  0  0  0  0  0  0  0
  -28.1250  -32.1540   25.1980 C   0  0  0  0  0  0  0  0  0  0  0  0
  -28.5880  -32.3770   24.0750 O   0  0  0  0  0  0  0  0  0  0  0  0
  -27.1140  -30.9120   26.4400 H   0  0  0  0  0  0  0  0  0  0  0  0
  -27.1780  -34.3060   26.0910 C   0  0  0  0  0  1  0  0  0  0  0  0
  -28.2470  -33.2230   26.3010 C   0  0  0  0  0  3  0  0  0  0  0  0
  -30.6270  -32.9380   26.8350 C   0  0  0  0  0  1  0  0  0  0  0  0
  -29.5850  -33.8510   26.3690 N   0  0  0  0  0  0  0  0  0  0  0  0
  -29.5710  -34.6570   26.9870 H   0  0  0  0  0  0  0  0  0  0  0  0
  -27.6750  -28.5280   25.1760 C   0  0  1  0  0  0  0  0  0  0  0  0
  -26.7700  -28.0350   26.3290 C   0  0  0  0  0  1  0  0  0  0  0  0
  -27.6840  -27.4330   24.0850 C   0  0  0  0  0  1  0  0  0  0  0  0
  -29.1220  -28.6290   25.7160 C   0  0  0  0  0  1  0  0  0  0  0  0
  2  1  2  0
  3  1  1  0
  4  5  2  0
  4  6  1  0
  5  2  1  0
  6  3  2  0
  7  5  1  0
  8 10  1  0
  8 11  1  0
  9 12  1  0
  9 11  1  0
 11 24  1  0
 12  7  1  0
 13 15  1  0
 13 12  1  0
 13 10  1  0
 14 13  1  0
 16 22  1  0
 16 24  1  0
 17 22  1  0
 18 19  1  0
 18 17  1  0
 20 19  1  0
 20 29  1  0
 20 21  1  0
 22 21  1  0
 23 16  2  0
 24 25  1  0
 26 51  1  0
 26 27  2  0
 27 46  1  0
 28 31  1  0
 28 27  1  0
 29 30  1  0
 29 26  1  0
 30 28  2  0
 31 32  1  0
 32 33  2  0
 34 37  1  0
 34 33  1  0
 35 34  2  0
 36 35  1  0
 36 31  2  0
 37 38  1  0
 38 39  1  0
 39 40  2  0
 41 40  1  0
 41 45  1  0
 42 41  2  0
 43 38  2  0
 43 42  1  0
 44 43  1  0
 46 47  1  0
 47 49  1  0
 47 50  1  0
 48 46  2  0
 51 52  1  0
 53 51  1  0
 54  6  1  0
 55 54  1  0
 56 55  1  0
 56 57  1  0
 57 59  1  0
 58 69  2  0
 59 64  1  0
 60 68  1  0
 60 70  1  0
 61 63  1  0
 61 67  1  0
 62 68  1  0
 63 62  1  0
 64 63  2  0
 65 59  2  0
 65 66  1  0
 66 61  2  0
 67 60  1  0
 68 58  1  0
 70 72  2  0
 71 70  1  0
 73 71  1  0
 74 79  1  0
 75 71  1  0
 76 75  1  0
 77 78  1  0
 77 76  1  0
 78 74  1  0
 79 75  1  0
 79 80  2  0
 81 80  1  0
 82 81  2  0
 83 74  2  0
 83 82  1  0
 84 58  1  0
 84 94  1  0
 84 85  1  0
 85 88  1  0
 86 85  1  0
 86 90  1  0
 87 86  2  0
 90 89  1  0
 90 92  1  0
 92 91  1  0
 92 93  1  0
 94 97  1  1
 94 95  1  0
 96 94  1  0
M  ISO  4  16 100  24 100  56 101  57 101
M  END
>  <TORSDO>  (2) 
F 21

>  <SCORE>  (2) 
-7.943

>  <name>  (2) 
1

>  <ligand_id>  (2) 
1

>  <original_smiles>  (2) 
[H]c1c([H])c([H])c2c(c1[H])C([H])([H])C([H])([H])C([H])([H])C2([H])N([H])C(=O)C1([H])N(C(=O)C([H])(N([H])C(=O)C([H])(N([H])C([H])([H])[H])C([H])([H])[H])C(C([H])([H])[H])(C([H])([H])[H])C([H])([H])[H])C([H])([H])c2c([H])c(OC([H])([H])C([H])([H])C([H])([H])c3c([H])c([H])c([H])c(C([H])([H])C4([H])C([H])([H])C([H])(N([H])C(=O)N5C([H])([H])C([H])([H])C([H])([H])C([H])(n6nc(-c7c([H])c([H])c(Oc8c([H])c([H])c(F)c([H])c8F)c([H])c7[H])c(C(=O)N([H])[H])c6N([H])[H])C5([H])[H])C([H])([H])C([H])([H])[N+]4([H])[H])c3[H])c([H])c([H])c2C1([H])[H]

>  <smiles>  (2) 
[H]c1c([H])c([H])c2c(c1[H])C([H])([H])C([H])([H])C([H])([H])C2([H])N([H])C(=O)C1([H])N(C(=O)C([H])(N([H])C(=O)C([H])(N([H])C([H])([H])[H])C([H])([H])[H])C(C([H])([H])[H])(C([H])([H])[H])C([H])([H])[H])C([H])([H])c2c([H])c(OC([H])([H])C([H])([H])C([H])([H])c3c([H])c([H])c([H])c(C([H])([H])C4([H])C([H])([H])C([H])(N([H])C(=O)N5C([H])([H])C([H])([H])C([H])([H])C([H])(n6nc(-c7c([H])c([H])c(Oc8c([H])c([H])c(F)c([H])c8F)c([H])c7[H])c(C(=O)N([H])[H])c6N([H])[H])C5([H])[H])C([H])([H])C([H])([H])[N+]4([H])[H])c3[H])c([H])c([H])c2C1([H])[H]

$$$$
2:0:0
     RDKit          3D

 92 99  0  0  1  0  0  0  0  0999 V2000
  -32.1950  -25.7650   20.9470 C   0  0  0  0  0  3  0  0  0  0  0  0
  -31.5280  -26.1090   22.0570 C   0  0  0  0  0  3  0  0  0  0  0  0
  -30.5790  -27.2800   22.1650 C   0  0  0  0  0  2  0  0  0  0  0  0
  -29.1490  -26.7830   22.4440 C   0  0  0  0  0  2  0  0  0  0  0  0
  -28.5250  -25.9630   21.2900 C   0  0  0  0  0  2  0  0  0  0  0  0
  -28.3340  -26.7200   20.0950 O   0  0  0  0  0  0  0  0  0  0  0  0
  -24.6240  -31.9120   23.1680 C   0  0  0  0  0  0  0  0  0  0  0  0
  -27.1780  -27.4570   20.0990 C   0  0  0  0  0  0  0  0  0  0  0  0
  -23.3710  -30.5060   21.5630 C   0  0  0  0  0  3  0  0  0  0  0  0
  -24.7850  -28.9410   20.1300 C   0  0  0  0  0  0  0  0  0  0  0  0
  -25.8870  -30.8580   21.3030 C   0  0  0  0  0  2  0  0  0  0  0  0
  -25.9520  -29.4820   20.6800 C   0  0  0  0  0  0  0  0  0  0  0  0
  -27.1570  -28.7530   20.6500 C   0  0  0  0  0  3  0  0  0  0  0  0
  -26.0020  -26.9150   19.5460 C   0  0  0  0  0  3  0  0  0  0  0  0
  -24.8030  -27.6550   19.5560 C   0  0  0  0  0  3  0  0  0  0  0  0
  -23.5440  -29.8030   20.1880 C   0  0  0  0  0  2  0  0  0  0  0  0
  -24.6470  -31.1040   22.0720 N   0  0  0  0  0  0  0  0  0  0  0  0
  -23.5560  -32.2010   23.7280 O   0  0  0  0  0  0  0  0  0  0  0  0
  -22.7280  -29.5030   22.5480 C   0  0  0  0  0  0  0  0  0  0  0  0
  -21.4010  -29.3330   22.4420 N   0  0  0  0  0  0  0  0  0  0  0  0
  -23.4190  -28.8820   23.3590 O   0  0  0  0  0  0  0  0  0  0  0  0
  -20.9060  -29.8850   21.7570 H   0  0  0  0  0  0  0  0  0  0  0  0
  -18.0240  -28.1820   22.9940 C   0  0  0  0  0  0  0  0  0  0  0  0
  -20.5860  -28.4150   23.2360 C   0  0  0  0  0  3  0  0  0  0  0  0
  -20.6690  -26.9760   22.6800 C   0  0  0  0  0  2  0  0  0  0  0  0
  -19.5540  -26.6520   21.6820 C   0  0  0  0  0  2  0  0  0  0  0  0
  -18.1800  -26.8200   22.3380 C   0  0  0  0  0  2  0  0  0  0  0  0
  -19.1550  -28.9380   23.4020 C   0  0  0  0  0  0  0  0  0  0  0  0
  -18.9550  -30.2140   23.9740 C   0  0  0  0  0  3  0  0  0  0  0  0
  -17.6570  -30.7310   24.1470 C   0  0  0  0  0  3  0  0  0  0  0  0
  -16.5410  -29.9710   23.7560 C   0  0  0  0  0  3  0  0  0  0  0  0
  -16.7250  -28.7000   23.1840 C   0  0  0  0  0  3  0  0  0  0  0  0
  -25.9300  -32.5320   23.7560 C   0  0  0  0  0  3  0  0  0  0  0  0
  -26.4830  -31.7450   25.0070 C   0  0  1  0  0  0  0  0  0  0  0  0
  -25.4180  -31.4870   26.0980 C   0  0  0  0  0  1  0  0  0  0  0  0
  -27.0620  -30.3780   24.5760 C   0  0  0  0  0  1  0  0  0  0  0  0
  -27.6520  -32.5320   25.6460 C   0  0  0  0  0  1  0  0  0  0  0  0
  -25.6410  -33.9290   24.1050 N   0  0  0  0  0  0  0  0  0  0  0  0
  -25.9710  -34.9830   23.3470 C   0  0  0  0  0  0  0  0  0  0  0  0
  -26.6220  -34.8820   22.3030 O   0  0  0  0  0  0  0  0  0  0  0  0
  -25.0620  -34.0830   24.9170 H   0  0  0  0  0  0  0  0  0  0  0  0
  -24.2520  -36.7900   23.0290 C   0  0  0  0  0  1  0  0  0  0  0  0
  -25.5020  -36.3720   23.8210 C   0  0  0  0  0  3  0  0  0  0  0  0
  -27.6550  -37.2300   24.6290 C   0  0  0  0  0  1  0  0  0  0  0  0
  -26.5420  -37.4170   23.7020 N   0  0  0  0  0  0  0  0  0  0  0  0
  -26.1460  -38.3390   23.8640 H   0  0  0  0  0  0  0  0  0  0  0  0
  -32.9950  -24.4880   20.8300 C   0  0  0  0  0  2  0  0  0  0  0  0
  -32.2090  -23.4990   19.9560 C   0  0  0  0  0  2  0  0  0  0  0  0
  -32.4570  -22.0110   20.2610 C   0  0  0  0  0  2  0  0  0  0  0  0
  -31.1250  -21.2450   20.2650 C   0  0  0  0  0  2  0  0  0  0  0  0
  -31.2450  -19.7230   20.4050 C   0  0  0  0  0  2  0  0  0  0  0  0
  -29.8750  -19.1020   20.7220 C   0  0  0  0  0  2  0  0  0  0  0  0
  -29.7610  -17.6110   20.3840 C   0  0  0  0  0  2  0  0  0  0  0  0
  -30.6510  -16.6940   21.2380 C   0  0  0  0  0  2  0  0  0  0  0  0
  -30.7570  -14.4580   20.1290 C   0  0  0  0  0  0  0  0  0  0  0  0
  -30.3760  -12.3390   18.9270 C   0  0  0  0  0  2  0  0  0  0  0  0
  -29.3870  -12.5400   17.7630 C   0  0  0  0  0  2  0  0  0  0  0  0
  -27.9320  -12.4020   18.2500 C   0  0  0  0  0  2  0  0  0  0  0  0
  -27.6430  -13.2610   19.5110 C   0  0  0  0  0  3  0  0  0  0  0  0
  -28.7310  -13.0270   20.5820 C   0  0  0  0  0  2  0  0  0  0  0  0
  -30.0500  -13.3100   19.9810 N   0  0  0  0  0  0  0  0  0  0  0  0
  -31.7650  -14.7340   19.4690 O   0  0  0  0  0  0  0  0  0  0  0  0
  -30.2570  -15.3060   21.0350 N   0  0  0  0  0  0  0  0  0  0  0  0
  -29.4510  -14.9790   21.5450 H   0  0  0  0  0  0  0  0  0  0  0  0
  -25.2760  -13.8930   20.3140 C   0  0  0  0  0  0  0  0  0  0  0  0
  -24.2150  -13.1280   20.7250 C   0  0  0  0  0  0  0  0  0  0  0  0
  -24.6640  -11.7730   20.6750 C   0  0  0  0  0  0  0  0  0  0  0  0
  -26.3030  -13.0030   20.0390 N   0  0  0  0  0  0  0  0  0  0  0  0
  -25.9400  -11.7230   20.3110 N   0  0  0  0  0  0  0  0  0  0  0  0
  -23.9380  -10.5150   20.8930 C   0  0  0  0  0  0  0  0  0  0  0  0
  -24.4010   -9.5450   21.8100 C   0  0  0  0  0  3  0  0  0  0  0  0
  -23.6760   -8.3510   22.0140 C   0  0  0  0  0  3  0  0  0  0  0  0
  -22.4760   -8.1190   21.3010 C   0  0  0  0  0  0  0  0  0  0  0  0
  -22.0320   -9.0780   20.3730 C   0  0  0  0  0  3  0  0  0  0  0  0
  -22.7580  -10.2640   20.1680 C   0  0  0  0  0  3  0  0  0  0  0  0
  -21.7190   -6.9780   21.4170 O   0  0  0  0  0  0  0  0  0  0  0  0
  -21.7090   -6.2330   22.5700 C   0  0  0  0  0  0  0  0  0  0  0  0
  -21.3350   -6.7900   23.8120 C   0  0  0  0  0  3  0  0  0  0  0  0
  -21.2700   -5.9720   24.9580 C   0  0  0  0  0  3  0  0  0  0  0  0
  -21.5710   -4.6000   24.8630 C   0  0  0  0  0  0  0  0  0  0  0  0
  -21.9380   -4.0440   23.6250 C   0  0  0  0  0  3  0  0  0  0  0  0
  -22.0040   -4.8580   22.4810 C   0  0  0  0  0  0  0  0  0  0  0  0
  -22.3370   -4.3130   21.2870 F   0  0  0  0  0  0  0  0  0  0  0  0
  -21.5010   -3.8120   25.9620 F   0  0  0  0  0  0  0  0  0  0  0  0
  -22.8340  -13.6150   21.0550 C   0  0  0  0  0  0  0  0  0  0  0  0
  -22.1360  -12.9240   21.9500 N   0  0  0  0  0  0  0  0  0  0  0  0
  -22.3800  -14.6420   20.5510 O   0  0  0  0  0  0  0  0  0  0  0  0
  -22.5150  -12.0940   22.3810 H   0  0  0  0  0  0  0  0  0  0  0  0
  -21.2110  -13.2330   22.2130 H   0  0  0  0  0  0  0  0  0  0  0  0
  -25.4470  -15.2620   20.1350 N   0  0  0  0  0  0  0  0  0  0  0  0
  -24.6970  -15.9280   20.2810 H   0  0  0  0  0  0  0  0  0  0  0  0
  -26.2960  -15.6880   19.7840 H   0  0  0  0  0  0  0  0  0  0  0  0
  1  2  2  0
  2  3  1  0
  3  4  1  0
  5  4  1  0
  6  8  1  0
  6  5  1  0
  7 18  2  0
  8 13  1  0
  9 17  1  0
  9 19  1  0
 10 16  1  0
 10 12  1  0
 11 17  1  0
 12 11  1  0
 13 12  2  0
 14 15  1  0
 14  8  2  0
 15 10  2  0
 16  9  1  0
 17  7  1  0
 19 21  2  0
 20 19  1  0
 22 20  1  0
 23 32  2  0
 23 28  1  0
 24 20  1  0
 24 28  1  0
 25 24  1  0
 26 27  1  0
 26 25  1  0
 27 23  1  0
 28 29  2  0
 29 30  1  0
 31 30  2  0
 32 31  1  0
 33  7  1  0
 33 38  1  0
 33 34  1  0
 34 37  1  1
 34 35  1  0
 36 34  1  0
 38 41  1  0
 39 43  1  0
 39 38  1  0
 40 39  2  0
 43 42  1  0
 45 43  1  0
 45 46  1  0
 45 44  1  0
 47  1  1  0
 48 49  1  0
 48 47  1  0
 49 50  1  0
 50 51  1  0
 51 52  1  0
 53 52  1  0
 53 54  1  0
 55 63  1  0
 56 61  1  0
 57 58  1  0
 57 56  1  0
 59 58  1  0
 59 68  1  0
 59 60  1  0
 61 55  1  0
 61 60  1  0
 62 55  2  0
 63 54  1  0
 63 64  1  0
 65 66  2  0
 66 85  1  0
 67 66  1  0
 67 70  1  0
 68 69  1  0
 68 65  1  0
 69 67  2  0
 70 71  1  0
 71 72  2  0
 73 76  1  0
 73 72  1  0
 74 73  2  0
 75 74  1  0
 75 70  2  0
 76 77  1  0
 77 78  1  0
 78 79  2  0
 80 79  1  0
 80 84  1  0
 81 80  2  0
 82 77  2  0
 82 81  1  0
 83 82  1  0
 85 86  1  0
 86 89  1  0
 86 88  1  0
 87 85  2  0
 90 91  1  0
 90 65  1  0
 92 90  1  0
M  ISO  4   5 101   6 101  55 100  63 100
M  END
>  <TORSDO>  (3) 
F 27

>  <SCORE>  (3) 
-10.392

>  <name>  (3) 
2

>  <ligand_id>  (3) 
2

>  <original_smiles>  (3) 
[H]C(=C([H])C([H])([H])C([H])([H])C([H])([H])C([H])([H])C([H])([H])C([H])([H])C([H])([H])C([H])([H])N([H])C(=O)N1C([H])([H])C([H])([H])C([H])([H])C([H])(n2nc(-c3c([H])c([H])c(Oc4c([H])c([H])c(F)c([H])c4F)c([H])c3[H])c(C(=O)N([H])[H])c2N([H])[H])C1([H])[H])C([H])([H])C([H])([H])C([H])([H])Oc1c([H])c([H])c2c(c1[H])C([H])([H])N(C(=O)C([H])(N([H])C(=O)C([H])(N([H])C([H])([H])[H])C([H])([H])[H])C(C([H])([H])[H])(C([H])([H])[H])C([H])([H])[H])C([H])(C(=O)N([H])C1([H])c3c([H])c([H])c([H])c([H])c3C([H])([H])C([H])([H])C1([H])[H])C2([H])[H]

>  <smiles>  (3) 
[H]C(=C([H])C([H])([H])C([H])([H])C([H])([H])C([H])([H])C([H])([H])C([H])([H])C([H])([H])C([H])([H])N([H])C(=O)N1C([H])([H])C([H])([H])C([H])([H])C([H])(n2nc(-c3c([H])c([H])c(Oc4c([H])c([H])c(F)c([H])c4F)c([H])c3[H])c(C(=O)N([H])[H])c2N([H])[H])C1([H])[H])C([H])([H])C([H])([H])C([H])([H])Oc1c([H])c([H])c2c(c1[H])C([H])([H])N(C(=O)C([H])(N([H])C(=O)C([H])(N([H])C([H])([H])[H])C([H])([H])[H])C(C([H])([H])[H])(C([H])([H])[H])C([H])([H])[H])C([H])(C(=O)N([H])C1([H])c3c([H])c([H])c([H])c([H])c3C([H])([H])C([H])([H])C1([H])[H])C2([H])[H]

$$$$
3:0:0
     RDKit          3D

 94 97  0  0  1  0  0  0  0  0999 V2000
  -26.3340  -17.0040   20.2880 C   0  0  0  0  0  2  0  0  0  0  0  0
  -25.0070  -15.9450   20.5800 C   0  0  0  0  0  3  0  0  0  0  0  0
  -24.7460  -14.8570   21.8920 C   0  0  0  0  0  3  0  0  0  0  0  0
  -23.6320  -13.5390   22.0110 C   0  0  0  0  0  2  0  0  0  0  0  0
  -23.3120  -12.2470   23.1570 C   0  0  0  0  0  2  0  0  0  0  0  0
  -23.2640  -10.4350   23.2950 C   0  0  0  0  0  1  0  0  0  0  0  0
  -25.7820   -8.6090   24.3350 C   0  0  0  0  0  1  0  0  0  0  0  0
  -27.3370   -8.5840   23.6590 C   0  0  0  0  0  2  0  0  0  0  0  0
  -28.4900   -9.7580   23.6930 C   0  0  0  0  0  3  0  0  0  0  0  0
  -29.8850   -9.5720   22.8700 C   0  0  0  0  0  3  0  0  0  0  0  0
  -32.0060  -11.3770   21.4820 C   0  0  2  0  0  0  0  0  0  0  0  0
  -32.9910  -10.3370   22.2010 C   0  0  0  0  0  1  0  0  0  0  0  0
  -32.1480   -9.0620   21.0570 C   0  0  0  0  0  1  0  0  0  0  0  0
  -30.7440   -9.5870   20.0910 C   0  0  0  0  0  2  0  0  0  0  0  0
  -30.1630  -11.2580   20.0210 C   0  0  0  0  0  2  0  0  0  0  0  0
  -30.9800  -12.5510   21.1120 C   0  0  0  0  0  1  0  0  0  0  0  0
  -32.3230  -12.0140   22.1470 N   0  0  0  0  0  1  0  0  0  0  0  0
  -32.7960  -11.4560   20.3210 O   0  0  0  0  0  1  0  0  0  0  0  0
  -30.8110  -10.7790   22.4910 N   0  0  0  0  0  2  0  0  0  0  0  0
  -30.7900  -11.4240   23.2650 H   0  0  0  0  0  0  0  0  0  0  0  0
  -27.9320  -12.4070   19.6240 C   0  0  0  0  0  0  0  0  0  0  0  0
  -26.6370  -12.0220   19.7680 C   0  0  0  0  0  0  0  0  0  0  0  0
  -26.7790  -10.7230   20.2990 C   0  0  0  0  0  0  0  0  0  0  0  0
  -28.7240  -11.3580   20.0300 N   0  0  0  0  0  0  0  0  0  0  0  0
  -28.0010  -10.3520   20.4890 N   0  0  0  0  0  0  0  0  0  0  0  0
  -25.8370   -9.7860   20.5610 C   0  0  0  0  0  0  0  0  0  0  0  0
  -25.9970   -8.5080   21.7170 C   0  0  0  0  0  3  0  0  0  0  0  0
  -24.6220   -7.5930   22.0630 C   0  0  0  0  0  3  0  0  0  0  0  0
  -23.1920   -7.9290   21.2740 C   0  0  0  0  0  0  0  0  0  0  0  0
  -23.0760   -9.1350   20.2020 C   0  0  0  0  0  3  0  0  0  0  0  0
  -24.3630  -10.0520   19.8150 C   0  0  0  0  0  3  0  0  0  0  0  0
  -22.0770   -7.1340   21.2960 O   0  0  0  0  0  0  0  0  0  0  0  0
  -21.9590   -6.1560   22.2310 C   0  0  0  0  0  0  0  0  0  0  0  0
  -22.0650   -6.4670   23.6000 C   0  0  0  0  0  3  0  0  0  0  0  0
  -21.9040   -5.4540   24.5590 C   0  0  0  0  0  3  0  0  0  0  0  0
  -21.6260   -4.1390   24.1480 C   0  0  0  0  0  0  0  0  0  0  0  0
  -21.5020   -3.8310   22.7810 C   0  0  0  0  0  3  0  0  0  0  0  0
  -21.6630   -4.8420   21.8190 C   0  0  0  0  0  0  0  0  0  0  0  0
  -21.5210   -4.5490   20.5020 F   0  0  0  0  0  0  0  0  0  0  0  0
  -21.4710   -3.1670   25.0750 F   0  0  0  0  0  0  0  0  0  0  0  0
  -25.3990  -12.8100   19.3860 C   0  0  0  0  0  0  0  0  0  0  0  0
  -24.1950  -12.4540   19.8030 N   0  0  0  0  0  0  0  0  0  0  0  0
  -25.4910  -13.8340   18.7280 O   0  0  0  0  0  0  0  0  0  0  0  0
  -24.0970  -11.6510   20.4090 H   0  0  0  0  0  0  0  0  0  0  0  0
  -23.3840  -13.0030   19.5550 H   0  0  0  0  0  0  0  0  0  0  0  0
  -28.5260  -13.5710   19.1840 N   0  0  0  0  0  0  0  0  0  0  0  0
  -27.9810  -14.3700   18.8870 H   0  0  0  0  0  0  0  0  0  0  0  0
  -29.5230  -13.7250   19.1310 H   0  0  0  0  0  0  0  0  0  0  0  0
  -26.9140  -17.6500   18.8010 C   0  0  0  0  0  2  0  0  0  0  0  0
  -28.5120  -18.1390   18.3960 C   0  0  0  0  0  2  0  0  0  0  0  0
  -29.0390  -19.6370   17.8650 C   0  0  0  0  0  3  0  0  0  0  0  0
  -30.1410  -20.5060   18.1850 C   0  0  0  0  0  3  0  0  0  0  0  0
  -30.5780  -21.9910   17.5620 C   0  0  0  0  0  2  0  0  0  0  0  0
  -31.0510  -23.3410   18.2680 O   0  0  0  0  0  0  0  0  0  0  0  0
  -25.2450  -26.9230   20.6740 C   0  0  0  0  0  0  0  0  0  0  0  0
  -30.2090  -24.4940   18.0860 C   0  0  0  0  0  0  0  0  0  0  0  0
  -25.5360  -26.5790   18.2550 C   0  0  0  0  0  3  0  0  0  0  0  0
  -27.9200  -26.1070   17.4490 C   0  0  0  0  0  0  0  0  0  0  0  0
  -27.5900  -26.9620   19.7550 C   0  0  0  0  0  2  0  0  0  0  0  0
  -28.4150  -26.1290   18.7610 C   0  0  0  0  0  0  0  0  0  0  0  0
  -29.5730  -25.3300   19.0900 C   0  0  0  0  0  3  0  0  0  0  0  0
  -29.8000  -24.7300   16.7620 C   0  0  0  0  0  3  0  0  0  0  0  0
  -28.6440  -25.4540   16.4470 C   0  0  0  0  0  3  0  0  0  0  0  0
  -26.6030  -26.7920   17.1500 C   0  0  0  0  0  2  0  0  0  0  0  0
  -26.1070  -26.8160   19.6200 N   0  0  0  0  0  0  0  0  0  0  0  0
  -24.0170  -26.8370   20.5190 O   0  0  0  0  0  0  0  0  0  0  0  0
  -24.8890  -25.1780   18.1020 C   0  0  0  0  0  0  0  0  0  0  0  0
  -23.8900  -25.0590   17.2090 N   0  0  0  0  0  0  0  0  0  0  0  0
  -25.2950  -24.2240   18.7700 O   0  0  0  0  0  0  0  0  0  0  0  0
  -23.6030  -25.8880   16.7070 H   0  0  0  0  0  0  0  0  0  0  0  0
  -21.0400  -23.7180   15.4180 C   0  0  0  0  0  0  0  0  0  0  0  0
  -23.1660  -23.8250   16.8880 C   0  0  0  0  0  3  0  0  0  0  0  0
  -23.8670  -23.0490   15.7490 C   0  0  0  0  0  2  0  0  0  0  0  0
  -23.3160  -23.3880   14.3610 C   0  0  0  0  0  2  0  0  0  0  0  0
  -21.8200  -23.0730   14.2840 C   0  0  0  0  0  2  0  0  0  0  0  0
  -21.6760  -24.0840   16.6340 C   0  0  0  0  0  0  0  0  0  0  0  0
  -20.9120  -24.7070   17.6460 C   0  0  0  0  0  3  0  0  0  0  0  0
  -19.5410  -24.9670   17.4570 C   0  0  0  0  0  3  0  0  0  0  0  0
  -18.9150  -24.5890   16.2570 C   0  0  0  0  0  3  0  0  0  0  0  0
  -19.6600  -23.9630   15.2430 C   0  0  0  0  0  3  0  0  0  0  0  0
  -25.7590  -27.1830   22.1210 C   0  0  0  0  0  3  0  0  0  0  0  0
  -24.9650  -28.2850   22.6860 N   0  0  0  0  0  0  0  0  0  0  0  0
  -25.3350  -29.5730   22.6880 C   0  0  0  0  0  0  0  0  0  0  0  0
  -26.4310  -29.9520   22.2660 O   0  0  0  0  0  0  0  0  0  0  0  0
  -24.0330  -28.0540   22.9970 H   0  0  0  0  0  0  0  0  0  0  0  0
  -23.5580  -31.2530   22.0900 C   0  0  0  0  0  1  0  0  0  0  0  0
  -24.3340  -30.6030   23.2480 C   0  0  0  0  0  3  0  0  0  0  0  0
  -25.4690  -31.1640   25.3530 C   0  0  0  0  0  1  0  0  0  0  0  0
  -24.9690  -31.6550   24.0710 N   0  0  0  0  0  0  0  0  0  0  0  0
  -24.3180  -32.4150   24.2540 H   0  0  0  0  0  0  0  0  0  0  0  0
  -25.6680  -25.9090   23.0480 C   0  0  1  0  0  0  0  0  0  0  0  0
  -24.2690  -25.2470   23.0630 C   0  0  0  0  0  1  0  0  0  0  0  0
  -26.6880  -24.8310   22.6120 C   0  0  0  0  0  1  0  0  0  0  0  0
  -26.0290  -26.2910   24.5020 C   0  0  0  0  0  1  0  0  0  0  0  0
  1  2  1  0
  2  3  2  0
  3  4  1  0
  4  5  1  0
  5  6  1  0
  8  9  1  0
  8  7  1  0
 10  9  2  0
 11 17  1  0
 11 12  1  1
 14 13  1  0
 15 24  1  0
 15 14  1  0
 16 11  1  0
 18 11  1  0
 19 10  1  0
 19 20  1  0
 21 22  2  0
 21 24  1  0
 22 23  1  0
 23 25  2  0
 23 26  1  0
 24 25  1  0
 26 27  1  0
 27 28  2  0
 29 32  1  0
 29 28  1  0
 30 29  2  0
 31 30  1  0
 31 26  2  0
 32 33  1  0
 33 34  1  0
 34 35  2  0
 36 35  1  0
 36 40  1  0
 37 36  2  0
 38 33  2  0
 38 37  1  0
 39 38  1  0
 41 22  1  0
 41 42  1  0
 42 44  1  0
 43 41  2  0
 45 42  1  0
 46 21  1  0
 47 46  1  0
 48 46  1  0
 49  1  1  0
 50 49  1  0
 51 52  2  0
 51 50  1  0
 53 52  1  0
 53 54  1  0
 56 54  1  0
 56 61  1  0
 57 67  1  0
 57 65  1  0
 58 60  1  0
 60 61  2  0
 60 59  1  0
 62 56  2  0
 63 62  1  0
 63 58  2  0
 64 58  1  0
 64 57  1  0
 65 59  1  0
 65 55  1  0
 66 55  2  0
 67 69  2  0
 68 67  1  0
 70 68  1  0
 71 76  1  0
 72 68  1  0
 73 72  1  0
 74 73  1  0
 75 74  1  0
 75 71  1  0
 76 72  1  0
 76 77  2  0
 78 77  1  0
 79 78  2  0
 80 71  2  0
 80 79  1  0
 81 55  1  0
 81 82  1  0
 81 91  1  0
 82 83  1  0
 82 85  1  0
 83 87  1  0
 84 83  2  0
 87 86  1  0
 87 89  1  0
 89 90  1  0
 89 88  1  0
 91 92  1  1
 91 94  1  0
 93 91  1  0
M  ISO  4  11 100  19 100  53 101  54 101
M  END
>  <TORSDO>  (4) 
F 29

>  <SCORE>  (4) 
-0.049

>  <name>  (4) 
3

>  <ligand_id>  (4) 
3

>  <original_smiles>  (4) 
[H]C(=C([H])C([H])([H])C([H])([H])C([H])([H])C([H])([H])C([H])([H])C([H])([H])C([H])([H])C([H])([H])C([H])([H])C([H])([H])C([H])([H])C([H])([H])N([H])C(=O)N1C([H])([H])C([H])([H])C([H])([H])C([H])(n2nc(-c3c([H])c([H])c(Oc4c([H])c([H])c(F)c([H])c4F)c([H])c3[H])c(C(=O)N([H])[H])c2N([H])[H])C1([H])[H])C([H])([H])Oc1c([H])c([H])c2c(c1[H])C([H])([H])N(C(=O)C([H])(N([H])C(=O)C([H])(N([H])C([H])([H])[H])C([H])([H])[H])C(C([H])([H])[H])(C([H])([H])[H])C([H])([H])[H])C([H])(C(=O)N([H])C1([H])c3c([H])c([H])c([H])c([H])c3C([H])([H])C([H])([H])C1([H])[H])C2([H])[H]

>  <smiles>  (4) 
[H]C(=C([H])C([H])([H])C([H])([H])C([H])([H])C([H])([H])C([H])([H])C([H])([H])C([H])([H])C([H])([H])C([H])([H])C([H])([H])C([H])([H])C([H])([H])N([H])C(=O)N1C([H])([H])C([H])([H])C([H])([H])C([H])(n2nc(-c3c([H])c([H])c(Oc4c([H])c([H])c(F)c([H])c4F)c([H])c3[H])c(C(=O)N([H])[H])c2N([H])[H])C1([H])[H])C([H])([H])Oc1c([H])c([H])c2c(c1[H])C([H])([H])N(C(=O)C([H])(N([H])C(=O)C([H])(N([H])C([H])([H])[H])C([H])([H])[H])C(C([H])([H])[H])(C([H])([H])[H])C([H])([H])[H])C([H])(C(=O)N([H])C1([H])c3c([H])c([H])c([H])c([H])c3C([H])([H])C([H])([H])C1([H])[H])C2([H])[H]

$$$$
4:0:0
     RDKit          3D

 95103  0  0  1  0  0  0  0  0999 V2000
  -25.7280  -22.1540   19.2840 C   0  0  0  0  0  3  0  0  0  0  0  0
  -27.8950  -21.8800   18.2040 C   0  0  0  0  0  3  0  0  0  0  0  0
  -26.2650  -23.1650   20.1020 C   0  0  0  0  0  3  0  0  0  0  0  0
  -28.4340  -22.8800   19.0330 C   0  0  0  0  0  3  0  0  0  0  0  0
  -26.5460  -21.4750   18.3510 C   0  0  0  0  0  0  0  0  0  0  0  0
  -27.6250  -23.5180   19.9920 C   0  0  0  0  0  0  0  0  0  0  0  0
  -25.9580  -20.3590   17.5490 C   0  0  0  0  0  0  0  0  0  0  0  0
  -24.7420  -20.2140   17.3930 O   0  0  0  0  0  0  0  0  0  0  0  0
  -26.9110  -19.3210   16.9410 C   0  0  0  0  0  2  0  0  0  0  0  0
  -27.2750  -18.1410   17.8740 C   0  0  0  0  0  2  0  0  0  0  0  0
  -28.0150  -18.4870   19.1880 C   0  0  0  0  0  2  0  0  0  0  0  0
  -29.1870  -17.5380   19.5050 C   0  0  0  0  0  2  0  0  0  0  0  0
  -29.6370  -17.5770   20.9790 C   0  0  0  0  0  2  0  0  0  0  0  0
  -30.8630  -16.6810   21.2710 C   0  0  0  0  0  2  0  0  0  0  0  0
  -31.1710  -14.3630   20.3480 C   0  0  0  0  0  0  0  0  0  0  0  0
  -30.7610  -12.3100   19.0410 C   0  0  0  0  0  2  0  0  0  0  0  0
  -29.7950  -12.6380   17.8830 C   0  0  0  0  0  2  0  0  0  0  0  0
  -28.3230  -12.5680   18.3390 C   0  0  0  0  0  2  0  0  0  0  0  0
  -28.0660  -13.3250   19.6700 C   0  0  0  0  0  3  0  0  0  0  0  0
  -29.1280  -12.9390   20.7220 C   0  0  0  0  0  2  0  0  0  0  0  0
  -30.4590  -13.2240   20.1510 N   0  0  0  0  0  0  0  0  0  0  0  0
  -32.2510  -14.6000   19.7970 O   0  0  0  0  0  0  0  0  0  0  0  0
  -30.5360  -15.2650   21.1100 N   0  0  0  0  0  0  0  0  0  0  0  0
  -29.6800  -14.9430   21.5350 H   0  0  0  0  0  0  0  0  0  0  0  0
  -25.7160  -14.0300   20.4560 C   0  0  0  0  0  0  0  0  0  0  0  0
  -24.6170  -13.2980   20.8200 C   0  0  0  0  0  0  0  0  0  0  0  0
  -25.0070  -11.9300   20.7220 C   0  0  0  0  0  0  0  0  0  0  0  0
  -26.7110  -13.1060   20.1660 N   0  0  0  0  0  0  0  0  0  0  0  0
  -26.2860  -11.8360   20.3780 N   0  0  0  0  0  0  0  0  0  0  0  0
  -24.2260  -10.6970   20.8820 C   0  0  0  0  0  0  0  0  0  0  0  0
  -24.6070   -9.7020   21.8070 C   0  0  0  0  0  3  0  0  0  0  0  0
  -23.8340   -8.5300   21.9570 C   0  0  0  0  0  3  0  0  0  0  0  0
  -22.6630   -8.3500   21.1830 C   0  0  0  0  0  0  0  0  0  0  0  0
  -22.2980   -9.3360   20.2500 C   0  0  0  0  0  3  0  0  0  0  0  0
  -23.0700  -10.4980   20.0970 C   0  0  0  0  0  3  0  0  0  0  0  0
  -21.8620   -7.2360   21.2470 O   0  0  0  0  0  0  0  0  0  0  0  0
  -21.6940   -6.5340   22.4120 C   0  0  0  0  0  0  0  0  0  0  0  0
  -21.1840   -7.1390   23.5820 C   0  0  0  0  0  3  0  0  0  0  0  0
  -20.9660   -6.3640   24.7380 C   0  0  0  0  0  3  0  0  0  0  0  0
  -21.2430   -4.9840   24.7230 C   0  0  0  0  0  0  0  0  0  0  0  0
  -21.7400   -4.3770   23.5560 C   0  0  0  0  0  3  0  0  0  0  0  0
  -21.9640   -5.1490   22.4020 C   0  0  0  0  0  0  0  0  0  0  0  0
  -22.4260   -4.5590   21.2760 F   0  0  0  0  0  0  0  0  0  0  0  0
  -21.0240   -4.2350   25.8290 F   0  0  0  0  0  0  0  0  0  0  0  0
  -23.2530  -13.8330   21.1440 C   0  0  0  0  0  0  0  0  0  0  0  0
  -22.5210  -13.1550   22.0240 N   0  0  0  0  0  0  0  0  0  0  0  0
  -22.8420  -14.8830   20.6520 O   0  0  0  0  0  0  0  0  0  0  0  0
  -22.8640  -12.3080   22.4470 H   0  0  0  0  0  0  0  0  0  0  0  0
  -21.6040  -13.4930   22.2820 H   0  0  0  0  0  0  0  0  0  0  0  0
  -25.9390  -15.3960   20.3320 N   0  0  0  0  0  0  0  0  0  0  0  0
  -25.2040  -16.0700   20.5090 H   0  0  0  0  0  0  0  0  0  0  0  0
  -26.8010  -15.8200   20.0170 H   0  0  0  0  0  0  0  0  0  0  0  0
  -28.1990  -24.5890   20.9040 C   0  0  0  0  0  2  0  0  0  0  0  0
  -29.0500  -25.6390   20.1650 C   0  0  0  0  0  2  0  0  0  0  0  0
  -28.8970  -26.9180   20.7750 O   0  0  0  0  0  0  0  0  0  0  0  0
  -24.7480  -31.9650   23.5540 C   0  0  0  0  0  0  0  0  0  0  0  0
  -27.6680  -27.5440   20.7130 C   0  0  0  0  0  0  0  0  0  0  0  0
  -23.6570  -30.4860   21.8960 C   0  0  0  0  0  3  0  0  0  0  0  0
  -25.2180  -28.9540   20.5910 C   0  0  0  0  0  0  0  0  0  0  0  0
  -26.1770  -30.9160   21.8060 C   0  0  0  0  0  2  0  0  0  0  0  0
  -26.3290  -29.5310   21.2160 C   0  0  0  0  0  0  0  0  0  0  0  0
  -27.5510  -28.8310   21.2820 C   0  0  0  0  0  3  0  0  0  0  0  0
  -26.5280  -26.9700   20.0960 C   0  0  0  0  0  3  0  0  0  0  0  0
  -25.3100  -27.6690   20.0340 C   0  0  0  0  0  3  0  0  0  0  0  0
  -23.9510  -29.7740   20.5490 C   0  0  0  0  0  2  0  0  0  0  0  0
  -24.8750  -31.1390   22.4770 N   0  0  0  0  0  0  0  0  0  0  0  0
  -23.6340  -32.2220   24.0350 O   0  0  0  0  0  0  0  0  0  0  0  0
  -22.9890  -29.4730   22.8530 C   0  0  0  0  0  0  0  0  0  0  0  0
  -21.7020  -29.1820   22.6100 N   0  0  0  0  0  0  0  0  0  0  0  0
  -23.6290  -28.9510   23.7690 O   0  0  0  0  0  0  0  0  0  0  0  0
  -21.2430  -29.6630   21.8480 H   0  0  0  0  0  0  0  0  0  0  0  0
  -18.3960  -27.7370   22.8190 C   0  0  0  0  0  0  0  0  0  0  0  0
  -20.8780  -28.2290   23.3510 C   0  0  0  0  0  3  0  0  0  0  0  0
  -21.1560  -26.7770   22.8970 C   0  0  0  0  0  2  0  0  0  0  0  0
  -20.2060  -26.2970   21.7950 C   0  0  0  0  0  2  0  0  0  0  0  0
  -18.7530  -26.3650   22.2700 C   0  0  0  0  0  2  0  0  0  0  0  0
  -19.3950  -28.6170   23.3120 C   0  0  0  0  0  0  0  0  0  0  0  0
  -19.0140  -29.8950   23.7770 C   0  0  0  0  0  3  0  0  0  0  0  0
  -17.6640  -30.2950   23.7550 C   0  0  0  0  0  3  0  0  0  0  0  0
  -16.6780  -29.4130   23.2820 C   0  0  0  0  0  3  0  0  0  0  0  0
  -17.0430  -28.1360   22.8210 C   0  0  0  0  0  3  0  0  0  0  0  0
  -25.9860  -32.6440   24.2160 C   0  0  0  0  0  3  0  0  0  0  0  0
  -26.4270  -31.9550   25.5650 C   0  0  1  0  0  0  0  0  0  0  0  0
  -25.2560  -31.6830   26.5370 C   0  0  0  0  0  1  0  0  0  0  0  0
  -27.1290  -30.6050   25.2810 C   0  0  0  0  0  1  0  0  0  0  0  0
  -27.4560  -32.8460   26.2990 C   0  0  0  0  0  1  0  0  0  0  0  0
  -25.6500  -34.0560   24.4390 N   0  0  0  0  0  0  0  0  0  0  0  0
  -26.0040  -35.0590   23.6250 C   0  0  0  0  0  0  0  0  0  0  0  0
  -26.7190  -34.8960   22.6320 O   0  0  0  0  0  0  0  0  0  0  0  0
  -25.0210  -34.2570   25.2040 H   0  0  0  0  0  0  0  0  0  0  0  0
  -24.2560  -36.7850   23.0920 C   0  0  0  0  0  1  0  0  0  0  0  0
  -25.4800  -36.4680   23.9650 C   0  0  0  0  0  3  0  0  0  0  0  0
  -27.5730  -37.4530   24.7870 C   0  0  0  0  0  1  0  0  0  0  0  0
  -26.4990  -37.5280   23.8000 N   0  0  0  0  0  0  0  0  0  0  0  0
  -26.0730  -38.4490   23.8640 H   0  0  0  0  0  0  0  0  0  0  0  0
  1  3  1  0
  2  5  1  0
  2  4  2  0
  4  6  1  0
  5  1  2  0
  6  3  2  0
  6 53  1  0
  7  5  1  0
  8  7  2  0
  9  7  1  0
  9 10  1  0
 10 11  1  0
 11 12  1  0
 12 13  1  0
 13 14  1  0
 15 23  1  0
 16 21  1  0
 17 18  1  0
 17 16  1  0
 19 18  1  0
 19 28  1  0
 19 20  1  0
 21 15  1  0
 21 20  1  0
 22 15  2  0
 23 14  1  0
 23 24  1  0
 25 26  2  0
 26 45  1  0
 27 26  1  0
 27 30  1  0
 28 29  1  0
 28 25  1  0
 29 27  2  0
 30 31  1  0
 31 32  2  0
 33 36  1  0
 33 32  1  0
 34 33  2  0
 35 34  1  0
 35 30  2  0
 36 37  1  0
 37 38  1  0
 38 39  2  0
 40 39  1  0
 40 44  1  0
 41 40  2  0
 42 37  2  0
 42 41  1  0
 43 42  1  0
 45 46  1  0
 46 49  1  0
 46 48  1  0
 47 45  2  0
 50 25  1  0
 50 51  1  0
 52 50  1  0
 54 55  1  0
 54 53  1  0
 56 67  2  0
 57 55  1  0
 57 62  1  0
 58 66  1  0
 58 68  1  0
 59 61  1  0
 60 66  1  0
 61 62  2  0
 61 60  1  0
 63 57  2  0
 64 63  1  0
 64 59  2  0
 65 59  1  0
 65 58  1  0
 66 56  1  0
 68 70  2  0
 69 68  1  0
 71 69  1  0
 72 81  2  0
 72 77  1  0
 73 69  1  0
 74 73  1  0
 75 76  1  0
 75 74  1  0
 76 72  1  0
 77 73  1  0
 77 78  2  0
 79 78  1  0
 80 79  2  0
 81 80  1  0
 82 56  1  0
 82 87  1  0
 82 83  1  0
 83 86  1  1
 83 84  1  0
 85 83  1  0
 87 90  1  0
 88 92  1  0
 88 87  1  0
 89 88  2  0
 92 91  1  0
 94 95  1  0
 94 92  1  0
 94 93  1  0
M  ISO  4  15 100  23 100  54 101  55 101
M  END
>  <TORSDO>  (5) 
F 25

>  <SCORE>  (5) 
-11.170

>  <name>  (5) 
4

>  <ligand_id>  (5) 
4

>  <original_smiles>  (5) 
[H]c1c([H])c([H])c2c(c1[H])C([H])([H])C([H])([H])C([H])([H])C2([H])N([H])C(=O)C1([H])N(C(=O)C([H])(N([H])C(=O)C([H])(N([H])C([H])([H])[H])C([H])([H])[H])C(C([H])([H])[H])(C([H])([H])[H])C([H])([H])[H])C([H])([H])c2c([H])c(OC([H])([H])C([H])([H])c3c([H])c([H])c(C(=O)C([H])([H])C([H])([H])C([H])([H])C([H])([H])C([H])([H])C([H])([H])N([H])C(=O)N4C([H])([H])C([H])([H])C([H])([H])C([H])(n5nc(-c6c([H])c([H])c(Oc7c([H])c([H])c(F)c([H])c7F)c([H])c6[H])c(C(=O)N([H])[H])c5N([H])[H])C4([H])[H])c([H])c3[H])c([H])c([H])c2C1([H])[H]

>  <smiles>  (5) 
[H]c1c([H])c([H])c2c(c1[H])C([H])([H])C([H])([H])C([H])([H])C2([H])N([H])C(=O)C1([H])N(C(=O)C([H])(N([H])C(=O)C([H])(N([H])C([H])([H])[H])C([H])([H])[H])C(C([H])([H])[H])(C([H])([H])[H])C([H])([H])[H])C([H])([H])c2c([H])c(OC([H])([H])C([H])([H])c3c([H])c([H])c(C(=O)C([H])([H])C([H])([H])C([H])([H])C([H])([H])C([H])([H])C([H])([H])N([H])C(=O)N4C([H])([H])C([H])([H])C([H])([H])C([H])(n5nc(-c6c([H])c([H])c(Oc7c([H])c([H])c(F)c([H])c7F)c([H])c6[H])c(C(=O)N([H])[H])c5N([H])[H])C4([H])[H])c([H])c3[H])c([H])c([H])c2C1([H])[H]

$$$$
5:0:0
     RDKit          3D

100109  0  0  1  0  0  0  0  0999 V2000
  -29.1210  -22.4850   20.4090 C   0  0  0  0  0  2  0  0  0  0  0  0
  -30.7860  -20.8040   19.5410 C   0  0  0  0  0  2  0  0  0  0  0  0
  -28.9820  -21.6340   21.6920 C   0  0  0  0  0  2  0  0  0  0  0  0
  -30.6000  -20.0130   20.8400 C   0  0  0  0  0  2  0  0  0  0  0  0
  -29.5420  -21.6360   19.1840 C   0  0  0  0  0  3  0  0  0  0  0  0
  -30.2420  -20.8990   21.9750 N   0  0  2  0  0  4  0  0  0  0  0  0
  -30.9570  -21.6050   22.0550 H   0  0  0  0  0  0  0  0  0  0  0  0
  -29.8280  -22.4650   17.9130 C   0  0  0  0  0  2  0  0  0  0  0  0
  -26.6730  -23.9870   16.3570 C   0  0  0  0  0  3  0  0  0  0  0  0
  -27.6500  -23.0500   16.7450 C   0  0  0  0  0  3  0  0  0  0  0  0
  -26.7830  -25.3320   16.7610 C   0  0  0  0  0  3  0  0  0  0  0  0
  -28.8530  -24.8070   17.9360 C   0  0  0  0  0  3  0  0  0  0  0  0
  -28.7450  -23.4590   17.5350 C   0  0  0  0  0  0  0  0  0  0  0  0
  -27.8720  -25.7450   17.5580 C   0  0  0  0  0  0  0  0  0  0  0  0
  -28.0290  -27.2020   17.9560 C   0  0  0  0  0  2  0  0  0  0  0  0
  -27.8110  -27.4240   19.3500 O   0  0  0  0  0  0  0  0  0  0  0  0
  -24.6820  -32.2500   23.5320 C   0  0  0  0  0  0  0  0  0  0  0  0
  -26.6740  -28.1330   19.6400 C   0  0  0  0  0  0  0  0  0  0  0  0
  -23.1890  -31.0610   21.9550 C   0  0  0  0  0  3  0  0  0  0  0  0
  -24.3560  -29.6430   20.1820 C   0  0  0  0  0  0  0  0  0  0  0  0
  -25.6680  -31.3790   21.4190 C   0  0  0  0  0  2  0  0  0  0  0  0
  -25.6040  -30.0810   20.6470 C   0  0  0  0  0  0  0  0  0  0  0  0
  -26.7640  -29.3220   20.3890 C   0  0  0  0  0  3  0  0  0  0  0  0
  -25.4150  -27.6900   19.1860 C   0  0  0  0  0  3  0  0  0  0  0  0
  -24.2540  -28.4400   19.4590 C   0  0  0  0  0  3  0  0  0  0  0  0
  -23.1670  -30.5200   20.4990 C   0  0  0  0  0  2  0  0  0  0  0  0
  -24.5390  -31.5720   22.3600 N   0  0  0  0  0  0  0  0  0  0  0  0
  -23.7030  -32.4920   24.2540 O   0  0  0  0  0  0  0  0  0  0  0  0
  -22.6450  -29.9620   22.8940 C   0  0  0  0  0  0  0  0  0  0  0  0
  -21.3710  -29.5860   22.6960 N   0  0  0  0  0  0  0  0  0  0  0  0
  -23.3660  -29.4500   23.7550 O   0  0  0  0  0  0  0  0  0  0  0  0
  -20.8450  -30.0580   21.9750 H   0  0  0  0  0  0  0  0  0  0  0  0
  -18.2810  -27.7220   22.8400 C   0  0  0  0  0  0  0  0  0  0  0  0
  -20.6590  -28.5430   23.4330 C   0  0  0  0  0  3  0  0  0  0  0  0
  -21.1420  -27.1370   23.0100 C   0  0  0  0  0  2  0  0  0  0  0  0
  -20.2970  -26.5210   21.8910 C   0  0  0  0  0  2  0  0  0  0  0  0
  -18.8340  -26.4020   22.3240 C   0  0  0  0  0  2  0  0  0  0  0  0
  -19.1400  -28.7330   23.3460 C   0  0  0  0  0  0  0  0  0  0  0  0
  -18.5800  -29.9540   23.7800 C   0  0  0  0  0  3  0  0  0  0  0  0
  -17.1910  -30.1710   23.7180 C   0  0  0  0  0  3  0  0  0  0  0  0
  -16.3440  -29.1600   23.2300 C   0  0  0  0  0  3  0  0  0  0  0  0
  -16.8890  -27.9380   22.7970 C   0  0  0  0  0  3  0  0  0  0  0  0
  -26.0710  -32.7750   24.0130 C   0  0  0  0  0  3  0  0  0  0  0  0
  -26.6840  -31.9230   25.1910 C   0  0  1  0  0  0  0  0  0  0  0  0
  -25.7090  -31.7010   26.3710 C   0  0  0  0  0  1  0  0  0  0  0  0
  -27.1310  -30.5330   24.6810 C   0  0  0  0  0  1  0  0  0  0  0  0
  -27.9490  -32.6230   25.7410 C   0  0  0  0  0  1  0  0  0  0  0  0
  -25.8990  -34.1750   24.4170 N   0  0  0  0  0  0  0  0  0  0  0  0
  -26.2550  -35.2300   23.6710 C   0  0  0  0  0  0  0  0  0  0  0  0
  -26.8360  -35.1190   22.5870 O   0  0  0  0  0  0  0  0  0  0  0  0
  -25.3820  -34.3440   25.2670 H   0  0  0  0  0  0  0  0  0  0  0  0
  -24.6620  -37.1640   23.4970 C   0  0  0  0  0  1  0  0  0  0  0  0
  -25.9130  -36.6300   24.2120 C   0  0  0  0  0  3  0  0  0  0  0  0
  -28.1590  -37.3040   24.9380 C   0  0  0  0  0  1  0  0  0  0  0  0
  -27.0200  -37.6020   24.0730 N   0  0  0  0  0  0  0  0  0  0  0  0
  -26.7010  -38.5430   24.2820 H   0  0  0  0  0  0  0  0  0  0  0  0
  -30.2440  -20.1760   23.2750 C   0  0  0  0  0  2  0  0  0  0  0  0
  -31.5210  -19.3170   23.4580 C   0  0  0  0  0  2  0  0  0  0  0  0
  -31.2660  -17.7970   23.5580 C   0  0  0  0  0  2  0  0  0  0  0  0
  -30.7970  -17.1420   22.2380 C   0  0  0  0  0  2  0  0  0  0  0  0
  -31.8890  -17.1050   21.1380 C   0  0  0  0  0  2  0  0  0  0  0  0
  -31.4310  -16.5650   19.7670 C   0  0  0  0  0  2  0  0  0  0  0  0
  -31.1320  -14.2220   18.9910 C   0  0  0  0  0  0  0  0  0  0  0  0
  -30.8300  -11.7850   18.7310 C   0  0  0  0  0  2  0  0  0  0  0  0
  -29.7920  -11.4020   17.6630 C   0  0  0  0  0  2  0  0  0  0  0  0
  -28.3730  -11.3960   18.2580 C   0  0  0  0  0  2  0  0  0  0  0  0
  -28.0540  -12.7010   19.0300 C   0  0  0  0  0  3  0  0  0  0  0  0
  -29.1770  -13.0410   20.0290 C   0  0  0  0  0  2  0  0  0  0  0  0
  -30.4660  -13.0850   19.3070 N   0  0  0  0  0  0  0  0  0  0  0  0
  -31.9590  -14.3120   18.0760 O   0  0  0  0  0  0  0  0  0  0  0  0
  -30.9130  -15.2120   19.8620 N   0  0  0  0  0  0  0  0  0  0  0  0
  -30.3090  -14.9950   20.6410 H   0  0  0  0  0  0  0  0  0  0  0  0
  -25.9110  -13.6430   20.1030 C   0  0  0  0  0  0  0  0  0  0  0  0
  -24.8040  -13.0310   20.6230 C   0  0  0  0  0  0  0  0  0  0  0  0
  -25.0420  -11.6270   20.5100 C   0  0  0  0  0  0  0  0  0  0  0  0
  -26.7600  -12.6240   19.7030 N   0  0  0  0  0  0  0  0  0  0  0  0
  -26.2450  -11.4030   20.0010 N   0  0  0  0  0  0  0  0  0  0  0  0
  -24.1700  -10.4830   20.8020 C   0  0  0  0  0  0  0  0  0  0  0  0
  -24.5840   -9.4410   21.6620 C   0  0  0  0  0  3  0  0  0  0  0  0
  -23.7220   -8.3580   21.9380 C   0  0  0  0  0  3  0  0  0  0  0  0
  -22.4330   -8.3110   21.3580 C   0  0  0  0  0  0  0  0  0  0  0  0
  -22.0330   -9.3390   20.4880 C   0  0  0  0  0  3  0  0  0  0  0  0
  -22.8940  -10.4140   20.2070 C   0  0  0  0  0  3  0  0  0  0  0  0
  -21.5390   -7.2860   21.5500 O   0  0  0  0  0  0  0  0  0  0  0  0
  -21.5230   -6.5510   22.7080 C   0  0  0  0  0  0  0  0  0  0  0  0
  -21.3410   -7.1550   23.9720 C   0  0  0  0  0  3  0  0  0  0  0  0
  -21.2560   -6.3550   25.1300 C   0  0  0  0  0  3  0  0  0  0  0  0
  -21.3480   -4.9550   25.0270 C   0  0  0  0  0  0  0  0  0  0  0  0
  -21.5230   -4.3510   23.7690 C   0  0  0  0  0  3  0  0  0  0  0  0
  -21.6070   -5.1470   22.6130 C   0  0  0  0  0  0  0  0  0  0  0  0
  -21.7560   -4.5590   21.4020 F   0  0  0  0  0  0  0  0  0  0  0  0
  -21.2580   -4.1860   26.1380 F   0  0  0  0  0  0  0  0  0  0  0  0
  -23.5560  -13.7070   21.1130 C   0  0  0  0  0  0  0  0  0  0  0  0
  -22.9000  -13.1280   22.1140 N   0  0  0  0  0  0  0  0  0  0  0  0
  -23.1820  -14.7810   20.6450 O   0  0  0  0  0  0  0  0  0  0  0  0
  -23.2230  -12.2600   22.5150 H   0  0  0  0  0  0  0  0  0  0  0  0
  -22.0640  -13.5590   22.4800 H   0  0  0  0  0  0  0  0  0  0  0  0
  -26.2560  -14.9800   19.9220 N   0  0  0  0  0  0  0  0  0  0  0  0
  -25.6140  -15.7290   20.1520 H   0  0  0  0  0  0  0  0  0  0  0  0
  -27.1020  -15.3040   19.4720 H   0  0  0  0  0  0  0  0  0  0  0  0
  1  3  1  0
  2  4  1  0
  3  6  1  0
  4  6  1  0
  5  8  1  0
  5  2  1  0
  5  1  1  0
  6  7  1  1
  6 57  1  0
  9 10  2  0
  9 11  1  0
 10 13  1  0
 11 14  2  0
 13  8  1  0
 13 12  2  0
 14 12  1  0
 14 15  1  0
 15 16  1  0
 16 18  1  0
 17 28  2  0
 18 23  1  0
 19 27  1  0
 19 29  1  0
 20 26  1  0
 20 22  1  0
 21 27  1  0
 22 21  1  0
 23 22  2  0
 24 25  1  0
 24 18  2  0
 25 20  2  0
 26 19  1  0
 27 17  1  0
 29 31  2  0
 30 29  1  0
 32 30  1  0
 33 38  1  0
 34 30  1  0
 35 34  1  0
 36 37  1  0
 36 35  1  0
 37 33  1  0
 38 34  1  0
 38 39  2  0
 40 39  1  0
 41 40  2  0
 42 33  2  0
 42 41  1  0
 43 17  1  0
 43 48  1  0
 43 44  1  0
 44 47  1  1
 44 45  1  0
 46 44  1  0
 48 51  1  0
 49 53  1  0
 49 48  1  0
 50 49  2  0
 53 52  1  0
 55 53  1  0
 55 56  1  0
 55 54  1  0
 57 58  1  0
 58 59  1  0
 60 59  1  0
 61 60  1  0
 62 71  1  0
 62 61  1  0
 63 69  1  0
 63 71  1  0
 64 69  1  0
 65 66  1  0
 65 64  1  0
 67 66  1  0
 67 76  1  0
 67 68  1  0
 69 68  1  0
 70 63  2  0
 71 72  1  0
 73 74  2  0
 74 93  1  0
 75 74  1  0
 75 78  1  0
 76 77  1  0
 76 73  1  0
 77 75  2  0
 78 79  1  0
 79 80  2  0
 81 84  1  0
 81 80  1  0
 82 81  2  0
 83 82  1  0
 83 78  2  0
 84 85  1  0
 85 86  1  0
 86 87  2  0
 88 87  1  0
 88 92  1  0
 89 88  2  0
 90 85  2  0
 90 89  1  0
 91 90  1  0
 93 94  1  0
 94 97  1  0
 94 96  1  0
 95 93  2  0
 98 73  1  0
 98 99  1  0
100 98  1  0
M  ISO  4  15 101  16 101  63 100  71 100
M  END
>  <TORSDO>  (6) 
F 25

>  <SCORE>  (6) 
-8.405

>  <name>  (6) 
5

>  <ligand_id>  (6) 
5

>  <original_smiles>  (6) 
[H]c1c([H])c([H])c2c(c1[H])C([H])([H])C([H])([H])C([H])([H])C2([H])N([H])C(=O)C1([H])N(C(=O)C([H])(N([H])C(=O)C([H])(N([H])C([H])([H])[H])C([H])([H])[H])C(C([H])([H])[H])(C([H])([H])[H])C([H])([H])[H])C([H])([H])c2c([H])c(OC([H])([H])c3c([H])c([H])c([H])c(C([H])([H])C4([H])C([H])([H])C([H])([H])[N+]([H])(C([H])([H])C([H])([H])C([H])([H])C([H])([H])C([H])([H])C([H])([H])N([H])C(=O)N5C([H])([H])C([H])([H])C([H])([H])C([H])(n6nc(-c7c([H])c([H])c(Oc8c([H])c([H])c(F)c([H])c8F)c([H])c7[H])c(C(=O)N([H])[H])c6N([H])[H])C5([H])[H])C([H])([H])C4([H])[H])c3[H])c([H])c([H])c2C1([H])[H]

>  <smiles>  (6) 
[H]c1c([H])c([H])c2c(c1[H])C([H])([H])C([H])([H])C([H])([H])C2([H])N([H])C(=O)C1([H])N(C(=O)C([H])(N([H])C(=O)C([H])(N([H])C([H])([H])[H])C([H])([H])[H])C(C([H])([H])[H])(C([H])([H])[H])C([H])([H])[H])C([H])([H])c2c([H])c(OC([H])([H])c3c([H])c([H])c([H])c(C([H])([H])C4([H])C([H])([H])C([H])([H])[N+]([H])(C([H])([H])C([H])([H])C([H])([H])C([H])([H])C([H])([H])C([H])([H])N([H])C(=O)N5C([H])([H])C([H])([H])C([H])([H])C([H])(n6nc(-c7c([H])c([H])c(Oc8c([H])c([H])c(F)c([H])c8F)c([H])c7[H])c(C(=O)N([H])[H])c6N([H])[H])C5([H])[H])C([H])([H])C4([H])[H])c3[H])c([H])c([H])c2C1([H])[H]

$$$$
6:0:0
     RDKit          3D

 91 98  0  0  1  0  0  0  0  0999 V2000
  -26.1080  -23.5770   19.8480 C   0  0  0  0  0  2  0  0  0  0  0  0
  -26.0590  -25.1600   17.8810 C   0  0  0  0  0  1  0  0  0  0  0  0
  -26.0350  -25.0600   19.4180 C   0  0  0  0  0  3  0  0  0  0  0  0
  -24.7680  -25.7110   20.0190 C   0  0  0  0  0  3  0  0  0  0  0  0
  -24.8430  -26.1360   21.4980 C   0  0  0  0  0  3  0  0  0  0  0  0
  -23.4880  -26.4490   22.1650 C   0  0  0  0  0  2  0  0  0  0  0  0
  -23.2670  -27.9690   22.2310 C   0  0  0  0  0  2  0  0  0  0  0  0
  -22.0590  -28.4430   23.0620 C   0  0  0  0  0  2  0  0  0  0  0  0
  -19.6800  -28.2000   22.3330 C   0  0  0  0  0  0  0  0  0  0  0  0
  -17.7470  -27.1320   21.2270 C   0  0  0  0  0  2  0  0  0  0  0  0
  -17.8960  -25.5970   21.2580 C   0  0  0  0  0  2  0  0  0  0  0  0
  -18.7510  -25.0910   20.0800 C   0  0  0  0  0  2  0  0  0  0  0  0
  -20.0790  -25.8770   19.9320 C   0  0  0  0  0  3  0  0  0  0  0  0
  -19.7980  -27.3960   19.9490 C   0  0  0  0  0  2  0  0  0  0  0  0
  -19.0880  -27.7300   21.2050 N   0  0  0  0  0  0  0  0  0  0  0  0
  -19.1360  -28.2270   23.4420 O   0  0  0  0  0  0  0  0  0  0  0  0
  -20.9400  -28.6020   22.1400 N   0  0  0  0  0  0  0  0  0  0  0  0
  -21.1960  -28.6770   21.1670 H   0  0  0  0  0  0  0  0  0  0  0  0
  -21.4260  -24.2740   18.4270 C   0  0  0  0  0  0  0  0  0  0  0  0
  -21.9020  -24.4020   17.1480 C   0  0  0  0  0  0  0  0  0  0  0  0
  -21.5240  -25.7100   16.7190 C   0  0  0  0  0  0  0  0  0  0  0  0
  -20.8060  -25.4770   18.7260 N   0  0  0  0  0  0  0  0  0  0  0  0
  -20.9120  -26.3600   17.7010 N   0  0  0  0  0  0  0  0  0  0  0  0
  -21.6590  -26.3630   15.4110 C   0  0  0  0  0  0  0  0  0  0  0  0
  -22.8980  -26.8730   14.9650 C   0  0  0  0  0  3  0  0  0  0  0  0
  -23.0060  -27.4830   13.6960 C   0  0  0  0  0  3  0  0  0  0  0  0
  -21.8700  -27.5840   12.8590 C   0  0  0  0  0  0  0  0  0  0  0  0
  -20.6340  -27.0940   13.3180 C   0  0  0  0  0  3  0  0  0  0  0  0
  -20.5270  -26.4940   14.5820 C   0  0  0  0  0  3  0  0  0  0  0  0
  -21.8740  -28.1820   11.6230 O   0  0  0  0  0  0  0  0  0  0  0  0
  -22.7250  -27.7730   10.6270 C   0  0  0  0  0  0  0  0  0  0  0  0
  -22.5300  -26.5580    9.9340 C   0  0  0  0  0  3  0  0  0  0  0  0
  -23.3870  -26.2090    8.8710 C   0  0  0  0  0  3  0  0  0  0  0  0
  -24.4330  -27.0740    8.4950 C   0  0  0  0  0  0  0  0  0  0  0  0
  -24.6260  -28.2850    9.1810 C   0  0  0  0  0  3  0  0  0  0  0  0
  -23.7720  -28.6340   10.2420 C   0  0  0  0  0  0  0  0  0  0  0  0
  -23.9500  -29.8130   10.8860 F   0  0  0  0  0  0  0  0  0  0  0  0
  -25.2520  -26.7420    7.4700 F   0  0  0  0  0  0  0  0  0  0  0  0
  -22.5860  -23.3400   16.3350 C   0  0  0  0  0  0  0  0  0  0  0  0
  -23.7270  -23.6660   15.7360 N   0  0  0  0  0  0  0  0  0  0  0  0
  -22.1350  -22.1980   16.2640 O   0  0  0  0  0  0  0  0  0  0  0  0
  -24.1080  -24.5980   15.8110 H   0  0  0  0  0  0  0  0  0  0  0  0
  -24.2270  -22.9730   15.1980 H   0  0  0  0  0  0  0  0  0  0  0  0
  -21.4540  -23.2320   19.3470 N   0  0  0  0  0  0  0  0  0  0  0  0
  -21.8530  -22.3260   19.1290 H   0  0  0  0  0  0  0  0  0  0  0  0
  -21.0110  -23.2630   20.2570 H   0  0  0  0  0  0  0  0  0  0  0  0
  -26.6720  -23.3800   21.2650 C   0  0  0  0  0  2  0  0  0  0  0  0
  -28.1720  -23.0630   21.2520 C   0  0  0  0  0  2  0  0  0  0  0  0
  -28.4630  -21.5980   21.5970 C   0  0  0  0  0  2  0  0  0  0  0  0
  -29.9270  -21.2010   21.3530 C   0  0  0  0  0  2  0  0  0  0  0  0
  -30.0640  -20.6000   20.0730 O   0  0  0  0  0  0  0  0  0  0  0  0
  -32.4600  -26.9190   17.8430 C   0  0  0  0  0  0  0  0  0  0  0  0
  -30.2810  -21.4560   19.0270 C   0  0  0  0  0  0  0  0  0  0  0  0
  -31.3750  -25.5060   16.1230 C   0  0  0  0  0  3  0  0  0  0  0  0
  -30.8750  -23.1060   16.8200 C   0  0  0  0  0  0  0  0  0  0  0  0
  -32.5150  -24.4510   18.1510 C   0  0  0  0  0  2  0  0  0  0  0  0
  -31.5110  -23.3240   18.0510 C   0  0  0  0  0  0  0  0  0  0  0  0
  -31.2190  -22.5010   19.1560 C   0  0  0  0  0  3  0  0  0  0  0  0
  -29.6400  -21.2470   17.7890 C   0  0  0  0  0  3  0  0  0  0  0  0
  -29.9300  -22.0710   16.6840 C   0  0  0  0  0  3  0  0  0  0  0  0
  -31.2640  -24.0220   15.6830 C   0  0  0  0  0  2  0  0  0  0  0  0
  -32.1170  -25.6720   17.4150 N   0  0  0  0  0  0  0  0  0  0  0  0
  -32.2120  -27.9210   17.1590 O   0  0  0  0  0  0  0  0  0  0  0  0
  -29.9550  -26.1160   16.1500 C   0  0  0  0  0  0  0  0  0  0  0  0
  -29.4750  -26.5610   14.9770 N   0  0  0  0  0  0  0  0  0  0  0  0
  -29.3030  -26.1540   17.1960 O   0  0  0  0  0  0  0  0  0  0  0  0
  -30.0750  -26.4980   14.1660 H   0  0  0  0  0  0  0  0  0  0  0  0
  -27.3370  -28.0500   12.4780 C   0  0  0  0  0  0  0  0  0  0  0  0
  -28.1500  -27.1370   14.7550 C   0  0  0  0  0  3  0  0  0  0  0  0
  -27.0860  -26.0300   14.5760 C   0  0  0  0  0  2  0  0  0  0  0  0
  -26.8540  -25.6460   13.1100 C   0  0  0  0  0  2  0  0  0  0  0  0
  -26.4020  -26.8660   12.3020 C   0  0  0  0  0  2  0  0  0  0  0  0
  -28.1710  -28.1680   13.6210 C   0  0  0  0  0  0  0  0  0  0  0  0
  -29.0500  -29.2680   13.7180 C   0  0  0  0  0  3  0  0  0  0  0  0
  -29.1020  -30.2390   12.7000 C   0  0  0  0  0  3  0  0  0  0  0  0
  -28.2630  -30.1270   11.5790 C   0  0  0  0  0  3  0  0  0  0  0  0
  -27.3800  -29.0370   11.4720 C   0  0  0  0  0  3  0  0  0  0  0  0
  -33.2030  -27.1450   19.1980 C   0  0  0  0  0  3  0  0  0  0  0  0
  -32.3230  -27.8910   20.2740 C   0  0  1  0  0  0  0  0  0  0  0  0
  -32.3860  -29.4320   20.1680 C   0  0  0  0  0  1  0  0  0  0  0  0
  -30.8390  -27.4680   20.1530 C   0  0  0  0  0  1  0  0  0  0  0  0
  -32.7810  -27.4890   21.6970 C   0  0  0  0  0  1  0  0  0  0  0  0
  -34.4260  -27.9040   18.9090 N   0  0  0  0  0  0  0  0  0  0  0  0
  -35.6280  -27.3530   18.6910 C   0  0  0  0  0  0  0  0  0  0  0  0
  -35.8370  -26.1410   18.7860 O   0  0  0  0  0  0  0  0  0  0  0  0
  -34.3200  -28.8980   18.7630 H   0  0  0  0  0  0  0  0  0  0  0  0
  -37.1170  -28.1250   16.8190 C   0  0  0  0  0  1  0  0  0  0  0  0
  -36.7830  -28.2980   18.3080 C   0  0  0  0  0  3  0  0  0  0  0  0
  -37.8640  -28.5600   20.4970 C   0  0  0  0  0  1  0  0  0  0  0  0
  -38.0030  -28.0950   19.1200 N   0  0  0  0  0  0  0  0  0  0  0  0
  -38.7980  -28.5710   18.7020 H   0  0  0  0  0  0  0  0  0  0  0  0
  1 47  1  0
  3  2  1  0
  3  1  1  0
  3  4  1  0
  4  5  2  0
  5  6  1  0
  6  7  1  0
  7  8  1  0
  9 16  2  0
 10 11  1  0
 12 11  1  0
 13 22  1  0
 13 14  1  0
 13 12  1  0
 14 15  1  0
 15 10  1  0
 15  9  1  0
 17  9  1  0
 17  8  1  0
 18 17  1  0
 19 22  1  0
 19 44  1  0
 20 19  2  0
 21 20  1  0
 21 23  2  0
 23 22  1  0
 24 21  1  0
 25 24  1  0
 26 25  2  0
 27 28  2  0
 27 26  1  0
 28 29  1  0
 29 24  2  0
 30 27  1  0
 31 30  1  0
 32 31  2  0
 33 32  1  0
 34 33  2  0
 34 35  1  0
 35 36  2  0
 36 31  1  0
 36 37  1  0
 38 34  1  0
 39 20  1  0
 40 42  1  0
 40 39  1  0
 41 39  2  0
 43 40  1  0
 44 46  1  0
 45 44  1  0
 48 47  1  0
 48 49  1  0
 50 49  1  0
 51 50  1  0
 53 58  1  0
 53 51  1  0
 54 64  1  0
 54 62  1  0
 55 57  1  0
 57 56  1  0
 57 58  2  0
 59 53  2  0
 60 55  2  0
 60 59  1  0
 61 54  1  0
 61 55  1  0
 62 52  1  0
 62 56  1  0
 63 52  2  0
 64 66  2  0
 65 64  1  0
 67 65  1  0
 68 73  1  0
 69 65  1  0
 70 69  1  0
 71 70  1  0
 72 68  1  0
 72 71  1  0
 73 74  2  0
 73 69  1  0
 75 74  1  0
 76 75  2  0
 77 76  1  0
 77 68  2  0
 78 52  1  0
 78 79  1  0
 79 82  1  1
 80 79  1  0
 81 79  1  0
 83 78  1  0
 84 85  2  0
 84 83  1  0
 86 83  1  0
 88 87  1  0
 88 84  1  0
 88 90  1  0
 90 89  1  0
 91 90  1  0
M  ISO  4   9 100  17 100  50 101  51 101
M  END
>  <TORSDO>  (7) 
F 26

>  <SCORE>  (7) 
-6.006

>  <name>  (7) 
6

>  <ligand_id>  (7) 
6

>  <original_smiles>  (7) 
[H]c1c([H])c([H])c2c(c1[H])C([H])([H])C([H])([H])C([H])([H])C2([H])N([H])C(=O)C1([H])N(C(=O)C([H])(N([H])C(=O)C([H])(N([H])C([H])([H])[H])C([H])([H])[H])C(C([H])([H])[H])(C([H])([H])[H])C([H])([H])[H])C([H])([H])c2c([H])c(OC([H])([H])C([H])([H])C([H])([H])C([H])([H])C([H])([H])C([H])(C([H])([H])[H])C([H])([H])C([H])([H])C([H])([H])C([H])([H])C([H])([H])N([H])C(=O)N3C([H])([H])C([H])([H])C([H])([H])C([H])(n4nc(-c5c([H])c([H])c(Oc6c([H])c([H])c(F)c([H])c6F)c([H])c5[H])c(C(=O)N([H])[H])c4N([H])[H])C3([H])[H])c([H])c([H])c2C1([H])[H]

>  <smiles>  (7) 
[H]c1c([H])c([H])c2c(c1[H])C([H])([H])C([H])([H])C([H])([H])C2([H])N([H])C(=O)C1([H])N(C(=O)C([H])(N([H])C(=O)C([H])(N([H])C([H])([H])[H])C([H])([H])[H])C(C([H])([H])[H])(C([H])([H])[H])C([H])([H])[H])C([H])([H])c2c([H])c(OC([H])([H])C([H])([H])C([H])([H])C([H])([H])C([H])([H])C([H])(C([H])([H])[H])C([H])([H])C([H])([H])C([H])([H])C([H])([H])C([H])([H])N([H])C(=O)N3C([H])([H])C([H])([H])C([H])([H])C([H])(n4nc(-c5c([H])c([H])c(Oc6c([H])c([H])c(F)c([H])c6F)c([H])c5[H])c(C(=O)N([H])[H])c4N([H])[H])C3([H])[H])c([H])c([H])c2C1([H])[H]

$$$$
7:0:0
     RDKit          3D

 98105  0  0  1  0  0  0  0  0999 V2000
  -29.6830  -21.4660   22.9440 C   0  0  0  0  0  3  0  0  0  0  0  0
  -29.5620  -21.5660   24.4790 C   0  0  0  0  0  2  0  0  0  0  0  0
  -28.3860  -22.4050   25.0230 C   0  0  0  0  0  2  0  0  0  0  0  0
  -28.7990  -23.1800   26.2880 C   0  0  0  0  0  2  0  0  0  0  0  0
  -28.0300  -24.4960   26.4950 C   0  0  0  0  0  2  0  0  0  0  0  0
  -28.6260  -25.3120   27.5690 N   0  0  0  0  0  4  0  0  0  0  0  0
  -28.6300  -24.8120   28.4400 H   0  0  0  0  0  0  0  0  0  0  0  0
  -28.0940  -26.1540   27.6950 H   0  0  0  0  0  0  0  0  0  0  0  0
  -29.5700  -25.5680   27.3400 H   0  0  0  0  0  0  0  0  0  0  0  0
  -29.0780  -22.6840   22.2000 C   0  0  0  0  0  2  0  0  0  0  0  0
  -30.0970  -23.4620   21.3460 C   0  0  0  0  0  2  0  0  0  0  0  0
  -29.4190  -24.3460   20.2870 C   0  0  0  0  0  2  0  0  0  0  0  0
  -30.2780  -25.5570   19.8840 C   0  0  0  0  0  2  0  0  0  0  0  0
  -29.8540  -26.2190   18.5590 C   0  0  0  0  0  2  0  0  0  0  0  0
  -29.5150  -27.5860   18.7820 O   0  0  0  0  0  0  0  0  0  0  0  0
  -24.8830  -30.9470   22.9920 C   0  0  0  0  0  0  0  0  0  0  0  0
  -28.1980  -27.9350   18.9830 C   0  0  0  0  0  0  0  0  0  0  0  0
  -23.8930  -29.6750   21.1160 C   0  0  0  0  0  3  0  0  0  0  0  0
  -25.5400  -28.8170   19.3740 C   0  0  0  0  0  0  0  0  0  0  0  0
  -26.2630  -30.6210   20.9440 C   0  0  0  0  0  2  0  0  0  0  0  0
  -26.5940  -29.4570   20.0360 C   0  0  0  0  0  0  0  0  0  0  0  0
  -27.9220  -29.0220   19.8420 C   0  0  0  0  0  3  0  0  0  0  0  0
  -27.1200  -27.3030   18.3190 C   0  0  0  0  0  3  0  0  0  0  0  0
  -25.7970  -27.7370   18.5160 C   0  0  0  0  0  3  0  0  0  0  0  0
  -24.1500  -29.3540   19.6200 C   0  0  0  0  0  2  0  0  0  0  0  0
  -25.0320  -30.4210   21.7450 N   0  0  0  0  0  0  0  0  0  0  0  0
  -23.8080  -30.8570   23.6010 O   0  0  0  0  0  0  0  0  0  0  0  0
  -23.5450  -28.3590   21.8490 C   0  0  0  0  0  0  0  0  0  0  0  0
  -22.3210  -27.8550   21.6170 N   0  0  0  0  0  0  0  0  0  0  0  0
  -24.3690  -27.8040   22.5800 O   0  0  0  0  0  0  0  0  0  0  0  0
  -21.7020  -28.3770   21.0130 H   0  0  0  0  0  0  0  0  0  0  0  0
  -19.4440  -25.6750   21.6080 C   0  0  0  0  0  0  0  0  0  0  0  0
  -21.7860  -26.6120   22.1680 C   0  0  0  0  0  3  0  0  0  0  0  0
  -22.3470  -25.3830   21.4140 C   0  0  0  0  0  2  0  0  0  0  0  0
  -21.4490  -24.9210   20.2600 C   0  0  0  0  0  2  0  0  0  0  0  0
  -20.0550  -24.5580   20.7760 C   0  0  0  0  0  2  0  0  0  0  0  0
  -20.2550  -26.6480   22.2460 C   0  0  0  0  0  0  0  0  0  0  0  0
  -19.6360  -27.6860   22.9750 C   0  0  0  0  0  3  0  0  0  0  0  0
  -18.2340  -27.7580   23.0740 C   0  0  0  0  0  3  0  0  0  0  0  0
  -17.4350  -26.7820   22.4530 C   0  0  0  0  0  3  0  0  0  0  0  0
  -18.0390  -25.7420   21.7250 C   0  0  0  0  0  3  0  0  0  0  0  0
  -26.0450  -31.7070   23.7050 C   0  0  0  0  0  3  0  0  0  0  0  0
  -26.5490  -30.9880   25.0160 C   0  0  1  0  0  0  0  0  0  0  0  0
  -25.4160  -30.6420   26.0090 C   0  0  0  0  0  1  0  0  0  0  0  0
  -27.2890  -29.6760   24.6630 C   0  0  0  0  0  1  0  0  0  0  0  0
  -27.5680  -31.8900   25.7520 C   0  0  0  0  0  1  0  0  0  0  0  0
  -25.5660  -33.0630   24.0040 N   0  0  0  0  0  0  0  0  0  0  0  0
  -25.9290  -34.1630   23.3330 C   0  0  0  0  0  0  0  0  0  0  0  0
  -26.7700  -34.1500   22.4290 O   0  0  0  0  0  0  0  0  0  0  0  0
  -24.8400  -33.1430   24.7000 H   0  0  0  0  0  0  0  0  0  0  0  0
  -24.1790  -35.8470   22.6830 C   0  0  0  0  0  1  0  0  0  0  0  0
  -25.2520  -35.4890   23.7240 C   0  0  0  0  0  3  0  0  0  0  0  0
  -27.0880  -36.4780   25.0220 C   0  0  0  0  0  1  0  0  0  0  0  0
  -26.2000  -36.6140   23.8700 N   0  0  0  0  0  0  0  0  0  0  0  0
  -25.7010  -37.4950   23.9570 H   0  0  0  0  0  0  0  0  0  0  0  0
  -29.1470  -20.1190   22.3950 C   0  0  0  0  0  2  0  0  0  0  0  0
  -29.8700  -19.6420   21.1260 C   0  0  0  0  0  2  0  0  0  0  0  0
  -31.0860  -18.7630   21.4590 C   0  0  0  0  0  2  0  0  0  0  0  0
  -31.9120  -18.3900   20.2240 C   0  0  0  0  0  2  0  0  0  0  0  0
  -32.9750  -17.3180   20.5160 C   0  0  0  0  0  2  0  0  0  0  0  0
  -32.8890  -14.8480   20.2180 C   0  0  0  0  0  0  0  0  0  0  0  0
  -32.4570  -12.4880   19.6630 C   0  0  0  0  0  2  0  0  0  0  0  0
  -31.5560  -12.3880   18.4160 C   0  0  0  0  0  2  0  0  0  0  0  0
  -30.0680  -12.4530   18.8100 C   0  0  0  0  0  2  0  0  0  0  0  0
  -29.7490  -13.6250   19.7750 C   0  0  0  0  0  3  0  0  0  0  0  0
  -30.7630  -13.6800   20.9390 C   0  0  0  0  0  2  0  0  0  0  0  0
  -32.1220  -13.7350   20.3680 N   0  0  0  0  0  0  0  0  0  0  0  0
  -33.9770  -14.8390   19.6380 O   0  0  0  0  0  0  0  0  0  0  0  0
  -32.3720  -15.9920   20.6910 N   0  0  0  0  0  0  0  0  0  0  0  0
  -31.4790  -15.9360   21.1560 H   0  0  0  0  0  0  0  0  0  0  0  0
  -27.4900  -14.5730   20.5760 C   0  0  0  0  0  0  0  0  0  0  0  0
  -26.3090  -13.9650   20.9110 C   0  0  0  0  0  0  0  0  0  0  0  0
  -26.5350  -12.5620   20.7750 C   0  0  0  0  0  0  0  0  0  0  0  0
  -28.3700  -13.5490   20.2610 N   0  0  0  0  0  0  0  0  0  0  0  0
  -27.7960  -12.3300   20.4340 N   0  0  0  0  0  0  0  0  0  0  0  0
  -25.6090  -11.4280   20.8960 C   0  0  0  0  0  0  0  0  0  0  0  0
  -25.7400  -10.4710   21.9270 C   0  0  0  0  0  3  0  0  0  0  0  0
  -24.8270   -9.4000   22.0310 C   0  0  0  0  0  3  0  0  0  0  0  0
  -23.7620   -9.2830   21.1060 C   0  0  0  0  0  0  0  0  0  0  0  0
  -23.6500  -10.2250   20.0670 C   0  0  0  0  0  3  0  0  0  0  0  0
  -24.5640  -11.2860   19.9620 C   0  0  0  0  0  3  0  0  0  0  0  0
  -22.8390   -8.2650   21.1180 O   0  0  0  0  0  0  0  0  0  0  0  0
  -22.3230   -7.7790   22.2900 C   0  0  0  0  0  0  0  0  0  0  0  0
  -21.5870   -8.5950   23.1790 C   0  0  0  0  0  3  0  0  0  0  0  0
  -21.0080   -8.0330   24.3350 C   0  0  0  0  0  3  0  0  0  0  0  0
  -21.1600   -6.6600   24.6040 C   0  0  0  0  0  0  0  0  0  0  0  0
  -21.8920   -5.8470   23.7200 C   0  0  0  0  0  3  0  0  0  0  0  0
  -22.4650   -6.4040   22.5650 C   0  0  0  0  0  0  0  0  0  0  0  0
  -23.1460   -5.6110   21.7040 F   0  0  0  0  0  0  0  0  0  0  0  0
  -20.5980   -6.1190   25.7110 F   0  0  0  0  0  0  0  0  0  0  0  0
  -25.0130  -14.6460   21.2430 C   0  0  0  0  0  0  0  0  0  0  0  0
  -24.1950  -14.0330   22.0900 N   0  0  0  0  0  0  0  0  0  0  0  0
  -24.7380  -15.7560   20.7840 O   0  0  0  0  0  0  0  0  0  0  0  0
  -24.4290  -13.1330   22.4810 H   0  0  0  0  0  0  0  0  0  0  0  0
  -23.3200  -14.4700   22.3480 H   0  0  0  0  0  0  0  0  0  0  0  0
  -27.8830  -15.9050   20.4970 N   0  0  0  0  0  0  0  0  0  0  0  0
  -27.2560  -16.6690   20.7230 H   0  0  0  0  0  0  0  0  0  0  0  0
  -28.8030  -16.2180   20.2100 H   0  0  0  0  0  0  0  0  0  0  0  0
  1 10  1  0
  1  2  1  0
  2  3  1  0
  3  4  1  0
  4  5  1  0
  5  6  1  0
  6  8  1  0
  6  7  1  0
  9  6  1  0
 11 10  1  0
 12 11  1  0
 13 12  1  0
 14 15  1  0
 14 13  1  0
 15 17  1  0
 16 27  2  0
 17 22  1  0
 18 26  1  0
 18 28  1  0
 19 25  1  0
 19 21  1  0
 20 26  1  0
 21 20  1  0
 22 21  2  0
 23 24  1  0
 23 17  2  0
 24 19  2  0
 25 18  1  0
 26 16  1  0
 28 30  2  0
 29 28  1  0
 31 29  1  0
 32 41  2  0
 32 37  1  0
 33 29  1  0
 33 37  1  0
 34 33  1  0
 35 36  1  0
 35 34  1  0
 36 32  1  0
 37 38  2  0
 38 39  1  0
 40 39  2  0
 41 40  1  0
 42 16  1  0
 42 47  1  0
 42 43  1  0
 43 46  1  1
 43 44  1  0
 45 43  1  0
 47 50  1  0
 48 52  1  0
 48 47  1  0
 49 48  2  0
 52 51  1  0
 52 54  1  0
 54 55  1  0
 54 53  1  0
 56  1  1  0
 57 58  1  0
 57 56  1  0
 59 60  1  0
 59 58  1  0
 60 69  1  0
 61 67  1  0
 61 69  1  0
 62 67  1  0
 63 64  1  0
 63 62  1  0
 65 64  1  0
 65 74  1  0
 65 66  1  0
 67 66  1  0
 68 61  2  0
 69 70  1  0
 71 72  2  0
 72 91  1  0
 73 76  1  0
 73 72  1  0
 74 75  1  0
 74 71  1  0
 75 73  2  0
 76 77  1  0
 77 78  2  0
 79 82  1  0
 79 78  1  0
 80 79  2  0
 81 80  1  0
 81 76  2  0
 82 83  1  0
 83 88  2  0
 83 84  1  0
 84 85  2  0
 85 86  1  0
 86 90  1  0
 87 86  2  0
 88 87  1  0
 89 88  1  0
 91 92  1  0
 92 95  1  0
 92 94  1  0
 93 91  2  0
 96 71  1  0
 96 97  1  0
 98 96  1  0
M  ISO  4  14 101  15 101  61 100  69 100
M  END
>  <TORSDO>  (8) 
F 31

>  <SCORE>  (8) 
6.441

>  <name>  (8) 
7

>  <ligand_id>  (8) 
7

>  <original_smiles>  (8) 
[H]c1c([H])c([H])c2c(c1[H])C([H])([H])C([H])([H])C([H])([H])C2([H])N([H])C(=O)C1([H])N(C(=O)C([H])(N([H])C(=O)C([H])(N([H])C([H])([H])[H])C([H])([H])[H])C(C([H])([H])[H])(C([H])([H])[H])C([H])([H])[H])C([H])([H])c2c([H])c(OC([H])([H])C([H])([H])C([H])([H])C([H])([H])C([H])([H])C([H])(C([H])([H])C([H])([H])C([H])([H])C([H])([H])C([H])([H])N([H])C(=O)N3C([H])([H])C([H])([H])C([H])([H])C([H])(n4nc(-c5c([H])c([H])c(Oc6c([H])c([H])c(F)c([H])c6F)c([H])c5[H])c(C(=O)N([H])[H])c4N([H])[H])C3([H])[H])C([H])([H])C([H])([H])C([H])([H])C([H])([H])[N+]([H])([H])[H])c([H])c([H])c2C1([H])[H]

>  <smiles>  (8) 
[H]c1c([H])c([H])c2c(c1[H])C([H])([H])C([H])([H])C([H])([H])C2([H])N([H])C(=O)C1([H])N(C(=O)C([H])(N([H])C(=O)C([H])(N([H])C([H])([H])[H])C([H])([H])[H])C(C([H])([H])[H])(C([H])([H])[H])C([H])([H])[H])C([H])([H])c2c([H])c(OC([H])([H])C([H])([H])C([H])([H])C([H])([H])C([H])([H])C([H])(C([H])([H])C([H])([H])C([H])([H])C([H])([H])C([H])([H])N([H])C(=O)N3C([H])([H])C([H])([H])C([H])([H])C([H])(n4nc(-c5c([H])c([H])c(Oc6c([H])c([H])c(F)c([H])c6F)c([H])c5[H])c(C(=O)N([H])[H])c4N([H])[H])C3([H])[H])C([H])([H])C([H])([H])C([H])([H])C([H])([H])[N+]([H])([H])[H])c([H])c([H])c2C1([H])[H]

$$$$
8:0:0
     RDKit          3D

 96105  0  0  1  0  0  0  0  0999 V2000
  -29.3390  -21.4850   22.4990 C   0  0  0  0  0  3  0  0  0  0  0  0
  -30.0460  -22.6880   22.6710 C   0  0  0  0  0  3  0  0  0  0  0  0
  -29.3610  -21.8370   20.0900 C   0  0  0  0  0  3  0  0  0  0  0  0
  -29.0180  -21.0420   21.2010 C   0  0  0  0  0  0  0  0  0  0  0  0
  -30.0640  -23.0500   20.2470 C   0  0  0  0  0  0  0  0  0  0  0  0
  -30.4330  -23.4580   21.5550 C   0  0  0  0  0  0  0  0  0  0  0  0
  -31.2080  -24.5940   21.7810 N   0  0  0  0  0  0  0  0  0  0  0  0
  -31.2050  -25.0350   22.6950 H   0  0  0  0  0  0  0  0  0  0  0  0
  -31.3740  -25.2400   21.0160 H   0  0  0  0  0  0  0  0  0  0  0  0
  -28.3460  -19.6990   20.9710 C   0  0  0  0  0  2  0  0  0  0  0  0
  -31.0350  -14.6760   20.1030 C   0  0  0  0  0  0  0  0  0  0  0  0
  -30.7260  -12.4360   19.1490 C   0  0  0  0  0  2  0  0  0  0  0  0
  -29.7160  -12.5010   17.9850 C   0  0  0  0  0  2  0  0  0  0  0  0
  -28.2690  -12.3650   18.4970 C   0  0  0  0  0  2  0  0  0  0  0  0
  -27.9630  -13.3120   19.6900 C   0  0  0  0  0  3  0  0  0  0  0  0
  -29.0780  -13.2230   20.7610 C   0  0  0  0  0  2  0  0  0  0  0  0
  -30.3660  -13.4940   20.1030 N   0  0  0  0  0  0  0  0  0  0  0  0
  -32.1600  -14.8150   19.6120 O   0  0  0  0  0  0  0  0  0  0  0  0
  -28.7710  -17.5610   19.6420 C   0  0  0  0  0  2  0  0  0  0  0  0
  -29.8890  -17.8220   21.8500 C   0  0  0  0  0  2  0  0  0  0  0  0
  -29.8330  -16.5260   19.2530 C   0  0  0  0  0  2  0  0  0  0  0  0
  -30.8430  -16.6560   21.4800 C   0  0  0  0  0  2  0  0  0  0  0  0
  -29.3640  -18.5820   20.6180 C   0  0  0  0  0  3  0  0  0  0  0  0
  -30.3100  -15.7700   20.4250 N   0  0  0  0  0  0  0  0  0  0  0  0
  -25.6390  -13.9420   20.5960 C   0  0  0  0  0  0  0  0  0  0  0  0
  -24.5700  -13.1780   20.9900 C   0  0  0  0  0  0  0  0  0  0  0  0
  -24.9850  -11.8210   20.8480 C   0  0  0  0  0  0  0  0  0  0  0  0
  -26.6390  -13.0490   20.2480 N   0  0  0  0  0  0  0  0  0  0  0  0
  -26.2520  -11.7650   20.4570 N   0  0  0  0  0  0  0  0  0  0  0  0
  -24.2330  -10.5690   21.0070 C   0  0  0  0  0  0  0  0  0  0  0  0
  -24.6370   -9.5810   21.9290 C   0  0  0  0  0  3  0  0  0  0  0  0
  -23.8880   -8.3940   22.0820 C   0  0  0  0  0  3  0  0  0  0  0  0
  -22.7180   -8.1880   21.3100 C   0  0  0  0  0  0  0  0  0  0  0  0
  -22.3360   -9.1640   20.3730 C   0  0  0  0  0  3  0  0  0  0  0  0
  -23.0850  -10.3440   20.2200 C   0  0  0  0  0  3  0  0  0  0  0  0
  -21.9420   -7.0560   21.3700 O   0  0  0  0  0  0  0  0  0  0  0  0
  -21.7620   -6.3720   22.5450 C   0  0  0  0  0  0  0  0  0  0  0  0
  -21.1890   -6.9810   23.6830 C   0  0  0  0  0  3  0  0  0  0  0  0
  -20.9530   -6.2180   24.8450 C   0  0  0  0  0  3  0  0  0  0  0  0
  -21.2840   -4.8520   24.8690 C   0  0  0  0  0  0  0  0  0  0  0  0
  -21.8520   -4.2430   23.7360 C   0  0  0  0  0  3  0  0  0  0  0  0
  -22.0850   -5.0000   22.5760 C   0  0  0  0  0  0  0  0  0  0  0  0
  -22.6120   -4.4060   21.4790 F   0  0  0  0  0  0  0  0  0  0  0  0
  -21.0530   -4.1170   25.9830 F   0  0  0  0  0  0  0  0  0  0  0  0
  -23.2090  -13.6800   21.3790 C   0  0  0  0  0  0  0  0  0  0  0  0
  -22.5270  -12.9640   22.2680 N   0  0  0  0  0  0  0  0  0  0  0  0
  -22.7630  -14.7350   20.9340 O   0  0  0  0  0  0  0  0  0  0  0  0
  -22.9060  -12.1120   22.6530 H   0  0  0  0  0  0  0  0  0  0  0  0
  -21.6140  -13.2750   22.5690 H   0  0  0  0  0  0  0  0  0  0  0  0
  -25.8280  -15.3140   20.4890 N   0  0  0  0  0  0  0  0  0  0  0  0
  -25.0880  -15.9790   20.6890 H   0  0  0  0  0  0  0  0  0  0  0  0
  -26.6760  -15.7520   20.1550 H   0  0  0  0  0  0  0  0  0  0  0  0
  -30.4500  -23.8160   18.9790 C   0  0  0  0  0  2  0  0  0  0  0  0
  -30.0340  -25.3040   18.8900 C   0  0  0  0  0  2  0  0  0  0  0  0
  -28.5550  -25.6290   19.1680 C   0  0  0  0  0  2  0  0  0  0  0  0
  -28.4900  -26.9950   19.5950 O   0  0  0  0  0  0  0  0  0  0  0  0
  -24.4970  -31.7400   23.1050 C   0  0  0  0  0  0  0  0  0  0  0  0
  -27.2690  -27.6340   19.6700 C   0  0  0  0  0  0  0  0  0  0  0  0
  -23.3400  -30.4590   21.3340 C   0  0  0  0  0  3  0  0  0  0  0  0
  -24.8370  -29.0720   19.8100 C   0  0  0  0  0  0  0  0  0  0  0  0
  -25.8590  -30.8870   21.1930 C   0  0  0  0  0  2  0  0  0  0  0  0
  -25.9800  -29.5720   20.4460 C   0  0  0  0  0  0  0  0  0  0  0  0
  -27.1970  -28.8600   20.3730 C   0  0  0  0  0  3  0  0  0  0  0  0
  -26.0980  -27.1370   19.0500 C   0  0  0  0  0  3  0  0  0  0  0  0
  -24.8910  -27.8530   19.1150 C   0  0  0  0  0  3  0  0  0  0  0  0
  -23.5770  -29.8990   19.9070 C   0  0  0  0  0  2  0  0  0  0  0  0
  -24.5840  -31.0390   21.9380 N   0  0  0  0  0  0  0  0  0  0  0  0
  -23.4040  -31.9460   23.6500 O   0  0  0  0  0  0  0  0  0  0  0  0
  -22.6990  -29.3460   22.1950 C   0  0  0  0  0  0  0  0  0  0  0  0
  -21.3810  -29.1430   22.0280 N   0  0  0  0  0  0  0  0  0  0  0  0
  -23.3830  -28.6770   22.9730 O   0  0  0  0  0  0  0  0  0  0  0  0
  -20.8930  -29.7450   21.3800 H   0  0  0  0  0  0  0  0  0  0  0  0
  -18.0310  -27.8290   22.3450 C   0  0  0  0  0  0  0  0  0  0  0  0
  -20.5750  -28.1230   22.6950 C   0  0  0  0  0  3  0  0  0  0  0  0
  -20.7260  -26.7480   22.0020 C   0  0  0  0  0  2  0  0  0  0  0  0
  -19.6520  -26.4880   20.9400 C   0  0  0  0  0  2  0  0  0  0  0  0
  -18.2550  -26.5450   21.5640 C   0  0  0  0  0  2  0  0  0  0  0  0
  -19.1220  -28.5770   22.8640 C   0  0  0  0  0  0  0  0  0  0  0  0
  -18.8610  -29.7820   23.5520 C   0  0  0  0  0  3  0  0  0  0  0  0
  -17.5410  -30.2380   23.7270 C   0  0  0  0  0  3  0  0  0  0  0  0
  -16.4650  -29.4840   23.2270 C   0  0  0  0  0  3  0  0  0  0  0  0
  -16.7100  -28.2810   22.5420 C   0  0  0  0  0  3  0  0  0  0  0  0
  -25.7640  -32.3370   23.7960 C   0  0  0  0  0  3  0  0  0  0  0  0
  -25.4430  -33.7140   24.1930 N   0  0  0  0  0  0  0  0  0  0  0  0
  -25.7990  -34.8070   23.5050 C   0  0  0  0  0  0  0  0  0  0  0  0
  -26.5060  -34.7590   22.4950 O   0  0  0  0  0  0  0  0  0  0  0  0
  -24.8190  -33.8240   24.9790 H   0  0  0  0  0  0  0  0  0  0  0  0
  -24.0780  -36.6150   23.1810 C   0  0  0  0  0  1  0  0  0  0  0  0
  -25.2880  -36.1700   24.0180 C   0  0  0  0  0  3  0  0  0  0  0  0
  -27.3790  -37.0130   24.9900 C   0  0  0  0  0  1  0  0  0  0  0  0
  -26.3220  -37.2270   24.0040 N   0  0  0  0  0  0  0  0  0  0  0  0
  -25.9080  -38.1400   24.1730 H   0  0  0  0  0  0  0  0  0  0  0  0
  -26.2450  -31.5000   25.0430 C   0  0  1  0  0  0  0  0  0  0  0  0
  -25.1210  -31.1980   26.0610 C   0  0  0  0  0  1  0  0  0  0  0  0
  -26.8500  -30.1510   24.5890 C   0  0  0  0  0  1  0  0  0  0  0  0
  -27.3660  -32.2620   25.7900 C   0  0  0  0  0  1  0  0  0  0  0  0
  1  2  1  0
  3  5  2  0
  3  4  1  0
  4  1  2  0
  5  6  1  0
  6  7  1  0
  6  2  2  0
  7  8  1  0
  9  7  1  0
 10  4  1  0
 11 17  1  0
 11 24  1  0
 12 17  1  0
 13 14  1  0
 13 12  1  0
 15 14  1  0
 15 28  1  0
 15 16  1  0
 17 16  1  0
 18 11  2  0
 19 23  1  0
 21 19  1  0
 21 24  1  0
 22 20  1  0
 23 10  1  0
 23 20  1  0
 24 22  1  0
 25 26  2  0
 26 45  1  0
 27 26  1  0
 27 30  1  0
 28 29  1  0
 28 25  1  0
 29 27  2  0
 30 31  1  0
 31 32  2  0
 33 36  1  0
 33 32  1  0
 34 33  2  0
 35 34  1  0
 35 30  2  0
 36 37  1  0
 37 42  2  0
 37 38  1  0
 38 39  2  0
 39 40  1  0
 40 44  1  0
 41 40  2  0
 42 41  1  0
 43 42  1  0
 45 46  1  0
 46 49  1  0
 46 48  1  0
 47 45  2  0
 50 25  1  0
 50 51  1  0
 52 50  1  0
 53  5  1  0
 54 53  1  0
 54 55  1  0
 55 56  1  0
 56 58  1  0
 57 68  2  0
 58 63  1  0
 59 67  1  0
 59 69  1  0
 60 66  1  0
 60 62  1  0
 61 67  1  0
 62 61  1  0
 63 62  2  0
 64 65  1  0
 64 58  2  0
 65 60  2  0
 66 59  1  0
 67 57  1  0
 69 71  2  0
 70 69  1  0
 72 70  1  0
 73 82  2  0
 73 78  1  0
 74 70  1  0
 74 78  1  0
 75 74  1  0
 76 77  1  0
 76 75  1  0
 77 73  1  0
 78 79  2  0
 79 80  1  0
 81 80  2  0
 82 81  1  0
 83 57  1  0
 83 84  1  0
 83 93  1  0
 84 87  1  0
 85 89  1  0
 85 84  1  0
 86 85  2  0
 89 88  1  0
 91 89  1  0
 91 92  1  0
 91 90  1  0
 93 96  1  1
 93 94  1  0
 95 93  1  0
M  ISO  4  11 100  24 100  55 101  56 101
M  END
>  <TORSDO>  (9) 
F 21

>  <SCORE>  (9) 
-12.591

>  <name>  (9) 
8

>  <ligand_id>  (9) 
8

>  <original_smiles>  (9) 
[H]c1c([H])c([H])c2c(c1[H])C([H])([H])C([H])([H])C([H])([H])C2([H])N([H])C(=O)C1([H])N(C(=O)C([H])(N([H])C(=O)C([H])(N([H])C([H])([H])[H])C([H])([H])[H])C(C([H])([H])[H])(C([H])([H])[H])C([H])([H])[H])C([H])([H])c2c([H])c(OC([H])([H])C([H])([H])C([H])([H])c3c([H])c(C([H])([H])C4([H])C([H])([H])C([H])([H])N(C(=O)N5C([H])([H])C([H])([H])C([H])([H])C([H])(n6nc(-c7c([H])c([H])c(Oc8c([H])c([H])c(F)c([H])c8F)c([H])c7[H])c(C(=O)N([H])[H])c6N([H])[H])C5([H])[H])C([H])([H])C4([H])[H])c([H])c([H])c3N([H])[H])c([H])c([H])c2C1([H])[H]

>  <smiles>  (9) 
[H]c1c([H])c([H])c2c(c1[H])C([H])([H])C([H])([H])C([H])([H])C2([H])N([H])C(=O)C1([H])N(C(=O)C([H])(N([H])C(=O)C([H])(N([H])C([H])([H])[H])C([H])([H])[H])C(C([H])([H])[H])(C([H])([H])[H])C([H])([H])[H])C([H])([H])c2c([H])c(OC([H])([H])C([H])([H])C([H])([H])c3c([H])c(C([H])([H])C4([H])C([H])([H])C([H])([H])N(C(=O)N5C([H])([H])C([H])([H])C([H])([H])C([H])(n6nc(-c7c([H])c([H])c(Oc8c([H])c([H])c(F)c([H])c8F)c([H])c7[H])c(C(=O)N([H])[H])c6N([H])[H])C5([H])[H])C([H])([H])C4([H])[H])c([H])c([H])c3N([H])[H])c([H])c([H])c2C1([H])[H]

$$$$
9:0:0
     RDKit          3D

 93101  0  0  1  0  0  0  0  0999 V2000
  -29.7100  -23.4770   22.2320 C   0  0  0  0  0  3  0  0  0  0  0  0
  -29.4550  -22.0940   22.1500 C   0  0  0  0  0  3  0  0  0  0  0  0
  -27.7110  -23.9130   20.9100 C   0  0  0  0  0  3  0  0  0  0  0  0
  -28.8370  -24.3890   21.6060 C   0  0  0  0  0  0  0  0  0  0  0  0
  -28.3260  -21.6090   21.4520 C   0  0  0  0  0  0  0  0  0  0  0  0
  -27.4440  -22.5330   20.8340 C   0  0  0  0  0  0  0  0  0  0  0  0
  -26.1900  -22.0910   20.0960 C   0  0  0  0  0  1  0  0  0  0  0  0
  -29.0960  -25.8790   21.6580 C   0  0  0  0  0  2  0  0  0  0  0  0
  -29.7540  -26.3860   20.3660 C   0  0  0  0  0  2  0  0  0  0  0  0
  -29.6020  -27.7980   20.2640 O   0  0  0  0  0  0  0  0  0  0  0  0
  -24.8330  -31.9320   23.5100 C   0  0  0  0  0  0  0  0  0  0  0  0
  -28.3150  -28.2810   20.2590 C   0  0  0  0  0  0  0  0  0  0  0  0
  -23.9550  -30.5370   21.6630 C   0  0  0  0  0  3  0  0  0  0  0  0
  -25.7110  -29.3700   20.2320 C   0  0  0  0  0  0  0  0  0  0  0  0
  -26.3980  -31.2870   21.6840 C   0  0  0  0  0  2  0  0  0  0  0  0
  -26.7330  -30.0120   20.9430 C   0  0  0  0  0  0  0  0  0  0  0  0
  -28.0360  -29.4760   20.9530 C   0  0  0  0  0  3  0  0  0  0  0  0
  -27.2760  -27.6370   19.5500 C   0  0  0  0  0  3  0  0  0  0  0  0
  -25.9750  -28.1770   19.5360 C   0  0  0  0  0  3  0  0  0  0  0  0
  -24.3490  -30.0240   20.2520 C   0  0  0  0  0  2  0  0  0  0  0  0
  -25.0750  -31.2620   22.3470 N   0  0  0  0  0  0  0  0  0  0  0  0
  -23.6930  -31.9910   23.9900 O   0  0  0  0  0  0  0  0  0  0  0  0
  -23.4090  -29.3450   22.4780 C   0  0  0  0  0  0  0  0  0  0  0  0
  -22.1300  -29.0050   22.2550 N   0  0  0  0  0  0  0  0  0  0  0  0
  -24.1340  -28.7310   23.2640 O   0  0  0  0  0  0  0  0  0  0  0  0
  -21.5960  -29.5660   21.6030 H   0  0  0  0  0  0  0  0  0  0  0  0
  -18.9180  -27.3680   22.4680 C   0  0  0  0  0  0  0  0  0  0  0  0
  -21.4160  -27.8930   22.8800 C   0  0  0  0  0  3  0  0  0  0  0  0
  -21.7090  -26.5610   22.1510 C   0  0  0  0  0  2  0  0  0  0  0  0
  -20.6870  -26.2320   21.0580 C   0  0  0  0  0  2  0  0  0  0  0  0
  -19.2790  -26.1370   21.6540 C   0  0  0  0  0  2  0  0  0  0  0  0
  -19.9220  -28.2010   23.0310 C   0  0  0  0  0  0  0  0  0  0  0  0
  -19.5330  -29.3540   23.7470 C   0  0  0  0  0  3  0  0  0  0  0  0
  -18.1740  -29.6770   23.9080 C   0  0  0  0  0  3  0  0  0  0  0  0
  -17.1840  -28.8410   23.3630 C   0  0  0  0  0  3  0  0  0  0  0  0
  -17.5570  -27.6870   22.6500 C   0  0  0  0  0  3  0  0  0  0  0  0
  -25.9710  -32.6770   24.2770 C   0  0  0  0  0  3  0  0  0  0  0  0
  -25.5140  -34.0520   24.5180 N   0  0  0  0  0  0  0  0  0  0  0  0
  -25.8700  -35.1110   23.7780 C   0  0  0  0  0  0  0  0  0  0  0  0
  -26.6860  -35.0400   22.8550 O   0  0  0  0  0  0  0  0  0  0  0  0
  -24.8010  -34.1740   25.2210 H   0  0  0  0  0  0  0  0  0  0  0  0
  -24.0810  -36.7520   23.1240 C   0  0  0  0  0  1  0  0  0  0  0  0
  -25.2180  -36.4650   24.1170 C   0  0  0  0  0  3  0  0  0  0  0  0
  -27.1490  -37.5200   25.2040 C   0  0  0  0  0  1  0  0  0  0  0  0
  -26.1730  -37.5940   24.1220 N   0  0  0  0  0  0  0  0  0  0  0  0
  -25.6800  -38.4800   24.1980 H   0  0  0  0  0  0  0  0  0  0  0  0
  -26.3700  -31.9750   25.6330 C   0  0  1  0  0  0  0  0  0  0  0  0
  -25.1630  -31.6450   26.5400 C   0  0  0  0  0  1  0  0  0  0  0  0
  -27.1320  -30.6570   25.3580 C   0  0  0  0  0  1  0  0  0  0  0  0
  -27.3320  -32.8860   26.4330 C   0  0  0  0  0  1  0  0  0  0  0  0
  -28.0720  -20.1050   21.4190 C   0  0  0  0  0  2  0  0  0  0  0  0
  -28.4680  -19.4300   20.0890 C   0  0  0  0  0  2  0  0  0  0  0  0
  -29.9580  -19.0390   19.9400 C   0  0  0  0  0  2  0  0  0  0  0  0
  -30.2750  -18.6710   17.4150 C   0  0  0  0  0  1  0  0  0  0  0  0
  -30.1390  -18.0170   18.8000 C   0  0  0  0  0  3  0  0  0  0  0  0
  -31.2870  -16.1750   20.0810 C   0  0  0  0  0  3  0  0  0  0  0  0
  -31.2330  -16.9850   19.0110 C   0  0  0  0  0  3  0  0  0  0  0  0
  -32.1710  -15.0190   20.0820 C   0  0  0  0  0  0  0  0  0  0  0  0
  -31.9630  -12.5640   19.9300 C   0  0  0  0  0  2  0  0  0  0  0  0
  -31.1140  -12.2240   18.6840 C   0  0  0  0  0  2  0  0  0  0  0  0
  -29.6050  -12.2770   19.0000 C   0  0  0  0  0  2  0  0  0  0  0  0
  -29.1920  -13.5680   19.7560 C   0  0  0  0  0  3  0  0  0  0  0  0
  -30.1420  -13.7960   20.9520 C   0  0  0  0  0  2  0  0  0  0  0  0
  -31.5220  -13.8710   20.4320 N   0  0  0  0  0  0  0  0  0  0  0  0
  -33.3280  -15.0360   19.6500 O   0  0  0  0  0  0  0  0  0  0  0  0
  -26.9010  -14.5670   20.3800 C   0  0  0  0  0  0  0  0  0  0  0  0
  -25.7040  -13.9820   20.6960 C   0  0  0  0  0  0  0  0  0  0  0  0
  -25.9360  -12.5730   20.6540 C   0  0  0  0  0  0  0  0  0  0  0  0
  -27.7940  -13.5250   20.1750 N   0  0  0  0  0  0  0  0  0  0  0  0
  -27.2110  -12.3200   20.3880 N   0  0  0  0  0  0  0  0  0  0  0  0
  -25.0060  -11.4450   20.7900 C   0  0  0  0  0  0  0  0  0  0  0  0
  -25.2560  -10.3790   21.6810 C   0  0  0  0  0  3  0  0  0  0  0  0
  -24.3360   -9.3180   21.8030 C   0  0  0  0  0  3  0  0  0  0  0  0
  -23.1500   -9.3140   21.0330 C   0  0  0  0  0  0  0  0  0  0  0  0
  -22.9160  -10.3650   20.1290 C   0  0  0  0  0  3  0  0  0  0  0  0
  -23.8360  -11.4190   20.0030 C   0  0  0  0  0  3  0  0  0  0  0  0
  -22.2140   -8.3080   21.0660 O   0  0  0  0  0  0  0  0  0  0  0  0
  -22.0190   -7.5440   22.1890 C   0  0  0  0  0  0  0  0  0  0  0  0
  -21.6910   -8.1210   23.4350 C   0  0  0  0  0  3  0  0  0  0  0  0
  -21.4320   -7.2950   24.5470 C   0  0  0  0  0  3  0  0  0  0  0  0
  -21.4910   -5.8960   24.4140 C   0  0  0  0  0  0  0  0  0  0  0  0
  -21.8150   -5.3180   23.1740 C   0  0  0  0  0  3  0  0  0  0  0  0
  -22.0750   -6.1410   22.0630 C   0  0  0  0  0  0  0  0  0  0  0  0
  -22.3640   -5.5800   20.8640 F   0  0  0  0  0  0  0  0  0  0  0  0
  -21.2360   -5.1010   25.4800 F   0  0  0  0  0  0  0  0  0  0  0  0
  -24.3970  -14.6830   20.9310 C   0  0  0  0  0  0  0  0  0  0  0  0
  -23.5340  -14.1070   21.7590 N   0  0  0  0  0  0  0  0  0  0  0  0
  -24.1530  -15.7740   20.4170 O   0  0  0  0  0  0  0  0  0  0  0  0
  -23.7390  -13.2230   22.2020 H   0  0  0  0  0  0  0  0  0  0  0  0
  -22.6550  -14.5630   21.9650 H   0  0  0  0  0  0  0  0  0  0  0  0
  -27.3030  -15.8890   20.2340 N   0  0  0  0  0  0  0  0  0  0  0  0
  -26.6730  -16.6730   20.3510 H   0  0  0  0  0  0  0  0  0  0  0  0
  -28.2420  -16.1640   19.9790 H   0  0  0  0  0  0  0  0  0  0  0  0
  2  1  1  0
  3  4  1  0
  4  8  1  0
  4  1  2  0
  5  2  2  0
  6  3  2  0
  6  5  1  0
  7  6  1  0
  9  8  1  0
 10  9  1  0
 11 22  2  0
 12 10  1  0
 12 17  1  0
 13 21  1  0
 13 23  1  0
 14 20  1  0
 14 16  1  0
 15 21  1  0
 16 17  2  0
 16 15  1  0
 18 12  2  0
 19 18  1  0
 19 14  2  0
 20 13  1  0
 21 11  1  0
 23 25  2  0
 24 23  1  0
 26 24  1  0
 27 36  2  0
 27 32  1  0
 28 24  1  0
 28 32  1  0
 29 28  1  0
 30 31  1  0
 30 29  1  0
 31 27  1  0
 32 33  2  0
 33 34  1  0
 35 34  2  0
 36 35  1  0
 37 11  1  0
 37 38  1  0
 37 47  1  0
 38 41  1  0
 39 43  1  0
 39 38  1  0
 40 39  2  0
 43 42  1  0
 43 45  1  0
 45 46  1  0
 45 44  1  0
 47 50  1  1
 47 48  1  0
 49 47  1  0
 51  5  1  0
 52 51  1  0
 53 52  1  0
 55 54  1  0
 55 57  1  0
 55 53  1  0
 56 58  1  0
 57 56  2  0
 58 64  1  0
 59 64  1  0
 60 61  1  0
 60 59  1  0
 62 61  1  0
 62 69  1  0
 62 63  1  0
 64 63  1  0
 65 58  2  0
 66 67  2  0
 67 86  1  0
 68 67  1  0
 68 71  1  0
 69 66  1  0
 69 70  1  0
 70 68  2  0
 71 72  1  0
 72 73  2  0
 74 77  1  0
 74 73  1  0
 75 74  2  0
 76 75  1  0
 76 71  2  0
 77 78  1  0
 78 79  1  0
 79 80  2  0
 81 80  1  0
 81 85  1  0
 82 81  2  0
 83 78  2  0
 83 82  1  0
 84 83  1  0
 86 87  1  0
 87 90  1  0
 87 89  1  0
 88 86  2  0
 91 92  1  0
 91 66  1  0
 93 91  1  0
M  ISO  4   9 101  10 101  56 100  58 100
M  END
>  <TORSDO>  (10) 
F 23

>  <SCORE>  (10) 
-8.126

>  <name>  (10) 
9

>  <ligand_id>  (10) 
9

>  <original_smiles>  (10) 
[H]C(C(=O)N1C([H])([H])C([H])([H])C([H])([H])C([H])(n2nc(-c3c([H])c([H])c(Oc4c([H])c([H])c(F)c([H])c4F)c([H])c3[H])c(C(=O)N([H])[H])c2N([H])[H])C1([H])[H])=C([H])C([H])(C([H])([H])[H])C([H])([H])C([H])([H])C([H])([H])c1c([H])c([H])c(C([H])([H])C([H])([H])Oc2c([H])c([H])c3c(c2[H])C([H])([H])N(C(=O)C([H])(N([H])C(=O)C([H])(N([H])C([H])([H])[H])C([H])([H])[H])C(C([H])([H])[H])(C([H])([H])[H])C([H])([H])[H])C([H])(C(=O)N([H])C2([H])c4c([H])c([H])c([H])c([H])c4C([H])([H])C([H])([H])C2([H])[H])C3([H])[H])c([H])c1C([H])([H])[H]

>  <smiles>  (10) 
[H]C(C(=O)N1C([H])([H])C([H])([H])C([H])([H])C([H])(n2nc(-c3c([H])c([H])c(Oc4c([H])c([H])c(F)c([H])c4F)c([H])c3[H])c(C(=O)N([H])[H])c2N([H])[H])C1([H])[H])=C([H])C([H])(C([H])([H])[H])C([H])([H])C([H])([H])C([H])([H])c1c([H])c([H])c(C([H])([H])C([H])([H])Oc2c([H])c([H])c3c(c2[H])C([H])([H])N(C(=O)C([H])(N([H])C(=O)C([H])(N([H])C([H])([H])[H])C([H])([H])[H])C(C([H])([H])[H])(C([H])([H])[H])C([H])([H])[H])C([H])(C(=O)N([H])C2([H])c4c([H])c([H])c([H])c([H])c4C([H])([H])C([H])([H])C2([H])[H])C3([H])[H])c([H])c1C([H])([H])[H]

$$$$
10:0:0
     RDKit          3D

100103  0  0  1  0  0  0  0  0999 V2000
  -16.6980  -26.9300   22.3880 C   0  0  0  0  0  2  0  0  0  0  0  0
  -18.2210  -27.8750   22.5480 C   0  0  0  0  0  1  0  0  0  0  0  0
  -17.9990  -24.2300   21.6690 C   0  0  0  0  0  3  0  0  0  0  0  0
  -16.6970  -25.2260   21.9060 C   0  0  0  0  0  3  0  0  0  0  0  0
  -20.3250  -26.0290   21.9480 C   0  0  0  0  0  1  0  0  0  0  0  0
  -19.6160  -24.5160   21.6770 C   0  0  0  0  0  0  0  0  0  0  0  0
  -20.3820  -23.4480   21.3500 F   0  0  0  0  0  0  0  0  0  0  0  0
  -15.5720  -24.4470   21.0240 C   0  0  0  0  0  2  0  0  0  0  0  0
  -15.3520  -24.4890   19.3230 C   0  0  0  0  0  3  0  0  0  0  0  0
  -16.3110  -24.0700   18.0030 C   0  0  0  0  0  3  0  0  0  0  0  0
  -15.9630  -24.4780   16.3990 C   0  0  0  0  0  3  0  0  0  0  0  0
  -16.7910  -23.9640   15.0220 C   0  0  0  0  0  3  0  0  0  0  0  0
  -16.6160  -24.6100   13.5850 N   0  0  0  0  0  4  0  0  0  0  0  0
  -16.9530  -25.5570   13.6510 H   0  0  0  0  0  0  0  0  0  0  0  0
  -15.6250  -24.6780   13.4160 H   0  0  0  0  0  0  0  0  0  0  0  0
  -17.2480  -23.9880   12.2740 C   0  0  0  0  0  3  0  0  0  0  0  0
  -17.2950  -24.7600   10.7740 C   0  0  0  0  0  3  0  0  0  0  0  0
  -17.8100  -24.0570    9.3320 C   0  0  0  0  0  2  0  0  0  0  0  0
  -18.0320  -24.8250    7.8470 C   0  0  0  0  0  2  0  0  0  0  0  0
  -18.0600  -24.3380    5.0880 C   0  0  0  0  0  0  0  0  0  0  0  0
  -16.5440  -24.7020    3.0960 C   0  0  0  0  0  2  0  0  0  0  0  0
  -15.5620  -25.8320    3.5120 C   0  0  0  0  0  2  0  0  0  0  0  0
  -14.4220  -25.3020    4.4120 C   0  0  0  0  0  2  0  0  0  0  0  0
  -14.9540  -24.3620    5.5190 C   0  0  0  0  0  3  0  0  0  0  0  0
  -15.8460  -23.2690    4.8940 C   0  0  0  0  0  2  0  0  0  0  0  0
  -16.9800  -23.9790    4.3210 N   0  0  0  0  0  0  0  0  0  0  0  0
  -18.9950  -24.9480    4.5330 O   0  0  0  0  0  0  0  0  0  0  0  0
  -17.8810  -24.0820    6.4790 N   0  0  0  0  0  0  0  0  0  0  0  0
  -17.1770  -23.3620    6.5660 H   0  0  0  0  0  0  0  0  0  0  0  0
  -13.7750  -23.7390    7.6990 C   0  0  0  0  0  0  0  0  0  0  0  0
  -12.6060  -23.0780    7.9420 C   0  0  0  0  0  0  0  0  0  0  0  0
  -12.0820  -22.7360    6.6600 C   0  0  0  0  0  0  0  0  0  0  0  0
  -13.9140  -23.7620    6.3220 N   0  0  0  0  0  0  0  0  0  0  0  0
  -12.9150  -23.1010    5.6980 N   0  0  0  0  0  0  0  0  0  0  0  0
  -10.8020  -22.1430    6.2810 C   0  0  0  0  0  0  0  0  0  0  0  0
  -10.7350  -21.0150    5.4360 C   0  0  0  0  0  3  0  0  0  0  0  0
   -9.4850  -20.4560    5.0970 C   0  0  0  0  0  3  0  0  0  0  0  0
   -8.2940  -21.0260    5.6050 C   0  0  0  0  0  0  0  0  0  0  0  0
   -8.3680  -22.1650    6.4260 C   0  0  0  0  0  3  0  0  0  0  0  0
   -9.6120  -22.7240    6.7580 C   0  0  0  0  0  3  0  0  0  0  0  0
   -7.0350  -20.5660    5.3090 O   0  0  0  0  0  0  0  0  0  0  0  0
   -6.8120  -19.2570    4.9700 C   0  0  0  0  0  0  0  0  0  0  0  0
   -7.1820  -18.1930    5.8210 C   0  0  0  0  0  3  0  0  0  0  0  0
   -6.8720  -16.8660    5.4640 C   0  0  0  0  0  3  0  0  0  0  0  0
   -6.1850  -16.6020    4.2630 C   0  0  0  0  0  0  0  0  0  0  0  0
   -5.8140  -17.6610    3.4160 C   0  0  0  0  0  3  0  0  0  0  0  0
   -6.1240  -18.9860    3.7710 C   0  0  0  0  0  0  0  0  0  0  0  0
   -5.7460  -20.0050    2.9630 F   0  0  0  0  0  0  0  0  0  0  0  0
   -5.8780  -15.3280    3.9230 F   0  0  0  0  0  0  0  0  0  0  0  0
  -11.9640  -22.8700    9.2810 C   0  0  0  0  0  0  0  0  0  0  0  0
  -11.2220  -21.7790    9.4390 N   0  0  0  0  0  0  0  0  0  0  0  0
  -12.1570  -23.6500   10.2120 O   0  0  0  0  0  0  0  0  0  0  0  0
  -11.0830  -21.1280    8.6810 H   0  0  0  0  0  0  0  0  0  0  0  0
  -10.7890  -21.5930   10.3330 H   0  0  0  0  0  0  0  0  0  0  0  0
  -14.7050  -24.3430    8.5290 N   0  0  0  0  0  0  0  0  0  0  0  0
  -14.5760  -24.3900    9.5320 H   0  0  0  0  0  0  0  0  0  0  0  0
  -15.5160  -24.8530    8.2050 H   0  0  0  0  0  0  0  0  0  0  0  0
  -21.6240  -25.6150   20.4640 C   0  0  0  0  0 15  0  0  0  0  0  0
  -21.9070  -25.2980   18.3110 C   0  0  0  0  0 15  0  0  0  0  0  0
  -23.0130  -25.1060   16.7410 O   0  0  0  0  0  1  0  0  0  0  0  0
  -27.4620  -24.0950   18.6310 C   0  0  0  0  0  0  0  0  0  0  0  0
  -23.6020  -25.7340   15.5110 C   0  0  0  0  0  3  0  0  0  0  0  0
  -26.6550  -26.4190   18.4750 C   0  0  0  0  0  3  0  0  0  0  0  0
  -25.5810  -27.1570   16.2880 C   0  0  0  0  0  3  0  0  0  0  0  0
  -27.0820  -25.1360   16.3660 C   0  0  0  0  0  2  0  0  0  0  0  0
  -25.8770  -25.8710   15.8050 C   0  0  0  0  0  3  0  0  0  0  0  0
  -24.8620  -25.2040   15.1110 C   0  0  0  0  0  2  0  0  0  0  0  0
  -23.4400  -27.0980   15.2010 C   0  0  0  0  0  2  0  0  0  0  0  0
  -24.4390  -27.8530   15.8240 C   0  0  0  0  0  2  0  0  0  0  0  0
  -26.4040  -27.5940   17.4620 C   0  0  0  0  0  2  0  0  0  0  0  0
  -27.0950  -25.1500   17.8410 N   0  0  0  0  0  0  0  0  0  0  0  0
  -27.4250  -24.1570   19.8740 O   0  0  0  0  0  0  0  0  0  0  0  0
  -25.3960  -26.1680   19.2160 C   0  0  0  0  0  0  0  0  0  0  0  0
  -24.9250  -27.3070   19.7160 N   0  0  0  0  0  0  0  0  0  0  0  0
  -24.9310  -25.0370   19.2310 O   0  0  0  0  0  0  0  0  0  0  0  0
  -25.5540  -28.0930   19.6530 H   0  0  0  0  0  0  0  0  0  0  0  0
  -21.8690  -28.4960   21.6800 C   0  0  0  0  0  2  0  0  0  0  0  0
  -23.6250  -27.6710   20.0610 C   0  0  0  0  0  3  0  0  0  0  0  0
  -22.3620  -27.5660   19.2360 C   0  0  0  0  0  2  0  0  0  0  0  0
  -21.6510  -28.8690   19.2960 C   0  0  0  0  0  2  0  0  0  0  0  0
  -20.9650  -28.9280   20.5660 C   0  0  0  0  0  2  0  0  0  0  0  0
  -23.5260  -28.3950   21.2380 C   0  0  0  0  0  3  0  0  0  0  0  0
  -24.7630  -28.3850   22.3520 C   0  0  0  0  0  2  0  0  0  0  0  0
  -24.6690  -28.5250   23.9430 C   0  0  0  0  0  3  0  0  0  0  0  0
  -23.3450  -28.6120   24.8250 C   0  0  0  0  0  3  0  0  0  0  0  0
  -21.8240  -28.5590   24.1630 C   0  0  0  0  0  1  0  0  0  0  0  0
  -28.0010  -22.7860   18.0050 C   0  0  0  0  0  3  0  0  0  0  0  0
  -29.1570  -22.4100   18.8190 N   0  0  0  0  0  0  0  0  0  0  0  0
  -30.4140  -22.7660   18.5340 C   0  0  0  0  0  0  0  0  0  0  0  0
  -30.7190  -23.3640   17.4980 O   0  0  0  0  0  0  0  0  0  0  0  0
  -28.9670  -21.9570   19.7000 H   0  0  0  0  0  0  0  0  0  0  0  0
  -31.8870  -23.6290   20.3800 C   0  0  0  0  0  1  0  0  0  0  0  0
  -31.5030  -22.3900   19.5530 C   0  0  0  0  0  3  0  0  0  0  0  0
  -32.4770  -20.5010   18.3240 C   0  0  0  0  0  1  0  0  0  0  0  0
  -32.7110  -21.8120   18.9250 N   0  0  0  0  0  0  0  0  0  0  0  0
  -33.4600  -21.7190   19.6070 H   0  0  0  0  0  0  0  0  0  0  0  0
  -26.9510  -21.6160   17.9340 C   0  0  1  0  0  0  0  0  0  0  0  0
  -26.2710  -21.2880   19.2830 C   0  0  0  0  0  1  0  0  0  0  0  0
  -25.8370  -21.9440   16.9140 C   0  0  0  0  0  1  0  0  0  0  0  0
  -27.6620  -20.3400   17.4280 C   0  0  0  0  0  1  0  0  0  0  0  0
  1  2  1  0
  3  6  2  0
  3  4  1  0
  4  8  1  0
  4  1  1  0
  6  5  1  0
  7  6  1  0
  9  8  1  0
 10  9  2  0
 11 10  1  0
 12 11  2  0
 13 14  1  0
 13 12  1  0
 15 13  1  0
 16 13  1  0
 17 16  2  0
 18 17  1  0
 19 18  1  0
 20 28  1  0
 21 22  1  0
 21 26  1  0
 22 23  1  0
 24 23  1  0
 24 33  1  0
 25 24  1  0
 26 25  1  0
 26 20  1  0
 27 20  2  0
 28 29  1  0
 28 19  1  0
 30 31  2  0
 30 55  1  0
 31 50  1  0
 32 31  1  0
 33 30  1  0
 34 33  1  0
 34 32  2  0
 35 32  1  0
 35 40  1  0
 36 35  2  0
 37 36  1  0
 37 38  2  0
 38 39  1  0
 39 40  2  0
 41 38  1  0
 42 41  1  0
 42 43  1  0
 44 43  2  0
 45 44  1  0
 46 47  1  0
 46 45  2  0
 47 42  2  0
 48 47  1  0
 49 45  1  0
 50 51  1  0
 50 52  2  0
 51 54  1  0
 53 51  1  0
 55 56  1  0
 57 55  1  0
 61 72  2  0
 62 60  1  0
 63 73  1  0
 64 69  1  0
 64 70  1  0
 65 71  1  0
 66 67  1  0
 66 64  1  0
 66 65  1  0
 67 62  1  0
 68 62  1  0
 68 69  1  0
 70 63  1  0
 71 63  1  0
 71 61  1  0
 73 75  2  0
 73 74  1  0
 76 74  1  0
 78 74  1  0
 78 82  1  0
 79 80  1  0
 79 78  1  0
 80 81  1  0
 81 77  1  0
 82 77  1  0
 82 83  1  0
 83 84  1  0
 84 85  2  0
 86 85  1  0
 87 61  1  0
 87 88  1  0
 88 91  1  0
 89 88  1  0
 89 93  1  0
 90 89  2  0
 93 92  1  0
 94 95  1  0
 95 93  1  0
 95 96  1  0
 97 87  1  0
 97 98  1  1
 99 97  1  0
100 97  1  0
M  ISO  4  20 100  28 100  59 101  60 101
M  END
>  <TORSDO>  (11) 
F 28

>  <SCORE>  (11) 
-3.157

>  <name>  (11) 
10

>  <ligand_id>  (11) 
10

>  <original_smiles>  (11) 
[H]c1c([H])c([H])c2c(c1[H])C([H])([H])C([H])([H])C([H])([H])C2([H])N([H])C(=O)C1([H])N(C(=O)C([H])(N([H])C(=O)C([H])(N([H])C([H])([H])[H])C([H])([H])[H])C(C([H])([H])[H])(C([H])([H])[H])C([H])([H])[H])C([H])([H])c2c([H])c(OC([H])([H])C([H])([H])c3c([H])c([H])c(C([H])([H])C([H])([H])C([H])([H])C([H])([H])C([H])([H])[N+]([H])([H])C([H])([H])C([H])([H])C([H])([H])C([H])([H])N([H])C(=O)N4C([H])([H])C([H])([H])C([H])([H])C([H])(n5nc(-c6c([H])c([H])c(Oc7c([H])c([H])c(F)c([H])c7F)c([H])c6[H])c(C(=O)N([H])[H])c5N([H])[H])C4([H])[H])c([H])c3F)c([H])c([H])c2C1([H])[H]

>  <smiles>  (11) 
[H]c1c([H])c([H])c2c(c1[H])C([H])([H])C([H])([H])C([H])([H])C2([H])N([H])C(=O)C1([H])N(C(=O)C([H])(N([H])C(=O)C([H])(N([H])C([H])([H])[H])C([H])([H])[H])C(C([H])([H])[H])(C([H])([H])[H])C([H])([H])[H])C([H])([H])c2c([H])c(OC([H])([H])C([H])([H])c3c([H])c([H])c(C([H])([H])C([H])([H])C([H])([H])C([H])([H])C([H])([H])[N+]([H])([H])C([H])([H])C([H])([H])C([H])([H])C([H])([H])N([H])C(=O)N4C([H])([H])C([H])([H])C([H])([H])C([H])(n5nc(-c6c([H])c([H])c(Oc7c([H])c([H])c(F)c([H])c7F)c([H])c6[H])c(C(=O)N([H])[H])c5N([H])[H])C4([H])[H])c([H])c3F)c([H])c([H])c2C1([H])[H]

$$$$
11:0:0
     RDKit          3D

 92 96  0  0  1  0  0  0  0  0999 V2000
  -23.1590  -24.3670   21.7760 C   0  0  0  0  0  2  0  0  0  0  0  0
  -21.7980  -23.5230   21.5710 C   0  0  0  0  0  2  0  0  0  0  0  0
  -20.3220  -24.0890   21.1000 C   0  0  0  0  0  2  0  0  0  0  0  0
  -19.7410  -24.8500   19.6900 C   0  0  0  0  0  2  0  0  0  0  0  0
  -21.2370  -26.1080   17.5720 C   0  0  0  0  0  1  0  0  0  0  0  0
  -23.3060  -26.3260   17.5630 C   0  0  0  0  0  1  0  0  0  0  0  0
  -24.8800  -26.7580   18.4400 O   0  0  0  0  0  0  0  0  0  0  0  0
  -24.2570  -30.6580   22.0770 C   0  0  0  0  0  0  0  0  0  0  0  0
  -26.2700  -27.1450   18.1490 C   0  0  0  0  0  3  0  0  0  0  0  0
  -23.4020  -30.0020   19.8950 C   0  0  0  0  0  3  0  0  0  0  0  0
  -25.0900  -29.3880   18.0420 C   0  0  0  0  0  3  0  0  0  0  0  0
  -25.9040  -30.2320   20.2460 C   0  0  0  0  0  2  0  0  0  0  0  0
  -26.0030  -29.2610   19.0930 C   0  0  0  0  0  3  0  0  0  0  0  0
  -26.8110  -28.1110   19.0610 C   0  0  0  0  0  2  0  0  0  0  0  0
  -26.2470  -27.5980   16.8570 C   0  0  0  0  0  2  0  0  0  0  0  0
  -25.3550  -28.6820   16.8290 C   0  0  0  0  0  2  0  0  0  0  0  0
  -23.7920  -30.0800   18.3730 C   0  0  0  0  0  2  0  0  0  0  0  0
  -24.5340  -30.3480   20.7830 N   0  0  0  0  0  0  0  0  0  0  0  0
  -23.0890  -30.7410   22.4910 O   0  0  0  0  0  0  0  0  0  0  0  0
  -22.8590  -28.6470   20.4070 C   0  0  0  0  0  0  0  0  0  0  0  0
  -21.6660  -28.6390   20.9170 N   0  0  0  0  0  0  0  0  0  0  0  0
  -23.5190  -27.6170   20.4600 O   0  0  0  0  0  0  0  0  0  0  0  0
  -21.1590  -29.5090   20.9910 H   0  0  0  0  0  0  0  0  0  0  0  0
  -18.0560  -28.3840   21.4040 C   0  0  0  0  0  0  0  0  0  0  0  0
  -20.8770  -27.4250   21.0540 C   0  0  0  0  0  2  0  0  0  0  0  0
  -20.5400  -26.2320   19.3820 C   0  0  0  0  0  2  0  0  0  0  0  0
  -18.4770  -26.5200   18.6800 C   0  0  0  0  0 15  0  0  0  0  0  0
  -17.4130  -27.7080   19.8630 C   0  0  0  0  0  1  0  0  0  0  0  0
  -19.5340  -28.2930   21.8680 C   0  0  0  0  0  0  0  0  0  0  0  0
  -19.8390  -28.7680   23.1830 C   0  0  0  0  0  3  0  0  0  0  0  0
  -18.8710  -29.1880   24.1160 C   0  0  0  0  0  3  0  0  0  0  0  0
  -17.5130  -29.0920   23.7860 C   0  0  0  0  0  3  0  0  0  0  0  0
  -17.1280  -28.6850   22.4780 C   0  0  0  0  0  3  0  0  0  0  0  0
  -25.3990  -30.9440   23.0810 C   0  0  0  0  0  3  0  0  0  0  0  0
  -25.5580  -29.8240   24.1780 C   0  0  1  0  0  0  0  0  0  0  0  0
  -24.2400  -29.4510   24.8960 C   0  0  0  0  0  1  0  0  0  0  0  0
  -26.1410  -28.5280   23.5680 C   0  0  0  0  0  1  0  0  0  0  0  0
  -26.5690  -30.3000   25.2460 C   0  0  0  0  0  1  0  0  0  0  0  0
  -25.0870  -32.2370   23.6950 N   0  0  0  0  0  0  0  0  0  0  0  0
  -25.6160  -33.4010   23.3020 C   0  0  0  0  0  0  0  0  0  0  0  0
  -26.4940  -33.4800   22.4400 O   0  0  0  0  0  0  0  0  0  0  0  0
  -24.3430  -32.2520   24.3770 H   0  0  0  0  0  0  0  0  0  0  0  0
  -24.1190  -35.4060   23.0380 C   0  0  0  0  0  1  0  0  0  0  0  0
  -25.0910  -34.6800   23.9810 C   0  0  0  0  0  3  0  0  0  0  0  0
  -26.9920  -35.0780   25.4810 C   0  0  0  0  0  1  0  0  0  0  0  0
  -26.1680  -35.6040   24.3960 N   0  0  0  0  0  0  0  0  0  0  0  0
  -25.7810  -36.4950   24.6960 H   0  0  0  0  0  0  0  0  0  0  0  0
  -24.5630  -23.6870   21.3900 C   0  0  0  0  0  2  0  0  0  0  0  0
  -25.6840  -24.5350   20.6110 C   0  0  0  0  0  3  0  0  0  0  0  0
  -26.7580  -23.7780   19.6840 C   0  0  0  0  0  3  0  0  0  0  0  0
  -28.0700  -24.5590   19.1780 C   0  0  0  0  0  2  0  0  0  0  0  0
  -29.4040  -23.7560   18.7600 C   0  0  0  0  0  3  0  0  0  0  0  0
  -30.8210  -24.1490   19.4250 C   0  0  0  0  0  3  0  0  0  0  0  0
  -32.1240  -23.2010   19.3230 C   0  0  0  0  0  2  0  0  0  0  0  0
  -33.7320  -21.8080   20.9100 C   0  0  0  0  0  0  0  0  0  0  0  0
  -34.7650  -19.5470   21.2010 C   0  0  0  0  0  2  0  0  0  0  0  0
  -34.6270  -18.8160   19.8430 C   0  0  0  0  0  2  0  0  0  0  0  0
  -33.2230  -18.1930   19.6640 C   0  0  0  0  0  2  0  0  0  0  0  0
  -32.0900  -19.1730   20.0580 C   0  0  0  0  0  3  0  0  0  0  0  0
  -32.3750  -19.7910   21.4420 C   0  0  0  0  0  2  0  0  0  0  0  0
  -33.6480  -20.5070   21.3250 N   0  0  0  0  0  0  0  0  0  0  0  0
  -34.8370  -22.3630   20.7870 O   0  0  0  0  0  0  0  0  0  0  0  0
  -32.5190  -22.3360   20.4970 N   0  0  0  0  0  0  0  0  0  0  0  0
  -31.7480  -21.7800   20.8360 H   0  0  0  0  0  0  0  0  0  0  0  0
  -29.5310  -19.1410   19.9070 C   0  0  0  0  0  0  0  0  0  0  0  0
  -28.6340  -18.1090   19.8720 C   0  0  0  0  0  0  0  0  0  0  0  0
  -29.4090  -16.9120   19.9680 C   0  0  0  0  0  0  0  0  0  0  0  0
  -30.7780  -18.5500   20.0210 N   0  0  0  0  0  0  0  0  0  0  0  0
  -30.6940  -17.2010   20.1100 N   0  0  0  0  0  0  0  0  0  0  0  0
  -29.0100  -15.5050   19.8710 C   0  0  0  0  0  0  0  0  0  0  0  0
  -29.1560  -14.6200   20.9630 C   0  0  0  0  0  3  0  0  0  0  0  0
  -28.7490  -13.2740   20.8490 C   0  0  0  0  0  3  0  0  0  0  0  0
  -28.1890  -12.8020   19.6380 C   0  0  0  0  0  0  0  0  0  0  0  0
  -28.0700  -13.6810   18.5480 C   0  0  0  0  0  3  0  0  0  0  0  0
  -28.4800  -15.0200   18.6600 C   0  0  0  0  0  3  0  0  0  0  0  0
  -27.7910  -11.5040   19.4270 O   0  0  0  0  0  0  0  0  0  0  0  0
  -27.1720  -10.7730   20.4100 C   0  0  0  0  0  0  0  0  0  0  0  0
  -25.9610  -11.1950   21.0010 C   0  0  0  0  0  3  0  0  0  0  0  0
  -25.3240  -10.3790   21.9560 C   0  0  0  0  0  3  0  0  0  0  0  0
  -25.8890   -9.1400   22.3150 C   0  0  0  0  0  0  0  0  0  0  0  0
  -27.0950   -8.7180   21.7260 C   0  0  0  0  0  3  0  0  0  0  0  0
  -27.7320   -9.5330   20.7730 C   0  0  0  0  0  0  0  0  0  0  0  0
  -28.8810   -9.1100   20.1910 F   0  0  0  0  0  0  0  0  0  0  0  0
  -25.2740   -8.3530   23.2280 F   0  0  0  0  0  0  0  0  0  0  0  0
  -27.1510  -18.2190   19.6680 C   0  0  0  0  0  0  0  0  0  0  0  0
  -26.3860  -17.2970   20.2410 N   0  0  0  0  0  0  0  0  0  0  0  0
  -26.6590  -19.1540   19.0370 O   0  0  0  0  0  0  0  0  0  0  0  0
  -26.7900  -16.5410   20.7730 H   0  0  0  0  0  0  0  0  0  0  0  0
  -25.3820  -17.3470   20.1430 H   0  0  0  0  0  0  0  0  0  0  0  0
  -29.3960  -20.5240   19.8390 N   0  0  0  0  0  0  0  0  0  0  0  0
  -28.4980  -20.9830   19.7290 H   0  0  0  0  0  0  0  0  0  0  0  0
  -30.1700  -21.1750   19.8800 H   0  0  0  0  0  0  0  0  0  0  0  0
  2  1  1  0
  3  2  1  0
  4  3  1  0
  5 26  1  0
  6  7  1  0
  8 19  2  0
  9  7  1  0
  9 14  1  0
 10 20  1  0
 10 18  1  0
 11 16  1  0
 11 17  1  0
 11 13  1  0
 12 18  1  0
 13 14  1  0
 13 12  1  0
 15  9  1  0
 16 15  1  0
 17 10  1  0
 18  8  1  0
 20 22  2  0
 20 21  1  0
 21 23  1  0
 21 25  1  0
 24 29  2  0
 24 33  1  0
 25 29  1  0
 26  4  1  0
 28 24  1  0
 29 30  1  0
 30 31  2  0
 32 31  1  0
 33 32  2  0
 34  8  1  0
 34 39  1  0
 34 35  1  0
 35 36  1  1
 35 38  1  0
 37 35  1  0
 39 42  1  0
 40 39  1  0
 40 44  1  0
 41 40  2  0
 44 43  1  0
 44 46  1  0
 46 47  1  0
 46 45  1  0
 48  1  1  0
 49 48  1  0
 50 49  2  0
 51 50  1  0
 52 51  1  0
 52 53  2  0
 54 53  1  0
 54 63  1  0
 55 61  1  0
 56 61  1  0
 57 56  1  0
 58 57  1  0
 59 58  1  0
 59 60  1  0
 61 60  1  0
 62 55  2  0
 63 64  1  0
 63 55  1  0
 65 68  1  0
 66 65  2  0
 66 67  1  0
 67 69  2  0
 68 59  1  0
 68 69  1  0
 70 67  1  0
 70 71  1  0
 72 71  2  0
 73 72  1  0
 74 75  1  0
 74 73  2  0
 75 70  2  0
 76 73  1  0
 76 77  1  0
 77 82  2  0
 77 78  1  0
 78 79  2  0
 79 80  1  0
 80 84  1  0
 81 80  2  0
 82 81  1  0
 83 82  1  0
 85 66  1  0
 85 86  1  0
 86 88  1  0
 87 85  2  0
 89 86  1  0
 90 92  1  0
 90 65  1  0
 91 90  1  0
M  ISO  4   6 101   7 101  55 100  63 100
M  END
>  <TORSDO>  (12) 
F 28

>  <SCORE>  (12) 
-4.688

>  <name>  (12) 
11

>  <ligand_id>  (12) 
11

>  <original_smiles>  (12) 
[H]c1c([H])c([H])c2c(c1[H])C([H])([H])C([H])([H])C([H])([H])C2([H])N([H])C(=O)C1([H])N(C(=O)C([H])(N([H])C(=O)C([H])(N([H])C([H])([H])[H])C([H])([H])[H])C(C([H])([H])[H])(C([H])([H])[H])C([H])([H])[H])C([H])([H])c2c([H])c(OC([H])([H])C([H])([H])C([H])([H])C([H])([H])C([H])([H])C([H])([H])C([H])([H])C([H])([H])C([H])([H])C([H])([H])C([H])([H])C([H])([H])C([H])([H])N([H])C(=O)N3C([H])([H])C([H])([H])C([H])([H])C([H])(n4nc(-c5c([H])c([H])c(Oc6c([H])c([H])c(F)c([H])c6F)c([H])c5[H])c(C(=O)N([H])[H])c4N([H])[H])C3([H])[H])c([H])c([H])c2C1([H])[H]

>  <smiles>  (12) 
[H]c1c([H])c([H])c2c(c1[H])C([H])([H])C([H])([H])C([H])([H])C2([H])N([H])C(=O)C1([H])N(C(=O)C([H])(N([H])C(=O)C([H])(N([H])C([H])([H])[H])C([H])([H])[H])C(C([H])([H])[H])(C([H])([H])[H])C([H])([H])[H])C([H])([H])c2c([H])c(OC([H])([H])C([H])([H])C([H])([H])C([H])([H])C([H])([H])C([H])([H])C([H])([H])C([H])([H])C([H])([H])C([H])([H])C([H])([H])C([H])([H])C([H])([H])N([H])C(=O)N3C([H])([H])C([H])([H])C([H])([H])C([H])(n4nc(-c5c([H])c([H])c(Oc6c([H])c([H])c(F)c([H])c6F)c([H])c5[H])c(C(=O)N([H])[H])c4N([H])[H])C3([H])[H])c([H])c([H])c2C1([H])[H]

$$$$
12:0:0
     RDKit          3D

 95104  0  0  1  0  0  0  0  0999 V2000
  -28.4700  -21.2530   16.9890 C   0  0  0  0  0  3  0  0  0  0  0  0
  -29.2690  -22.3920   17.1680 C   0  0  0  0  0  3  0  0  0  0  0  0
  -28.2080  -20.4040   18.0770 C   0  0  0  0  0  3  0  0  0  0  0  0
  -29.7910  -22.6850   18.4420 C   0  0  0  0  0  3  0  0  0  0  0  0
  -28.7370  -20.6720   19.3570 C   0  0  0  0  0  0  0  0  0  0  0  0
  -29.5070  -21.8570   19.5590 C   0  0  0  0  0  0  0  0  0  0  0  0
  -28.4440  -19.6320   20.4500 C   0  0  0  0  0  2  0  0  0  0  0  0
  -30.9410  -14.4110   20.0470 C   0  0  0  0  0  0  0  0  0  0  0  0
  -30.4860  -12.2990   18.8820 C   0  0  0  0  0  2  0  0  0  0  0  0
  -29.4930  -12.5690   17.7370 C   0  0  0  0  0  2  0  0  0  0  0  0
  -28.0420  -12.4640   18.2470 C   0  0  0  0  0  2  0  0  0  0  0  0
  -27.7950  -13.2660   19.5550 C   0  0  0  0  0  3  0  0  0  0  0  0
  -28.9100  -13.0090   20.5900 C   0  0  0  0  0  2  0  0  0  0  0  0
  -30.1970  -13.2790   19.9390 N   0  0  0  0  0  0  0  0  0  0  0  0
  -32.1080  -14.4680   19.6430 O   0  0  0  0  0  0  0  0  0  0  0  0
  -29.5550  -17.7380   19.0740 C   0  0  0  0  0  2  0  0  0  0  0  0
  -29.0540  -17.3400   21.4740 C   0  0  0  0  0  2  0  0  0  0  0  0
  -30.5560  -16.5750   19.1200 C   0  0  0  0  0  2  0  0  0  0  0  0
  -30.0910  -16.1900   21.4820 C   0  0  0  0  0  2  0  0  0  0  0  0
  -29.4210  -18.4270   20.4470 C   0  0  0  0  0  3  0  0  0  0  0  0
  -30.2420  -15.5690   20.1560 N   0  0  0  0  0  0  0  0  0  0  0  0
  -25.4440  -13.8770   20.4010 C   0  0  0  0  0  0  0  0  0  0  0  0
  -24.3890  -13.1050   20.8120 C   0  0  0  0  0  0  0  0  0  0  0  0
  -24.8360  -11.7510   20.7330 C   0  0  0  0  0  0  0  0  0  0  0  0
  -26.4680  -12.9910   20.1040 N   0  0  0  0  0  0  0  0  0  0  0  0
  -26.1070  -11.7070   20.3580 N   0  0  0  0  0  0  0  0  0  0  0  0
  -24.1070  -10.4900   20.9350 C   0  0  0  0  0  0  0  0  0  0  0  0
  -24.5510   -9.5200   21.8600 C   0  0  0  0  0  3  0  0  0  0  0  0
  -23.8210   -8.3260   22.0500 C   0  0  0  0  0  3  0  0  0  0  0  0
  -22.6330   -8.0940   21.3170 C   0  0  0  0  0  0  0  0  0  0  0  0
  -22.2090   -9.0540   20.3820 C   0  0  0  0  0  3  0  0  0  0  0  0
  -22.9390  -10.2390   20.1890 C   0  0  0  0  0  3  0  0  0  0  0  0
  -21.8760   -6.9520   21.4170 O   0  0  0  0  0  0  0  0  0  0  0  0
  -21.8100   -6.2340   22.5830 C   0  0  0  0  0  0  0  0  0  0  0  0
  -21.3800   -6.8170   23.7960 C   0  0  0  0  0  3  0  0  0  0  0  0
  -21.2610   -6.0260   24.9560 C   0  0  0  0  0  3  0  0  0  0  0  0
  -21.5610   -4.6510   24.9040 C   0  0  0  0  0  0  0  0  0  0  0  0
  -21.9830   -4.0670   23.6970 C   0  0  0  0  0  3  0  0  0  0  0  0
  -22.1040   -4.8560   22.5390 C   0  0  0  0  0  0  0  0  0  0  0  0
  -22.4910   -4.2830   21.3750 F   0  0  0  0  0  0  0  0  0  0  0  0
  -21.4380   -3.8880   26.0160 F   0  0  0  0  0  0  0  0  0  0  0  0
  -23.0130  -13.5900   21.1640 C   0  0  0  0  0  0  0  0  0  0  0  0
  -22.3280  -12.8910   22.0640 N   0  0  0  0  0  0  0  0  0  0  0  0
  -22.5550  -14.6210   20.6740 O   0  0  0  0  0  0  0  0  0  0  0  0
  -22.7140  -12.0570   22.4780 H   0  0  0  0  0  0  0  0  0  0  0  0
  -21.4060  -13.1970   22.3410 H   0  0  0  0  0  0  0  0  0  0  0  0
  -25.6150  -15.2470   20.2420 N   0  0  0  0  0  0  0  0  0  0  0  0
  -24.8680  -15.9120   20.4150 H   0  0  0  0  0  0  0  0  0  0  0  0
  -26.4680  -15.6830   19.9120 H   0  0  0  0  0  0  0  0  0  0  0  0
  -30.0900  -22.2630   20.9140 C   0  0  0  0  0  2  0  0  0  0  0  0
  -27.8260  -22.8870   22.0250 C   0  0  0  0  0  1  0  0  0  0  0  0
  -29.2850  -23.3000   21.7590 C   0  0  0  0  0  3  0  0  0  0  0  0
  -29.4330  -24.8030   21.3570 C   0  0  0  0  0  2  0  0  0  0  0  0
  -28.5410  -25.3250   20.2040 C   0  0  0  0  0  2  0  0  0  0  0  0
  -28.6120  -26.7570   20.1130 O   0  0  0  0  0  0  0  0  0  0  0  0
  -24.6330  -31.7750   23.1340 C   0  0  0  0  0  0  0  0  0  0  0  0
  -27.4180  -27.4470   20.0590 C   0  0  0  0  0  0  0  0  0  0  0  0
  -23.4780  -30.3710   21.4550 C   0  0  0  0  0  3  0  0  0  0  0  0
  -24.9860  -28.8890   20.0330 C   0  0  0  0  0  0  0  0  0  0  0  0
  -25.9950  -30.7930   21.2900 C   0  0  0  0  0  2  0  0  0  0  0  0
  -26.1210  -29.4320   20.6480 C   0  0  0  0  0  0  0  0  0  0  0  0
  -27.3400  -28.7220   20.6590 C   0  0  0  0  0  3  0  0  0  0  0  0
  -26.2750  -26.9240   19.4140 C   0  0  0  0  0  3  0  0  0  0  0  0
  -25.0570  -27.6300   19.4100 C   0  0  0  0  0  3  0  0  0  0  0  0
  -23.7220  -29.7180   20.0650 C   0  0  0  0  0  2  0  0  0  0  0  0
  -24.7190  -30.9940   22.0210 N   0  0  0  0  0  0  0  0  0  0  0  0
  -23.5390  -32.0140   23.6640 O   0  0  0  0  0  0  0  0  0  0  0  0
  -22.8430  -29.3220   22.3950 C   0  0  0  0  0  0  0  0  0  0  0  0
  -21.5190  -29.1400   22.2770 N   0  0  0  0  0  0  0  0  0  0  0  0
  -23.5350  -28.6740   23.1850 O   0  0  0  0  0  0  0  0  0  0  0  0
  -21.0210  -29.7120   21.6080 H   0  0  0  0  0  0  0  0  0  0  0  0
  -18.1490  -27.9420   22.7860 C   0  0  0  0  0  0  0  0  0  0  0  0
  -20.7110  -28.1820   23.0310 C   0  0  0  0  0  3  0  0  0  0  0  0
  -20.8010  -26.7690   22.4080 C   0  0  0  0  0  2  0  0  0  0  0  0
  -19.6850  -26.4800   21.4000 C   0  0  0  0  0  2  0  0  0  0  0  0
  -18.3130  -26.6120   22.0670 C   0  0  0  0  0  2  0  0  0  0  0  0
  -19.2770  -28.6870   23.2230 C   0  0  0  0  0  0  0  0  0  0  0  0
  -19.0710  -29.9330   23.8560 C   0  0  0  0  0  3  0  0  0  0  0  0
  -17.7720  -30.4320   24.0600 C   0  0  0  0  0  3  0  0  0  0  0  0
  -16.6590  -29.6870   23.6350 C   0  0  0  0  0  3  0  0  0  0  0  0
  -16.8490  -28.4450   23.0010 C   0  0  0  0  0  3  0  0  0  0  0  0
  -25.8940  -32.4270   23.7810 C   0  0  0  0  0  3  0  0  0  0  0  0
  -25.5490  -33.8110   24.1300 N   0  0  0  0  0  0  0  0  0  0  0  0
  -25.8620  -34.8850   23.3930 C   0  0  0  0  0  0  0  0  0  0  0  0
  -26.5460  -34.8120   22.3670 O   0  0  0  0  0  0  0  0  0  0  0  0
  -24.9370  -33.9360   24.9240 H   0  0  0  0  0  0  0  0  0  0  0  0
  -24.0860  -36.6320   23.0580 C   0  0  0  0  0  1  0  0  0  0  0  0
  -25.3360  -36.2530   23.8690 C   0  0  0  0  0  3  0  0  0  0  0  0
  -27.4430  -37.1830   24.7160 C   0  0  0  0  0  1  0  0  0  0  0  0
  -26.3390  -37.3370   23.7730 N   0  0  0  0  0  0  0  0  0  0  0  0
  -25.9070  -38.2440   23.9340 H   0  0  0  0  0  0  0  0  0  0  0  0
  -26.4180  -31.6480   25.0490 C   0  0  1  0  0  0  0  0  0  0  0  0
  -25.3230  -31.3710   26.1060 C   0  0  0  0  0  1  0  0  0  0  0  0
  -27.0380  -30.2940   24.6350 C   0  0  0  0  0  1  0  0  0  0  0  0
  -27.5440  -32.4580   25.7330 C   0  0  0  0  0  1  0  0  0  0  0  0
  1  2  2  0
  1  3  1  0
  2  4  1  0
  3  5  2  0
  4  6  2  0
  5  6  1  0
  5  7  1  0
  6 50  1  0
  8 21  1  0
  9 14  1  0
 10 11  1  0
 10  9  1  0
 12 11  1  0
 12 25  1  0
 12 13  1  0
 14  8  1  0
 14 13  1  0
 15  8  2  0
 16 18  1  0
 16 20  1  0
 17 19  1  0
 18 21  1  0
 20  7  1  0
 20 17  1  0
 21 19  1  0
 22 23  2  0
 23 42  1  0
 24 23  1  0
 24 27  1  0
 25 26  1  0
 25 22  1  0
 26 24  2  0
 27 28  1  0
 28 29  2  0
 30 33  1  0
 30 29  1  0
 31 30  2  0
 32 31  1  0
 32 27  2  0
 33 34  1  0
 34 35  1  0
 35 36  2  0
 37 36  1  0
 37 41  1  0
 38 37  2  0
 39 34  2  0
 39 38  1  0
 40 39  1  0
 42 43  1  0
 43 46  1  0
 43 45  1  0
 44 42  2  0
 47 22  1  0
 47 48  1  0
 49 47  1  0
 50 52  1  0
 52 51  1  0
 53 52  1  0
 54 53  1  0
 55 54  1  0
 56 67  2  0
 57 55  1  0
 57 62  1  0
 58 66  1  0
 58 68  1  0
 59 65  1  0
 59 61  1  0
 60 66  1  0
 61 62  2  0
 61 60  1  0
 63 57  2  0
 64 63  1  0
 64 59  2  0
 65 58  1  0
 66 56  1  0
 68 70  2  0
 69 68  1  0
 71 69  1  0
 72 81  2  0
 72 77  1  0
 73 69  1  0
 73 77  1  0
 74 73  1  0
 75 76  1  0
 75 74  1  0
 76 72  1  0
 77 78  2  0
 78 79  1  0
 80 79  2  0
 81 80  1  0
 82 56  1  0
 82 83  1  0
 82 92  1  0
 83 86  1  0
 84 88  1  0
 84 83  1  0
 85 84  2  0
 88 87  1  0
 90 88  1  0
 90 91  1  0
 90 89  1  0
 92 95  1  1
 92 93  1  0
 94 92  1  0
M  ISO  4   8 100  21 100  54 101  55 101
M  END
>  <TORSDO>  (13) 
F 21

>  <SCORE>  (13) 
-12.985

>  <name>  (13) 
12

>  <ligand_id>  (13) 
12

>  <original_smiles>  (13) 
[H]c1c([H])c([H])c2c(c1[H])C([H])([H])C([H])([H])C([H])([H])C2([H])N([H])C(=O)C1([H])N(C(=O)C([H])(N([H])C(=O)C([H])(N([H])C([H])([H])[H])C([H])([H])[H])C(C([H])([H])[H])(C([H])([H])[H])C([H])([H])[H])C([H])([H])c2c([H])c(OC([H])([H])C([H])([H])C([H])(C([H])([H])[H])C([H])([H])c3c([H])c([H])c([H])c([H])c3C([H])([H])C3([H])C([H])([H])C([H])([H])N(C(=O)N4C([H])([H])C([H])([H])C([H])([H])C([H])(n5nc(-c6c([H])c([H])c(Oc7c([H])c([H])c(F)c([H])c7F)c([H])c6[H])c(C(=O)N([H])[H])c5N([H])[H])C4([H])[H])C([H])([H])C3([H])[H])c([H])c([H])c2C1([H])[H]

>  <smiles>  (13) 
[H]c1c([H])c([H])c2c(c1[H])C([H])([H])C([H])([H])C([H])([H])C2([H])N([H])C(=O)C1([H])N(C(=O)C([H])(N([H])C(=O)C([H])(N([H])C([H])([H])[H])C([H])([H])[H])C(C([H])([H])[H])(C([H])([H])[H])C([H])([H])[H])C([H])([H])c2c([H])c(OC([H])([H])C([H])([H])C([H])(C([H])([H])[H])C([H])([H])c3c([H])c([H])c([H])c([H])c3C([H])([H])C3([H])C([H])([H])C([H])([H])N(C(=O)N4C([H])([H])C([H])([H])C([H])([H])C([H])(n5nc(-c6c([H])c([H])c(Oc7c([H])c([H])c(F)c([H])c7F)c([H])c6[H])c(C(=O)N([H])[H])c5N([H])[H])C4([H])[H])C([H])([H])C3([H])[H])c([H])c([H])c2C1([H])[H]

$$$$
13:0:0
     RDKit          3D

 92 99  0  0  1  0  0  0  0  0999 V2000
  -25.7110  -23.3370   20.4510 C   0  0  0  0  0  2  0  0  0  0  0  0
  -27.0840  -23.6880   20.0190 N   0  0  0  0  0  4  0  0  0  0  0  0
  -27.0250  -24.0820   19.0950 H   0  0  0  0  0  0  0  0  0  0  0  0
  -27.6330  -22.8460   19.9470 H   0  0  0  0  0  0  0  0  0  0  0  0
  -27.7890  -24.6480   20.8980 C   0  0  0  0  0  2  0  0  0  0  0  0
  -28.6960  -25.5930   20.0790 C   0  0  0  0  0  2  0  0  0  0  0  0
  -28.6180  -26.9290   20.5700 O   0  0  0  0  0  0  0  0  0  0  0  0
  -24.6720  -32.0700   23.4260 C   0  0  0  0  0  0  0  0  0  0  0  0
  -27.4140  -27.6020   20.4960 C   0  0  0  0  0  0  0  0  0  0  0  0
  -23.5160  -30.6500   21.7610 C   0  0  0  0  0  3  0  0  0  0  0  0
  -25.0090  -29.0840   20.4200 C   0  0  0  0  0  0  0  0  0  0  0  0
  -26.0470  -30.9980   21.6500 C   0  0  0  0  0  2  0  0  0  0  0  0
  -26.1460  -29.6200   21.0360 C   0  0  0  0  0  0  0  0  0  0  0  0
  -27.3460  -28.8820   21.0780 C   0  0  0  0  0  3  0  0  0  0  0  0
  -26.2550  -27.0730   19.8740 C   0  0  0  0  0  3  0  0  0  0  0  0
  -25.0550  -27.8050   19.8420 C   0  0  0  0  0  3  0  0  0  0  0  0
  -23.7670  -29.9430   20.4030 C   0  0  0  0  0  2  0  0  0  0  0  0
  -24.7620  -31.2530   22.3380 N   0  0  0  0  0  0  0  0  0  0  0  0
  -23.5730  -32.3600   23.9180 O   0  0  0  0  0  0  0  0  0  0  0  0
  -22.8260  -29.6460   22.7140 C   0  0  0  0  0  0  0  0  0  0  0  0
  -21.5060  -29.4750   22.5440 N   0  0  0  0  0  0  0  0  0  0  0  0
  -23.4770  -29.0260   23.5590 O   0  0  0  0  0  0  0  0  0  0  0  0
  -21.0510  -30.0170   21.8230 H   0  0  0  0  0  0  0  0  0  0  0  0
  -18.1010  -28.3440   22.9580 C   0  0  0  0  0  0  0  0  0  0  0  0
  -20.6520  -28.5590   23.3010 C   0  0  0  0  0  3  0  0  0  0  0  0
  -20.7500  -27.1200   22.7410 C   0  0  0  0  0  2  0  0  0  0  0  0
  -19.6740  -26.8110   21.6960 C   0  0  0  0  0  2  0  0  0  0  0  0
  -18.2750  -26.9860   22.2960 C   0  0  0  0  0  2  0  0  0  0  0  0
  -19.2190  -29.0900   23.4160 C   0  0  0  0  0  0  0  0  0  0  0  0
  -19.0060  -30.3620   23.9930 C   0  0  0  0  0  3  0  0  0  0  0  0
  -17.7070  -30.8890   24.1160 C   0  0  0  0  0  3  0  0  0  0  0  0
  -16.6010  -30.1390   23.6800 C   0  0  0  0  0  3  0  0  0  0  0  0
  -16.7980  -28.8700   23.1070 C   0  0  0  0  0  3  0  0  0  0  0  0
  -25.9400  -32.7020   24.0820 C   0  0  0  0  0  3  0  0  0  0  0  0
  -26.3800  -31.9770   25.4130 C   0  0  1  0  0  0  0  0  0  0  0  0
  -25.2360  -31.7970   26.4360 C   0  0  0  0  0  1  0  0  0  0  0  0
  -26.9630  -30.5780   25.1010 C   0  0  0  0  0  1  0  0  0  0  0  0
  -27.5080  -32.7830   26.1000 C   0  0  0  0  0  1  0  0  0  0  0  0
  -25.6480  -34.1200   24.3360 N   0  0  0  0  0  0  0  0  0  0  0  0
  -26.0360  -35.1270   23.5430 C   0  0  0  0  0  0  0  0  0  0  0  0
  -26.7500  -34.9630   22.5500 O   0  0  0  0  0  0  0  0  0  0  0  0
  -25.0300  -34.3260   25.1070 H   0  0  0  0  0  0  0  0  0  0  0  0
  -24.3590  -36.9290   23.0260 C   0  0  0  0  0  1  0  0  0  0  0  0
  -25.5550  -36.5450   23.9120 C   0  0  0  0  0  3  0  0  0  0  0  0
  -27.6680  -37.4300   24.7940 C   0  0  0  0  0  1  0  0  0  0  0  0
  -26.6120  -37.5720   23.7950 N   0  0  0  0  0  0  0  0  0  0  0  0
  -26.2160  -38.5050   23.8800 H   0  0  0  0  0  0  0  0  0  0  0  0
  -24.9990  -22.4430   19.4190 C   0  0  0  0  0  2  0  0  0  0  0  0
  -25.4460  -20.9720   19.4290 C   0  0  0  0  0  2  0  0  0  0  0  0
  -26.9580  -20.7540   19.2460 C   0  0  0  0  0  2  0  0  0  0  0  0
  -27.3350  -19.2730   19.3100 C   0  0  0  0  0  2  0  0  0  0  0  0
  -28.7990  -19.0520   19.7200 C   0  0  0  0  0  2  0  0  0  0  0  0
  -29.0590  -17.5720   20.0020 C   0  0  0  0  0  2  0  0  0  0  0  0
  -30.4230  -17.2580   20.6400 C   0  0  0  0  0  2  0  0  0  0  0  0
  -31.1150  -14.8750   20.4170 C   0  0  0  0  0  0  0  0  0  0  0  0
  -30.8750  -12.6310   19.4260 C   0  0  0  0  0  2  0  0  0  0  0  0
  -29.9690  -12.7280   18.1790 C   0  0  0  0  0  2  0  0  0  0  0  0
  -28.4770  -12.6360   18.5610 C   0  0  0  0  0  2  0  0  0  0  0  0
  -28.1030  -13.5780   19.7340 C   0  0  0  0  0  3  0  0  0  0  0  0
  -29.1120  -13.4200   20.8960 C   0  0  0  0  0  2  0  0  0  0  0  0
  -30.4670  -13.6810   20.3700 N   0  0  0  0  0  0  0  0  0  0  0  0
  -32.1940  -15.0940   19.8580 O   0  0  0  0  0  0  0  0  0  0  0  0
  -30.4110  -15.8480   21.0070 N   0  0  0  0  0  0  0  0  0  0  0  0
  -29.5890  -15.5350   21.5010 H   0  0  0  0  0  0  0  0  0  0  0  0
  -25.7050  -14.2800   20.3670 C   0  0  0  0  0  0  0  0  0  0  0  0
  -24.6030  -13.5460   20.7190 C   0  0  0  0  0  0  0  0  0  0  0  0
  -25.0190  -12.1780   20.7080 C   0  0  0  0  0  0  0  0  0  0  0  0
  -26.7260  -13.3620   20.1750 N   0  0  0  0  0  0  0  0  0  0  0  0
  -26.3140  -12.0950   20.4300 N   0  0  0  0  0  0  0  0  0  0  0  0
  -24.2510  -10.9400   20.8910 C   0  0  0  0  0  0  0  0  0  0  0  0
  -24.6220   -9.9750   21.8550 C   0  0  0  0  0  3  0  0  0  0  0  0
  -23.8570   -8.8010   22.0240 C   0  0  0  0  0  3  0  0  0  0  0  0
  -22.7070   -8.5840   21.2300 C   0  0  0  0  0  0  0  0  0  0  0  0
  -22.3560   -9.5360   20.2560 C   0  0  0  0  0  3  0  0  0  0  0  0
  -23.1200  -10.7020   20.0850 C   0  0  0  0  0  3  0  0  0  0  0  0
  -21.9220   -7.4590   21.3030 O   0  0  0  0  0  0  0  0  0  0  0  0
  -21.7900   -6.7490   22.4700 C   0  0  0  0  0  0  0  0  0  0  0  0
  -21.3220   -7.3500   23.6570 C   0  0  0  0  0  3  0  0  0  0  0  0
  -21.1350   -6.5700   24.8150 C   0  0  0  0  0  3  0  0  0  0  0  0
  -21.4050   -5.1890   24.7870 C   0  0  0  0  0  0  0  0  0  0  0  0
  -21.8640   -4.5860   23.6020 C   0  0  0  0  0  3  0  0  0  0  0  0
  -22.0530   -5.3640   22.4460 C   0  0  0  0  0  0  0  0  0  0  0  0
  -22.4770   -4.7750   21.3020 F   0  0  0  0  0  0  0  0  0  0  0  0
  -21.2190   -4.4360   25.8960 F   0  0  0  0  0  0  0  0  0  0  0  0
  -23.2180  -14.0700   20.9580 C   0  0  0  0  0  0  0  0  0  0  0  0
  -22.4550  -13.4130   21.8230 N   0  0  0  0  0  0  0  0  0  0  0  0
  -22.8200  -15.0980   20.4100 O   0  0  0  0  0  0  0  0  0  0  0  0
  -22.7850  -12.5730   22.2770 H   0  0  0  0  0  0  0  0  0  0  0  0
  -21.5250  -13.7520   22.0260 H   0  0  0  0  0  0  0  0  0  0  0  0
  -25.9210  -15.6390   20.1770 N   0  0  0  0  0  0  0  0  0  0  0  0
  -25.1660  -16.3140   20.2110 H   0  0  0  0  0  0  0  0  0  0  0  0
  -26.7860  -16.0360   19.8310 H   0  0  0  0  0  0  0  0  0  0  0  0
  2  1  1  0
  2  5  1  0
  3  2  1  0
  4  2  1  0
  6  7  1  0
  6  5  1  0
  8 19  2  0
  9  7  1  0
  9 14  1  0
 10 18  1  0
 10 20  1  0
 11 13  1  0
 12 18  1  0
 13 14  2  0
 13 12  1  0
 15  9  2  0
 16 15  1  0
 16 11  2  0
 17 11  1  0
 17 10  1  0
 18  8  1  0
 20 22  2  0
 21 20  1  0
 23 21  1  0
 24 33  2  0
 24 29  1  0
 25 21  1  0
 25 29  1  0
 26 25  1  0
 27 28  1  0
 27 26  1  0
 28 24  1  0
 29 30  2  0
 30 31  1  0
 32 31  2  0
 33 32  1  0
 34  8  1  0
 34 39  1  0
 34 35  1  0
 35 38  1  1
 35 36  1  0
 37 35  1  0
 39 42  1  0
 40 44  1  0
 40 39  1  0
 41 40  2  0
 44 43  1  0
 46 47  1  0
 46 44  1  0
 46 45  1  0
 48 49  1  0
 48  1  1  0
 50 51  1  0
 50 49  1  0
 51 52  1  0
 52 53  1  0
 53 54  1  0
 54 63  1  0
 55 63  1  0
 56 61  1  0
 57 58  1  0
 57 56  1  0
 59 58  1  0
 59 68  1  0
 59 60  1  0
 61 55  1  0
 61 60  1  0
 62 55  2  0
 63 64  1  0
 65 66  2  0
 66 85  1  0
 67 66  1  0
 67 70  1  0
 68 65  1  0
 68 69  1  0
 69 67  2  0
 70 71  1  0
 71 72  2  0
 73 76  1  0
 73 72  1  0
 74 73  2  0
 75 74  1  0
 75 70  2  0
 76 77  1  0
 77 78  1  0
 78 79  2  0
 80 79  1  0
 80 84  1  0
 81 80  2  0
 82 77  2  0
 82 81  1  0
 83 82  1  0
 85 86  1  0
 86 89  1  0
 86 88  1  0
 87 85  2  0
 90 91  1  0
 90 65  1  0
 92 90  1  0
M  ISO  4   6 101   7 101  55 100  63 100
M  END
>  <TORSDO>  (14) 
F 26

>  <SCORE>  (14) 
-10.190

>  <name>  (14) 
13

>  <ligand_id>  (14) 
13

>  <original_smiles>  (14) 
[H]c1c([H])c([H])c2c(c1[H])C([H])([H])C([H])([H])C([H])([H])C2([H])N([H])C(=O)C1([H])N(C(=O)C([H])(N([H])C(=O)C([H])(N([H])C([H])([H])[H])C([H])([H])[H])C(C([H])([H])[H])(C([H])([H])[H])C([H])([H])[H])C([H])([H])c2c([H])c(OC([H])([H])C([H])([H])[N+]([H])([H])C([H])([H])C([H])([H])C([H])([H])C([H])([H])C([H])([H])C([H])([H])C([H])([H])C([H])([H])N([H])C(=O)N3C([H])([H])C([H])([H])C([H])([H])C([H])(n4nc(-c5c([H])c([H])c(Oc6c([H])c([H])c(F)c([H])c6F)c([H])c5[H])c(C(=O)N([H])[H])c4N([H])[H])C3([H])[H])c([H])c([H])c2C1([H])[H]

>  <smiles>  (14) 
[H]c1c([H])c([H])c2c(c1[H])C([H])([H])C([H])([H])C([H])([H])C2([H])N([H])C(=O)C1([H])N(C(=O)C([H])(N([H])C(=O)C([H])(N([H])C([H])([H])[H])C([H])([H])[H])C(C([H])([H])[H])(C([H])([H])[H])C([H])([H])[H])C([H])([H])c2c([H])c(OC([H])([H])C([H])([H])[N+]([H])([H])C([H])([H])C([H])([H])C([H])([H])C([H])([H])C([H])([H])C([H])([H])C([H])([H])C([H])([H])N([H])C(=O)N3C([H])([H])C([H])([H])C([H])([H])C([H])(n4nc(-c5c([H])c([H])c(Oc6c([H])c([H])c(F)c([H])c6F)c([H])c5[H])c(C(=O)N([H])[H])c4N([H])[H])C3([H])[H])c([H])c([H])c2C1([H])[H]

$$$$
14:0:0
     RDKit          3D

102111  0  0  1  0  0  0  0  0999 V2000
  -30.2610  -26.6330   24.8730 C   0  0  0  0  0  3  0  0  0  0  0  0
  -30.4830  -25.6530   23.8900 C   0  0  0  0  0  3  0  0  0  0  0  0
  -29.0140  -27.2700   24.9490 C   0  0  0  0  0  3  0  0  0  0  0  0
  -29.4750  -25.3210   22.9560 C   0  0  0  0  0  0  0  0  0  0  0  0
  -28.2580  -26.0640   22.9500 C   0  0  0  0  0  0  0  0  0  0  0  0
  -28.0130  -26.9790   24.0010 C   0  0  0  0  0  0  0  0  0  0  0  0
  -30.6410  -24.2330   20.9030 C   0  0  0  0  0  2  0  0  0  0  0  0
  -30.1400  -22.8650   22.8910 C   0  0  0  0  0  2  0  0  0  0  0  0
  -30.5280  -22.9820   20.0020 C   0  0  0  0  0  2  0  0  0  0  0  0
  -29.9910  -21.6070   22.0360 C   0  0  0  0  0  2  0  0  0  0  0  0
  -29.6760  -24.0830   22.0820 C   0  0  0  0  0  3  0  0  0  0  0  0
  -30.7070  -21.6830   20.7280 N   0  0  1  0  0  4  0  0  0  0  0  0
  -31.6910  -21.5770   20.9310 H   0  0  0  0  0  0  0  0  0  0  0  0
  -30.2840  -20.5210   19.9070 C   0  0  0  0  0  2  0  0  0  0  0  0
  -30.8570  -20.4510   18.4850 C   0  0  0  0  0  2  0  0  0  0  0  0
  -30.5110  -19.1290   17.7690 C   0  0  0  0  0  2  0  0  0  0  0  0
  -31.3690  -17.8910   18.1230 C   0  0  0  0  0  3  0  0  0  0  0  0
  -30.7810  -16.9730   19.2230 C   0  0  0  0  0  3  0  0  0  0  0  0
  -31.3770  -15.5580   19.2850 C   0  0  0  0  0  2  0  0  0  0  0  0
  -33.8280  -15.6700   19.3280 C   0  0  0  0  0  0  0  0  0  0  0  0
  -35.4720  -14.2690   18.1910 C   0  0  0  0  0  2  0  0  0  0  0  0
  -34.6740  -13.2110   17.3990 C   0  0  0  0  0  2  0  0  0  0  0  0
  -34.3740  -11.9800   18.2800 C   0  0  0  0  0  2  0  0  0  0  0  0
  -33.7830  -12.3580   19.6660 C   0  0  0  0  0  3  0  0  0  0  0  0
  -34.6030  -13.4930   20.3270 C   0  0  0  0  0  2  0  0  0  0  0  0
  -34.6820  -14.6180   19.3790 N   0  0  0  0  0  0  0  0  0  0  0  0
  -33.9520  -16.6140   18.5470 O   0  0  0  0  0  0  0  0  0  0  0  0
  -32.6710  -15.4450   19.9580 N   0  0  0  0  0  0  0  0  0  0  0  0
  -32.7250  -14.7170   20.6560 H   0  0  0  0  0  0  0  0  0  0  0  0
  -32.5400  -10.5510   21.0200 C   0  0  0  0  0  0  0  0  0  0  0  0
  -32.9910   -9.4720   21.7330 C   0  0  0  0  0  0  0  0  0  0  0  0
  -34.4160   -9.5040   21.6360 C   0  0  0  0  0  0  0  0  0  0  0  0
  -33.6730  -11.1900   20.5380 N   0  0  0  0  0  0  0  0  0  0  0  0
  -34.8070  -10.5760   20.9590 N   0  0  0  0  0  0  0  0  0  0  0  0
  -35.4270   -8.5460   22.0990 C   0  0  0  0  0  0  0  0  0  0  0  0
  -36.5030   -8.9470   22.9190 C   0  0  0  0  0  3  0  0  0  0  0  0
  -37.4540   -8.0040   23.3670 C   0  0  0  0  0  3  0  0  0  0  0  0
  -37.3310   -6.6440   22.9960 C   0  0  0  0  0  0  0  0  0  0  0  0
  -36.2700   -6.2530   22.1610 C   0  0  0  0  0  3  0  0  0  0  0  0
  -35.3290   -7.1930   21.7120 C   0  0  0  0  0  3  0  0  0  0  0  0
  -38.2200   -5.6600   23.3630 O   0  0  0  0  0  0  0  0  0  0  0  0
  -38.9590   -5.7540   24.5150 C   0  0  0  0  0  0  0  0  0  0  0  0
  -38.3510   -5.8800   25.7840 C   0  0  0  0  0  3  0  0  0  0  0  0
  -39.1460   -5.9000   26.9470 C   0  0  0  0  0  3  0  0  0  0  0  0
  -40.5450   -5.7850   26.8460 C   0  0  0  0  0  0  0  0  0  0  0  0
  -41.1530   -5.6540   25.5850 C   0  0  0  0  0  3  0  0  0  0  0  0
  -40.3600   -5.6350   24.4240 C   0  0  0  0  0  0  0  0  0  0  0  0
  -40.9490   -5.4870   23.2120 F   0  0  0  0  0  0  0  0  0  0  0  0
  -41.3100   -5.7980   27.9640 F   0  0  0  0  0  0  0  0  0  0  0  0
  -32.1480   -8.4140   22.3850 C   0  0  0  0  0  0  0  0  0  0  0  0
  -32.6140   -7.8570   23.4980 N   0  0  0  0  0  0  0  0  0  0  0  0
  -31.0440   -8.1080   21.9370 O   0  0  0  0  0  0  0  0  0  0  0  0
  -33.5080   -8.1240   23.8820 H   0  0  0  0  0  0  0  0  0  0  0  0
  -32.0650   -7.1560   23.9760 H   0  0  0  0  0  0  0  0  0  0  0  0
  -31.2650  -11.0300   20.7290 N   0  0  0  0  0  0  0  0  0  0  0  0
  -30.4260  -10.5390   21.0190 H   0  0  0  0  0  0  0  0  0  0  0  0
  -31.0730  -11.8260   20.1340 H   0  0  0  0  0  0  0  0  0  0  0  0
  -26.0390  -27.1410   25.2380 C   0  0  0  0  0  1  0  0  0  0  0  0
  -26.7810  -27.5670   24.1010 O   0  0  0  0  0  0  0  0  0  0  0  0
  -27.1940  -25.9450   21.8470 C   0  0  0  0  0  2  0  0  0  0  0  0
  -27.7820  -26.2610   20.4540 C   0  0  0  0  0  2  0  0  0  0  0  0
  -26.7600  -26.4300   19.4670 O   0  0  0  0  0  0  0  0  0  0  0  0
  -24.3590  -31.9450   23.3240 C   0  0  0  0  0  0  0  0  0  0  0  0
  -25.7790  -27.3630   19.7190 C   0  0  0  0  0  0  0  0  0  0  0  0
  -22.7090  -30.8480   21.8390 C   0  0  0  0  0  3  0  0  0  0  0  0
  -23.6680  -29.1920   20.1510 C   0  0  0  0  0  0  0  0  0  0  0  0
  -25.1970  -30.8330   21.2590 C   0  0  0  0  0  2  0  0  0  0  0  0
  -24.9640  -29.5040   20.5770 C   0  0  0  0  0  0  0  0  0  0  0  0
  -26.0210  -28.5970   20.3670 C   0  0  0  0  0  3  0  0  0  0  0  0
  -24.4730  -27.0700   19.2790 C   0  0  0  0  0  3  0  0  0  0  0  0
  -23.4140  -27.9720   19.5000 C   0  0  0  0  0  3  0  0  0  0  0  0
  -22.5950  -30.2240   20.4220 C   0  0  0  0  0  2  0  0  0  0  0  0
  -24.1170  -31.2160   22.1970 N   0  0  0  0  0  0  0  0  0  0  0  0
  -23.4290  -32.3440   24.0380 O   0  0  0  0  0  0  0  0  0  0  0  0
  -22.0540  -29.8830   22.8530 C   0  0  0  0  0  0  0  0  0  0  0  0
  -20.7430  -29.6470   22.6870 N   0  0  0  0  0  0  0  0  0  0  0  0
  -22.7240  -29.3460   23.7380 O   0  0  0  0  0  0  0  0  0  0  0  0
  -20.2660  -30.1310   21.9390 H   0  0  0  0  0  0  0  0  0  0  0  0
  -17.4480  -28.2030   22.9940 C   0  0  0  0  0  0  0  0  0  0  0  0
  -19.9230  -28.7460   23.4960 C   0  0  0  0  0  3  0  0  0  0  0  0
  -20.2120  -27.2680   23.1480 C   0  0  0  0  0  2  0  0  0  0  0  0
  -19.2690  -26.7040   22.0810 C   0  0  0  0  0  2  0  0  0  0  0  0
  -17.8140  -26.7980   22.5470 C   0  0  0  0  0  2  0  0  0  0  0  0
  -18.4390  -29.1230   23.4260 C   0  0  0  0  0  0  0  0  0  0  0  0
  -18.0480  -30.4290   23.7970 C   0  0  0  0  0  3  0  0  0  0  0  0
  -16.6960  -30.8160   23.7480 C   0  0  0  0  0  3  0  0  0  0  0  0
  -15.7160  -29.8960   23.3350 C   0  0  0  0  0  3  0  0  0  0  0  0
  -16.0920  -28.5930   22.9650 C   0  0  0  0  0  3  0  0  0  0  0  0
  -25.8080  -32.3330   23.7550 C   0  0  0  0  0  3  0  0  0  0  0  0
  -26.3760  -31.4460   24.9250 C   0  0  1  0  0  0  0  0  0  0  0  0
  -25.3800  -31.2310   26.0890 C   0  0  0  0  0  1  0  0  0  0  0  0
  -26.7830  -30.0620   24.3910 C   0  0  0  0  0  1  0  0  0  0  0  0
  -27.6610  -32.0810   25.5020 C   0  0  0  0  0  1  0  0  0  0  0  0
  -25.7890  -33.7470   24.1450 N   0  0  0  0  0  0  0  0  0  0  0  0
  -26.2450  -34.7490   23.3830 C   0  0  0  0  0  0  0  0  0  0  0  0
  -26.7900  -34.5670   22.2920 O   0  0  0  0  0  0  0  0  0  0  0  0
  -25.2990  -33.9730   24.9960 H   0  0  0  0  0  0  0  0  0  0  0  0
  -24.8440  -36.8310   23.2500 C   0  0  0  0  0  1  0  0  0  0  0  0
  -26.0640  -36.1810   23.9210 C   0  0  0  0  0  3  0  0  0  0  0  0
  -28.4030  -36.6140   24.5280 C   0  0  0  0  0  1  0  0  0  0  0  0
  -27.2560  -37.0340   23.7280 N   0  0  0  0  0  0  0  0  0  0  0  0
  -27.0450  -38.0030   23.9560 H   0  0  0  0  0  0  0  0  0  0  0  0
  1  3  1  0
  2  1  2  0
  4  2  1  0
  5  4  2  0
  5  6  1  0
  6 59  1  0
  6  3  2  0
  7 11  1  0
  9 12  1  0
  9  7  1  0
 10  8  1  0
 11  8  1  0
 11  4  1  0
 12 13  1  1
 12 10  1  0
 14 12  1  0
 15 14  1  0
 16 17  1  0
 16 15  1  0
 17 18  2  0
 18 19  1  0
 19 28  1  0
 20 26  1  0
 20 28  1  0
 21 26  1  0
 22 21  1  0
 22 23  1  0
 24 23  1  0
 24 25  1  0
 24 33  1  0
 26 25  1  0
 27 20  2  0
 28 29  1  0
 30 31  2  0
 31 50  1  0
 32 31  1  0
 32 35  1  0
 33 34  1  0
 33 30  1  0
 34 32  2  0
 35 36  1  0
 36 37  2  0
 38 41  1  0
 38 37  1  0
 39 38  2  0
 40 35  2  0
 40 39  1  0
 41 42  1  0
 42 43  1  0
 43 44  2  0
 45 44  1  0
 45 49  1  0
 46 45  2  0
 47 42  2  0
 47 46  1  0
 48 47  1  0
 50 51  1  0
 51 53  1  0
 51 54  1  0
 52 50  2  0
 55 56  1  0
 55 30  1  0
 57 55  1  0
 59 58  1  0
 60  5  1  0
 61 60  1  0
 62 64  1  0
 62 61  1  0
 63 74  2  0
 64 69  1  0
 65 73  1  0
 65 75  1  0
 66 72  1  0
 66 68  1  0
 67 73  1  0
 68 67  1  0
 69 68  2  0
 70 71  1  0
 70 64  2  0
 71 66  2  0
 72 65  1  0
 73 63  1  0
 75 77  2  0
 76 75  1  0
 78 76  1  0
 79 84  1  0
 80 76  1  0
 81 80  1  0
 82 83  1  0
 82 81  1  0
 83 79  1  0
 84 80  1  0
 84 85  2  0
 86 85  1  0
 87 86  2  0
 88 79  2  0
 88 87  1  0
 89 63  1  0
 89 94  1  0
 89 90  1  0
 90 93  1  1
 90 91  1  0
 92 90  1  0
 94 97  1  0
 95 99  1  0
 95 94  1  0
 96 95  2  0
 99 98  1  0
101 99  1  0
101102  1  0
101100  1  0
M  ISO  4  20 100  28 100  61 101  62 101
M  END
>  <TORSDO>  (15) 
F 26

>  <SCORE>  (15) 
-5.286

>  <name>  (15) 
14

>  <ligand_id>  (15) 
14

>  <original_smiles>  (15) 
[H]c1c([H])c([H])c2c(c1[H])C([H])([H])C([H])([H])C([H])([H])C2([H])N([H])C(=O)C1([H])N(C(=O)C([H])(N([H])C(=O)C([H])(N([H])C([H])([H])[H])C([H])([H])[H])C(C([H])([H])[H])(C([H])([H])[H])C([H])([H])[H])C([H])([H])c2c([H])c(OC([H])([H])C([H])([H])c3c(OC([H])([H])[H])c([H])c([H])c([H])c3C3([H])C([H])([H])C([H])([H])[N+]([H])(C([H])([H])C([H])([H])C([H])([H])C([H])([H])C([H])([H])C([H])([H])N([H])C(=O)N4C([H])([H])C([H])([H])C([H])([H])C([H])(n5nc(-c6c([H])c([H])c(Oc7c([H])c([H])c(F)c([H])c7F)c([H])c6[H])c(C(=O)N([H])[H])c5N([H])[H])C4([H])[H])C([H])([H])C3([H])[H])c([H])c([H])c2C1([H])[H]

>  <smiles>  (15) 
[H]c1c([H])c([H])c2c(c1[H])C([H])([H])C([H])([H])C([H])([H])C2([H])N([H])C(=O)C1([H])N(C(=O)C([H])(N([H])C(=O)C([H])(N([H])C([H])([H])[H])C([H])([H])[H])C(C([H])([H])[H])(C([H])([H])[H])C([H])([H])[H])C([H])([H])c2c([H])c(OC([H])([H])C([H])([H])c3c(OC([H])([H])[H])c([H])c([H])c([H])c3C3([H])C([H])([H])C([H])([H])[N+]([H])(C([H])([H])C([H])([H])C([H])([H])C([H])([H])C([H])([H])C([H])([H])N([H])C(=O)N4C([H])([H])C([H])([H])C([H])([H])C([H])(n5nc(-c6c([H])c([H])c(Oc7c([H])c([H])c(F)c([H])c7F)c([H])c6[H])c(C(=O)N([H])[H])c5N([H])[H])C4([H])[H])C([H])([H])C3([H])[H])c([H])c([H])c2C1([H])[H]

$$$$
15:0:0
     RDKit          3D

 95103  0  0  1  0  0  0  0  0999 V2000
  -29.6840  -20.9200   16.3150 C   0  0  0  0  0  3  0  0  0  0  0  0
  -30.0820  -22.2060   16.7280 C   0  0  0  0  0  3  0  0  0  0  0  0
  -29.9870  -19.7960   17.1090 C   0  0  0  0  0  3  0  0  0  0  0  0
  -31.0700  -21.2490   18.7400 C   0  0  0  0  0  3  0  0  0  0  0  0
  -30.7710  -22.3770   17.9480 C   0  0  0  0  0  0  0  0  0  0  0  0
  -30.6880  -19.9540   18.3240 C   0  0  0  0  0  0  0  0  0  0  0  0
  -31.2210  -23.7600   18.3940 C   0  0  0  0  0  2  0  0  0  0  0  0
  -30.0590  -24.7520   18.5880 C   0  0  0  0  0  2  0  0  0  0  0  0
  -30.5330  -26.1190   19.1190 C   0  0  0  0  0  2  0  0  0  0  0  0
  -29.4110  -27.1650   19.2230 C   0  0  0  0  0  2  0  0  0  0  0  0
  -28.4240  -26.6940   20.1280 O   0  0  0  0  0  0  0  0  0  0  0  0
  -24.6180  -31.8560   23.2270 C   0  0  0  0  0  0  0  0  0  0  0  0
  -27.2750  -27.4390   20.1490 C   0  0  0  0  0  0  0  0  0  0  0  0
  -23.4110  -30.4440   21.5910 C   0  0  0  0  0  3  0  0  0  0  0  0
  -24.8680  -28.9040   20.1730 C   0  0  0  0  0  0  0  0  0  0  0  0
  -25.9320  -30.8180   21.3850 C   0  0  0  0  0  2  0  0  0  0  0  0
  -26.0230  -29.4460   20.7520 C   0  0  0  0  0  0  0  0  0  0  0  0
  -27.2330  -28.7190   20.7420 C   0  0  0  0  0  3  0  0  0  0  0  0
  -26.1050  -26.8940   19.5870 C   0  0  0  0  0  3  0  0  0  0  0  0
  -24.9020  -27.6250   19.5900 C   0  0  0  0  0  3  0  0  0  0  0  0
  -23.6190  -29.7540   20.2160 C   0  0  0  0  0  2  0  0  0  0  0  0
  -24.6720  -31.0540   22.1260 N   0  0  0  0  0  0  0  0  0  0  0  0
  -23.5380  -32.1290   23.7680 O   0  0  0  0  0  0  0  0  0  0  0  0
  -22.7630  -29.4280   22.5570 C   0  0  0  0  0  0  0  0  0  0  0  0
  -21.4380  -29.2520   22.4370 N   0  0  0  0  0  0  0  0  0  0  0  0
  -23.4500  -28.8000   23.3690 O   0  0  0  0  0  0  0  0  0  0  0  0
  -20.9470  -29.8080   21.7510 H   0  0  0  0  0  0  0  0  0  0  0  0
  -18.0600  -28.0830   22.9570 C   0  0  0  0  0  0  0  0  0  0  0  0
  -20.6200  -28.3190   23.2110 C   0  0  0  0  0  3  0  0  0  0  0  0
  -20.7080  -26.8890   22.6310 C   0  0  0  0  0  2  0  0  0  0  0  0
  -19.5960  -26.5770   21.6250 C   0  0  0  0  0  2  0  0  0  0  0  0
  -18.2210  -26.7330   22.2780 C   0  0  0  0  0  2  0  0  0  0  0  0
  -19.1880  -28.8350   23.3800 C   0  0  0  0  0  0  0  0  0  0  0  0
  -18.9840  -30.1010   23.9720 C   0  0  0  0  0  3  0  0  0  0  0  0
  -17.6850  -30.6130   24.1460 C   0  0  0  0  0  3  0  0  0  0  0  0
  -16.5710  -29.8570   23.7410 C   0  0  0  0  0  3  0  0  0  0  0  0
  -16.7600  -28.5950   23.1510 C   0  0  0  0  0  3  0  0  0  0  0  0
  -25.9070  -32.4880   23.8430 C   0  0  0  0  0  3  0  0  0  0  0  0
  -26.4380  -31.7100   25.1080 C   0  0  1  0  0  0  0  0  0  0  0  0
  -25.3570  -31.4610   26.1830 C   0  0  0  0  0  1  0  0  0  0  0  0
  -27.0230  -30.3390   24.6970 C   0  0  0  0  0  1  0  0  0  0  0  0
  -27.5920  -32.5040   25.7640 C   0  0  0  0  0  1  0  0  0  0  0  0
  -25.5940  -33.8840   24.1820 N   0  0  0  0  0  0  0  0  0  0  0  0
  -25.9200  -34.9410   23.4260 C   0  0  0  0  0  0  0  0  0  0  0  0
  -26.5860  -34.8440   22.3910 O   0  0  0  0  0  0  0  0  0  0  0  0
  -25.0040  -34.0320   24.9870 H   0  0  0  0  0  0  0  0  0  0  0  0
  -24.1810  -36.7240   23.0870 C   0  0  0  0  0  1  0  0  0  0  0  0
  -25.4280  -36.3230   23.8910 C   0  0  0  0  0  3  0  0  0  0  0  0
  -27.5650  -37.2100   24.7110 C   0  0  0  0  0  1  0  0  0  0  0  0
  -26.4540  -37.3820   23.7780 N   0  0  0  0  0  0  0  0  0  0  0  0
  -26.0450  -38.2990   23.9380 H   0  0  0  0  0  0  0  0  0  0  0  0
  -31.0650  -18.7410   19.1710 C   0  0  0  0  0  3  0  0  0  0  0  0
  -33.3360  -18.5400   17.9360 C   0  0  0  0  0  1  0  0  0  0  0  0
  -32.0680  -17.8230   18.4330 C   0  0  0  0  0  2  0  0  0  0  0  0
  -29.8120  -17.9750   19.6770 C   0  0  0  0  0  2  0  0  0  0  0  0
  -29.7880  -17.7070   21.1980 C   0  0  0  0  0  2  0  0  0  0  0  0
  -30.7050  -16.5740   21.6950 C   0  0  0  0  0  2  0  0  0  0  0  0
  -30.7210  -14.3570   20.5460 C   0  0  0  0  0  0  0  0  0  0  0  0
  -30.3620  -12.2700   19.2910 C   0  0  0  0  0  2  0  0  0  0  0  0
  -29.4050  -12.5170   18.1090 C   0  0  0  0  0  2  0  0  0  0  0  0
  -27.9340  -12.3900   18.5500 C   0  0  0  0  0  2  0  0  0  0  0  0
  -27.6230  -13.2010   19.8370 C   0  0  0  0  0  3  0  0  0  0  0  0
  -28.6820  -12.9130   20.9240 C   0  0  0  0  0  2  0  0  0  0  0  0
  -30.0110  -13.2120   20.3610 N   0  0  0  0  0  0  0  0  0  0  0  0
  -31.7850  -14.5890   19.9690 O   0  0  0  0  0  0  0  0  0  0  0  0
  -30.1660  -15.2520   21.3720 N   0  0  0  0  0  0  0  0  0  0  0  0
  -29.3000  -14.9850   21.8190 H   0  0  0  0  0  0  0  0  0  0  0  0
  -25.2230  -13.8240   20.5440 C   0  0  0  0  0  0  0  0  0  0  0  0
  -24.1540  -13.0560   20.9200 C   0  0  0  0  0  0  0  0  0  0  0  0
  -24.6090  -11.7020   20.8870 C   0  0  0  0  0  0  0  0  0  0  0  0
  -26.2660  -12.9380   20.3140 N   0  0  0  0  0  0  0  0  0  0  0  0
  -25.8960  -11.6570   20.5730 N   0  0  0  0  0  0  0  0  0  0  0  0
  -23.8760  -10.4440   21.0810 C   0  0  0  0  0  0  0  0  0  0  0  0
  -24.3270   -9.4620   21.9900 C   0  0  0  0  0  3  0  0  0  0  0  0
  -23.5960   -8.2690   22.1750 C   0  0  0  0  0  3  0  0  0  0  0  0
  -22.4020   -8.0490   21.4490 C   0  0  0  0  0  0  0  0  0  0  0  0
  -21.9700   -9.0200   20.5280 C   0  0  0  0  0  3  0  0  0  0  0  0
  -22.7000  -10.2050   20.3430 C   0  0  0  0  0  3  0  0  0  0  0  0
  -21.6400   -6.9090   21.5440 O   0  0  0  0  0  0  0  0  0  0  0  0
  -21.6370   -6.1370   22.6760 C   0  0  0  0  0  0  0  0  0  0  0  0
  -21.2910   -6.6660   23.9390 C   0  0  0  0  0  3  0  0  0  0  0  0
  -21.2320   -5.8220   25.0640 C   0  0  0  0  0  3  0  0  0  0  0  0
  -21.5100   -4.4490   24.9320 C   0  0  0  0  0  0  0  0  0  0  0  0
  -21.8470   -3.9180   23.6740 C   0  0  0  0  0  3  0  0  0  0  0  0
  -21.9090   -4.7600   22.5500 C   0  0  0  0  0  0  0  0  0  0  0  0
  -22.2160   -4.2400   21.3360 F   0  0  0  0  0  0  0  0  0  0  0  0
  -21.4470   -3.6350   26.0110 F   0  0  0  0  0  0  0  0  0  0  0  0
  -22.7600  -13.5380   21.2010 C   0  0  0  0  0  0  0  0  0  0  0  0
  -22.0340  -12.8500   22.0760 N   0  0  0  0  0  0  0  0  0  0  0  0
  -22.3210  -14.5620   20.6780 O   0  0  0  0  0  0  0  0  0  0  0  0
  -22.4010  -12.0260   22.5280 H   0  0  0  0  0  0  0  0  0  0  0  0
  -21.0970  -13.1540   22.2950 H   0  0  0  0  0  0  0  0  0  0  0  0
  -25.3850  -15.1940   20.3650 N   0  0  0  0  0  0  0  0  0  0  0  0
  -24.6190  -15.8460   20.4930 H   0  0  0  0  0  0  0  0  0  0  0  0
  -26.2360  -15.6430   20.0500 H   0  0  0  0  0  0  0  0  0  0  0  0
  1  2  2  0
  1  3  1  0
  2  5  1  0
  3  6  2  0
  5  7  1  0
  5  4  2  0
  6  4  1  0
  6 52  1  0
  7  8  1  0
  8  9  1  0
  9 10  1  0
 10 11  1  0
 11 13  1  0
 12 23  2  0
 13 18  1  0
 14 22  1  0
 14 24  1  0
 15 21  1  0
 15 17  1  0
 16 22  1  0
 17 16  1  0
 18 17  2  0
 19 20  1  0
 19 13  2  0
 20 15  2  0
 21 14  1  0
 22 12  1  0
 24 26  2  0
 25 24  1  0
 27 25  1  0
 28 37  2  0
 28 33  1  0
 29 25  1  0
 29 33  1  0
 30 29  1  0
 31 32  1  0
 31 30  1  0
 32 28  1  0
 33 34  2  0
 34 35  1  0
 36 35  2  0
 37 36  1  0
 38 12  1  0
 38 43  1  0
 38 39  1  0
 39 42  1  1
 39 40  1  0
 41 39  1  0
 43 46  1  0
 44 48  1  0
 44 43  1  0
 45 44  2  0
 48 47  1  0
 50 48  1  0
 50 51  1  0
 50 49  1  0
 52 54  1  0
 52 55  1  0
 53 54  1  0
 55 56  1  0
 56 57  1  0
 58 66  1  0
 59 64  1  0
 60 61  1  0
 60 59  1  0
 62 61  1  0
 62 71  1  0
 62 63  1  0
 64 58  1  0
 64 63  1  0
 65 58  2  0
 66 57  1  0
 66 67  1  0
 68 69  2  0
 69 88  1  0
 70 69  1  0
 70 73  1  0
 71 68  1  0
 71 72  1  0
 72 70  2  0
 73 74  1  0
 74 75  2  0
 76 79  1  0
 76 75  1  0
 77 76  2  0
 78 77  1  0
 78 73  2  0
 79 80  1  0
 80 81  1  0
 81 82  2  0
 83 82  1  0
 83 87  1  0
 84 83  2  0
 85 80  2  0
 85 84  1  0
 86 85  1  0
 88 89  1  0
 89 92  1  0
 89 91  1  0
 90 88  2  0
 93 94  1  0
 93 68  1  0
 95 93  1  0
M  ISO  4  10 101  11 101  58 100  66 100
M  END
>  <TORSDO>  (16) 
F 25

>  <SCORE>  (16) 
-12.193

>  <name>  (16) 
15

>  <ligand_id>  (16) 
15

>  <original_smiles>  (16) 
[H]c1c([H])c([H])c2c(c1[H])C([H])([H])C([H])([H])C([H])([H])C2([H])N([H])C(=O)C1([H])N(C(=O)C([H])(N([H])C(=O)C([H])(N([H])C([H])([H])[H])C([H])([H])[H])C(C([H])([H])[H])(C([H])([H])[H])C([H])([H])[H])C([H])([H])c2c([H])c(OC([H])([H])C([H])([H])C([H])([H])C([H])([H])c3c([H])c([H])c([H])c(C([H])(C([H])([H])C([H])([H])[H])C([H])([H])C([H])([H])C([H])([H])N([H])C(=O)N4C([H])([H])C([H])([H])C([H])([H])C([H])(n5nc(-c6c([H])c([H])c(Oc7c([H])c([H])c(F)c([H])c7F)c([H])c6[H])c(C(=O)N([H])[H])c5N([H])[H])C4([H])[H])c3[H])c([H])c([H])c2C1([H])[H]

>  <smiles>  (16) 
[H]c1c([H])c([H])c2c(c1[H])C([H])([H])C([H])([H])C([H])([H])C2([H])N([H])C(=O)C1([H])N(C(=O)C([H])(N([H])C(=O)C([H])(N([H])C([H])([H])[H])C([H])([H])[H])C(C([H])([H])[H])(C([H])([H])[H])C([H])([H])[H])C([H])([H])c2c([H])c(OC([H])([H])C([H])([H])C([H])([H])C([H])([H])c3c([H])c([H])c([H])c(C([H])(C([H])([H])C([H])([H])[H])C([H])([H])C([H])([H])C([H])([H])N([H])C(=O)N4C([H])([H])C([H])([H])C([H])([H])C([H])(n5nc(-c6c([H])c([H])c(Oc7c([H])c([H])c(F)c([H])c7F)c([H])c6[H])c(C(=O)N([H])[H])c5N([H])[H])C4([H])[H])c3[H])c([H])c([H])c2C1([H])[H]

$$$$
16:0:0
     RDKit          3D

 97106  0  0  1  0  0  0  0  0999 V2000
  -30.3840  -23.4990   22.0880 C   0  0  0  0  0  3  0  0  0  0  0  0
  -30.7120  -22.1490   22.3490 C   0  0  0  0  0  3  0  0  0  0  0  0
  -29.2300  -23.8380   21.3480 C   0  0  0  0  0  0  0  0  0  0  0  0
  -29.8890  -21.0990   21.8890 C   0  0  0  0  0  0  0  0  0  0  0  0
  -28.4270  -22.7850   20.8220 C   0  0  0  0  0  0  0  0  0  0  0  0
  -28.7570  -21.4280   21.1020 C   0  0  0  0  0  0  0  0  0  0  0  0
  -27.1660  -23.0880   20.0170 C   0  0  0  0  0  1  0  0  0  0  0  0
  -27.9160  -20.4090   20.6490 N   0  0  0  0  0  0  0  0  0  0  0  0
  -28.2980  -19.4730   20.5790 H   0  0  0  0  0  0  0  0  0  0  0  0
  -27.2580  -20.6280   19.9120 H   0  0  0  0  0  0  0  0  0  0  0  0
  -28.8360  -25.3230   21.2390 C   0  0  0  0  0  2  0  0  0  0  0  0
  -29.0690  -25.9830   19.8630 C   0  0  0  0  0  2  0  0  0  0  0  0
  -28.9920  -27.4200   19.9520 O   0  0  0  0  0  0  0  0  0  0  0  0
  -24.5340  -31.8040   23.3570 C   0  0  0  0  0  0  0  0  0  0  0  0
  -27.7430  -28.0130   19.9650 C   0  0  0  0  0  0  0  0  0  0  0  0
  -23.5510  -30.4980   21.5020 C   0  0  0  0  0  3  0  0  0  0  0  0
  -25.2140  -29.2830   20.0000 C   0  0  0  0  0  0  0  0  0  0  0  0
  -26.0340  -31.1190   21.4850 C   0  0  0  0  0  2  0  0  0  0  0  0
  -26.2850  -29.8460   20.7010 C   0  0  0  0  0  0  0  0  0  0  0  0
  -27.5540  -29.2210   20.6770 C   0  0  0  0  0  3  0  0  0  0  0  0
  -26.6510  -27.4630   19.2560 C   0  0  0  0  0  3  0  0  0  0  0  0
  -25.3920  -28.0890   19.2790 C   0  0  0  0  0  3  0  0  0  0  0  0
  -23.8870  -30.0050   20.0700 C   0  0  0  0  0  2  0  0  0  0  0  0
  -24.7200  -31.1500   22.1760 N   0  0  0  0  0  0  0  0  0  0  0  0
  -23.4070  -31.9080   23.8620 O   0  0  0  0  0  0  0  0  0  0  0  0
  -22.9590  -29.3150   22.3010 C   0  0  0  0  0  0  0  0  0  0  0  0
  -21.6760  -29.0070   22.0520 N   0  0  0  0  0  0  0  0  0  0  0  0
  -23.6540  -28.6800   23.0980 O   0  0  0  0  0  0  0  0  0  0  0  0
  -21.1750  -29.5750   21.3850 H   0  0  0  0  0  0  0  0  0  0  0  0
  -18.4380  -27.4070   22.1430 C   0  0  0  0  0  0  0  0  0  0  0  0
  -20.9230  -27.9080   22.6550 C   0  0  0  0  0  3  0  0  0  0  0  0
  -21.2310  -26.5670   21.9500 C   0  0  0  0  0  2  0  0  0  0  0  0
  -20.2520  -26.2410   20.8190 C   0  0  0  0  0  2  0  0  0  0  0  0
  -18.8190  -26.1680   21.3540 C   0  0  0  0  0  2  0  0  0  0  0  0
  -19.4270  -28.2350   22.7400 C   0  0  0  0  0  0  0  0  0  0  0  0
  -19.0190  -29.3970   23.4300 C   0  0  0  0  0  3  0  0  0  0  0  0
  -17.6560  -29.7340   23.5320 C   0  0  0  0  0  3  0  0  0  0  0  0
  -16.6810  -28.8990   22.9590 C   0  0  0  0  0  3  0  0  0  0  0  0
  -17.0730  -27.7390   22.2690 C   0  0  0  0  0  3  0  0  0  0  0  0
  -25.7210  -32.4720   24.1170 C   0  0  0  0  0  3  0  0  0  0  0  0
  -25.3720  -33.8830   24.3350 N   0  0  0  0  0  0  0  0  0  0  0  0
  -25.8490  -34.9030   23.6090 C   0  0  0  0  0  0  0  0  0  0  0  0
  -26.6940  -34.7560   22.7220 O   0  0  0  0  0  0  0  0  0  0  0  0
  -24.6400  -34.0670   25.0020 H   0  0  0  0  0  0  0  0  0  0  0  0
  -24.2290  -36.6810   22.8750 C   0  0  0  0  0  1  0  0  0  0  0  0
  -25.2980  -36.3100   23.9130 C   0  0  0  0  0  3  0  0  0  0  0  0
  -27.2700  -37.2100   25.0670 C   0  0  0  0  0  1  0  0  0  0  0  0
  -26.3440  -37.3550   23.9470 N   0  0  0  0  0  0  0  0  0  0  0  0
  -25.9290  -38.2820   23.9970 H   0  0  0  0  0  0  0  0  0  0  0  0
  -26.0590  -31.7660   25.4870 C   0  0  1  0  0  0  0  0  0  0  0  0
  -24.8300  -31.5700   26.4050 C   0  0  0  0  0  1  0  0  0  0  0  0
  -26.6900  -30.3750   25.2420 C   0  0  0  0  0  1  0  0  0  0  0  0
  -27.1150  -32.5920   26.2560 C   0  0  0  0  0  1  0  0  0  0  0  0
  -30.1230  -19.6700   22.4140 C   0  0  0  0  0  2  0  0  0  0  0  0
  -29.7660  -18.4700   21.4950 C   0  0  0  0  0  2  0  0  0  0  0  0
  -31.9800  -13.6660   19.5200 C   0  0  0  0  0  0  0  0  0  0  0  0
  -31.2810  -11.3740   18.9230 C   0  0  0  0  0  2  0  0  0  0  0  0
  -30.2550  -11.3530   17.7740 C   0  0  0  0  0  2  0  0  0  0  0  0
  -28.8290  -11.4610   18.3380 C   0  0  0  0  0  2  0  0  0  0  0  0
  -28.6760  -12.6420   19.3280 C   0  0  0  0  0  3  0  0  0  0  0  0
  -29.8090  -12.6510   20.3750 C   0  0  0  0  0  2  0  0  0  0  0  0
  -31.1130  -12.6250   19.6870 N   0  0  0  0  0  0  0  0  0  0  0  0
  -32.9180  -13.6010   18.7170 O   0  0  0  0  0  0  0  0  0  0  0  0
  -31.0190  -17.1460   19.7310 C   0  0  0  0  0  2  0  0  0  0  0  0
  -30.7090  -16.1180   22.0210 C   0  0  0  0  0  2  0  0  0  0  0  0
  -32.1020  -16.0940   19.4830 C   0  0  0  0  0  2  0  0  0  0  0  0
  -31.7140  -15.0100   21.6090 C   0  0  0  0  0  2  0  0  0  0  0  0
  -30.8980  -17.4460   21.2320 C   0  0  0  0  0  3  0  0  0  0  0  0
  -31.7120  -14.8400   20.1450 N   0  0  0  0  0  0  0  0  0  0  0  0
  -26.5750  -13.7040   20.3750 C   0  0  0  0  0  0  0  0  0  0  0  0
  -25.4110  -13.1590   20.8430 C   0  0  0  0  0  0  0  0  0  0  0  0
  -25.5460  -11.7440   20.6880 C   0  0  0  0  0  0  0  0  0  0  0  0
  -27.3590  -12.6370   19.9660 N   0  0  0  0  0  0  0  0  0  0  0  0
  -26.7490  -11.4490   20.2130 N   0  0  0  0  0  0  0  0  0  0  0  0
  -24.5810  -10.6600   20.9140 C   0  0  0  0  0  0  0  0  0  0  0  0
  -24.8840   -9.5630   21.7500 C   0  0  0  0  0  3  0  0  0  0  0  0
  -23.9330   -8.5430   21.9640 C   0  0  0  0  0  3  0  0  0  0  0  0
  -22.6640   -8.6130   21.3430 C   0  0  0  0  0  0  0  0  0  0  0  0
  -22.3750   -9.6970   20.4950 C   0  0  0  0  0  3  0  0  0  0  0  0
  -23.3240  -10.7090   20.2790 C   0  0  0  0  0  3  0  0  0  0  0  0
  -21.6870   -7.6560   21.4740 O   0  0  0  0  0  0  0  0  0  0  0  0
  -21.5960   -6.8670   22.5930 C   0  0  0  0  0  0  0  0  0  0  0  0
  -21.3810   -7.4150   23.8760 C   0  0  0  0  0  3  0  0  0  0  0  0
  -21.2240   -6.5640   24.9880 C   0  0  0  0  0  3  0  0  0  0  0  0
  -21.2750   -5.1680   24.8190 C   0  0  0  0  0  0  0  0  0  0  0  0
  -21.4820   -4.6200   23.5420 C   0  0  0  0  0  3  0  0  0  0  0  0
  -21.6400   -5.4680   22.4310 C   0  0  0  0  0  0  0  0  0  0  0  0
  -21.8190   -4.9340   21.1980 F   0  0  0  0  0  0  0  0  0  0  0  0
  -21.1160   -4.3490   25.8870 F   0  0  0  0  0  0  0  0  0  0  0  0
  -24.1970  -13.9060   21.3210 C   0  0  0  0  0  0  0  0  0  0  0  0
  -23.4650  -13.3450   22.2750 N   0  0  0  0  0  0  0  0  0  0  0  0
  -23.9180  -15.0210   20.8780 O   0  0  0  0  0  0  0  0  0  0  0  0
  -23.7020  -12.4390   22.6520 H   0  0  0  0  0  0  0  0  0  0  0  0
  -22.6540  -13.8280   22.6360 H   0  0  0  0  0  0  0  0  0  0  0  0
  -27.0270  -15.0140   20.2410 N   0  0  0  0  0  0  0  0  0  0  0  0
  -26.4620  -15.8180   20.4950 H   0  0  0  0  0  0  0  0  0  0  0  0
  -27.9280  -15.2680   19.8590 H   0  0  0  0  0  0  0  0  0  0  0  0
  1  2  1  0
  3  1  2  0
  4  2  2  0
  4 54  1  0
  5  6  2  0
  5  3  1  0
  6  4  1  0
  7  5  1  0
  8  6  1  0
  9  8  1  0
 10  8  1  0
 11  3  1  0
 12 13  1  0
 12 11  1  0
 13 15  1  0
 14 25  2  0
 15 20  1  0
 16 24  1  0
 16 26  1  0
 17 23  1  0
 17 19  1  0
 18 24  1  0
 19 18  1  0
 20 19  2  0
 21 22  1  0
 21 15  2  0
 22 17  2  0
 23 16  1  0
 24 14  1  0
 26 28  2  0
 27 26  1  0
 29 27  1  0
 30 39  2  0
 30 35  1  0
 31 27  1  0
 31 35  1  0
 32 31  1  0
 33 34  1  0
 33 32  1  0
 34 30  1  0
 35 36  2  0
 36 37  1  0
 38 37  2  0
 39 38  1  0
 40 14  1  0
 40 41  1  0
 40 50  1  0
 41 44  1  0
 42 46  1  0
 42 41  1  0
 43 42  2  0
 46 45  1  0
 46 48  1  0
 48 49  1  0
 48 47  1  0
 50 53  1  1
 50 51  1  0
 52 50  1  0
 55 54  1  0
 56 62  1  0
 56 69  1  0
 57 62  1  0
 58 59  1  0
 58 57  1  0
 60 59  1  0
 60 73  1  0
 60 61  1  0
 62 61  1  0
 63 56  2  0
 64 68  1  0
 66 64  1  0
 66 69  1  0
 67 65  1  0
 68 55  1  0
 68 65  1  0
 69 67  1  0
 70 71  2  0
 71 90  1  0
 72 71  1  0
 72 75  1  0
 73 74  1  0
 73 70  1  0
 74 72  2  0
 75 76  1  0
 76 77  2  0
 78 81  1  0
 78 77  1  0
 79 78  2  0
 80 79  1  0
 80 75  2  0
 81 82  1  0
 82 83  1  0
 83 84  2  0
 85 84  1  0
 85 89  1  0
 86 85  2  0
 87 82  2  0
 87 86  1  0
 88 87  1  0
 90 91  1  0
 91 94  1  0
 91 93  1  0
 92 90  2  0
 95 70  1  0
 95 96  1  0
 97 95  1  0
M  ISO  4  12 101  13 101  56 100  69 100
M  END
>  <TORSDO>  (17) 
F 21

>  <SCORE>  (17) 
-10.956

>  <name>  (17) 
16

>  <ligand_id>  (17) 
16

>  <original_smiles>  (17) 
[H]c1c([H])c([H])c2c(c1[H])C([H])([H])C([H])([H])C([H])([H])C2([H])N([H])C(=O)C1([H])N(C(=O)C([H])(N([H])C(=O)C([H])(N([H])C([H])([H])[H])C([H])([H])[H])C(C([H])([H])[H])(C([H])([H])[H])C([H])([H])[H])C([H])([H])c2c([H])c(OC([H])([H])C([H])([H])c3c([H])c([H])c(C([H])([H])C([H])([H])C4([H])C([H])([H])C([H])([H])N(C(=O)N5C([H])([H])C([H])([H])C([H])([H])C([H])(n6nc(-c7c([H])c([H])c(Oc8c([H])c([H])c(F)c([H])c8F)c([H])c7[H])c(C(=O)N([H])[H])c6N([H])[H])C5([H])[H])C([H])([H])C4([H])[H])c(N([H])[H])c3C([H])([H])[H])c([H])c([H])c2C1([H])[H]

>  <smiles>  (17) 
[H]c1c([H])c([H])c2c(c1[H])C([H])([H])C([H])([H])C([H])([H])C2([H])N([H])C(=O)C1([H])N(C(=O)C([H])(N([H])C(=O)C([H])(N([H])C([H])([H])[H])C([H])([H])[H])C(C([H])([H])[H])(C([H])([H])[H])C([H])([H])[H])C([H])([H])c2c([H])c(OC([H])([H])C([H])([H])c3c([H])c([H])c(C([H])([H])C([H])([H])C4([H])C([H])([H])C([H])([H])N(C(=O)N5C([H])([H])C([H])([H])C([H])([H])C([H])(n6nc(-c7c([H])c([H])c(Oc8c([H])c([H])c(F)c([H])c8F)c([H])c7[H])c(C(=O)N([H])[H])c6N([H])[H])C5([H])[H])C([H])([H])C4([H])[H])c(N([H])[H])c3C([H])([H])[H])c([H])c([H])c2C1([H])[H]

$$$$
17:0:0
     RDKit          3D

 94101  0  0  1  0  0  0  0  0999 V2000
  -31.1360  -22.5770   19.3750 C   0  0  0  0  0  3  0  0  0  0  0  0
  -29.8080  -23.2550   19.2870 N   0  0  0  0  0  4  0  0  0  0  0  0
  -29.4480  -23.1360   18.3530 H   0  0  0  0  0  0  0  0  0  0  0  0
  -29.1820  -22.7630   19.9040 H   0  0  0  0  0  0  0  0  0  0  0  0
  -29.7740  -24.7040   19.6550 C   0  0  0  0  0  2  0  0  0  0  0  0
  -28.3500  -25.2960   19.7090 C   0  0  0  0  0  2  0  0  0  0  0  0
  -28.3900  -26.6810   20.0990 O   0  0  0  0  0  0  0  0  0  0  0  0
  -24.6150  -31.8810   23.2300 C   0  0  0  0  0  0  0  0  0  0  0  0
  -27.2010  -27.3930   20.1280 C   0  0  0  0  0  0  0  0  0  0  0  0
  -23.3850  -30.4730   21.6170 C   0  0  0  0  0  3  0  0  0  0  0  0
  -24.8100  -28.9200   20.1890 C   0  0  0  0  0  0  0  0  0  0  0  0
  -25.9140  -30.8100   21.3900 C   0  0  0  0  0  2  0  0  0  0  0  0
  -25.9830  -29.4360   20.7530 C   0  0  0  0  0  0  0  0  0  0  0  0
  -27.1800  -28.6800   20.7180 C   0  0  0  0  0  3  0  0  0  0  0  0
  -25.9980  -26.8910   19.5750 C   0  0  0  0  0  3  0  0  0  0  0  0
  -24.8130  -27.6460   19.6010 C   0  0  0  0  0  3  0  0  0  0  0  0
  -23.5720  -29.7860   20.2410 C   0  0  0  0  0  2  0  0  0  0  0  0
  -24.6570  -31.0710   22.1360 N   0  0  0  0  0  0  0  0  0  0  0  0
  -23.5420  -32.1610   23.7830 O   0  0  0  0  0  0  0  0  0  0  0  0
  -22.7410  -29.4600   22.5920 C   0  0  0  0  0  0  0  0  0  0  0  0
  -21.4190  -29.2650   22.4660 N   0  0  0  0  0  0  0  0  0  0  0  0
  -23.4300  -28.8520   23.4160 O   0  0  0  0  0  0  0  0  0  0  0  0
  -20.9260  -29.7940   21.7600 H   0  0  0  0  0  0  0  0  0  0  0  0
  -18.0570  -28.0440   22.9760 C   0  0  0  0  0  0  0  0  0  0  0  0
  -20.6110  -28.3380   23.2570 C   0  0  0  0  0  3  0  0  0  0  0  0
  -20.7360  -26.8960   22.7120 C   0  0  0  0  0  2  0  0  0  0  0  0
  -19.6440  -26.5400   21.6990 C   0  0  0  0  0  2  0  0  0  0  0  0
  -18.2550  -26.6840   22.3290 C   0  0  0  0  0  2  0  0  0  0  0  0
  -19.1640  -28.8260   23.3970 C   0  0  0  0  0  0  0  0  0  0  0  0
  -18.9280  -30.1010   23.9590 C   0  0  0  0  0  3  0  0  0  0  0  0
  -17.6170  -30.5890   24.1110 C   0  0  0  0  0  3  0  0  0  0  0  0
  -16.5240  -29.8020   23.7080 C   0  0  0  0  0  3  0  0  0  0  0  0
  -16.7460  -28.5330   23.1440 C   0  0  0  0  0  3  0  0  0  0  0  0
  -25.9110  -32.5140   23.8260 C   0  0  0  0  0  3  0  0  0  0  0  0
  -26.4490  -31.7480   25.0960 C   0  0  1  0  0  0  0  0  0  0  0  0
  -25.3740  -31.5190   26.1830 C   0  0  0  0  0  1  0  0  0  0  0  0
  -27.0230  -30.3670   24.7040 C   0  0  0  0  0  1  0  0  0  0  0  0
  -27.6120  -32.5460   25.7350 C   0  0  0  0  0  1  0  0  0  0  0  0
  -25.6090  -33.9130   24.1530 N   0  0  0  0  0  0  0  0  0  0  0  0
  -25.9290  -34.9630   23.3840 C   0  0  0  0  0  0  0  0  0  0  0  0
  -26.5830  -34.8540   22.3430 O   0  0  0  0  0  0  0  0  0  0  0  0
  -25.0300  -34.0700   24.9640 H   0  0  0  0  0  0  0  0  0  0  0  0
  -24.1950  -36.7520   23.0420 C   0  0  0  0  0  1  0  0  0  0  0  0
  -25.4460  -36.3530   23.8400 C   0  0  0  0  0  3  0  0  0  0  0  0
  -27.5900  -37.2400   24.6410 C   0  0  0  0  0  1  0  0  0  0  0  0
  -26.4770  -37.4050   23.7110 N   0  0  0  0  0  0  0  0  0  0  0  0
  -26.0730  -38.3250   23.8630 H   0  0  0  0  0  0  0  0  0  0  0  0
  -31.0130  -21.0530   19.0690 C   0  0  0  0  0  2  0  0  0  0  0  0
  -30.3070  -20.2070   20.1510 C   0  0  0  0  0  2  0  0  0  0  0  0
  -30.4690  -18.6790   19.9470 C   0  0  0  0  0  2  0  0  0  0  0  0
  -29.6640  -17.8350   20.9680 C   0  0  0  0  0  2  0  0  0  0  0  0
  -30.4260  -16.6440   21.6040 C   0  0  0  0  0  2  0  0  0  0  0  0
  -30.6440  -14.4250   20.4200 C   0  0  0  0  0  0  0  0  0  0  0  0
  -30.3250  -12.3310   19.1470 C   0  0  0  0  0  2  0  0  0  0  0  0
  -29.3310  -12.5750   17.9940 C   0  0  0  0  0  2  0  0  0  0  0  0
  -27.8730  -12.4230   18.4770 C   0  0  0  0  0  2  0  0  0  0  0  0
  -27.5890  -13.2280   19.7740 C   0  0  0  0  0  3  0  0  0  0  0  0
  -28.6720  -12.9160   20.8270 C   0  0  0  0  0  2  0  0  0  0  0  0
  -29.9800  -13.2550   20.2370 N   0  0  0  0  0  0  0  0  0  0  0  0
  -31.7360  -14.6780   19.8980 O   0  0  0  0  0  0  0  0  0  0  0  0
  -29.9720  -15.3290   21.1510 N   0  0  0  0  0  0  0  0  0  0  0  0
  -29.0690  -15.0170   21.4830 H   0  0  0  0  0  0  0  0  0  0  0  0
  -25.2160  -13.8590   20.5610 C   0  0  0  0  0  0  0  0  0  0  0  0
  -24.1520  -13.0960   20.9560 C   0  0  0  0  0  0  0  0  0  0  0  0
  -24.5970  -11.7400   20.8960 C   0  0  0  0  0  0  0  0  0  0  0  0
  -26.2460  -12.9700   20.2890 N   0  0  0  0  0  0  0  0  0  0  0  0
  -25.8750  -11.6900   20.5430 N   0  0  0  0  0  0  0  0  0  0  0  0
  -23.8650  -10.4840   21.0940 C   0  0  0  0  0  0  0  0  0  0  0  0
  -24.3300   -9.4970   21.9910 C   0  0  0  0  0  3  0  0  0  0  0  0
  -23.6040   -8.3010   22.1820 C   0  0  0  0  0  3  0  0  0  0  0  0
  -22.3980   -8.0840   21.4740 C   0  0  0  0  0  0  0  0  0  0  0  0
  -21.9530   -9.0580   20.5630 C   0  0  0  0  0  3  0  0  0  0  0  0
  -22.6790  -10.2460   20.3730 C   0  0  0  0  0  3  0  0  0  0  0  0
  -21.6400   -6.9440   21.5720 O   0  0  0  0  0  0  0  0  0  0  0  0
  -21.6440   -6.1720   22.7060 C   0  0  0  0  0  0  0  0  0  0  0  0
  -21.2950   -6.6990   23.9680 C   0  0  0  0  0  3  0  0  0  0  0  0
  -21.2470   -5.8560   25.0960 C   0  0  0  0  0  3  0  0  0  0  0  0
  -21.5360   -4.4850   24.9620 C   0  0  0  0  0  0  0  0  0  0  0  0
  -21.8780   -3.9560   23.7040 C   0  0  0  0  0  3  0  0  0  0  0  0
  -21.9300   -4.7980   22.5810 C   0  0  0  0  0  0  0  0  0  0  0  0
  -22.2410   -4.2790   21.3680 F   0  0  0  0  0  0  0  0  0  0  0  0
  -21.4840   -3.6730   26.0430 F   0  0  0  0  0  0  0  0  0  0  0  0
  -22.7670  -13.5800   21.2770 C   0  0  0  0  0  0  0  0  0  0  0  0
  -22.0620  -12.8830   22.1600 N   0  0  0  0  0  0  0  0  0  0  0  0
  -22.3190  -14.6130   20.7780 O   0  0  0  0  0  0  0  0  0  0  0  0
  -22.4400  -12.0480   22.5880 H   0  0  0  0  0  0  0  0  0  0  0  0
  -21.1310  -13.1820   22.4080 H   0  0  0  0  0  0  0  0  0  0  0  0
  -25.3870  -15.2300   20.3910 N   0  0  0  0  0  0  0  0  0  0  0  0
  -24.6270  -15.8900   20.5250 H   0  0  0  0  0  0  0  0  0  0  0  0
  -26.2300  -15.6630   20.0330 H   0  0  0  0  0  0  0  0  0  0  0  0
  -32.2020  -23.2250   18.4410 C   0  0  0  0  0  2  0  0  0  0  0  0
  -33.0650  -24.3440   19.0620 C   0  0  0  0  0  2  0  0  0  0  0  0
  -33.7520  -23.8990   20.2160 O   0  0  0  0  0  0  0  0  0  0  0  0
  -34.1690  -24.6580   20.6170 H   0  0  0  0  0  0  0  0  0  0  0  0
  1 91  1  0
  2  1  1  0
  2  5  1  0
  2  4  1  0
  3  2  1  0
  5  6  1  0
  6  7  1  0
  7  9  1  0
  8 19  2  0
  9 14  1  0
 10 18  1  0
 10 20  1  0
 11 17  1  0
 11 13  1  0
 12 18  1  0
 13 12  1  0
 14 13  2  0
 15 16  1  0
 15  9  2  0
 16 11  2  0
 17 10  1  0
 18  8  1  0
 20 22  2  0
 21 20  1  0
 23 21  1  0
 24 33  2  0
 24 29  1  0
 25 21  1  0
 25 29  1  0
 26 25  1  0
 27 28  1  0
 27 26  1  0
 28 24  1  0
 29 30  2  0
 30 31  1  0
 32 31  2  0
 33 32  1  0
 34  8  1  0
 34 39  1  0
 34 35  1  0
 35 38  1  1
 35 36  1  0
 37 35  1  0
 39 42  1  0
 40 44  1  0
 40 39  1  0
 41 40  2  0
 44 43  1  0
 46 44  1  0
 46 47  1  0
 46 45  1  0
 48  1  1  0
 48 49  1  0
 50 49  1  0
 50 51  1  0
 51 52  1  0
 53 61  1  0
 54 59  1  0
 55 56  1  0
 55 54  1  0
 57 56  1  0
 57 66  1  0
 57 58  1  0
 59 53  1  0
 59 58  1  0
 60 53  2  0
 61 62  1  0
 61 52  1  0
 63 64  2  0
 64 83  1  0
 65 64  1  0
 65 68  1  0
 66 67  1  0
 66 63  1  0
 67 65  2  0
 68 69  1  0
 69 70  2  0
 71 74  1  0
 71 70  1  0
 72 71  2  0
 73 72  1  0
 73 68  2  0
 74 75  1  0
 75 76  1  0
 76 77  2  0
 78 77  1  0
 78 82  1  0
 79 78  2  0
 80 75  2  0
 80 79  1  0
 81 80  1  0
 83 84  1  0
 84 87  1  0
 84 86  1  0
 85 83  2  0
 88 89  1  0
 88 63  1  0
 90 88  1  0
 91 92  1  0
 92 93  1  0
 93 94  1  0
M  ISO  4   6 101   7 101  53 100  61 100
M  END
>  <TORSDO>  (18) 
F 27

>  <SCORE>  (18) 
-11.675

>  <name>  (18) 
17

>  <ligand_id>  (18) 
17

>  <original_smiles>  (18) 
[H]OC([H])([H])C([H])([H])C([H])(C([H])([H])C([H])([H])C([H])([H])C([H])([H])C([H])([H])N([H])C(=O)N1C([H])([H])C([H])([H])C([H])([H])C([H])(n2nc(-c3c([H])c([H])c(Oc4c([H])c([H])c(F)c([H])c4F)c([H])c3[H])c(C(=O)N([H])[H])c2N([H])[H])C1([H])[H])[N+]([H])([H])C([H])([H])C([H])([H])Oc1c([H])c([H])c2c(c1[H])C([H])([H])N(C(=O)C([H])(N([H])C(=O)C([H])(N([H])C([H])([H])[H])C([H])([H])[H])C(C([H])([H])[H])(C([H])([H])[H])C([H])([H])[H])C([H])(C(=O)N([H])C1([H])c3c([H])c([H])c([H])c([H])c3C([H])([H])C([H])([H])C1([H])[H])C2([H])[H]

>  <smiles>  (18) 
[H]OC([H])([H])C([H])([H])C([H])(C([H])([H])C([H])([H])C([H])([H])C([H])([H])C([H])([H])N([H])C(=O)N1C([H])([H])C([H])([H])C([H])([H])C([H])(n2nc(-c3c([H])c([H])c(Oc4c([H])c([H])c(F)c([H])c4F)c([H])c3[H])c(C(=O)N([H])[H])c2N([H])[H])C1([H])[H])[N+]([H])([H])C([H])([H])C([H])([H])Oc1c([H])c([H])c2c(c1[H])C([H])([H])N(C(=O)C([H])(N([H])C(=O)C([H])(N([H])C([H])([H])[H])C([H])([H])[H])C(C([H])([H])[H])(C([H])([H])[H])C([H])([H])[H])C([H])(C(=O)N([H])C1([H])c3c([H])c([H])c([H])c([H])c3C([H])([H])C([H])([H])C1([H])[H])C2([H])[H]

$$$$
18:0:0
     RDKit          3D

 89 96  0  0  1  0  0  0  0  0999 V2000
  -28.6990  -22.7530   20.4650 C   0  0  0  0  0  3  0  0  0  0  0  0
  -28.6590  -21.3330   20.0300 C   0  0  0  0  0  0  0  0  0  0  0  0
  -27.9020  -24.2470   19.9900 C   0  0  0  0  0  2  0  0  0  0  0  0
  -28.1590  -25.8470   20.3250 O   0  0  0  0  0  0  0  0  0  0  0  0
  -24.6200  -31.8790   23.2140 C   0  0  0  0  0  0  0  0  0  0  0  0
  -27.1680  -26.9680   20.2260 C   0  0  0  0  0  0  0  0  0  0  0  0
  -23.4260  -30.4730   21.5830 C   0  0  0  0  0  3  0  0  0  0  0  0
  -24.8740  -28.8620   20.1670 C   0  0  0  0  0  0  0  0  0  0  0  0
  -25.9940  -30.6770   21.4400 C   0  0  0  0  0  2  0  0  0  0  0  0
  -26.0620  -29.2640   20.7890 C   0  0  0  0  0  0  0  0  0  0  0  0
  -27.2030  -28.3370   20.7970 C   0  0  0  0  0  3  0  0  0  0  0  0
  -25.9530  -26.7270   19.5430 C   0  0  0  0  0  3  0  0  0  0  0  0
  -24.8460  -27.6150   19.5230 C   0  0  0  0  0  3  0  0  0  0  0  0
  -23.6550  -29.7830   20.2100 C   0  0  0  0  0  2  0  0  0  0  0  0
  -24.7020  -31.0380   22.1320 N   0  0  0  0  0  0  0  0  0  0  0  0
  -23.5300  -32.1750   23.7310 O   0  0  0  0  0  0  0  0  0  0  0  0
  -22.7300  -29.4850   22.5550 C   0  0  0  0  0  0  0  0  0  0  0  0
  -21.3990  -29.3230   22.4330 N   0  0  0  0  0  0  0  0  0  0  0  0
  -23.3940  -28.8640   23.3880 O   0  0  0  0  0  0  0  0  0  0  0  0
  -20.9170  -29.8720   21.7350 H   0  0  0  0  0  0  0  0  0  0  0  0
  -18.0130  -28.1310   22.9560 C   0  0  0  0  0  0  0  0  0  0  0  0
  -20.5750  -28.3920   23.2110 C   0  0  0  0  0  3  0  0  0  0  0  0
  -20.6690  -26.9570   22.6410 C   0  0  0  0  0  2  0  0  0  0  0  0
  -19.5640  -26.6350   21.6310 C   0  0  0  0  0  2  0  0  0  0  0  0
  -18.1850  -26.7810   22.2800 C   0  0  0  0  0  2  0  0  0  0  0  0
  -19.1350  -28.8940   23.3790 C   0  0  0  0  0  0  0  0  0  0  0  0
  -18.9150  -30.1550   23.9750 C   0  0  0  0  0  3  0  0  0  0  0  0
  -17.6110  -30.6540   24.1500 C   0  0  0  0  0  3  0  0  0  0  0  0
  -16.5050  -29.8870   23.7420 C   0  0  0  0  0  3  0  0  0  0  0  0
  -16.7070  -28.6270   23.1510 C   0  0  0  0  0  3  0  0  0  0  0  0
  -25.8910  -32.5250   23.8430 C   0  0  0  0  0  3  0  0  0  0  0  0
  -25.5750  -33.9270   24.1680 N   0  0  0  0  0  0  0  0  0  0  0  0
  -25.9120  -34.9840   23.4180 C   0  0  0  0  0  0  0  0  0  0  0  0
  -26.5860  -34.8810   22.3890 O   0  0  0  0  0  0  0  0  0  0  0  0
  -24.9720  -34.0800   24.9630 H   0  0  0  0  0  0  0  0  0  0  0  0
  -24.1990  -36.7950   23.0620 C   0  0  0  0  0  1  0  0  0  0  0  0
  -25.4310  -36.3760   23.8780 C   0  0  0  0  0  3  0  0  0  0  0  0
  -27.5630  -37.2540   24.7310 C   0  0  0  0  0  1  0  0  0  0  0  0
  -26.4710  -37.4240   23.7750 N   0  0  0  0  0  0  0  0  0  0  0  0
  -26.0680  -38.3460   23.9160 H   0  0  0  0  0  0  0  0  0  0  0  0
  -26.3930  -31.7670   25.1350 C   0  0  1  0  0  0  0  0  0  0  0  0
  -25.2900  -31.5430   26.1980 C   0  0  0  0  0  1  0  0  0  0  0  0
  -26.9770  -30.3820   24.7730 C   0  0  0  0  0  1  0  0  0  0  0  0
  -27.5420  -32.5670   25.7960 C   0  0  0  0  0  1  0  0  0  0  0  0
  -29.2870  -19.7990   20.6250 C   0  0  0  0  0  2  0  0  0  0  0  0
  -29.7690  -18.2240   19.8640 C   0  0  0  0  0  2  0  0  0  0  0  0
  -30.4680  -15.3420   20.1470 C   0  0  0  0  0  0  0  0  0  0  0  0
  -30.4210  -12.8970   19.2720 C   0  0  0  0  0  2  0  0  0  0  0  0
  -29.4810  -12.7220   18.0520 C   0  0  0  0  0  2  0  0  0  0  0  0
  -28.0410  -12.4430   18.5180 C   0  0  0  0  0  2  0  0  0  0  0  0
  -27.6140  -13.3890   19.6670 C   0  0  0  0  0  3  0  0  0  0  0  0
  -28.6840  -13.5280   20.7730 C   0  0  0  0  0  2  0  0  0  0  0  0
  -29.9070  -14.0310   20.1290 N   0  0  0  0  0  0  0  0  0  0  0  0
  -31.6650  -15.3530   19.8240 O   0  0  0  0  0  0  0  0  0  0  0  0
  -29.7070  -16.6080   20.3290 N   0  0  0  0  0  0  0  0  0  0  0  0
  -28.7840  -16.3790   20.6690 H   0  0  0  0  0  0  0  0  0  0  0  0
  -25.2640  -13.9340   20.4790 C   0  0  0  0  0  0  0  0  0  0  0  0
  -24.2120  -13.1510   20.8670 C   0  0  0  0  0  0  0  0  0  0  0  0
  -24.6810  -11.8020   20.8120 C   0  0  0  0  0  0  0  0  0  0  0  0
  -26.3000  -13.0630   20.2010 N   0  0  0  0  0  0  0  0  0  0  0  0
  -25.9650  -11.7740   20.4690 N   0  0  0  0  0  0  0  0  0  0  0  0
  -23.9590  -10.5360   21.0050 C   0  0  0  0  0  0  0  0  0  0  0  0
  -24.4040   -9.5640   21.9280 C   0  0  0  0  0  3  0  0  0  0  0  0
  -23.6790   -8.3670   22.1110 C   0  0  0  0  0  3  0  0  0  0  0  0
  -22.4960   -8.1320   21.3710 C   0  0  0  0  0  0  0  0  0  0  0  0
  -22.0690   -9.0920   20.4370 C   0  0  0  0  0  3  0  0  0  0  0  0
  -22.7950  -10.2810   20.2530 C   0  0  0  0  0  3  0  0  0  0  0  0
  -21.7420   -6.9870   21.4650 O   0  0  0  0  0  0  0  0  0  0  0  0
  -21.6990   -6.2440   22.6170 C   0  0  0  0  0  0  0  0  0  0  0  0
  -21.2660   -6.7940   23.8440 C   0  0  0  0  0  3  0  0  0  0  0  0
  -21.1720   -5.9790   24.9880 C   0  0  0  0  0  3  0  0  0  0  0  0
  -21.5030   -4.6120   24.9070 C   0  0  0  0  0  0  0  0  0  0  0  0
  -21.9260   -4.0610   23.6870 C   0  0  0  0  0  3  0  0  0  0  0  0
  -22.0230   -4.8750   22.5440 C   0  0  0  0  0  0  0  0  0  0  0  0
  -22.4130   -4.3330   21.3650 F   0  0  0  0  0  0  0  0  0  0  0  0
  -21.4030   -3.8260   26.0050 F   0  0  0  0  0  0  0  0  0  0  0  0
  -22.8200  -13.6240   21.1700 C   0  0  0  0  0  0  0  0  0  0  0  0
  -22.1070  -12.9170   22.0390 N   0  0  0  0  0  0  0  0  0  0  0  0
  -22.3730  -14.6550   20.6680 O   0  0  0  0  0  0  0  0  0  0  0  0
  -22.4810  -12.0810   22.4630 H   0  0  0  0  0  0  0  0  0  0  0  0
  -21.1750  -13.2170   22.2860 H   0  0  0  0  0  0  0  0  0  0  0  0
  -25.4190  -15.3060   20.3070 N   0  0  0  0  0  0  0  0  0  0  0  0
  -24.6480  -15.9540   20.4220 H   0  0  0  0  0  0  0  0  0  0  0  0
  -26.2470  -15.7390   19.9160 H   0  0  0  0  0  0  0  0  0  0  0  0
  -27.7610  -21.0500   18.8370 C   0  0  0  0  0  2  0  0  0  0  0  0
  -28.5490  -20.9840   17.6010 N   0  0  0  0  0  4  0  0  0  0  0  0
  -28.9790  -21.8740   17.4240 H   0  0  0  0  0  0  0  0  0  0  0  0
  -27.9490  -20.7630   16.8250 H   0  0  0  0  0  0  0  0  0  0  0  0
  -29.2670  -20.2860   17.6610 H   0  0  0  0  0  0  0  0  0  0  0  0
  2  1  2  0
  2 45  1  0
  3  4  1  0
  3  1  1  0
  5 16  2  0
  6  4  1  0
  6 11  1  0
  7 15  1  0
  7 17  1  0
  8 14  1  0
  8 10  1  0
  9 15  1  0
 10 11  2  0
 10  9  1  0
 12  6  2  0
 13 12  1  0
 13  8  2  0
 14  7  1  0
 15  5  1  0
 17 19  2  0
 18 17  1  0
 20 18  1  0
 21 30  2  0
 21 26  1  0
 22 18  1  0
 22 26  1  0
 23 22  1  0
 24 25  1  0
 24 23  1  0
 25 21  1  0
 26 27  2  0
 27 28  1  0
 29 28  2  0
 30 29  1  0
 31  5  1  0
 31 32  1  0
 31 41  1  0
 32 35  1  0
 33 37  1  0
 33 32  1  0
 34 33  2  0
 37 36  1  0
 39 37  1  0
 39 40  1  0
 39 38  1  0
 41 44  1  1
 41 42  1  0
 43 41  1  0
 46 55  1  0
 46 45  1  0
 47 55  1  0
 48 53  1  0
 49 50  1  0
 49 48  1  0
 51 50  1  0
 51 60  1  0
 51 52  1  0
 53 47  1  0
 53 52  1  0
 54 47  2  0
 55 56  1  0
 57 58  2  0
 58 77  1  0
 59 58  1  0
 59 62  1  0
 60 61  1  0
 60 57  1  0
 61 59  2  0
 62 63  1  0
 63 64  2  0
 65 68  1  0
 65 64  1  0
 66 65  2  0
 67 66  1  0
 67 62  2  0
 68 69  1  0
 69 70  1  0
 70 71  2  0
 72 71  1  0
 72 76  1  0
 73 72  2  0
 74 69  2  0
 74 73  1  0
 75 74  1  0
 77 78  1  0
 78 81  1  0
 78 80  1  0
 79 77  2  0
 82 83  1  0
 82 57  1  0
 84 82  1  0
 85  2  1  0
 86 89  1  0
 86 85  1  0
 87 86  1  0
 88 86  1  0
M  ISO  4   3 101   4 101  47 100  55 100
M  END
>  <TORSDO>  (19) 
F 21

>  <SCORE>  (19) 
-15.780

>  <name>  (19) 
18

>  <ligand_id>  (19) 
18

>  <original_smiles>  (19) 
[H]C(=C(C([H])([H])C([H])([H])N([H])C(=O)N1C([H])([H])C([H])([H])C([H])([H])C([H])(n2nc(-c3c([H])c([H])c(Oc4c([H])c([H])c(F)c([H])c4F)c([H])c3[H])c(C(=O)N([H])[H])c2N([H])[H])C1([H])[H])C([H])([H])[N+]([H])([H])[H])C([H])([H])Oc1c([H])c([H])c2c(c1[H])C([H])([H])N(C(=O)C([H])(N([H])C(=O)C([H])(N([H])C([H])([H])[H])C([H])([H])[H])C(C([H])([H])[H])(C([H])([H])[H])C([H])([H])[H])C([H])(C(=O)N([H])C1([H])c3c([H])c([H])c([H])c([H])c3C([H])([H])C([H])([H])C1([H])[H])C2([H])[H]

>  <smiles>  (19) 
[H]C(=C(C([H])([H])C([H])([H])N([H])C(=O)N1C([H])([H])C([H])([H])C([H])([H])C([H])(n2nc(-c3c([H])c([H])c(Oc4c([H])c([H])c(F)c([H])c4F)c([H])c3[H])c(C(=O)N([H])[H])c2N([H])[H])C1([H])[H])C([H])([H])[N+]([H])([H])[H])C([H])([H])Oc1c([H])c([H])c2c(c1[H])C([H])([H])N(C(=O)C([H])(N([H])C(=O)C([H])(N([H])C([H])([H])[H])C([H])([H])[H])C(C([H])([H])[H])(C([H])([H])[H])C([H])([H])[H])C([H])(C(=O)N([H])C1([H])c3c([H])c([H])c([H])c([H])c3C([H])([H])C([H])([H])C1([H])[H])C2([H])[H]

$$$$
19:0:0
     RDKit          3D

 95104  0  0  1  0  0  0  0  0999 V2000
  -29.7040  -23.7070   17.3060 C   0  0  0  0  0  3  0  0  0  0  0  0
  -31.2160  -22.8300   19.0060 C   0  0  0  0  0  3  0  0  0  0  0  0
  -29.8360  -24.9960   17.8560 C   0  0  0  0  0  3  0  0  0  0  0  0
  -31.3410  -24.1150   19.5610 C   0  0  0  0  0  3  0  0  0  0  0  0
  -30.3960  -22.6210   17.8800 C   0  0  0  0  0  0  0  0  0  0  0  0
  -30.6490  -25.2060   18.9940 C   0  0  0  0  0  0  0  0  0  0  0  0
  -30.2980  -21.2370   17.2720 C   0  0  0  0  0  2  0  0  0  0  0  0
  -29.5060  -20.2420   18.1420 C   0  0  0  0  0  2  0  0  0  0  0  0
  -28.3480  -17.9440   17.9620 C   0  0  0  0  0  2  0  0  0  0  0  0
  -30.9140  -18.1090   17.8690 C   0  0  0  0  0  2  0  0  0  0  0  0
  -28.4840  -17.2910   19.3480 C   0  0  0  0  0  2  0  0  0  0  0  0
  -30.9710  -17.4740   19.2730 C   0  0  0  0  0  2  0  0  0  0  0  0
  -29.5670  -18.8140   17.5640 C   0  0  0  0  0  3  0  0  0  0  0  0
  -29.7940  -16.4910   19.4050 C   0  0  0  0  0  3  0  0  0  0  0  0
  -30.6370  -14.4640   20.4760 C   0  0  0  0  0  0  0  0  0  0  0  0
  -30.3370  -12.2780   19.4340 C   0  0  0  0  0  2  0  0  0  0  0  0
  -29.4250  -12.5030   18.2070 C   0  0  0  0  0  2  0  0  0  0  0  0
  -27.9400  -12.3890   18.6070 C   0  0  0  0  0  2  0  0  0  0  0  0
  -27.5880  -13.2280   19.8630 C   0  0  0  0  0  3  0  0  0  0  0  0
  -28.6290  -13.0300   20.9940 C   0  0  0  0  0  2  0  0  0  0  0  0
  -29.9680  -13.2840   20.4400 N   0  0  0  0  0  0  0  0  0  0  0  0
  -31.8110  -14.5880   20.1250 O   0  0  0  0  0  0  0  0  0  0  0  0
  -29.8320  -15.5380   20.5270 N   0  0  0  0  0  0  0  0  0  0  0  0
  -28.9370  -15.3560   20.9510 H   0  0  0  0  0  0  0  0  0  0  0  0
  -25.1780  -13.8440   20.5250 C   0  0  0  0  0  0  0  0  0  0  0  0
  -24.1040  -13.0760   20.8850 C   0  0  0  0  0  0  0  0  0  0  0  0
  -24.5660  -11.7240   20.8760 C   0  0  0  0  0  0  0  0  0  0  0  0
  -26.2270  -12.9610   20.3240 N   0  0  0  0  0  0  0  0  0  0  0  0
  -25.8620  -11.6810   20.5930 N   0  0  0  0  0  0  0  0  0  0  0  0
  -23.8380  -10.4650   21.0700 C   0  0  0  0  0  0  0  0  0  0  0  0
  -24.2720   -9.4970   22.0030 C   0  0  0  0  0  3  0  0  0  0  0  0
  -23.5480   -8.2990   22.1830 C   0  0  0  0  0  3  0  0  0  0  0  0
  -22.3740   -8.0610   21.4300 C   0  0  0  0  0  0  0  0  0  0  0  0
  -21.9580   -9.0180   20.4870 C   0  0  0  0  0  3  0  0  0  0  0  0
  -22.6830  -10.2070   20.3050 C   0  0  0  0  0  3  0  0  0  0  0  0
  -21.6190   -6.9170   21.5200 O   0  0  0  0  0  0  0  0  0  0  0  0
  -21.5890   -6.1610   22.6640 C   0  0  0  0  0  0  0  0  0  0  0  0
  -21.2030   -6.7090   23.9070 C   0  0  0  0  0  3  0  0  0  0  0  0
  -21.1210   -5.8810   25.0450 C   0  0  0  0  0  3  0  0  0  0  0  0
  -21.4120   -4.5090   24.9410 C   0  0  0  0  0  0  0  0  0  0  0  0
  -21.7900   -3.9610   23.7030 C   0  0  0  0  0  3  0  0  0  0  0  0
  -21.8750   -4.7850   22.5670 C   0  0  0  0  0  0  0  0  0  0  0  0
  -22.2200   -4.2490   21.3720 F   0  0  0  0  0  0  0  0  0  0  0  0
  -21.3250   -3.7120   26.0320 F   0  0  0  0  0  0  0  0  0  0  0  0
  -22.7020  -13.5550   21.1280 C   0  0  0  0  0  0  0  0  0  0  0  0
  -21.9600  -12.8680   21.9890 N   0  0  0  0  0  0  0  0  0  0  0  0
  -22.2730  -14.5760   20.5910 O   0  0  0  0  0  0  0  0  0  0  0  0
  -22.3200  -12.0430   22.4470 H   0  0  0  0  0  0  0  0  0  0  0  0
  -21.0190  -13.1720   22.1980 H   0  0  0  0  0  0  0  0  0  0  0  0
  -25.3430  -15.2130   20.3340 N   0  0  0  0  0  0  0  0  0  0  0  0
  -24.5740  -15.8690   20.4170 H   0  0  0  0  0  0  0  0  0  0  0  0
  -26.1930  -15.6420   19.9990 H   0  0  0  0  0  0  0  0  0  0  0  0
  -30.8090  -26.5830   19.6240 C   0  0  0  0  0  2  0  0  0  0  0  0
  -29.5580  -27.4730   19.5810 C   0  0  0  0  0  2  0  0  0  0  0  0
  -28.4290  -26.7670   20.0950 O   0  0  0  0  0  0  0  0  0  0  0  0
  -24.6040  -31.8930   23.2340 C   0  0  0  0  0  0  0  0  0  0  0  0
  -27.2660  -27.4900   20.1540 C   0  0  0  0  0  0  0  0  0  0  0  0
  -23.3880  -30.4750   21.6070 C   0  0  0  0  0  3  0  0  0  0  0  0
  -24.8400  -28.9330   20.1860 C   0  0  0  0  0  0  0  0  0  0  0  0
  -25.9030  -30.8580   21.3820 C   0  0  0  0  0  2  0  0  0  0  0  0
  -25.9930  -29.4840   20.7590 C   0  0  0  0  0  0  0  0  0  0  0  0
  -27.2040  -28.7680   20.7520 C   0  0  0  0  0  3  0  0  0  0  0  0
  -26.0960  -26.9300   19.6030 C   0  0  0  0  0  3  0  0  0  0  0  0
  -24.8830  -27.6490   19.6110 C   0  0  0  0  0  3  0  0  0  0  0  0
  -23.5900  -29.7800   20.2320 C   0  0  0  0  0  2  0  0  0  0  0  0
  -24.6500  -31.0900   22.1340 N   0  0  0  0  0  0  0  0  0  0  0  0
  -23.5270  -32.1640   23.7840 O   0  0  0  0  0  0  0  0  0  0  0  0
  -22.7510  -29.4590   22.5790 C   0  0  0  0  0  0  0  0  0  0  0  0
  -21.4260  -29.2720   22.4600 N   0  0  0  0  0  0  0  0  0  0  0  0
  -23.4420  -28.8400   23.3930 O   0  0  0  0  0  0  0  0  0  0  0  0
  -20.9310  -29.8240   21.7730 H   0  0  0  0  0  0  0  0  0  0  0  0
  -18.0600  -28.0700   22.9700 C   0  0  0  0  0  0  0  0  0  0  0  0
  -20.6160  -28.3380   23.2390 C   0  0  0  0  0  3  0  0  0  0  0  0
  -20.7240  -26.9020   22.6740 C   0  0  0  0  0  2  0  0  0  0  0  0
  -19.6230  -26.5680   21.6630 C   0  0  0  0  0  2  0  0  0  0  0  0
  -18.2410  -26.7150   22.3070 C   0  0  0  0  0  2  0  0  0  0  0  0
  -19.1760  -28.8390   23.3930 C   0  0  0  0  0  0  0  0  0  0  0  0
  -18.9540  -30.1080   23.9700 C   0  0  0  0  0  3  0  0  0  0  0  0
  -17.6490  -30.6080   24.1290 C   0  0  0  0  0  3  0  0  0  0  0  0
  -16.5460  -29.8360   23.7240 C   0  0  0  0  0  3  0  0  0  0  0  0
  -16.7530  -28.5690   23.1500 C   0  0  0  0  0  3  0  0  0  0  0  0
  -25.8960  -32.5280   23.8410 C   0  0  0  0  0  3  0  0  0  0  0  0
  -25.5850  -33.9240   24.1750 N   0  0  0  0  0  0  0  0  0  0  0  0
  -25.9120  -34.9780   23.4140 C   0  0  0  0  0  0  0  0  0  0  0  0
  -26.5770  -34.8770   22.3790 O   0  0  0  0  0  0  0  0  0  0  0  0
  -24.9980  -34.0770   24.9810 H   0  0  0  0  0  0  0  0  0  0  0  0
  -24.1770  -36.7640   23.0650 C   0  0  0  0  0  1  0  0  0  0  0  0
  -25.4210  -36.3640   23.8740 C   0  0  0  0  0  3  0  0  0  0  0  0
  -27.5580  -37.2510   24.6970 C   0  0  0  0  0  1  0  0  0  0  0  0
  -26.4510  -37.4200   23.7600 N   0  0  0  0  0  0  0  0  0  0  0  0
  -26.0440  -38.3380   23.9130 H   0  0  0  0  0  0  0  0  0  0  0  0
  -26.4350  -31.7560   25.1070 C   0  0  1  0  0  0  0  0  0  0  0  0
  -25.3580  -31.5100   26.1900 C   0  0  0  0  0  1  0  0  0  0  0  0
  -27.0170  -30.3840   24.6970 C   0  0  0  0  0  1  0  0  0  0  0  0
  -27.5920  -32.5520   25.7550 C   0  0  0  0  0  1  0  0  0  0  0  0
  1  3  2  0
  1  5  1  0
  2  4  1  0
  3  6  1  0
  5  2  2  0
  6  4  2  0
  6 53  1  0
  7  5  1  0
  7  8  1  0
  9 11  1  0
 10 12  1  0
 11 14  1  0
 12 14  1  0
 13 10  1  0
 13  9  1  0
 13  8  1  0
 14 23  1  0
 15 23  1  0
 16 21  1  0
 17 18  1  0
 17 16  1  0
 19 18  1  0
 19 28  1  0
 19 20  1  0
 21 15  1  0
 21 20  1  0
 22 15  2  0
 23 24  1  0
 25 26  2  0
 26 45  1  0
 27 26  1  0
 27 30  1  0
 28 25  1  0
 28 29  1  0
 29 27  2  0
 30 31  1  0
 31 32  2  0
 33 36  1  0
 33 32  1  0
 34 33  2  0
 35 34  1  0
 35 30  2  0
 36 37  1  0
 37 38  1  0
 38 39  2  0
 40 39  1  0
 40 44  1  0
 41 40  2  0
 42 37  2  0
 42 41  1  0
 43 42  1  0
 45 46  1  0
 46 49  1  0
 46 48  1  0
 47 45  2  0
 50 51  1  0
 50 25  1  0
 52 50  1  0
 54 53  1  0
 54 55  1  0
 55 57  1  0
 56 67  2  0
 57 62  1  0
 58 66  1  0
 58 68  1  0
 59 65  1  0
 59 61  1  0
 60 66  1  0
 61 60  1  0
 62 61  2  0
 63 64  1  0
 63 57  2  0
 64 59  2  0
 65 58  1  0
 66 56  1  0
 68 70  2  0
 69 68  1  0
 71 69  1  0
 72 81  2  0
 72 77  1  0
 73 69  1  0
 73 77  1  0
 74 73  1  0
 75 76  1  0
 75 74  1  0
 76 72  1  0
 77 78  2  0
 78 79  1  0
 80 79  2  0
 81 80  1  0
 82 56  1  0
 82 83  1  0
 82 92  1  0
 83 86  1  0
 84 88  1  0
 84 83  1  0
 85 84  2  0
 88 87  1  0
 90 88  1  0
 90 91  1  0
 90 89  1  0
 92 95  1  1
 92 93  1  0
 94 92  1  0
M  ISO  4  15 100  23 100  54 101  55 101
M  END
>  <TORSDO>  (20) 
F 21

>  <SCORE>  (20) 
-13.543

>  <name>  (20) 
19

>  <ligand_id>  (20) 
19

>  <original_smiles>  (20) 
[H]c1c([H])c([H])c2c(c1[H])C([H])([H])C([H])([H])C([H])([H])C2([H])N([H])C(=O)C1([H])N(C(=O)C([H])(N([H])C(=O)C([H])(N([H])C([H])([H])[H])C([H])([H])[H])C(C([H])([H])[H])(C([H])([H])[H])C([H])([H])[H])C([H])([H])c2c([H])c(OC([H])([H])C([H])([H])c3c([H])c([H])c(C([H])([H])C([H])([H])C4([H])C([H])([H])C([H])([H])C([H])(N([H])C(=O)N5C([H])([H])C([H])([H])C([H])([H])C([H])(n6nc(-c7c([H])c([H])c(Oc8c([H])c([H])c(F)c([H])c8F)c([H])c7[H])c(C(=O)N([H])[H])c6N([H])[H])C5([H])[H])C([H])([H])C4([H])[H])c([H])c3[H])c([H])c([H])c2C1([H])[H]

>  <smiles>  (20) 
[H]c1c([H])c([H])c2c(c1[H])C([H])([H])C([H])([H])C([H])([H])C2([H])N([H])C(=O)C1([H])N(C(=O)C([H])(N([H])C(=O)C([H])(N([H])C([H])([H])[H])C([H])([H])[H])C(C([H])([H])[H])(C([H])([H])[H])C([H])([H])[H])C([H])([H])c2c([H])c(OC([H])([H])C([H])([H])c3c([H])c([H])c(C([H])([H])C([H])([H])C4([H])C([H])([H])C([H])([H])C([H])(N([H])C(=O)N5C([H])([H])C([H])([H])C([H])([H])C([H])(n6nc(-c7c([H])c([H])c(Oc8c([H])c([H])c(F)c([H])c8F)c([H])c7[H])c(C(=O)N([H])[H])c6N([H])[H])C5([H])[H])C([H])([H])C4([H])[H])c([H])c3[H])c([H])c([H])c2C1([H])[H]

$$$$
20:0:0
     RDKit          3D

 95104  0  0  1  0  0  0  0  0999 V2000
  -29.8280  -20.3830   23.1590 C   0  0  0  0  0  3  0  0  0  0  0  0
  -30.1770  -21.7190   23.4160 C   0  0  0  0  0  3  0  0  0  0  0  0
  -30.5380  -20.6440   20.8500 C   0  0  0  0  0  3  0  0  0  0  0  0
  -30.0200  -19.8240   21.8790 C   0  0  0  0  0  0  0  0  0  0  0  0
  -30.8920  -21.9870   21.0970 C   0  0  0  0  0  0  0  0  0  0  0  0
  -30.7170  -22.5220   22.3940 C   0  0  0  0  0  0  0  0  0  0  0  0
  -31.0370  -14.5940   20.1400 C   0  0  0  0  0  0  0  0  0  0  0  0
  -30.6370  -12.4850   18.9360 C   0  0  0  0  0  2  0  0  0  0  0  0
  -29.6250  -12.7020   17.7920 C   0  0  0  0  0  2  0  0  0  0  0  0
  -28.1780  -12.5500   18.2970 C   0  0  0  0  0  2  0  0  0  0  0  0
  -27.9070  -13.3700   19.5850 C   0  0  0  0  0  3  0  0  0  0  0  0
  -29.0240  -13.1500   20.6330 C   0  0  0  0  0  2  0  0  0  0  0  0
  -30.3190  -13.4490   19.9970 N   0  0  0  0  0  0  0  0  0  0  0  0
  -32.1430  -14.7710   19.6170 O   0  0  0  0  0  0  0  0  0  0  0  0
  -30.3860  -17.3840   22.5810 C   0  0  0  0  0  2  0  0  0  0  0  0
  -29.7280  -17.9090   20.1770 C   0  0  0  0  0  2  0  0  0  0  0  0
  -31.2180  -16.3160   21.8390 C   0  0  0  0  0  2  0  0  0  0  0  0
  -29.4640  -16.4040   20.0670 C   0  0  0  0  0  2  0  0  0  0  0  0
  -29.6340  -18.3650   21.6440 C   0  0  0  0  0  3  0  0  0  0  0  0
  -30.4360  -15.5900   20.8240 N   0  0  0  0  0  0  0  0  0  0  0  0
  -25.5630  -13.9790   20.4560 C   0  0  0  0  0  0  0  0  0  0  0  0
  -24.5100  -13.2030   20.8600 C   0  0  0  0  0  0  0  0  0  0  0  0
  -24.9580  -11.8510   20.7610 C   0  0  0  0  0  0  0  0  0  0  0  0
  -26.5830  -13.0960   20.1380 N   0  0  0  0  0  0  0  0  0  0  0  0
  -26.2270  -11.8100   20.3790 N   0  0  0  0  0  0  0  0  0  0  0  0
  -24.2360  -10.5880   20.9510 C   0  0  0  0  0  0  0  0  0  0  0  0
  -24.6640   -9.6320   21.8980 C   0  0  0  0  0  3  0  0  0  0  0  0
  -23.9470   -8.4280   22.0750 C   0  0  0  0  0  3  0  0  0  0  0  0
  -22.7870   -8.1740   21.3060 C   0  0  0  0  0  0  0  0  0  0  0  0
  -22.3790   -9.1180   20.3470 C   0  0  0  0  0  3  0  0  0  0  0  0
  -23.0970  -10.3130   20.1690 C   0  0  0  0  0  3  0  0  0  0  0  0
  -22.0420   -7.0230   21.3910 O   0  0  0  0  0  0  0  0  0  0  0  0
  -21.8990   -6.3450   22.5750 C   0  0  0  0  0  0  0  0  0  0  0  0
  -21.3530   -6.9580   23.7240 C   0  0  0  0  0  3  0  0  0  0  0  0
  -21.1620   -6.2030   24.8990 C   0  0  0  0  0  3  0  0  0  0  0  0
  -21.5030   -4.8380   24.9230 C   0  0  0  0  0  0  0  0  0  0  0  0
  -22.0400   -4.2260   23.7780 C   0  0  0  0  0  3  0  0  0  0  0  0
  -22.2350   -4.9770   22.6060 C   0  0  0  0  0  0  0  0  0  0  0  0
  -22.7340   -4.3770   21.4990 F   0  0  0  0  0  0  0  0  0  0  0  0
  -21.3110   -4.1120   26.0500 F   0  0  0  0  0  0  0  0  0  0  0  0
  -23.1330  -13.6790   21.2230 C   0  0  0  0  0  0  0  0  0  0  0  0
  -22.4550  -12.9660   22.1160 N   0  0  0  0  0  0  0  0  0  0  0  0
  -22.6700  -14.7150   20.7500 O   0  0  0  0  0  0  0  0  0  0  0  0
  -22.8430  -12.1290   22.5250 H   0  0  0  0  0  0  0  0  0  0  0  0
  -21.5300  -13.2590   22.3970 H   0  0  0  0  0  0  0  0  0  0  0  0
  -25.7250  -15.3510   20.3060 N   0  0  0  0  0  0  0  0  0  0  0  0
  -24.9670  -16.0040   20.4700 H   0  0  0  0  0  0  0  0  0  0  0  0
  -26.5530  -15.7890   19.9220 H   0  0  0  0  0  0  0  0  0  0  0  0
  -31.0680  -23.8050   22.6880 O   0  0  0  0  0  0  0  0  0  0  0  0
  -31.3990  -24.2760   21.9320 H   0  0  0  0  0  0  0  0  0  0  0  0
  -31.4360  -22.8140   19.9390 C   0  0  0  0  0  2  0  0  0  0  0  0
  -30.3220  -23.5510   19.1750 C   0  0  0  0  0  2  0  0  0  0  0  0
  -30.1770  -25.0120   19.6090 C   0  0  0  0  0  2  0  0  0  0  0  0
  -28.8680  -25.6240   19.1320 C   0  0  0  0  0  2  0  0  0  0  0  0
  -28.7350  -26.8550   19.8250 O   0  0  0  0  0  0  0  0  0  0  0  0
  -24.6940  -31.6590   23.1010 C   0  0  0  0  0  0  0  0  0  0  0  0
  -27.5060  -27.4680   19.8430 C   0  0  0  0  0  0  0  0  0  0  0  0
  -23.5420  -30.2760   21.4010 C   0  0  0  0  0  3  0  0  0  0  0  0
  -25.0510  -28.8540   19.9240 C   0  0  0  0  0  0  0  0  0  0  0  0
  -26.0510  -30.7390   21.2280 C   0  0  0  0  0  2  0  0  0  0  0  0
  -26.1820  -29.3980   20.5430 C   0  0  0  0  0  0  0  0  0  0  0  0
  -27.4080  -28.7040   20.5120 C   0  0  0  0  0  3  0  0  0  0  0  0
  -26.3540  -26.9310   19.2170 C   0  0  0  0  0  3  0  0  0  0  0  0
  -25.1290  -27.6170   19.2660 C   0  0  0  0  0  3  0  0  0  0  0  0
  -23.7770  -29.6600   19.9970 C   0  0  0  0  0  2  0  0  0  0  0  0
  -24.7790  -30.9040   21.9690 N   0  0  0  0  0  0  0  0  0  0  0  0
  -23.6020  -31.8710   23.6460 O   0  0  0  0  0  0  0  0  0  0  0  0
  -22.9310  -29.1940   22.3170 C   0  0  0  0  0  0  0  0  0  0  0  0
  -21.6120  -28.9800   22.1860 N   0  0  0  0  0  0  0  0  0  0  0  0
  -23.6370  -28.5510   23.0980 O   0  0  0  0  0  0  0  0  0  0  0  0
  -21.1050  -29.5550   21.5280 H   0  0  0  0  0  0  0  0  0  0  0  0
  -18.2680  -27.7030   22.6530 C   0  0  0  0  0  0  0  0  0  0  0  0
  -20.8220  -27.9900   22.9150 C   0  0  0  0  0  3  0  0  0  0  0  0
  -20.9450  -26.5920   22.2640 C   0  0  0  0  0  2  0  0  0  0  0  0
  -19.8370  -26.3030   21.2470 C   0  0  0  0  0  2  0  0  0  0  0  0
  -18.4610  -26.3920   21.9110 C   0  0  0  0  0  2  0  0  0  0  0  0
  -19.3770  -28.4620   23.1110 C   0  0  0  0  0  0  0  0  0  0  0  0
  -19.1440  -29.6920   23.7630 C   0  0  0  0  0  3  0  0  0  0  0  0
  -17.8320  -30.1600   23.9680 C   0  0  0  0  0  3  0  0  0  0  0  0
  -16.7380  -29.3970   23.5290 C   0  0  0  0  0  3  0  0  0  0  0  0
  -16.9560  -28.1720   22.8740 C   0  0  0  0  0  3  0  0  0  0  0  0
  -25.9560  -32.3100   23.7480 C   0  0  0  0  0  3  0  0  0  0  0  0
  -25.6040  -33.6890   24.1100 N   0  0  0  0  0  0  0  0  0  0  0  0
  -25.9070  -34.7670   23.3750 C   0  0  0  0  0  0  0  0  0  0  0  0
  -26.5860  -34.7070   22.3460 O   0  0  0  0  0  0  0  0  0  0  0  0
  -24.9990  -33.8090   24.9080 H   0  0  0  0  0  0  0  0  0  0  0  0
  -24.1250  -36.5120   23.0470 C   0  0  0  0  0  1  0  0  0  0  0  0
  -25.3720  -36.1290   23.8590 C   0  0  0  0  0  3  0  0  0  0  0  0
  -27.4690  -37.0630   24.7280 C   0  0  0  0  0  1  0  0  0  0  0  0
  -26.3710  -37.2150   23.7770 N   0  0  0  0  0  0  0  0  0  0  0  0
  -25.9350  -38.1190   23.9400 H   0  0  0  0  0  0  0  0  0  0  0  0
  -26.4840  -31.5210   25.0080 C   0  0  1  0  0  0  0  0  0  0  0  0
  -25.3870  -31.2150   26.0550 C   0  0  0  0  0  1  0  0  0  0  0  0
  -27.1190  -30.1780   24.5810 C   0  0  0  0  0  1  0  0  0  0  0  0
  -27.5990  -32.3330   25.7060 C   0  0  0  0  0  1  0  0  0  0  0  0
  1  2  1  0
  3  5  2  0
  3  4  1  0
  4  1  2  0
  5  6  1  0
  6 49  1  0
  6  2  2  0
  7 20  1  0
  8 13  1  0
  9 10  1  0
  9  8  1  0
 11 10  1  0
 11 24  1  0
 11 12  1  0
 13  7  1  0
 13 12  1  0
 14  7  2  0
 16 19  1  0
 17 15  1  0
 18 16  1  0
 18 20  1  0
 19  4  1  0
 19 15  1  0
 20 17  1  0
 21 22  2  0
 22 41  1  0
 23 22  1  0
 23 26  1  0
 24 25  1  0
 24 21  1  0
 25 23  2  0
 26 27  1  0
 27 28  2  0
 29 32  1  0
 29 28  1  0
 30 29  2  0
 31 30  1  0
 31 26  2  0
 32 33  1  0
 33 38  2  0
 33 34  1  0
 34 35  2  0
 35 36  1  0
 36 40  1  0
 37 36  2  0
 38 37  1  0
 39 38  1  0
 41 42  1  0
 42 45  1  0
 42 44  1  0
 43 41  2  0
 46 21  1  0
 46 47  1  0
 48 46  1  0
 50 49  1  0
 51  5  1  0
 52 53  1  0
 52 51  1  0
 54 53  1  0
 54 55  1  0
 55 57  1  0
 56 67  2  0
 57 62  1  0
 58 66  1  0
 58 68  1  0
 59 65  1  0
 59 61  1  0
 60 66  1  0
 61 60  1  0
 62 61  2  0
 63 64  1  0
 63 57  2  0
 64 59  2  0
 65 58  1  0
 66 56  1  0
 68 70  2  0
 69 68  1  0
 71 69  1  0
 72 81  2  0
 72 77  1  0
 73 69  1  0
 73 77  1  0
 74 73  1  0
 75 76  1  0
 75 74  1  0
 76 72  1  0
 77 78  2  0
 78 79  1  0
 80 79  2  0
 81 80  1  0
 82 56  1  0
 82 83  1  0
 82 92  1  0
 83 86  1  0
 84 88  1  0
 84 83  1  0
 85 84  2  0
 88 87  1  0
 90 88  1  0
 90 91  1  0
 90 89  1  0
 92 95  1  1
 92 93  1  0
 94 92  1  0
M  ISO  4   7 100  20 100  54 101  55 101
M  END
>  <TORSDO>  (21) 
F 21

>  <SCORE>  (21) 
-11.356

>  <name>  (21) 
20

>  <ligand_id>  (21) 
20

>  <original_smiles>  (21) 
[H]Oc1c([H])c([H])c(C2([H])C([H])([H])C([H])([H])N(C(=O)N3C([H])([H])C([H])([H])C([H])([H])C([H])(n4nc(-c5c([H])c([H])c(Oc6c([H])c([H])c(F)c([H])c6F)c([H])c5[H])c(C(=O)N([H])[H])c4N([H])[H])C3([H])[H])C([H])([H])C2([H])[H])c([H])c1C([H])([H])C([H])([H])C([H])([H])C([H])([H])Oc1c([H])c([H])c2c(c1[H])C([H])([H])N(C(=O)C([H])(N([H])C(=O)C([H])(N([H])C([H])([H])[H])C([H])([H])[H])C(C([H])([H])[H])(C([H])([H])[H])C([H])([H])[H])C([H])(C(=O)N([H])C1([H])c3c([H])c([H])c([H])c([H])c3C([H])([H])C([H])([H])C1([H])[H])C2([H])[H]

>  <smiles>  (21) 
[H]Oc1c([H])c([H])c(C2([H])C([H])([H])C([H])([H])N(C(=O)N3C([H])([H])C([H])([H])C([H])([H])C([H])(n4nc(-c5c([H])c([H])c(Oc6c([H])c([H])c(F)c([H])c6F)c([H])c5[H])c(C(=O)N([H])[H])c4N([H])[H])C3([H])[H])C([H])([H])C2([H])[H])c([H])c1C([H])([H])C([H])([H])C([H])([H])C([H])([H])Oc1c([H])c([H])c2c(c1[H])C([H])([H])N(C(=O)C([H])(N([H])C(=O)C([H])(N([H])C([H])([H])[H])C([H])([H])[H])C(C([H])([H])[H])(C([H])([H])[H])C([H])([H])[H])C([H])(C(=O)N([H])C1([H])c3c([H])c([H])c([H])c([H])c3C([H])([H])C([H])([H])C1([H])[H])C2([H])[H]

$$$$
21:0:0
     RDKit          3D

 91 98  0  0  1  0  0  0  0  0999 V2000
  -25.7400  -23.2200   17.8710 C   0  0  0  0  0  1  0  0  0  0  0  0
  -26.7760  -22.5280   18.7790 C   0  0  0  0  0  3  0  0  0  0  0  0
  -27.2270  -23.4870   19.9040 C   0  0  0  0  0  2  0  0  0  0  0  0
  -28.3340  -24.4790   19.4890 C   0  0  0  0  0  2  0  0  0  0  0  0
  -28.5900  -25.5550   20.5620 C   0  0  0  0  0  2  0  0  0  0  0  0
  -28.6920  -26.8700   20.0120 O   0  0  0  0  0  0  0  0  0  0  0  0
  -24.7850  -31.7020   23.4440 C   0  0  0  0  0  0  0  0  0  0  0  0
  -27.5260  -27.5940   20.0330 C   0  0  0  0  0  0  0  0  0  0  0  0
  -23.6430  -30.5020   21.6070 C   0  0  0  0  0  3  0  0  0  0  0  0
  -25.1460  -29.1060   20.0970 C   0  0  0  0  0  0  0  0  0  0  0  0
  -26.1760  -30.8490   21.5620 C   0  0  0  0  0  2  0  0  0  0  0  0
  -26.2780  -29.5540   20.7880 C   0  0  0  0  0  0  0  0  0  0  0  0
  -27.4730  -28.8060   20.7540 C   0  0  0  0  0  3  0  0  0  0  0  0
  -26.3800  -27.1580   19.3330 C   0  0  0  0  0  3  0  0  0  0  0  0
  -25.1890  -27.9070   19.3650 C   0  0  0  0  0  3  0  0  0  0  0  0
  -23.9080  -29.9700   20.1740 C   0  0  0  0  0  2  0  0  0  0  0  0
  -24.8840  -31.0250   22.2660 N   0  0  0  0  0  0  0  0  0  0  0  0
  -23.6830  -31.9320   23.9600 O   0  0  0  0  0  0  0  0  0  0  0  0
  -22.9380  -29.3930   22.4200 C   0  0  0  0  0  0  0  0  0  0  0  0
  -21.6130  -29.2720   22.2390 N   0  0  0  0  0  0  0  0  0  0  0  0
  -23.5800  -28.6500   23.1680 O   0  0  0  0  0  0  0  0  0  0  0  0
  -21.1610  -29.9230   21.6120 H   0  0  0  0  0  0  0  0  0  0  0  0
  -18.1900  -28.1490   22.5050 C   0  0  0  0  0  0  0  0  0  0  0  0
  -20.7460  -28.2770   22.8670 C   0  0  0  0  0  3  0  0  0  0  0  0
  -20.8170  -26.9250   22.1190 C   0  0  0  0  0  2  0  0  0  0  0  0
  -19.7320  -26.7710   21.0470 C   0  0  0  0  0  2  0  0  0  0  0  0
  -18.3390  -26.8870   21.6720 C   0  0  0  0  0  2  0  0  0  0  0  0
  -19.3210  -28.8100   23.0530 C   0  0  0  0  0  0  0  0  0  0  0  0
  -19.1300  -30.0000   23.7880 C   0  0  0  0  0  3  0  0  0  0  0  0
  -17.8390  -30.5280   23.9820 C   0  0  0  0  0  3  0  0  0  0  0  0
  -16.7210  -29.8590   23.4520 C   0  0  0  0  0  3  0  0  0  0  0  0
  -16.8970  -28.6720   22.7200 C   0  0  0  0  0  3  0  0  0  0  0  0
  -26.0470  -32.2400   24.1880 C   0  0  0  0  0  3  0  0  0  0  0  0
  -26.4670  -31.3530   25.4240 C   0  0  1  0  0  0  0  0  0  0  0  0
  -25.3080  -31.0720   26.4090 C   0  0  0  0  0  1  0  0  0  0  0  0
  -27.0260  -29.9920   24.9490 C   0  0  0  0  0  1  0  0  0  0  0  0
  -27.6030  -32.0500   26.2090 C   0  0  0  0  0  1  0  0  0  0  0  0
  -25.7580  -33.6160   24.6100 N   0  0  0  0  0  0  0  0  0  0  0  0
  -26.1780  -34.7140   23.9660 C   0  0  0  0  0  0  0  0  0  0  0  0
  -26.9210  -34.6680   22.9810 O   0  0  0  0  0  0  0  0  0  0  0  0
  -25.1150  -33.7270   25.3810 H   0  0  0  0  0  0  0  0  0  0  0  0
  -24.5330  -36.5840   23.6300 C   0  0  0  0  0  1  0  0  0  0  0  0
  -25.6960  -36.0770   24.4970 C   0  0  0  0  0  3  0  0  0  0  0  0
  -27.7870  -36.8180   25.5510 C   0  0  0  0  0  1  0  0  0  0  0  0
  -26.7650  -37.0990   24.5460 N   0  0  0  0  0  0  0  0  0  0  0  0
  -26.3770  -38.0190   24.7370 H   0  0  0  0  0  0  0  0  0  0  0  0
  -26.1930  -21.1960   19.3190 C   0  0  0  0  0  2  0  0  0  0  0  0
  -27.0980  -20.3860   20.2760 C   0  0  0  0  0  2  0  0  0  0  0  0
  -28.3230  -19.7440   19.6010 C   0  0  0  0  0  2  0  0  0  0  0  0
  -29.2920  -19.0990   20.6060 C   0  0  0  0  0  2  0  0  0  0  0  0
  -30.3590  -18.2260   19.9230 C   0  0  0  0  0  2  0  0  0  0  0  0
  -31.4870  -17.8200   20.8860 C   0  0  0  0  0  2  0  0  0  0  0  0
  -32.4150  -16.7310   20.3200 C   0  0  0  0  0  2  0  0  0  0  0  0
  -32.1160  -14.3740   19.5510 C   0  0  0  0  0  0  0  0  0  0  0  0
  -31.5230  -12.0940   18.8150 C   0  0  0  0  0  2  0  0  0  0  0  0
  -30.4910  -12.1310   17.6730 C   0  0  0  0  0  2  0  0  0  0  0  0
  -29.0580  -12.2140   18.2310 C   0  0  0  0  0  2  0  0  0  0  0  0
  -28.8940  -13.3200   19.3050 C   0  0  0  0  0  3  0  0  0  0  0  0
  -30.0190  -13.2240   20.3600 C   0  0  0  0  0  2  0  0  0  0  0  0
  -31.3190  -13.2810   19.6610 N   0  0  0  0  0  0  0  0  0  0  0  0
  -33.1150  -14.4170   18.8250 O   0  0  0  0  0  0  0  0  0  0  0  0
  -31.7440  -15.4310   20.2850 N   0  0  0  0  0  0  0  0  0  0  0  0
  -30.9270  -15.3170   20.8670 H   0  0  0  0  0  0  0  0  0  0  0  0
  -26.7570  -14.3060   20.3500 C   0  0  0  0  0  0  0  0  0  0  0  0
  -25.5960  -13.7240   20.7820 C   0  0  0  0  0  0  0  0  0  0  0  0
  -25.7600  -12.3190   20.5800 C   0  0  0  0  0  0  0  0  0  0  0  0
  -27.5680  -13.2690   19.9190 N   0  0  0  0  0  0  0  0  0  0  0  0
  -26.9740  -12.0610   20.1100 N   0  0  0  0  0  0  0  0  0  0  0  0
  -24.8120  -11.2110   20.7520 C   0  0  0  0  0  0  0  0  0  0  0  0
  -25.1090  -10.1010   21.5750 C   0  0  0  0  0  3  0  0  0  0  0  0
  -24.1720   -9.0590   21.7360 C   0  0  0  0  0  3  0  0  0  0  0  0
  -22.9200   -9.1190   21.0790 C   0  0  0  0  0  0  0  0  0  0  0  0
  -22.6370  -10.2150   20.2460 C   0  0  0  0  0  3  0  0  0  0  0  0
  -23.5740  -11.2480   20.0780 C   0  0  0  0  0  3  0  0  0  0  0  0
  -21.9600   -8.1390   21.1600 O   0  0  0  0  0  0  0  0  0  0  0  0
  -21.8130   -7.3650   22.2830 C   0  0  0  0  0  0  0  0  0  0  0  0
  -21.5510   -7.9320   23.5480 C   0  0  0  0  0  3  0  0  0  0  0  0
  -21.3370   -7.0970   24.6630 C   0  0  0  0  0  3  0  0  0  0  0  0
  -21.3760   -5.6970   24.5140 C   0  0  0  0  0  0  0  0  0  0  0  0
  -21.6310   -5.1310   23.2530 C   0  0  0  0  0  3  0  0  0  0  0  0
  -21.8460   -5.9620   22.1400 C   0  0  0  0  0  0  0  0  0  0  0  0
  -22.0710   -5.4110   20.9220 F   0  0  0  0  0  0  0  0  0  0  0  0
  -21.1620   -4.8940   25.5830 F   0  0  0  0  0  0  0  0  0  0  0  0
  -24.3640  -14.4320   21.2700 C   0  0  0  0  0  0  0  0  0  0  0  0
  -23.6220  -13.8140   22.1800 N   0  0  0  0  0  0  0  0  0  0  0  0
  -24.0820  -15.5640   20.8780 O   0  0  0  0  0  0  0  0  0  0  0  0
  -23.8660  -12.8960   22.5200 H   0  0  0  0  0  0  0  0  0  0  0  0
  -22.7920  -14.2630   22.5430 H   0  0  0  0  0  0  0  0  0  0  0  0
  -27.1840  -15.6300   20.2670 N   0  0  0  0  0  0  0  0  0  0  0  0
  -26.5920  -16.4130   20.5220 H   0  0  0  0  0  0  0  0  0  0  0  0
  -28.0690  -15.9180   19.8710 H   0  0  0  0  0  0  0  0  0  0  0  0
  2  1  1  0
  2 47  1  0
  2  3  1  0
  4  3  1  0
  4  5  1  0
  6  8  1  0
  6  5  1  0
  7 18  2  0
  8 13  1  0
  9 17  1  0
  9 19  1  0
 10 16  1  0
 10 12  1  0
 11 17  1  0
 12 11  1  0
 13 12  2  0
 14 15  1  0
 14  8  2  0
 15 10  2  0
 16  9  1  0
 17  7  1  0
 19 21  2  0
 20 19  1  0
 22 20  1  0
 23 32  2  0
 23 28  1  0
 24 20  1  0
 24 28  1  0
 25 24  1  0
 26 27  1  0
 26 25  1  0
 27 23  1  0
 28 29  2  0
 29 30  1  0
 31 30  2  0
 32 31  1  0
 33  7  1  0
 33 38  1  0
 33 34  1  0
 34 37  1  1
 34 35  1  0
 36 34  1  0
 38 41  1  0
 39 43  1  0
 39 38  1  0
 40 39  2  0
 43 42  1  0
 43 45  1  0
 45 46  1  0
 45 44  1  0
 47 48  1  0
 49 48  1  0
 49 50  1  0
 51 50  1  0
 51 52  1  0
 53 52  1  0
 54 60  1  0
 54 62  1  0
 55 60  1  0
 56 57  1  0
 56 55  1  0
 58 57  1  0
 58 67  1  0
 58 59  1  0
 60 59  1  0
 61 54  2  0
 62 53  1  0
 62 63  1  0
 64 65  2  0
 65 84  1  0
 66 69  1  0
 66 65  1  0
 67 68  1  0
 67 64  1  0
 68 66  2  0
 69 70  1  0
 70 71  2  0
 72 75  1  0
 72 71  1  0
 73 72  2  0
 74 73  1  0
 74 69  2  0
 75 76  1  0
 76 77  1  0
 77 78  2  0
 79 78  1  0
 79 83  1  0
 80 79  2  0
 81 76  2  0
 81 80  1  0
 82 81  1  0
 84 85  1  0
 85 87  1  0
 85 88  1  0
 86 84  2  0
 89 64  1  0
 89 90  1  0
 91 89  1  0
M  ISO  4   5 101   6 101  54 100  62 100
M  END
>  <TORSDO>  (22) 
F 26

>  <SCORE>  (22) 
-9.030

>  <name>  (22) 
21

>  <ligand_id>  (22) 
21

>  <original_smiles>  (22) 
[H]c1c([H])c([H])c2c(c1[H])C([H])([H])C([H])([H])C([H])([H])C2([H])N([H])C(=O)C1([H])N(C(=O)C([H])(N([H])C(=O)C([H])(N([H])C([H])([H])[H])C([H])([H])[H])C(C([H])([H])[H])(C([H])([H])[H])C([H])([H])[H])C([H])([H])c2c([H])c(OC([H])([H])C([H])([H])C([H])([H])C([H])(C([H])([H])[H])C([H])([H])C([H])([H])C([H])([H])C([H])([H])C([H])([H])C([H])([H])C([H])([H])N([H])C(=O)N3C([H])([H])C([H])([H])C([H])([H])C([H])(n4nc(-c5c([H])c([H])c(Oc6c([H])c([H])c(F)c([H])c6F)c([H])c5[H])c(C(=O)N([H])[H])c4N([H])[H])C3([H])[H])c([H])c([H])c2C1([H])[H]

>  <smiles>  (22) 
[H]c1c([H])c([H])c2c(c1[H])C([H])([H])C([H])([H])C([H])([H])C2([H])N([H])C(=O)C1([H])N(C(=O)C([H])(N([H])C(=O)C([H])(N([H])C([H])([H])[H])C([H])([H])[H])C(C([H])([H])[H])(C([H])([H])[H])C([H])([H])[H])C([H])([H])c2c([H])c(OC([H])([H])C([H])([H])C([H])([H])C([H])(C([H])([H])[H])C([H])([H])C([H])([H])C([H])([H])C([H])([H])C([H])([H])C([H])([H])C([H])([H])N([H])C(=O)N3C([H])([H])C([H])([H])C([H])([H])C([H])(n4nc(-c5c([H])c([H])c(Oc6c([H])c([H])c(F)c([H])c6F)c([H])c5[H])c(C(=O)N([H])[H])c4N([H])[H])C3([H])[H])c([H])c([H])c2C1([H])[H]

$$$$
22:0:0
     RDKit          3D

 91 98  0  0  1  0  0  0  0  0999 V2000
  -28.5560  -23.9510   19.0460 C   0  0  0  0  0  2  0  0  0  0  0  0
  -30.4810  -24.3840   17.3530 C   0  0  0  0  0  1  0  0  0  0  0  0
  -28.9840  -24.5630   17.6920 C   0  0  0  0  0  3  0  0  0  0  0  0
  -28.5590  -26.0470   17.5970 C   0  0  0  0  0  2  0  0  0  0  0  0
  -29.0550  -26.9720   18.7380 C   0  0  0  0  0  2  0  0  0  0  0  0
  -28.3960  -26.7930   20.0000 O   0  0  0  0  0  0  0  0  0  0  0  0
  -24.6040  -31.9000   23.2410 C   0  0  0  0  0  0  0  0  0  0  0  0
  -27.2160  -27.4830   20.1090 C   0  0  0  0  0  0  0  0  0  0  0  0
  -23.3750  -30.4930   21.6140 C   0  0  0  0  0  3  0  0  0  0  0  0
  -24.8130  -28.9420   20.1910 C   0  0  0  0  0  0  0  0  0  0  0  0
  -25.8970  -30.8530   21.3900 C   0  0  0  0  0  2  0  0  0  0  0  0
  -25.9770  -29.4800   20.7590 C   0  0  0  0  0  0  0  0  0  0  0  0
  -27.1830  -28.7520   20.7250 C   0  0  0  0  0  3  0  0  0  0  0  0
  -26.0290  -26.9340   19.5860 C   0  0  0  0  0  3  0  0  0  0  0  0
  -24.8280  -27.6640   19.6120 C   0  0  0  0  0  3  0  0  0  0  0  0
  -23.5670  -29.7940   20.2410 C   0  0  0  0  0  2  0  0  0  0  0  0
  -24.6440  -31.0970   22.1410 N   0  0  0  0  0  0  0  0  0  0  0  0
  -23.5300  -32.1750   23.7960 O   0  0  0  0  0  0  0  0  0  0  0  0
  -22.7320  -29.4760   22.5830 C   0  0  0  0  0  0  0  0  0  0  0  0
  -21.4090  -29.2910   22.4600 N   0  0  0  0  0  0  0  0  0  0  0  0
  -23.4190  -28.8480   23.3950 O   0  0  0  0  0  0  0  0  0  0  0  0
  -20.9180  -29.8570   21.7810 H   0  0  0  0  0  0  0  0  0  0  0  0
  -18.0390  -28.0990   22.9740 C   0  0  0  0  0  0  0  0  0  0  0  0
  -20.5960  -28.3600   23.2350 C   0  0  0  0  0  3  0  0  0  0  0  0
  -20.6940  -26.9270   22.6660 C   0  0  0  0  0  2  0  0  0  0  0  0
  -19.5890  -26.5970   21.6560 C   0  0  0  0  0  2  0  0  0  0  0  0
  -18.2120  -26.7460   22.3060 C   0  0  0  0  0  2  0  0  0  0  0  0
  -19.1560  -28.8650   23.3950 C   0  0  0  0  0  0  0  0  0  0  0  0
  -18.9390  -30.1320   23.9780 C   0  0  0  0  0  3  0  0  0  0  0  0
  -17.6350  -30.6360   24.1440 C   0  0  0  0  0  3  0  0  0  0  0  0
  -16.5300  -29.8660   23.7430 C   0  0  0  0  0  3  0  0  0  0  0  0
  -16.7320  -28.5970   23.1680 C   0  0  0  0  0  3  0  0  0  0  0  0
  -25.8980  -32.5270   23.8460 C   0  0  0  0  0  3  0  0  0  0  0  0
  -26.4420  -31.7440   25.1020 C   0  0  1  0  0  0  0  0  0  0  0  0
  -25.3720  -31.4840   26.1880 C   0  0  0  0  0  1  0  0  0  0  0  0
  -27.0290  -30.3760   24.6790 C   0  0  0  0  0  1  0  0  0  0  0  0
  -27.6030  -32.5410   25.7460 C   0  0  0  0  0  1  0  0  0  0  0  0
  -25.5950  -33.9220   24.1900 N   0  0  0  0  0  0  0  0  0  0  0  0
  -25.9060  -34.9770   23.4240 C   0  0  0  0  0  0  0  0  0  0  0  0
  -26.5580  -34.8790   22.3810 O   0  0  0  0  0  0  0  0  0  0  0  0
  -25.0300  -34.0740   25.0110 H   0  0  0  0  0  0  0  0  0  0  0  0
  -24.1640  -36.7660   23.1090 C   0  0  0  0  0  1  0  0  0  0  0  0
  -25.4200  -36.3610   23.8940 C   0  0  0  0  0  3  0  0  0  0  0  0
  -27.5630  -37.2520   24.6960 C   0  0  0  0  0  1  0  0  0  0  0  0
  -26.4440  -37.4230   23.7720 N   0  0  0  0  0  0  0  0  0  0  0  0
  -26.0340  -38.3370   23.9460 H   0  0  0  0  0  0  0  0  0  0  0  0
  -28.2080  -22.4550   19.0670 C   0  0  0  0  0  2  0  0  0  0  0  0
  -29.4130  -21.5030   19.0380 C   0  0  0  0  0  2  0  0  0  0  0  0
  -29.1310  -20.2020   19.8120 C   0  0  0  0  0  2  0  0  0  0  0  0
  -30.3440  -19.2660   19.8680 C   0  0  0  0  0  2  0  0  0  0  0  0
  -30.1540  -18.1020   20.8550 C   0  0  0  0  0  2  0  0  0  0  0  0
  -31.4480  -17.2900   21.0250 C   0  0  0  0  0  2  0  0  0  0  0  0
  -31.3050  -16.0220   21.8930 C   0  0  0  0  0  2  0  0  0  0  0  0
  -30.7750  -14.2470   20.2160 C   0  0  0  0  0  0  0  0  0  0  0  0
  -30.2720  -12.2180   18.9140 C   0  0  0  0  0  2  0  0  0  0  0  0
  -29.2750  -12.4960   17.7780 C   0  0  0  0  0  2  0  0  0  0  0  0
  -27.8250  -12.3740   18.2800 C   0  0  0  0  0  2  0  0  0  0  0  0
  -27.5800  -13.1790   19.5820 C   0  0  0  0  0  3  0  0  0  0  0  0
  -28.6800  -12.9020   20.6300 C   0  0  0  0  0  2  0  0  0  0  0  0
  -29.9940  -13.1570   20.0100 N   0  0  0  0  0  0  0  0  0  0  0  0
  -31.7540  -14.5150   19.5150 O   0  0  0  0  0  0  0  0  0  0  0  0
  -30.4700  -14.9770   21.2990 N   0  0  0  0  0  0  0  0  0  0  0  0
  -29.6640  -14.6740   21.8260 H   0  0  0  0  0  0  0  0  0  0  0  0
  -25.2190  -13.8200   20.3860 C   0  0  0  0  0  0  0  0  0  0  0  0
  -24.1570  -13.0620   20.8030 C   0  0  0  0  0  0  0  0  0  0  0  0
  -24.5980  -11.7060   20.7580 C   0  0  0  0  0  0  0  0  0  0  0  0
  -26.2440  -12.9250   20.1160 N   0  0  0  0  0  0  0  0  0  0  0  0
  -25.8720  -11.6480   20.3930 N   0  0  0  0  0  0  0  0  0  0  0  0
  -23.8640  -10.4520   20.9830 C   0  0  0  0  0  0  0  0  0  0  0  0
  -24.3300   -9.4760   21.8900 C   0  0  0  0  0  3  0  0  0  0  0  0
  -23.5960   -8.2900   22.1050 C   0  0  0  0  0  3  0  0  0  0  0  0
  -22.3800   -8.0710   21.4140 C   0  0  0  0  0  0  0  0  0  0  0  0
  -21.9340   -9.0360   20.4930 C   0  0  0  0  0  3  0  0  0  0  0  0
  -22.6690  -10.2140   20.2760 C   0  0  0  0  0  3  0  0  0  0  0  0
  -21.6140   -6.9380   21.5380 O   0  0  0  0  0  0  0  0  0  0  0  0
  -21.6200   -6.1880   22.6860 C   0  0  0  0  0  0  0  0  0  0  0  0
  -21.3000   -6.7460   23.9420 C   0  0  0  0  0  3  0  0  0  0  0  0
  -21.2510   -5.9250   25.0860 C   0  0  0  0  0  3  0  0  0  0  0  0
  -21.5100   -4.5460   24.9750 C   0  0  0  0  0  0  0  0  0  0  0  0
  -21.8230   -3.9860   23.7230 C   0  0  0  0  0  3  0  0  0  0  0  0
  -21.8740   -4.8050   22.5820 C   0  0  0  0  0  0  0  0  0  0  0  0
  -22.1550   -4.2580   21.3750 F   0  0  0  0  0  0  0  0  0  0  0  0
  -21.4560   -3.7530   26.0710 F   0  0  0  0  0  0  0  0  0  0  0  0
  -22.7810  -13.5590   21.1370 C   0  0  0  0  0  0  0  0  0  0  0  0
  -22.0880  -12.8770   22.0420 N   0  0  0  0  0  0  0  0  0  0  0  0
  -22.3320  -14.5900   20.6350 O   0  0  0  0  0  0  0  0  0  0  0  0
  -22.4670  -12.0420   22.4670 H   0  0  0  0  0  0  0  0  0  0  0  0
  -21.1670  -13.1930   22.3110 H   0  0  0  0  0  0  0  0  0  0  0  0
  -25.3940  -15.1870   20.1960 N   0  0  0  0  0  0  0  0  0  0  0  0
  -24.6450  -15.8560   20.3390 H   0  0  0  0  0  0  0  0  0  0  0  0
  -26.2430  -15.6160   19.8480 H   0  0  0  0  0  0  0  0  0  0  0  0
  1 47  1  0
  3  2  1  0
  3  1  1  0
  4  3  1  0
  4  5  1  0
  5  6  1  0
  6  8  1  0
  7 18  2  0
  8 13  1  0
  9 17  1  0
  9 19  1  0
 10 16  1  0
 10 12  1  0
 11 17  1  0
 12 11  1  0
 13 12  2  0
 14 15  1  0
 14  8  2  0
 15 10  2  0
 16  9  1  0
 17  7  1  0
 19 21  2  0
 20 19  1  0
 22 20  1  0
 23 32  2  0
 23 28  1  0
 24 20  1  0
 24 28  1  0
 25 24  1  0
 26 27  1  0
 26 25  1  0
 27 23  1  0
 28 29  2  0
 29 30  1  0
 31 30  2  0
 32 31  1  0
 33  7  1  0
 33 38  1  0
 33 34  1  0
 34 37  1  1
 34 35  1  0
 36 34  1  0
 38 41  1  0
 39 43  1  0
 39 38  1  0
 40 39  2  0
 43 42  1  0
 45 43  1  0
 45 46  1  0
 45 44  1  0
 48 47  1  0
 48 49  1  0
 49 50  1  0
 50 51  1  0
 51 52  1  0
 52 53  1  0
 54 62  1  0
 55 60  1  0
 56 57  1  0
 56 55  1  0
 58 57  1  0
 58 67  1  0
 58 59  1  0
 60 54  1  0
 60 59  1  0
 61 54  2  0
 62 63  1  0
 62 53  1  0
 64 65  2  0
 65 84  1  0
 66 65  1  0
 66 69  1  0
 67 64  1  0
 67 68  1  0
 68 66  2  0
 69 70  1  0
 70 71  2  0
 72 75  1  0
 72 71  1  0
 73 72  2  0
 74 73  1  0
 74 69  2  0
 75 76  1  0
 76 77  1  0
 77 78  2  0
 79 78  1  0
 79 83  1  0
 80 79  2  0
 81 76  2  0
 81 80  1  0
 82 81  1  0
 84 85  1  0
 85 88  1  0
 85 87  1  0
 86 84  2  0
 89 90  1  0
 89 64  1  0
 91 89  1  0
M  ISO  4   5 101   6 101  54 100  62 100
M  END
>  <TORSDO>  (23) 
F 26

>  <SCORE>  (23) 
-11.616

>  <name>  (23) 
22

>  <ligand_id>  (23) 
22

>  <original_smiles>  (23) 
[H]c1c([H])c([H])c2c(c1[H])C([H])([H])C([H])([H])C([H])([H])C2([H])N([H])C(=O)C1([H])N(C(=O)C([H])(N([H])C(=O)C([H])(N([H])C([H])([H])[H])C([H])([H])[H])C(C([H])([H])[H])(C([H])([H])[H])C([H])([H])[H])C([H])([H])c2c([H])c(OC([H])([H])C([H])([H])C([H])(C([H])([H])[H])C([H])([H])C([H])([H])C([H])([H])C([H])([H])C([H])([H])C([H])([H])C([H])([H])C([H])([H])N([H])C(=O)N3C([H])([H])C([H])([H])C([H])([H])C([H])(n4nc(-c5c([H])c([H])c(Oc6c([H])c([H])c(F)c([H])c6F)c([H])c5[H])c(C(=O)N([H])[H])c4N([H])[H])C3([H])[H])c([H])c([H])c2C1([H])[H]

>  <smiles>  (23) 
[H]c1c([H])c([H])c2c(c1[H])C([H])([H])C([H])([H])C([H])([H])C2([H])N([H])C(=O)C1([H])N(C(=O)C([H])(N([H])C(=O)C([H])(N([H])C([H])([H])[H])C([H])([H])[H])C(C([H])([H])[H])(C([H])([H])[H])C([H])([H])[H])C([H])([H])c2c([H])c(OC([H])([H])C([H])([H])C([H])(C([H])([H])[H])C([H])([H])C([H])([H])C([H])([H])C([H])([H])C([H])([H])C([H])([H])C([H])([H])C([H])([H])N([H])C(=O)N3C([H])([H])C([H])([H])C([H])([H])C([H])(n4nc(-c5c([H])c([H])c(Oc6c([H])c([H])c(F)c([H])c6F)c([H])c5[H])c(C(=O)N([H])[H])c4N([H])[H])C3([H])[H])c([H])c([H])c2C1([H])[H]

$$$$
23:0:0
     RDKit          3D

 92 99  0  0  1  0  0  0  0  0999 V2000
  -29.7180  -22.8470   20.5270 C   0  0  0  0  0  2  0  0  0  0  0  0
  -29.1750  -22.0950   19.3130 C   0  0  0  0  0  2  0  0  0  0  0  0
  -28.9510  -20.6110   19.5810 C   0  0  0  0  0  2  0  0  0  0  0  0
  -29.3090  -19.8320   18.3830 N   0  0  0  0  0  4  0  0  0  0  0  0
  -30.3150  -19.8180   18.2990 H   0  0  0  0  0  0  0  0  0  0  0  0
  -28.9470  -20.2940   17.5640 H   0  0  0  0  0  0  0  0  0  0  0  0
  -28.8200  -18.4480   18.3800 C   0  0  0  0  0  2  0  0  0  0  0  0
  -29.2760  -17.6770   19.6320 C   0  0  0  0  0  2  0  0  0  0  0  0
  -29.6940  -16.2620   19.2840 C   0  0  0  0  0  2  0  0  0  0  0  0
  -30.6550  -14.4080   20.4610 C   0  0  0  0  0  0  0  0  0  0  0  0
  -30.3620  -12.2530   19.3780 C   0  0  0  0  0  2  0  0  0  0  0  0
  -29.4320  -12.4940   18.1690 C   0  0  0  0  0  2  0  0  0  0  0  0
  -27.9490  -12.3940   18.5760 C   0  0  0  0  0  2  0  0  0  0  0  0
  -27.6090  -13.2130   19.8490 C   0  0  0  0  0  3  0  0  0  0  0  0
  -28.6580  -12.9730   20.9680 C   0  0  0  0  0  2  0  0  0  0  0  0
  -30.0020  -13.2240   20.4160 N   0  0  0  0  0  0  0  0  0  0  0  0
  -31.8230  -14.5840   20.1090 O   0  0  0  0  0  0  0  0  0  0  0  0
  -29.8010  -15.4280   20.4750 N   0  0  0  0  0  0  0  0  0  0  0  0
  -28.9190  -15.1950   20.9050 H   0  0  0  0  0  0  0  0  0  0  0  0
  -25.1990  -13.8450   20.4940 C   0  0  0  0  0  0  0  0  0  0  0  0
  -24.1220  -13.0820   20.8520 C   0  0  0  0  0  0  0  0  0  0  0  0
  -24.5830  -11.7280   20.8530 C   0  0  0  0  0  0  0  0  0  0  0  0
  -26.2470  -12.9580   20.3040 N   0  0  0  0  0  0  0  0  0  0  0  0
  -25.8780  -11.6810   20.5770 N   0  0  0  0  0  0  0  0  0  0  0  0
  -23.8540  -10.4700   21.0480 C   0  0  0  0  0  0  0  0  0  0  0  0
  -24.2870   -9.5060   21.9840 C   0  0  0  0  0  3  0  0  0  0  0  0
  -23.5610   -8.3090   22.1650 C   0  0  0  0  0  3  0  0  0  0  0  0
  -22.3890   -8.0700   21.4090 C   0  0  0  0  0  0  0  0  0  0  0  0
  -21.9760   -9.0230   20.4620 C   0  0  0  0  0  3  0  0  0  0  0  0
  -22.7020  -10.2100   20.2790 C   0  0  0  0  0  3  0  0  0  0  0  0
  -21.6320   -6.9270   21.5000 O   0  0  0  0  0  0  0  0  0  0  0  0
  -21.5980   -6.1780   22.6470 C   0  0  0  0  0  0  0  0  0  0  0  0
  -21.2100   -6.7300   23.8890 C   0  0  0  0  0  3  0  0  0  0  0  0
  -21.1240   -5.9070   25.0290 C   0  0  0  0  0  3  0  0  0  0  0  0
  -21.4160   -4.5330   24.9300 C   0  0  0  0  0  0  0  0  0  0  0  0
  -21.7960   -3.9810   23.6950 C   0  0  0  0  0  3  0  0  0  0  0  0
  -21.8850   -4.8020   22.5570 C   0  0  0  0  0  0  0  0  0  0  0  0
  -22.2330   -4.2620   21.3630 F   0  0  0  0  0  0  0  0  0  0  0  0
  -21.3250   -3.7390   26.0230 F   0  0  0  0  0  0  0  0  0  0  0  0
  -22.7200  -13.5640   21.0910 C   0  0  0  0  0  0  0  0  0  0  0  0
  -21.9780  -12.8790   21.9530 N   0  0  0  0  0  0  0  0  0  0  0  0
  -22.2930  -14.5830   20.5490 O   0  0  0  0  0  0  0  0  0  0  0  0
  -22.3380  -12.0550   22.4110 H   0  0  0  0  0  0  0  0  0  0  0  0
  -21.0380  -13.1830   22.1610 H   0  0  0  0  0  0  0  0  0  0  0  0
  -25.3670  -15.2140   20.3000 N   0  0  0  0  0  0  0  0  0  0  0  0
  -24.5860  -15.8580   20.3540 H   0  0  0  0  0  0  0  0  0  0  0  0
  -26.2290  -15.6580   20.0130 H   0  0  0  0  0  0  0  0  0  0  0  0
  -30.2050  -24.2150   20.0760 C   0  0  0  0  0  2  0  0  0  0  0  0
  -30.6550  -25.1040   21.2310 C   0  0  0  0  0  2  0  0  0  0  0  0
  -30.8580  -26.5400   20.7450 C   0  0  0  0  0  2  0  0  0  0  0  0
  -29.5770  -27.3860   20.7860 C   0  0  0  0  0  2  0  0  0  0  0  0
  -28.4500  -26.8030   20.1120 O   0  0  0  0  0  0  0  0  0  0  0  0
  -24.5870  -31.9070   23.2210 C   0  0  0  0  0  0  0  0  0  0  0  0
  -27.2650  -27.5110   20.1640 C   0  0  0  0  0  0  0  0  0  0  0  0
  -23.3620  -30.4860   21.5970 C   0  0  0  0  0  3  0  0  0  0  0  0
  -24.8110  -28.9300   20.1830 C   0  0  0  0  0  0  0  0  0  0  0  0
  -25.8710  -30.8720   21.3650 C   0  0  0  0  0  2  0  0  0  0  0  0
  -25.9570  -29.4970   20.7470 C   0  0  0  0  0  0  0  0  0  0  0  0
  -27.1730  -28.7990   20.7380 C   0  0  0  0  0  3  0  0  0  0  0  0
  -26.0960  -26.9380   19.6110 C   0  0  0  0  0  3  0  0  0  0  0  0
  -24.8690  -27.6400   19.6180 C   0  0  0  0  0  3  0  0  0  0  0  0
  -23.5570  -29.7740   20.2270 C   0  0  0  0  0  2  0  0  0  0  0  0
  -24.6250  -31.1030   22.1210 N   0  0  0  0  0  0  0  0  0  0  0  0
  -23.5140  -32.1840   23.7720 O   0  0  0  0  0  0  0  0  0  0  0  0
  -22.7220  -29.4820   22.5790 C   0  0  0  0  0  0  0  0  0  0  0  0
  -21.3980  -29.3010   22.4610 N   0  0  0  0  0  0  0  0  0  0  0  0
  -23.4120  -28.8630   23.3940 O   0  0  0  0  0  0  0  0  0  0  0  0
  -20.9050  -29.8490   21.7690 H   0  0  0  0  0  0  0  0  0  0  0  0
  -18.0260  -28.1220   22.9810 C   0  0  0  0  0  0  0  0  0  0  0  0
  -20.5840  -28.3740   23.2440 C   0  0  0  0  0  3  0  0  0  0  0  0
  -20.6820  -26.9370   22.6800 C   0  0  0  0  0  2  0  0  0  0  0  0
  -19.5770  -26.6070   21.6730 C   0  0  0  0  0  2  0  0  0  0  0  0
  -18.1970  -26.7650   22.3180 C   0  0  0  0  0  2  0  0  0  0  0  0
  -19.1480  -28.8830   23.4010 C   0  0  0  0  0  0  0  0  0  0  0  0
  -18.9370  -30.1540   23.9790 C   0  0  0  0  0  3  0  0  0  0  0  0
  -17.6340  -30.6620   24.1420 C   0  0  0  0  0  3  0  0  0  0  0  0
  -16.5260  -29.8980   23.7390 C   0  0  0  0  0  3  0  0  0  0  0  0
  -16.7240  -28.6290   23.1650 C   0  0  0  0  0  3  0  0  0  0  0  0
  -25.8850  -32.5360   23.8260 C   0  0  0  0  0  3  0  0  0  0  0  0
  -26.4260  -31.7570   25.0870 C   0  0  1  0  0  0  0  0  0  0  0  0
  -25.3540  -31.5160   26.1730 C   0  0  0  0  0  1  0  0  0  0  0  0
  -27.0010  -30.3820   24.6760 C   0  0  0  0  0  1  0  0  0  0  0  0
  -27.5890  -32.5480   25.7340 C   0  0  0  0  0  1  0  0  0  0  0  0
  -25.5810  -33.9320   24.1640 N   0  0  0  0  0  0  0  0  0  0  0  0
  -25.9090  -34.9850   23.4070 C   0  0  0  0  0  0  0  0  0  0  0  0
  -26.5720  -34.8870   22.3710 O   0  0  0  0  0  0  0  0  0  0  0  0
  -24.9840  -34.0830   24.9640 H   0  0  0  0  0  0  0  0  0  0  0  0
  -24.1750  -36.7740   23.0750 C   0  0  0  0  0  1  0  0  0  0  0  0
  -25.4250  -36.3700   23.8730 C   0  0  0  0  0  3  0  0  0  0  0  0
  -27.5710  -37.2470   24.6810 C   0  0  0  0  0  1  0  0  0  0  0  0
  -26.4550  -37.4270   23.7560 N   0  0  0  0  0  0  0  0  0  0  0  0
  -26.0510  -38.3440   23.9220 H   0  0  0  0  0  0  0  0  0  0  0  0
  2  3  1  0
  2  1  1  0
  4  3  1  0
  5  4  1  0
  6  4  1  0
  7  4  1  0
  7  8  1  0
  9  8  1  0
  9 18  1  0
 10 18  1  0
 11 16  1  0
 12 13  1  0
 12 11  1  0
 14 13  1  0
 14 23  1  0
 14 15  1  0
 16 10  1  0
 16 15  1  0
 17 10  2  0
 18 19  1  0
 20 21  2  0
 21 22  1  0
 21 40  1  0
 22 25  1  0
 23 20  1  0
 23 24  1  0
 24 22  2  0
 25 26  1  0
 26 27  2  0
 28 31  1  0
 28 27  1  0
 29 28  2  0
 30 29  1  0
 30 25  2  0
 31 32  1  0
 32 33  1  0
 33 34  2  0
 35 34  1  0
 35 39  1  0
 36 35  2  0
 37 32  2  0
 37 36  1  0
 38 37  1  0
 40 41  1  0
 41 44  1  0
 41 43  1  0
 42 40  2  0
 45 46  1  0
 45 20  1  0
 47 45  1  0
 48  1  1  0
 48 49  1  0
 50 51  1  0
 50 49  1  0
 52 54  1  0
 52 51  1  0
 53 64  2  0
 54 59  1  0
 55 63  1  0
 55 65  1  0
 56 62  1  0
 56 58  1  0
 57 63  1  0
 58 57  1  0
 59 58  2  0
 60 61  1  0
 60 54  2  0
 61 56  2  0
 62 55  1  0
 63 53  1  0
 65 67  2  0
 66 65  1  0
 68 66  1  0
 69 78  2  0
 69 74  1  0
 70 66  1  0
 70 74  1  0
 71 70  1  0
 72 73  1  0
 72 71  1  0
 73 69  1  0
 74 75  2  0
 75 76  1  0
 77 76  2  0
 78 77  1  0
 79 53  1  0
 79 84  1  0
 79 80  1  0
 80 83  1  1
 80 81  1  0
 82 80  1  0
 84 87  1  0
 85 89  1  0
 85 84  1  0
 86 85  2  0
 89 88  1  0
 91 89  1  0
 91 92  1  0
 91 90  1  0
M  ISO  4  10 100  18 100  51 101  52 101
M  END
>  <TORSDO>  (24) 
F 26

>  <SCORE>  (24) 
-11.766

>  <name>  (24) 
23

>  <ligand_id>  (24) 
23

>  <original_smiles>  (24) 
[H]c1c([H])c([H])c2c(c1[H])C([H])([H])C([H])([H])C([H])([H])C2([H])N([H])C(=O)C1([H])N(C(=O)C([H])(N([H])C(=O)C([H])(N([H])C([H])([H])[H])C([H])([H])[H])C(C([H])([H])[H])(C([H])([H])[H])C([H])([H])[H])C([H])([H])c2c([H])c(OC([H])([H])C([H])([H])C([H])([H])C([H])([H])C([H])([H])C([H])([H])C([H])([H])[N+]([H])([H])C([H])([H])C([H])([H])C([H])([H])N([H])C(=O)N3C([H])([H])C([H])([H])C([H])([H])C([H])(n4nc(-c5c([H])c([H])c(Oc6c([H])c([H])c(F)c([H])c6F)c([H])c5[H])c(C(=O)N([H])[H])c4N([H])[H])C3([H])[H])c([H])c([H])c2C1([H])[H]

>  <smiles>  (24) 
[H]c1c([H])c([H])c2c(c1[H])C([H])([H])C([H])([H])C([H])([H])C2([H])N([H])C(=O)C1([H])N(C(=O)C([H])(N([H])C(=O)C([H])(N([H])C([H])([H])[H])C([H])([H])[H])C(C([H])([H])[H])(C([H])([H])[H])C([H])([H])[H])C([H])([H])c2c([H])c(OC([H])([H])C([H])([H])C([H])([H])C([H])([H])C([H])([H])C([H])([H])C([H])([H])[N+]([H])([H])C([H])([H])C([H])([H])C([H])([H])N([H])C(=O)N3C([H])([H])C([H])([H])C([H])([H])C([H])(n4nc(-c5c([H])c([H])c(Oc6c([H])c([H])c(F)c([H])c6F)c([H])c5[H])c(C(=O)N([H])[H])c4N([H])[H])C3([H])[H])c([H])c([H])c2C1([H])[H]

$$$$
24:0:0
     RDKit          3D

 90 97  0  0  1  0  0  0  0  0999 V2000
  -29.0170  -22.6540   22.2960 C   0  0  0  0  0  0  0  0  0  0  0  0
  -27.8230  -22.3340   22.2980 O   0  0  0  0  0  0  0  0  0  0  0  0
  -30.1310  -21.5980   22.2120 C   0  0  0  0  0  2  0  0  0  0  0  0
  -29.6540  -20.2590   21.6000 C   0  0  0  0  0  2  0  0  0  0  0  0
  -30.7790  -19.2190   21.4410 C   0  0  0  0  0  2  0  0  0  0  0  0
  -30.2590  -17.8200   21.0530 C   0  0  0  0  0  2  0  0  0  0  0  0
  -31.3760  -16.7600   21.0320 C   0  0  0  0  0  2  0  0  0  0  0  0
  -31.2620  -14.5080   19.9500 C   0  0  0  0  0  0  0  0  0  0  0  0
  -30.8840  -12.2640   18.9860 C   0  0  0  0  0  2  0  0  0  0  0  0
  -29.9180  -12.3360   17.7890 C   0  0  0  0  0  2  0  0  0  0  0  0
  -28.4540  -12.2600   18.2630 C   0  0  0  0  0  2  0  0  0  0  0  0
  -28.1500  -13.2470   19.4220 C   0  0  0  0  0  3  0  0  0  0  0  0
  -29.2220  -13.1350   20.5280 C   0  0  0  0  0  2  0  0  0  0  0  0
  -30.5480  -13.3520   19.9170 N   0  0  0  0  0  0  0  0  0  0  0  0
  -32.2490  -14.7130   19.2380 O   0  0  0  0  0  0  0  0  0  0  0  0
  -30.8340  -15.4140   20.8400 N   0  0  0  0  0  0  0  0  0  0  0  0
  -30.0640  -15.1310   21.4290 H   0  0  0  0  0  0  0  0  0  0  0  0
  -25.8180  -13.9800   20.2340 C   0  0  0  0  0  0  0  0  0  0  0  0
  -24.7250  -13.2640   20.6490 C   0  0  0  0  0  0  0  0  0  0  0  0
  -25.1090  -11.8910   20.5890 C   0  0  0  0  0  0  0  0  0  0  0  0
  -26.8030  -13.0450   19.9540 N   0  0  0  0  0  0  0  0  0  0  0  0
  -26.3800  -11.7820   20.2190 N   0  0  0  0  0  0  0  0  0  0  0  0
  -24.3230  -10.6680   20.8050 C   0  0  0  0  0  0  0  0  0  0  0  0
  -24.7020   -9.7070   21.7680 C   0  0  0  0  0  3  0  0  0  0  0  0
  -23.9210   -8.5500   21.9720 C   0  0  0  0  0  3  0  0  0  0  0  0
  -22.7450   -8.3450   21.2120 C   0  0  0  0  0  0  0  0  0  0  0  0
  -22.3820   -9.2940   20.2410 C   0  0  0  0  0  3  0  0  0  0  0  0
  -23.1650  -10.4440   20.0350 C   0  0  0  0  0  3  0  0  0  0  0  0
  -21.9370   -7.2390   21.3240 O   0  0  0  0  0  0  0  0  0  0  0  0
  -21.7860   -6.5740   22.5140 C   0  0  0  0  0  0  0  0  0  0  0  0
  -21.2930   -7.2190   23.6710 C   0  0  0  0  0  3  0  0  0  0  0  0
  -21.0900   -6.4810   24.8540 C   0  0  0  0  0  3  0  0  0  0  0  0
  -21.3680   -5.1010   24.8820 C   0  0  0  0  0  0  0  0  0  0  0  0
  -21.8500   -4.4580   23.7310 C   0  0  0  0  0  3  0  0  0  0  0  0
  -22.0580   -5.1930   22.5490 C   0  0  0  0  0  0  0  0  0  0  0  0
  -22.5050   -4.5610   21.4370 F   0  0  0  0  0  0  0  0  0  0  0  0
  -21.1630   -4.3910   26.0160 F   0  0  0  0  0  0  0  0  0  0  0  0
  -23.3720  -13.8160   20.9920 C   0  0  0  0  0  0  0  0  0  0  0  0
  -22.6540  -13.1680   21.9040 N   0  0  0  0  0  0  0  0  0  0  0  0
  -22.9620  -14.8590   20.4870 O   0  0  0  0  0  0  0  0  0  0  0  0
  -22.9990  -12.3240   22.3360 H   0  0  0  0  0  0  0  0  0  0  0  0
  -21.7470  -13.5230   22.1720 H   0  0  0  0  0  0  0  0  0  0  0  0
  -26.0470  -15.3410   20.0560 N   0  0  0  0  0  0  0  0  0  0  0  0
  -25.3220  -16.0350   20.1980 H   0  0  0  0  0  0  0  0  0  0  0  0
  -26.9080  -15.7370   19.6950 H   0  0  0  0  0  0  0  0  0  0  0  0
  -29.4230  -24.1340   22.3660 C   0  0  0  0  0  2  0  0  0  0  0  0
  -29.7050  -24.4430   19.8440 C   0  0  0  0  0  1  0  0  0  0  0  0
  -28.9960  -24.9500   21.1160 C   0  0  0  0  0  3  0  0  0  0  0  0
  -29.2240  -26.4690   21.3010 C   0  0  0  0  0  2  0  0  0  0  0  0
  -28.7680  -27.1540   20.1320 O   0  0  0  0  0  0  0  0  0  0  0  0
  -24.6970  -32.0260   23.3770 C   0  0  0  0  0  0  0  0  0  0  0  0
  -27.5690  -27.8150   20.2200 C   0  0  0  0  0  0  0  0  0  0  0  0
  -23.5700  -30.6380   21.6620 C   0  0  0  0  0  3  0  0  0  0  0  0
  -25.1100  -29.2010   20.2210 C   0  0  0  0  0  0  0  0  0  0  0  0
  -26.0770  -31.1020   21.5230 C   0  0  0  0  0  2  0  0  0  0  0  0
  -26.2280  -29.7500   20.8620 C   0  0  0  0  0  0  0  0  0  0  0  0
  -27.4580  -29.0600   20.8700 C   0  0  0  0  0  3  0  0  0  0  0  0
  -26.4460  -27.2770   19.5610 C   0  0  0  0  0  3  0  0  0  0  0  0
  -25.2120  -27.9590   19.5710 C   0  0  0  0  0  3  0  0  0  0  0  0
  -23.8310  -30.0100   20.2650 C   0  0  0  0  0  2  0  0  0  0  0  0
  -24.7970  -31.2690   22.2480 N   0  0  0  0  0  0  0  0  0  0  0  0
  -23.5980  -32.2380   23.9070 O   0  0  0  0  0  0  0  0  0  0  0  0
  -22.9420  -29.5620   22.5770 C   0  0  0  0  0  0  0  0  0  0  0  0
  -21.6260  -29.3400   22.4230 N   0  0  0  0  0  0  0  0  0  0  0  0
  -23.6350  -28.9330   23.3800 O   0  0  0  0  0  0  0  0  0  0  0  0
  -21.1250  -29.9060   21.7510 H   0  0  0  0  0  0  0  0  0  0  0  0
  -18.2880  -28.0270   22.8310 C   0  0  0  0  0  0  0  0  0  0  0  0
  -20.8320  -28.3470   23.1470 C   0  0  0  0  0  3  0  0  0  0  0  0
  -20.9860  -26.9440   22.5170 C   0  0  0  0  0  2  0  0  0  0  0  0
  -19.9050  -26.6290   21.4770 C   0  0  0  0  0  2  0  0  0  0  0  0
  -18.5120  -26.7110   22.1060 C   0  0  0  0  0  2  0  0  0  0  0  0
  -19.3780  -28.8020   23.3040 C   0  0  0  0  0  0  0  0  0  0  0  0
  -19.1140  -30.0380   23.9370 C   0  0  0  0  0  3  0  0  0  0  0  0
  -17.7940  -30.4940   24.1050 C   0  0  0  0  0  3  0  0  0  0  0  0
  -16.7180  -29.7150   23.6470 C   0  0  0  0  0  3  0  0  0  0  0  0
  -16.9660  -28.4830   23.0140 C   0  0  0  0  0  3  0  0  0  0  0  0
  -25.9480  -32.6790   24.0420 C   0  0  0  0  0  3  0  0  0  0  0  0
  -25.6100  -34.0770   24.3470 N   0  0  0  0  0  0  0  0  0  0  0  0
  -25.9590  -35.1250   23.5900 C   0  0  0  0  0  0  0  0  0  0  0  0
  -26.6710  -35.0190   22.5870 O   0  0  0  0  0  0  0  0  0  0  0  0
  -24.9930  -34.2340   25.1310 H   0  0  0  0  0  0  0  0  0  0  0  0
  -24.2210  -36.8830   23.1480 C   0  0  0  0  0  1  0  0  0  0  0  0
  -25.4350  -36.5110   24.0120 C   0  0  0  0  0  3  0  0  0  0  0  0
  -27.5230  -37.4360   24.9140 C   0  0  0  0  0  1  0  0  0  0  0  0
  -26.4570  -37.5780   23.9260 N   0  0  0  0  0  0  0  0  0  0  0  0
  -26.0340  -38.4950   24.0450 H   0  0  0  0  0  0  0  0  0  0  0  0
  -26.4290  -31.9240   25.3410 C   0  0  1  0  0  0  0  0  0  0  0  0
  -25.3000  -31.6660   26.3680 C   0  0  0  0  0  1  0  0  0  0  0  0
  -27.0520  -30.5590   24.9700 C   0  0  0  0  0  1  0  0  0  0  0  0
  -27.5350  -32.7460   26.0440 C   0  0  0  0  0  1  0  0  0  0  0  0
  1  2  2  0
  1 46  1  0
  3  1  1  0
  4  3  1  0
  5  4  1  0
  6  5  1  0
  7  6  1  0
  8 16  1  0
  9 14  1  0
 10 11  1  0
 10  9  1  0
 12 11  1  0
 12 21  1  0
 12 13  1  0
 14  8  1  0
 14 13  1  0
 15  8  2  0
 16  7  1  0
 16 17  1  0
 18 19  2  0
 19 38  1  0
 20 19  1  0
 20 23  1  0
 21 22  1  0
 21 18  1  0
 22 20  2  0
 23 24  1  0
 24 25  2  0
 26 29  1  0
 26 25  1  0
 27 26  2  0
 28 27  1  0
 28 23  2  0
 29 30  1  0
 30 35  2  0
 30 31  1  0
 31 32  2  0
 32 33  1  0
 33 37  1  0
 34 33  2  0
 35 34  1  0
 36 35  1  0
 38 39  1  0
 39 42  1  0
 39 41  1  0
 40 38  2  0
 43 44  1  0
 43 18  1  0
 45 43  1  0
 48 47  1  0
 48 49  1  0
 48 46  1  0
 50 52  1  0
 50 49  1  0
 51 62  2  0
 52 57  1  0
 53 61  1  0
 53 63  1  0
 54 60  1  0
 54 56  1  0
 55 61  1  0
 56 57  2  0
 56 55  1  0
 58 59  1  0
 58 52  2  0
 59 54  2  0
 60 53  1  0
 61 51  1  0
 63 65  2  0
 64 63  1  0
 66 64  1  0
 67 76  2  0
 67 72  1  0
 68 64  1  0
 68 72  1  0
 69 68  1  0
 70 71  1  0
 70 69  1  0
 71 67  1  0
 72 73  2  0
 73 74  1  0
 75 74  2  0
 76 75  1  0
 77 51  1  0
 77 78  1  0
 77 87  1  0
 78 81  1  0
 79 83  1  0
 79 78  1  0
 80 79  2  0
 83 82  1  0
 85 83  1  0
 85 86  1  0
 85 84  1  0
 87 90  1  1
 87 88  1  0
 89 87  1  0
M  ISO  4   8 100  16 100  49 101  50 101
M  END
>  <TORSDO>  (25) 
F 24

>  <SCORE>  (25) 
-11.726

>  <name>  (25) 
24

>  <ligand_id>  (25) 
24

>  <original_smiles>  (25) 
[H]c1c([H])c([H])c2c(c1[H])C([H])([H])C([H])([H])C([H])([H])C2([H])N([H])C(=O)C1([H])N(C(=O)C([H])(N([H])C(=O)C([H])(N([H])C([H])([H])[H])C([H])([H])[H])C(C([H])([H])[H])(C([H])([H])[H])C([H])([H])[H])C([H])([H])c2c([H])c(OC([H])([H])C([H])(C([H])([H])[H])C([H])([H])C(=O)C([H])([H])C([H])([H])C([H])([H])C([H])([H])C([H])([H])N([H])C(=O)N3C([H])([H])C([H])([H])C([H])([H])C([H])(n4nc(-c5c([H])c([H])c(Oc6c([H])c([H])c(F)c([H])c6F)c([H])c5[H])c(C(=O)N([H])[H])c4N([H])[H])C3([H])[H])c([H])c([H])c2C1([H])[H]

>  <smiles>  (25) 
[H]c1c([H])c([H])c2c(c1[H])C([H])([H])C([H])([H])C([H])([H])C2([H])N([H])C(=O)C1([H])N(C(=O)C([H])(N([H])C(=O)C([H])(N([H])C([H])([H])[H])C([H])([H])[H])C(C([H])([H])[H])(C([H])([H])[H])C([H])([H])[H])C([H])([H])c2c([H])c(OC([H])([H])C([H])(C([H])([H])[H])C([H])([H])C(=O)C([H])([H])C([H])([H])C([H])([H])C([H])([H])C([H])([H])N([H])C(=O)N3C([H])([H])C([H])([H])C([H])([H])C([H])(n4nc(-c5c([H])c([H])c(Oc6c([H])c([H])c(F)c([H])c6F)c([H])c5[H])c(C(=O)N([H])[H])c4N([H])[H])C3([H])[H])c([H])c([H])c2C1([H])[H]

$$$$
25:0:0
     RDKit          3D

 92 99  0  0  1  0  0  0  0  0999 V2000
  -31.7310  -23.5960   18.6490 C   0  0  0  0  0  2  0  0  0  0  0  0
  -29.8310  -23.8670   17.1000 C   0  0  0  0  0  1  0  0  0  0  0  0
  -30.3150  -24.0130   18.4960 N   0  0  2  0  0  4  0  0  0  0  0  0
  -29.7880  -23.3630   19.0600 H   0  0  0  0  0  0  0  0  0  0  0  0
  -30.0620  -25.3600   19.0760 C   0  0  0  0  0  2  0  0  0  0  0  0
  -28.5700  -25.6980   19.1850 C   0  0  0  0  0  2  0  0  0  0  0  0
  -28.4370  -26.8170   20.0500 O   0  0  0  0  0  0  0  0  0  0  0  0
  -24.6120  -31.8710   23.2120 C   0  0  0  0  0  0  0  0  0  0  0  0
  -27.2310  -27.4770   20.0710 C   0  0  0  0  0  0  0  0  0  0  0  0
  -23.3950  -30.5000   21.5530 C   0  0  0  0  0  3  0  0  0  0  0  0
  -24.8350  -28.9710   20.1150 C   0  0  0  0  0  0  0  0  0  0  0  0
  -25.9180  -30.8510   21.3550 C   0  0  0  0  0  2  0  0  0  0  0  0
  -25.9920  -29.4860   20.7080 C   0  0  0  0  0  0  0  0  0  0  0  0
  -27.1880  -28.7410   20.6950 C   0  0  0  0  0  3  0  0  0  0  0  0
  -26.0470  -26.9590   19.4900 C   0  0  0  0  0  3  0  0  0  0  0  0
  -24.8530  -27.7030   19.5100 C   0  0  0  0  0  3  0  0  0  0  0  0
  -23.5960  -29.8350   20.1660 C   0  0  0  0  0  2  0  0  0  0  0  0
  -24.6610  -31.0870   22.1000 N   0  0  0  0  0  0  0  0  0  0  0  0
  -23.5340  -32.1420   23.7580 O   0  0  0  0  0  0  0  0  0  0  0  0
  -22.7390  -29.4710   22.4990 C   0  0  0  0  0  0  0  0  0  0  0  0
  -21.4120  -29.3040   22.3720 N   0  0  0  0  0  0  0  0  0  0  0  0
  -23.4180  -28.8220   23.3010 O   0  0  0  0  0  0  0  0  0  0  0  0
  -20.9270  -29.8750   21.6920 H   0  0  0  0  0  0  0  0  0  0  0  0
  -18.0280  -28.1400   22.8520 C   0  0  0  0  0  0  0  0  0  0  0  0
  -20.5870  -28.3680   23.1320 C   0  0  0  0  0  3  0  0  0  0  0  0
  -20.6760  -26.9410   22.5420 C   0  0  0  0  0  2  0  0  0  0  0  0
  -19.5730  -26.6410   21.5220 C   0  0  0  0  0  2  0  0  0  0  0  0
  -18.1920  -26.7950   22.1640 C   0  0  0  0  0  2  0  0  0  0  0  0
  -19.1530  -28.8850   23.2930 C   0  0  0  0  0  0  0  0  0  0  0  0
  -18.9460  -30.1470   23.8930 C   0  0  0  0  0  3  0  0  0  0  0  0
  -17.6460  -30.6600   24.0600 C   0  0  0  0  0  3  0  0  0  0  0  0
  -16.5350  -29.9110   23.6340 C   0  0  0  0  0  3  0  0  0  0  0  0
  -16.7270  -28.6540   23.0350 C   0  0  0  0  0  3  0  0  0  0  0  0
  -25.9040  -32.4830   23.8400 C   0  0  0  0  0  3  0  0  0  0  0  0
  -26.4490  -31.6580   25.0700 C   0  0  1  0  0  0  0  0  0  0  0  0
  -25.3790  -31.3660   26.1470 C   0  0  0  0  0  1  0  0  0  0  0  0
  -27.0290  -30.3040   24.6010 C   0  0  0  0  0  1  0  0  0  0  0  0
  -27.6090  -32.4280   25.7450 C   0  0  0  0  0  1  0  0  0  0  0  0
  -25.5910  -33.8620   24.2340 N   0  0  0  0  0  0  0  0  0  0  0  0
  -25.9030  -34.9480   23.5130 C   0  0  0  0  0  0  0  0  0  0  0  0
  -26.5590  -34.8930   22.4690 O   0  0  0  0  0  0  0  0  0  0  0  0
  -25.0090  -33.9780   25.0510 H   0  0  0  0  0  0  0  0  0  0  0  0
  -24.1480  -36.7310   23.2640 C   0  0  0  0  0  1  0  0  0  0  0  0
  -25.4090  -36.3100   24.0350 C   0  0  0  0  0  3  0  0  0  0  0  0
  -27.5560  -37.1800   24.8480 C   0  0  0  0  0  1  0  0  0  0  0  0
  -26.4280  -37.3780   23.9430 N   0  0  0  0  0  0  0  0  0  0  0  0
  -26.0160  -38.2850   24.1450 H   0  0  0  0  0  0  0  0  0  0  0  0
  -31.8820  -22.0660   18.7120 C   0  0  0  0  0  2  0  0  0  0  0  0
  -31.2050  -21.4440   19.9460 C   0  0  0  0  0  2  0  0  0  0  0  0
  -31.4060  -19.9290   20.0000 C   0  0  0  0  0  2  0  0  0  0  0  0
  -30.9880  -19.3170   21.3430 C   0  0  0  0  0  2  0  0  0  0  0  0
  -31.2280  -17.8050   21.3450 C   0  0  0  0  0  2  0  0  0  0  0  0
  -31.0220  -17.1570   22.7190 C   0  0  0  0  0  2  0  0  0  0  0  0
  -31.4890  -15.6940   22.7520 C   0  0  0  0  0  2  0  0  0  0  0  0
  -30.8310  -14.3020   20.7720 C   0  0  0  0  0  0  0  0  0  0  0  0
  -30.4230  -12.3130   19.3770 C   0  0  0  0  0  2  0  0  0  0  0  0
  -29.4830  -12.5640   18.1880 C   0  0  0  0  0  2  0  0  0  0  0  0
  -28.0140  -12.3940   18.6130 C   0  0  0  0  0  2  0  0  0  0  0  0
  -27.6710  -13.2110   19.8840 C   0  0  0  0  0  3  0  0  0  0  0  0
  -28.7100  -12.9610   20.9990 C   0  0  0  0  0  2  0  0  0  0  0  0
  -30.0620  -13.2290   20.4680 N   0  0  0  0  0  0  0  0  0  0  0  0
  -31.7720  -14.6880   20.0710 O   0  0  0  0  0  0  0  0  0  0  0  0
  -30.6120  -14.7990   21.9980 N   0  0  0  0  0  0  0  0  0  0  0  0
  -29.8430  -14.3910   22.5090 H   0  0  0  0  0  0  0  0  0  0  0  0
  -25.2610  -13.8170   20.5680 C   0  0  0  0  0  0  0  0  0  0  0  0
  -24.1860  -13.0440   20.9170 C   0  0  0  0  0  0  0  0  0  0  0  0
  -24.6420  -11.6910   20.8720 C   0  0  0  0  0  0  0  0  0  0  0  0
  -26.3080  -12.9360   20.3410 N   0  0  0  0  0  0  0  0  0  0  0  0
  -25.9360  -11.6500   20.5790 N   0  0  0  0  0  0  0  0  0  0  0  0
  -23.9090  -10.4280   21.0400 C   0  0  0  0  0  0  0  0  0  0  0  0
  -24.3630   -9.4200   21.9190 C   0  0  0  0  0  3  0  0  0  0  0  0
  -23.6300   -8.2240   22.0760 C   0  0  0  0  0  3  0  0  0  0  0  0
  -22.4290   -8.0270   21.3540 C   0  0  0  0  0  0  0  0  0  0  0  0
  -21.9920   -9.0250   20.4650 C   0  0  0  0  0  3  0  0  0  0  0  0
  -22.7270  -10.2130   20.3060 C   0  0  0  0  0  3  0  0  0  0  0  0
  -21.6650   -6.8870   21.4230 O   0  0  0  0  0  0  0  0  0  0  0  0
  -21.6860   -6.0720   22.5260 C   0  0  0  0  0  0  0  0  0  0  0  0
  -21.4010   -6.5620   23.8190 C   0  0  0  0  0  3  0  0  0  0  0  0
  -21.3670   -5.6780   24.9160 C   0  0  0  0  0  3  0  0  0  0  0  0
  -21.6050   -4.3040   24.7210 C   0  0  0  0  0  0  0  0  0  0  0  0
  -21.8830   -3.8130   23.4330 C   0  0  0  0  0  3  0  0  0  0  0  0
  -21.9190   -4.6950   22.3390 C   0  0  0  0  0  0  0  0  0  0  0  0
  -22.1660   -4.2130   21.0970 F   0  0  0  0  0  0  0  0  0  0  0  0
  -21.5640   -3.4540   25.7730 F   0  0  0  0  0  0  0  0  0  0  0  0
  -22.7880  -13.5230   21.1830 C   0  0  0  0  0  0  0  0  0  0  0  0
  -22.0520  -12.8230   22.0390 N   0  0  0  0  0  0  0  0  0  0  0  0
  -22.3560  -14.5510   20.6650 O   0  0  0  0  0  0  0  0  0  0  0  0
  -22.4120  -11.9920   22.4830 H   0  0  0  0  0  0  0  0  0  0  0  0
  -21.1120  -13.1250   22.2540 H   0  0  0  0  0  0  0  0  0  0  0  0
  -25.4300  -15.1900   20.4100 N   0  0  0  0  0  0  0  0  0  0  0  0
  -24.6640  -15.8440   20.5240 H   0  0  0  0  0  0  0  0  0  0  0  0
  -26.2930  -15.6350   20.1210 H   0  0  0  0  0  0  0  0  0  0  0  0
  1 48  1  0
  2  3  1  0
  3  1  1  0
  3  4  1  1
  3  5  1  0
  5  6  1  0
  6  7  1  0
  7  9  1  0
  8 19  2  0
  9 14  1  0
 10 18  1  0
 10 20  1  0
 11 17  1  0
 11 13  1  0
 12 18  1  0
 13 12  1  0
 14 13  2  0
 15 16  1  0
 15  9  2  0
 16 11  2  0
 17 10  1  0
 18  8  1  0
 20 22  2  0
 21 20  1  0
 23 21  1  0
 24 33  2  0
 24 29  1  0
 25 21  1  0
 25 29  1  0
 26 25  1  0
 27 28  1  0
 27 26  1  0
 28 24  1  0
 29 30  2  0
 30 31  1  0
 32 31  2  0
 33 32  1  0
 34  8  1  0
 34 39  1  0
 34 35  1  0
 35 38  1  1
 35 36  1  0
 37 35  1  0
 39 42  1  0
 40 44  1  0
 40 39  1  0
 41 40  2  0
 44 43  1  0
 46 44  1  0
 46 47  1  0
 46 45  1  0
 48 49  1  0
 49 50  1  0
 50 51  1  0
 51 52  1  0
 52 53  1  0
 53 54  1  0
 55 63  1  0
 56 61  1  0
 57 58  1  0
 57 56  1  0
 59 58  1  0
 59 68  1  0
 59 60  1  0
 61 55  1  0
 61 60  1  0
 62 55  2  0
 63 64  1  0
 63 54  1  0
 65 66  2  0
 66 85  1  0
 67 66  1  0
 67 70  1  0
 68 65  1  0
 68 69  1  0
 69 67  2  0
 70 71  1  0
 71 72  2  0
 73 76  1  0
 73 72  1  0
 74 73  2  0
 75 74  1  0
 75 70  2  0
 76 77  1  0
 77 78  1  0
 78 79  2  0
 80 79  1  0
 80 84  1  0
 81 80  2  0
 82 77  2  0
 82 81  1  0
 83 82  1  0
 85 86  1  0
 86 89  1  0
 86 88  1  0
 87 85  2  0
 90 91  1  0
 90 65  1  0
 92 90  1  0
M  ISO  4   6 101   7 101  55 100  63 100
M  END
>  <TORSDO>  (26) 
F 26

>  <SCORE>  (26) 
-10.042

>  <name>  (26) 
25

>  <ligand_id>  (26) 
25

>  <original_smiles>  (26) 
[H]c1c([H])c([H])c2c(c1[H])C([H])([H])C([H])([H])C([H])([H])C2([H])N([H])C(=O)C1([H])N(C(=O)C([H])(N([H])C(=O)C([H])(N([H])C([H])([H])[H])C([H])([H])[H])C(C([H])([H])[H])(C([H])([H])[H])C([H])([H])[H])C([H])([H])c2c([H])c(OC([H])([H])C([H])([H])[N+]([H])(C([H])([H])[H])C([H])([H])C([H])([H])C([H])([H])C([H])([H])C([H])([H])C([H])([H])C([H])([H])C([H])([H])N([H])C(=O)N3C([H])([H])C([H])([H])C([H])([H])C([H])(n4nc(-c5c([H])c([H])c(Oc6c([H])c([H])c(F)c([H])c6F)c([H])c5[H])c(C(=O)N([H])[H])c4N([H])[H])C3([H])[H])c([H])c([H])c2C1([H])[H]

>  <smiles>  (26) 
[H]c1c([H])c([H])c2c(c1[H])C([H])([H])C([H])([H])C([H])([H])C2([H])N([H])C(=O)C1([H])N(C(=O)C([H])(N([H])C(=O)C([H])(N([H])C([H])([H])[H])C([H])([H])[H])C(C([H])([H])[H])(C([H])([H])[H])C([H])([H])[H])C([H])([H])c2c([H])c(OC([H])([H])C([H])([H])[N+]([H])(C([H])([H])[H])C([H])([H])C([H])([H])C([H])([H])C([H])([H])C([H])([H])C([H])([H])C([H])([H])C([H])([H])N([H])C(=O)N3C([H])([H])C([H])([H])C([H])([H])C([H])(n4nc(-c5c([H])c([H])c(Oc6c([H])c([H])c(F)c([H])c6F)c([H])c5[H])c(C(=O)N([H])[H])c4N([H])[H])C3([H])[H])c([H])c([H])c2C1([H])[H]

$$$$
26:0:0
     RDKit          3D

 99107  0  0  1  0  0  0  0  0999 V2000
  -27.9950  -24.0690   22.1630 C   0  0  0  0  0  3  0  0  0  0  0  0
  -28.7110  -23.8160   23.3500 C   0  0  0  0  0  3  0  0  0  0  0  0
  -29.4700  -25.9450   21.6810 C   0  0  0  0  0  3  0  0  0  0  0  0
  -28.3650  -25.1460   21.3330 C   0  0  0  0  0  0  0  0  0  0  0  0
  -29.8010  -24.6340   23.7230 C   0  0  0  0  0  0  0  0  0  0  0  0
  -30.1890  -25.7020   22.8710 C   0  0  0  0  0  0  0  0  0  0  0  0
  -31.3240  -26.6460   23.2310 C   0  0  0  0  0  1  0  0  0  0  0  0
  -27.5680  -25.4870   20.1660 C   0  0  0  0  0  0  0  0  0  0  0  0
  -26.8700  -25.8810   19.2450 C   0  0  0  0  0  0  0  0  0  0  0  0
  -26.0840  -26.3930   18.3210 O   0  0  0  0  0  0  0  0  0  0  0  0
  -24.6380  -31.1780   23.3870 C   0  0  0  0  0  0  0  0  0  0  0  0
  -25.2120  -27.3280   18.8180 C   0  0  0  0  0  0  0  0  0  0  0  0
  -22.7720  -30.6170   21.8600 C   0  0  0  0  0  3  0  0  0  0  0  0
  -23.3990  -29.2510   19.8010 C   0  0  0  0  0  0  0  0  0  0  0  0
  -25.1980  -30.4300   21.0800 C   0  0  0  0  0  2  0  0  0  0  0  0
  -24.7510  -29.3150   20.1600 C   0  0  0  0  0  0  0  0  0  0  0  0
  -25.6650  -28.3590   19.6700 C   0  0  0  0  0  3  0  0  0  0  0  0
  -23.8490  -27.2710   18.4630 C   0  0  0  0  0  3  0  0  0  0  0  0
  -22.9380  -28.2260   18.9550 C   0  0  0  0  0  3  0  0  0  0  0  0
  -22.4920  -30.3240   20.3620 C   0  0  0  0  0  2  0  0  0  0  0  0
  -24.2350  -30.7350   22.1630 N   0  0  0  0  0  0  0  0  0  0  0  0
  -23.8140  -31.5300   24.2420 O   0  0  0  0  0  0  0  0  0  0  0  0
  -22.0550  -29.5470   22.7140 C   0  0  0  0  0  0  0  0  0  0  0  0
  -20.7130  -29.5380   22.6540 N   0  0  0  0  0  0  0  0  0  0  0  0
  -22.6990  -28.7370   23.3860 O   0  0  0  0  0  0  0  0  0  0  0  0
  -20.2600  -30.2390   22.0860 H   0  0  0  0  0  0  0  0  0  0  0  0
  -17.2860  -28.4300   22.9160 C   0  0  0  0  0  0  0  0  0  0  0  0
  -19.8290  -28.5990   23.3420 C   0  0  0  0  0  3  0  0  0  0  0  0
  -19.9260  -27.1870   22.7180 C   0  0  0  0  0  2  0  0  0  0  0  0
  -18.8750  -26.9360   21.6330 C   0  0  0  0  0  2  0  0  0  0  0  0
  -17.4620  -27.1010   22.2020 C   0  0  0  0  0  2  0  0  0  0  0  0
  -18.3990  -29.1410   23.4380 C   0  0  0  0  0  0  0  0  0  0  0  0
  -18.1830  -30.3880   24.0620 C   0  0  0  0  0  3  0  0  0  0  0  0
  -16.8860  -30.9240   24.1710 C   0  0  0  0  0  3  0  0  0  0  0  0
  -15.7860  -30.2090   23.6670 C   0  0  0  0  0  3  0  0  0  0  0  0
  -15.9870  -28.9640   23.0460 C   0  0  0  0  0  3  0  0  0  0  0  0
  -26.1500  -31.2880   23.7610 C   0  0  0  0  0  3  0  0  0  0  0  0
  -26.7080  -30.0000   24.4840 C   0  0  1  0  0  0  0  0  0  0  0  0
  -25.8510  -29.5440   25.6870 C   0  0  0  0  0  1  0  0  0  0  0  0
  -26.7990  -28.8170   23.4930 C   0  0  0  0  0  1  0  0  0  0  0  0
  -28.1450  -30.2650   24.9910 C   0  0  0  0  0  1  0  0  0  0  0  0
  -26.3090  -32.4740   24.6130 N   0  0  0  0  0  0  0  0  0  0  0  0
  -26.8730  -33.6230   24.2190 C   0  0  0  0  0  0  0  0  0  0  0  0
  -27.3820  -33.7700   23.1040 O   0  0  0  0  0  0  0  0  0  0  0  0
  -25.8670  -32.4450   25.5200 H   0  0  0  0  0  0  0  0  0  0  0  0
  -25.7880  -35.8110   24.8140 C   0  0  0  0  0  1  0  0  0  0  0  0
  -26.8690  -34.7970   25.2170 C   0  0  0  0  0  3  0  0  0  0  0  0
  -29.2020  -34.6550   25.9650 C   0  0  0  0  0  1  0  0  0  0  0  0
  -28.1780  -35.4770   25.3270 N   0  0  0  0  0  0  0  0  0  0  0  0
  -28.0900  -36.3430   25.8550 H   0  0  0  0  0  0  0  0  0  0  0  0
  -30.4750  -24.4080   25.0760 C   0  0  0  0  0  2  0  0  0  0  0  0
  -31.5000  -23.2520   25.1360 C   0  0  0  0  0  2  0  0  0  0  0  0
  -30.9620  -21.9440   24.7030 N   0  0  0  0  0  4  0  0  0  0  0  0
  -29.9780  -21.9060   24.9100 H   0  0  0  0  0  0  0  0  0  0  0  0
  -31.4110  -21.2410   25.2670 H   0  0  0  0  0  0  0  0  0  0  0  0
  -31.2080  -21.5870   23.2890 C   0  0  0  0  0  2  0  0  0  0  0  0
  -30.7080  -20.1660   22.9740 C   0  0  0  0  0  2  0  0  0  0  0  0
  -31.1460  -19.6800   21.5840 C   0  0  0  0  0  2  0  0  0  0  0  0
  -30.5250  -18.3230   21.2120 C   0  0  0  0  0  2  0  0  0  0  0  0
  -31.0410  -17.7980   19.8630 C   0  0  0  0  0  2  0  0  0  0  0  0
  -30.1000  -16.7850   19.1960 C   0  0  0  0  0  2  0  0  0  0  0  0
  -30.7500  -14.4570   19.7190 C   0  0  0  0  0  0  0  0  0  0  0  0
  -30.6120  -12.0330   19.3270 C   0  0  0  0  0  2  0  0  0  0  0  0
  -29.6680  -11.7850   18.1320 C   0  0  0  0  0  2  0  0  0  0  0  0
  -28.2030  -11.6920   18.6030 C   0  0  0  0  0  2  0  0  0  0  0  0
  -27.7970  -12.8650   19.5350 C   0  0  0  0  0  3  0  0  0  0  0  0
  -28.8550  -13.0760   20.6440 C   0  0  0  0  0  2  0  0  0  0  0  0
  -30.1680  -13.2640   19.9980 N   0  0  0  0  0  0  0  0  0  0  0  0
  -31.8390  -14.5640   19.1460 O   0  0  0  0  0  0  0  0  0  0  0  0
  -29.9740  -15.5260   19.9320 N   0  0  0  0  0  0  0  0  0  0  0  0
  -29.1050  -15.3590   20.4160 H   0  0  0  0  0  0  0  0  0  0  0  0
  -25.4970  -13.6020   20.4300 C   0  0  0  0  0  0  0  0  0  0  0  0
  -24.4040  -12.8880   20.8420 C   0  0  0  0  0  0  0  0  0  0  0  0
  -24.7650  -11.5100   20.7220 C   0  0  0  0  0  0  0  0  0  0  0  0
  -26.4610  -12.6640   20.0930 N   0  0  0  0  0  0  0  0  0  0  0  0
  -26.0260  -11.3990   20.3220 N   0  0  0  0  0  0  0  0  0  0  0  0
  -23.9670  -10.2920   20.9100 C   0  0  0  0  0  0  0  0  0  0  0  0
  -24.3620   -9.2840   21.8170 C   0  0  0  0  0  3  0  0  0  0  0  0
  -23.5690   -8.1300   21.9940 C   0  0  0  0  0  3  0  0  0  0  0  0
  -22.3680   -7.9760   21.2640 C   0  0  0  0  0  0  0  0  0  0  0  0
  -21.9900   -8.9720   20.3460 C   0  0  0  0  0  3  0  0  0  0  0  0
  -22.7830  -10.1180   20.1670 C   0  0  0  0  0  3  0  0  0  0  0  0
  -21.5480   -6.8770   21.3530 O   0  0  0  0  0  0  0  0  0  0  0  0
  -21.4150   -6.1690   22.5210 C   0  0  0  0  0  0  0  0  0  0  0  0
  -20.9850   -6.7820   23.7180 C   0  0  0  0  0  3  0  0  0  0  0  0
  -20.7960   -6.0040   24.8780 C   0  0  0  0  0  3  0  0  0  0  0  0
  -21.0260   -4.6150   24.8410 C   0  0  0  0  0  0  0  0  0  0  0  0
  -21.4480   -4.0030   23.6480 C   0  0  0  0  0  3  0  0  0  0  0  0
  -21.6390   -4.7780   22.4900 C   0  0  0  0  0  0  0  0  0  0  0  0
  -22.0250   -4.1800   21.3370 F   0  0  0  0  0  0  0  0  0  0  0  0
  -20.8360   -3.8670   25.9520 F   0  0  0  0  0  0  0  0  0  0  0  0
  -23.0650  -13.4430   21.2350 C   0  0  0  0  0  0  0  0  0  0  0  0
  -22.3600  -12.7670   22.1340 N   0  0  0  0  0  0  0  0  0  0  0  0
  -22.6580  -14.5110   20.7790 O   0  0  0  0  0  0  0  0  0  0  0  0
  -22.7020  -11.9010   22.5230 H   0  0  0  0  0  0  0  0  0  0  0  0
  -21.4640  -13.1200   22.4390 H   0  0  0  0  0  0  0  0  0  0  0  0
  -25.7450  -14.9660   20.2980 N   0  0  0  0  0  0  0  0  0  0  0  0
  -25.0370  -15.6660   20.4840 H   0  0  0  0  0  0  0  0  0  0  0  0
  -26.6020  -15.3570   19.9280 H   0  0  0  0  0  0  0  0  0  0  0  0
  1  2  1  0
  2  5  2  0
  3  6  2  0
  4  3  1  0
  4  1  2  0
  5 51  1  0
  6  7  1  0
  6  5  1  0
  8  4  1  0
  9  8  3  0
 10 12  1  0
 10  9  1  0
 11 22  2  0
 12 17  1  0
 13 21  1  0
 13 23  1  0
 14 16  1  0
 14 20  1  0
 15 21  1  0
 16 15  1  0
 17 16  2  0
 18 12  2  0
 18 19  1  0
 19 14  2  0
 20 13  1  0
 21 11  1  0
 23 25  2  0
 24 23  1  0
 26 24  1  0
 27 36  2  0
 27 32  1  0
 28 24  1  0
 28 32  1  0
 29 28  1  0
 30 31  1  0
 30 29  1  0
 31 27  1  0
 32 33  2  0
 33 34  1  0
 35 34  2  0
 36 35  1  0
 37 11  1  0
 37 38  1  0
 37 42  1  0
 38 41  1  1
 38 39  1  0
 40 38  1  0
 42 45  1  0
 43 42  1  0
 43 47  1  0
 44 43  2  0
 47 46  1  0
 47 49  1  0
 49 50  1  0
 49 48  1  0
 51 52  1  0
 53 54  1  0
 53 52  1  0
 53 55  1  0
 56 53  1  0
 57 56  1  0
 58 57  1  0
 59 58  1  0
 60 59  1  0
 61 60  1  0
 61 70  1  0
 62 70  1  0
 62 68  1  0
 63 68  1  0
 64 65  1  0
 64 63  1  0
 66 65  1  0
 66 75  1  0
 66 67  1  0
 68 67  1  0
 69 62  2  0
 70 71  1  0
 72 73  2  0
 73 92  1  0
 74 73  1  0
 74 77  1  0
 75 76  1  0
 75 72  1  0
 76 74  2  0
 77 78  1  0
 78 79  2  0
 80 83  1  0
 80 79  1  0
 81 80  2  0
 82 81  1  0
 82 77  2  0
 83 84  1  0
 84 85  1  0
 85 86  2  0
 87 86  1  0
 87 91  1  0
 88 87  2  0
 89 84  2  0
 89 88  1  0
 90 89  1  0
 92 93  1  0
 93 96  1  0
 93 95  1  0
 94 92  2  0
 97 72  1  0
 97 98  1  0
 99 97  1  0
M  ISO  4   9 101  10 101  62 100  70 100
M  END
>  <TORSDO>  (27) 
F 26

>  <SCORE>  (27) 
-2.773

>  <name>  (27) 
26

>  <ligand_id>  (27) 
26

>  <original_smiles>  (27) 
[H]c1c([H])c([H])c2c(c1[H])C([H])([H])C([H])([H])C([H])([H])C2([H])N([H])C(=O)C1([H])N(C(=O)C([H])(N([H])C(=O)C([H])(N([H])C([H])([H])[H])C([H])([H])[H])C(C([H])([H])[H])(C([H])([H])[H])C([H])([H])[H])C([H])([H])c2c([H])c(OC#Cc3c([H])c([H])c(C([H])([H])C([H])([H])[N+]([H])([H])C([H])([H])C([H])([H])C([H])([H])C([H])([H])C([H])([H])C([H])([H])N([H])C(=O)N4C([H])([H])C([H])([H])C([H])([H])C([H])(n5nc(-c6c([H])c([H])c(Oc7c([H])c([H])c(F)c([H])c7F)c([H])c6[H])c(C(=O)N([H])[H])c5N([H])[H])C4([H])[H])c(C([H])([H])[H])c3[H])c([H])c([H])c2C1([H])[H]

>  <smiles>  (27) 
[H]c1c([H])c([H])c2c(c1[H])C([H])([H])C([H])([H])C([H])([H])C2([H])N([H])C(=O)C1([H])N(C(=O)C([H])(N([H])C(=O)C([H])(N([H])C([H])([H])[H])C([H])([H])[H])C(C([H])([H])[H])(C([H])([H])[H])C([H])([H])[H])C([H])([H])c2c([H])c(OC#Cc3c([H])c([H])c(C([H])([H])C([H])([H])[N+]([H])([H])C([H])([H])C([H])([H])C([H])([H])C([H])([H])C([H])([H])C([H])([H])N([H])C(=O)N4C([H])([H])C([H])([H])C([H])([H])C([H])(n5nc(-c6c([H])c([H])c(Oc7c([H])c([H])c(F)c([H])c7F)c([H])c6[H])c(C(=O)N([H])[H])c5N([H])[H])C4([H])[H])c(C([H])([H])[H])c3[H])c([H])c([H])c2C1([H])[H]

$$$$
27:0:0
     RDKit          3D

 99105  0  0  1  0  0  0  0  0999 V2000
  -24.5470  -24.3960   18.6730 C   0  0  0  0  0  3  0  0  0  0  0  0
  -25.0390  -23.7250   19.7840 C   0  0  0  0  0  3  0  0  0  0  0  0
  -25.4530  -25.0230   17.8170 C   0  0  0  0  0  3  0  0  0  0  0  0
  -26.4340  -23.5270   19.8920 C   0  0  0  0  0  0  0  0  0  0  0  0
  -26.7870  -25.3140   18.2000 C   0  0  0  0  0  0  0  0  0  0  0  0
  -27.3280  -24.4440   19.2180 C   0  0  0  0  0  0  0  0  0  0  0  0
  -29.4910  -23.6110   18.5470 C   0  0  0  0  0  1  0  0  0  0  0  0
  -28.7130  -24.4170   19.4850 N   0  0  0  0  0  0  0  0  0  0  0  0
  -28.8960  -24.0970   20.4370 H   0  0  0  0  0  0  0  0  0  0  0  0
  -26.8140  -22.2660   20.6350 C   0  0  0  0  0  0  0  0  0  0  0  0
  -27.2440  -22.2420   21.7930 O   0  0  0  0  0  0  0  0  0  0  0  0
  -26.6890  -20.9360   19.8220 C   0  0  0  0  0  2  0  0  0  0  0  0
  -27.6380  -19.7470   20.1890 C   0  0  0  0  0  2  0  0  0  0  0  0
  -27.9500  -18.7610   19.0020 C   0  0  0  0  0  2  0  0  0  0  0  0
  -28.0370  -17.2580   19.4190 C   0  0  0  0  0  2  0  0  0  0  0  0
  -28.1590  -16.1390   18.3370 C   0  0  0  0  0  2  0  0  0  0  0  0
  -27.2060  -14.9010   18.5350 C   0  0  0  0  0  2  0  0  0  0  0  0
  -27.6970  -13.4010   18.5680 C   0  0  0  0  0  2  0  0  0  0  0  0
  -29.1420  -13.0060   19.0050 C   0  0  0  0  0  2  0  0  0  0  0  0
  -31.9330  -11.9430   22.0970 C   0  0  0  0  0  2  0  0  0  0  0  0
  -34.5410  -10.7420   21.1760 C   0  0  0  0  0  3  0  0  0  0  0  0
  -34.4990  -10.3130   19.5190 C   0  0  0  0  0  3  0  0  0  0  0  0
  -33.0720  -10.3710   18.8180 C   0  0  0  0  0  2  0  0  0  0  0  0
  -32.5470  -11.0870   19.8680 C   0  0  0  0  0  3  0  0  0  0  0  0
  -32.7020  -10.0240   21.1440 C   0  0  0  0  0  2  0  0  0  0  0  0
  -33.0920  -10.9600   21.9010 N   0  0  2  0  0  4  0  0  0  0  0  0
  -33.1030  -12.6310   22.0510 O   0  0  0  0  0  0  0  0  0  0  0  0
  -29.4220  -12.2670   20.3250 N   0  0  0  0  0  2  0  0  0  0  0  0
  -28.9350  -11.3820   20.3720 H   0  0  0  0  0  0  0  0  0  0  0  0
  -30.8280  -13.4630   21.2030 C   0  0  0  0  0  2  0  0  0  0  0  0
  -29.5550  -12.8120   22.2980 C   0  0  0  0  0  3  0  0  0  0  0  0
  -29.2450  -11.0170   22.0230 C   0  0  0  0  0  3  0  0  0  0  0  0
  -31.4310  -11.8110   19.9350 N   0  0  0  0  0  1  0  0  0  0  0  0
  -30.2550  -10.3470   20.7370 N   0  0  0  0  0  1  0  0  0  0  0  0
  -27.8310  -10.3090   21.8120 C   0  0  0  0  0  0  0  0  0  0  0  0
  -27.4630   -9.2820   22.7010 C   0  0  0  0  0  3  0  0  0  0  0  0
  -26.2650   -8.5270   22.5870 C   0  0  0  0  0  3  0  0  0  0  0  0
  -25.3260   -8.7360   21.5520 C   0  0  0  0  0  0  0  0  0  0  0  0
  -25.6540   -9.7430   20.6190 C   0  0  0  0  0  3  0  0  0  0  0  0
  -26.8740  -10.4850   20.7330 C   0  0  0  0  0  3  0  0  0  0  0  0
  -24.1720   -7.9750   21.4180 O   0  0  0  0  0  0  0  0  0  0  0  0
  -23.4470   -7.5520   22.5250 C   0  0  0  0  0  0  0  0  0  0  0  0
  -22.9200   -8.4800   23.4450 C   0  0  0  0  0  3  0  0  0  0  0  0
  -22.1600   -8.0510   24.5550 C   0  0  0  0  0  3  0  0  0  0  0  0
  -21.8960   -6.6770   24.7410 C   0  0  0  0  0  0  0  0  0  0  0  0
  -22.3970   -5.7440   23.8220 C   0  0  0  0  0  3  0  0  0  0  0  0
  -23.1640   -6.1770   22.7190 C   0  0  0  0  0  0  0  0  0  0  0  0
  -23.6170   -5.2600   21.8350 F   0  0  0  0  0  0  0  0  0  0  0  0
  -21.1820   -6.2590   25.8140 F   0  0  0  0  0  0  0  0  0  0  0  0
  -28.1520  -13.6010   22.2750 C   0  0  0  0  0  0  0  0  0  0  0  0
  -27.0360  -13.0640   22.7860 N   0  0  0  0  0  0  0  0  0  0  0  0
  -27.9850  -14.6520   21.6710 O   0  0  0  0  0  0  0  0  0  0  0  0
  -27.0570  -12.2070   23.3150 H   0  0  0  0  0  0  0  0  0  0  0  0
  -26.1500  -13.5170   22.6120 H   0  0  0  0  0  0  0  0  0  0  0  0
  -31.3220  -14.7150   21.1300 N   0  0  0  0  0  0  0  0  0  0  0  0
  -30.8850  -15.4840   21.6270 H   0  0  0  0  0  0  0  0  0  0  0  0
  -31.8030  -15.0390   20.3010 H   0  0  0  0  0  0  0  0  0  0  0  0
  -27.5580  -26.4050   17.3450 C   0  0  0  0  0  2  0  0  0  0  0  0
  -28.1860  -27.6130   17.9610 O   0  0  0  0  0  0  0  0  0  0  0  0
  -26.2270  -29.8350   24.5040 C   0  0  0  0  0  0  0  0  0  0  0  0
  -27.4200  -28.4710   18.7380 C   0  0  0  0  0  0  0  0  0  0  0  0
  -24.5570  -29.9390   22.6930 C   0  0  0  0  0  3  0  0  0  0  0  0
  -25.4740  -29.7740   20.3290 C   0  0  0  0  0  0  0  0  0  0  0  0
  -27.0580  -30.1710   22.1900 C   0  0  0  0  0  2  0  0  0  0  0  0
  -26.7700  -29.5890   20.8260 C   0  0  0  0  0  0  0  0  0  0  0  0
  -27.7330  -28.8690   20.0660 C   0  0  0  0  0  3  0  0  0  0  0  0
  -26.2390  -28.9850   18.2120 C   0  0  0  0  0  3  0  0  0  0  0  0
  -25.2040  -29.4860   18.9980 C   0  0  0  0  0  3  0  0  0  0  0  0
  -24.4290  -30.3940   21.2200 C   0  0  0  0  0  2  0  0  0  0  0  0
  -25.9760  -29.9570   23.1730 N   0  0  0  0  0  0  0  0  0  0  0  0
  -25.3070  -29.7220   25.3240 O   0  0  0  0  0  0  0  0  0  0  0  0
  -23.8870  -28.5570   22.8610 C   0  0  0  0  0  0  0  0  0  0  0  0
  -22.5900  -28.4740   22.5180 N   0  0  0  0  0  0  0  0  0  0  0  0
  -24.5320  -27.5890   23.2710 O   0  0  0  0  0  0  0  0  0  0  0  0
  -22.1380  -29.3140   22.1830 H   0  0  0  0  0  0  0  0  0  0  0  0
  -19.4780  -27.0230   21.3920 C   0  0  0  0  0  0  0  0  0  0  0  0
  -21.7610  -27.2730   22.5780 C   0  0  0  0  0  3  0  0  0  0  0  0
  -22.2820  -26.1970   21.5990 C   0  0  0  0  0  2  0  0  0  0  0  0
  -21.5920  -26.2370   20.2330 C   0  0  0  0  0  2  0  0  0  0  0  0
  -20.0760  -26.0600   20.3790 C   0  0  0  0  0  2  0  0  0  0  0  0
  -20.2730  -27.6030   22.4160 C   0  0  0  0  0  0  0  0  0  0  0  0
  -19.6780  -28.5170   23.3130 C   0  0  0  0  0  3  0  0  0  0  0  0
  -18.3160  -28.8520   23.2010 C   0  0  0  0  0  3  0  0  0  0  0  0
  -17.5280  -28.2610   22.1970 C   0  0  0  0  0  3  0  0  0  0  0  0
  -18.1070  -27.3490   21.2970 C   0  0  0  0  0  3  0  0  0  0  0  0
  -27.6870  -29.8530   25.0540 C   0  0  0  0  0  3  0  0  0  0  0  0
  -27.8000  -30.9940   25.9710 N   0  0  0  0  0  0  0  0  0  0  0  0
  -28.4590  -32.1270   25.6970 C   0  0  0  0  0  0  0  0  0  0  0  0
  -29.1090  -32.2910   24.6620 O   0  0  0  0  0  0  0  0  0  0  0  0
  -27.2520  -30.9500   26.8180 H   0  0  0  0  0  0  0  0  0  0  0  0
  -27.4140  -34.3460   26.2470 C   0  0  0  0  0  1  0  0  0  0  0  0
  -28.3830  -33.2600   26.7390 C   0  0  0  0  0  3  0  0  0  0  0  0
  -30.5970  -32.9540   27.7530 C   0  0  0  0  0  1  0  0  0  0  0  0
  -29.6960  -33.8640   27.0480 N   0  0  0  0  0  0  0  0  0  0  0  0
  -29.5890  -34.7020   27.6140 H   0  0  0  0  0  0  0  0  0  0  0  0
  -28.0910  -28.5120   25.7830 C   0  0  1  0  0  0  0  0  0  0  0  0
  -27.0780  -28.0660   26.8640 C   0  0  0  0  0  1  0  0  0  0  0  0
  -28.2410  -27.3550   24.7680 C   0  0  0  0  0  1  0  0  0  0  0  0
  -29.4730  -28.6750   26.4600 C   0  0  0  0  0  1  0  0  0  0  0  0
  1  2  1  0
  2  4  2  0
  3  5  1  0
  3  1  2  0
  4 10  1  0
  5  6  2  0
  6  8  1  0
  6  4  1  0
  7  8  1  0
  8  9  1  0
 10 11  2  0
 12 13  1  0
 12 10  1  0
 14 15  1  0
 14 13  1  0
 16 17  1  0
 16 15  1  0
 17 18  1  0
 18 19  1  0
 19 28  1  0
 21 26  1  0
 22 21  2  0
 23 22  1  0
 23 24  1  0
 24 33  1  0
 24 25  1  0
 26 25  1  6
 26 27  1  0
 26 20  1  0
 27 20  1  0
 28 29  1  0
 31 30  1  0
 32 34  1  0
 32 31  1  0
 35 32  1  0
 35 36  1  0
 37 36  2  0
 38 37  1  0
 39 40  1  0
 39 38  2  0
 40 35  2  0
 41 38  1  0
 41 42  1  0
 42 47  2  0
 42 43  1  0
 43 44  2  0
 44 45  1  0
 45 49  1  0
 46 45  2  0
 47 46  1  0
 48 47  1  0
 50 31  1  0
 50 51  1  0
 51 53  1  0
 52 50  2  0
 54 51  1  0
 55 30  1  0
 55 56  1  0
 57 55  1  0
 58 59  1  0
 58  5  1  0
 59 61  1  0
 60 71  2  0
 61 66  1  0
 62 72  1  0
 62 70  1  0
 63 65  1  0
 63 69  1  0
 64 70  1  0
 65 64  1  0
 66 65  2  0
 67 61  2  0
 67 68  1  0
 68 63  2  0
 69 62  1  0
 70 60  1  0
 72 74  2  0
 73 72  1  0
 75 73  1  0
 76 81  1  0
 77 73  1  0
 78 77  1  0
 79 80  1  0
 79 78  1  0
 80 76  1  0
 81 77  1  0
 81 82  2  0
 83 82  1  0
 84 83  2  0
 85 76  2  0
 85 84  1  0
 86 60  1  0
 86 96  1  0
 86 87  1  0
 87 90  1  0
 88 87  1  0
 88 92  1  0
 89 88  2  0
 92 91  1  0
 92 94  1  0
 94 95  1  0
 94 93  1  0
 96 99  1  1
 96 97  1  0
 98 96  1  0
M  ISO  4  20 100  28 100  58 101  59 101
M  END
>  <TORSDO>  (28) 
F 27

>  <SCORE>  (28) 
-1.370

>  <name>  (28) 
27

>  <ligand_id>  (28) 
27

>  <original_smiles>  (28) 
[H]c1c([H])c(C(=O)C([H])([H])C([H])([H])C([H])([H])C([H])([H])C([H])([H])C([H])([H])C([H])([H])C([H])([H])N([H])C(=O)N2C([H])([H])C([H])([H])C([H])([H])C([H])(n3nc(-c4c([H])c([H])c(Oc5c([H])c([H])c(F)c([H])c5F)c([H])c4[H])c(C(=O)N([H])[H])c3N([H])[H])C2([H])[H])c(N([H])C([H])([H])[H])c(C([H])([H])Oc2c([H])c([H])c3c(c2[H])C([H])([H])N(C(=O)C([H])(N([H])C(=O)C([H])(N([H])C([H])([H])[H])C([H])([H])[H])C(C([H])([H])[H])(C([H])([H])[H])C([H])([H])[H])C([H])(C(=O)N([H])C2([H])c4c([H])c([H])c([H])c([H])c4C([H])([H])C([H])([H])C2([H])[H])C3([H])[H])c1[H]

>  <smiles>  (28) 
[H]c1c([H])c(C(=O)C([H])([H])C([H])([H])C([H])([H])C([H])([H])C([H])([H])C([H])([H])C([H])([H])C([H])([H])N([H])C(=O)N2C([H])([H])C([H])([H])C([H])([H])C([H])(n3nc(-c4c([H])c([H])c(Oc5c([H])c([H])c(F)c([H])c5F)c([H])c4[H])c(C(=O)N([H])[H])c3N([H])[H])C2([H])[H])c(N([H])C([H])([H])[H])c(C([H])([H])Oc2c([H])c([H])c3c(c2[H])C([H])([H])N(C(=O)C([H])(N([H])C(=O)C([H])(N([H])C([H])([H])[H])C([H])([H])[H])C(C([H])([H])[H])(C([H])([H])[H])C([H])([H])[H])C([H])(C(=O)N([H])C2([H])c4c([H])c([H])c([H])c([H])c4C([H])([H])C([H])([H])C2([H])[H])C3([H])[H])c1[H]

$$$$
28:0:0
     RDKit          3D

 96105  0  0  1  0  0  0  0  0999 V2000
  -31.4820  -20.8860   21.8700 C   0  0  0  0  0  3  0  0  0  0  0  0
  -29.1290  -20.2450   21.8740 C   0  0  0  0  0  3  0  0  0  0  0  0
  -31.1930  -21.9450   20.9880 C   0  0  0  0  0  3  0  0  0  0  0  0
  -28.8410  -21.3020   20.9870 C   0  0  0  0  0  3  0  0  0  0  0  0
  -30.4520  -20.0310   22.3150 C   0  0  0  0  0  0  0  0  0  0  0  0
  -29.8720  -22.1530   20.5360 C   0  0  0  0  0  0  0  0  0  0  0  0
  -30.7730  -18.9070   23.2820 C   0  0  0  0  0  2  0  0  0  0  0  0
  -31.2380  -17.6150   22.5830 C   0  0  0  0  0  2  0  0  0  0  0  0
  -33.1260  -15.7030   25.4650 C   0  0  0  0  0  2  0  0  0  0  0  0
  -33.4960  -14.4460   24.6740 C   0  0  0  0  0  2  0  0  0  0  0  0
  -32.7130  -16.8440   24.5250 C   0  0  0  0  0  2  0  0  0  0  0  0
  -32.3200  -14.0230   23.7910 C   0  0  0  0  0  2  0  0  0  0  0  0
  -31.5580  -16.4600   23.5650 C   0  0  0  0  0  3  0  0  0  0  0  0
  -31.9030  -15.1450   22.8180 C   0  0  0  0  0  3  0  0  0  0  0  0
  -30.8530  -14.2680   20.7500 C   0  0  0  0  0  0  0  0  0  0  0  0
  -30.4020  -12.2840   19.3690 C   0  0  0  0  0  2  0  0  0  0  0  0
  -29.4670  -12.5330   18.1780 C   0  0  0  0  0  2  0  0  0  0  0  0
  -28.0000  -12.3760   18.6090 C   0  0  0  0  0  2  0  0  0  0  0  0
  -27.6650  -13.2060   19.8750 C   0  0  0  0  0  3  0  0  0  0  0  0
  -28.7060  -12.9750   20.9930 C   0  0  0  0  0  2  0  0  0  0  0  0
  -30.0550  -13.2170   20.4490 N   0  0  0  0  0  0  0  0  0  0  0  0
  -31.7570  -14.6730   20.0130 O   0  0  0  0  0  0  0  0  0  0  0  0
  -30.7770  -14.6390   22.0330 N   0  0  0  0  0  0  0  0  0  0  0  0
  -30.0070  -14.2440   22.5530 H   0  0  0  0  0  0  0  0  0  0  0  0
  -25.2600  -13.8170   20.5680 C   0  0  0  0  0  0  0  0  0  0  0  0
  -24.1840  -13.0450   20.9170 C   0  0  0  0  0  0  0  0  0  0  0  0
  -24.6390  -11.6910   20.8720 C   0  0  0  0  0  0  0  0  0  0  0  0
  -26.3040  -12.9330   20.3380 N   0  0  0  0  0  0  0  0  0  0  0  0
  -25.9310  -11.6490   20.5760 N   0  0  0  0  0  0  0  0  0  0  0  0
  -23.9050  -10.4300   21.0390 C   0  0  0  0  0  0  0  0  0  0  0  0
  -24.3600   -9.4220   21.9180 C   0  0  0  0  0  3  0  0  0  0  0  0
  -23.6280   -8.2250   22.0750 C   0  0  0  0  0  3  0  0  0  0  0  0
  -22.4270   -8.0280   21.3540 C   0  0  0  0  0  0  0  0  0  0  0  0
  -21.9900   -9.0250   20.4640 C   0  0  0  0  0  3  0  0  0  0  0  0
  -22.7220  -10.2140   20.3050 C   0  0  0  0  0  3  0  0  0  0  0  0
  -21.6640   -6.8870   21.4230 O   0  0  0  0  0  0  0  0  0  0  0  0
  -21.6860   -6.0730   22.5270 C   0  0  0  0  0  0  0  0  0  0  0  0
  -21.4020   -6.5640   23.8200 C   0  0  0  0  0  3  0  0  0  0  0  0
  -21.3660   -5.6790   24.9170 C   0  0  0  0  0  3  0  0  0  0  0  0
  -21.6050   -4.3060   24.7230 C   0  0  0  0  0  0  0  0  0  0  0  0
  -21.8820   -3.8140   23.4350 C   0  0  0  0  0  3  0  0  0  0  0  0
  -21.9190   -4.6960   22.3400 C   0  0  0  0  0  0  0  0  0  0  0  0
  -22.1660   -4.2140   21.0980 F   0  0  0  0  0  0  0  0  0  0  0  0
  -21.5630   -3.4540   25.7740 F   0  0  0  0  0  0  0  0  0  0  0  0
  -22.7870  -13.5240   21.1840 C   0  0  0  0  0  0  0  0  0  0  0  0
  -22.0510  -12.8230   22.0390 N   0  0  0  0  0  0  0  0  0  0  0  0
  -22.3550  -14.5550   20.6690 O   0  0  0  0  0  0  0  0  0  0  0  0
  -22.4120  -11.9880   22.4750 H   0  0  0  0  0  0  0  0  0  0  0  0
  -21.1130  -13.1250   22.2610 H   0  0  0  0  0  0  0  0  0  0  0  0
  -25.4340  -15.1880   20.4100 N   0  0  0  0  0  0  0  0  0  0  0  0
  -24.6770  -15.8520   20.5290 H   0  0  0  0  0  0  0  0  0  0  0  0
  -26.3000  -15.6230   20.1150 H   0  0  0  0  0  0  0  0  0  0  0  0
  -29.5690  -23.2770   19.5600 C   0  0  0  0  0  2  0  0  0  0  0  0
  -28.7880  -24.4370   20.2020 C   0  0  0  0  0  2  0  0  0  0  0  0
  -28.7000  -25.6640   19.2810 C   0  0  0  0  0  2  0  0  0  0  0  0
  -28.4660  -26.8270   20.0690 O   0  0  0  0  0  0  0  0  0  0  0  0
  -24.6100  -31.8700   23.2130 C   0  0  0  0  0  0  0  0  0  0  0  0
  -27.2460  -27.4670   20.0760 C   0  0  0  0  0  0  0  0  0  0  0  0
  -23.3960  -30.4970   21.5510 C   0  0  0  0  0  3  0  0  0  0  0  0
  -24.8450  -28.9630   20.1180 C   0  0  0  0  0  0  0  0  0  0  0  0
  -25.9220  -30.8440   21.3620 C   0  0  0  0  0  2  0  0  0  0  0  0
  -26.0000  -29.4780   20.7140 C   0  0  0  0  0  0  0  0  0  0  0  0
  -27.1960  -28.7320   20.7000 C   0  0  0  0  0  3  0  0  0  0  0  0
  -26.0630  -26.9450   19.5000 C   0  0  0  0  0  3  0  0  0  0  0  0
  -24.8680  -27.6910   19.5170 C   0  0  0  0  0  3  0  0  0  0  0  0
  -23.6060  -29.8310   20.1650 C   0  0  0  0  0  2  0  0  0  0  0  0
  -24.6610  -31.0830   22.1020 N   0  0  0  0  0  0  0  0  0  0  0  0
  -23.5320  -32.1430   23.7560 O   0  0  0  0  0  0  0  0  0  0  0  0
  -22.7360  -29.4690   22.4960 C   0  0  0  0  0  0  0  0  0  0  0  0
  -21.4090  -29.3050   22.3720 N   0  0  0  0  0  0  0  0  0  0  0  0
  -23.4150  -28.8200   23.2970 O   0  0  0  0  0  0  0  0  0  0  0  0
  -20.9210  -29.8790   21.6990 H   0  0  0  0  0  0  0  0  0  0  0  0
  -18.0270  -28.1370   22.8500 C   0  0  0  0  0  0  0  0  0  0  0  0
  -20.5870  -28.3660   23.1320 C   0  0  0  0  0  3  0  0  0  0  0  0
  -20.6770  -26.9400   22.5420 C   0  0  0  0  0  2  0  0  0  0  0  0
  -19.5740  -26.6390   21.5210 C   0  0  0  0  0  2  0  0  0  0  0  0
  -18.1920  -26.7930   22.1610 C   0  0  0  0  0  2  0  0  0  0  0  0
  -19.1520  -28.8820   23.2920 C   0  0  0  0  0  0  0  0  0  0  0  0
  -18.9440  -30.1420   23.8950 C   0  0  0  0  0  3  0  0  0  0  0  0
  -17.6450  -30.6590   24.0570 C   0  0  0  0  0  3  0  0  0  0  0  0
  -16.5350  -29.9100   23.6320 C   0  0  0  0  0  3  0  0  0  0  0  0
  -16.7260  -28.6510   23.0360 C   0  0  0  0  0  3  0  0  0  0  0  0
  -25.9010  -32.4840   23.8410 C   0  0  0  0  0  3  0  0  0  0  0  0
  -25.5890  -33.8630   24.2360 N   0  0  0  0  0  0  0  0  0  0  0  0
  -25.9030  -34.9480   23.5150 C   0  0  0  0  0  0  0  0  0  0  0  0
  -26.5580  -34.8930   22.4700 O   0  0  0  0  0  0  0  0  0  0  0  0
  -25.0070  -33.9810   25.0520 H   0  0  0  0  0  0  0  0  0  0  0  0
  -24.1500  -36.7330   23.2630 C   0  0  0  0  0  1  0  0  0  0  0  0
  -25.4110  -36.3120   24.0350 C   0  0  0  0  0  3  0  0  0  0  0  0
  -27.5590  -37.1810   24.8450 C   0  0  0  0  0  1  0  0  0  0  0  0
  -26.4300  -37.3800   23.9410 N   0  0  0  0  0  0  0  0  0  0  0  0
  -26.0200  -38.2880   24.1410 H   0  0  0  0  0  0  0  0  0  0  0  0
  -26.4470  -31.6600   25.0700 C   0  0  1  0  0  0  0  0  0  0  0  0
  -25.3750  -31.3680   26.1460 C   0  0  0  0  0  1  0  0  0  0  0  0
  -27.0300  -30.3050   24.6040 C   0  0  0  0  0  1  0  0  0  0  0  0
  -27.6070  -32.4310   25.7460 C   0  0  0  0  0  1  0  0  0  0  0  0
  1  5  1  0
  2  5  2  0
  3  1  2  0
  4  2  1  0
  5  7  1  0
  6  4  2  0
  6  3  1  0
  8  7  1  0
 10  9  1  0
 11  9  1  0
 12 10  1  0
 13  8  1  0
 13 11  1  0
 14 23  1  0
 14 13  1  0
 14 12  1  0
 15 23  1  0
 16 21  1  0
 17 18  1  0
 17 16  1  0
 19 18  1  0
 19 28  1  0
 19 20  1  0
 21 15  1  0
 21 20  1  0
 22 15  2  0
 23 24  1  0
 25 26  2  0
 26 45  1  0
 27 26  1  0
 27 30  1  0
 28 25  1  0
 28 29  1  0
 29 27  2  0
 30 31  1  0
 31 32  2  0
 33 36  1  0
 33 32  1  0
 34 33  2  0
 35 34  1  0
 35 30  2  0
 36 37  1  0
 37 38  1  0
 38 39  2  0
 40 39  1  0
 40 44  1  0
 41 40  2  0
 42 37  2  0
 42 41  1  0
 43 42  1  0
 45 46  1  0
 46 49  1  0
 46 48  1  0
 47 45  2  0
 50 51  1  0
 50 25  1  0
 52 50  1  0
 53 54  1  0
 53  6  1  0
 55 56  1  0
 55 54  1  0
 56 58  1  0
 57 68  2  0
 58 63  1  0
 59 67  1  0
 59 69  1  0
 60 66  1  0
 60 62  1  0
 61 67  1  0
 62 61  1  0
 63 62  2  0
 64 65  1  0
 64 58  2  0
 65 60  2  0
 66 59  1  0
 67 57  1  0
 69 71  2  0
 70 69  1  0
 72 70  1  0
 73 82  2  0
 73 78  1  0
 74 70  1  0
 74 78  1  0
 75 74  1  0
 76 77  1  0
 76 75  1  0
 77 73  1  0
 78 79  2  0
 79 80  1  0
 81 80  2  0
 82 81  1  0
 83 57  1  0
 83 84  1  0
 83 93  1  0
 84 87  1  0
 85 89  1  0
 85 84  1  0
 86 85  2  0
 89 88  1  0
 91 89  1  0
 91 92  1  0
 91 90  1  0
 93 96  1  1
 93 94  1  0
 95 93  1  0
M  ISO  4  15 100  23 100  55 101  56 101
M  END
>  <TORSDO>  (29) 
F 22

>  <SCORE>  (29) 
15.624

>  <name>  (29) 
28

>  <ligand_id>  (29) 
28

>  <original_smiles>  (29) 
[H]c1c([H])c([H])c2c(c1[H])C([H])([H])C([H])([H])C([H])([H])C2([H])N([H])C(=O)C1([H])N(C(=O)C([H])(N([H])C(=O)C([H])(N([H])C([H])([H])[H])C([H])([H])[H])C(C([H])([H])[H])(C([H])([H])[H])C([H])([H])[H])C([H])([H])c2c([H])c(OC([H])([H])C([H])([H])C([H])([H])c3c([H])c([H])c(C([H])([H])C([H])([H])C4([H])C([H])([H])C([H])([H])C([H])([H])C([H])([H])C4([H])N([H])C(=O)N4C([H])([H])C([H])([H])C([H])([H])C([H])(n5nc(-c6c([H])c([H])c(Oc7c([H])c([H])c(F)c([H])c7F)c([H])c6[H])c(C(=O)N([H])[H])c5N([H])[H])C4([H])[H])c([H])c3[H])c([H])c([H])c2C1([H])[H]

>  <smiles>  (29) 
[H]c1c([H])c([H])c2c(c1[H])C([H])([H])C([H])([H])C([H])([H])C2([H])N([H])C(=O)C1([H])N(C(=O)C([H])(N([H])C(=O)C([H])(N([H])C([H])([H])[H])C([H])([H])[H])C(C([H])([H])[H])(C([H])([H])[H])C([H])([H])[H])C([H])([H])c2c([H])c(OC([H])([H])C([H])([H])C([H])([H])c3c([H])c([H])c(C([H])([H])C([H])([H])C4([H])C([H])([H])C([H])([H])C([H])([H])C([H])([H])C4([H])N([H])C(=O)N4C([H])([H])C([H])([H])C([H])([H])C([H])(n5nc(-c6c([H])c([H])c(Oc7c([H])c([H])c(F)c([H])c7F)c([H])c6[H])c(C(=O)N([H])[H])c5N([H])[H])C4([H])[H])c([H])c3[H])c([H])c([H])c2C1([H])[H]

$$$$
29:0:0
     RDKit          3D

 93100  0  0  1  0  0  0  0  0999 V2000
  -29.9100  -21.4070   21.9470 C   0  0  0  0  0  0  0  0  0  0  0  0
  -30.5690  -20.4440   21.2910 N   0  0  0  0  0  0  0  0  0  0  0  0
  -29.7270  -21.3690   23.1660 O   0  0  0  0  0  0  0  0  0  0  0  0
  -30.6750  -20.5390   20.2880 H   0  0  0  0  0  0  0  0  0  0  0  0
  -29.3820  -22.5850   21.1270 C   0  0  0  0  0  2  0  0  0  0  0  0
  -29.6310  -23.9390   21.8200 C   0  0  0  0  0  2  0  0  0  0  0  0
  -31.1340  -25.4320   20.4190 C   0  0  0  0  0  1  0  0  0  0  0  0
  -29.6820  -25.1200   20.8290 C   0  0  0  0  0  3  0  0  0  0  0  0
  -28.9620  -26.3700   21.3670 C   0  0  0  0  0  2  0  0  0  0  0  0
  -28.6720  -27.1940   20.2480 O   0  0  0  0  0  0  0  0  0  0  0  0
  -24.6340  -32.1310   23.4130 C   0  0  0  0  0  0  0  0  0  0  0  0
  -27.4750  -27.8530   20.3160 C   0  0  0  0  0  0  0  0  0  0  0  0
  -23.4970  -30.7120   21.7320 C   0  0  0  0  0  3  0  0  0  0  0  0
  -25.0240  -29.2370   20.3210 C   0  0  0  0  0  0  0  0  0  0  0  0
  -26.0090  -31.1620   21.5790 C   0  0  0  0  0  2  0  0  0  0  0  0
  -26.1500  -29.8010   20.9350 C   0  0  0  0  0  0  0  0  0  0  0  0
  -27.3790  -29.1120   20.9400 C   0  0  0  0  0  3  0  0  0  0  0  0
  -26.3400  -27.2860   19.7040 C   0  0  0  0  0  3  0  0  0  0  0  0
  -25.1100  -27.9720   19.7090 C   0  0  0  0  0  3  0  0  0  0  0  0
  -23.7500  -30.0490   20.3520 C   0  0  0  0  0  2  0  0  0  0  0  0
  -24.7300  -31.3490   22.3020 N   0  0  0  0  0  0  0  0  0  0  0  0
  -23.5370  -32.3630   23.9390 O   0  0  0  0  0  0  0  0  0  0  0  0
  -22.8640  -29.6610   22.6700 C   0  0  0  0  0  0  0  0  0  0  0  0
  -21.5610  -29.3980   22.4760 N   0  0  0  0  0  0  0  0  0  0  0  0
  -23.5420  -29.0830   23.5230 O   0  0  0  0  0  0  0  0  0  0  0  0
  -21.0770  -29.9160   21.7560 H   0  0  0  0  0  0  0  0  0  0  0  0
  -18.2580  -27.9650   22.7640 C   0  0  0  0  0  0  0  0  0  0  0  0
  -20.7620  -28.4170   23.2110 C   0  0  0  0  0  3  0  0  0  0  0  0
  -21.0110  -26.9870   22.6790 C   0  0  0  0  0  2  0  0  0  0  0  0
  -20.0120  -26.5640   21.5980 C   0  0  0  0  0  2  0  0  0  0  0  0
  -18.5800  -26.6180   22.1390 C   0  0  0  0  0  2  0  0  0  0  0  0
  -19.2830  -28.8170   23.2520 C   0  0  0  0  0  0  0  0  0  0  0  0
  -18.9330  -30.0740   23.7920 C   0  0  0  0  0  3  0  0  0  0  0  0
  -17.5870  -30.4820   23.8490 C   0  0  0  0  0  3  0  0  0  0  0  0
  -16.5730  -29.6280   23.3800 C   0  0  0  0  0  3  0  0  0  0  0  0
  -16.9090  -28.3720   22.8430 C   0  0  0  0  0  3  0  0  0  0  0  0
  -25.8930  -32.7880   24.0620 C   0  0  0  0  0  3  0  0  0  0  0  0
  -26.3680  -32.0570   25.3780 C   0  0  1  0  0  0  0  0  0  0  0  0
  -25.2280  -31.8090   26.3940 C   0  0  0  0  0  1  0  0  0  0  0  0
  -27.0090  -30.6910   25.0430 C   0  0  0  0  0  1  0  0  0  0  0  0
  -27.4600  -32.9000   26.0800 C   0  0  0  0  0  1  0  0  0  0  0  0
  -25.5650  -34.1940   24.3330 N   0  0  0  0  0  0  0  0  0  0  0  0
  -25.9240  -35.2210   23.5500 C   0  0  0  0  0  0  0  0  0  0  0  0
  -26.6380  -35.0880   22.5540 O   0  0  0  0  0  0  0  0  0  0  0  0
  -24.9320  -34.3720   25.0980 H   0  0  0  0  0  0  0  0  0  0  0  0
  -24.2100  -36.9930   23.0530 C   0  0  0  0  0  1  0  0  0  0  0  0
  -25.4100  -36.6210   23.9390 C   0  0  0  0  0  3  0  0  0  0  0  0
  -27.5020  -37.5370   24.8410 C   0  0  0  0  0  1  0  0  0  0  0  0
  -26.4450  -37.6750   23.8420 N   0  0  0  0  0  0  0  0  0  0  0  0
  -26.0290  -38.5970   23.9460 H   0  0  0  0  0  0  0  0  0  0  0  0
  -31.1580  -19.2790   21.9450 C   0  0  0  0  0  2  0  0  0  0  0  0
  -31.4190  -18.1260   20.9570 C   0  0  0  0  0  2  0  0  0  0  0  0
  -31.9750  -16.8490   21.6300 C   0  0  0  0  0  2  0  0  0  0  0  0
  -30.9620  -16.0670   22.5020 C   0  0  0  0  0  2  0  0  0  0  0  0
  -30.4880  -14.7290   21.9000 C   0  0  0  0  0  2  0  0  0  0  0  0
  -30.4180  -14.0280   19.5460 C   0  0  0  0  0  0  0  0  0  0  0  0
  -29.9540  -11.8680   18.4550 C   0  0  0  0  0  2  0  0  0  0  0  0
  -28.8600  -11.9900   17.3780 C   0  0  0  0  0  2  0  0  0  0  0  0
  -27.4590  -11.8450   18.0010 C   0  0  0  0  0  2  0  0  0  0  0  0
  -27.2680  -12.7480   19.2470 C   0  0  0  0  0  3  0  0  0  0  0  0
  -28.4540  -12.5960   20.2250 C   0  0  0  0  0  2  0  0  0  0  0  0
  -29.7080  -12.8720   19.5000 N   0  0  0  0  0  0  0  0  0  0  0  0
  -31.2890  -14.3270   18.7240 O   0  0  0  0  0  0  0  0  0  0  0  0
  -30.0850  -14.8960   20.5060 N   0  0  0  0  0  0  0  0  0  0  0  0
  -30.2900  -15.8370   20.2070 H   0  0  0  0  0  0  0  0  0  0  0  0
  -24.9960  -13.3680   20.2960 C   0  0  0  0  0  0  0  0  0  0  0  0
  -23.9870  -12.6000   20.8080 C   0  0  0  0  0  0  0  0  0  0  0  0
  -24.4270  -11.2450   20.7010 C   0  0  0  0  0  0  0  0  0  0  0  0
  -25.9910  -12.4830   19.9080 N   0  0  0  0  0  0  0  0  0  0  0  0
  -25.6590  -11.2010   20.2070 N   0  0  0  0  0  0  0  0  0  0  0  0
  -23.7310   -9.9840   20.9860 C   0  0  0  0  0  0  0  0  0  0  0  0
  -24.2440   -9.0530   21.9140 C   0  0  0  0  0  3  0  0  0  0  0  0
  -23.5460   -7.8570   22.1880 C   0  0  0  0  0  3  0  0  0  0  0  0
  -22.3240   -7.5820   21.5310 C   0  0  0  0  0  0  0  0  0  0  0  0
  -21.8300   -8.5020   20.5900 C   0  0  0  0  0  3  0  0  0  0  0  0
  -22.5280   -9.6910   20.3150 C   0  0  0  0  0  3  0  0  0  0  0  0
  -21.5930   -6.4330   21.7120 O   0  0  0  0  0  0  0  0  0  0  0  0
  -21.5920   -5.7590   22.9080 C   0  0  0  0  0  0  0  0  0  0  0  0
  -21.1950   -6.3790   24.1120 C   0  0  0  0  0  3  0  0  0  0  0  0
  -21.1440   -5.6330   25.3040 C   0  0  0  0  0  3  0  0  0  0  0  0
  -21.4790   -4.2650   25.2940 C   0  0  0  0  0  0  0  0  0  0  0  0
  -21.8700   -3.6440   24.0950 C   0  0  0  0  0  3  0  0  0  0  0  0
  -21.9230   -4.3890   22.9040 C   0  0  0  0  0  0  0  0  0  0  0  0
  -22.2790   -3.7800   21.7460 F   0  0  0  0  0  0  0  0  0  0  0  0
  -21.4210   -3.5440   26.4390 F   0  0  0  0  0  0  0  0  0  0  0  0
  -22.6470  -13.0820   21.2870 C   0  0  0  0  0  0  0  0  0  0  0  0
  -22.0630  -12.3930   22.2620 N   0  0  0  0  0  0  0  0  0  0  0  0
  -22.1330  -14.1020   20.8300 O   0  0  0  0  0  0  0  0  0  0  0  0
  -22.4980  -11.5700   22.6490 H   0  0  0  0  0  0  0  0  0  0  0  0
  -21.1670  -12.6910   22.6240 H   0  0  0  0  0  0  0  0  0  0  0  0
  -25.1450  -14.7400   20.1100 N   0  0  0  0  0  0  0  0  0  0  0  0
  -24.4240  -15.4060   20.3590 H   0  0  0  0  0  0  0  0  0  0  0  0
  -25.9640  -15.1750   19.7050 H   0  0  0  0  0  0  0  0  0  0  0  0
  1  3  2  0
  2 51  1  0
  2  1  1  0
  4  2  1  0
  5  6  1  0
  5  1  1  0
  8  7  1  0
  8  9  1  0
  8  6  1  0
 10 12  1  0
 10  9  1  0
 11 22  2  0
 12 17  1  0
 13 21  1  0
 13 23  1  0
 14 20  1  0
 14 16  1  0
 15 21  1  0
 16 17  2  0
 16 15  1  0
 18 19  1  0
 18 12  2  0
 19 14  2  0
 20 13  1  0
 21 11  1  0
 23 25  2  0
 24 23  1  0
 26 24  1  0
 27 36  2  0
 27 32  1  0
 28 24  1  0
 28 32  1  0
 29 28  1  0
 30 31  1  0
 30 29  1  0
 31 27  1  0
 32 33  2  0
 33 34  1  0
 35 34  2  0
 36 35  1  0
 37 11  1  0
 37 42  1  0
 37 38  1  0
 38 41  1  1
 38 39  1  0
 40 38  1  0
 42 45  1  0
 43 47  1  0
 43 42  1  0
 44 43  2  0
 47 46  1  0
 49 47  1  0
 49 50  1  0
 49 48  1  0
 52 53  1  0
 52 51  1  0
 53 54  1  0
 55 54  1  0
 56 64  1  0
 57 62  1  0
 58 59  1  0
 58 57  1  0
 60 59  1  0
 60 69  1  0
 60 61  1  0
 62 56  1  0
 62 61  1  0
 63 56  2  0
 64 55  1  0
 65 64  1  0
 66 67  2  0
 67 86  1  0
 68 67  1  0
 68 71  1  0
 69 70  1  0
 69 66  1  0
 70 68  2  0
 71 72  1  0
 72 73  2  0
 74 77  1  0
 74 73  1  0
 75 74  2  0
 76 75  1  0
 76 71  2  0
 77 78  1  0
 78 79  1  0
 79 80  2  0
 81 80  1  0
 81 85  1  0
 82 81  2  0
 83 78  2  0
 83 82  1  0
 84 83  1  0
 86 87  1  0
 87 90  1  0
 87 89  1  0
 88 86  2  0
 91 66  1  0
 91 92  1  0
 93 91  1  0
M  ISO  4   9 101  10 101  56 100  64 100
M  END
>  <TORSDO>  (30) 
F 25

>  <SCORE>  (30) 
-9.384

>  <name>  (30) 
29

>  <ligand_id>  (30) 
29

>  <original_smiles>  (30) 
[H]c1c([H])c([H])c2c(c1[H])C([H])([H])C([H])([H])C([H])([H])C2([H])N([H])C(=O)C1([H])N(C(=O)C([H])(N([H])C(=O)C([H])(N([H])C([H])([H])[H])C([H])([H])[H])C(C([H])([H])[H])(C([H])([H])[H])C([H])([H])[H])C([H])([H])c2c([H])c(OC([H])([H])C([H])(C([H])([H])[H])C([H])([H])C([H])([H])C(=O)N([H])C([H])([H])C([H])([H])C([H])([H])C([H])([H])C([H])([H])N([H])C(=O)N3C([H])([H])C([H])([H])C([H])([H])C([H])(n4nc(-c5c([H])c([H])c(Oc6c([H])c([H])c(F)c([H])c6F)c([H])c5[H])c(C(=O)N([H])[H])c4N([H])[H])C3([H])[H])c([H])c([H])c2C1([H])[H]

>  <smiles>  (30) 
[H]c1c([H])c([H])c2c(c1[H])C([H])([H])C([H])([H])C([H])([H])C2([H])N([H])C(=O)C1([H])N(C(=O)C([H])(N([H])C(=O)C([H])(N([H])C([H])([H])[H])C([H])([H])[H])C(C([H])([H])[H])(C([H])([H])[H])C([H])([H])[H])C([H])([H])c2c([H])c(OC([H])([H])C([H])(C([H])([H])[H])C([H])([H])C([H])([H])C(=O)N([H])C([H])([H])C([H])([H])C([H])([H])C([H])([H])C([H])([H])N([H])C(=O)N3C([H])([H])C([H])([H])C([H])([H])C([H])(n4nc(-c5c([H])c([H])c(Oc6c([H])c([H])c(F)c([H])c6F)c([H])c5[H])c(C(=O)N([H])[H])c4N([H])[H])C3([H])[H])c([H])c([H])c2C1([H])[H]

$$$$
30:0:0
     RDKit          3D

 93101  0  0  1  0  0  0  0  0999 V2000
  -29.5800  -21.5430   21.7960 N   0  0  0  0  0  4  0  0  0  0  0  0
  -30.2120  -21.7560   22.5510 H   0  0  0  0  0  0  0  0  0  0  0  0
  -28.7470  -21.1400   22.1950 H   0  0  0  0  0  0  0  0  0  0  0  0
  -30.2260  -20.5380   20.9150 C   0  0  0  0  0  2  0  0  0  0  0  0
  -30.3440  -18.0070   20.9510 C   0  0  0  0  0  3  0  0  0  0  0  0
  -30.4820  -19.1900   21.5990 C   0  0  0  0  0  0  0  0  0  0  0  0
  -31.0100  -19.2570   23.0340 C   0  0  0  0  0  2  0  0  0  0  0  0
  -31.6250  -17.9340   23.5280 C   0  0  0  0  0  2  0  0  0  0  0  0
  -30.7960  -16.7200   23.0860 C   0  0  0  0  0  2  0  0  0  0  0  0
  -30.7510  -16.6580   21.5520 C   0  0  0  0  0  3  0  0  0  0  0  0
  -30.3930  -14.6530   20.1140 C   0  0  0  0  0  0  0  0  0  0  0  0
  -29.9950  -12.5950   18.8130 C   0  0  0  0  0  2  0  0  0  0  0  0
  -28.9540  -12.8450   17.7060 C   0  0  0  0  0  2  0  0  0  0  0  0
  -27.5350  -12.6000   18.2470 C   0  0  0  0  0  2  0  0  0  0  0  0
  -27.2720  -13.3450   19.5820 C   0  0  0  0  0  3  0  0  0  0  0  0
  -28.4260  -13.1240   20.5890 C   0  0  0  0  0  2  0  0  0  0  0  0
  -29.6910  -13.4990   19.9340 N   0  0  0  0  0  0  0  0  0  0  0  0
  -31.3770  -14.9360   19.4230 O   0  0  0  0  0  0  0  0  0  0  0  0
  -29.9770  -15.4910   21.0820 N   0  0  0  0  0  0  0  0  0  0  0  0
  -29.1520  -15.2220   21.6000 H   0  0  0  0  0  0  0  0  0  0  0  0
  -24.8940  -13.7820   20.4640 C   0  0  0  0  0  0  0  0  0  0  0  0
  -23.9080  -12.9360   20.8970 C   0  0  0  0  0  0  0  0  0  0  0  0
  -24.4530  -11.6200   20.8150 C   0  0  0  0  0  0  0  0  0  0  0  0
  -25.9770  -12.9760   20.1510 N   0  0  0  0  0  0  0  0  0  0  0  0
  -25.7180  -11.6700   20.4170 N   0  0  0  0  0  0  0  0  0  0  0  0
  -23.8270  -10.3090   21.0400 C   0  0  0  0  0  0  0  0  0  0  0  0
  -24.3130   -9.4170   22.0210 C   0  0  0  0  0  3  0  0  0  0  0  0
  -23.6840   -8.1710   22.2320 C   0  0  0  0  0  3  0  0  0  0  0  0
  -22.5550   -7.8070   21.4600 C   0  0  0  0  0  0  0  0  0  0  0  0
  -22.0880   -8.6900   20.4700 C   0  0  0  0  0  3  0  0  0  0  0  0
  -22.7180   -9.9280   20.2580 C   0  0  0  0  0  3  0  0  0  0  0  0
  -21.8930   -6.6080   21.5770 O   0  0  0  0  0  0  0  0  0  0  0  0
  -21.8050   -5.9490   22.7760 C   0  0  0  0  0  0  0  0  0  0  0  0
  -21.2120   -6.5440   23.9110 C   0  0  0  0  0  3  0  0  0  0  0  0
  -21.0790   -5.8060   25.1030 C   0  0  0  0  0  3  0  0  0  0  0  0
  -21.5290   -4.4730   25.1620 C   0  0  0  0  0  0  0  0  0  0  0  0
  -22.1160   -3.8770   24.0310 C   0  0  0  0  0  3  0  0  0  0  0  0
  -22.2500   -4.6130   22.8410 C   0  0  0  0  0  0  0  0  0  0  0  0
  -22.7970   -4.0290   21.7470 F   0  0  0  0  0  0  0  0  0  0  0  0
  -21.3950   -3.7600   26.3050 F   0  0  0  0  0  0  0  0  0  0  0  0
  -22.5060  -13.3170   21.2760 C   0  0  0  0  0  0  0  0  0  0  0  0
  -21.8940  -12.5690   22.1900 N   0  0  0  0  0  0  0  0  0  0  0  0
  -21.9610  -14.3110   20.7980 O   0  0  0  0  0  0  0  0  0  0  0  0
  -22.3510  -11.7650   22.5950 H   0  0  0  0  0  0  0  0  0  0  0  0
  -20.9570  -12.8020   22.4860 H   0  0  0  0  0  0  0  0  0  0  0  0
  -24.9550  -15.1620   20.2970 N   0  0  0  0  0  0  0  0  0  0  0  0
  -24.1600  -15.7650   20.4740 H   0  0  0  0  0  0  0  0  0  0  0  0
  -25.7540  -15.6600   19.9230 H   0  0  0  0  0  0  0  0  0  0  0  0
  -29.2140  -22.8100   21.1100 C   0  0  0  0  0  2  0  0  0  0  0  0
  -28.6040  -23.8770   22.0560 C   0  0  0  0  0  2  0  0  0  0  0  0
  -27.9390  -25.0700   21.3200 C   0  0  0  0  0  2  0  0  0  0  0  0
  -28.8770  -26.2350   20.9280 C   0  0  0  0  0  2  0  0  0  0  0  0
  -28.3730  -27.0060   19.8350 O   0  0  0  0  0  0  0  0  0  0  0  0
  -24.6030  -31.9570   23.3850 C   0  0  0  0  0  0  0  0  0  0  0  0
  -27.2040  -27.7070   20.0170 C   0  0  0  0  0  0  0  0  0  0  0  0
  -23.3690  -30.6500   21.6810 C   0  0  0  0  0  3  0  0  0  0  0  0
  -24.8060  -29.1980   20.1500 C   0  0  0  0  0  0  0  0  0  0  0  0
  -25.8920  -31.0220   21.4710 C   0  0  0  0  0  2  0  0  0  0  0  0
  -25.9690  -29.6860   20.7610 C   0  0  0  0  0  0  0  0  0  0  0  0
  -27.1710  -28.9430   20.7030 C   0  0  0  0  0  3  0  0  0  0  0  0
  -26.0310  -27.2360   19.3950 C   0  0  0  0  0  3  0  0  0  0  0  0
  -24.8300  -27.9690   19.4670 C   0  0  0  0  0  3  0  0  0  0  0  0
  -23.5630  -30.0510   20.2620 C   0  0  0  0  0  2  0  0  0  0  0  0
  -24.6380  -31.2230   22.2380 N   0  0  0  0  0  0  0  0  0  0  0  0
  -23.5310  -32.2000   23.9580 O   0  0  0  0  0  0  0  0  0  0  0  0
  -22.7350  -29.5760   22.5920 C   0  0  0  0  0  0  0  0  0  0  0  0
  -21.4160  -29.3750   22.4460 N   0  0  0  0  0  0  0  0  0  0  0  0
  -23.4250  -28.9330   23.3870 O   0  0  0  0  0  0  0  0  0  0  0  0
  -20.9250  -29.9470   21.7730 H   0  0  0  0  0  0  0  0  0  0  0  0
  -18.0660  -28.0800   22.8480 C   0  0  0  0  0  0  0  0  0  0  0  0
  -20.6120  -28.3890   23.1660 C   0  0  0  0  0  3  0  0  0  0  0  0
  -20.7590  -26.9860   22.5320 C   0  0  0  0  0  2  0  0  0  0  0  0
  -19.6770  -26.6780   21.4910 C   0  0  0  0  0  2  0  0  0  0  0  0
  -18.2830  -26.7640   22.1200 C   0  0  0  0  0  2  0  0  0  0  0  0
  -19.1590  -28.8500   23.3240 C   0  0  0  0  0  0  0  0  0  0  0  0
  -18.9030  -30.0820   23.9660 C   0  0  0  0  0  3  0  0  0  0  0  0
  -17.5850  -30.5470   24.1310 C   0  0  0  0  0  3  0  0  0  0  0  0
  -16.5050  -29.7730   23.6700 C   0  0  0  0  0  3  0  0  0  0  0  0
  -16.7460  -28.5400   23.0370 C   0  0  0  0  0  3  0  0  0  0  0  0
  -25.9030  -32.5470   24.0190 C   0  0  0  0  0  3  0  0  0  0  0  0
  -25.6140  -33.9300   24.4170 N   0  0  0  0  0  0  0  0  0  0  0  0
  -25.9650  -35.0120   23.7090 C   0  0  0  0  0  0  0  0  0  0  0  0
  -26.6430  -34.9490   22.6780 O   0  0  0  0  0  0  0  0  0  0  0  0
  -25.0220  -34.0560   25.2270 H   0  0  0  0  0  0  0  0  0  0  0  0
  -24.2800  -36.8500   23.4060 C   0  0  0  0  0  1  0  0  0  0  0  0
  -25.4920  -36.3820   24.2250 C   0  0  0  0  0  3  0  0  0  0  0  0
  -27.6170  -37.1820   25.1620 C   0  0  0  0  0  1  0  0  0  0  0  0
  -26.5480  -37.4170   24.1940 N   0  0  0  0  0  0  0  0  0  0  0  0
  -26.1560  -38.3370   24.3780 H   0  0  0  0  0  0  0  0  0  0  0  0
  -26.4320  -31.7120   25.2500 C   0  0  1  0  0  0  0  0  0  0  0  0
  -25.3430  -31.4140   26.3080 C   0  0  0  0  0  1  0  0  0  0  0  0
  -27.0210  -30.3600   24.7830 C   0  0  0  0  0  1  0  0  0  0  0  0
  -27.5840  -32.4760   25.9470 C   0  0  0  0  0  1  0  0  0  0  0  0
  1  3  1  0
  1  2  1  0
  4  6  1  0
  4  1  1  0
  5 10  1  0
  5  6  2  0
  6  7  1  0
  7  8  1  0
  9  8  1  0
 10 19  1  0
 10  9  1  0
 11 19  1  0
 12 17  1  0
 13 14  1  0
 13 12  1  0
 15 14  1  0
 15 24  1  0
 15 16  1  0
 17 11  1  0
 17 16  1  0
 18 11  2  0
 19 20  1  0
 21 22  2  0
 22 41  1  0
 23 22  1  0
 23 26  1  0
 24 25  1  0
 24 21  1  0
 25 23  2  0
 26 27  1  0
 27 28  2  0
 29 32  1  0
 29 28  1  0
 30 29  2  0
 31 30  1  0
 31 26  2  0
 32 33  1  0
 33 38  2  0
 33 34  1  0
 34 35  2  0
 35 36  1  0
 36 40  1  0
 37 36  2  0
 38 37  1  0
 39 38  1  0
 41 42  1  0
 42 45  1  0
 42 44  1  0
 43 41  2  0
 46 21  1  0
 46 47  1  0
 48 46  1  0
 49  1  1  0
 49 50  1  0
 51 50  1  0
 52 51  1  0
 53 55  1  0
 53 52  1  0
 54 65  2  0
 55 60  1  0
 56 64  1  0
 56 66  1  0
 57 63  1  0
 57 59  1  0
 58 64  1  0
 59 58  1  0
 60 59  2  0
 61 62  1  0
 61 55  2  0
 62 57  2  0
 63 56  1  0
 64 54  1  0
 66 68  2  0
 67 66  1  0
 69 67  1  0
 70 79  2  0
 70 75  1  0
 71 67  1  0
 71 75  1  0
 72 71  1  0
 73 74  1  0
 73 72  1  0
 74 70  1  0
 75 76  2  0
 76 77  1  0
 78 77  2  0
 79 78  1  0
 80 54  1  0
 80 81  1  0
 80 90  1  0
 81 84  1  0
 82 86  1  0
 82 81  1  0
 83 82  2  0
 86 85  1  0
 88 86  1  0
 88 89  1  0
 88 87  1  0
 90 93  1  1
 90 91  1  0
 92 90  1  0
M  ISO  4  11 100  19 100  52 101  53 101
M  END
>  <TORSDO>  (31) 
F 22

>  <SCORE>  (31) 
-10.790

>  <name>  (31) 
30

>  <ligand_id>  (31) 
30

>  <original_smiles>  (31) 
[H]C1=C(C([H])([H])[N+]([H])([H])C([H])([H])C([H])([H])C([H])([H])C([H])([H])Oc2c([H])c([H])c3c(c2[H])C([H])([H])N(C(=O)C([H])(N([H])C(=O)C([H])(N([H])C([H])([H])[H])C([H])([H])[H])C(C([H])([H])[H])(C([H])([H])[H])C([H])([H])[H])C([H])(C(=O)N([H])C2([H])c4c([H])c([H])c([H])c([H])c4C([H])([H])C([H])([H])C2([H])[H])C3([H])[H])C([H])([H])C([H])([H])C([H])([H])C1([H])N([H])C(=O)N1C([H])([H])C([H])([H])C([H])([H])C([H])(n2nc(-c3c([H])c([H])c(Oc4c([H])c([H])c(F)c([H])c4F)c([H])c3[H])c(C(=O)N([H])[H])c2N([H])[H])C1([H])[H]

>  <smiles>  (31) 
[H]C1=C(C([H])([H])[N+]([H])([H])C([H])([H])C([H])([H])C([H])([H])C([H])([H])Oc2c([H])c([H])c3c(c2[H])C([H])([H])N(C(=O)C([H])(N([H])C(=O)C([H])(N([H])C([H])([H])[H])C([H])([H])[H])C(C([H])([H])[H])(C([H])([H])[H])C([H])([H])[H])C([H])(C(=O)N([H])C2([H])c4c([H])c([H])c([H])c([H])c4C([H])([H])C([H])([H])C2([H])[H])C3([H])[H])C([H])([H])C([H])([H])C([H])([H])C1([H])N([H])C(=O)N1C([H])([H])C([H])([H])C([H])([H])C([H])(n2nc(-c3c([H])c([H])c(Oc4c([H])c([H])c(F)c([H])c4F)c([H])c3[H])c(C(=O)N([H])[H])c2N([H])[H])C1([H])[H]

$$$$
31:0:0
     RDKit          3D

 87 94  0  0  1  0  0  0  0  0999 V2000
  -29.1790  -22.5050   19.9890 C   0  0  0  0  0  0  0  0  0  0  0  0
  -29.4750  -22.4550   18.7930 O   0  0  0  0  0  0  0  0  0  0  0  0
  -29.0030  -21.1520   20.7900 C   0  0  0  0  0  3  0  0  0  0  0  0
  -29.7970  -19.8580   20.2850 C   0  0  0  0  0  3  0  0  0  0  0  0
  -29.3590  -18.3970   20.7670 C   0  0  0  0  0  3  0  0  0  0  0  0
  -30.3520  -17.1930   20.4280 C   0  0  0  0  0  3  0  0  0  0  0  0
  -30.6270  -14.6440   20.3560 C   0  0  0  0  0  0  0  0  0  0  0  0
  -30.3640  -12.4140   19.3000 C   0  0  0  0  0  2  0  0  0  0  0  0
  -29.4240  -12.5410   18.0810 C   0  0  0  0  0  2  0  0  0  0  0  0
  -27.9560  -12.3720   18.5190 C   0  0  0  0  0  2  0  0  0  0  0  0
  -27.5970  -13.2500   19.7500 C   0  0  0  0  0  3  0  0  0  0  0  0
  -28.6580  -13.1280   20.8670 C   0  0  0  0  0  2  0  0  0  0  0  0
  -29.9650  -13.4470   20.2790 N   0  0  0  0  0  0  0  0  0  0  0  0
  -31.7900  -14.7510   19.9630 O   0  0  0  0  0  0  0  0  0  0  0  0
  -29.9040  -15.7690   20.6650 N   0  0  0  0  0  0  0  0  0  0  0  0
  -28.9550  -15.6260   20.9710 H   0  0  0  0  0  0  0  0  0  0  0  0
  -25.2070  -13.8460   20.4770 C   0  0  0  0  0  0  0  0  0  0  0  0
  -24.1420  -13.0720   20.8530 C   0  0  0  0  0  0  0  0  0  0  0  0
  -24.6060  -11.7210   20.8270 C   0  0  0  0  0  0  0  0  0  0  0  0
  -26.2510  -12.9660   20.2420 N   0  0  0  0  0  0  0  0  0  0  0  0
  -25.8950  -11.6840   20.5140 N   0  0  0  0  0  0  0  0  0  0  0  0
  -23.8810  -10.4590   21.0230 C   0  0  0  0  0  0  0  0  0  0  0  0
  -24.3240   -9.4880   21.9490 C   0  0  0  0  0  3  0  0  0  0  0  0
  -23.6000   -8.2910   22.1320 C   0  0  0  0  0  3  0  0  0  0  0  0
  -22.4170   -8.0560   21.3910 C   0  0  0  0  0  0  0  0  0  0  0  0
  -21.9930   -9.0150   20.4540 C   0  0  0  0  0  3  0  0  0  0  0  0
  -22.7200  -10.2030   20.2680 C   0  0  0  0  0  3  0  0  0  0  0  0
  -21.6630   -6.9110   21.4840 O   0  0  0  0  0  0  0  0  0  0  0  0
  -21.6390   -6.1570   22.6310 C   0  0  0  0  0  0  0  0  0  0  0  0
  -21.2460   -6.7030   23.8720 C   0  0  0  0  0  3  0  0  0  0  0  0
  -21.1670   -5.8760   25.0120 C   0  0  0  0  0  3  0  0  0  0  0  0
  -21.4710   -4.5060   24.9100 C   0  0  0  0  0  0  0  0  0  0  0  0
  -21.8550   -3.9580   23.6730 C   0  0  0  0  0  3  0  0  0  0  0  0
  -21.9360   -4.7830   22.5360 C   0  0  0  0  0  0  0  0  0  0  0  0
  -22.2870   -4.2470   21.3430 F   0  0  0  0  0  0  0  0  0  0  0  0
  -21.3880   -3.7100   26.0020 F   0  0  0  0  0  0  0  0  0  0  0  0
  -22.7450  -13.5490   21.1260 C   0  0  0  0  0  0  0  0  0  0  0  0
  -22.0160  -12.8530   21.9930 N   0  0  0  0  0  0  0  0  0  0  0  0
  -22.3060  -14.5750   20.6080 O   0  0  0  0  0  0  0  0  0  0  0  0
  -22.3820  -12.0260   22.4390 H   0  0  0  0  0  0  0  0  0  0  0  0
  -21.0780  -13.1550   22.2140 H   0  0  0  0  0  0  0  0  0  0  0  0
  -25.3710  -15.2160   20.2930 N   0  0  0  0  0  0  0  0  0  0  0  0
  -24.6100  -15.8770   20.4070 H   0  0  0  0  0  0  0  0  0  0  0  0
  -26.2180  -15.6500   19.9480 H   0  0  0  0  0  0  0  0  0  0  0  0
  -29.0130  -23.9200   20.6750 C   0  0  0  0  0  3  0  0  0  0  0  0
  -28.1850  -25.0260   19.8870 C   0  0  0  0  0  3  0  0  0  0  0  0
  -28.3210  -26.4650   20.2350 O   0  0  0  0  0  0  0  0  0  0  0  0
  -24.6370  -31.8900   23.2290 C   0  0  0  0  0  0  0  0  0  0  0  0
  -27.2040  -27.3180   20.1530 C   0  0  0  0  0  0  0  0  0  0  0  0
  -23.4160  -30.4960   21.5980 C   0  0  0  0  0  3  0  0  0  0  0  0
  -24.8470  -28.9450   20.1580 C   0  0  0  0  0  0  0  0  0  0  0  0
  -25.9540  -30.8020   21.3980 C   0  0  0  0  0  2  0  0  0  0  0  0
  -26.0200  -29.4230   20.7510 C   0  0  0  0  0  0  0  0  0  0  0  0
  -27.2000  -28.6200   20.7440 C   0  0  0  0  0  3  0  0  0  0  0  0
  -26.0100  -26.9050   19.5130 C   0  0  0  0  0  3  0  0  0  0  0  0
  -24.8430  -27.6890   19.5320 C   0  0  0  0  0  3  0  0  0  0  0  0
  -23.6170  -29.8250   20.2150 C   0  0  0  0  0  2  0  0  0  0  0  0
  -24.6890  -31.0780   22.1320 N   0  0  0  0  0  0  0  0  0  0  0  0
  -23.5590  -32.1740   23.7700 O   0  0  0  0  0  0  0  0  0  0  0  0
  -22.7540  -29.4810   22.5600 C   0  0  0  0  0  0  0  0  0  0  0  0
  -21.4270  -29.3110   22.4420 N   0  0  0  0  0  0  0  0  0  0  0  0
  -23.4340  -28.8520   23.3740 O   0  0  0  0  0  0  0  0  0  0  0  0
  -20.9370  -29.8690   21.7570 H   0  0  0  0  0  0  0  0  0  0  0  0
  -18.0450  -28.1340   22.9620 C   0  0  0  0  0  0  0  0  0  0  0  0
  -20.6060  -28.3810   23.2190 C   0  0  0  0  0  3  0  0  0  0  0  0
  -20.6990  -26.9470   22.6460 C   0  0  0  0  0  2  0  0  0  0  0  0
  -19.5900  -26.6280   21.6380 C   0  0  0  0  0  2  0  0  0  0  0  0
  -18.2120  -26.7820   22.2880 C   0  0  0  0  0  2  0  0  0  0  0  0
  -19.1700  -28.8920   23.3840 C   0  0  0  0  0  0  0  0  0  0  0  0
  -18.9610  -30.1570   23.9750 C   0  0  0  0  0  3  0  0  0  0  0  0
  -17.6600  -30.6660   24.1450 C   0  0  0  0  0  3  0  0  0  0  0  0
  -16.5500  -29.9060   23.7390 C   0  0  0  0  0  3  0  0  0  0  0  0
  -16.7430  -28.6420   23.1540 C   0  0  0  0  0  3  0  0  0  0  0  0
  -25.9280  -32.5160   23.8390 C   0  0  0  0  0  3  0  0  0  0  0  0
  -26.4520  -31.7410   25.1100 C   0  0  1  0  0  0  0  0  0  0  0  0
  -25.3670  -31.5060   26.1880 C   0  0  0  0  0  1  0  0  0  0  0  0
  -27.0240  -30.3600   24.7140 C   0  0  0  0  0  1  0  0  0  0  0  0
  -27.6130  -32.5290   25.7620 C   0  0  0  0  0  1  0  0  0  0  0  0
  -25.6280  -33.9150   24.1760 N   0  0  0  0  0  0  0  0  0  0  0  0
  -25.9550  -34.9680   23.4140 C   0  0  0  0  0  0  0  0  0  0  0  0
  -26.6130  -34.8640   22.3760 O   0  0  0  0  0  0  0  0  0  0  0  0
  -25.0440  -34.0710   24.9840 H   0  0  0  0  0  0  0  0  0  0  0  0
  -24.2270  -36.7660   23.0820 C   0  0  0  0  0  1  0  0  0  0  0  0
  -25.4770  -36.3580   23.8790 C   0  0  0  0  0  3  0  0  0  0  0  0
  -27.6250  -37.2320   24.6860 C   0  0  0  0  0  1  0  0  0  0  0  0
  -26.5120  -37.4070   23.7560 N   0  0  0  0  0  0  0  0  0  0  0  0
  -26.1110  -38.3280   23.9110 H   0  0  0  0  0  0  0  0  0  0  0  0
  1 45  1  0
  1  3  1  0
  2  1  2  0
  4  5  1  0
  4  3  2  0
  6 15  1  0
  6  5  2  0
  7 15  1  0
  8 13  1  0
  9 10  1  0
  9  8  1  0
 11 10  1  0
 11 20  1  0
 11 12  1  0
 13  7  1  0
 13 12  1  0
 14  7  2  0
 15 16  1  0
 17 18  2  0
 18 37  1  0
 19 18  1  0
 19 22  1  0
 20 17  1  0
 20 21  1  0
 21 19  2  0
 22 23  1  0
 23 24  2  0
 25 28  1  0
 25 24  1  0
 26 25  2  0
 27 26  1  0
 27 22  2  0
 28 29  1  0
 29 30  1  0
 30 31  2  0
 32 31  1  0
 32 36  1  0
 33 32  2  0
 34 29  2  0
 34 33  1  0
 35 34  1  0
 37 38  1  0
 38 41  1  0
 38 40  1  0
 39 37  2  0
 42 43  1  0
 42 17  1  0
 44 42  1  0
 46 47  1  0
 46 45  2  0
 48 59  2  0
 49 47  1  0
 49 54  1  0
 50 58  1  0
 50 60  1  0
 51 57  1  0
 51 53  1  0
 52 58  1  0
 53 52  1  0
 54 53  2  0
 55 56  1  0
 55 49  2  0
 56 51  2  0
 57 50  1  0
 58 48  1  0
 60 62  2  0
 61 60  1  0
 63 61  1  0
 64 73  2  0
 64 69  1  0
 65 61  1  0
 65 69  1  0
 66 65  1  0
 67 68  1  0
 67 66  1  0
 68 64  1  0
 69 70  2  0
 70 71  1  0
 72 71  2  0
 73 72  1  0
 74 48  1  0
 74 79  1  0
 74 75  1  0
 75 78  1  1
 75 76  1  0
 77 75  1  0
 79 82  1  0
 80 84  1  0
 80 79  1  0
 81 80  2  0
 84 83  1  0
 86 84  1  0
 86 87  1  0
 86 85  1  0
M  ISO  4   7 100  15 100  46 101  47 101
M  END
>  <TORSDO>  (32) 
F 22

>  <SCORE>  (32) 
-12.878

>  <name>  (32) 
31

>  <ligand_id>  (32) 
31

>  <original_smiles>  (32) 
[H]c1c([H])c([H])c2c(c1[H])C([H])([H])C([H])([H])C([H])([H])C2([H])N([H])C(=O)C1([H])N(C(=O)C([H])(N([H])C(=O)C([H])(N([H])C([H])([H])[H])C([H])([H])[H])C(C([H])([H])[H])(C([H])([H])[H])C([H])([H])[H])C([H])([H])c2c([H])c(OC([H])([H])C([H])([H])C(=O)C([H])([H])C([H])([H])C([H])([H])C([H])([H])N([H])C(=O)N3C([H])([H])C([H])([H])C([H])([H])C([H])(n4nc(-c5c([H])c([H])c(Oc6c([H])c([H])c(F)c([H])c6F)c([H])c5[H])c(C(=O)N([H])[H])c4N([H])[H])C3([H])[H])c([H])c([H])c2C1([H])[H]

>  <smiles>  (32) 
[H]c1c([H])c([H])c2c(c1[H])C([H])([H])C([H])([H])C([H])([H])C2([H])N([H])C(=O)C1([H])N(C(=O)C([H])(N([H])C(=O)C([H])(N([H])C([H])([H])[H])C([H])([H])[H])C(C([H])([H])[H])(C([H])([H])[H])C([H])([H])[H])C([H])([H])c2c([H])c(OC([H])([H])C([H])([H])C(=O)C([H])([H])C([H])([H])C([H])([H])C([H])([H])N([H])C(=O)N3C([H])([H])C([H])([H])C([H])([H])C([H])(n4nc(-c5c([H])c([H])c(Oc6c([H])c([H])c(F)c([H])c6F)c([H])c5[H])c(C(=O)N([H])[H])c4N([H])[H])C3([H])[H])c([H])c([H])c2C1([H])[H]

$$$$
32:0:0
     RDKit          3D

 87 94  0  0  1  0  0  0  0  0999 V2000
  -28.2670  -23.9070   21.1720 C   0  0  0  0  0  3  0  0  0  0  0  0
  -28.5260  -22.5420   21.2080 C   0  0  0  0  0  0  0  0  0  0  0  0
  -28.0860  -21.7770   22.4330 C   0  0  0  0  0  1  0  0  0  0  0  0
  -28.4100  -25.0070   20.0400 C   0  0  0  0  0  2  0  0  0  0  0  0
  -28.3660  -26.4760   20.3420 O   0  0  0  0  0  0  0  0  0  0  0  0
  -24.5980  -31.9270   23.1800 C   0  0  0  0  0  0  0  0  0  0  0  0
  -27.2390  -27.3270   20.1960 C   0  0  0  0  0  0  0  0  0  0  0  0
  -23.4010  -30.5250   21.5330 C   0  0  0  0  0  3  0  0  0  0  0  0
  -24.8780  -28.9820   20.0930 C   0  0  0  0  0  0  0  0  0  0  0  0
  -25.9390  -30.8510   21.3410 C   0  0  0  0  0  2  0  0  0  0  0  0
  -26.0360  -29.4710   20.7030 C   0  0  0  0  0  0  0  0  0  0  0  0
  -27.2100  -28.6590   20.7450 C   0  0  0  0  0  3  0  0  0  0  0  0
  -26.0690  -26.9280   19.5000 C   0  0  0  0  0  3  0  0  0  0  0  0
  -24.9080  -27.7300   19.4600 C   0  0  0  0  0  3  0  0  0  0  0  0
  -23.6140  -29.8440   20.1520 C   0  0  0  0  0  2  0  0  0  0  0  0
  -24.6670  -31.1220   22.0780 N   0  0  0  0  0  0  0  0  0  0  0  0
  -23.5150  -32.1920   23.7230 O   0  0  0  0  0  0  0  0  0  0  0  0
  -22.7450  -29.5100   22.4910 C   0  0  0  0  0  0  0  0  0  0  0  0
  -21.4170  -29.3360   22.3780 N   0  0  0  0  0  0  0  0  0  0  0  0
  -23.4250  -28.8840   23.3100 O   0  0  0  0  0  0  0  0  0  0  0  0
  -20.9230  -29.8850   21.6880 H   0  0  0  0  0  0  0  0  0  0  0  0
  -18.0480  -28.1210   22.8710 C   0  0  0  0  0  0  0  0  0  0  0  0
  -20.6050  -28.3970   23.1440 C   0  0  0  0  0  3  0  0  0  0  0  0
  -20.7070  -26.9690   22.5650 C   0  0  0  0  0  2  0  0  0  0  0  0
  -19.6170  -26.6800   21.5310 C   0  0  0  0  0  2  0  0  0  0  0  0
  -18.2400  -26.7790   22.1870 C   0  0  0  0  0  2  0  0  0  0  0  0
  -19.1600  -28.8930   23.3030 C   0  0  0  0  0  0  0  0  0  0  0  0
  -18.9320  -30.1550   23.8950 C   0  0  0  0  0  3  0  0  0  0  0  0
  -17.6250  -30.6510   24.0590 C   0  0  0  0  0  3  0  0  0  0  0  0
  -16.5290  -29.8770   23.6450 C   0  0  0  0  0  3  0  0  0  0  0  0
  -16.7390  -28.6140   23.0610 C   0  0  0  0  0  3  0  0  0  0  0  0
  -25.8820  -32.5570   23.8100 C   0  0  0  0  0  3  0  0  0  0  0  0
  -25.5730  -33.9550   24.1440 N   0  0  0  0  0  0  0  0  0  0  0  0
  -25.9120  -35.0080   23.3940 C   0  0  0  0  0  0  0  0  0  0  0  0
  -26.5860  -34.9150   22.3670 O   0  0  0  0  0  0  0  0  0  0  0  0
  -24.9700  -34.1040   24.9390 H   0  0  0  0  0  0  0  0  0  0  0  0
  -24.1900  -36.8100   23.0420 C   0  0  0  0  0  1  0  0  0  0  0  0
  -25.4270  -36.3980   23.8570 C   0  0  0  0  0  3  0  0  0  0  0  0
  -27.5590  -37.2710   24.7020 C   0  0  0  0  0  1  0  0  0  0  0  0
  -26.4600  -37.4480   23.7550 N   0  0  0  0  0  0  0  0  0  0  0  0
  -26.0590  -38.3690   23.9090 H   0  0  0  0  0  0  0  0  0  0  0  0
  -26.3960  -31.7840   25.0890 C   0  0  1  0  0  0  0  0  0  0  0  0
  -25.2990  -31.5520   26.1550 C   0  0  0  0  0  1  0  0  0  0  0  0
  -26.9730  -30.4040   24.6960 C   0  0  0  0  0  1  0  0  0  0  0  0
  -27.5490  -32.5750   25.7540 C   0  0  0  0  0  1  0  0  0  0  0  0
  -29.1770  -21.5820   20.1390 C   0  0  0  0  0  2  0  0  0  0  0  0
  -29.9420  -20.2040   20.5780 C   0  0  0  0  0  2  0  0  0  0  0  0
  -29.4060  -18.7010   20.2570 C   0  0  0  0  0  3  0  0  0  0  0  0
  -30.3940  -17.4390   20.5340 C   0  0  0  0  0  3  0  0  0  0  0  0
  -30.6830  -14.8480   20.1600 C   0  0  0  0  0  0  0  0  0  0  0  0
  -30.4610  -12.5750   19.1360 C   0  0  0  0  0  2  0  0  0  0  0  0
  -29.4850  -12.6210   17.9370 C   0  0  0  0  0  2  0  0  0  0  0  0
  -28.0260  -12.4690   18.4040 C   0  0  0  0  0  2  0  0  0  0  0  0
  -27.6830  -13.3650   19.6240 C   0  0  0  0  0  3  0  0  0  0  0  0
  -28.7660  -13.2760   20.7210 C   0  0  0  0  0  2  0  0  0  0  0  0
  -30.0490  -13.6310   20.0930 N   0  0  0  0  0  0  0  0  0  0  0  0
  -31.8720  -14.9400   19.8380 O   0  0  0  0  0  0  0  0  0  0  0  0
  -29.9290  -15.9890   20.3960 N   0  0  0  0  0  0  0  0  0  0  0  0
  -28.9410  -15.8240   20.5270 H   0  0  0  0  0  0  0  0  0  0  0  0
  -25.3210  -13.9720   20.4130 C   0  0  0  0  0  0  0  0  0  0  0  0
  -24.2560  -13.1990   20.7990 C   0  0  0  0  0  0  0  0  0  0  0  0
  -24.7120  -11.8470   20.7620 C   0  0  0  0  0  0  0  0  0  0  0  0
  -26.3470  -13.0850   20.1440 N   0  0  0  0  0  0  0  0  0  0  0  0
  -25.9960  -11.8020   20.4270 N   0  0  0  0  0  0  0  0  0  0  0  0
  -23.9850  -10.5880   20.9690 C   0  0  0  0  0  0  0  0  0  0  0  0
  -24.4310   -9.6200   21.8980 C   0  0  0  0  0  3  0  0  0  0  0  0
  -23.7030   -8.4280   22.0930 C   0  0  0  0  0  3  0  0  0  0  0  0
  -22.5180   -8.1950   21.3610 C   0  0  0  0  0  0  0  0  0  0  0  0
  -22.0890   -9.1490   20.4230 C   0  0  0  0  0  3  0  0  0  0  0  0
  -22.8150  -10.3350   20.2240 C   0  0  0  0  0  3  0  0  0  0  0  0
  -21.7600   -7.0520   21.4680 O   0  0  0  0  0  0  0  0  0  0  0  0
  -21.7310   -6.3130   22.6180 C   0  0  0  0  0  0  0  0  0  0  0  0
  -21.3310   -6.8730   23.8540 C   0  0  0  0  0  3  0  0  0  0  0  0
  -21.2480   -6.0590   25.0020 C   0  0  0  0  0  3  0  0  0  0  0  0
  -21.5490   -4.6880   24.9190 C   0  0  0  0  0  0  0  0  0  0  0  0
  -21.9410   -4.1270   23.6930 C   0  0  0  0  0  3  0  0  0  0  0  0
  -22.0260   -4.9350   22.5440 C   0  0  0  0  0  0  0  0  0  0  0  0
  -22.3830   -4.3870   21.3590 F   0  0  0  0  0  0  0  0  0  0  0  0
  -21.4640   -3.9020   26.0200 F   0  0  0  0  0  0  0  0  0  0  0  0
  -22.8650  -13.6860   21.0910 C   0  0  0  0  0  0  0  0  0  0  0  0
  -22.1520  -12.9990   21.9790 N   0  0  0  0  0  0  0  0  0  0  0  0
  -22.4220  -14.7100   20.5760 O   0  0  0  0  0  0  0  0  0  0  0  0
  -22.5210  -12.1710   22.4220 H   0  0  0  0  0  0  0  0  0  0  0  0
  -21.2180  -13.3080   22.2180 H   0  0  0  0  0  0  0  0  0  0  0  0
  -25.4870  -15.3410   20.2420 N   0  0  0  0  0  0  0  0  0  0  0  0
  -24.7430  -16.0030   20.4220 H   0  0  0  0  0  0  0  0  0  0  0  0
  -26.3510  -15.7920   19.9660 H   0  0  0  0  0  0  0  0  0  0  0  0
  1  2  2  0
  2  3  1  0
  4  5  1  0
  4  1  1  0
  6 17  2  0
  7  5  1  0
  7 12  1  0
  8 16  1  0
  8 18  1  0
  9 15  1  0
  9 11  1  0
 10 16  1  0
 11 12  2  0
 11 10  1  0
 13  7  2  0
 14 13  1  0
 14  9  2  0
 15  8  1  0
 16  6  1  0
 18 20  2  0
 19 18  1  0
 21 19  1  0
 22 31  2  0
 22 27  1  0
 23 19  1  0
 23 27  1  0
 24 23  1  0
 25 26  1  0
 25 24  1  0
 26 22  1  0
 27 28  2  0
 28 29  1  0
 30 29  2  0
 31 30  1  0
 32  6  1  0
 32 33  1  0
 32 42  1  0
 33 36  1  0
 34 38  1  0
 34 33  1  0
 35 34  2  0
 38 37  1  0
 40 38  1  0
 40 41  1  0
 40 39  1  0
 42 45  1  1
 42 43  1  0
 44 42  1  0
 46 47  1  0
 46  2  1  0
 48 49  2  0
 48 47  1  0
 50 58  1  0
 51 56  1  0
 52 53  1  0
 52 51  1  0
 54 53  1  0
 54 63  1  0
 54 55  1  0
 56 50  1  0
 56 55  1  0
 57 50  2  0
 58 59  1  0
 58 49  1  0
 60 61  2  0
 61 80  1  0
 62 61  1  0
 62 65  1  0
 63 60  1  0
 63 64  1  0
 64 62  2  0
 65 66  1  0
 66 67  2  0
 68 71  1  0
 68 67  1  0
 69 68  2  0
 70 69  1  0
 70 65  2  0
 71 72  1  0
 72 73  1  0
 73 74  2  0
 75 74  1  0
 75 79  1  0
 76 75  2  0
 77 72  2  0
 77 76  1  0
 78 77  1  0
 80 81  1  0
 81 84  1  0
 81 83  1  0
 82 80  2  0
 85 60  1  0
 85 86  1  0
 87 85  1  0
M  ISO  4   4 101   5 101  50 100  58 100
M  END
>  <TORSDO>  (33) 
F 21

>  <SCORE>  (33) 
-12.627

>  <name>  (33) 
32

>  <ligand_id>  (33) 
32

>  <original_smiles>  (33) 
[H]C(=C(C([H])([H])[H])C([H])([H])C([H])([H])C([H])([H])C([H])([H])N([H])C(=O)N1C([H])([H])C([H])([H])C([H])([H])C([H])(n2nc(-c3c([H])c([H])c(Oc4c([H])c([H])c(F)c([H])c4F)c([H])c3[H])c(C(=O)N([H])[H])c2N([H])[H])C1([H])[H])C([H])([H])Oc1c([H])c([H])c2c(c1[H])C([H])([H])N(C(=O)C([H])(N([H])C(=O)C([H])(N([H])C([H])([H])[H])C([H])([H])[H])C(C([H])([H])[H])(C([H])([H])[H])C([H])([H])[H])C([H])(C(=O)N([H])C1([H])c3c([H])c([H])c([H])c([H])c3C([H])([H])C([H])([H])C1([H])[H])C2([H])[H]

>  <smiles>  (33) 
[H]C(=C(C([H])([H])[H])C([H])([H])C([H])([H])C([H])([H])C([H])([H])N([H])C(=O)N1C([H])([H])C([H])([H])C([H])([H])C([H])(n2nc(-c3c([H])c([H])c(Oc4c([H])c([H])c(F)c([H])c4F)c([H])c3[H])c(C(=O)N([H])[H])c2N([H])[H])C1([H])[H])C([H])([H])Oc1c([H])c([H])c2c(c1[H])C([H])([H])N(C(=O)C([H])(N([H])C(=O)C([H])(N([H])C([H])([H])[H])C([H])([H])[H])C(C([H])([H])[H])(C([H])([H])[H])C([H])([H])[H])C([H])(C(=O)N([H])C1([H])c3c([H])c([H])c([H])c([H])c3C([H])([H])C([H])([H])C1([H])[H])C2([H])[H]

$$$$
33:0:0
     RDKit          3D

 95104  0  0  1  0  0  0  0  0999 V2000
  -29.5410  -21.8580   22.5260 C   0  0  0  0  0  3  0  0  0  0  0  0
  -29.6920  -23.2610   22.5250 C   0  0  0  0  0  3  0  0  0  0  0  0
  -28.2420  -22.0060   20.4720 C   0  0  0  0  0  3  0  0  0  0  0  0
  -28.8010  -21.2250   21.5070 C   0  0  0  0  0  0  0  0  0  0  0  0
  -29.1080  -24.0470   21.5070 C   0  0  0  0  0  0  0  0  0  0  0  0
  -28.3960  -23.4080   20.4660 C   0  0  0  0  0  0  0  0  0  0  0  0
  -27.8330  -24.1400   19.4600 O   0  0  0  0  0  0  0  0  0  0  0  0
  -27.3650  -23.6040   18.8280 H   0  0  0  0  0  0  0  0  0  0  0  0
  -28.5570  -19.7220   21.5330 C   0  0  0  0  0  2  0  0  0  0  0  0
  -28.7620  -19.0450   20.1630 C   0  0  0  0  0  2  0  0  0  0  0  0
  -32.1190  -14.4780   19.7760 C   0  0  0  0  0  0  0  0  0  0  0  0
  -31.7270  -12.0780   19.3900 C   0  0  0  0  0  2  0  0  0  0  0  0
  -30.7950  -11.9130   18.1730 C   0  0  0  0  0  2  0  0  0  0  0  0
  -29.3180  -11.9800   18.6060 C   0  0  0  0  0  2  0  0  0  0  0  0
  -29.0130  -13.2020   19.5140 C   0  0  0  0  0  3  0  0  0  0  0  0
  -30.0560  -13.3150   20.6470 C   0  0  0  0  0  2  0  0  0  0  0  0
  -31.3940  -13.3570   20.0320 N   0  0  0  0  0  0  0  0  0  0  0  0
  -33.2280  -14.4520   19.2290 O   0  0  0  0  0  0  0  0  0  0  0  0
  -30.0820  -17.3720   18.7740 C   0  0  0  0  0  2  0  0  0  0  0  0
  -30.3060  -17.3360   21.2880 C   0  0  0  0  0  2  0  0  0  0  0  0
  -31.3490  -16.5040   18.7010 C   0  0  0  0  0  2  0  0  0  0  0  0
  -31.5430  -16.4290   21.1200 C   0  0  0  0  0  2  0  0  0  0  0  0
  -30.0690  -18.2320   20.0490 C   0  0  0  0  0  3  0  0  0  0  0  0
  -31.4380  -15.6410   19.8860 N   0  0  0  0  0  0  0  0  0  0  0  0
  -26.7910  -14.1920   20.3610 C   0  0  0  0  0  0  0  0  0  0  0  0
  -25.6130  -13.6050   20.7380 C   0  0  0  0  0  0  0  0  0  0  0  0
  -25.8170  -12.1970   20.6100 C   0  0  0  0  0  0  0  0  0  0  0  0
  -27.6480  -13.1520   20.0370 N   0  0  0  0  0  0  0  0  0  0  0  0
  -27.0650  -11.9430   20.2410 N   0  0  0  0  0  0  0  0  0  0  0  0
  -24.8780  -11.0790   20.7660 C   0  0  0  0  0  0  0  0  0  0  0  0
  -25.1550   -9.9990   21.6330 C   0  0  0  0  0  3  0  0  0  0  0  0
  -24.2290   -8.9430   21.7800 C   0  0  0  0  0  3  0  0  0  0  0  0
  -23.0110   -8.9630   21.0590 C   0  0  0  0  0  0  0  0  0  0  0  0
  -22.7510  -10.0290   20.1800 C   0  0  0  0  0  3  0  0  0  0  0  0
  -23.6770  -11.0760   20.0310 C   0  0  0  0  0  3  0  0  0  0  0  0
  -22.0640   -7.9700   21.1190 O   0  0  0  0  0  0  0  0  0  0  0  0
  -21.8640   -7.2330   22.2580 C   0  0  0  0  0  0  0  0  0  0  0  0
  -21.5600   -7.8420   23.4950 C   0  0  0  0  0  3  0  0  0  0  0  0
  -21.2940   -7.0440   24.6270 C   0  0  0  0  0  3  0  0  0  0  0  0
  -21.3210   -5.6410   24.5210 C   0  0  0  0  0  0  0  0  0  0  0  0
  -21.6180   -5.0330   23.2890 C   0  0  0  0  0  3  0  0  0  0  0  0
  -21.8860   -5.8270   22.1600 C   0  0  0  0  0  0  0  0  0  0  0  0
  -22.1510   -5.2360   20.9700 F   0  0  0  0  0  0  0  0  0  0  0  0
  -21.0570   -4.8740   25.6050 F   0  0  0  0  0  0  0  0  0  0  0  0
  -24.3390  -14.3100   21.1040 C   0  0  0  0  0  0  0  0  0  0  0  0
  -23.5380  -13.7140   21.9810 N   0  0  0  0  0  0  0  0  0  0  0  0
  -24.0690  -15.4210   20.6480 O   0  0  0  0  0  0  0  0  0  0  0  0
  -23.7700  -12.8120   22.3700 H   0  0  0  0  0  0  0  0  0  0  0  0
  -22.6830  -14.1670   22.2690 H   0  0  0  0  0  0  0  0  0  0  0  0
  -27.1950  -15.5170   20.2480 N   0  0  0  0  0  0  0  0  0  0  0  0
  -26.5730  -16.2950   20.4370 H   0  0  0  0  0  0  0  0  0  0  0  0
  -28.1130  -15.8080   19.9370 H   0  0  0  0  0  0  0  0  0  0  0  0
  -29.1960  -25.5690   21.5720 C   0  0  0  0  0  2  0  0  0  0  0  0
  -29.9870  -26.2100   20.4160 C   0  0  0  0  0  2  0  0  0  0  0  0
  -29.7790  -27.6270   20.3850 O   0  0  0  0  0  0  0  0  0  0  0  0
  -24.7830  -31.7180   23.3500 C   0  0  0  0  0  0  0  0  0  0  0  0
  -28.4800  -28.0830   20.3080 C   0  0  0  0  0  0  0  0  0  0  0  0
  -24.0080  -30.2300   21.5310 C   0  0  0  0  0  3  0  0  0  0  0  0
  -25.8400  -29.0930   20.1720 C   0  0  0  0  0  0  0  0  0  0  0  0
  -26.4220  -31.0720   21.5870 C   0  0  0  0  0  2  0  0  0  0  0  0
  -26.8220  -29.7900   20.8900 C   0  0  0  0  0  0  0  0  0  0  0  0
  -28.1420  -29.2940   20.9520 C   0  0  0  0  0  3  0  0  0  0  0  0
  -27.4780  -27.3930   19.5870 C   0  0  0  0  0  3  0  0  0  0  0  0
  -26.1650  -27.8920   19.5190 C   0  0  0  0  0  3  0  0  0  0  0  0
  -24.4550  -29.6960   20.1460 C   0  0  0  0  0  2  0  0  0  0  0  0
  -25.0810  -31.0210   22.2170 N   0  0  0  0  0  0  0  0  0  0  0  0
  -23.6300  -31.7440   23.8000 O   0  0  0  0  0  0  0  0  0  0  0  0
  -23.4900  -29.0420   22.3720 C   0  0  0  0  0  0  0  0  0  0  0  0
  -22.2500  -28.6100   22.0960 N   0  0  0  0  0  0  0  0  0  0  0  0
  -24.2060  -28.5140   23.2290 O   0  0  0  0  0  0  0  0  0  0  0  0
  -21.7240  -29.1020   21.3880 H   0  0  0  0  0  0  0  0  0  0  0  0
  -19.1520  -26.7560   22.1840 C   0  0  0  0  0  0  0  0  0  0  0  0
  -21.5700  -27.4830   22.7330 C   0  0  0  0  0  3  0  0  0  0  0  0
  -22.0090  -26.1410   22.1040 C   0  0  0  0  0  2  0  0  0  0  0  0
  -21.0930  -25.6790   20.9670 C   0  0  0  0  0  2  0  0  0  0  0  0
  -19.6550  -25.5120   21.4710 C   0  0  0  0  0  2  0  0  0  0  0  0
  -20.0520  -27.6880   22.7640 C   0  0  0  0  0  0  0  0  0  0  0  0
  -19.5340  -28.8450   23.3870 C   0  0  0  0  0  3  0  0  0  0  0  0
  -18.1460  -29.0720   23.4400 C   0  0  0  0  0  3  0  0  0  0  0  0
  -17.2590  -28.1380   22.8790 C   0  0  0  0  0  3  0  0  0  0  0  0
  -17.7610  -26.9820   22.2560 C   0  0  0  0  0  3  0  0  0  0  0  0
  -25.8690  -32.5340   24.1180 C   0  0  0  0  0  3  0  0  0  0  0  0
  -25.3470  -33.8920   24.3090 N   0  0  0  0  0  0  0  0  0  0  0  0
  -25.6630  -34.9440   23.5420 C   0  0  0  0  0  0  0  0  0  0  0  0
  -26.4930  -34.8820   22.6300 O   0  0  0  0  0  0  0  0  0  0  0  0
  -24.6190  -34.0040   24.9990 H   0  0  0  0  0  0  0  0  0  0  0  0
  -23.8030  -36.4770   22.8250 C   0  0  0  0  0  1  0  0  0  0  0  0
  -24.9450  -36.2750   23.8320 C   0  0  0  0  0  3  0  0  0  0  0  0
  -26.8220  -37.4540   24.8900 C   0  0  0  0  0  1  0  0  0  0  0  0
  -25.8470  -37.4470   23.8020 N   0  0  0  0  0  0  0  0  0  0  0  0
  -25.3150  -38.3130   23.8490 H   0  0  0  0  0  0  0  0  0  0  0  0
  -26.2700  -31.8880   25.5010 C   0  0  1  0  0  0  0  0  0  0  0  0
  -25.0610  -31.5230   26.3920 C   0  0  0  0  0  1  0  0  0  0  0  0
  -27.1000  -30.6010   25.2840 C   0  0  0  0  0  1  0  0  0  0  0  0
  -27.1670  -32.8660   26.2970 C   0  0  0  0  0  1  0  0  0  0  0  0
  2  1  1  0
  3  4  1  0
  4  9  1  0
  4  1  2  0
  5 53  1  0
  5  2  2  0
  6  3  2  0
  6  5  1  0
  7  6  1  0
  8  7  1  0
 10  9  1  0
 11 24  1  0
 11 17  1  0
 12 17  1  0
 13 14  1  0
 13 12  1  0
 15 14  1  0
 15 28  1  0
 15 16  1  0
 17 16  1  0
 18 11  2  0
 19 23  1  0
 21 19  1  0
 21 24  1  0
 22 20  1  0
 23 10  1  0
 23 20  1  0
 24 22  1  0
 25 26  2  0
 26 45  1  0
 27 26  1  0
 27 30  1  0
 28 29  1  0
 28 25  1  0
 29 27  2  0
 30 31  1  0
 31 32  2  0
 33 36  1  0
 33 32  1  0
 34 33  2  0
 35 34  1  0
 35 30  2  0
 36 37  1  0
 37 38  1  0
 38 39  2  0
 40 39  1  0
 40 44  1  0
 41 40  2  0
 42 37  2  0
 42 41  1  0
 43 42  1  0
 45 46  1  0
 46 49  1  0
 46 48  1  0
 47 45  2  0
 50 25  1  0
 50 51  1  0
 52 50  1  0
 54 53  1  0
 55 54  1  0
 56 67  2  0
 57 55  1  0
 57 62  1  0
 58 66  1  0
 58 68  1  0
 59 61  1  0
 60 66  1  0
 61 62  2  0
 61 60  1  0
 63 57  2  0
 64 63  1  0
 64 59  2  0
 65 59  1  0
 65 58  1  0
 66 56  1  0
 68 70  2  0
 69 68  1  0
 71 69  1  0
 72 81  2  0
 72 77  1  0
 73 69  1  0
 73 77  1  0
 74 73  1  0
 75 76  1  0
 75 74  1  0
 76 72  1  0
 77 78  2  0
 78 79  1  0
 80 79  2  0
 81 80  1  0
 82 56  1  0
 82 83  1  0
 82 92  1  0
 83 86  1  0
 84 88  1  0
 84 83  1  0
 85 84  2  0
 88 87  1  0
 90 88  1  0
 90 91  1  0
 90 89  1  0
 92 95  1  1
 92 93  1  0
 94 92  1  0
M  ISO  4  11 100  24 100  54 101  55 101
M  END
>  <TORSDO>  (34) 
F 21

>  <SCORE>  (34) 
-9.952

>  <name>  (34) 
33

>  <ligand_id>  (34) 
33

>  <original_smiles>  (34) 
[H]Oc1c([H])c(C([H])([H])C([H])([H])C2([H])C([H])([H])C([H])([H])N(C(=O)N3C([H])([H])C([H])([H])C([H])([H])C([H])(n4nc(-c5c([H])c([H])c(Oc6c([H])c([H])c(F)c([H])c6F)c([H])c5[H])c(C(=O)N([H])[H])c4N([H])[H])C3([H])[H])C([H])([H])C2([H])[H])c([H])c([H])c1C([H])([H])C([H])([H])Oc1c([H])c([H])c2c(c1[H])C([H])([H])N(C(=O)C([H])(N([H])C(=O)C([H])(N([H])C([H])([H])[H])C([H])([H])[H])C(C([H])([H])[H])(C([H])([H])[H])C([H])([H])[H])C([H])(C(=O)N([H])C1([H])c3c([H])c([H])c([H])c([H])c3C([H])([H])C([H])([H])C1([H])[H])C2([H])[H]

>  <smiles>  (34) 
[H]Oc1c([H])c(C([H])([H])C([H])([H])C2([H])C([H])([H])C([H])([H])N(C(=O)N3C([H])([H])C([H])([H])C([H])([H])C([H])(n4nc(-c5c([H])c([H])c(Oc6c([H])c([H])c(F)c([H])c6F)c([H])c5[H])c(C(=O)N([H])[H])c4N([H])[H])C3([H])[H])C([H])([H])C2([H])[H])c([H])c([H])c1C([H])([H])C([H])([H])Oc1c([H])c([H])c2c(c1[H])C([H])([H])N(C(=O)C([H])(N([H])C(=O)C([H])(N([H])C([H])([H])[H])C([H])([H])[H])C(C([H])([H])[H])(C([H])([H])[H])C([H])([H])[H])C([H])(C(=O)N([H])C1([H])c3c([H])c([H])c([H])c([H])c3C([H])([H])C([H])([H])C1([H])[H])C2([H])[H]

$$$$
34:0:0
     RDKit          3D

 93102  0  0  1  0  0  0  0  0999 V2000
  -28.4050  -19.1310   21.0000 C   0  0  0  0  0  3  0  0  0  0  0  0
  -28.3410  -20.2170   20.1070 C   0  0  0  0  0  3  0  0  0  0  0  0
  -30.0440  -19.1370   18.6970 C   0  0  0  0  0  3  0  0  0  0  0  0
  -29.3300  -18.1000   20.7570 C   0  0  0  0  0  0  0  0  0  0  0  0
  -30.0790  -18.0150   19.5840 C   0  0  0  0  0  0  0  0  0  0  0  0
  -29.2220  -20.2780   19.0020 C   0  0  0  0  0  0  0  0  0  0  0  0
  -31.1920  -16.6860   21.2110 C   0  0  0  0  0  2  0  0  0  0  0  0
  -29.8240  -17.1340   21.7880 C   0  0  0  0  0  3  0  0  0  0  0  0
  -31.0980  -16.8380   19.6680 C   0  0  0  0  0  3  0  0  0  0  0  0
  -28.8510  -15.9760   21.9790 C   0  0  0  0  0  1  0  0  0  0  0  0
  -31.4410  -14.3620   19.0280 C   0  0  0  0  0  0  0  0  0  0  0  0
  -31.0950  -11.9810   18.3930 C   0  0  0  0  0  2  0  0  0  0  0  0
  -30.0330  -11.9080   17.2760 C   0  0  0  0  0  2  0  0  0  0  0  0
  -28.6050  -11.8880   17.8640 C   0  0  0  0  0  2  0  0  0  0  0  0
  -28.3860  -12.9720   18.9540 C   0  0  0  0  0  3  0  0  0  0  0  0
  -29.5520  -12.9880   19.9660 C   0  0  0  0  0  2  0  0  0  0  0  0
  -30.7900  -13.1730   19.1990 N   0  0  0  0  0  0  0  0  0  0  0  0
  -32.5890  -14.4150   18.5840 O   0  0  0  0  0  0  0  0  0  0  0  0
  -30.6820  -15.4810   19.2030 N   0  0  0  0  0  0  0  0  0  0  0  0
  -29.7010  -15.2950   19.3330 H   0  0  0  0  0  0  0  0  0  0  0  0
  -26.1770  -13.8090   19.9620 C   0  0  0  0  0  0  0  0  0  0  0  0
  -25.1020  -13.1530   20.4900 C   0  0  0  0  0  0  0  0  0  0  0  0
  -25.4050  -11.7610   20.3900 C   0  0  0  0  0  0  0  0  0  0  0  0
  -27.0900  -12.8260   19.6090 N   0  0  0  0  0  0  0  0  0  0  0  0
  -26.6340  -11.5860   19.9170 N   0  0  0  0  0  0  0  0  0  0  0  0
  -24.5700  -10.5850   20.6640 C   0  0  0  0  0  0  0  0  0  0  0  0
  -24.9220   -9.6430   21.6550 C   0  0  0  0  0  3  0  0  0  0  0  0
  -24.0940   -8.5300   21.9100 C   0  0  0  0  0  3  0  0  0  0  0  0
  -22.8990   -8.3520   21.1740 C   0  0  0  0  0  0  0  0  0  0  0  0
  -22.5640   -9.2800   20.1730 C   0  0  0  0  0  3  0  0  0  0  0  0
  -23.3910  -10.3850   19.9180 C   0  0  0  0  0  3  0  0  0  0  0  0
  -22.0460   -7.2860   21.3350 O   0  0  0  0  0  0  0  0  0  0  0  0
  -21.8270   -6.7180   22.5620 C   0  0  0  0  0  0  0  0  0  0  0  0
  -21.3360   -7.4690   23.6540 C   0  0  0  0  0  3  0  0  0  0  0  0
  -21.0610   -6.8320   24.8780 C   0  0  0  0  0  3  0  0  0  0  0  0
  -21.2630   -5.4450   25.0140 C   0  0  0  0  0  0  0  0  0  0  0  0
  -21.7460   -4.6950   23.9260 C   0  0  0  0  0  3  0  0  0  0  0  0
  -22.0240   -5.3300   22.7040 C   0  0  0  0  0  0  0  0  0  0  0  0
  -22.4670   -4.6000   21.6530 F   0  0  0  0  0  0  0  0  0  0  0  0
  -20.9910   -4.8310   26.1880 F   0  0  0  0  0  0  0  0  0  0  0  0
  -23.8190  -13.7780   20.9500 C   0  0  0  0  0  0  0  0  0  0  0  0
  -23.1550  -13.1720   21.9270 N   0  0  0  0  0  0  0  0  0  0  0  0
  -23.4210  -14.8430   20.4780 O   0  0  0  0  0  0  0  0  0  0  0  0
  -23.4910  -12.3110   22.3310 H   0  0  0  0  0  0  0  0  0  0  0  0
  -22.2950  -13.5730   22.2740 H   0  0  0  0  0  0  0  0  0  0  0  0
  -26.4310  -15.1520   19.7200 N   0  0  0  0  0  0  0  0  0  0  0  0
  -25.7030  -15.8420   19.8650 H   0  0  0  0  0  0  0  0  0  0  0  0
  -27.1980  -15.4960   19.1590 H   0  0  0  0  0  0  0  0  0  0  0  0
  -29.4320  -21.6650   18.3430 C   0  0  0  0  0  2  0  0  0  0  0  0
  -28.3020  -22.2750   17.4590 C   0  0  0  0  0  2  0  0  0  0  0  0
  -27.5780  -23.6200   17.8550 C   0  0  0  0  0  2  0  0  0  0  0  0
  -28.3400  -24.7560   18.6200 C   0  0  0  0  0  2  0  0  0  0  0  0
  -28.1540  -26.1470   18.2170 O   0  0  0  0  0  0  0  0  0  0  0  0
  -25.0040  -30.6920   22.8190 C   0  0  0  0  0  0  0  0  0  0  0  0
  -27.0230  -26.8620   18.5950 C   0  0  0  0  0  0  0  0  0  0  0  0
  -23.5340  -29.6500   21.1270 C   0  0  0  0  0  3  0  0  0  0  0  0
  -24.7160  -28.3980   19.2410 C   0  0  0  0  0  0  0  0  0  0  0  0
  -26.0210  -30.0070   20.6410 C   0  0  0  0  0  2  0  0  0  0  0  0
  -25.9680  -28.7800   19.7430 C   0  0  0  0  0  0  0  0  0  0  0  0
  -27.1230  -28.0230   19.4100 C   0  0  0  0  0  3  0  0  0  0  0  0
  -25.7510  -26.5060   18.1020 C   0  0  0  0  0  3  0  0  0  0  0  0
  -24.6060  -27.2630   18.4190 C   0  0  0  0  0  3  0  0  0  0  0  0
  -23.5240  -29.2460   19.6300 C   0  0  0  0  0  2  0  0  0  0  0  0
  -24.8830  -30.1180   21.5860 N   0  0  0  0  0  0  0  0  0  0  0  0
  -24.0180  -30.8600   23.5520 O   0  0  0  0  0  0  0  0  0  0  0  0
  -22.9860  -28.4660   21.9580 C   0  0  0  0  0  0  0  0  0  0  0  0
  -21.6760  -28.2000   21.8260 N   0  0  0  0  0  0  0  0  0  0  0  0
  -23.7340  -27.7960   22.6770 O   0  0  0  0  0  0  0  0  0  0  0  0
  -21.1300  -28.8060   21.2300 H   0  0  0  0  0  0  0  0  0  0  0  0
  -18.4720  -26.5480   22.0310 C   0  0  0  0  0  0  0  0  0  0  0  0
  -20.9560  -27.1050   22.4730 C   0  0  0  0  0  3  0  0  0  0  0  0
  -21.2720  -25.7570   21.7890 C   0  0  0  0  0  2  0  0  0  0  0  0
  -20.2750  -25.3780   20.6930 C   0  0  0  0  0  2  0  0  0  0  0  0
  -18.8600  -25.2920   21.2660 C   0  0  0  0  0  2  0  0  0  0  0  0
  -19.4600  -27.4080   22.5840 C   0  0  0  0  0  0  0  0  0  0  0  0
  -19.0450  -28.5820   23.2530 C   0  0  0  0  0  3  0  0  0  0  0  0
  -17.6810  -28.9010   23.3720 C   0  0  0  0  0  3  0  0  0  0  0  0
  -16.7090  -28.0340   22.8410 C   0  0  0  0  0  3  0  0  0  0  0  0
  -17.1040  -26.8600   22.1760 C   0  0  0  0  0  3  0  0  0  0  0  0
  -26.3850  -31.1780   23.3600 C   0  0  0  0  0  3  0  0  0  0  0  0
  -27.0480  -30.1660   24.3770 C   0  0  1  0  0  0  0  0  0  0  0  0
  -26.1040  -29.7190   25.5160 C   0  0  0  0  0  1  0  0  0  0  0  0
  -27.5330  -28.8940   23.6440 C   0  0  0  0  0  1  0  0  0  0  0  0
  -28.2980  -30.8100   25.0230 C   0  0  0  0  0  1  0  0  0  0  0  0
  -26.1750  -32.4860   23.9950 N   0  0  0  0  0  0  0  0  0  0  0  0
  -26.4720  -33.6630   23.4290 C   0  0  0  0  0  0  0  0  0  0  0  0
  -27.0220  -33.7570   22.3280 O   0  0  0  0  0  0  0  0  0  0  0  0
  -25.6800  -32.4840   24.8750 H   0  0  0  0  0  0  0  0  0  0  0  0
  -24.7970  -35.5310   23.6290 C   0  0  0  0  0  1  0  0  0  0  0  0
  -26.0970  -34.9420   24.2040 C   0  0  0  0  0  3  0  0  0  0  0  0
  -28.3420  -35.5910   24.9580 C   0  0  0  0  0  1  0  0  0  0  0  0
  -27.1580  -35.9710   24.1900 N   0  0  0  0  0  0  0  0  0  0  0  0
  -26.8130  -36.8520   24.5560 H   0  0  0  0  0  0  0  0  0  0  0  0
  2  1  2  0
  3  6  2  0
  3  5  1  0
  4  1  1  0
  4  8  1  0
  5  9  1  0
  5  4  2  0
  6  2  1  0
  7  8  1  0
  8 10  1  0
  9 19  1  0
  9  7  1  0
 11 17  1  0
 11 19  1  0
 12 17  1  0
 13 14  1  0
 13 12  1  0
 15 14  1  0
 15 24  1  0
 15 16  1  0
 17 16  1  0
 18 11  2  0
 19 20  1  0
 21 22  2  0
 22 41  1  0
 23 22  1  0
 23 26  1  0
 24 25  1  0
 24 21  1  0
 25 23  2  0
 26 27  1  0
 27 28  2  0
 29 32  1  0
 29 28  1  0
 30 29  2  0
 31 30  1  0
 31 26  2  0
 32 33  1  0
 33 38  2  0
 33 34  1  0
 34 35  2  0
 35 36  1  0
 36 40  1  0
 37 36  2  0
 38 37  1  0
 39 38  1  0
 41 42  1  0
 42 45  1  0
 42 44  1  0
 43 41  2  0
 46 47  1  0
 46 21  1  0
 48 46  1  0
 49  6  1  0
 50 51  1  0
 50 49  1  0
 51 52  1  0
 53 55  1  0
 53 52  1  0
 54 65  2  0
 55 60  1  0
 56 64  1  0
 56 66  1  0
 57 63  1  0
 57 59  1  0
 58 64  1  0
 59 58  1  0
 60 59  2  0
 61 62  1  0
 61 55  2  0
 62 57  2  0
 63 56  1  0
 64 54  1  0
 66 68  2  0
 67 66  1  0
 69 67  1  0
 70 79  2  0
 70 75  1  0
 71 67  1  0
 71 75  1  0
 72 71  1  0
 73 74  1  0
 73 72  1  0
 74 70  1  0
 75 76  2  0
 76 77  1  0
 78 77  2  0
 79 78  1  0
 80 54  1  0
 80 85  1  0
 80 81  1  0
 81 84  1  1
 81 82  1  0
 83 81  1  0
 85 88  1  0
 86 85  1  0
 86 90  1  0
 87 86  2  0
 90 89  1  0
 92 90  1  0
 92 93  1  0
 92 91  1  0
M  ISO  4  11 100  19 100  52 101  53 101
M  END
>  <TORSDO>  (35) 
F 20

>  <SCORE>  (35) 
-7.802

>  <name>  (35) 
34

>  <ligand_id>  (35) 
34

>  <original_smiles>  (35) 
[H]c1c([H])c([H])c2c(c1[H])C([H])([H])C([H])([H])C([H])([H])C2([H])N([H])C(=O)C1([H])N(C(=O)C([H])(N([H])C(=O)C([H])(N([H])C([H])([H])[H])C([H])([H])[H])C(C([H])([H])[H])(C([H])([H])[H])C([H])([H])[H])C([H])([H])c2c([H])c(OC([H])([H])C([H])([H])C([H])([H])C([H])([H])c3c([H])c([H])c4c(c3[H])C([H])(N([H])C(=O)N3C([H])([H])C([H])([H])C([H])([H])C([H])(n5nc(-c6c([H])c([H])c(Oc7c([H])c([H])c(F)c([H])c7F)c([H])c6[H])c(C(=O)N([H])[H])c5N([H])[H])C3([H])[H])C([H])([H])C4([H])C([H])([H])[H])c([H])c([H])c2C1([H])[H]

>  <smiles>  (35) 
[H]c1c([H])c([H])c2c(c1[H])C([H])([H])C([H])([H])C([H])([H])C2([H])N([H])C(=O)C1([H])N(C(=O)C([H])(N([H])C(=O)C([H])(N([H])C([H])([H])[H])C([H])([H])[H])C(C([H])([H])[H])(C([H])([H])[H])C([H])([H])[H])C([H])([H])c2c([H])c(OC([H])([H])C([H])([H])C([H])([H])C([H])([H])c3c([H])c([H])c4c(c3[H])C([H])(N([H])C(=O)N3C([H])([H])C([H])([H])C([H])([H])C([H])(n5nc(-c6c([H])c([H])c(Oc7c([H])c([H])c(F)c([H])c7F)c([H])c6[H])c(C(=O)N([H])[H])c5N([H])[H])C3([H])[H])C([H])([H])C4([H])C([H])([H])[H])c([H])c([H])c2C1([H])[H]

$$$$
35:0:0
     RDKit          3D

 92100  0  0  1  0  0  0  0  0999 V2000
  -30.8990  -21.6300   21.6580 C   0  0  0  0  0  3  0  0  0  0  0  0
  -30.7310  -22.9890   21.3270 C   0  0  0  0  0  3  0  0  0  0  0  0
  -28.4850  -21.3660   21.7470 C   0  0  0  0  0  3  0  0  0  0  0  0
  -29.7750  -20.8200   21.9080 C   0  0  0  0  0  0  0  0  0  0  0  0
  -29.4420  -23.5610   21.2430 C   0  0  0  0  0  0  0  0  0  0  0  0
  -28.3050  -22.7270   21.4160 C   0  0  0  0  0  0  0  0  0  0  0  0
  -26.8790  -23.2410   21.2860 C   0  0  0  0  0  1  0  0  0  0  0  0
  -29.9320  -19.4000   22.4390 C   0  0  0  0  0  2  0  0  0  0  0  0
  -29.7830  -18.2850   21.3920 C   0  0  0  0  0  2  0  0  0  0  0  0
  -31.0520  -18.0590   20.5570 C   0  0  0  0  0  2  0  0  0  0  0  0
  -30.9330  -16.8950   19.5630 C   0  0  0  0  0  2  0  0  0  0  0  0
  -31.4070  -14.5090   20.0490 C   0  0  0  0  0  0  0  0  0  0  0  0
  -31.0190  -12.2920   19.0880 C   0  0  0  0  0  2  0  0  0  0  0  0
  -30.0730  -12.4850   17.8830 C   0  0  0  0  0  2  0  0  0  0  0  0
  -28.6000  -12.4310   18.3350 C   0  0  0  0  0  2  0  0  0  0  0  0
  -28.3100  -13.3450   19.5560 C   0  0  0  0  0  3  0  0  0  0  0  0
  -29.3760  -13.1520   20.6610 C   0  0  0  0  0  2  0  0  0  0  0  0
  -30.7040  -13.3480   20.0570 N   0  0  0  0  0  0  0  0  0  0  0  0
  -32.5700  -14.6010   19.6500 O   0  0  0  0  0  0  0  0  0  0  0  0
  -30.6510  -15.6030   20.2010 N   0  0  0  0  0  0  0  0  0  0  0  0
  -29.6980  -15.4390   20.4880 H   0  0  0  0  0  0  0  0  0  0  0  0
  -25.9890  -14.0830   20.3890 C   0  0  0  0  0  0  0  0  0  0  0  0
  -24.8770  -13.3700   20.7480 C   0  0  0  0  0  0  0  0  0  0  0  0
  -25.2340  -11.9920   20.6190 C   0  0  0  0  0  0  0  0  0  0  0  0
  -26.9570  -13.1440   20.0680 N   0  0  0  0  0  0  0  0  0  0  0  0
  -26.5070  -11.8780   20.2640 N   0  0  0  0  0  0  0  0  0  0  0  0
  -24.4220  -10.7780   20.7560 C   0  0  0  0  0  0  0  0  0  0  0  0
  -24.7830   -9.7460   21.6500 C   0  0  0  0  0  3  0  0  0  0  0  0
  -23.9760   -8.5940   21.7780 C   0  0  0  0  0  3  0  0  0  0  0  0
  -22.7930   -8.4670   21.0120 C   0  0  0  0  0  0  0  0  0  0  0  0
  -22.4510   -9.4880   20.1060 C   0  0  0  0  0  3  0  0  0  0  0  0
  -23.2580  -10.6310   19.9760 C   0  0  0  0  0  3  0  0  0  0  0  0
  -21.9620   -7.3740   21.0510 O   0  0  0  0  0  0  0  0  0  0  0  0
  -21.8120   -6.6260   22.1900 C   0  0  0  0  0  0  0  0  0  0  0  0
  -21.3560   -7.1940   23.4000 C   0  0  0  0  0  3  0  0  0  0  0  0
  -21.1490   -6.3750   24.5280 C   0  0  0  0  0  3  0  0  0  0  0  0
  -21.3880   -4.9910   24.4470 C   0  0  0  0  0  0  0  0  0  0  0  0
  -21.8350   -4.4220   23.2410 C   0  0  0  0  0  3  0  0  0  0  0  0
  -22.0450   -5.2380   22.1150 C   0  0  0  0  0  0  0  0  0  0  0  0
  -22.4570   -4.6830   20.9500 F   0  0  0  0  0  0  0  0  0  0  0  0
  -21.1810   -4.2020   25.5270 F   0  0  0  0  0  0  0  0  0  0  0  0
  -23.5280  -13.9290   21.0970 C   0  0  0  0  0  0  0  0  0  0  0  0
  -22.7850  -13.2450   21.9590 N   0  0  0  0  0  0  0  0  0  0  0  0
  -23.1450  -15.0080   20.6440 O   0  0  0  0  0  0  0  0  0  0  0  0
  -23.1060  -12.3710   22.3480 H   0  0  0  0  0  0  0  0  0  0  0  0
  -21.8790  -13.6000   22.2350 H   0  0  0  0  0  0  0  0  0  0  0  0
  -26.2490  -15.4470   20.2890 N   0  0  0  0  0  0  0  0  0  0  0  0
  -25.5360  -16.1460   20.4640 H   0  0  0  0  0  0  0  0  0  0  0  0
  -27.1140  -15.8460   19.9440 H   0  0  0  0  0  0  0  0  0  0  0  0
  -29.3300  -25.0750   21.0550 C   0  0  0  0  0  2  0  0  0  0  0  0
  -28.7720  -25.5190   19.6960 C   0  0  0  0  0  2  0  0  0  0  0  0
  -28.6930  -26.9500   19.6850 O   0  0  0  0  0  0  0  0  0  0  0  0
  -24.6090  -31.6910   23.0590 C   0  0  0  0  0  0  0  0  0  0  0  0
  -27.4590  -27.5610   19.7470 C   0  0  0  0  0  0  0  0  0  0  0  0
  -23.4650  -30.3170   21.3510 C   0  0  0  0  0  3  0  0  0  0  0  0
  -24.9820  -28.9270   19.8500 C   0  0  0  0  0  0  0  0  0  0  0  0
  -25.9660  -30.8140   21.1630 C   0  0  0  0  0  2  0  0  0  0  0  0
  -26.1150  -29.4820   20.4570 C   0  0  0  0  0  0  0  0  0  0  0  0
  -27.3540  -28.8080   20.4020 C   0  0  0  0  0  3  0  0  0  0  0  0
  -26.3070  -27.0200   19.1270 C   0  0  0  0  0  3  0  0  0  0  0  0
  -25.0730  -27.6930   19.1850 C   0  0  0  0  0  3  0  0  0  0  0  0
  -23.6980  -29.7190   19.9390 C   0  0  0  0  0  2  0  0  0  0  0  0
  -24.6980  -30.9530   21.9180 N   0  0  0  0  0  0  0  0  0  0  0  0
  -23.5200  -31.8810   23.6160 O   0  0  0  0  0  0  0  0  0  0  0  0
  -22.8720  -29.2160   22.2600 C   0  0  0  0  0  0  0  0  0  0  0  0
  -21.5490  -29.0060   22.1600 N   0  0  0  0  0  0  0  0  0  0  0  0
  -23.5950  -28.5600   23.0130 O   0  0  0  0  0  0  0  0  0  0  0  0
  -21.0240  -29.5920   21.5280 H   0  0  0  0  0  0  0  0  0  0  0  0
  -18.2210  -27.7130   22.7010 C   0  0  0  0  0  0  0  0  0  0  0  0
  -20.7820  -27.9980   22.8890 C   0  0  0  0  0  3  0  0  0  0  0  0
  -20.8840  -26.6160   22.2040 C   0  0  0  0  0  2  0  0  0  0  0  0
  -19.7470  -26.3500   21.2120 C   0  0  0  0  0  2  0  0  0  0  0  0
  -18.3910  -26.4200   21.9200 C   0  0  0  0  0  2  0  0  0  0  0  0
  -19.3430  -28.4610   23.1420 C   0  0  0  0  0  0  0  0  0  0  0  0
  -19.1290  -29.6740   23.8340 C   0  0  0  0  0  3  0  0  0  0  0  0
  -17.8250  -30.1380   24.0880 C   0  0  0  0  0  3  0  0  0  0  0  0
  -16.7170  -29.3860   23.6610 C   0  0  0  0  0  3  0  0  0  0  0  0
  -16.9160  -28.1740   22.9740 C   0  0  0  0  0  3  0  0  0  0  0  0
  -25.8670  -32.3510   23.7070 C   0  0  0  0  0  3  0  0  0  0  0  0
  -25.5070  -33.7290   24.0690 N   0  0  0  0  0  0  0  0  0  0  0  0
  -25.8150  -34.8110   23.3430 C   0  0  0  0  0  0  0  0  0  0  0  0
  -26.5040  -34.7570   22.3200 O   0  0  0  0  0  0  0  0  0  0  0  0
  -24.8930  -33.8420   24.8630 H   0  0  0  0  0  0  0  0  0  0  0  0
  -24.0250  -36.5450   23.0090 C   0  0  0  0  0  1  0  0  0  0  0  0
  -25.2710  -36.1690   23.8270 C   0  0  0  0  0  3  0  0  0  0  0  0
  -27.3590  -37.1100   24.7090 C   0  0  0  0  0  1  0  0  0  0  0  0
  -26.2660  -37.2600   23.7530 N   0  0  0  0  0  0  0  0  0  0  0  0
  -25.8250  -38.1610   23.9140 H   0  0  0  0  0  0  0  0  0  0  0  0
  -26.4050  -31.5660   24.9660 C   0  0  1  0  0  0  0  0  0  0  0  0
  -25.3180  -31.2680   26.0230 C   0  0  0  0  0  1  0  0  0  0  0  0
  -27.0330  -30.2180   24.5380 C   0  0  0  0  0  1  0  0  0  0  0  0
  -27.5310  -32.3790   25.6490 C   0  0  0  0  0  1  0  0  0  0  0  0
  1  4  1  0
  2  1  2  0
  3  4  2  0
  4  8  1  0
  5  2  1  0
  5  6  2  0
  6  3  1  0
  7  6  1  0
  9  8  1  0
 10  9  1  0
 11 20  1  0
 11 10  1  0
 12 18  1  0
 12 20  1  0
 13 18  1  0
 14 15  1  0
 14 13  1  0
 16 15  1  0
 16 25  1  0
 16 17  1  0
 18 17  1  0
 19 12  2  0
 20 21  1  0
 22 23  2  0
 23 42  1  0
 24 23  1  0
 24 27  1  0
 25 26  1  0
 25 22  1  0
 26 24  2  0
 27 28  1  0
 28 29  2  0
 30 33  1  0
 30 29  1  0
 31 30  2  0
 32 31  1  0
 32 27  2  0
 33 34  1  0
 34 35  1  0
 35 36  2  0
 37 36  1  0
 37 41  1  0
 38 37  2  0
 39 34  2  0
 39 38  1  0
 40 39  1  0
 42 43  1  0
 43 46  1  0
 43 45  1  0
 44 42  2  0
 47 22  1  0
 47 48  1  0
 49 47  1  0
 50  5  1  0
 51 50  1  0
 52 51  1  0
 52 54  1  0
 53 64  2  0
 54 59  1  0
 55 63  1  0
 55 65  1  0
 56 62  1  0
 56 58  1  0
 57 63  1  0
 58 57  1  0
 59 58  2  0
 60 61  1  0
 60 54  2  0
 61 56  2  0
 62 55  1  0
 63 53  1  0
 65 67  2  0
 66 65  1  0
 68 66  1  0
 69 78  2  0
 69 74  1  0
 70 66  1  0
 70 74  1  0
 71 70  1  0
 72 73  1  0
 72 71  1  0
 73 69  1  0
 74 75  2  0
 75 76  1  0
 77 76  2  0
 78 77  1  0
 79 53  1  0
 79 80  1  0
 79 89  1  0
 80 83  1  0
 81 85  1  0
 81 80  1  0
 82 81  2  0
 85 84  1  0
 87 85  1  0
 87 88  1  0
 87 86  1  0
 89 92  1  1
 89 90  1  0
 91 89  1  0
M  ISO  4  12 100  20 100  51 101  52 101
M  END
>  <TORSDO>  (36) 
F 22

>  <SCORE>  (36) 
-11.097

>  <name>  (36) 
35

>  <ligand_id>  (36) 
35

>  <original_smiles>  (36) 
[H]c1c([H])c([H])c2c(c1[H])C([H])([H])C([H])([H])C([H])([H])C2([H])N([H])C(=O)C1([H])N(C(=O)C([H])(N([H])C(=O)C([H])(N([H])C([H])([H])[H])C([H])([H])[H])C(C([H])([H])[H])(C([H])([H])[H])C([H])([H])[H])C([H])([H])c2c([H])c(OC([H])([H])C([H])([H])c3c([H])c([H])c(C([H])([H])C([H])([H])C([H])([H])C([H])([H])N([H])C(=O)N4C([H])([H])C([H])([H])C([H])([H])C([H])(n5nc(-c6c([H])c([H])c(Oc7c([H])c([H])c(F)c([H])c7F)c([H])c6[H])c(C(=O)N([H])[H])c5N([H])[H])C4([H])[H])c([H])c3C([H])([H])[H])c([H])c([H])c2C1([H])[H]

>  <smiles>  (36) 
[H]c1c([H])c([H])c2c(c1[H])C([H])([H])C([H])([H])C([H])([H])C2([H])N([H])C(=O)C1([H])N(C(=O)C([H])(N([H])C(=O)C([H])(N([H])C([H])([H])[H])C([H])([H])[H])C(C([H])([H])[H])(C([H])([H])[H])C([H])([H])[H])C([H])([H])c2c([H])c(OC([H])([H])C([H])([H])c3c([H])c([H])c(C([H])([H])C([H])([H])C([H])([H])C([H])([H])N([H])C(=O)N4C([H])([H])C([H])([H])C([H])([H])C([H])(n5nc(-c6c([H])c([H])c(Oc7c([H])c([H])c(F)c([H])c7F)c([H])c6[H])c(C(=O)N([H])[H])c5N([H])[H])C4([H])[H])c([H])c3C([H])([H])[H])c([H])c([H])c2C1([H])[H]

$$$$
36:0:0
     RDKit          3D

 95104  0  0  1  0  0  0  0  0999 V2000
  -28.9360  -20.8750   21.6490 C   0  0  0  0  0  3  0  0  0  0  0  0
  -29.1040  -22.2690   21.6660 C   0  0  0  0  0  3  0  0  0  0  0  0
  -30.6820  -20.6550   23.3190 C   0  0  0  0  0  3  0  0  0  0  0  0
  -29.6910  -20.0610   22.5100 C   0  0  0  0  0  0  0  0  0  0  0  0
  -30.0590  -22.8870   22.5130 C   0  0  0  0  0  0  0  0  0  0  0  0
  -30.8710  -22.0570   23.3250 C   0  0  0  0  0  0  0  0  0  0  0  0
  -31.9110  -22.6570   24.2560 C   0  0  0  0  0  1  0  0  0  0  0  0
  -29.3560  -18.5770   22.6250 C   0  0  0  0  0  2  0  0  0  0  0  0
  -31.5860  -14.2320   19.5930 C   0  0  0  0  0  0  0  0  0  0  0  0
  -31.0290  -12.1350   18.4210 C   0  0  0  0  0  2  0  0  0  0  0  0
  -29.9860  -12.3980   17.3180 C   0  0  0  0  0  2  0  0  0  0  0  0
  -28.5540  -12.3340   17.8850 C   0  0  0  0  0  2  0  0  0  0  0  0
  -28.3870  -13.1700   19.1820 C   0  0  0  0  0  3  0  0  0  0  0  0
  -29.5250  -12.8770   20.1790 C   0  0  0  0  0  2  0  0  0  0  0  0
  -30.8110  -13.1150   19.4970 N   0  0  0  0  0  0  0  0  0  0  0  0
  -32.5930  -14.4020   18.8940 O   0  0  0  0  0  0  0  0  0  0  0  0
  -30.1850  -17.5750   20.3960 C   0  0  0  0  0  2  0  0  0  0  0  0
  -30.2230  -16.1830   22.4680 C   0  0  0  0  0  2  0  0  0  0  0  0
  -31.2070  -16.6120   19.7720 C   0  0  0  0  0  2  0  0  0  0  0  0
  -31.2440  -15.2440   21.7900 C   0  0  0  0  0  2  0  0  0  0  0  0
  -30.3470  -17.6210   21.9270 C   0  0  0  0  0  3  0  0  0  0  0  0
  -31.0840  -15.2540   20.3270 N   0  0  0  0  0  0  0  0  0  0  0  0
  -26.1080  -13.8840   20.1460 C   0  0  0  0  0  0  0  0  0  0  0  0
  -25.0460  -13.1610   20.6150 C   0  0  0  0  0  0  0  0  0  0  0  0
  -25.4280  -11.7870   20.5150 C   0  0  0  0  0  0  0  0  0  0  0  0
  -27.0760  -12.9560   19.7930 N   0  0  0  0  0  0  0  0  0  0  0  0
  -26.6740  -11.6880   20.0680 N   0  0  0  0  0  0  0  0  0  0  0  0
  -24.6610  -10.5610   20.7630 C   0  0  0  0  0  0  0  0  0  0  0  0
  -25.0530   -9.6310   21.7520 C   0  0  0  0  0  3  0  0  0  0  0  0
  -24.2880   -8.4690   21.9860 C   0  0  0  0  0  3  0  0  0  0  0  0
  -23.1160   -8.2260   21.2320 C   0  0  0  0  0  0  0  0  0  0  0  0
  -22.7420   -9.1430   20.2320 C   0  0  0  0  0  3  0  0  0  0  0  0
  -23.5070  -10.2970   19.9970 C   0  0  0  0  0  3  0  0  0  0  0  0
  -22.3250   -7.1110   21.3700 O   0  0  0  0  0  0  0  0  0  0  0  0
  -22.1020   -6.5340   22.5960 C   0  0  0  0  0  0  0  0  0  0  0  0
  -21.5730   -7.2690   23.6780 C   0  0  0  0  0  3  0  0  0  0  0  0
  -21.2930   -6.6210   24.9000 C   0  0  0  0  0  3  0  0  0  0  0  0
  -21.5330   -5.2400   25.0350 C   0  0  0  0  0  0  0  0  0  0  0  0
  -22.0530   -4.5060   23.9550 C   0  0  0  0  0  3  0  0  0  0  0  0
  -22.3350   -5.1530   22.7380 C   0  0  0  0  0  0  0  0  0  0  0  0
  -22.8170   -4.4360   21.6940 F   0  0  0  0  0  0  0  0  0  0  0  0
  -21.2570   -4.6160   26.2040 F   0  0  0  0  0  0  0  0  0  0  0  0
  -23.7120  -13.7020   21.0430 C   0  0  0  0  0  0  0  0  0  0  0  0
  -23.0750  -13.0650   22.0190 N   0  0  0  0  0  0  0  0  0  0  0  0
  -23.2500  -14.7280   20.5440 O   0  0  0  0  0  0  0  0  0  0  0  0
  -23.4640  -12.2380   22.4450 H   0  0  0  0  0  0  0  0  0  0  0  0
  -22.1840  -13.4120   22.3460 H   0  0  0  0  0  0  0  0  0  0  0  0
  -26.3260  -15.2480   19.9760 N   0  0  0  0  0  0  0  0  0  0  0  0
  -25.6130  -15.9390   20.1790 H   0  0  0  0  0  0  0  0  0  0  0  0
  -27.1710  -15.6520   19.5910 H   0  0  0  0  0  0  0  0  0  0  0  0
  -30.1880  -24.4150   22.6150 C   0  0  0  0  0  2  0  0  0  0  0  0
  -29.3010  -25.2230   21.6520 C   0  0  0  0  0  2  0  0  0  0  0  0
  -29.7870  -25.2080   20.1890 C   0  0  0  0  0  2  0  0  0  0  0  0
  -28.6310  -25.5250   19.2300 C   0  0  0  0  0  2  0  0  0  0  0  0
  -28.4270  -26.9240   19.3090 O   0  0  0  0  0  0  0  0  0  0  0  0
  -24.5630  -31.5330   23.0540 C   0  0  0  0  0  0  0  0  0  0  0  0
  -27.1740  -27.4540   19.4990 C   0  0  0  0  0  0  0  0  0  0  0  0
  -23.3020  -30.2140   21.3780 C   0  0  0  0  0  3  0  0  0  0  0  0
  -24.7180  -28.8230   19.7770 C   0  0  0  0  0  0  0  0  0  0  0  0
  -25.7940  -30.6780   21.0650 C   0  0  0  0  0  2  0  0  0  0  0  0
  -25.8850  -29.3570   20.3320 C   0  0  0  0  0  0  0  0  0  0  0  0
  -27.1110  -28.6780   20.1940 C   0  0  0  0  0  3  0  0  0  0  0  0
  -25.9880  -26.9070   18.9600 C   0  0  0  0  0  3  0  0  0  0  0  0
  -24.7630  -27.5920   19.0960 C   0  0  0  0  0  3  0  0  0  0  0  0
  -23.4530  -29.6370   19.9440 C   0  0  0  0  0  2  0  0  0  0  0  0
  -24.5730  -30.8180   21.8920 N   0  0  0  0  0  0  0  0  0  0  0  0
  -23.5080  -31.7300   23.6720 O   0  0  0  0  0  0  0  0  0  0  0  0
  -22.7390  -29.1060   22.2970 C   0  0  0  0  0  0  0  0  0  0  0  0
  -21.4250  -28.8540   22.1870 N   0  0  0  0  0  0  0  0  0  0  0  0
  -23.4780  -28.4820   23.0620 O   0  0  0  0  0  0  0  0  0  0  0  0
  -20.8890  -29.4200   21.5450 H   0  0  0  0  0  0  0  0  0  0  0  0
  -18.1630  -27.3550   22.5780 C   0  0  0  0  0  0  0  0  0  0  0  0
  -20.6800  -27.8300   22.9190 C   0  0  0  0  0  3  0  0  0  0  0  0
  -20.9230  -26.4260   22.3180 C   0  0  0  0  0  2  0  0  0  0  0  0
  -19.8790  -26.0310   21.2700 C   0  0  0  0  0  2  0  0  0  0  0  0
  -18.4760  -26.0400   21.8840 C   0  0  0  0  0  2  0  0  0  0  0  0
  -19.1990  -28.2030   23.0500 C   0  0  0  0  0  0  0  0  0  0  0  0
  -18.8590  -29.4300   23.6590 C   0  0  0  0  0  3  0  0  0  0  0  0
  -17.5110  -29.8120   23.8020 C   0  0  0  0  0  3  0  0  0  0  0  0
  -16.4880  -28.9580   23.3480 C   0  0  0  0  0  3  0  0  0  0  0  0
  -16.8140  -27.7330   22.7390 C   0  0  0  0  0  3  0  0  0  0  0  0
  -25.8690  -32.1530   23.6460 C   0  0  0  0  0  3  0  0  0  0  0  0
  -25.5650  -33.5350   24.0360 N   0  0  0  0  0  0  0  0  0  0  0  0
  -25.8880  -34.6140   23.3120 C   0  0  0  0  0  0  0  0  0  0  0  0
  -26.5440  -34.5520   22.2680 O   0  0  0  0  0  0  0  0  0  0  0  0
  -24.9780  -33.6590   24.8470 H   0  0  0  0  0  0  0  0  0  0  0  0
  -24.1630  -36.4220   23.0300 C   0  0  0  0  0  1  0  0  0  0  0  0
  -25.4020  -35.9830   23.8250 C   0  0  0  0  0  3  0  0  0  0  0  0
  -27.5360  -36.8290   24.6980 C   0  0  0  0  0  1  0  0  0  0  0  0
  -26.4360  -37.0390   23.7590 N   0  0  0  0  0  0  0  0  0  0  0  0
  -26.0310  -37.9530   23.9460 H   0  0  0  0  0  0  0  0  0  0  0  0
  -26.4460  -31.3420   24.8720 C   0  0  1  0  0  0  0  0  0  0  0  0
  -25.4020  -31.0650   25.9780 C   0  0  0  0  0  1  0  0  0  0  0  0
  -27.0190  -29.9840   24.4040 C   0  0  0  0  0  1  0  0  0  0  0  0
  -27.6200  -32.1210   25.5090 C   0  0  0  0  0  1  0  0  0  0  0  0
  1  2  2  0
  1  4  1  0
  2  5  1  0
  3  6  1  0
  4  8  1  0
  4  3  2  0
  5 51  1  0
  5  6  2  0
  6  7  1  0
  9 22  1  0
 10 15  1  0
 11 12  1  0
 11 10  1  0
 13 12  1  0
 13 26  1  0
 13 14  1  0
 15  9  1  0
 15 14  1  0
 16  9  2  0
 17 21  1  0
 19 22  1  0
 19 17  1  0
 20 18  1  0
 21 18  1  0
 21  8  1  0
 22 20  1  0
 23 24  2  0
 24 43  1  0
 25 24  1  0
 25 28  1  0
 26 27  1  0
 26 23  1  0
 27 25  2  0
 28 29  1  0
 29 30  2  0
 31 34  1  0
 31 30  1  0
 32 31  2  0
 33 32  1  0
 33 28  2  0
 34 35  1  0
 35 40  2  0
 35 36  1  0
 36 37  2  0
 37 38  1  0
 38 42  1  0
 39 38  2  0
 40 39  1  0
 41 40  1  0
 43 44  1  0
 44 47  1  0
 44 46  1  0
 45 43  2  0
 48 23  1  0
 48 49  1  0
 50 48  1  0
 52 51  1  0
 53 52  1  0
 54 55  1  0
 54 53  1  0
 55 57  1  0
 56 67  2  0
 57 62  1  0
 58 66  1  0
 58 68  1  0
 59 65  1  0
 59 61  1  0
 60 66  1  0
 61 60  1  0
 62 61  2  0
 63 64  1  0
 63 57  2  0
 64 59  2  0
 65 58  1  0
 66 56  1  0
 68 70  2  0
 69 68  1  0
 71 69  1  0
 72 81  2  0
 72 77  1  0
 73 69  1  0
 73 77  1  0
 74 73  1  0
 75 76  1  0
 75 74  1  0
 76 72  1  0
 77 78  2  0
 78 79  1  0
 80 79  2  0
 81 80  1  0
 82 56  1  0
 82 83  1  0
 82 92  1  0
 83 86  1  0
 84 88  1  0
 84 83  1  0
 85 84  2  0
 88 87  1  0
 90 88  1  0
 90 91  1  0
 90 89  1  0
 92 95  1  1
 92 93  1  0
 94 92  1  0
M  ISO  4   9 100  22 100  54 101  55 101
M  END
>  <TORSDO>  (37) 
F 21

>  <SCORE>  (37) 
-5.646

>  <name>  (37) 
36

>  <ligand_id>  (37) 
36

>  <original_smiles>  (37) 
[H]c1c([H])c([H])c2c(c1[H])C([H])([H])C([H])([H])C([H])([H])C2([H])N([H])C(=O)C1([H])N(C(=O)C([H])(N([H])C(=O)C([H])(N([H])C([H])([H])[H])C([H])([H])[H])C(C([H])([H])[H])(C([H])([H])[H])C([H])([H])[H])C([H])([H])c2c([H])c(OC([H])([H])C([H])([H])C([H])([H])C([H])([H])c3c([H])c([H])c(C([H])([H])C4([H])C([H])([H])C([H])([H])N(C(=O)N5C([H])([H])C([H])([H])C([H])([H])C([H])(n6nc(-c7c([H])c([H])c(Oc8c([H])c([H])c(F)c([H])c8F)c([H])c7[H])c(C(=O)N([H])[H])c6N([H])[H])C5([H])[H])C([H])([H])C4([H])[H])c([H])c3C([H])([H])[H])c([H])c([H])c2C1([H])[H]

>  <smiles>  (37) 
[H]c1c([H])c([H])c2c(c1[H])C([H])([H])C([H])([H])C([H])([H])C2([H])N([H])C(=O)C1([H])N(C(=O)C([H])(N([H])C(=O)C([H])(N([H])C([H])([H])[H])C([H])([H])[H])C(C([H])([H])[H])(C([H])([H])[H])C([H])([H])[H])C([H])([H])c2c([H])c(OC([H])([H])C([H])([H])C([H])([H])C([H])([H])c3c([H])c([H])c(C([H])([H])C4([H])C([H])([H])C([H])([H])N(C(=O)N5C([H])([H])C([H])([H])C([H])([H])C([H])(n6nc(-c7c([H])c([H])c(Oc8c([H])c([H])c(F)c([H])c8F)c([H])c7[H])c(C(=O)N([H])[H])c6N([H])[H])C5([H])[H])C([H])([H])C4([H])[H])c([H])c3C([H])([H])[H])c([H])c([H])c2C1([H])[H]

$$$$
37:0:0
     RDKit          3D

 94101  0  0  1  0  0  0  0  0999 V2000
  -25.3710  -22.5430   19.2270 C   0  0  0  0  0  2  0  0  0  0  0  0
  -25.8230  -22.6490   17.7270 C   0  0  0  0  0  2  0  0  0  0  0  0
  -27.1290  -21.9110   17.3200 C   0  0  0  0  0  2  0  0  0  0  0  0
  -27.4590  -20.7010   18.2110 C   0  0  0  0  0  2  0  0  0  0  0  0
  -28.8640  -20.1240   18.0780 C   0  0  0  0  0  2  0  0  0  0  0  0
  -29.1230  -19.2570   19.3160 C   0  0  0  0  0  2  0  0  0  0  0  0
  -30.5370  -18.7030   19.4890 C   0  0  0  0  0  2  0  0  0  0  0  0
  -30.5160  -17.7340   20.6740 C   0  0  0  0  0  2  0  0  0  0  0  0
  -31.8550  -17.0440   20.9460 C   0  0  0  0  0  2  0  0  0  0  0  0
  -31.7010  -15.7900   21.8420 C   0  0  0  0  0  2  0  0  0  0  0  0
  -30.8320  -14.1830   20.1370 C   0  0  0  0  0  0  0  0  0  0  0  0
  -30.2660  -12.1270   18.9150 C   0  0  0  0  0  2  0  0  0  0  0  0
  -29.2630  -12.3750   17.7790 C   0  0  0  0  0  2  0  0  0  0  0  0
  -27.8300  -12.2350   18.3130 C   0  0  0  0  0  2  0  0  0  0  0  0
  -27.5890  -13.1020   19.5750 C   0  0  0  0  0  3  0  0  0  0  0  0
  -28.7080  -12.9080   20.6280 C   0  0  0  0  0  2  0  0  0  0  0  0
  -30.0200  -13.1080   19.9820 N   0  0  0  0  0  0  0  0  0  0  0  0
  -31.7070  -14.4830   19.3190 O   0  0  0  0  0  0  0  0  0  0  0  0
  -30.7590  -14.7890   21.3260 N   0  0  0  0  0  0  0  0  0  0  0  0
  -30.0490  -14.4480   21.9580 H   0  0  0  0  0  0  0  0  0  0  0  0
  -25.2530  -13.7370   20.4550 C   0  0  0  0  0  0  0  0  0  0  0  0
  -24.1950  -12.9730   20.8820 C   0  0  0  0  0  0  0  0  0  0  0  0
  -24.6280  -11.6160   20.7890 C   0  0  0  0  0  0  0  0  0  0  0  0
  -26.2650  -12.8440   20.1410 N   0  0  0  0  0  0  0  0  0  0  0  0
  -25.8950  -11.5630   20.3960 N   0  0  0  0  0  0  0  0  0  0  0  0
  -23.8950  -10.3630   21.0030 C   0  0  0  0  0  0  0  0  0  0  0  0
  -24.3510   -9.3830   21.9140 C   0  0  0  0  0  3  0  0  0  0  0  0
  -23.6160   -8.1930   22.1120 C   0  0  0  0  0  3  0  0  0  0  0  0
  -22.4100   -7.9750   21.4030 C   0  0  0  0  0  0  0  0  0  0  0  0
  -21.9780   -8.9420   20.4760 C   0  0  0  0  0  3  0  0  0  0  0  0
  -22.7130  -10.1220   20.2770 C   0  0  0  0  0  3  0  0  0  0  0  0
  -21.6450   -6.8400   21.5110 O   0  0  0  0  0  0  0  0  0  0  0  0
  -21.6160   -6.1010   22.6680 C   0  0  0  0  0  0  0  0  0  0  0  0
  -21.2110   -6.6620   23.8990 C   0  0  0  0  0  3  0  0  0  0  0  0
  -21.1280   -5.8490   25.0490 C   0  0  0  0  0  3  0  0  0  0  0  0
  -21.4400   -4.4790   24.9660 C   0  0  0  0  0  0  0  0  0  0  0  0
  -21.8370   -3.9190   23.7400 C   0  0  0  0  0  3  0  0  0  0  0  0
  -21.9230   -4.7280   22.5940 C   0  0  0  0  0  0  0  0  0  0  0  0
  -22.2860   -4.1780   21.4090 F   0  0  0  0  0  0  0  0  0  0  0  0
  -21.3530   -3.6970   26.0670 F   0  0  0  0  0  0  0  0  0  0  0  0
  -22.8310  -13.4680   21.2630 C   0  0  0  0  0  0  0  0  0  0  0  0
  -22.1500  -12.7570   22.1530 N   0  0  0  0  0  0  0  0  0  0  0  0
  -22.3790  -14.5160   20.8030 O   0  0  0  0  0  0  0  0  0  0  0  0
  -22.5290  -11.9040   22.5350 H   0  0  0  0  0  0  0  0  0  0  0  0
  -21.2400  -13.0710   22.4580 H   0  0  0  0  0  0  0  0  0  0  0  0
  -25.4310  -15.1070   20.2960 N   0  0  0  0  0  0  0  0  0  0  0  0
  -24.6920  -15.7800   20.4730 H   0  0  0  0  0  0  0  0  0  0  0  0
  -26.2790  -15.5320   19.9360 H   0  0  0  0  0  0  0  0  0  0  0  0
  -25.8190  -23.6780   20.1800 C   0  0  0  0  0  2  0  0  0  0  0  0
  -28.2520  -24.4700   20.3370 C   0  0  0  0  0  3  0  0  0  0  0  0
  -27.2490  -23.6390   20.7170 C   0  0  0  0  0  0  0  0  0  0  0  0
  -27.4620  -22.5930   21.8020 C   0  0  0  0  0  1  0  0  0  0  0  0
  -28.2440  -25.5240   19.2310 C   0  0  0  0  0  2  0  0  0  0  0  0
  -28.2610  -26.8940   19.7030 O   0  0  0  0  0  0  0  0  0  0  0  0
  -24.5200  -31.9400   23.1070 C   0  0  0  0  0  0  0  0  0  0  0  0
  -27.0830  -27.6230   19.7650 C   0  0  0  0  0  0  0  0  0  0  0  0
  -23.2730  -30.6070   21.4480 C   0  0  0  0  0  3  0  0  0  0  0  0
  -24.6890  -29.1340   19.9270 C   0  0  0  0  0  0  0  0  0  0  0  0
  -25.7910  -30.9770   21.1830 C   0  0  0  0  0  2  0  0  0  0  0  0
  -25.8620  -29.6200   20.5150 C   0  0  0  0  0  0  0  0  0  0  0  0
  -27.0530  -28.8530   20.4660 C   0  0  0  0  0  3  0  0  0  0  0  0
  -25.9060  -27.2070   19.1050 C   0  0  0  0  0  3  0  0  0  0  0  0
  -24.7070  -27.9170   19.2350 C   0  0  0  0  0  3  0  0  0  0  0  0
  -23.4360  -29.9750   20.0420 C   0  0  0  0  0  2  0  0  0  0  0  0
  -24.5520  -31.1810   21.9750 N   0  0  0  0  0  0  0  0  0  0  0  0
  -23.4520  -32.1880   23.6880 O   0  0  0  0  0  0  0  0  0  0  0  0
  -22.6510  -29.5430   22.3870 C   0  0  0  0  0  0  0  0  0  0  0  0
  -21.3230  -29.3620   22.3010 N   0  0  0  0  0  0  0  0  0  0  0  0
  -23.3600  -28.8770   23.1430 O   0  0  0  0  0  0  0  0  0  0  0  0
  -20.7980  -29.9480   21.6690 H   0  0  0  0  0  0  0  0  0  0  0  0
  -17.9740  -28.1410   22.8580 C   0  0  0  0  0  0  0  0  0  0  0  0
  -20.5400  -28.3920   23.0670 C   0  0  0  0  0  3  0  0  0  0  0  0
  -20.6270  -26.9850   22.4260 C   0  0  0  0  0  2  0  0  0  0  0  0
  -19.4920  -26.6940   21.4400 C   0  0  0  0  0  2  0  0  0  0  0  0
  -18.1270  -26.8170   22.1230 C   0  0  0  0  0  2  0  0  0  0  0  0
  -19.1060  -28.8890   23.2850 C   0  0  0  0  0  0  0  0  0  0  0  0
  -18.8970  -30.1350   23.9190 C   0  0  0  0  0  3  0  0  0  0  0  0
  -17.5950  -30.6250   24.1390 C   0  0  0  0  0  3  0  0  0  0  0  0
  -16.4810  -29.8660   23.7330 C   0  0  0  0  0  3  0  0  0  0  0  0
  -16.6730  -28.6260   23.0960 C   0  0  0  0  0  3  0  0  0  0  0  0
  -25.8160  -32.5590   23.7110 C   0  0  0  0  0  3  0  0  0  0  0  0
  -26.3790  -31.7460   24.9410 C   0  0  1  0  0  0  0  0  0  0  0  0
  -25.3260  -31.4570   26.0380 C   0  0  0  0  0  1  0  0  0  0  0  0
  -26.9650  -30.3930   24.4640 C   0  0  0  0  0  1  0  0  0  0  0  0
  -27.5430  -32.5350   25.5880 C   0  0  0  0  0  1  0  0  0  0  0  0
  -25.5130  -33.9450   24.0990 N   0  0  0  0  0  0  0  0  0  0  0  0
  -25.8110  -35.0250   23.3590 C   0  0  0  0  0  0  0  0  0  0  0  0
  -26.4470  -34.9640   22.3020 O   0  0  0  0  0  0  0  0  0  0  0  0
  -24.9820  -34.0610   24.9480 H   0  0  0  0  0  0  0  0  0  0  0  0
  -24.0650  -36.8240   23.1250 C   0  0  0  0  0  1  0  0  0  0  0  0
  -25.3300  -36.3930   23.8810 C   0  0  0  0  0  3  0  0  0  0  0  0
  -27.4850  -37.2660   24.6810 C   0  0  0  0  0  1  0  0  0  0  0  0
  -26.3520  -37.4570   23.7770 N   0  0  0  0  0  0  0  0  0  0  0  0
  -25.9460  -38.3680   23.9650 H   0  0  0  0  0  0  0  0  0  0  0  0
  1 49  1  0
  2  1  1  0
  3  2  1  0
  3  4  1  0
  5  4  1  0
  5  6  1  0
  6  7  1  0
  7  8  1  0
  8  9  1  0
  9 10  1  0
 11 19  1  0
 12 17  1  0
 13 14  1  0
 13 12  1  0
 15 14  1  0
 15 24  1  0
 15 16  1  0
 17 11  1  0
 17 16  1  0
 18 11  2  0
 19 10  1  0
 19 20  1  0
 21 22  2  0
 22 41  1  0
 23 22  1  0
 23 26  1  0
 24 25  1  0
 24 21  1  0
 25 23  2  0
 26 27  1  0
 27 28  2  0
 29 32  1  0
 29 28  1  0
 30 29  2  0
 31 30  1  0
 31 26  2  0
 32 33  1  0
 33 34  1  0
 34 35  2  0
 36 35  1  0
 36 40  1  0
 37 36  2  0
 38 33  2  0
 38 37  1  0
 39 38  1  0
 41 42  1  0
 42 45  1  0
 42 44  1  0
 43 41  2  0
 46 21  1  0
 46 47  1  0
 48 46  1  0
 49 51  1  0
 50 51  2  0
 51 52  1  0
 53 54  1  0
 53 50  1  0
 54 56  1  0
 55 66  2  0
 56 61  1  0
 57 65  1  0
 57 67  1  0
 58 64  1  0
 58 60  1  0
 59 65  1  0
 60 59  1  0
 61 60  2  0
 62 63  1  0
 62 56  2  0
 63 58  2  0
 64 57  1  0
 65 55  1  0
 67 69  2  0
 68 67  1  0
 70 68  1  0
 71 80  2  0
 71 76  1  0
 72 68  1  0
 72 76  1  0
 73 72  1  0
 74 75  1  0
 74 73  1  0
 75 71  1  0
 76 77  2  0
 77 78  1  0
 79 78  2  0
 80 79  1  0
 81 55  1  0
 81 86  1  0
 81 82  1  0
 82 85  1  1
 82 83  1  0
 84 82  1  0
 86 89  1  0
 87 91  1  0
 87 86  1  0
 88 87  2  0
 91 90  1  0
 93 91  1  0
 93 94  1  0
 93 92  1  0
M  ISO  4  11 100  19 100  53 101  54 101
M  END
>  <TORSDO>  (38) 
F 28

>  <SCORE>  (38) 
-10.307

>  <name>  (38) 
37

>  <ligand_id>  (38) 
37

>  <original_smiles>  (38) 
[H]C(=C(C([H])([H])[H])C([H])([H])C([H])([H])C([H])([H])C([H])([H])C([H])([H])C([H])([H])C([H])([H])C([H])([H])C([H])([H])C([H])([H])C([H])([H])N([H])C(=O)N1C([H])([H])C([H])([H])C([H])([H])C([H])(n2nc(-c3c([H])c([H])c(Oc4c([H])c([H])c(F)c([H])c4F)c([H])c3[H])c(C(=O)N([H])[H])c2N([H])[H])C1([H])[H])C([H])([H])Oc1c([H])c([H])c2c(c1[H])C([H])([H])N(C(=O)C([H])(N([H])C(=O)C([H])(N([H])C([H])([H])[H])C([H])([H])[H])C(C([H])([H])[H])(C([H])([H])[H])C([H])([H])[H])C([H])(C(=O)N([H])C1([H])c3c([H])c([H])c([H])c([H])c3C([H])([H])C([H])([H])C1([H])[H])C2([H])[H]

>  <smiles>  (38) 
[H]C(=C(C([H])([H])[H])C([H])([H])C([H])([H])C([H])([H])C([H])([H])C([H])([H])C([H])([H])C([H])([H])C([H])([H])C([H])([H])C([H])([H])C([H])([H])N([H])C(=O)N1C([H])([H])C([H])([H])C([H])([H])C([H])(n2nc(-c3c([H])c([H])c(Oc4c([H])c([H])c(F)c([H])c4F)c([H])c3[H])c(C(=O)N([H])[H])c2N([H])[H])C1([H])[H])C([H])([H])Oc1c([H])c([H])c2c(c1[H])C([H])([H])N(C(=O)C([H])(N([H])C(=O)C([H])(N([H])C([H])([H])[H])C([H])([H])[H])C(C([H])([H])[H])(C([H])([H])[H])C([H])([H])[H])C([H])(C(=O)N([H])C1([H])c3c([H])c([H])c([H])c([H])c3C([H])([H])C([H])([H])C1([H])[H])C2([H])[H]

$$$$
38:0:0
     RDKit          3D

 98106  0  0  1  0  0  0  0  0999 V2000
  -31.7130  -24.1730   20.7200 C   0  0  0  0  0  3  0  0  0  0  0  0
  -32.6660  -23.3030   20.1510 C   0  0  0  0  0  3  0  0  0  0  0  0
  -30.8620  -22.3420   22.0520 C   0  0  0  0  0  3  0  0  0  0  0  0
  -30.7860  -23.7100   21.6820 C   0  0  0  0  0  0  0  0  0  0  0  0
  -32.7490  -21.9540   20.5450 C   0  0  0  0  0  0  0  0  0  0  0  0
  -31.8390  -21.4730   21.5190 C   0  0  0  0  0  0  0  0  0  0  0  0
  -31.8990  -20.0440   22.0340 C   0  0  0  0  0  1  0  0  0  0  0  0
  -29.8180  -24.6050   22.4400 C   0  0  0  0  0  0  0  0  0  0  0  0
  -29.1450  -25.6410   21.9060 N   0  0  0  0  0  0  0  0  0  0  0  0
  -29.5860  -24.3360   23.6190 O   0  0  0  0  0  0  0  0  0  0  0  0
  -28.5510  -26.0870   22.5910 H   0  0  0  0  0  0  0  0  0  0  0  0
  -29.1190  -26.3390   20.6210 C   0  0  0  0  0  2  0  0  0  0  0  0
  -28.0630  -25.7910   19.6360 C   0  0  0  0  0  2  0  0  0  0  0  0
  -27.6390  -26.8160   18.7360 O   0  0  0  0  0  0  0  0  0  0  0  0
  -24.2920  -31.5630   22.9430 C   0  0  0  0  0  0  0  0  0  0  0  0
  -26.5160  -27.5510   19.0560 C   0  0  0  0  0  0  0  0  0  0  0  0
  -22.9090  -30.4910   21.1930 C   0  0  0  0  0  3  0  0  0  0  0  0
  -24.1950  -29.1210   19.4610 C   0  0  0  0  0  0  0  0  0  0  0  0
  -25.4330  -30.7600   20.8820 C   0  0  0  0  0  2  0  0  0  0  0  0
  -25.4100  -29.4980   20.0480 C   0  0  0  0  0  0  0  0  0  0  0  0
  -26.5750  -28.7170   19.8530 C   0  0  0  0  0  3  0  0  0  0  0  0
  -25.2860  -27.1860   18.4670 C   0  0  0  0  0  3  0  0  0  0  0  0
  -24.1250  -27.9610   18.6680 C   0  0  0  0  0  3  0  0  0  0  0  0
  -23.0000  -30.0140   19.7160 C   0  0  0  0  0  2  0  0  0  0  0  0
  -24.2330  -30.9410   21.7320 N   0  0  0  0  0  0  0  0  0  0  0  0
  -23.2640  -31.8040   23.5920 O   0  0  0  0  0  0  0  0  0  0  0  0
  -22.2580  -29.3690   22.0330 C   0  0  0  0  0  0  0  0  0  0  0  0
  -20.9170  -29.3010   22.0040 N   0  0  0  0  0  0  0  0  0  0  0  0
  -22.9540  -28.5720   22.6670 O   0  0  0  0  0  0  0  0  0  0  0  0
  -20.4250  -29.9930   21.4590 H   0  0  0  0  0  0  0  0  0  0  0  0
  -17.5050  -28.3140   22.6660 C   0  0  0  0  0  0  0  0  0  0  0  0
  -20.0890  -28.3060   22.6810 C   0  0  0  0  0  3  0  0  0  0  0  0
  -19.9910  -27.0110   21.8430 C   0  0  0  0  0  2  0  0  0  0  0  0
  -18.7660  -26.9780   20.9250 C   0  0  0  0  0  2  0  0  0  0  0  0
  -17.4760  -27.1080   21.7390 C   0  0  0  0  0  2  0  0  0  0  0  0
  -18.7320  -28.8860   23.0950 C   0  0  0  0  0  0  0  0  0  0  0  0
  -18.7040  -30.0240   23.9290 C   0  0  0  0  0  3  0  0  0  0  0  0
  -17.4800  -30.5910   24.3310 C   0  0  0  0  0  3  0  0  0  0  0  0
  -16.2690  -30.0110   23.9190 C   0  0  0  0  0  3  0  0  0  0  0  0
  -16.2830  -28.8720   23.0930 C   0  0  0  0  0  3  0  0  0  0  0  0
  -25.6520  -32.0210   23.5610 C   0  0  0  0  0  3  0  0  0  0  0  0
  -26.1760  -31.0550   24.6920 C   0  0  1  0  0  0  0  0  0  0  0  0
  -25.1210  -30.7590   25.7830 C   0  0  0  0  0  1  0  0  0  0  0  0
  -26.6290  -29.7030   24.0930 C   0  0  0  0  0  1  0  0  0  0  0  0
  -27.4190  -31.6750   25.3730 C   0  0  0  0  0  1  0  0  0  0  0  0
  -25.4630  -33.3800   24.0820 N   0  0  0  0  0  0  0  0  0  0  0  0
  -25.8560  -34.4930   23.4510 C   0  0  0  0  0  0  0  0  0  0  0  0
  -26.4810  -34.4790   22.3870 O   0  0  0  0  0  0  0  0  0  0  0  0
  -24.9060  -33.4750   24.9200 H   0  0  0  0  0  0  0  0  0  0  0  0
  -24.2560  -36.4270   23.4060 C   0  0  0  0  0  1  0  0  0  0  0  0
  -25.4930  -35.8400   24.1030 C   0  0  0  0  0  3  0  0  0  0  0  0
  -27.7160  -36.4520   24.9420 C   0  0  0  0  0  1  0  0  0  0  0  0
  -26.5990  -36.8220   24.0750 N   0  0  0  0  0  0  0  0  0  0  0  0
  -26.2690  -37.7430   24.3540 H   0  0  0  0  0  0  0  0  0  0  0  0
  -33.8380  -21.0820   19.9230 C   0  0  0  0  0  2  0  0  0  0  0  0
  -33.3610  -19.7280   19.3630 C   0  0  0  0  0  2  0  0  0  0  0  0
  -31.9980  -19.7850   18.6530 C   0  0  0  0  0  2  0  0  0  0  0  0
  -31.3820  -18.4000   18.4200 C   0  0  0  0  0  2  0  0  0  0  0  0
  -30.9550  -17.6260   19.6860 C   0  0  0  0  0  2  0  0  0  0  0  0
  -30.1320  -16.4060   19.2420 C   0  0  0  0  0  2  0  0  0  0  0  0
  -30.8150  -14.1940   19.9730 C   0  0  0  0  0  0  0  0  0  0  0  0
  -30.3720  -12.0210   18.9440 C   0  0  0  0  0  2  0  0  0  0  0  0
  -29.3680  -12.2420   17.7940 C   0  0  0  0  0  2  0  0  0  0  0  0
  -27.9170  -12.1660   18.3100 C   0  0  0  0  0  2  0  0  0  0  0  0
  -27.6830  -13.0450   19.5680 C   0  0  0  0  0  3  0  0  0  0  0  0
  -28.7990  -12.8290   20.6190 C   0  0  0  0  0  2  0  0  0  0  0  0
  -30.1040  -13.0380   19.9700 N   0  0  0  0  0  0  0  0  0  0  0  0
  -31.9420  -14.3000   19.4850 O   0  0  0  0  0  0  0  0  0  0  0  0
  -30.0800  -15.2910   20.1940 N   0  0  0  0  0  0  0  0  0  0  0  0
  -29.1990  -15.1530   20.6670 H   0  0  0  0  0  0  0  0  0  0  0  0
  -25.3690  -13.7490   20.4490 C   0  0  0  0  0  0  0  0  0  0  0  0
  -24.2940  -13.0200   20.8750 C   0  0  0  0  0  0  0  0  0  0  0  0
  -24.6850  -11.6480   20.7850 C   0  0  0  0  0  0  0  0  0  0  0  0
  -26.3530  -12.8250   20.1320 N   0  0  0  0  0  0  0  0  0  0  0  0
  -25.9490  -11.5550   20.3910 N   0  0  0  0  0  0  0  0  0  0  0  0
  -23.9150  -10.4170   20.9970 C   0  0  0  0  0  0  0  0  0  0  0  0
  -24.3640   -9.4140   21.8850 C   0  0  0  0  0  3  0  0  0  0  0  0
  -23.6020   -8.2430   22.0870 C   0  0  0  0  0  3  0  0  0  0  0  0
  -22.3740   -8.0700   21.4050 C   0  0  0  0  0  0  0  0  0  0  0  0
  -21.9420   -9.0600   20.5050 C   0  0  0  0  0  3  0  0  0  0  0  0
  -22.7040  -10.2230   20.3020 C   0  0  0  0  0  3  0  0  0  0  0  0
  -21.5780   -6.9560   21.5220 O   0  0  0  0  0  0  0  0  0  0  0  0
  -21.5670   -6.1940   22.6610 C   0  0  0  0  0  0  0  0  0  0  0  0
  -21.2460   -6.7410   23.9220 C   0  0  0  0  0  3  0  0  0  0  0  0
  -21.1810   -5.9060   25.0550 C   0  0  0  0  0  3  0  0  0  0  0  0
  -21.4230   -4.5250   24.9270 C   0  0  0  0  0  0  0  0  0  0  0  0
  -21.7360   -3.9780   23.6720 C   0  0  0  0  0  3  0  0  0  0  0  0
  -21.8030   -4.8100   22.5400 C   0  0  0  0  0  0  0  0  0  0  0  0
  -22.0860   -4.2720   21.3290 F   0  0  0  0  0  0  0  0  0  0  0  0
  -21.3510   -3.7220   26.0150 F   0  0  0  0  0  0  0  0  0  0  0  0
  -22.9400  -13.5500   21.2540 C   0  0  0  0  0  0  0  0  0  0  0  0
  -22.2480  -12.8730   22.1620 N   0  0  0  0  0  0  0  0  0  0  0  0
  -22.5060  -14.6000   20.7770 O   0  0  0  0  0  0  0  0  0  0  0  0
  -22.6140  -12.0260   22.5750 H   0  0  0  0  0  0  0  0  0  0  0  0
  -21.3370  -13.2030   22.4510 H   0  0  0  0  0  0  0  0  0  0  0  0
  -25.5880  -15.1140   20.2830 N   0  0  0  0  0  0  0  0  0  0  0  0
  -24.8620  -15.8060   20.4400 H   0  0  0  0  0  0  0  0  0  0  0  0
  -26.4330  -15.5130   19.8920 H   0  0  0  0  0  0  0  0  0  0  0  0
  1  4  1  0
  2  5  1  0
  2  1  2  0
  4  3  2  0
  4  8  1  0
  5  6  2  0
  6  7  1  0
  6  3  1  0
  8 10  2  0
  9  8  1  0
  9 11  1  0
 12  9  1  0
 13 12  1  0
 14 16  1  0
 14 13  1  0
 15 26  2  0
 16 21  1  0
 17 25  1  0
 17 27  1  0
 18 24  1  0
 18 20  1  0
 19 25  1  0
 20 19  1  0
 21 20  2  0
 22 23  1  0
 22 16  2  0
 23 18  2  0
 24 17  1  0
 25 15  1  0
 27 29  2  0
 28 27  1  0
 30 28  1  0
 31 40  2  0
 31 36  1  0
 32 28  1  0
 32 36  1  0
 33 32  1  0
 34 35  1  0
 34 33  1  0
 35 31  1  0
 36 37  2  0
 37 38  1  0
 39 38  2  0
 40 39  1  0
 41 15  1  0
 41 46  1  0
 41 42  1  0
 42 45  1  1
 42 43  1  0
 44 42  1  0
 46 49  1  0
 47 46  1  0
 47 51  1  0
 48 47  2  0
 51 50  1  0
 53 51  1  0
 53 54  1  0
 53 52  1  0
 55  5  1  0
 56 55  1  0
 57 56  1  0
 58 57  1  0
 58 59  1  0
 60 59  1  0
 60 69  1  0
 61 69  1  0
 62 67  1  0
 63 64  1  0
 63 62  1  0
 65 64  1  0
 65 74  1  0
 65 66  1  0
 67 61  1  0
 67 66  1  0
 68 61  2  0
 69 70  1  0
 71 72  2  0
 72 91  1  0
 73 72  1  0
 73 76  1  0
 74 75  1  0
 74 71  1  0
 75 73  2  0
 76 77  1  0
 77 78  2  0
 79 82  1  0
 79 78  1  0
 80 79  2  0
 81 80  1  0
 81 76  2  0
 82 83  1  0
 83 84  1  0
 84 85  2  0
 86 85  1  0
 86 90  1  0
 87 86  2  0
 88 83  2  0
 88 87  1  0
 89 88  1  0
 91 92  1  0
 92 95  1  0
 92 94  1  0
 93 91  2  0
 96 97  1  0
 96 71  1  0
 98 96  1  0
M  ISO  4  13 101  14 101  61 100  69 100
M  END
>  <TORSDO>  (39) 
F 25

>  <SCORE>  (39) 
-10.460

>  <name>  (39) 
38

>  <ligand_id>  (39) 
38

>  <original_smiles>  (39) 
[H]c1c([H])c([H])c2c(c1[H])C([H])([H])C([H])([H])C([H])([H])C2([H])N([H])C(=O)C1([H])N(C(=O)C([H])(N([H])C(=O)C([H])(N([H])C([H])([H])[H])C([H])([H])[H])C(C([H])([H])[H])(C([H])([H])[H])C([H])([H])[H])C([H])([H])c2c([H])c(OC([H])([H])C([H])([H])N([H])C(=O)c3c([H])c([H])c(C([H])([H])C([H])([H])C([H])([H])C([H])([H])C([H])([H])C([H])([H])N([H])C(=O)N4C([H])([H])C([H])([H])C([H])([H])C([H])(n5nc(-c6c([H])c([H])c(Oc7c([H])c([H])c(F)c([H])c7F)c([H])c6[H])c(C(=O)N([H])[H])c5N([H])[H])C4([H])[H])c(C([H])([H])[H])c3[H])c([H])c([H])c2C1([H])[H]

>  <smiles>  (39) 
[H]c1c([H])c([H])c2c(c1[H])C([H])([H])C([H])([H])C([H])([H])C2([H])N([H])C(=O)C1([H])N(C(=O)C([H])(N([H])C(=O)C([H])(N([H])C([H])([H])[H])C([H])([H])[H])C(C([H])([H])[H])(C([H])([H])[H])C([H])([H])[H])C([H])([H])c2c([H])c(OC([H])([H])C([H])([H])N([H])C(=O)c3c([H])c([H])c(C([H])([H])C([H])([H])C([H])([H])C([H])([H])C([H])([H])C([H])([H])N([H])C(=O)N4C([H])([H])C([H])([H])C([H])([H])C([H])(n5nc(-c6c([H])c([H])c(Oc7c([H])c([H])c(F)c([H])c7F)c([H])c6[H])c(C(=O)N([H])[H])c5N([H])[H])C4([H])[H])c(C([H])([H])[H])c3[H])c([H])c([H])c2C1([H])[H]

$$$$
39:0:0
     RDKit          3D

 93100  0  0  1  0  0  0  0  0999 V2000
  -31.2430  -23.4800   18.7800 C   0  0  0  0  0  3  0  0  0  0  0  0
  -30.1000  -24.4190   18.9540 N   0  0  0  0  0  4  0  0  0  0  0  0
  -29.3580  -24.0920   18.3590 H   0  0  0  0  0  0  0  0  0  0  0  0
  -29.8070  -24.3410   19.9170 H   0  0  0  0  0  0  0  0  0  0  0  0
  -30.3340  -25.8580   18.6510 C   0  0  0  0  0  2  0  0  0  0  0  0
  -29.0270  -26.6930   18.6920 C   0  0  0  0  0  2  0  0  0  0  0  0
  -28.4650  -26.7840   20.0110 O   0  0  0  0  0  0  0  0  0  0  0  0
  -24.6180  -31.8860   23.2170 C   0  0  0  0  0  0  0  0  0  0  0  0
  -27.2750  -27.4810   20.0760 C   0  0  0  0  0  0  0  0  0  0  0  0
  -23.3990  -30.4780   21.5860 C   0  0  0  0  0  3  0  0  0  0  0  0
  -24.8490  -28.9370   20.1560 C   0  0  0  0  0  0  0  0  0  0  0  0
  -25.9200  -30.8450   21.3690 C   0  0  0  0  0  2  0  0  0  0  0  0
  -26.0080  -29.4740   20.7300 C   0  0  0  0  0  0  0  0  0  0  0  0
  -27.2190  -28.7460   20.7030 C   0  0  0  0  0  3  0  0  0  0  0  0
  -26.0940  -26.9390   19.5240 C   0  0  0  0  0  3  0  0  0  0  0  0
  -24.8840  -27.6620   19.5590 C   0  0  0  0  0  3  0  0  0  0  0  0
  -23.5990  -29.7880   20.2090 C   0  0  0  0  0  2  0  0  0  0  0  0
  -24.6640  -31.0850   22.1150 N   0  0  0  0  0  0  0  0  0  0  0  0
  -23.5430  -32.1580   23.7670 O   0  0  0  0  0  0  0  0  0  0  0  0
  -22.7570  -29.4630   22.5560 C   0  0  0  0  0  0  0  0  0  0  0  0
  -21.4310  -29.2820   22.4410 N   0  0  0  0  0  0  0  0  0  0  0  0
  -23.4470  -28.8390   23.3670 O   0  0  0  0  0  0  0  0  0  0  0  0
  -20.9370  -29.8340   21.7540 H   0  0  0  0  0  0  0  0  0  0  0  0
  -18.0620  -28.0800   22.9650 C   0  0  0  0  0  0  0  0  0  0  0  0
  -20.6210  -28.3450   23.2200 C   0  0  0  0  0  3  0  0  0  0  0  0
  -20.7240  -26.9120   22.6500 C   0  0  0  0  0  2  0  0  0  0  0  0
  -19.6160  -26.5830   21.6440 C   0  0  0  0  0  2  0  0  0  0  0  0
  -18.2370  -26.7290   22.2930 C   0  0  0  0  0  2  0  0  0  0  0  0
  -19.1830  -28.8460   23.3860 C   0  0  0  0  0  0  0  0  0  0  0  0
  -18.9660  -30.1110   23.9740 C   0  0  0  0  0  3  0  0  0  0  0  0
  -17.6600  -30.6100   24.1450 C   0  0  0  0  0  3  0  0  0  0  0  0
  -16.5560  -29.8430   23.7390 C   0  0  0  0  0  3  0  0  0  0  0  0
  -16.7570  -28.5800   23.1550 C   0  0  0  0  0  3  0  0  0  0  0  0
  -25.9120  -32.5170   23.8250 C   0  0  0  0  0  3  0  0  0  0  0  0
  -26.4530  -31.7370   25.0850 C   0  0  1  0  0  0  0  0  0  0  0  0
  -25.3790  -31.4900   26.1710 C   0  0  0  0  0  1  0  0  0  0  0  0
  -27.0320  -30.3630   24.6730 C   0  0  0  0  0  1  0  0  0  0  0  0
  -27.6140  -32.5290   25.7330 C   0  0  0  0  0  1  0  0  0  0  0  0
  -25.6040  -33.9110   24.1710 N   0  0  0  0  0  0  0  0  0  0  0  0
  -25.9250  -34.9700   23.4160 C   0  0  0  0  0  0  0  0  0  0  0  0
  -26.5820  -34.8770   22.3770 O   0  0  0  0  0  0  0  0  0  0  0  0
  -25.0190  -34.0560   24.9810 H   0  0  0  0  0  0  0  0  0  0  0  0
  -24.1850  -36.7570   23.0950 C   0  0  0  0  0  1  0  0  0  0  0  0
  -25.4360  -36.3530   23.8910 C   0  0  0  0  0  3  0  0  0  0  0  0
  -27.5810  -37.2330   24.6990 C   0  0  0  0  0  1  0  0  0  0  0  0
  -26.4640  -37.4110   23.7750 N   0  0  0  0  0  0  0  0  0  0  0  0
  -26.0570  -38.3280   23.9400 H   0  0  0  0  0  0  0  0  0  0  0  0
  -32.2110  -23.6510   19.9610 C   0  0  0  0  0  3  0  0  0  0  0  0
  -31.8470  -23.9030   21.1140 O   0  0  0  0  0  0  0  0  0  0  0  0
  -30.7570  -22.0050   18.6650 C   0  0  0  0  0  3  0  0  0  0  0  0
  -29.6710  -21.5680   19.6830 C   0  0  0  0  0  3  0  0  0  0  0  0
  -29.2870  -20.0740   19.6350 C   0  0  0  0  0  2  0  0  0  0  0  0
  -30.2390  -19.1420   20.4150 C   0  0  0  0  0  2  0  0  0  0  0  0
  -29.8040  -17.6600   20.3900 C   0  0  0  0  0  2  0  0  0  0  0  0
  -30.5510  -16.7610   21.4060 C   0  0  0  0  0  2  0  0  0  0  0  0
  -30.6950  -14.4290   20.5240 C   0  0  0  0  0  0  0  0  0  0  0  0
  -30.3530  -12.3100   19.3190 C   0  0  0  0  0  2  0  0  0  0  0  0
  -29.4090  -12.5390   18.1210 C   0  0  0  0  0  2  0  0  0  0  0  0
  -27.9410  -12.3910   18.5570 C   0  0  0  0  0  2  0  0  0  0  0  0
  -27.6080  -13.2260   19.8220 C   0  0  0  0  0  3  0  0  0  0  0  0
  -28.6600  -12.9870   20.9310 C   0  0  0  0  0  2  0  0  0  0  0  0
  -29.9940  -13.2750   20.3710 N   0  0  0  0  0  0  0  0  0  0  0  0
  -31.7520  -14.6640   19.9280 O   0  0  0  0  0  0  0  0  0  0  0  0
  -30.1290  -15.3580   21.3100 N   0  0  0  0  0  0  0  0  0  0  0  0
  -29.3170  -15.0770   21.8430 H   0  0  0  0  0  0  0  0  0  0  0  0
  -25.2030  -13.8360   20.5120 C   0  0  0  0  0  0  0  0  0  0  0  0
  -24.1320  -13.0620   20.8770 C   0  0  0  0  0  0  0  0  0  0  0  0
  -24.5960  -11.7110   20.8560 C   0  0  0  0  0  0  0  0  0  0  0  0
  -26.2500  -12.9540   20.2920 N   0  0  0  0  0  0  0  0  0  0  0  0
  -25.8870  -11.6720   20.5560 N   0  0  0  0  0  0  0  0  0  0  0  0
  -23.8730  -10.4480   21.0540 C   0  0  0  0  0  0  0  0  0  0  0  0
  -24.3250   -9.4770   21.9720 C   0  0  0  0  0  3  0  0  0  0  0  0
  -23.6020   -8.2790   22.1620 C   0  0  0  0  0  3  0  0  0  0  0  0
  -22.4140   -8.0450   21.4290 C   0  0  0  0  0  0  0  0  0  0  0  0
  -21.9830   -9.0070   20.4990 C   0  0  0  0  0  3  0  0  0  0  0  0
  -22.7050  -10.1960   20.3090 C   0  0  0  0  0  3  0  0  0  0  0  0
  -21.6610   -6.8980   21.5280 O   0  0  0  0  0  0  0  0  0  0  0  0
  -21.6550   -6.1350   22.6680 C   0  0  0  0  0  0  0  0  0  0  0  0
  -21.3000   -6.6730   23.9240 C   0  0  0  0  0  3  0  0  0  0  0  0
  -21.2370   -5.8360   25.0570 C   0  0  0  0  0  3  0  0  0  0  0  0
  -21.5200   -4.4620   24.9350 C   0  0  0  0  0  0  0  0  0  0  0  0
  -21.8730   -3.9240   23.6860 C   0  0  0  0  0  3  0  0  0  0  0  0
  -21.9370   -4.7570   22.5550 C   0  0  0  0  0  0  0  0  0  0  0  0
  -22.2510   -4.2290   21.3470 F   0  0  0  0  0  0  0  0  0  0  0  0
  -21.4530   -3.6570   26.0210 F   0  0  0  0  0  0  0  0  0  0  0  0
  -22.7310  -13.5370   21.1410 C   0  0  0  0  0  0  0  0  0  0  0  0
  -22.0110  -12.8450   22.0170 N   0  0  0  0  0  0  0  0  0  0  0  0
  -22.2870  -14.5520   20.6090 O   0  0  0  0  0  0  0  0  0  0  0  0
  -22.3860  -12.0220   22.4640 H   0  0  0  0  0  0  0  0  0  0  0  0
  -21.0700  -13.1390   22.2390 H   0  0  0  0  0  0  0  0  0  0  0  0
  -25.3690  -15.2070   20.3370 N   0  0  0  0  0  0  0  0  0  0  0  0
  -24.6160  -15.8690   20.4920 H   0  0  0  0  0  0  0  0  0  0  0  0
  -26.2300  -15.6540   20.0440 H   0  0  0  0  0  0  0  0  0  0  0  0
  1 50  1  0
  1  2  1  0
  1 48  1  0
  2  4  1  0
  3  2  1  0
  5  6  1  0
  5  2  1  0
  6  7  1  0
  7  9  1  0
  8 19  2  0
  9 14  1  0
 10 18  1  0
 10 20  1  0
 11 17  1  0
 11 13  1  0
 12 18  1  0
 13 12  1  0
 14 13  2  0
 15 16  1  0
 15  9  2  0
 16 11  2  0
 17 10  1  0
 18  8  1  0
 20 22  2  0
 21 20  1  0
 23 21  1  0
 24 33  2  0
 24 29  1  0
 25 21  1  0
 25 29  1  0
 26 25  1  0
 27 28  1  0
 27 26  1  0
 28 24  1  0
 29 30  2  0
 30 31  1  0
 32 31  2  0
 33 32  1  0
 34  8  1  0
 34 39  1  0
 34 35  1  0
 35 38  1  1
 35 36  1  0
 37 35  1  0
 39 42  1  0
 40 44  1  0
 40 39  1  0
 41 40  2  0
 44 43  1  0
 46 44  1  0
 46 47  1  0
 46 45  1  0
 48 49  2  0
 50 51  2  0
 52 51  1  0
 52 53  1  0
 54 53  1  0
 54 55  1  0
 56 64  1  0
 57 62  1  0
 58 59  1  0
 58 57  1  0
 60 59  1  0
 60 69  1  0
 60 61  1  0
 62 56  1  0
 62 61  1  0
 63 56  2  0
 64 55  1  0
 64 65  1  0
 66 67  2  0
 67 86  1  0
 68 67  1  0
 68 71  1  0
 69 66  1  0
 69 70  1  0
 70 68  2  0
 71 72  1  0
 72 73  2  0
 74 77  1  0
 74 73  1  0
 75 74  2  0
 76 75  1  0
 76 71  2  0
 77 78  1  0
 78 79  1  0
 79 80  2  0
 81 80  1  0
 81 85  1  0
 82 81  2  0
 83 78  2  0
 83 82  1  0
 84 83  1  0
 86 87  1  0
 87 90  1  0
 87 89  1  0
 88 86  2  0
 91 92  1  0
 91 66  1  0
 93 91  1  0
M  ISO  4   6 101   7 101  56 100  64 100
M  END
>  <TORSDO>  (40) 
F 26

>  <SCORE>  (40) 
-11.542

>  <name>  (40) 
39

>  <ligand_id>  (40) 
39

>  <original_smiles>  (40) 
[H]C(=O)C([H])(C([H])([H])C([H])([H])C([H])([H])C([H])([H])C([H])([H])C([H])([H])N([H])C(=O)N1C([H])([H])C([H])([H])C([H])([H])C([H])(n2nc(-c3c([H])c([H])c(Oc4c([H])c([H])c(F)c([H])c4F)c([H])c3[H])c(C(=O)N([H])[H])c2N([H])[H])C1([H])[H])[N+]([H])([H])C([H])([H])C([H])([H])Oc1c([H])c([H])c2c(c1[H])C([H])([H])N(C(=O)C([H])(N([H])C(=O)C([H])(N([H])C([H])([H])[H])C([H])([H])[H])C(C([H])([H])[H])(C([H])([H])[H])C([H])([H])[H])C([H])(C(=O)N([H])C1([H])c3c([H])c([H])c([H])c([H])c3C([H])([H])C([H])([H])C1([H])[H])C2([H])[H]

>  <smiles>  (40) 
[H]C(=O)C([H])(C([H])([H])C([H])([H])C([H])([H])C([H])([H])C([H])([H])C([H])([H])N([H])C(=O)N1C([H])([H])C([H])([H])C([H])([H])C([H])(n2nc(-c3c([H])c([H])c(Oc4c([H])c([H])c(F)c([H])c4F)c([H])c3[H])c(C(=O)N([H])[H])c2N([H])[H])C1([H])[H])[N+]([H])([H])C([H])([H])C([H])([H])Oc1c([H])c([H])c2c(c1[H])C([H])([H])N(C(=O)C([H])(N([H])C(=O)C([H])(N([H])C([H])([H])[H])C([H])([H])[H])C(C([H])([H])[H])(C([H])([H])[H])C([H])([H])[H])C([H])(C(=O)N([H])C1([H])c3c([H])c([H])c([H])c([H])c3C([H])([H])C([H])([H])C1([H])[H])C2([H])[H]

$$$$
40:0:0
     RDKit          3D

 93100  0  0  1  0  0  0  0  0999 V2000
  -29.2900  -20.3880   19.8480 N   0  0  0  0  0  4  0  0  0  0  0  0
  -30.2810  -20.3720   20.0190 H   0  0  0  0  0  0  0  0  0  0  0  0
  -29.1230  -20.4180   18.8500 H   0  0  0  0  0  0  0  0  0  0  0  0
  -28.6800  -19.0750   20.2160 C   0  0  0  0  0  3  0  0  0  0  0  0
  -27.4310  -18.9040   19.3250 C   0  0  0  0  0  2  0  0  0  0  0  0
  -27.8050  -19.1610   17.9750 O   0  0  0  0  0  0  0  0  0  0  0  0
  -27.0660  -18.9440   17.4150 H   0  0  0  0  0  0  0  0  0  0  0  0
  -29.6380  -17.8400   20.0090 C   0  0  0  0  0  2  0  0  0  0  0  0
  -31.2900  -17.3470   21.9300 C   0  0  0  0  0  1  0  0  0  0  0  0
  -29.9450  -16.9770   21.2820 C   0  0  0  0  0  3  0  0  0  0  0  0
  -30.5480  -14.5470   20.5600 C   0  0  0  0  0  0  0  0  0  0  0  0
  -30.3340  -12.3780   19.3930 C   0  0  0  0  0  2  0  0  0  0  0  0
  -29.3940  -12.5650   18.1850 C   0  0  0  0  0  2  0  0  0  0  0  0
  -27.9170  -12.4150   18.5950 C   0  0  0  0  0  2  0  0  0  0  0  0
  -27.5620  -13.2350   19.8640 C   0  0  0  0  0  3  0  0  0  0  0  0
  -28.6060  -12.9980   20.9760 C   0  0  0  0  0  2  0  0  0  0  0  0
  -29.9300  -13.3410   20.4280 N   0  0  0  0  0  0  0  0  0  0  0  0
  -31.6720  -14.7740   20.0990 O   0  0  0  0  0  0  0  0  0  0  0  0
  -29.7720  -15.5150   21.0990 N   0  0  0  0  0  0  0  0  0  0  0  0
  -28.8750  -15.1670   21.4010 H   0  0  0  0  0  0  0  0  0  0  0  0
  -25.1520  -13.8370   20.5300 C   0  0  0  0  0  0  0  0  0  0  0  0
  -24.0820  -13.0610   20.8870 C   0  0  0  0  0  0  0  0  0  0  0  0
  -24.5490  -11.7100   20.8710 C   0  0  0  0  0  0  0  0  0  0  0  0
  -26.2030  -12.9570   20.3220 N   0  0  0  0  0  0  0  0  0  0  0  0
  -25.8410  -11.6740   20.5790 N   0  0  0  0  0  0  0  0  0  0  0  0
  -23.8270  -10.4450   21.0590 C   0  0  0  0  0  0  0  0  0  0  0  0
  -24.2490   -9.4870   22.0060 C   0  0  0  0  0  3  0  0  0  0  0  0
  -23.5270   -8.2860   22.1770 C   0  0  0  0  0  3  0  0  0  0  0  0
  -22.3740   -8.0330   21.3980 C   0  0  0  0  0  0  0  0  0  0  0  0
  -21.9710   -8.9830   20.4400 C   0  0  0  0  0  3  0  0  0  0  0  0
  -22.6940  -10.1740   20.2690 C   0  0  0  0  0  3  0  0  0  0  0  0
  -21.6280   -6.8820   21.4740 O   0  0  0  0  0  0  0  0  0  0  0  0
  -21.5560   -6.1460   22.6290 C   0  0  0  0  0  0  0  0  0  0  0  0
  -21.0820   -6.7030   23.8380 C   0  0  0  0  0  3  0  0  0  0  0  0
  -20.9630   -5.8950   24.9850 C   0  0  0  0  0  3  0  0  0  0  0  0
  -21.3070   -4.5290   24.9260 C   0  0  0  0  0  0  0  0  0  0  0  0
  -21.7730   -3.9750   23.7230 C   0  0  0  0  0  3  0  0  0  0  0  0
  -21.8950   -4.7800   22.5770 C   0  0  0  0  0  0  0  0  0  0  0  0
  -22.3230   -4.2340   21.4130 F   0  0  0  0  0  0  0  0  0  0  0  0
  -21.1840   -3.7500   26.0250 F   0  0  0  0  0  0  0  0  0  0  0  0
  -22.6790  -13.5320   21.1420 C   0  0  0  0  0  0  0  0  0  0  0  0
  -21.9440  -12.8300   22.0000 N   0  0  0  0  0  0  0  0  0  0  0  0
  -22.2410  -14.5550   20.6180 O   0  0  0  0  0  0  0  0  0  0  0  0
  -22.3080  -11.9970   22.4370 H   0  0  0  0  0  0  0  0  0  0  0  0
  -21.0050  -13.1290   22.2220 H   0  0  0  0  0  0  0  0  0  0  0  0
  -25.3290  -15.2060   20.3460 N   0  0  0  0  0  0  0  0  0  0  0  0
  -24.5740  -15.8770   20.4230 H   0  0  0  0  0  0  0  0  0  0  0  0
  -26.1870  -15.6110   19.9960 H   0  0  0  0  0  0  0  0  0  0  0  0
  -28.6950  -21.6090   20.4750 C   0  0  0  0  0  2  0  0  0  0  0  0
  -29.0200  -22.9360   19.7210 C   0  0  0  0  0  2  0  0  0  0  0  0
  -28.4470  -24.2330   20.3740 C   0  0  0  0  0  2  0  0  0  0  0  0
  -28.6900  -25.5190   19.5310 C   0  0  0  0  0  2  0  0  0  0  0  0
  -28.4890  -26.7590   20.2350 O   0  0  0  0  0  0  0  0  0  0  0  0
  -24.6230  -31.9180   23.2460 C   0  0  0  0  0  0  0  0  0  0  0  0
  -27.2860  -27.4440   20.1980 C   0  0  0  0  0  0  0  0  0  0  0  0
  -23.4220  -30.5060   21.6040 C   0  0  0  0  0  3  0  0  0  0  0  0
  -24.8800  -28.9540   20.1970 C   0  0  0  0  0  0  0  0  0  0  0  0
  -25.9470  -30.8620   21.4110 C   0  0  0  0  0  2  0  0  0  0  0  0
  -26.0350  -29.4820   20.7860 C   0  0  0  0  0  0  0  0  0  0  0  0
  -27.2340  -28.7330   20.7860 C   0  0  0  0  0  3  0  0  0  0  0  0
  -26.1060  -26.9240   19.6150 C   0  0  0  0  0  3  0  0  0  0  0  0
  -24.9110  -27.6730   19.6140 C   0  0  0  0  0  3  0  0  0  0  0  0
  -23.6370  -29.8140   20.2320 C   0  0  0  0  0  2  0  0  0  0  0  0
  -24.6820  -31.1120   22.1460 N   0  0  0  0  0  0  0  0  0  0  0  0
  -23.5400  -32.1910   23.7800 O   0  0  0  0  0  0  0  0  0  0  0  0
  -22.7710  -29.4930   22.5720 C   0  0  0  0  0  0  0  0  0  0  0  0
  -21.4460  -29.3080   22.4410 N   0  0  0  0  0  0  0  0  0  0  0  0
  -23.4510  -28.8730   23.3940 O   0  0  0  0  0  0  0  0  0  0  0  0
  -20.9580  -29.8640   21.7540 H   0  0  0  0  0  0  0  0  0  0  0  0
  -18.0710  -28.1090   22.9320 C   0  0  0  0  0  0  0  0  0  0  0  0
  -20.6280  -28.3700   23.2100 C   0  0  0  0  0  3  0  0  0  0  0  0
  -20.7330  -26.9360   22.6400 C   0  0  0  0  0  2  0  0  0  0  0  0
  -19.6350  -26.6080   21.6230 C   0  0  0  0  0  2  0  0  0  0  0  0
  -18.2520  -26.7560   22.2620 C   0  0  0  0  0  2  0  0  0  0  0  0
  -19.1890  -28.8720   23.3630 C   0  0  0  0  0  0  0  0  0  0  0  0
  -18.9690  -30.1370   23.9490 C   0  0  0  0  0  3  0  0  0  0  0  0
  -17.6630  -30.6400   24.1090 C   0  0  0  0  0  3  0  0  0  0  0  0
  -16.5600  -29.8730   23.6940 C   0  0  0  0  0  3  0  0  0  0  0  0
  -16.7650  -28.6080   23.1120 C   0  0  0  0  0  3  0  0  0  0  0  0
  -25.9070  -32.5550   23.8680 C   0  0  0  0  0  3  0  0  0  0  0  0
  -26.4230  -31.7900   25.1480 C   0  0  1  0  0  0  0  0  0  0  0  0
  -25.3280  -31.5550   26.2150 C   0  0  0  0  0  1  0  0  0  0  0  0
  -27.0110  -30.4130   24.7620 C   0  0  0  0  0  1  0  0  0  0  0  0
  -27.5700  -32.5900   25.8100 C   0  0  0  0  0  1  0  0  0  0  0  0
  -25.5940  -33.9530   24.1910 N   0  0  0  0  0  0  0  0  0  0  0  0
  -25.9290  -35.0030   23.4270 C   0  0  0  0  0  0  0  0  0  0  0  0
  -26.6040  -34.8950   22.4000 O   0  0  0  0  0  0  0  0  0  0  0  0
  -24.9980  -34.1100   24.9890 H   0  0  0  0  0  0  0  0  0  0  0  0
  -24.2080  -36.7990   23.0450 C   0  0  0  0  0  1  0  0  0  0  0  0
  -25.4370  -36.3930   23.8750 C   0  0  0  0  0  3  0  0  0  0  0  0
  -27.5600  -37.2780   24.7350 C   0  0  0  0  0  1  0  0  0  0  0  0
  -26.4730  -37.4440   23.7730 N   0  0  0  0  0  0  0  0  0  0  0  0
  -26.0660  -38.3660   23.9070 H   0  0  0  0  0  0  0  0  0  0  0  0
  1  2  1  0
  1  4  1  0
  1 49  1  0
  3  1  1  0
  4  5  1  0
  6  5  1  0
  7  6  1  0
  8  4  1  0
  8 10  1  0
 10  9  1  0
 11 19  1  0
 12 17  1  0
 13 14  1  0
 13 12  1  0
 15 14  1  0
 15 24  1  0
 15 16  1  0
 17 11  1  0
 17 16  1  0
 18 11  2  0
 19 10  1  0
 19 20  1  0
 21 22  2  0
 22 41  1  0
 23 22  1  0
 23 26  1  0
 24 21  1  0
 24 25  1  0
 25 23  2  0
 26 27  1  0
 27 28  2  0
 29 32  1  0
 29 28  1  0
 30 29  2  0
 31 30  1  0
 31 26  2  0
 32 33  1  0
 33 34  1  0
 34 35  2  0
 36 35  1  0
 36 40  1  0
 37 36  2  0
 38 33  2  0
 38 37  1  0
 39 38  1  0
 41 42  1  0
 42 45  1  0
 42 44  1  0
 43 41  2  0
 46 47  1  0
 46 21  1  0
 48 46  1  0
 50 51  1  0
 50 49  1  0
 52 53  1  0
 52 51  1  0
 54 65  2  0
 55 53  1  0
 55 60  1  0
 56 64  1  0
 56 66  1  0
 57 63  1  0
 57 59  1  0
 58 64  1  0
 59 58  1  0
 60 59  2  0
 61 55  2  0
 62 61  1  0
 62 57  2  0
 63 56  1  0
 64 54  1  0
 66 68  2  0
 67 66  1  0
 69 67  1  0
 70 79  2  0
 70 75  1  0
 71 67  1  0
 71 75  1  0
 72 71  1  0
 73 74  1  0
 73 72  1  0
 74 70  1  0
 75 76  2  0
 76 77  1  0
 78 77  2  0
 79 78  1  0
 80 54  1  0
 80 85  1  0
 80 81  1  0
 81 84  1  1
 81 82  1  0
 83 81  1  0
 85 88  1  0
 86 90  1  0
 86 85  1  0
 87 86  2  0
 90 89  1  0
 92 90  1  0
 92 93  1  0
 92 91  1  0
M  ISO  4  11 100  19 100  52 101  53 101
M  END
>  <TORSDO>  (41) 
F 25

>  <SCORE>  (41) 
-12.364

>  <name>  (41) 
40

>  <ligand_id>  (41) 
40

>  <original_smiles>  (41) 
[H]OC([H])([H])C([H])(C([H])([H])C([H])(N([H])C(=O)N1C([H])([H])C([H])([H])C([H])([H])C([H])(n2nc(-c3c([H])c([H])c(Oc4c([H])c([H])c(F)c([H])c4F)c([H])c3[H])c(C(=O)N([H])[H])c2N([H])[H])C1([H])[H])C([H])([H])[H])[N+]([H])([H])C([H])([H])C([H])([H])C([H])([H])C([H])([H])Oc1c([H])c([H])c2c(c1[H])C([H])([H])N(C(=O)C([H])(N([H])C(=O)C([H])(N([H])C([H])([H])[H])C([H])([H])[H])C(C([H])([H])[H])(C([H])([H])[H])C([H])([H])[H])C([H])(C(=O)N([H])C1([H])c3c([H])c([H])c([H])c([H])c3C([H])([H])C([H])([H])C1([H])[H])C2([H])[H]

>  <smiles>  (41) 
[H]OC([H])([H])C([H])(C([H])([H])C([H])(N([H])C(=O)N1C([H])([H])C([H])([H])C([H])([H])C([H])(n2nc(-c3c([H])c([H])c(Oc4c([H])c([H])c(F)c([H])c4F)c([H])c3[H])c(C(=O)N([H])[H])c2N([H])[H])C1([H])[H])C([H])([H])[H])[N+]([H])([H])C([H])([H])C([H])([H])C([H])([H])C([H])([H])Oc1c([H])c([H])c2c(c1[H])C([H])([H])N(C(=O)C([H])(N([H])C(=O)C([H])(N([H])C([H])([H])[H])C([H])([H])[H])C(C([H])([H])[H])(C([H])([H])[H])C([H])([H])[H])C([H])(C(=O)N([H])C1([H])c3c([H])c([H])c([H])c([H])c3C([H])([H])C([H])([H])C1([H])[H])C2([H])[H]

$$$$
41:0:0
     RDKit          3D

 95104  0  0  1  0  0  0  0  0999 V2000
  -30.2310  -21.4770   24.9670 C   0  0  0  0  0  3  0  0  0  0  0  0
  -30.4870  -22.7140   24.3500 C   0  0  0  0  0  3  0  0  0  0  0  0
  -29.8880  -20.3640   24.1750 C   0  0  0  0  0  3  0  0  0  0  0  0
  -30.4660  -22.8110   22.9470 C   0  0  0  0  0  3  0  0  0  0  0  0
  -29.8410  -20.4620   22.7690 C   0  0  0  0  0  0  0  0  0  0  0  0
  -30.2020  -21.6800   22.1410 C   0  0  0  0  0  0  0  0  0  0  0  0
  -29.4260  -19.2400   21.9540 C   0  0  0  0  0  2  0  0  0  0  0  0
  -31.6160  -14.6900   19.8200 C   0  0  0  0  0  0  0  0  0  0  0  0
  -31.1640  -12.4050   19.0210 C   0  0  0  0  0  2  0  0  0  0  0  0
  -30.1680  -12.4130   17.8450 C   0  0  0  0  0  2  0  0  0  0  0  0
  -28.7230  -12.3650   18.3760 C   0  0  0  0  0  2  0  0  0  0  0  0
  -28.4600  -13.4370   19.4590 C   0  0  0  0  0  3  0  0  0  0  0  0
  -29.5550  -13.3980   20.5480 C   0  0  0  0  0  2  0  0  0  0  0  0
  -30.8610  -13.5580   19.8830 N   0  0  0  0  0  0  0  0  0  0  0  0
  -32.7220  -14.7060   19.2570 O   0  0  0  0  0  0  0  0  0  0  0  0
  -31.5770  -17.8430   21.8810 C   0  0  0  0  0  2  0  0  0  0  0  0
  -30.1480  -18.0380   19.7710 C   0  0  0  0  0  2  0  0  0  0  0  0
  -32.1640  -16.6700   21.0810 C   0  0  0  0  0  2  0  0  0  0  0  0
  -29.9720  -16.5130   19.8780 C   0  0  0  0  0  2  0  0  0  0  0  0
  -30.5920  -18.7200   21.0810 C   0  0  0  0  0  3  0  0  0  0  0  0
  -31.1500  -15.8070   20.4390 N   0  0  0  0  0  0  0  0  0  0  0  0
  -26.2500  -14.2990   20.4480 C   0  0  0  0  0  0  0  0  0  0  0  0
  -25.1150  -13.6520   20.8450 C   0  0  0  0  0  0  0  0  0  0  0  0
  -25.3630  -12.2590   20.6440 C   0  0  0  0  0  0  0  0  0  0  0  0
  -27.1280  -13.3080   20.0380 N   0  0  0  0  0  0  0  0  0  0  0  0
  -26.6030  -12.0700   20.2150 N   0  0  0  0  0  0  0  0  0  0  0  0
  -24.4800  -11.0960   20.7880 C   0  0  0  0  0  0  0  0  0  0  0  0
  -24.8630   -9.9690   21.5500 C   0  0  0  0  0  3  0  0  0  0  0  0
  -23.9930   -8.8660   21.6810 C   0  0  0  0  0  3  0  0  0  0  0  0
  -22.7240   -8.8870   21.0560 C   0  0  0  0  0  0  0  0  0  0  0  0
  -22.3560  -10.0010   20.2810 C   0  0  0  0  0  3  0  0  0  0  0  0
  -23.2240  -11.0960   20.1490 C   0  0  0  0  0  3  0  0  0  0  0  0
  -21.8210   -7.8540   21.1150 O   0  0  0  0  0  0  0  0  0  0  0  0
  -21.7310   -7.0380   22.2140 C   0  0  0  0  0  0  0  0  0  0  0  0
  -21.5150   -7.5500   23.5110 C   0  0  0  0  0  3  0  0  0  0  0  0
  -21.3620   -6.6700   24.6000 C   0  0  0  0  0  3  0  0  0  0  0  0
  -21.4090   -5.2780   24.3940 C   0  0  0  0  0  0  0  0  0  0  0  0
  -21.6190   -4.7660   23.1020 C   0  0  0  0  0  3  0  0  0  0  0  0
  -21.7770   -5.6450   22.0140 C   0  0  0  0  0  0  0  0  0  0  0  0
  -21.9580   -5.1450   20.7680 F   0  0  0  0  0  0  0  0  0  0  0  0
  -21.2520   -4.4280   25.4350 F   0  0  0  0  0  0  0  0  0  0  0  0
  -23.8330  -14.2880   21.3050 C   0  0  0  0  0  0  0  0  0  0  0  0
  -23.1090  -13.6270   22.2000 N   0  0  0  0  0  0  0  0  0  0  0  0
  -23.4940  -15.4000   20.9060 O   0  0  0  0  0  0  0  0  0  0  0  0
  -23.4000  -12.7200   22.5340 H   0  0  0  0  0  0  0  0  0  0  0  0
  -22.2510  -14.0310   22.5480 H   0  0  0  0  0  0  0  0  0  0  0  0
  -26.6100  -15.6420   20.3770 N   0  0  0  0  0  0  0  0  0  0  0  0
  -25.9920  -16.3990   20.6480 H   0  0  0  0  0  0  0  0  0  0  0  0
  -27.4890  -15.9510   19.9860 H   0  0  0  0  0  0  0  0  0  0  0  0
  -30.3160  -21.7570   20.6190 C   0  0  0  0  0  2  0  0  0  0  0  0
  -30.5990  -23.1470   20.0180 C   0  0  0  0  0  2  0  0  0  0  0  0
  -31.7530  -23.9500   20.6760 C   0  0  0  0  0  2  0  0  0  0  0  0
  -31.3030  -25.3390   21.1680 C   0  0  0  0  0  2  0  0  0  0  0  0
  -32.3020  -26.4770   20.8800 C   0  0  0  0  0  2  0  0  0  0  0  0
  -31.9800  -27.6650   21.6070 O   0  0  0  0  0  0  0  0  0  0  0  0
  -26.9320  -31.2090   25.1180 C   0  0  0  0  0  0  0  0  0  0  0  0
  -30.7040  -28.1830   21.5410 C   0  0  0  0  0  0  0  0  0  0  0  0
  -26.2500  -30.1980   22.9860 C   0  0  0  0  0  3  0  0  0  0  0  0
  -28.1130  -29.3180   21.4960 C   0  0  0  0  0  0  0  0  0  0  0  0
  -28.6700  -30.9050   23.3550 C   0  0  0  0  0  2  0  0  0  0  0  0
  -29.0690  -29.7950   22.4030 C   0  0  0  0  0  0  0  0  0  0  0  0
  -30.3590  -29.2290   22.4300 C   0  0  0  0  0  3  0  0  0  0  0  0
  -29.7300  -27.7230   20.6240 C   0  0  0  0  0  3  0  0  0  0  0  0
  -28.4360  -28.2730   20.6160 C   0  0  0  0  0  3  0  0  0  0  0  0
  -26.7510  -29.9660   21.5360 C   0  0  0  0  0  2  0  0  0  0  0  0
  -27.2940  -30.7680   23.8830 N   0  0  0  0  0  0  0  0  0  0  0  0
  -25.7500  -31.1860   25.4920 O   0  0  0  0  0  0  0  0  0  0  0  0
  -25.6380  -28.8830   23.5120 C   0  0  0  0  0  0  0  0  0  0  0  0
  -24.4380  -28.6230   22.9980 N   0  0  0  0  0  0  0  0  0  0  0  0
  -26.2340  -28.1380   24.2900 O   0  0  0  0  0  0  0  0  0  0  0  0
  -24.0480  -29.3640   22.4290 H   0  0  0  0  0  0  0  0  0  0  0  0
  -21.4430  -26.5850   22.1130 C   0  0  0  0  0  0  0  0  0  0  0  0
  -23.6710  -27.4050   22.9310 C   0  0  0  0  0  3  0  0  0  0  0  0
  -24.3150  -26.0550   22.5920 C   0  0  0  0  0  2  0  0  0  0  0  0
  -23.6780  -25.5230   21.2900 C   0  0  0  0  0  2  0  0  0  0  0  0
  -22.1380  -25.4240   21.3950 C   0  0  0  0  0  2  0  0  0  0  0  0
  -22.1650  -27.4750   22.9460 C   0  0  0  0  0  0  0  0  0  0  0  0
  -21.5010  -28.5300   23.6040 C   0  0  0  0  0  3  0  0  0  0  0  0
  -20.1250  -28.7280   23.3970 C   0  0  0  0  0  3  0  0  0  0  0  0
  -19.4070  -27.8630   22.5520 C   0  0  0  0  0  3  0  0  0  0  0  0
  -20.0650  -26.7870   21.9230 C   0  0  0  0  0  3  0  0  0  0  0  0
  -27.9870  -31.7880   26.1050 C   0  0  0  0  0  3  0  0  0  0  0  0
  -27.5950  -33.1700   26.4020 N   0  0  0  0  0  0  0  0  0  0  0  0
  -28.1100  -34.2510   25.8000 C   0  0  0  0  0  0  0  0  0  0  0  0
  -29.0290  -34.1870   24.9760 O   0  0  0  0  0  0  0  0  0  0  0  0
  -26.8050  -33.2910   27.0200 H   0  0  0  0  0  0  0  0  0  0  0  0
  -26.5110  -36.0560   25.0900 C   0  0  0  0  0  1  0  0  0  0  0  0
  -27.5120  -35.6200   26.1710 C   0  0  0  0  0  3  0  0  0  0  0  0
  -29.4030  -36.4360   27.5040 C   0  0  0  0  0  1  0  0  0  0  0  0
  -28.5310  -36.6750   26.3570 N   0  0  0  0  0  0  0  0  0  0  0  0
  -28.0890  -37.5820   26.4830 H   0  0  0  0  0  0  0  0  0  0  0  0
  -28.1200  -30.9410   27.4260 C   0  0  1  0  0  0  0  0  0  0  0  0
  -26.7680  -30.6350   28.1090 C   0  0  0  0  0  1  0  0  0  0  0  0
  -28.8320  -29.5940   27.1500 C   0  0  0  0  0  1  0  0  0  0  0  0
  -29.0010  -31.7020   28.4410 C   0  0  0  0  0  1  0  0  0  0  0  0
  2  1  1  0
  3  1  2  0
  4  2  2  0
  5  3  1  0
  6  5  2  0
  6  4  1  0
  7  5  1  0
  8 14  1  0
  8 21  1  0
  9 14  1  0
 10 11  1  0
 10  9  1  0
 12 11  1  0
 12 25  1  0
 12 13  1  0
 14 13  1  0
 15  8  2  0
 17 19  1  0
 17 20  1  0
 18 16  1  0
 19 21  1  0
 20 16  1  0
 20  7  1  0
 21 18  1  0
 22 23  2  0
 23 42  1  0
 24 27  1  0
 24 23  1  0
 25 26  1  0
 25 22  1  0
 26 24  2  0
 27 28  1  0
 28 29  2  0
 30 33  1  0
 30 29  1  0
 31 30  2  0
 32 31  1  0
 32 27  2  0
 33 34  1  0
 34 35  1  0
 35 36  2  0
 37 36  1  0
 37 41  1  0
 38 37  2  0
 39 34  2  0
 39 38  1  0
 40 39  1  0
 42 43  1  0
 43 45  1  0
 43 46  1  0
 44 42  2  0
 47 22  1  0
 47 48  1  0
 49 47  1  0
 50  6  1  0
 51 50  1  0
 51 52  1  0
 52 53  1  0
 54 53  1  0
 54 55  1  0
 56 67  2  0
 57 55  1  0
 57 62  1  0
 58 68  1  0
 58 66  1  0
 59 65  1  0
 59 61  1  0
 60 66  1  0
 61 62  2  0
 61 60  1  0
 63 57  2  0
 64 63  1  0
 64 59  2  0
 65 58  1  0
 66 56  1  0
 68 70  2  0
 69 68  1  0
 71 69  1  0
 72 77  1  0
 73 77  1  0
 73 69  1  0
 74 73  1  0
 75 76  1  0
 75 74  1  0
 76 72  1  0
 77 78  2  0
 79 78  1  0
 80 79  2  0
 81 72  2  0
 81 80  1  0
 82 56  1  0
 82 83  1  0
 82 92  1  0
 83 86  1  0
 84 88  1  0
 84 83  1  0
 85 84  2  0
 88 87  1  0
 88 90  1  0
 90 91  1  0
 90 89  1  0
 92 93  1  1
 92 95  1  0
 94 92  1  0
M  ISO  4   8 100  21 100  54 101  55 101
M  END
>  <TORSDO>  (42) 
F 22

>  <SCORE>  (42) 
-6.726

>  <name>  (42) 
41

>  <ligand_id>  (42) 
41

>  <original_smiles>  (42) 
[H]c1c([H])c([H])c2c(c1[H])C([H])([H])C([H])([H])C([H])([H])C2([H])N([H])C(=O)C1([H])N(C(=O)C([H])(N([H])C(=O)C([H])(N([H])C([H])([H])[H])C([H])([H])[H])C(C([H])([H])[H])(C([H])([H])[H])C([H])([H])[H])C([H])([H])c2c([H])c(OC([H])([H])C([H])([H])C([H])([H])C([H])([H])C([H])([H])c3c([H])c([H])c([H])c([H])c3C([H])([H])C3([H])C([H])([H])C([H])([H])N(C(=O)N4C([H])([H])C([H])([H])C([H])([H])C([H])(n5nc(-c6c([H])c([H])c(Oc7c([H])c([H])c(F)c([H])c7F)c([H])c6[H])c(C(=O)N([H])[H])c5N([H])[H])C4([H])[H])C([H])([H])C3([H])[H])c([H])c([H])c2C1([H])[H]

>  <smiles>  (42) 
[H]c1c([H])c([H])c2c(c1[H])C([H])([H])C([H])([H])C([H])([H])C2([H])N([H])C(=O)C1([H])N(C(=O)C([H])(N([H])C(=O)C([H])(N([H])C([H])([H])[H])C([H])([H])[H])C(C([H])([H])[H])(C([H])([H])[H])C([H])([H])[H])C([H])([H])c2c([H])c(OC([H])([H])C([H])([H])C([H])([H])C([H])([H])C([H])([H])c3c([H])c([H])c([H])c([H])c3C([H])([H])C3([H])C([H])([H])C([H])([H])N(C(=O)N4C([H])([H])C([H])([H])C([H])([H])C([H])(n5nc(-c6c([H])c([H])c(Oc7c([H])c([H])c(F)c([H])c7F)c([H])c6[H])c(C(=O)N([H])[H])c5N([H])[H])C4([H])[H])C([H])([H])C3([H])[H])c([H])c([H])c2C1([H])[H]

$$$$
42:0:0
     RDKit          3D

 88 95  0  0  1  0  0  0  0  0999 V2000
  -27.5940  -22.6560   21.3840 C   0  0  0  0  0  2  0  0  0  0  0  0
  -27.7690  -21.1250   21.1230 C   0  0  0  0  0  2  0  0  0  0  0  0
  -29.2460  -20.7420   20.8740 C   0  0  0  0  0  2  0  0  0  0  0  0
  -29.5790  -19.3670   20.2820 C   0  0  0  0  0  3  0  0  0  0  0  0
  -29.8860  -18.2390   20.9520 C   0  0  0  0  0  3  0  0  0  0  0  0
  -30.4680  -17.0160   20.2450 C   0  0  0  0  0  2  0  0  0  0  0  0
  -30.7600  -14.5520   20.3100 C   0  0  0  0  0  0  0  0  0  0  0  0
  -30.3760  -12.3930   19.1590 C   0  0  0  0  0  2  0  0  0  0  0  0
  -29.4040  -12.5860   17.9790 C   0  0  0  0  0  2  0  0  0  0  0  0
  -27.9490  -12.4420   18.4450 C   0  0  0  0  0  2  0  0  0  0  0  0
  -27.6330  -13.3190   19.6840 C   0  0  0  0  0  3  0  0  0  0  0  0
  -28.7190  -13.1210   20.7670 C   0  0  0  0  0  2  0  0  0  0  0  0
  -30.0400  -13.4030   20.1750 N   0  0  0  0  0  0  0  0  0  0  0  0
  -31.9140  -14.6730   19.8810 O   0  0  0  0  0  0  0  0  0  0  0  0
  -30.0880  -15.6500   20.7040 N   0  0  0  0  0  0  0  0  0  0  0  0
  -29.1580  -15.4690   21.0520 H   0  0  0  0  0  0  0  0  0  0  0  0
  -25.2360  -13.9380   20.4180 C   0  0  0  0  0  0  0  0  0  0  0  0
  -24.1710  -13.1720   20.7970 C   0  0  0  0  0  0  0  0  0  0  0  0
  -24.6280  -11.8170   20.7710 C   0  0  0  0  0  0  0  0  0  0  0  0
  -26.2860  -13.0550   20.1890 N   0  0  0  0  0  0  0  0  0  0  0  0
  -25.9190  -11.7740   20.4590 N   0  0  0  0  0  0  0  0  0  0  0  0
  -23.8940  -10.5650   20.9720 C   0  0  0  0  0  0  0  0  0  0  0  0
  -24.3280   -9.5960   21.9020 C   0  0  0  0  0  3  0  0  0  0  0  0
  -23.5990   -8.4010   22.0940 C   0  0  0  0  0  3  0  0  0  0  0  0
  -22.4190   -8.1670   21.3520 C   0  0  0  0  0  0  0  0  0  0  0  0
  -21.9990   -9.1200   20.4100 C   0  0  0  0  0  3  0  0  0  0  0  0
  -22.7300  -10.3060   20.2180 C   0  0  0  0  0  3  0  0  0  0  0  0
  -21.6610   -7.0190   21.4510 O   0  0  0  0  0  0  0  0  0  0  0  0
  -21.6230   -6.2810   22.6000 C   0  0  0  0  0  0  0  0  0  0  0  0
  -21.2290   -6.8400   23.8390 C   0  0  0  0  0  3  0  0  0  0  0  0
  -21.1400   -6.0260   24.9820 C   0  0  0  0  0  3  0  0  0  0  0  0
  -21.4390   -4.6520   24.8960 C   0  0  0  0  0  0  0  0  0  0  0  0
  -21.8250   -4.0920   23.6640 C   0  0  0  0  0  3  0  0  0  0  0  0
  -21.9180   -4.9030   22.5240 C   0  0  0  0  0  0  0  0  0  0  0  0
  -22.2720   -4.3560   21.3330 F   0  0  0  0  0  0  0  0  0  0  0  0
  -21.3450   -3.8680   25.9930 F   0  0  0  0  0  0  0  0  0  0  0  0
  -22.7790  -13.6580   21.0790 C   0  0  0  0  0  0  0  0  0  0  0  0
  -22.0490  -12.9770   21.9520 N   0  0  0  0  0  0  0  0  0  0  0  0
  -22.3470  -14.6830   20.5540 O   0  0  0  0  0  0  0  0  0  0  0  0
  -22.4050  -12.1430   22.3980 H   0  0  0  0  0  0  0  0  0  0  0  0
  -21.1150  -13.2900   22.1800 H   0  0  0  0  0  0  0  0  0  0  0  0
  -25.4110  -15.3060   20.2210 N   0  0  0  0  0  0  0  0  0  0  0  0
  -24.6470  -15.9640   20.3310 H   0  0  0  0  0  0  0  0  0  0  0  0
  -26.2590  -15.7260   19.8590 H   0  0  0  0  0  0  0  0  0  0  0  0
  -27.3300  -23.4990   20.1030 C   0  0  0  0  0  2  0  0  0  0  0  0
  -28.4760  -24.4590   19.7250 C   0  0  0  0  0  2  0  0  0  0  0  0
  -28.6940  -25.6500   20.6920 C   0  0  0  0  0  2  0  0  0  0  0  0
  -28.5070  -26.9210   20.0590 O   0  0  0  0  0  0  0  0  0  0  0  0
  -24.5980  -31.9320   23.2620 C   0  0  0  0  0  0  0  0  0  0  0  0
  -27.2800  -27.5370   20.1630 C   0  0  0  0  0  0  0  0  0  0  0  0
  -23.3860  -30.5250   21.6180 C   0  0  0  0  0  3  0  0  0  0  0  0
  -24.8470  -28.9800   20.2000 C   0  0  0  0  0  0  0  0  0  0  0  0
  -25.9000  -30.9000   21.4090 C   0  0  0  0  0  2  0  0  0  0  0  0
  -25.9950  -29.5270   20.7810 C   0  0  0  0  0  0  0  0  0  0  0  0
  -27.2120  -28.8150   20.7580 C   0  0  0  0  0  3  0  0  0  0  0  0
  -26.1130  -26.9870   19.5870 C   0  0  0  0  0  3  0  0  0  0  0  0
  -24.8970  -27.7030   19.6090 C   0  0  0  0  0  3  0  0  0  0  0  0
  -23.5920  -29.8260   20.2440 C   0  0  0  0  0  2  0  0  0  0  0  0
  -24.6450  -31.1360   22.1540 N   0  0  0  0  0  0  0  0  0  0  0  0
  -23.5220  -32.2030   23.8140 O   0  0  0  0  0  0  0  0  0  0  0  0
  -22.7480  -29.5100   22.5920 C   0  0  0  0  0  0  0  0  0  0  0  0
  -21.4240  -29.3160   22.4660 N   0  0  0  0  0  0  0  0  0  0  0  0
  -23.4380  -28.8940   23.4060 O   0  0  0  0  0  0  0  0  0  0  0  0
  -20.9240  -29.8650   21.7800 H   0  0  0  0  0  0  0  0  0  0  0  0
  -18.0740  -28.0550   22.9420 C   0  0  0  0  0  0  0  0  0  0  0  0
  -20.6200  -28.3630   23.2310 C   0  0  0  0  0  3  0  0  0  0  0  0
  -20.7570  -26.9320   22.6580 C   0  0  0  0  0  2  0  0  0  0  0  0
  -19.6660  -26.5710   21.6450 C   0  0  0  0  0  2  0  0  0  0  0  0
  -18.2800  -26.7050   22.2710 C   0  0  0  0  0  2  0  0  0  0  0  0
  -19.1760  -28.8390   23.3790 C   0  0  0  0  0  0  0  0  0  0  0  0
  -18.9280  -30.1000   23.9650 C   0  0  0  0  0  3  0  0  0  0  0  0
  -17.6120  -30.5790   24.1150 C   0  0  0  0  0  3  0  0  0  0  0  0
  -16.5260  -29.7930   23.6920 C   0  0  0  0  0  3  0  0  0  0  0  0
  -16.7620  -28.5360   23.1120 C   0  0  0  0  0  3  0  0  0  0  0  0
  -25.8890  -32.5640   23.8730 C   0  0  0  0  0  3  0  0  0  0  0  0
  -25.5820  -33.9650   24.2010 N   0  0  0  0  0  0  0  0  0  0  0  0
  -25.9090  -35.0120   23.4360 C   0  0  0  0  0  0  0  0  0  0  0  0
  -26.5740  -34.9060   22.4020 O   0  0  0  0  0  0  0  0  0  0  0  0
  -24.9950  -34.1190   25.0070 H   0  0  0  0  0  0  0  0  0  0  0  0
  -24.1770  -36.8000   23.0780 C   0  0  0  0  0  1  0  0  0  0  0  0
  -25.4200  -36.4010   23.8890 C   0  0  0  0  0  3  0  0  0  0  0  0
  -27.5560  -37.2910   24.7120 C   0  0  0  0  0  1  0  0  0  0  0  0
  -26.4500  -37.4550   23.7720 N   0  0  0  0  0  0  0  0  0  0  0  0
  -26.0430  -38.3740   23.9190 H   0  0  0  0  0  0  0  0  0  0  0  0
  -26.4210  -31.7970   25.1470 C   0  0  1  0  0  0  0  0  0  0  0  0
  -25.3390  -31.5600   26.2250 C   0  0  0  0  0  1  0  0  0  0  0  0
  -27.0030  -30.4180   24.7530 C   0  0  0  0  0  1  0  0  0  0  0  0
  -27.5730  -32.5950   25.7990 C   0  0  0  0  0  1  0  0  0  0  0  0
  2  1  1  0
  3  2  1  0
  4  3  1  0
  4  5  2  0
  6 15  1  0
  6  5  1  0
  7 15  1  0
  8 13  1  0
  9 10  1  0
  9  8  1  0
 11 10  1  0
 11 20  1  0
 11 12  1  0
 13  7  1  0
 13 12  1  0
 14  7  2  0
 15 16  1  0
 17 18  2  0
 18 37  1  0
 19 18  1  0
 19 22  1  0
 20 17  1  0
 20 21  1  0
 21 19  2  0
 22 23  1  0
 23 24  2  0
 25 28  1  0
 25 24  1  0
 26 25  2  0
 27 26  1  0
 27 22  2  0
 28 29  1  0
 29 30  1  0
 30 31  2  0
 32 31  1  0
 32 36  1  0
 33 32  2  0
 34 29  2  0
 34 33  1  0
 35 34  1  0
 37 38  1  0
 38 41  1  0
 38 40  1  0
 39 37  2  0
 42 43  1  0
 42 17  1  0
 44 42  1  0
 45  1  1  0
 46 45  1  0
 46 47  1  0
 48 50  1  0
 48 47  1  0
 49 60  2  0
 50 55  1  0
 51 59  1  0
 51 61  1  0
 52 58  1  0
 52 54  1  0
 53 59  1  0
 54 53  1  0
 55 54  2  0
 56 57  1  0
 56 50  2  0
 57 52  2  0
 58 51  1  0
 59 49  1  0
 61 63  2  0
 62 61  1  0
 64 62  1  0
 65 74  2  0
 65 70  1  0
 66 62  1  0
 66 70  1  0
 67 66  1  0
 68 69  1  0
 68 67  1  0
 69 65  1  0
 70 71  2  0
 71 72  1  0
 73 72  2  0
 74 73  1  0
 75 49  1  0
 75 76  1  0
 75 85  1  0
 76 79  1  0
 77 81  1  0
 77 76  1  0
 78 77  2  0
 81 80  1  0
 83 81  1  0
 83 84  1  0
 83 82  1  0
 85 88  1  1
 85 86  1  0
 87 85  1  0
M  ISO  4   7 100  15 100  47 101  48 101
M  END
>  <TORSDO>  (43) 
F 23

>  <SCORE>  (43) 
-12.452

>  <name>  (43) 
42

>  <ligand_id>  (43) 
42

>  <original_smiles>  (43) 
[H]C(=C([H])C([H])([H])C([H])([H])C([H])([H])C([H])([H])C([H])([H])C([H])([H])Oc1c([H])c([H])c2c(c1[H])C([H])([H])N(C(=O)C([H])(N([H])C(=O)C([H])(N([H])C([H])([H])[H])C([H])([H])[H])C(C([H])([H])[H])(C([H])([H])[H])C([H])([H])[H])C([H])(C(=O)N([H])C1([H])c3c([H])c([H])c([H])c([H])c3C([H])([H])C([H])([H])C1([H])[H])C2([H])[H])C([H])([H])N([H])C(=O)N1C([H])([H])C([H])([H])C([H])([H])C([H])(n2nc(-c3c([H])c([H])c(Oc4c([H])c([H])c(F)c([H])c4F)c([H])c3[H])c(C(=O)N([H])[H])c2N([H])[H])C1([H])[H]

>  <smiles>  (43) 
[H]C(=C([H])C([H])([H])C([H])([H])C([H])([H])C([H])([H])C([H])([H])C([H])([H])Oc1c([H])c([H])c2c(c1[H])C([H])([H])N(C(=O)C([H])(N([H])C(=O)C([H])(N([H])C([H])([H])[H])C([H])([H])[H])C(C([H])([H])[H])(C([H])([H])[H])C([H])([H])[H])C([H])(C(=O)N([H])C1([H])c3c([H])c([H])c([H])c([H])c3C([H])([H])C([H])([H])C1([H])[H])C2([H])[H])C([H])([H])N([H])C(=O)N1C([H])([H])C([H])([H])C([H])([H])C([H])(n2nc(-c3c([H])c([H])c(Oc4c([H])c([H])c(F)c([H])c4F)c([H])c3[H])c(C(=O)N([H])[H])c2N([H])[H])C1([H])[H]

$$$$
43:0:0
     RDKit          3D

 99107  0  0  1  0  0  0  0  0999 V2000
  -30.4510  -19.2660   20.7840 C   0  0  0  0  0  3  0  0  0  0  0  0
  -30.7650  -20.4730   22.8730 C   0  0  0  0  0  3  0  0  0  0  0  0
  -29.6990  -20.3480   20.2780 C   0  0  0  0  0  3  0  0  0  0  0  0
  -30.0040  -21.5510   22.3700 C   0  0  0  0  0  3  0  0  0  0  0  0
  -30.9830  -19.3210   22.0880 C   0  0  0  0  0  0  0  0  0  0  0  0
  -29.4620  -21.4980   21.0660 C   0  0  0  0  0  0  0  0  0  0  0  0
  -31.7650  -18.1440   22.6620 C   0  0  0  0  0  2  0  0  0  0  0  0
  -30.9500  -16.8310   22.6330 C   0  0  0  0  0  2  0  0  0  0  0  0
  -31.5780  -15.6760   23.4210 C   0  0  0  0  0  0  0  0  0  0  0  0
  -31.2670  -14.4420   23.0050 N   0  0  0  0  0  0  0  0  0  0  0  0
  -32.3130  -15.8810   24.3890 O   0  0  0  0  0  0  0  0  0  0  0  0
  -30.6540  -14.3650   22.2030 H   0  0  0  0  0  0  0  0  0  0  0  0
  -31.7500  -13.1910   23.5790 C   0  0  0  0  0  2  0  0  0  0  0  0
  -32.8790  -12.5710   22.7370 C   0  0  0  0  0  2  0  0  0  0  0  0
  -32.4050  -11.9290   21.4130 C   0  0  0  0  0  2  0  0  0  0  0  0
  -33.4730  -11.9710   20.3070 C   0  0  0  0  0  2  0  0  0  0  0  0
  -33.7590  -13.3960   19.7770 C   0  0  0  0  0  2  0  0  0  0  0  0
  -32.0630  -13.5530   18.0640 C   0  0  0  0  0  0  0  0  0  0  0  0
  -30.9180  -11.5390   17.2420 C   0  0  0  0  0  2  0  0  0  0  0  0
  -29.5580  -11.7550   16.5640 C   0  0  0  0  0  2  0  0  0  0  0  0
  -28.4400  -11.8210   17.6100 C   0  0  0  0  0  2  0  0  0  0  0  0
  -28.7430  -12.8480   18.7260 C   0  0  0  0  0  3  0  0  0  0  0  0
  -30.1370  -12.5720   19.3360 C   0  0  0  0  0  2  0  0  0  0  0  0
  -31.1430  -12.5790   18.2550 N   0  0  0  0  0  0  0  0  0  0  0  0
  -32.5670  -13.8300   16.9700 O   0  0  0  0  0  0  0  0  0  0  0  0
  -32.5830  -14.0410   19.1920 N   0  0  0  0  0  0  0  0  0  0  0  0
  -32.7420  -15.0340   19.1080 H   0  0  0  0  0  0  0  0  0  0  0  0
  -27.3040  -13.8230   20.6340 C   0  0  0  0  0  0  0  0  0  0  0  0
  -26.2070  -13.3350   21.2910 C   0  0  0  0  0  0  0  0  0  0  0  0
  -25.9560  -12.0420   20.7310 C   0  0  0  0  0  0  0  0  0  0  0  0
  -27.6840  -12.8370   19.7350 N   0  0  0  0  0  0  0  0  0  0  0  0
  -26.8880  -11.7420   19.8370 N   0  0  0  0  0  0  0  0  0  0  0  0
  -24.8550  -11.0970   20.9580 C   0  0  0  0  0  0  0  0  0  0  0  0
  -25.0910   -9.8010   21.4740 C   0  0  0  0  0  3  0  0  0  0  0  0
  -24.0170   -8.9130   21.6970 C   0  0  0  0  0  3  0  0  0  0  0  0
  -22.6930   -9.3200   21.4100 C   0  0  0  0  0  0  0  0  0  0  0  0
  -22.4660  -10.6000   20.8740 C   0  0  0  0  0  3  0  0  0  0  0  0
  -23.5350  -11.4810   20.6470 C   0  0  0  0  0  3  0  0  0  0  0  0
  -21.5930   -8.5130   21.5680 O   0  0  0  0  0  0  0  0  0  0  0  0
  -21.5250   -7.5800   22.5690 C   0  0  0  0  0  0  0  0  0  0  0  0
  -21.6360   -7.9350   23.9310 C   0  0  0  0  0  3  0  0  0  0  0  0
  -21.4870   -6.9520   24.9290 C   0  0  0  0  0  3  0  0  0  0  0  0
  -21.2240   -5.6160   24.5730 C   0  0  0  0  0  0  0  0  0  0  0  0
  -21.1130   -5.2620   23.2160 C   0  0  0  0  0  3  0  0  0  0  0  0
  -21.2580   -6.2410   22.2190 C   0  0  0  0  0  0  0  0  0  0  0  0
  -21.1270   -5.8980   20.9150 F   0  0  0  0  0  0  0  0  0  0  0  0
  -21.0760   -4.6710   25.5310 F   0  0  0  0  0  0  0  0  0  0  0  0
  -25.3740  -14.0540   22.3120 C   0  0  0  0  0  0  0  0  0  0  0  0
  -24.8120  -13.3210   23.2660 N   0  0  0  0  0  0  0  0  0  0  0  0
  -25.2590  -15.2790   22.3000 O   0  0  0  0  0  0  0  0  0  0  0  0
  -24.9200  -12.3160   23.2800 H   0  0  0  0  0  0  0  0  0  0  0  0
  -24.2590  -13.7650   23.9840 H   0  0  0  0  0  0  0  0  0  0  0  0
  -28.0020  -15.0260   20.7120 N   0  0  0  0  0  0  0  0  0  0  0  0
  -27.7330  -15.7810   21.3320 H   0  0  0  0  0  0  0  0  0  0  0  0
  -28.7820  -15.2640   20.1120 H   0  0  0  0  0  0  0  0  0  0  0  0
  -28.5230  -22.5780   20.5360 C   0  0  0  0  0  2  0  0  0  0  0  0
  -28.9490  -24.0630   20.6830 C   0  0  0  0  0  2  0  0  0  0  0  0
  -27.8850  -24.9700   20.0440 C   0  0  0  0  0  2  0  0  0  0  0  0
  -28.1000  -26.3820   20.2170 O   0  0  0  0  0  0  0  0  0  0  0  0
  -24.5950  -31.8510   23.1690 C   0  0  0  0  0  0  0  0  0  0  0  0
  -26.9720  -27.1880   20.1750 C   0  0  0  0  0  0  0  0  0  0  0  0
  -23.3010  -30.4590   21.5900 C   0  0  0  0  0  3  0  0  0  0  0  0
  -24.6550  -28.8250   20.1860 C   0  0  0  0  0  0  0  0  0  0  0  0
  -25.8400  -30.6850   21.3510 C   0  0  0  0  0  2  0  0  0  0  0  0
  -25.8480  -29.2950   20.7480 C   0  0  0  0  0  0  0  0  0  0  0  0
  -27.0070  -28.4830   20.7450 C   0  0  0  0  0  3  0  0  0  0  0  0
  -25.7590  -26.7530   19.5810 C   0  0  0  0  0  3  0  0  0  0  0  0
  -24.6050  -27.5520   19.6010 C   0  0  0  0  0  3  0  0  0  0  0  0
  -23.4560  -29.7430   20.2250 C   0  0  0  0  0  2  0  0  0  0  0  0
  -24.5990  -31.0130   22.0950 N   0  0  0  0  0  0  0  0  0  0  0  0
  -23.5370  -32.1910   23.7150 O   0  0  0  0  0  0  0  0  0  0  0  0
  -22.6190  -29.4930   22.5870 C   0  0  0  0  0  0  0  0  0  0  0  0
  -21.3020  -29.2870   22.4170 N   0  0  0  0  0  0  0  0  0  0  0  0
  -23.2720  -28.9320   23.4710 O   0  0  0  0  0  0  0  0  0  0  0  0
  -20.8370  -29.7920   21.6750 H   0  0  0  0  0  0  0  0  0  0  0  0
  -17.9200  -28.0940   22.8450 C   0  0  0  0  0  0  0  0  0  0  0  0
  -20.4610  -28.3960   23.2140 C   0  0  0  0  0  3  0  0  0  0  0  0
  -20.6020  -26.9310   22.7460 C   0  0  0  0  0  2  0  0  0  0  0  0
  -19.5500  -26.5240   21.7080 C   0  0  0  0  0  2  0  0  0  0  0  0
  -18.1380  -26.7010   22.2770 C   0  0  0  0  0  2  0  0  0  0  0  0
  -19.0110  -28.8940   23.2700 C   0  0  0  0  0  0  0  0  0  0  0  0
  -18.7560  -30.1950   23.7580 C   0  0  0  0  0  3  0  0  0  0  0  0
  -17.4420  -30.6930   23.8260 C   0  0  0  0  0  3  0  0  0  0  0  0
  -16.3640  -29.8880   23.4200 C   0  0  0  0  0  3  0  0  0  0  0  0
  -16.6030  -28.5910   22.9330 C   0  0  0  0  0  3  0  0  0  0  0  0
  -25.9200  -32.4390   23.7490 C   0  0  0  0  0  3  0  0  0  0  0  0
  -25.6380  -33.8090   24.1920 N   0  0  0  0  0  0  0  0  0  0  0  0
  -25.9090  -34.9100   23.4780 C   0  0  0  0  0  0  0  0  0  0  0  0
  -26.4990  -34.8770   22.3940 O   0  0  0  0  0  0  0  0  0  0  0  0
  -25.1060  -33.9090   25.0450 H   0  0  0  0  0  0  0  0  0  0  0  0
  -24.1490  -36.7030   23.3800 C   0  0  0  0  0  1  0  0  0  0  0  0
  -25.4550  -36.2620   24.0590 C   0  0  0  0  0  3  0  0  0  0  0  0
  -27.6480  -37.1120   24.7640 C   0  0  0  0  0  1  0  0  0  0  0  0
  -26.4700  -37.3300   23.9280 N   0  0  0  0  0  0  0  0  0  0  0  0
  -26.0740  -38.2350   24.1690 H   0  0  0  0  0  0  0  0  0  0  0  0
  -26.5150  -31.5800   24.9310 C   0  0  1  0  0  0  0  0  0  0  0  0
  -25.4750  -31.2070   26.0130 C   0  0  0  0  0  1  0  0  0  0  0  0
  -27.1320  -30.2660   24.3950 C   0  0  0  0  0  1  0  0  0  0  0  0
  -27.6600  -32.3590   25.6200 C   0  0  0  0  0  1  0  0  0  0  0  0
  1  5  1  0
  3  1  2  0
  3  6  1  0
  4  2  1  0
  5  7  1  0
  5  2  2  0
  6  4  2  0
  8  7  1  0
  8  9  1  0
  9 11  2  0
 10  9  1  0
 10 13  1  0
 12 10  1  0
 14 13  1  0
 15 14  1  0
 16 15  1  0
 17 16  1  0
 18 24  1  0
 18 26  1  0
 19 24  1  0
 20 19  1  0
 20 21  1  0
 22 21  1  0
 22 23  1  0
 22 31  1  0
 24 23  1  0
 25 18  2  0
 26 17  1  0
 27 26  1  0
 28 53  1  0
 28 29  2  0
 29 48  1  0
 30 33  1  0
 30 29  1  0
 31 32  1  0
 31 28  1  0
 32 30  2  0
 33 34  1  0
 34 35  2  0
 36 39  1  0
 36 35  1  0
 37 36  2  0
 38 37  1  0
 38 33  2  0
 39 40  1  0
 40 41  1  0
 41 42  2  0
 43 42  1  0
 43 47  1  0
 44 43  2  0
 45 40  2  0
 45 44  1  0
 46 45  1  0
 48 49  1  0
 49 51  1  0
 49 52  1  0
 50 48  2  0
 53 54  1  0
 55 53  1  0
 56 57  1  0
 56  6  1  0
 58 59  1  0
 58 57  1  0
 60 71  2  0
 61 59  1  0
 61 66  1  0
 62 70  1  0
 62 72  1  0
 63 69  1  0
 63 65  1  0
 64 70  1  0
 65 64  1  0
 66 65  2  0
 67 68  1  0
 67 61  2  0
 68 63  2  0
 69 62  1  0
 70 60  1  0
 72 74  2  0
 73 72  1  0
 75 73  1  0
 76 85  2  0
 76 81  1  0
 77 73  1  0
 77 81  1  0
 78 77  1  0
 79 80  1  0
 79 78  1  0
 80 76  1  0
 81 82  2  0
 82 83  1  0
 84 83  2  0
 85 84  1  0
 86 60  1  0
 86 87  1  0
 86 96  1  0
 87 90  1  0
 88 92  1  0
 88 87  1  0
 89 88  2  0
 92 91  1  0
 94 92  1  0
 94 95  1  0
 94 93  1  0
 96 99  1  1
 96 97  1  0
 98 96  1  0
M  ISO  4  18 100  26 100  58 101  59 101
M  END
>  <TORSDO>  (44) 
F 27

>  <SCORE>  (44) 
6.104

>  <name>  (44) 
43

>  <ligand_id>  (44) 
43

>  <original_smiles>  (44) 
[H]c1c([H])c([H])c2c(c1[H])C([H])([H])C([H])([H])C([H])([H])C2([H])N([H])C(=O)C1([H])N(C(=O)C([H])(N([H])C(=O)C([H])(N([H])C([H])([H])[H])C([H])([H])[H])C(C([H])([H])[H])(C([H])([H])[H])C([H])([H])[H])C([H])([H])c2c([H])c(OC([H])([H])C([H])([H])C([H])([H])c3c([H])c([H])c(C([H])([H])C([H])([H])C(=O)N([H])C([H])([H])C([H])([H])C([H])([H])C([H])([H])C([H])([H])N([H])C(=O)N4C([H])([H])C([H])([H])C([H])([H])C([H])(n5nc(-c6c([H])c([H])c(Oc7c([H])c([H])c(F)c([H])c7F)c([H])c6[H])c(C(=O)N([H])[H])c5N([H])[H])C4([H])[H])c([H])c3[H])c([H])c([H])c2C1([H])[H]

>  <smiles>  (44) 
[H]c1c([H])c([H])c2c(c1[H])C([H])([H])C([H])([H])C([H])([H])C2([H])N([H])C(=O)C1([H])N(C(=O)C([H])(N([H])C(=O)C([H])(N([H])C([H])([H])[H])C([H])([H])[H])C(C([H])([H])[H])(C([H])([H])[H])C([H])([H])[H])C([H])([H])c2c([H])c(OC([H])([H])C([H])([H])C([H])([H])c3c([H])c([H])c(C([H])([H])C([H])([H])C(=O)N([H])C([H])([H])C([H])([H])C([H])([H])C([H])([H])C([H])([H])N([H])C(=O)N4C([H])([H])C([H])([H])C([H])([H])C([H])(n5nc(-c6c([H])c([H])c(Oc7c([H])c([H])c(F)c([H])c7F)c([H])c6[H])c(C(=O)N([H])[H])c5N([H])[H])C4([H])[H])c([H])c3[H])c([H])c([H])c2C1([H])[H]

$$$$
44:0:0
     RDKit          3D

 90 97  0  0  1  0  0  0  0  0999 V2000
  -30.4490  -21.6680   22.9140 C   0  0  0  0  0  2  0  0  0  0  0  0
  -30.7420  -22.9790   22.1800 C   0  0  0  0  0  2  0  0  0  0  0  0
  -29.4400  -23.5780   21.6430 C   0  0  0  0  0  2  0  0  0  0  0  0
  -29.6250  -24.9300   20.9540 C   0  0  0  0  0  2  0  0  0  0  0  0
  -28.3010  -25.4150   20.3660 C   0  0  0  0  0  2  0  0  0  0  0  0
  -28.4180  -26.7940   20.0680 O   0  0  0  0  0  0  0  0  0  0  0  0
  -24.6100  -31.8720   23.2140 C   0  0  0  0  0  0  0  0  0  0  0  0
  -27.2340  -27.4870   20.0760 C   0  0  0  0  0  0  0  0  0  0  0  0
  -23.3940  -30.4960   21.5550 C   0  0  0  0  0  3  0  0  0  0  0  0
  -24.8380  -28.9680   20.1160 C   0  0  0  0  0  0  0  0  0  0  0  0
  -25.9180  -30.8520   21.3580 C   0  0  0  0  0  2  0  0  0  0  0  0
  -25.9960  -29.4910   20.7040 C   0  0  0  0  0  0  0  0  0  0  0  0
  -27.1980  -28.7570   20.6810 C   0  0  0  0  0  3  0  0  0  0  0  0
  -26.0590  -26.9630   19.4900 C   0  0  0  0  0  3  0  0  0  0  0  0
  -24.8610  -27.7000   19.5090 C   0  0  0  0  0  3  0  0  0  0  0  0
  -23.5970  -29.8270   20.1690 C   0  0  0  0  0  2  0  0  0  0  0  0
  -24.6590  -31.0850   22.1020 N   0  0  0  0  0  0  0  0  0  0  0  0
  -23.5300  -32.1450   23.7570 O   0  0  0  0  0  0  0  0  0  0  0  0
  -22.7380  -29.4670   22.5030 C   0  0  0  0  0  0  0  0  0  0  0  0
  -21.4110  -29.3020   22.3770 N   0  0  0  0  0  0  0  0  0  0  0  0
  -23.4170  -28.8220   23.3050 O   0  0  0  0  0  0  0  0  0  0  0  0
  -20.9260  -29.8750   21.7010 H   0  0  0  0  0  0  0  0  0  0  0  0
  -18.0260  -28.1380   22.8500 C   0  0  0  0  0  0  0  0  0  0  0  0
  -20.5850  -28.3650   23.1350 C   0  0  0  0  0  3  0  0  0  0  0  0
  -20.6760  -26.9390   22.5430 C   0  0  0  0  0  2  0  0  0  0  0  0
  -19.5730  -26.6380   21.5230 C   0  0  0  0  0  2  0  0  0  0  0  0
  -18.1910  -26.7920   22.1630 C   0  0  0  0  0  2  0  0  0  0  0  0
  -19.1510  -28.8830   23.2920 C   0  0  0  0  0  0  0  0  0  0  0  0
  -18.9440  -30.1440   23.8930 C   0  0  0  0  0  3  0  0  0  0  0  0
  -17.6450  -30.6580   24.0570 C   0  0  0  0  0  3  0  0  0  0  0  0
  -16.5340  -29.9090   23.6330 C   0  0  0  0  0  3  0  0  0  0  0  0
  -16.7250  -28.6510   23.0350 C   0  0  0  0  0  3  0  0  0  0  0  0
  -25.9010  -32.4840   23.8410 C   0  0  0  0  0  3  0  0  0  0  0  0
  -26.4460  -31.6610   25.0720 C   0  0  1  0  0  0  0  0  0  0  0  0
  -25.3750  -31.3710   26.1480 C   0  0  0  0  0  1  0  0  0  0  0  0
  -27.0280  -30.3060   24.6050 C   0  0  0  0  0  1  0  0  0  0  0  0
  -27.6040  -32.4320   25.7480 C   0  0  0  0  0  1  0  0  0  0  0  0
  -25.5890  -33.8640   24.2350 N   0  0  0  0  0  0  0  0  0  0  0  0
  -25.9030  -34.9490   23.5140 C   0  0  0  0  0  0  0  0  0  0  0  0
  -26.5580  -34.8930   22.4690 O   0  0  0  0  0  0  0  0  0  0  0  0
  -25.0060  -33.9810   25.0510 H   0  0  0  0  0  0  0  0  0  0  0  0
  -24.1490  -36.7320   23.2640 C   0  0  0  0  0  1  0  0  0  0  0  0
  -25.4110  -36.3120   24.0340 C   0  0  0  0  0  3  0  0  0  0  0  0
  -27.5580  -37.1810   24.8460 C   0  0  0  0  0  1  0  0  0  0  0  0
  -26.4300  -37.3800   23.9410 N   0  0  0  0  0  0  0  0  0  0  0  0
  -26.0200  -38.2880   24.1410 H   0  0  0  0  0  0  0  0  0  0  0  0
  -31.6870  -20.7880   23.1040 C   0  0  0  0  0  2  0  0  0  0  0  0
  -31.2900  -19.3860   23.5780 C   0  0  0  0  0  2  0  0  0  0  0  0
  -32.3760  -18.3410   23.3120 C   0  0  0  0  0  2  0  0  0  0  0  0
  -31.8190  -16.9170   23.4140 C   0  0  0  0  0  2  0  0  0  0  0  0
  -32.8010  -15.8810   22.8620 C   0  0  0  0  0  2  0  0  0  0  0  0
  -32.2480  -14.4490   22.8830 C   0  0  0  0  0  2  0  0  0  0  0  0
  -30.9030  -14.1820   20.8060 C   0  0  0  0  0  0  0  0  0  0  0  0
  -30.3980  -12.2840   19.3420 C   0  0  0  0  0  2  0  0  0  0  0  0
  -29.4530  -12.5420   18.1620 C   0  0  0  0  0  2  0  0  0  0  0  0
  -27.9920  -12.3770   18.6060 C   0  0  0  0  0  2  0  0  0  0  0  0
  -27.6630  -13.2070   19.8730 C   0  0  0  0  0  3  0  0  0  0  0  0
  -28.7080  -12.9780   20.9880 C   0  0  0  0  0  2  0  0  0  0  0  0
  -30.0580  -13.1960   20.4390 N   0  0  0  0  0  0  0  0  0  0  0  0
  -31.7550  -14.6750   20.0600 O   0  0  0  0  0  0  0  0  0  0  0  0
  -30.9990  -14.2650   22.1390 N   0  0  0  0  0  0  0  0  0  0  0  0
  -30.2580  -13.7970   22.6410 H   0  0  0  0  0  0  0  0  0  0  0  0
  -25.2590  -13.8180   20.5690 C   0  0  0  0  0  0  0  0  0  0  0  0
  -24.1840  -13.0450   20.9170 C   0  0  0  0  0  0  0  0  0  0  0  0
  -24.6400  -11.6910   20.8720 C   0  0  0  0  0  0  0  0  0  0  0  0
  -26.3040  -12.9350   20.3400 N   0  0  0  0  0  0  0  0  0  0  0  0
  -25.9330  -11.6510   20.5770 N   0  0  0  0  0  0  0  0  0  0  0  0
  -23.9060  -10.4300   21.0390 C   0  0  0  0  0  0  0  0  0  0  0  0
  -24.3610   -9.4210   21.9170 C   0  0  0  0  0  3  0  0  0  0  0  0
  -23.6290   -8.2250   22.0750 C   0  0  0  0  0  3  0  0  0  0  0  0
  -22.4270   -8.0280   21.3540 C   0  0  0  0  0  0  0  0  0  0  0  0
  -21.9900   -9.0250   20.4640 C   0  0  0  0  0  3  0  0  0  0  0  0
  -22.7230  -10.2130   20.3050 C   0  0  0  0  0  3  0  0  0  0  0  0
  -21.6640   -6.8880   21.4240 O   0  0  0  0  0  0  0  0  0  0  0  0
  -21.6850   -6.0730   22.5280 C   0  0  0  0  0  0  0  0  0  0  0  0
  -21.4010   -6.5640   23.8210 C   0  0  0  0  0  3  0  0  0  0  0  0
  -21.3660   -5.6790   24.9180 C   0  0  0  0  0  3  0  0  0  0  0  0
  -21.6040   -4.3060   24.7230 C   0  0  0  0  0  0  0  0  0  0  0  0
  -21.8820   -3.8140   23.4350 C   0  0  0  0  0  3  0  0  0  0  0  0
  -21.9190   -4.6960   22.3400 C   0  0  0  0  0  0  0  0  0  0  0  0
  -22.1660   -4.2140   21.0980 F   0  0  0  0  0  0  0  0  0  0  0  0
  -21.5630   -3.4540   25.7740 F   0  0  0  0  0  0  0  0  0  0  0  0
  -22.7870  -13.5240   21.1840 C   0  0  0  0  0  0  0  0  0  0  0  0
  -22.0510  -12.8230   22.0400 N   0  0  0  0  0  0  0  0  0  0  0  0
  -22.3550  -14.5550   20.6700 O   0  0  0  0  0  0  0  0  0  0  0  0
  -22.4130  -11.9880   22.4770 H   0  0  0  0  0  0  0  0  0  0  0  0
  -21.1130  -13.1260   22.2620 H   0  0  0  0  0  0  0  0  0  0  0  0
  -25.4330  -15.1890   20.4100 N   0  0  0  0  0  0  0  0  0  0  0  0
  -24.6740  -15.8520   20.5240 H   0  0  0  0  0  0  0  0  0  0  0  0
  -26.2990  -15.6250   20.1160 H   0  0  0  0  0  0  0  0  0  0  0  0
  1 47  1  0
  2  1  1  0
  3  2  1  0
  4  3  1  0
  5  4  1  0
  6  8  1  0
  6  5  1  0
  7 18  2  0
  8 13  1  0
  9 17  1  0
  9 19  1  0
 10 16  1  0
 10 12  1  0
 11 17  1  0
 12 11  1  0
 13 12  2  0
 14 15  1  0
 14  8  2  0
 15 10  2  0
 16  9  1  0
 17  7  1  0
 19 21  2  0
 20 19  1  0
 22 20  1  0
 23 32  2  0
 23 28  1  0
 24 20  1  0
 24 28  1  0
 25 24  1  0
 26 27  1  0
 26 25  1  0
 27 23  1  0
 28 29  2  0
 29 30  1  0
 31 30  2  0
 32 31  1  0
 33  7  1  0
 33 38  1  0
 33 34  1  0
 34 37  1  1
 34 35  1  0
 36 34  1  0
 38 41  1  0
 39 43  1  0
 39 38  1  0
 40 39  2  0
 43 42  1  0
 45 43  1  0
 45 46  1  0
 45 44  1  0
 47 48  1  0
 49 50  1  0
 49 48  1  0
 51 52  1  0
 51 50  1  0
 53 61  1  0
 54 59  1  0
 55 56  1  0
 55 54  1  0
 57 56  1  0
 57 66  1  0
 57 58  1  0
 59 53  1  0
 59 58  1  0
 60 53  2  0
 61 62  1  0
 61 52  1  0
 63 64  2  0
 64 83  1  0
 65 64  1  0
 65 68  1  0
 66 63  1  0
 66 67  1  0
 67 65  2  0
 68 69  1  0
 69 70  2  0
 71 74  1  0
 71 70  1  0
 72 71  2  0
 73 72  1  0
 73 68  2  0
 74 75  1  0
 75 76  1  0
 76 77  2  0
 78 77  1  0
 78 82  1  0
 79 78  2  0
 80 75  2  0
 80 79  1  0
 81 80  1  0
 83 84  1  0
 84 87  1  0
 84 86  1  0
 85 83  2  0
 88 89  1  0
 88 63  1  0
 90 88  1  0
M  ISO  4   5 101   6 101  53 100  61 100
M  END
>  <TORSDO>  (45) 
F 26

>  <SCORE>  (45) 
-0.764

>  <name>  (45) 
44

>  <ligand_id>  (45) 
44

>  <original_smiles>  (45) 
[H]c1c([H])c([H])c2c(c1[H])C([H])([H])C([H])([H])C([H])([H])C2([H])N([H])C(=O)C1([H])N(C(=O)C([H])(N([H])C(=O)C([H])(N([H])C([H])([H])[H])C([H])([H])[H])C(C([H])([H])[H])(C([H])([H])[H])C([H])([H])[H])C([H])([H])c2c([H])c(OC([H])([H])C([H])([H])C([H])([H])C([H])([H])C([H])([H])C([H])([H])C([H])([H])C([H])([H])C([H])([H])C([H])([H])C([H])([H])N([H])C(=O)N3C([H])([H])C([H])([H])C([H])([H])C([H])(n4nc(-c5c([H])c([H])c(Oc6c([H])c([H])c(F)c([H])c6F)c([H])c5[H])c(C(=O)N([H])[H])c4N([H])[H])C3([H])[H])c([H])c([H])c2C1([H])[H]

>  <smiles>  (45) 
[H]c1c([H])c([H])c2c(c1[H])C([H])([H])C([H])([H])C([H])([H])C2([H])N([H])C(=O)C1([H])N(C(=O)C([H])(N([H])C(=O)C([H])(N([H])C([H])([H])[H])C([H])([H])[H])C(C([H])([H])[H])(C([H])([H])[H])C([H])([H])[H])C([H])([H])c2c([H])c(OC([H])([H])C([H])([H])C([H])([H])C([H])([H])C([H])([H])C([H])([H])C([H])([H])C([H])([H])C([H])([H])C([H])([H])C([H])([H])N([H])C(=O)N3C([H])([H])C([H])([H])C([H])([H])C([H])(n4nc(-c5c([H])c([H])c(Oc6c([H])c([H])c(F)c([H])c6F)c([H])c5[H])c(C(=O)N([H])[H])c4N([H])[H])C3([H])[H])c([H])c([H])c2C1([H])[H]

$$$$
45:0:0
     RDKit          3D

 95102  0  0  1  0  0  0  0  0999 V2000
  -25.9820  -24.1490   24.4390 C   0  0  0  0  0  0  0  0  0  0  0  0
  -26.8380  -24.7210   23.5770 N   0  0  0  0  0  0  0  0  0  0  0  0
  -26.2350  -24.1260   25.6440 O   0  0  0  0  0  0  0  0  0  0  0  0
  -27.6870  -25.1020   23.9700 H   0  0  0  0  0  0  0  0  0  0  0  0
  -26.6990  -24.8380   22.1280 C   0  0  0  0  0  2  0  0  0  0  0  0
  -28.0660  -24.7760   21.4180 C   0  0  0  0  0  2  0  0  0  0  0  0
  -28.7790  -26.1340   21.2900 C   0  0  0  0  0  2  0  0  0  0  0  0
  -28.4090  -26.7570   20.0580 O   0  0  0  0  0  0  0  0  0  0  0  0
  -24.6120  -31.8700   23.2010 C   0  0  0  0  0  0  0  0  0  0  0  0
  -27.2430  -27.4740   20.0980 C   0  0  0  0  0  0  0  0  0  0  0  0
  -23.3900  -30.4950   21.5410 C   0  0  0  0  0  3  0  0  0  0  0  0
  -24.8410  -28.9520   20.1200 C   0  0  0  0  0  0  0  0  0  0  0  0
  -25.9110  -30.8470   21.3430 C   0  0  0  0  0  2  0  0  0  0  0  0
  -25.9950  -29.4740   20.7180 C   0  0  0  0  0  0  0  0  0  0  0  0
  -27.1960  -28.7360   20.7230 C   0  0  0  0  0  3  0  0  0  0  0  0
  -26.0820  -26.9600   19.4830 C   0  0  0  0  0  3  0  0  0  0  0  0
  -24.8740  -27.6830   19.5150 C   0  0  0  0  0  3  0  0  0  0  0  0
  -23.6000  -29.8170   20.1610 C   0  0  0  0  0  2  0  0  0  0  0  0
  -24.6550  -31.0810   22.0900 N   0  0  0  0  0  0  0  0  0  0  0  0
  -23.5340  -32.1470   23.7480 O   0  0  0  0  0  0  0  0  0  0  0  0
  -22.7310  -29.4730   22.4950 C   0  0  0  0  0  0  0  0  0  0  0  0
  -21.4010  -29.3140   22.3690 N   0  0  0  0  0  0  0  0  0  0  0  0
  -23.4090  -28.8280   23.3020 O   0  0  0  0  0  0  0  0  0  0  0  0
  -20.9150  -29.8920   21.6960 H   0  0  0  0  0  0  0  0  0  0  0  0
  -18.0140  -28.1400   22.8460 C   0  0  0  0  0  0  0  0  0  0  0  0
  -20.5700  -28.3830   23.1300 C   0  0  0  0  0  3  0  0  0  0  0  0
  -20.6660  -26.9490   22.5610 C   0  0  0  0  0  2  0  0  0  0  0  0
  -19.5640  -26.6240   21.5450 C   0  0  0  0  0  2  0  0  0  0  0  0
  -18.1820  -26.7860   22.1790 C   0  0  0  0  0  2  0  0  0  0  0  0
  -19.1350  -28.8930   23.2830 C   0  0  0  0  0  0  0  0  0  0  0  0
  -18.9210  -30.1530   23.8840 C   0  0  0  0  0  3  0  0  0  0  0  0
  -17.6190  -30.6580   24.0530 C   0  0  0  0  0  3  0  0  0  0  0  0
  -16.5130  -29.9050   23.6200 C   0  0  0  0  0  3  0  0  0  0  0  0
  -16.7120  -28.6490   23.0220 C   0  0  0  0  0  3  0  0  0  0  0  0
  -25.9060  -32.4810   23.8260 C   0  0  0  0  0  3  0  0  0  0  0  0
  -26.4490  -31.6540   25.0560 C   0  0  1  0  0  0  0  0  0  0  0  0
  -25.3720  -31.3690   26.1270 C   0  0  0  0  0  1  0  0  0  0  0  0
  -27.0360  -30.3020   24.5870 C   0  0  0  0  0  1  0  0  0  0  0  0
  -27.6100  -32.4190   25.7350 C   0  0  0  0  0  1  0  0  0  0  0  0
  -25.5970  -33.8600   24.2250 N   0  0  0  0  0  0  0  0  0  0  0  0
  -25.9040  -34.9490   23.5070 C   0  0  0  0  0  0  0  0  0  0  0  0
  -26.5570  -34.8940   22.4620 O   0  0  0  0  0  0  0  0  0  0  0  0
  -25.0220  -33.9650   25.0470 H   0  0  0  0  0  0  0  0  0  0  0  0
  -24.1490  -36.7320   23.2630 C   0  0  0  0  0  1  0  0  0  0  0  0
  -25.4110  -36.3100   24.0340 C   0  0  0  0  0  3  0  0  0  0  0  0
  -27.5580  -37.1820   24.8460 C   0  0  0  0  0  1  0  0  0  0  0  0
  -26.4270  -37.3780   23.9420 N   0  0  0  0  0  0  0  0  0  0  0  0
  -26.0180  -38.2860   24.1430 H   0  0  0  0  0  0  0  0  0  0  0  0
  -24.6790  -23.5000   23.9440 C   0  0  0  0  0  2  0  0  0  0  0  0
  -24.7540  -21.9620   24.0170 C   0  0  0  0  0  2  0  0  0  0  0  0
  -25.7260  -21.3300   22.9950 C   0  0  0  0  0  2  0  0  0  0  0  0
  -26.6300  -20.2570   23.6080 C   0  0  0  0  0  2  0  0  0  0  0  0
  -27.6950  -19.7200   22.6330 C   0  0  0  0  0  2  0  0  0  0  0  0
  -28.8150  -18.9490   23.3600 C   0  0  0  0  0  2  0  0  0  0  0  0
  -29.3020  -17.7050   22.5970 C   0  0  0  0  0  2  0  0  0  0  0  0
  -30.3750  -16.9260   23.3800 C   0  0  0  0  0  2  0  0  0  0  0  0
  -31.2360  -16.0020   22.5030 C   0  0  0  0  0  2  0  0  0  0  0  0
  -30.7880  -14.3200   20.7290 C   0  0  0  0  0  0  0  0  0  0  0  0
  -30.4150  -12.2940   19.3640 C   0  0  0  0  0  2  0  0  0  0  0  0
  -29.4800  -12.5440   18.1660 C   0  0  0  0  0  2  0  0  0  0  0  0
  -28.0050  -12.3930   18.5820 C   0  0  0  0  0  2  0  0  0  0  0  0
  -27.6670  -13.2000   19.8640 C   0  0  0  0  0  3  0  0  0  0  0  0
  -28.7030  -12.9240   20.9740 C   0  0  0  0  0  2  0  0  0  0  0  0
  -30.0490  -13.2180   20.4480 N   0  0  0  0  0  0  0  0  0  0  0  0
  -31.7640  -14.6740   20.0570 O   0  0  0  0  0  0  0  0  0  0  0  0
  -30.4590  -14.9360   21.8710 N   0  0  0  0  0  0  0  0  0  0  0  0
  -29.6790  -14.5480   22.3810 H   0  0  0  0  0  0  0  0  0  0  0  0
  -25.2620  -13.8120   20.5640 C   0  0  0  0  0  0  0  0  0  0  0  0
  -24.1860  -13.0430   20.9120 C   0  0  0  0  0  0  0  0  0  0  0  0
  -24.6390  -11.6880   20.8650 C   0  0  0  0  0  0  0  0  0  0  0  0
  -26.3050  -12.9300   20.3270 N   0  0  0  0  0  0  0  0  0  0  0  0
  -25.9310  -11.6450   20.5620 N   0  0  0  0  0  0  0  0  0  0  0  0
  -23.9050  -10.4280   21.0350 C   0  0  0  0  0  0  0  0  0  0  0  0
  -24.3610   -9.4210   21.9150 C   0  0  0  0  0  3  0  0  0  0  0  0
  -23.6290   -8.2250   22.0750 C   0  0  0  0  0  3  0  0  0  0  0  0
  -22.4260   -8.0270   21.3550 C   0  0  0  0  0  0  0  0  0  0  0  0
  -21.9890   -9.0230   20.4650 C   0  0  0  0  0  3  0  0  0  0  0  0
  -22.7210  -10.2110   20.3030 C   0  0  0  0  0  3  0  0  0  0  0  0
  -21.6630   -6.8850   21.4230 O   0  0  0  0  0  0  0  0  0  0  0  0
  -21.6870   -6.0720   22.5270 C   0  0  0  0  0  0  0  0  0  0  0  0
  -21.4010   -6.5640   23.8210 C   0  0  0  0  0  3  0  0  0  0  0  0
  -21.3660   -5.6790   24.9180 C   0  0  0  0  0  3  0  0  0  0  0  0
  -21.6040   -4.3050   24.7240 C   0  0  0  0  0  0  0  0  0  0  0  0
  -21.8820   -3.8140   23.4360 C   0  0  0  0  0  3  0  0  0  0  0  0
  -21.9190   -4.6940   22.3410 C   0  0  0  0  0  0  0  0  0  0  0  0
  -22.1670   -4.2130   21.0990 F   0  0  0  0  0  0  0  0  0  0  0  0
  -21.5620   -3.4550   25.7760 F   0  0  0  0  0  0  0  0  0  0  0  0
  -22.7880  -13.5230   21.1790 C   0  0  0  0  0  0  0  0  0  0  0  0
  -22.0520  -12.8260   22.0350 N   0  0  0  0  0  0  0  0  0  0  0  0
  -22.3560  -14.5530   20.6590 O   0  0  0  0  0  0  0  0  0  0  0  0
  -22.4170  -12.0010   22.4850 H   0  0  0  0  0  0  0  0  0  0  0  0
  -21.1100  -13.1230   22.2440 H   0  0  0  0  0  0  0  0  0  0  0  0
  -25.4340  -15.1850   20.4100 N   0  0  0  0  0  0  0  0  0  0  0  0
  -24.6660  -15.8370   20.5220 H   0  0  0  0  0  0  0  0  0  0  0  0
  -26.2970  -15.6320   20.1260 H   0  0  0  0  0  0  0  0  0  0  0  0
  1  3  2  0
  2  4  1  0
  2  1  1  0
  5  2  1  0
  6  5  1  0
  7  6  1  0
  8 10  1  0
  8  7  1  0
  9 20  2  0
 10 15  1  0
 11 19  1  0
 11 21  1  0
 12 18  1  0
 12 14  1  0
 13 19  1  0
 14 15  2  0
 14 13  1  0
 16 17  1  0
 16 10  2  0
 17 12  2  0
 18 11  1  0
 19  9  1  0
 21 23  2  0
 22 21  1  0
 24 22  1  0
 25 34  2  0
 25 30  1  0
 26 22  1  0
 26 30  1  0
 27 26  1  0
 28 29  1  0
 28 27  1  0
 29 25  1  0
 30 31  2  0
 31 32  1  0
 33 32  2  0
 34 33  1  0
 35  9  1  0
 35 40  1  0
 35 36  1  0
 36 39  1  1
 36 37  1  0
 38 36  1  0
 40 43  1  0
 41 45  1  0
 41 40  1  0
 42 41  2  0
 45 44  1  0
 47 45  1  0
 47 48  1  0
 47 46  1  0
 49 50  1  0
 49  1  1  0
 51 52  1  0
 51 50  1  0
 53 54  1  0
 53 52  1  0
 55 54  1  0
 55 56  1  0
 57 56  1  0
 58 66  1  0
 59 64  1  0
 60 61  1  0
 60 59  1  0
 62 61  1  0
 62 71  1  0
 62 63  1  0
 64 58  1  0
 64 63  1  0
 65 58  2  0
 66 67  1  0
 66 57  1  0
 68 69  2  0
 69 88  1  0
 70 69  1  0
 70 73  1  0
 71 72  1  0
 71 68  1  0
 72 70  2  0
 73 74  1  0
 74 75  2  0
 76 79  1  0
 76 75  1  0
 77 76  2  0
 78 77  1  0
 78 73  2  0
 79 80  1  0
 80 81  1  0
 81 82  2  0
 83 82  1  0
 83 87  1  0
 84 83  2  0
 85 80  2  0
 85 84  1  0
 86 85  1  0
 88 89  1  0
 89 92  1  0
 89 91  1  0
 90 88  2  0
 93 94  1  0
 93 68  1  0
 95 93  1  0
M  ISO  4   7 101   8 101  58 100  66 100
M  END
>  <TORSDO>  (46) 
F 28

>  <SCORE>  (46) 
29.588

>  <name>  (46) 
45

>  <ligand_id>  (46) 
45

>  <original_smiles>  (46) 
[H]c1c([H])c([H])c2c(c1[H])C([H])([H])C([H])([H])C([H])([H])C2([H])N([H])C(=O)C1([H])N(C(=O)C([H])(N([H])C(=O)C([H])(N([H])C([H])([H])[H])C([H])([H])[H])C(C([H])([H])[H])(C([H])([H])[H])C([H])([H])[H])C([H])([H])c2c([H])c(OC([H])([H])C([H])([H])C([H])([H])N([H])C(=O)C([H])([H])C([H])([H])C([H])([H])C([H])([H])C([H])([H])C([H])([H])C([H])([H])C([H])([H])C([H])([H])N([H])C(=O)N3C([H])([H])C([H])([H])C([H])([H])C([H])(n4nc(-c5c([H])c([H])c(Oc6c([H])c([H])c(F)c([H])c6F)c([H])c5[H])c(C(=O)N([H])[H])c4N([H])[H])C3([H])[H])c([H])c([H])c2C1([H])[H]

>  <smiles>  (46) 
[H]c1c([H])c([H])c2c(c1[H])C([H])([H])C([H])([H])C([H])([H])C2([H])N([H])C(=O)C1([H])N(C(=O)C([H])(N([H])C(=O)C([H])(N([H])C([H])([H])[H])C([H])([H])[H])C(C([H])([H])[H])(C([H])([H])[H])C([H])([H])[H])C([H])([H])c2c([H])c(OC([H])([H])C([H])([H])C([H])([H])N([H])C(=O)C([H])([H])C([H])([H])C([H])([H])C([H])([H])C([H])([H])C([H])([H])C([H])([H])C([H])([H])C([H])([H])N([H])C(=O)N3C([H])([H])C([H])([H])C([H])([H])C([H])(n4nc(-c5c([H])c([H])c(Oc6c([H])c([H])c(F)c([H])c6F)c([H])c5[H])c(C(=O)N([H])[H])c4N([H])[H])C3([H])[H])c([H])c([H])c2C1([H])[H]

$$$$
46:0:0
     RDKit          3D

 97105  0  0  1  0  0  0  0  0999 V2000
  -25.9680  -22.9120   23.8440 C   0  0  0  0  0  3  0  0  0  0  0  0
  -25.4770  -23.7930   24.8210 C   0  0  0  0  0  3  0  0  0  0  0  0
  -23.9490  -23.2570   22.5200 C   0  0  0  0  0  3  0  0  0  0  0  0
  -25.2320  -22.6890   22.6630 C   0  0  0  0  0  0  0  0  0  0  0  0
  -24.2530  -24.4650   24.6270 C   0  0  0  0  0  0  0  0  0  0  0  0
  -23.4580  -24.1580   23.4930 C   0  0  0  0  0  0  0  0  0  0  0  0
  -22.1220  -24.8440   23.2560 C   0  0  0  0  0  1  0  0  0  0  0  0
  -25.9120  -22.0180   21.4800 C   0  0  0  0  0  2  0  0  0  0  0  0
  -25.3610  -22.6680   20.1950 C   0  0  0  0  0  2  0  0  0  0  0  0
  -26.3150  -23.5510   19.3770 C   0  0  0  0  0  2  0  0  0  0  0  0
  -25.4850  -24.5850   18.5920 C   0  0  0  0  0  2  0  0  0  0  0  0
  -26.2080  -25.2500   17.4070 C   0  0  0  0  0  2  0  0  0  0  0  0
  -25.2820  -25.6400   16.2200 C   0  0  0  0  0  2  0  0  0  0  0  0
  -23.0430  -24.7680   15.5210 C   0  0  0  0  0  0  0  0  0  0  0  0
  -22.6440  -22.8920   13.9660 C   0  0  0  0  0  2  0  0  0  0  0  0
  -21.7550  -21.7860   14.5670 C   0  0  0  0  0  2  0  0  0  0  0  0
  -22.5910  -20.7740   15.3760 C   0  0  0  0  0  2  0  0  0  0  0  0
  -23.5360  -21.4720   16.3850 C   0  0  0  0  0  3  0  0  0  0  0  0
  -24.3290  -22.5990   15.6970 C   0  0  0  0  0  2  0  0  0  0  0  0
  -23.3970  -23.5430   15.0490 N   0  0  0  0  0  0  0  0  0  0  0  0
  -22.0150  -25.3530   15.1680 O   0  0  0  0  0  0  0  0  0  0  0  0
  -23.8570  -25.3390   16.4230 N   0  0  0  0  0  0  0  0  0  0  0  0
  -23.3820  -26.0690   16.9350 H   0  0  0  0  0  0  0  0  0  0  0  0
  -25.8180  -20.5500   17.1680 C   0  0  0  0  0  0  0  0  0  0  0  0
  -26.1510  -19.4660   17.9340 C   0  0  0  0  0  0  0  0  0  0  0  0
  -24.9210  -18.8120   18.2490 C   0  0  0  0  0  0  0  0  0  0  0  0
  -24.4350  -20.5210   17.0430 N   0  0  0  0  0  0  0  0  0  0  0  0
  -23.9050  -19.4310   17.6570 N   0  0  0  0  0  0  0  0  0  0  0  0
  -24.6450  -17.6660   19.1230 C   0  0  0  0  0  0  0  0  0  0  0  0
  -23.7870  -16.6200   18.7200 C   0  0  0  0  0  3  0  0  0  0  0  0
  -23.5440  -15.5220   19.5740 C   0  0  0  0  0  3  0  0  0  0  0  0
  -24.1700  -15.4580   20.8410 C   0  0  0  0  0  0  0  0  0  0  0  0
  -25.0050  -16.5140   21.2480 C   0  0  0  0  0  3  0  0  0  0  0  0
  -25.2400  -17.6090   20.4000 C   0  0  0  0  0  3  0  0  0  0  0  0
  -23.9770  -14.4440   21.7460 O   0  0  0  0  0  0  0  0  0  0  0  0
  -23.5330  -13.2070   21.3550 C   0  0  0  0  0  0  0  0  0  0  0  0
  -23.8720  -12.6540   20.1000 C   0  0  0  0  0  3  0  0  0  0  0  0
  -23.4500  -11.3490   19.7710 C   0  0  0  0  0  3  0  0  0  0  0  0
  -22.7010  -10.5960   20.6950 C   0  0  0  0  0  0  0  0  0  0  0  0
  -22.3710  -11.1420   21.9470 C   0  0  0  0  0  3  0  0  0  0  0  0
  -22.7900  -12.4430   22.2770 C   0  0  0  0  0  0  0  0  0  0  0  0
  -22.4880  -12.9560   23.4940 F   0  0  0  0  0  0  0  0  0  0  0  0
  -22.3050   -9.3410   20.3810 F   0  0  0  0  0  0  0  0  0  0  0  0
  -27.5210  -19.1110   18.4370 C   0  0  0  0  0  0  0  0  0  0  0  0
  -27.7730  -17.8290   18.6800 N   0  0  0  0  0  0  0  0  0  0  0  0
  -28.3940  -19.9670   18.5740 O   0  0  0  0  0  0  0  0  0  0  0  0
  -27.0720  -17.1200   18.5240 H   0  0  0  0  0  0  0  0  0  0  0  0
  -28.6810  -17.5560   19.0310 H   0  0  0  0  0  0  0  0  0  0  0  0
  -26.5700  -21.5660   16.5880 N   0  0  0  0  0  0  0  0  0  0  0  0
  -27.5780  -21.6230   16.6860 H   0  0  0  0  0  0  0  0  0  0  0  0
  -26.1800  -22.3120   16.0240 H   0  0  0  0  0  0  0  0  0  0  0  0
  -23.9070  -25.6080   25.5710 C   0  0  0  0  0  2  0  0  0  0  0  0
  -24.3160  -26.9480   24.9200 C   0  0  0  0  0  2  0  0  0  0  0  0
  -23.6330  -27.4700   22.5480 C   0  0  0  0  0  1  0  0  0  0  0  0
  -23.2540  -27.6220   24.0300 C   0  0  0  0  0  3  0  0  0  0  0  0
  -23.0270  -29.1050   24.3720 C   0  0  0  0  0  2  0  0  0  0  0  0
  -23.9180  -29.9140   23.5990 O   0  0  0  0  0  0  0  0  0  0  0  0
  -29.0860  -34.5970   24.7890 C   0  0  0  0  0  0  0  0  0  0  0  0
  -24.2830  -31.0580   24.2560 C   0  0  0  0  0  0  0  0  0  0  0  0
  -27.1540  -34.7120   26.3360 C   0  0  0  0  0  3  0  0  0  0  0  0
  -25.1050  -33.3610   25.6460 C   0  0  0  0  0  0  0  0  0  0  0  0
  -26.8630  -33.8740   23.9390 C   0  0  0  0  0  2  0  0  0  0  0  0
  -25.7380  -33.0020   24.4500 C   0  0  0  0  0  0  0  0  0  0  0  0
  -25.3270  -31.8520   23.7460 C   0  0  0  0  0  3  0  0  0  0  0  0
  -23.6400  -31.4320   25.4570 C   0  0  0  0  0  3  0  0  0  0  0  0
  -24.0520  -32.5820   26.1560 C   0  0  0  0  0  3  0  0  0  0  0  0
  -25.6050  -34.6140   26.3310 C   0  0  0  0  0  2  0  0  0  0  0  0
  -27.7590  -34.3740   25.0070 N   0  0  0  0  0  0  0  0  0  0  0  0
  -29.7980  -35.1190   25.6610 O   0  0  0  0  0  0  0  0  0  0  0  0
  -27.7010  -33.8440   27.4930 C   0  0  0  0  0  0  0  0  0  0  0  0
  -28.6850  -34.3830   28.2310 N   0  0  0  0  0  0  0  0  0  0  0  0
  -27.2260  -32.7290   27.7240 O   0  0  0  0  0  0  0  0  0  0  0  0
  -29.0330  -35.2900   27.9570 H   0  0  0  0  0  0  0  0  0  0  0  0
  -31.8330  -34.0280   29.9660 C   0  0  0  0  0  0  0  0  0  0  0  0
  -29.3240  -33.7710   29.3950 C   0  0  0  0  0  3  0  0  0  0  0  0
  -29.0530  -34.5880   30.6770 C   0  0  0  0  0  2  0  0  0  0  0  0
  -30.1450  -35.6180   30.9820 C   0  0  0  0  0  2  0  0  0  0  0  0
  -31.5020  -34.9300   31.1450 C   0  0  0  0  0  2  0  0  0  0  0  0
  -30.8100  -33.4970   29.1360 C   0  0  0  0  0  0  0  0  0  0  0  0
  -31.1730  -32.6940   28.0330 C   0  0  0  0  0  3  0  0  0  0  0  0
  -32.5260  -32.4150   27.7600 C   0  0  0  0  0  3  0  0  0  0  0  0
  -33.5320  -32.9260   28.5950 C   0  0  0  0  0  3  0  0  0  0  0  0
  -33.1850  -33.7290   29.6950 C   0  0  0  0  0  3  0  0  0  0  0  0
  -29.7680  -34.2350   23.4320 C   0  0  0  0  0  3  0  0  0  0  0  0
  -30.5990  -32.8950   23.4920 C   0  0  1  0  0  0  0  0  0  0  0  0
  -31.5930  -32.8330   24.6730 C   0  0  0  0  0  1  0  0  0  0  0  0
  -29.6560  -31.6750   23.6060 C   0  0  0  0  0  1  0  0  0  0  0  0
  -31.3980  -32.7150   22.1810 C   0  0  0  0  0  1  0  0  0  0  0  0
  -30.6290  -35.3640   23.0510 N   0  0  0  0  0  0  0  0  0  0  0  0
  -30.2470  -36.3790   22.2640 C   0  0  0  0  0  0  0  0  0  0  0  0
  -29.1410  -36.4210   21.7150 O   0  0  0  0  0  0  0  0  0  0  0  0
  -31.5310  -35.4160   23.5000 H   0  0  0  0  0  0  0  0  0  0  0  0
  -30.9500  -38.6620   23.0460 C   0  0  0  0  0  1  0  0  0  0  0  0
  -31.2500  -37.5280   22.0520 C   0  0  0  0  0  3  0  0  0  0  0  0
  -31.7350  -37.1020   19.6830 C   0  0  0  0  0  1  0  0  0  0  0  0
  -31.2500  -38.0610   20.6720 N   0  0  0  0  0  0  0  0  0  0  0  0
  -31.8220  -38.8980   20.6100 H   0  0  0  0  0  0  0  0  0  0  0  0
  1  2  1  0
  3  4  1  0
  3  6  2  0
  4  1  2  0
  5  2  2  0
  5 52  1  0
  6  5  1  0
  7  6  1  0
  8  4  1  0
  9  8  1  0
 10  9  1  0
 11 10  1  0
 12 11  1  0
 13 22  1  0
 13 12  1  0
 14 22  1  0
 15 16  1  0
 15 20  1  0
 16 17  1  0
 18 17  1  0
 18 27  1  0
 19 18  1  0
 20 14  1  0
 20 19  1  0
 21 14  2  0
 22 23  1  0
 24 25  2  0
 25 26  1  0
 25 44  1  0
 26 29  1  0
 27 24  1  0
 27 28  1  0
 28 26  2  0
 29 34  1  0
 30 29  2  0
 30 31  1  0
 31 32  2  0
 32 33  1  0
 32 35  1  0
 34 33  2  0
 36 35  1  0
 36 41  1  0
 37 36  2  0
 38 37  1  0
 38 39  2  0
 39 40  1  0
 40 41  2  0
 41 42  1  0
 43 39  1  0
 44 46  2  0
 44 45  1  0
 45 48  1  0
 47 45  1  0
 49 50  1  0
 49 24  1  0
 51 49  1  0
 53 52  1  0
 55 54  1  0
 55 56  1  0
 55 53  1  0
 57 59  1  0
 57 56  1  0
 58 68  1  0
 58 69  2  0
 59 65  1  0
 60 70  1  0
 61 66  1  0
 61 67  1  0
 62 63  1  0
 62 68  1  0
 63 61  2  0
 64 59  2  0
 64 63  1  0
 65 66  2  0
 67 60  1  0
 68 60  1  0
 70 72  2  0
 70 71  1  0
 73 71  1  0
 74 78  1  0
 75 71  1  0
 75 76  1  0
 76 77  1  0
 77 78  1  0
 79 75  1  0
 79 74  2  0
 80 79  1  0
 81 80  2  0
 81 82  1  0
 82 83  2  0
 83 74  1  0
 84 85  1  0
 84 58  1  0
 85 87  1  1
 85 86  1  0
 88 85  1  0
 89 84  1  0
 89 92  1  0
 90 89  1  0
 91 90  2  0
 94 90  1  0
 94 93  1  0
 95 96  1  0
 96 94  1  0
 97 96  1  0
M  ISO  4  14 100  22 100  56 101  57 101
M  END
>  <TORSDO>  (47) 
F 26

>  <SCORE>  (47) 
27.863

>  <name>  (47) 
46

>  <ligand_id>  (47) 
46

>  <original_smiles>  (47) 
[H]c1c([H])c([H])c2c(c1[H])C([H])([H])C([H])([H])C([H])([H])C2([H])N([H])C(=O)C1([H])N(C(=O)C([H])(N([H])C(=O)C([H])(N([H])C([H])([H])[H])C([H])([H])[H])C(C([H])([H])[H])(C([H])([H])[H])C([H])([H])[H])C([H])([H])c2c([H])c(OC([H])([H])C([H])(C([H])([H])[H])C([H])([H])C([H])([H])c3c([H])c([H])c(C([H])([H])C([H])([H])C([H])([H])C([H])([H])C([H])([H])C([H])([H])N([H])C(=O)N4C([H])([H])C([H])([H])C([H])([H])C([H])(n5nc(-c6c([H])c([H])c(Oc7c([H])c([H])c(F)c([H])c7F)c([H])c6[H])c(C(=O)N([H])[H])c5N([H])[H])C4([H])[H])c([H])c3C([H])([H])[H])c([H])c([H])c2C1([H])[H]

>  <smiles>  (47) 
[H]c1c([H])c([H])c2c(c1[H])C([H])([H])C([H])([H])C([H])([H])C2([H])N([H])C(=O)C1([H])N(C(=O)C([H])(N([H])C(=O)C([H])(N([H])C([H])([H])[H])C([H])([H])[H])C(C([H])([H])[H])(C([H])([H])[H])C([H])([H])[H])C([H])([H])c2c([H])c(OC([H])([H])C([H])(C([H])([H])[H])C([H])([H])C([H])([H])c3c([H])c([H])c(C([H])([H])C([H])([H])C([H])([H])C([H])([H])C([H])([H])C([H])([H])N([H])C(=O)N4C([H])([H])C([H])([H])C([H])([H])C([H])(n5nc(-c6c([H])c([H])c(Oc7c([H])c([H])c(F)c([H])c7F)c([H])c6[H])c(C(=O)N([H])[H])c5N([H])[H])C4([H])[H])c([H])c3C([H])([H])[H])c([H])c([H])c2C1([H])[H]

$$$$
47:0:0
     RDKit          3D

 97106  0  0  1  0  0  0  0  0999 V2000
  -29.5100  -22.7850   21.4500 C   0  0  0  0  0  3  0  0  0  0  0  0
  -28.5830  -21.2660   20.0800 C   0  0  0  0  0  0  0  0  0  0  0  0
  -29.5220  -21.4520   21.1460 C   0  0  0  0  0  0  0  0  0  0  0  0
  -28.0530  -22.4840   19.7780 C   0  0  0  0  0  0  0  0  0  0  0  0
  -28.1490  -19.9910   19.3920 C   0  0  0  0  0  2  0  0  0  0  0  0
  -27.0260  -22.7250   18.7220 C   0  0  0  0  0  2  0  0  0  0  0  0
  -26.8260  -20.1170   18.5940 C   0  0  0  0  0  2  0  0  0  0  0  0
  -26.1070  -21.4970   18.5940 C   0  0  0  0  0  2  0  0  0  0  0  0
  -28.5850  -23.4260   20.6460 N   0  0  0  0  0  0  0  0  0  0  0  0
  -30.3590  -20.4080   21.8490 C   0  0  0  0  0  2  0  0  0  0  0  0
  -31.8600  -20.4660   21.4900 C   0  0  0  0  0  2  0  0  0  0  0  0
  -32.1350  -20.3450   19.9730 C   0  0  0  0  0  2  0  0  0  0  0  0
  -33.4270  -19.6000   19.5730 C   0  0  0  0  0  2  0  0  0  0  0  0
  -33.4500  -18.1420   20.0380 C   0  0  0  0  0  2  0  0  0  0  0  0
  -32.1990  -17.3320   19.6330 C   0  0  0  0  0  2  0  0  0  0  0  0
  -31.3440  -16.9620   20.8790 C   0  0  0  0  0  2  0  0  0  0  0  0
  -31.1450  -14.5440   20.5890 C   0  0  0  0  0  0  0  0  0  0  0  0
  -30.6880  -12.4150   19.5000 C   0  0  0  0  0  2  0  0  0  0  0  0
  -29.8360  -12.6970   18.2460 C   0  0  0  0  0  2  0  0  0  0  0  0
  -28.3320  -12.6940   18.5870 C   0  0  0  0  0  2  0  0  0  0  0  0
  -27.9710  -13.4880   19.8790 C   0  0  0  0  0  3  0  0  0  0  0  0
  -28.9970  -13.2810   21.0220 C   0  0  0  0  0  2  0  0  0  0  0  0
  -30.3430  -13.4540   20.4690 N   0  0  0  0  0  0  0  0  0  0  0  0
  -32.3420  -14.5200   20.3290 O   0  0  0  0  0  0  0  0  0  0  0  0
  -30.5580  -15.7330   20.7670 N   0  0  0  0  0  0  0  0  0  0  0  0
  -29.5550  -15.7860   20.8760 H   0  0  0  0  0  0  0  0  0  0  0  0
  -25.5480  -14.0940   20.4930 C   0  0  0  0  0  0  0  0  0  0  0  0
  -24.4570  -13.3290   20.8230 C   0  0  0  0  0  0  0  0  0  0  0  0
  -24.9160  -11.9770   20.8300 C   0  0  0  0  0  0  0  0  0  0  0  0
  -26.6020  -13.2100   20.3220 N   0  0  0  0  0  0  0  0  0  0  0  0
  -26.2230  -11.9310   20.5850 N   0  0  0  0  0  0  0  0  0  0  0  0
  -24.1710  -10.7180   20.9920 C   0  0  0  0  0  0  0  0  0  0  0  0
  -24.5580   -9.7330   21.9300 C   0  0  0  0  0  3  0  0  0  0  0  0
  -23.8100   -8.5440   22.0770 C   0  0  0  0  0  3  0  0  0  0  0  0
  -22.6530   -8.3370   21.2890 C   0  0  0  0  0  0  0  0  0  0  0  0
  -22.2810   -9.3090   20.3430 C   0  0  0  0  0  3  0  0  0  0  0  0
  -23.0320  -10.4860   20.1950 C   0  0  0  0  0  3  0  0  0  0  0  0
  -21.8700   -7.2080   21.3540 O   0  0  0  0  0  0  0  0  0  0  0  0
  -21.7900   -6.4570   22.4970 C   0  0  0  0  0  0  0  0  0  0  0  0
  -21.3770   -7.0120   23.7280 C   0  0  0  0  0  3  0  0  0  0  0  0
  -21.2500   -6.1900   24.8650 C   0  0  0  0  0  3  0  0  0  0  0  0
  -21.5160   -4.8110   24.7710 C   0  0  0  0  0  0  0  0  0  0  0  0
  -21.9170   -4.2520   23.5440 C   0  0  0  0  0  3  0  0  0  0  0  0
  -22.0530   -5.0740   22.4100 C   0  0  0  0  0  0  0  0  0  0  0  0
  -22.4240   -4.5260   21.2280 F   0  0  0  0  0  0  0  0  0  0  0  0
  -21.3790   -4.0200   25.8590 F   0  0  0  0  0  0  0  0  0  0  0  0
  -23.0520  -13.8260   21.0200 C   0  0  0  0  0  0  0  0  0  0  0  0
  -22.2810  -13.1600   21.8730 N   0  0  0  0  0  0  0  0  0  0  0  0
  -22.6430  -14.8390   20.4540 O   0  0  0  0  0  0  0  0  0  0  0  0
  -22.6040  -12.3340   22.3550 H   0  0  0  0  0  0  0  0  0  0  0  0
  -21.3390  -13.4830   22.0330 H   0  0  0  0  0  0  0  0  0  0  0  0
  -25.7250  -15.4620   20.3130 N   0  0  0  0  0  0  0  0  0  0  0  0
  -24.9580  -16.1170   20.3810 H   0  0  0  0  0  0  0  0  0  0  0  0
  -26.5970  -15.8980   20.0330 H   0  0  0  0  0  0  0  0  0  0  0  0
  -28.2230  -24.8290   20.7840 C   0  0  0  0  0  2  0  0  0  0  0  0
  -29.0660  -25.7770   19.9140 C   0  0  0  0  0  2  0  0  0  0  0  0
  -28.8930  -27.1320   20.3310 O   0  0  0  0  0  0  0  0  0  0  0  0
  -24.6000  -31.9440   23.2760 C   0  0  0  0  0  0  0  0  0  0  0  0
  -27.6430  -27.7120   20.2850 C   0  0  0  0  0  0  0  0  0  0  0  0
  -23.5480  -30.5000   21.5570 C   0  0  0  0  0  3  0  0  0  0  0  0
  -25.1550  -29.0480   20.2050 C   0  0  0  0  0  0  0  0  0  0  0  0
  -26.0530  -30.9980   21.4880 C   0  0  0  0  0  2  0  0  0  0  0  0
  -26.2430  -29.6360   20.8550 C   0  0  0  0  0  0  0  0  0  0  0  0
  -27.4840  -28.9700   20.9030 C   0  0  0  0  0  3  0  0  0  0  0  0
  -26.5320  -27.1240   19.6390 C   0  0  0  0  0  3  0  0  0  0  0  0
  -25.2900  -27.7860   19.5980 C   0  0  0  0  0  3  0  0  0  0  0  0
  -23.8660  -29.8360   20.1890 C   0  0  0  0  0  2  0  0  0  0  0  0
  -24.7470  -31.1620   22.1690 N   0  0  0  0  0  0  0  0  0  0  0  0
  -23.4810  -32.1560   23.7660 O   0  0  0  0  0  0  0  0  0  0  0  0
  -22.9030  -29.4400   22.4800 C   0  0  0  0  0  0  0  0  0  0  0  0
  -21.5850  -29.2370   22.3280 N   0  0  0  0  0  0  0  0  0  0  0  0
  -23.5860  -28.8040   23.2830 O   0  0  0  0  0  0  0  0  0  0  0  0
  -21.0900  -29.8110   21.6570 H   0  0  0  0  0  0  0  0  0  0  0  0
  -18.2210  -28.0060   22.7750 C   0  0  0  0  0  0  0  0  0  0  0  0
  -20.7760  -28.2620   23.0550 C   0  0  0  0  0  3  0  0  0  0  0  0
  -20.8840  -26.8590   22.4110 C   0  0  0  0  0  2  0  0  0  0  0  0
  -19.7820  -26.5820   21.3830 C   0  0  0  0  0  2  0  0  0  0  0  0
  -18.4010  -26.6920   22.0350 C   0  0  0  0  0  2  0  0  0  0  0  0
  -19.3370  -28.7510   23.2410 C   0  0  0  0  0  0  0  0  0  0  0  0
  -19.1160  -29.9850   23.8900 C   0  0  0  0  0  3  0  0  0  0  0  0
  -17.8100  -30.4750   24.0810 C   0  0  0  0  0  3  0  0  0  0  0  0
  -16.7070  -29.7260   23.6310 C   0  0  0  0  0  3  0  0  0  0  0  0
  -16.9140  -28.4940   22.9850 C   0  0  0  0  0  3  0  0  0  0  0  0
  -25.8230  -32.6300   23.9620 C   0  0  0  0  0  3  0  0  0  0  0  0
  -26.2790  -31.9100   25.2900 C   0  0  1  0  0  0  0  0  0  0  0  0
  -25.1240  -31.6590   26.2870 C   0  0  0  0  0  1  0  0  0  0  0  0
  -26.9370  -30.5470   24.9720 C   0  0  0  0  0  1  0  0  0  0  0  0
  -27.3470  -32.7630   26.0130 C   0  0  0  0  0  1  0  0  0  0  0  0
  -25.4560  -34.0270   24.2280 N   0  0  0  0  0  0  0  0  0  0  0  0
  -25.8000  -35.0650   23.4560 C   0  0  0  0  0  0  0  0  0  0  0  0
  -26.5360  -34.9540   22.4690 O   0  0  0  0  0  0  0  0  0  0  0  0
  -24.8100  -34.1850   24.9880 H   0  0  0  0  0  0  0  0  0  0  0  0
  -24.0330  -36.7860   22.9560 C   0  0  0  0  0  1  0  0  0  0  0  0
  -25.2440  -36.4490   23.8390 C   0  0  0  0  0  3  0  0  0  0  0  0
  -27.3060  -37.4370   24.7360 C   0  0  0  0  0  1  0  0  0  0  0  0
  -26.2440  -37.5360   23.7380 N   0  0  0  0  0  0  0  0  0  0  0  0
  -25.7950  -38.4430   23.8440 H   0  0  0  0  0  0  0  0  0  0  0  0
  2  3  1  0
  3  1  2  0
  3 10  1  0
  4  2  2  0
  4  9  1  0
  5  2  1  0
  6  4  1  0
  7  8  1  0
  7  5  1  0
  8  6  1  0
  9 55  1  0
  9  1  1  0
 11 10  1  0
 12 11  1  0
 13 12  1  0
 13 14  1  0
 15 14  1  0
 15 16  1  0
 17 25  1  0
 18 23  1  0
 19 20  1  0
 19 18  1  0
 21 20  1  0
 21 30  1  0
 21 22  1  0
 23 17  1  0
 23 22  1  0
 24 17  2  0
 25 26  1  0
 25 16  1  0
 27 28  2  0
 28 29  1  0
 28 47  1  0
 29 32  1  0
 30 27  1  0
 30 31  1  0
 31 29  2  0
 32 33  1  0
 33 34  2  0
 35 38  1  0
 35 34  1  0
 36 35  2  0
 37 36  1  0
 37 32  2  0
 38 39  1  0
 39 40  1  0
 40 41  2  0
 42 41  1  0
 42 46  1  0
 43 42  2  0
 44 39  2  0
 44 43  1  0
 45 44  1  0
 47 48  1  0
 48 51  1  0
 48 50  1  0
 49 47  2  0
 52 53  1  0
 52 27  1  0
 54 52  1  0
 56 57  1  0
 56 55  1  0
 58 69  2  0
 59 57  1  0
 59 64  1  0
 60 68  1  0
 60 70  1  0
 61 63  1  0
 62 68  1  0
 63 64  2  0
 63 62  1  0
 65 59  2  0
 66 65  1  0
 66 61  2  0
 67 61  1  0
 67 60  1  0
 68 58  1  0
 70 72  2  0
 71 70  1  0
 73 71  1  0
 74 83  2  0
 74 79  1  0
 75 71  1  0
 75 79  1  0
 76 75  1  0
 77 78  1  0
 77 76  1  0
 78 74  1  0
 79 80  2  0
 80 81  1  0
 82 81  2  0
 83 82  1  0
 84 58  1  0
 84 89  1  0
 84 85  1  0
 85 88  1  1
 85 86  1  0
 87 85  1  0
 89 92  1  0
 90 94  1  0
 90 89  1  0
 91 90  2  0
 94 93  1  0
 96 94  1  0
 96 97  1  0
 96 95  1  0
M  ISO  4  17 100  25 100  56 101  57 101
M  END
>  <TORSDO>  (48) 
F 25

>  <SCORE>  (48) 
-12.329

>  <name>  (48) 
47

>  <ligand_id>  (48) 
47

>  <original_smiles>  (48) 
[H]c1c([H])c([H])c2c(c1[H])C([H])([H])C([H])([H])C([H])([H])C2([H])N([H])C(=O)C1([H])N(C(=O)C([H])(N([H])C(=O)C([H])(N([H])C([H])([H])[H])C([H])([H])[H])C(C([H])([H])[H])(C([H])([H])[H])C([H])([H])[H])C([H])([H])c2c([H])c(OC([H])([H])C([H])([H])n3c([H])c(C([H])([H])C([H])([H])C([H])([H])C([H])([H])C([H])([H])C([H])([H])C([H])([H])N([H])C(=O)N4C([H])([H])C([H])([H])C([H])([H])C([H])(n5nc(-c6c([H])c([H])c(Oc7c([H])c([H])c(F)c([H])c7F)c([H])c6[H])c(C(=O)N([H])[H])c5N([H])[H])C4([H])[H])c4c3C([H])([H])C([H])([H])C([H])([H])C4([H])[H])c([H])c([H])c2C1([H])[H]

>  <smiles>  (48) 
[H]c1c([H])c([H])c2c(c1[H])C([H])([H])C([H])([H])C([H])([H])C2([H])N([H])C(=O)C1([H])N(C(=O)C([H])(N([H])C(=O)C([H])(N([H])C([H])([H])[H])C([H])([H])[H])C(C([H])([H])[H])(C([H])([H])[H])C([H])([H])[H])C([H])([H])c2c([H])c(OC([H])([H])C([H])([H])n3c([H])c(C([H])([H])C([H])([H])C([H])([H])C([H])([H])C([H])([H])C([H])([H])C([H])([H])N([H])C(=O)N4C([H])([H])C([H])([H])C([H])([H])C([H])(n5nc(-c6c([H])c([H])c(Oc7c([H])c([H])c(F)c([H])c7F)c([H])c6[H])c(C(=O)N([H])[H])c5N([H])[H])C4([H])[H])c4c3C([H])([H])C([H])([H])C([H])([H])C4([H])[H])c([H])c([H])c2C1([H])[H]

$$$$
48:0:0
     RDKit          3D

 96103  0  0  1  0  0  0  0  0999 V2000
  -27.0380  -23.8190   25.9840 C   0  0  0  0  0  2  0  0  0  0  0  0
  -26.0230  -22.9210   25.2570 C   0  0  0  0  0  2  0  0  0  0  0  0
  -25.8300  -23.3150   23.7830 C   0  0  0  0  0  2  0  0  0  0  0  0
  -24.3480  -23.4630   23.4090 C   0  0  0  0  0  2  0  0  0  0  0  0
  -24.1220  -24.4950   22.2980 C   0  0  0  0  0  2  0  0  0  0  0  0
  -22.6490  -24.9260   22.1590 C   0  0  0  0  0  2  0  0  0  0  0  0
  -22.4480  -26.3820   22.6100 C   0  0  0  0  0  2  0  0  0  0  0  0
  -21.0170  -26.9040   22.4420 C   0  0  0  0  0  2  0  0  0  0  0  0
  -20.8650  -28.3030   23.0630 C   0  0  0  0  0  2  0  0  0  0  0  0
  -19.7710  -29.1520   22.4060 C   0  0  0  0  0  2  0  0  0  0  0  0
  -17.6460  -29.0400   23.6950 C   0  0  0  0  0  0  0  0  0  0  0  0
  -15.3370  -29.8600   23.8150 C   0  0  0  0  0  2  0  0  0  0  0  0
  -14.4770  -29.2630   24.9360 C   0  0  0  0  0  2  0  0  0  0  0  0
  -13.8220  -27.9540   24.4680 C   0  0  0  0  0  2  0  0  0  0  0  0
  -14.8540  -26.9640   23.8670 C   0  0  0  0  0  3  0  0  0  0  0  0
  -15.7520  -27.6540   22.8150 C   0  0  0  0  0  2  0  0  0  0  0  0
  -16.3410  -28.8710   23.4030 N   0  0  0  0  0  0  0  0  0  0  0  0
  -18.0690  -29.7640   24.6030 O   0  0  0  0  0  0  0  0  0  0  0  0
  -18.4360  -28.6370   22.6950 N   0  0  0  0  0  0  0  0  0  0  0  0
  -17.9790  -28.1210   21.9580 H   0  0  0  0  0  0  0  0  0  0  0  0
  -14.5900  -24.4560   23.3380 C   0  0  0  0  0  0  0  0  0  0  0  0
  -13.5730  -23.7450   22.7590 C   0  0  0  0  0  0  0  0  0  0  0  0
  -12.5720  -24.7030   22.4080 C   0  0  0  0  0  0  0  0  0  0  0  0
  -14.1880  -25.7820   23.3180 N   0  0  0  0  0  0  0  0  0  0  0  0
  -12.9850  -25.9290   22.7030 N   0  0  0  0  0  0  0  0  0  0  0  0
  -11.2210  -24.5180   21.8620 C   0  0  0  0  0  0  0  0  0  0  0  0
  -10.7570  -25.2770   20.7640 C   0  0  0  0  0  3  0  0  0  0  0  0
   -9.4610  -25.0680   20.2460 C   0  0  0  0  0  3  0  0  0  0  0  0
   -8.6150  -24.0920   20.8230 C   0  0  0  0  0  0  0  0  0  0  0  0
   -9.0730  -23.3540   21.9290 C   0  0  0  0  0  3  0  0  0  0  0  0
  -10.3620  -23.5660   22.4470 C   0  0  0  0  0  3  0  0  0  0  0  0
   -7.3310  -23.8380   20.4020 O   0  0  0  0  0  0  0  0  0  0  0  0
   -6.8810  -24.2510   19.1740 C   0  0  0  0  0  0  0  0  0  0  0  0
   -7.5250  -23.8690   17.9760 C   0  0  0  0  0  3  0  0  0  0  0  0
   -6.9870  -24.2580   16.7340 C   0  0  0  0  0  3  0  0  0  0  0  0
   -5.8060  -25.0210   16.6840 C   0  0  0  0  0  0  0  0  0  0  0  0
   -5.1610  -25.3980   17.8760 C   0  0  0  0  0  3  0  0  0  0  0  0
   -5.6970  -25.0130   19.1160 C   0  0  0  0  0  0  0  0  0  0  0  0
   -5.0590  -25.3610   20.2600 F   0  0  0  0  0  0  0  0  0  0  0  0
   -5.2860  -25.3900   15.4900 F   0  0  0  0  0  0  0  0  0  0  0  0
  -13.4890  -22.2530   22.6190 C   0  0  0  0  0  0  0  0  0  0  0  0
  -12.8180  -21.7700   21.5800 N   0  0  0  0  0  0  0  0  0  0  0  0
  -14.0610  -21.5030   23.4100 O   0  0  0  0  0  0  0  0  0  0  0  0
  -12.3650  -22.3840   20.9190 H   0  0  0  0  0  0  0  0  0  0  0  0
  -12.7550  -20.7710   21.4430 H   0  0  0  0  0  0  0  0  0  0  0  0
  -15.8080  -24.0860   23.9000 N   0  0  0  0  0  0  0  0  0  0  0  0
  -16.1040  -23.1170   23.9740 H   0  0  0  0  0  0  0  0  0  0  0  0
  -16.4620  -24.7340   24.3220 H   0  0  0  0  0  0  0  0  0  0  0  0
  -26.3720  -24.6850   27.0660 C   0  0  0  0  0  2  0  0  0  0  0  0
  -27.2320  -25.8760   27.5290 C   0  0  0  0  0  2  0  0  0  0  0  0
  -27.4820  -26.8410   26.4300 N   0  0  0  0  0  4  0  0  0  0  0  0
  -26.5900  -27.0670   26.0130 H   0  0  0  0  0  0  0  0  0  0  0  0
  -28.0500  -26.4030   25.7200 H   0  0  0  0  0  0  0  0  0  0  0  0
  -28.1310  -28.0990   26.8720 C   0  0  0  0  0  2  0  0  0  0  0  0
  -28.2510  -29.1600   25.7390 C   0  0  0  0  0  2  0  0  0  0  0  0
  -28.4550  -30.5000   26.2190 O   0  0  0  0  0  0  0  0  0  0  0  0
  -27.1610  -31.0030   33.1230 C   0  0  0  0  0  0  0  0  0  0  0  0
  -27.5230  -30.8770   27.1480 C   0  0  0  0  0  0  0  0  0  0  0  0
  -25.1660  -31.0800   31.6540 C   0  0  0  0  0  3  0  0  0  0  0  0
  -25.6370  -31.3960   29.1680 C   0  0  0  0  0  0  0  0  0  0  0  0
  -27.4320  -31.9310   30.8310 C   0  0  0  0  0  2  0  0  0  0  0  0
  -27.0040  -31.5330   29.4370 C   0  0  0  0  0  0  0  0  0  0  0  0
  -27.9520  -31.2910   28.4230 C   0  0  0  0  0  3  0  0  0  0  0  0
  -26.1450  -30.7470   26.8800 C   0  0  0  0  0  3  0  0  0  0  0  0
  -25.1980  -31.0050   27.8890 C   0  0  0  0  0  3  0  0  0  0  0  0
  -24.6870  -31.6840   30.3060 C   0  0  0  0  0  2  0  0  0  0  0  0
  -26.6290  -31.3050   31.9050 N   0  0  0  0  0  0  0  0  0  0  0  0
  -26.4500  -30.5840   34.0460 O   0  0  0  0  0  0  0  0  0  0  0  0
  -24.7610  -29.5890   31.6960 C   0  0  0  0  0  0  0  0  0  0  0  0
  -23.5450  -29.3140   32.1940 N   0  0  0  0  0  0  0  0  0  0  0  0
  -25.5170  -28.7170   31.2600 O   0  0  0  0  0  0  0  0  0  0  0  0
  -22.9860  -30.0870   32.5320 H   0  0  0  0  0  0  0  0  0  0  0  0
  -20.6810  -27.5210   33.4630 C   0  0  0  0  0  0  0  0  0  0  0  0
  -22.9370  -27.9890   32.2930 C   0  0  0  0  0  3  0  0  0  0  0  0
  -22.2200  -27.6050   30.9790 C   0  0  0  0  0  2  0  0  0  0  0  0
  -20.7330  -27.9720   30.9740 C   0  0  0  0  0  2  0  0  0  0  0  0
  -20.0040  -27.2750   32.1270 C   0  0  0  0  0  2  0  0  0  0  0  0
  -22.0550  -27.8700   33.5410 C   0  0  0  0  0  0  0  0  0  0  0  0
  -22.6280  -28.1210   34.8060 C   0  0  0  0  0  3  0  0  0  0  0  0
  -21.8540  -28.0270   35.9790 C   0  0  0  0  0  3  0  0  0  0  0  0
  -20.4980  -27.6640   35.8980 C   0  0  0  0  0  3  0  0  0  0  0  0
  -19.9170  -27.4080   34.6430 C   0  0  0  0  0  3  0  0  0  0  0  0
  -28.6820  -31.1920   33.4200 C   0  0  0  0  0  3  0  0  0  0  0  0
  -29.4840  -29.8330   33.4420 C   0  0  1  0  0  0  0  0  0  0  0  0
  -28.8160  -28.7370   34.3010 C   0  0  0  0  0  1  0  0  0  0  0  0
  -29.6560  -29.2750   32.0100 C   0  0  0  0  0  1  0  0  0  0  0  0
  -30.9060  -30.0730   34.0000 C   0  0  0  0  0  1  0  0  0  0  0  0
  -28.7990  -31.8860   34.7080 N   0  0  0  0  0  0  0  0  0  0  0  0
  -29.0530  -33.1930   34.8470 C   0  0  0  0  0  0  0  0  0  0  0  0
  -29.2890  -33.9360   33.8890 O   0  0  0  0  0  0  0  0  0  0  0  0
  -28.5540  -31.3550   35.5310 H   0  0  0  0  0  0  0  0  0  0  0  0
  -27.7340  -34.5460   36.5050 C   0  0  0  0  0  1  0  0  0  0  0  0
  -29.0420  -33.7710   36.2750 C   0  0  0  0  0  3  0  0  0  0  0  0
  -31.4590  -33.9160   36.6740 C   0  0  0  0  0  1  0  0  0  0  0  0
  -30.1990  -34.6460   36.5650 N   0  0  0  0  0  0  0  0  0  0  0  0
  -30.0550  -35.1640   37.4260 H   0  0  0  0  0  0  0  0  0  0  0  0
  1 49  1  0
  2  1  1  0
  3  2  1  0
  4  3  1  0
  5  4  1  0
  6  5  1  0
  6  7  1  0
  8  7  1  0
  8  9  1  0
 10 19  1  0
 10  9  1  0
 11 18  2  0
 12 13  1  0
 14 13  1  0
 15 16  1  0
 15 14  1  0
 16 17  1  0
 17 11  1  0
 17 12  1  0
 19 11  1  0
 20 19  1  0
 21 46  1  0
 22 21  2  0
 23 25  2  0
 23 22  1  0
 24 21  1  0
 24 15  1  0
 25 24  1  0
 26 23  1  0
 26 31  1  0
 27 26  2  0
 28 27  1  0
 28 29  2  0
 29 30  1  0
 30 31  2  0
 32 29  1  0
 33 32  1  0
 34 33  2  0
 35 34  1  0
 36 35  2  0
 36 37  1  0
 37 38  2  0
 38 33  1  0
 38 39  1  0
 40 36  1  0
 41 22  1  0
 41 43  2  0
 42 41  1  0
 44 42  1  0
 45 42  1  0
 46 47  1  0
 46 48  1  0
 49 50  1  0
 51 54  1  0
 51 50  1  0
 52 51  1  0
 53 51  1  0
 55 56  1  0
 55 54  1  0
 56 58  1  0
 57 68  2  0
 58 63  1  0
 59 69  1  0
 59 67  1  0
 60 62  1  0
 60 66  1  0
 61 67  1  0
 62 61  1  0
 63 62  2  0
 64 58  2  0
 64 65  1  0
 65 60  2  0
 66 59  1  0
 67 57  1  0
 69 70  1  0
 70 72  1  0
 71 69  2  0
 73 78  2  0
 73 82  1  0
 74 70  1  0
 74 78  1  0
 75 74  1  0
 76 75  1  0
 76 77  1  0
 77 73  1  0
 78 79  1  0
 79 80  2  0
 81 80  1  0
 82 81  2  0
 83 57  1  0
 83 84  1  0
 83 88  1  0
 84 87  1  1
 84 85  1  0
 86 84  1  0
 88 89  1  0
 88 91  1  0
 89 93  1  0
 90 89  2  0
 93 92  1  0
 93 95  1  0
 95 94  1  0
 95 96  1  0
M  ISO  4  11 100  19 100  55 101  56 101
M  END
>  <TORSDO>  (49) 
F 30

>  <SCORE>  (49) 
20.362

>  <name>  (49) 
48

>  <ligand_id>  (49) 
48

>  <original_smiles>  (49) 
[H]c1c([H])c([H])c2c(c1[H])C([H])([H])C([H])([H])C([H])([H])C2([H])N([H])C(=O)C1([H])N(C(=O)C([H])(N([H])C(=O)C([H])(N([H])C([H])([H])[H])C([H])([H])[H])C(C([H])([H])[H])(C([H])([H])[H])C([H])([H])[H])C([H])([H])c2c([H])c(OC([H])([H])C([H])([H])[N+]([H])([H])C([H])([H])C([H])([H])C([H])([H])C([H])([H])C([H])([H])C([H])([H])C([H])([H])C([H])([H])C([H])([H])C([H])([H])C([H])([H])C([H])([H])N([H])C(=O)N3C([H])([H])C([H])([H])C([H])([H])C([H])(n4nc(-c5c([H])c([H])c(Oc6c([H])c([H])c(F)c([H])c6F)c([H])c5[H])c(C(=O)N([H])[H])c4N([H])[H])C3([H])[H])c([H])c([H])c2C1([H])[H]

>  <smiles>  (49) 
[H]c1c([H])c([H])c2c(c1[H])C([H])([H])C([H])([H])C([H])([H])C2([H])N([H])C(=O)C1([H])N(C(=O)C([H])(N([H])C(=O)C([H])(N([H])C([H])([H])[H])C([H])([H])[H])C(C([H])([H])[H])(C([H])([H])[H])C([H])([H])[H])C([H])([H])c2c([H])c(OC([H])([H])C([H])([H])[N+]([H])([H])C([H])([H])C([H])([H])C([H])([H])C([H])([H])C([H])([H])C([H])([H])C([H])([H])C([H])([H])C([H])([H])C([H])([H])C([H])([H])C([H])([H])N([H])C(=O)N3C([H])([H])C([H])([H])C([H])([H])C([H])(n4nc(-c5c([H])c([H])c(Oc6c([H])c([H])c(F)c([H])c6F)c([H])c5[H])c(C(=O)N([H])[H])c4N([H])[H])C3([H])[H])c([H])c([H])c2C1([H])[H]

$$$$
49:0:0
     RDKit          3D

 96103  0  0  1  0  0  0  0  0999 V2000
  -27.7470  -23.5890   19.1970 C   0  0  0  0  0  3  0  0  0  0  0  0
  -28.3950  -23.4710   17.8600 N   0  0  0  0  0  4  0  0  0  0  0  0
  -27.7480  -23.0610   17.2040 H   0  0  0  0  0  0  0  0  0  0  0  0
  -28.5490  -24.4140   17.5380 H   0  0  0  0  0  0  0  0  0  0  0  0
  -29.7090  -22.7900   17.7610 C   0  0  0  0  0  2  0  0  0  0  0  0
  -29.6040  -21.2610   17.6450 C   0  0  0  0  0  2  0  0  0  0  0  0
  -30.3820  -20.5080   18.7340 C   0  0  0  0  0  2  0  0  0  0  0  0
  -30.2330  -18.9970   18.5480 C   0  0  0  0  0  2  0  0  0  0  0  0
  -30.1840  -18.1800   19.8460 C   0  0  0  0  0  2  0  0  0  0  0  0
  -30.2350  -16.7020   19.4720 C   0  0  0  0  0  2  0  0  0  0  0  0
  -30.9320  -14.7450   20.7000 C   0  0  0  0  0  0  0  0  0  0  0  0
  -30.7080  -12.5440   19.6840 C   0  0  0  0  0  2  0  0  0  0  0  0
  -29.8660  -12.7490   18.4080 C   0  0  0  0  0  2  0  0  0  0  0  0
  -28.3640  -12.6280   18.7330 C   0  0  0  0  0  2  0  0  0  0  0  0
  -27.9370  -13.5070   19.9370 C   0  0  0  0  0  3  0  0  0  0  0  0
  -28.9030  -13.3350   21.1310 C   0  0  0  0  0  2  0  0  0  0  0  0
  -30.2810  -13.5610   20.6530 N   0  0  0  0  0  0  0  0  0  0  0  0
  -32.1310  -14.8920   20.4460 O   0  0  0  0  0  0  0  0  0  0  0  0
  -30.0970  -15.7810   20.5950 N   0  0  0  0  0  0  0  0  0  0  0  0
  -29.1490  -15.5610   20.8570 H   0  0  0  0  0  0  0  0  0  0  0  0
  -25.4970  -14.1370   20.4530 C   0  0  0  0  0  0  0  0  0  0  0  0
  -24.4050  -13.3710   20.7710 C   0  0  0  0  0  0  0  0  0  0  0  0
  -24.8690  -12.0240   20.8170 C   0  0  0  0  0  0  0  0  0  0  0  0
  -26.5540  -13.2500   20.3260 N   0  0  0  0  0  0  0  0  0  0  0  0
  -26.1770  -11.9770   20.6020 N   0  0  0  0  0  0  0  0  0  0  0  0
  -24.1320  -10.7670   20.9980 C   0  0  0  0  0  0  0  0  0  0  0  0
  -24.5000   -9.8360   21.9930 C   0  0  0  0  0  3  0  0  0  0  0  0
  -23.7710   -8.6400   22.1590 C   0  0  0  0  0  3  0  0  0  0  0  0
  -22.6550   -8.3680   21.3310 C   0  0  0  0  0  0  0  0  0  0  0  0
  -22.3060   -9.2880   20.3270 C   0  0  0  0  0  3  0  0  0  0  0  0
  -23.0380  -10.4760   20.1620 C   0  0  0  0  0  3  0  0  0  0  0  0
  -21.9020   -7.2210   21.4050 O   0  0  0  0  0  0  0  0  0  0  0  0
  -21.7660   -6.5220   22.5780 C   0  0  0  0  0  0  0  0  0  0  0  0
  -21.2650   -7.1240   23.7530 C   0  0  0  0  0  3  0  0  0  0  0  0
  -21.0810   -6.3500   24.9180 C   0  0  0  0  0  3  0  0  0  0  0  0
  -21.3850   -4.9760   24.9060 C   0  0  0  0  0  0  0  0  0  0  0  0
  -21.8760   -4.3720   23.7340 C   0  0  0  0  0  3  0  0  0  0  0  0
  -22.0670   -5.1450   22.5740 C   0  0  0  0  0  0  0  0  0  0  0  0
  -22.5210   -4.5530   21.4430 F   0  0  0  0  0  0  0  0  0  0  0  0
  -21.2010   -4.2320   26.0200 F   0  0  0  0  0  0  0  0  0  0  0  0
  -22.9930  -13.8540   20.9300 C   0  0  0  0  0  0  0  0  0  0  0  0
  -22.2130  -13.1880   21.7770 N   0  0  0  0  0  0  0  0  0  0  0  0
  -22.5870  -14.8540   20.3420 O   0  0  0  0  0  0  0  0  0  0  0  0
  -22.5450  -12.3740   22.2760 H   0  0  0  0  0  0  0  0  0  0  0  0
  -21.2620  -13.4930   21.9260 H   0  0  0  0  0  0  0  0  0  0  0  0
  -25.6720  -15.4990   20.2430 N   0  0  0  0  0  0  0  0  0  0  0  0
  -24.8840  -16.1390   20.2400 H   0  0  0  0  0  0  0  0  0  0  0  0
  -26.5340  -15.9210   19.9230 H   0  0  0  0  0  0  0  0  0  0  0  0
  -27.1610  -22.2540   19.7220 C   0  0  0  0  0  2  0  0  0  0  0  0
  -25.7460  -22.0700   17.5100 C   0  0  0  0  0  1  0  0  0  0  0  0
  -25.9980  -21.5610   18.9430 C   0  0  0  0  0  3  0  0  0  0  0  0
  -25.1400  -19.1940   18.2460 C   0  0  0  0  0  1  0  0  0  0  0  0
  -26.2100  -20.0280   18.9730 C   0  0  0  0  0  2  0  0  0  0  0  0
  -28.6890  -24.2770   20.2260 C   0  0  0  0  0  2  0  0  0  0  0  0
  -28.1010  -25.4700   20.9970 C   0  0  0  0  0  2  0  0  0  0  0  0
  -28.2250  -26.6750   20.2390 O   0  0  0  0  0  0  0  0  0  0  0  0
  -24.5160  -31.9150   23.2630 C   0  0  0  0  0  0  0  0  0  0  0  0
  -27.0880  -27.4330   20.2270 C   0  0  0  0  0  0  0  0  0  0  0  0
  -23.2890  -30.5180   21.6310 C   0  0  0  0  0  3  0  0  0  0  0  0
  -24.7210  -28.9570   20.2200 C   0  0  0  0  0  0  0  0  0  0  0  0
  -25.8210  -30.8380   21.4390 C   0  0  0  0  0  2  0  0  0  0  0  0
  -25.8840  -29.4670   20.8130 C   0  0  0  0  0  0  0  0  0  0  0  0
  -27.0740  -28.7100   20.8190 C   0  0  0  0  0  3  0  0  0  0  0  0
  -25.9210  -26.9450   19.6040 C   0  0  0  0  0  3  0  0  0  0  0  0
  -24.7350  -27.6930   19.6120 C   0  0  0  0  0  3  0  0  0  0  0  0
  -23.4860  -29.8270   20.2570 C   0  0  0  0  0  2  0  0  0  0  0  0
  -24.5600  -31.1050   22.1680 N   0  0  0  0  0  0  0  0  0  0  0  0
  -23.4380  -32.2090   23.8010 O   0  0  0  0  0  0  0  0  0  0  0  0
  -22.6290  -29.5110   22.5960 C   0  0  0  0  0  0  0  0  0  0  0  0
  -21.3020  -29.3460   22.4680 N   0  0  0  0  0  0  0  0  0  0  0  0
  -23.3060  -28.8810   23.4140 O   0  0  0  0  0  0  0  0  0  0  0  0
  -20.8210  -29.9050   21.7760 H   0  0  0  0  0  0  0  0  0  0  0  0
  -17.9120  -28.2140   22.9730 C   0  0  0  0  0  0  0  0  0  0  0  0
  -20.4730  -28.4260   23.2440 C   0  0  0  0  0  3  0  0  0  0  0  0
  -20.5490  -26.9890   22.6770 C   0  0  0  0  0  2  0  0  0  0  0  0
  -19.4430  -26.6810   21.6650 C   0  0  0  0  0  2  0  0  0  0  0  0
  -18.0640  -26.8570   22.3070 C   0  0  0  0  0  2  0  0  0  0  0  0
  -19.0450  -28.9570   23.3970 C   0  0  0  0  0  0  0  0  0  0  0  0
  -18.8540  -30.2290   23.9770 C   0  0  0  0  0  3  0  0  0  0  0  0
  -17.5610  -30.7600   24.1380 C   0  0  0  0  0  3  0  0  0  0  0  0
  -16.4410  -30.0150   23.7310 C   0  0  0  0  0  3  0  0  0  0  0  0
  -16.6170  -28.7440   23.1550 C   0  0  0  0  0  3  0  0  0  0  0  0
  -25.8140  -32.5280   23.8760 C   0  0  0  0  0  3  0  0  0  0  0  0
  -26.3280  -31.7490   25.1510 C   0  0  1  0  0  0  0  0  0  0  0  0
  -25.2360  -31.5200   26.2240 C   0  0  0  0  0  1  0  0  0  0  0  0
  -26.9000  -30.3670   24.7540 C   0  0  0  0  0  1  0  0  0  0  0  0
  -27.4890  -32.5310   25.8060 C   0  0  0  0  0  1  0  0  0  0  0  0
  -25.5250  -33.9290   24.2030 N   0  0  0  0  0  0  0  0  0  0  0  0
  -25.8750  -34.9740   23.4400 C   0  0  0  0  0  0  0  0  0  0  0  0
  -26.5480  -34.8580   22.4130 O   0  0  0  0  0  0  0  0  0  0  0  0
  -24.9290  -34.0950   24.9990 H   0  0  0  0  0  0  0  0  0  0  0  0
  -24.1730  -36.7840   23.0590 C   0  0  0  0  0  1  0  0  0  0  0  0
  -25.4010  -36.3690   23.8860 C   0  0  0  0  0  3  0  0  0  0  0  0
  -27.5400  -37.2240   24.7310 C   0  0  0  0  0  1  0  0  0  0  0  0
  -26.4480  -37.4080   23.7790 N   0  0  0  0  0  0  0  0  0  0  0  0
  -26.0550  -38.3350   23.9190 H   0  0  0  0  0  0  0  0  0  0  0  0
  1 49  1  0
  1 54  1  0
  2  1  1  0
  3  2  1  0
  4  2  1  0
  5  2  1  0
  6  5  1  0
  6  7  1  0
  8  7  1  0
  8  9  1  0
 10  9  1  0
 10 19  1  0
 12 17  1  0
 13 14  1  0
 13 12  1  0
 15 14  1  0
 15 24  1  0
 15 16  1  0
 17 11  1  0
 17 16  1  0
 18 11  2  0
 19 11  1  0
 19 20  1  0
 21 22  2  0
 22 23  1  0
 22 41  1  0
 23 26  1  0
 24 21  1  0
 24 25  1  0
 25 23  2  0
 26 27  1  0
 27 28  2  0
 29 32  1  0
 29 28  1  0
 30 29  2  0
 31 30  1  0
 31 26  2  0
 32 33  1  0
 33 34  1  0
 34 35  2  0
 36 35  1  0
 36 40  1  0
 37 36  2  0
 38 33  2  0
 38 37  1  0
 39 38  1  0
 41 42  1  0
 42 45  1  0
 42 44  1  0
 43 41  2  0
 46 21  1  0
 47 46  1  0
 48 46  1  0
 51 50  1  0
 51 53  1  0
 51 49  1  0
 52 53  1  0
 54 55  1  0
 56 55  1  0
 57 68  2  0
 58 56  1  0
 58 63  1  0
 59 67  1  0
 59 69  1  0
 60 66  1  0
 60 62  1  0
 61 67  1  0
 62 63  2  0
 62 61  1  0
 64 65  1  0
 64 58  2  0
 65 60  2  0
 66 59  1  0
 67 57  1  0
 69 71  2  0
 70 69  1  0
 72 70  1  0
 73 82  2  0
 73 78  1  0
 74 70  1  0
 74 78  1  0
 75 74  1  0
 76 77  1  0
 76 75  1  0
 77 73  1  0
 78 79  2  0
 79 80  1  0
 81 80  2  0
 82 81  1  0
 83 57  1  0
 83 88  1  0
 83 84  1  0
 84 87  1  1
 84 85  1  0
 86 84  1  0
 88 91  1  0
 89 93  1  0
 89 88  1  0
 90 89  2  0
 93 92  1  0
 95 93  1  0
 95 96  1  0
 95 94  1  0
M  ISO  4  11 100  19 100  55 101  56 101
M  END
>  <TORSDO>  (50) 
F 28

>  <SCORE>  (50) 
-10.098

>  <name>  (50) 
49

>  <ligand_id>  (50) 
49

>  <original_smiles>  (50) 
[H]c1c([H])c([H])c2c(c1[H])C([H])([H])C([H])([H])C([H])([H])C2([H])N([H])C(=O)C1([H])N(C(=O)C([H])(N([H])C(=O)C([H])(N([H])C([H])([H])[H])C([H])([H])[H])C(C([H])([H])[H])(C([H])([H])[H])C([H])([H])[H])C([H])([H])c2c([H])c(OC([H])([H])C([H])([H])C([H])(C([H])([H])C([H])(C([H])([H])[H])C([H])([H])C([H])([H])[H])[N+]([H])([H])C([H])([H])C([H])([H])C([H])([H])C([H])([H])C([H])([H])C([H])([H])N([H])C(=O)N3C([H])([H])C([H])([H])C([H])([H])C([H])(n4nc(-c5c([H])c([H])c(Oc6c([H])c([H])c(F)c([H])c6F)c([H])c5[H])c(C(=O)N([H])[H])c4N([H])[H])C3([H])[H])c([H])c([H])c2C1([H])[H]

>  <smiles>  (50) 
[H]c1c([H])c([H])c2c(c1[H])C([H])([H])C([H])([H])C([H])([H])C2([H])N([H])C(=O)C1([H])N(C(=O)C([H])(N([H])C(=O)C([H])(N([H])C([H])([H])[H])C([H])([H])[H])C(C([H])([H])[H])(C([H])([H])[H])C([H])([H])[H])C([H])([H])c2c([H])c(OC([H])([H])C([H])([H])C([H])(C([H])([H])C([H])(C([H])([H])[H])C([H])([H])C([H])([H])[H])[N+]([H])([H])C([H])([H])C([H])([H])C([H])([H])C([H])([H])C([H])([H])C([H])([H])N([H])C(=O)N3C([H])([H])C([H])([H])C([H])([H])C([H])(n4nc(-c5c([H])c([H])c(Oc6c([H])c([H])c(F)c([H])c6F)c([H])c5[H])c(C(=O)N([H])[H])c4N([H])[H])C3([H])[H])c([H])c([H])c2C1([H])[H]

$$$$
51:0:0
     RDKit          3D

 97106  0  0  1  0  0  0  0  0999 V2000
  -33.4480  -23.6090   16.3280 C   0  0  0  0  0  2  0  0  0  0  0  0
  -33.0100  -23.3420   18.8100 C   0  0  0  0  0  2  0  0  0  0  0  0
  -34.6600  -22.6620   16.4590 C   0  0  0  0  0  2  0  0  0  0  0  0
  -34.2670  -22.4600   18.9170 C   0  0  0  0  0  2  0  0  0  0  0  0
  -33.1200  -24.3460   17.6440 C   0  0  0  0  0  3  0  0  0  0  0  0
  -34.5440  -21.6490   17.6270 C   0  0  2  0  0  0  0  0  0  0  0  0
  -35.8880  -20.9090   17.7540 C   0  0  0  0  0  1  0  0  0  0  0  0
  -31.8630  -25.2270   17.4740 C   0  0  0  0  0  2  0  0  0  0  0  0
  -31.2950  -25.8100   18.7820 C   0  0  0  0  0  2  0  0  0  0  0  0
  -30.3170  -26.9660   18.5370 C   0  0  0  0  0  2  0  0  0  0  0  0
  -29.6510  -27.4920   19.8170 C   0  0  0  0  0  2  0  0  0  0  0  0
  -28.4540  -26.7520   20.0700 O   0  0  0  0  0  0  0  0  0  0  0  0
  -24.6050  -31.8790   23.2210 C   0  0  0  0  0  0  0  0  0  0  0  0
  -27.2870  -27.4790   20.1470 C   0  0  0  0  0  0  0  0  0  0  0  0
  -23.4000  -30.4640   21.5840 C   0  0  0  0  0  3  0  0  0  0  0  0
  -24.8600  -28.9250   20.1700 C   0  0  0  0  0  0  0  0  0  0  0  0
  -25.9150  -30.8480   21.3760 C   0  0  0  0  0  2  0  0  0  0  0  0
  -26.0080  -29.4720   20.7540 C   0  0  0  0  0  0  0  0  0  0  0  0
  -27.2170  -28.7520   20.7590 C   0  0  0  0  0  3  0  0  0  0  0  0
  -26.1180  -26.9230   19.5900 C   0  0  0  0  0  3  0  0  0  0  0  0
  -24.9050  -27.6420   19.5920 C   0  0  0  0  0  3  0  0  0  0  0  0
  -23.6080  -29.7710   20.2100 C   0  0  0  0  0  2  0  0  0  0  0  0
  -24.6580  -31.0770   22.1200 N   0  0  0  0  0  0  0  0  0  0  0  0
  -23.5260  -32.1490   23.7650 O   0  0  0  0  0  0  0  0  0  0  0  0
  -22.7580  -29.4460   22.5520 C   0  0  0  0  0  0  0  0  0  0  0  0
  -21.4330  -29.2650   22.4310 N   0  0  0  0  0  0  0  0  0  0  0  0
  -23.4460  -28.8210   23.3640 O   0  0  0  0  0  0  0  0  0  0  0  0
  -20.9440  -29.8200   21.7430 H   0  0  0  0  0  0  0  0  0  0  0  0
  -18.0590  -28.0820   22.9440 C   0  0  0  0  0  0  0  0  0  0  0  0
  -20.6190  -28.3310   23.2060 C   0  0  0  0  0  3  0  0  0  0  0  0
  -20.7140  -26.8990   22.6300 C   0  0  0  0  0  2  0  0  0  0  0  0
  -19.6070  -26.5800   21.6200 C   0  0  0  0  0  2  0  0  0  0  0  0
  -18.2290  -26.7310   22.2700 C   0  0  0  0  0  2  0  0  0  0  0  0
  -19.1820  -28.8410   23.3680 C   0  0  0  0  0  0  0  0  0  0  0  0
  -18.9710  -30.1070   23.9570 C   0  0  0  0  0  3  0  0  0  0  0  0
  -17.6700  -30.6140   24.1270 C   0  0  0  0  0  3  0  0  0  0  0  0
  -16.5610  -29.8530   23.7180 C   0  0  0  0  0  3  0  0  0  0  0  0
  -16.7570  -28.5890   23.1340 C   0  0  0  0  0  3  0  0  0  0  0  0
  -25.8940  -32.5130   23.8340 C   0  0  0  0  0  3  0  0  0  0  0  0
  -25.5870  -33.9100   24.1610 N   0  0  0  0  0  0  0  0  0  0  0  0
  -25.9210  -34.9610   23.4000 C   0  0  0  0  0  0  0  0  0  0  0  0
  -26.5930  -34.8550   22.3690 O   0  0  0  0  0  0  0  0  0  0  0  0
  -24.9920  -34.0660   24.9630 H   0  0  0  0  0  0  0  0  0  0  0  0
  -24.1910  -36.7490   23.0320 C   0  0  0  0  0  1  0  0  0  0  0  0
  -25.4290  -36.3490   23.8520 C   0  0  0  0  0  3  0  0  0  0  0  0
  -27.5630  -37.2290   24.6850 C   0  0  0  0  0  1  0  0  0  0  0  0
  -26.4600  -37.4040   23.7450 N   0  0  0  0  0  0  0  0  0  0  0  0
  -26.0500  -38.3210   23.9030 H   0  0  0  0  0  0  0  0  0  0  0  0
  -26.4240  -31.7440   25.1060 C   0  0  1  0  0  0  0  0  0  0  0  0
  -25.3420  -31.5070   26.1840 C   0  0  0  0  0  1  0  0  0  0  0  0
  -27.0030  -30.3660   24.7060 C   0  0  0  0  0  1  0  0  0  0  0  0
  -27.5820  -32.5380   25.7550 C   0  0  0  0  0  1  0  0  0  0  0  0
  -33.4250  -20.6180   17.3220 C   0  0  0  0  0  2  0  0  0  0  0  0
  -33.1110  -19.5790   18.4200 C   0  0  0  0  0  2  0  0  0  0  0  0
  -31.7210  -18.9780   18.1880 C   0  0  0  0  0  2  0  0  0  0  0  0
  -30.7030  -14.6270   20.5930 C   0  0  0  0  0  0  0  0  0  0  0  0
  -30.4340  -12.3960   19.6300 C   0  0  0  0  0  2  0  0  0  0  0  0
  -29.5360  -12.5020   18.3830 C   0  0  0  0  0  2  0  0  0  0  0  0
  -28.0470  -12.3740   18.7680 C   0  0  0  0  0  2  0  0  0  0  0  0
  -27.6370  -13.2620   19.9770 C   0  0  0  0  0  3  0  0  0  0  0  0
  -28.6770  -13.1950   21.1200 C   0  0  0  0  0  2  0  0  0  0  0  0
  -30.0080  -13.4570   20.5480 N   0  0  0  0  0  0  0  0  0  0  0  0
  -31.9190  -14.6830   20.3990 O   0  0  0  0  0  0  0  0  0  0  0  0
  -30.2740  -16.9580   18.3970 C   0  0  0  0  0  2  0  0  0  0  0  0
  -30.8240  -18.1940   20.5040 C   0  0  0  0  0  2  0  0  0  0  0  0
  -29.3320  -16.2080   19.3520 C   0  0  0  0  0  2  0  0  0  0  0  0
  -30.4790  -16.9470   21.3770 C   0  0  0  0  0  2  0  0  0  0  0  0
  -31.3430  -17.7990   19.1050 C   0  0  0  0  0  3  0  0  0  0  0  0
  -29.9850  -15.7780   20.6060 N   0  0  0  0  0  0  0  0  0  0  0  0
  -25.2260  -13.8710   20.5960 C   0  0  0  0  0  0  0  0  0  0  0  0
  -24.1460  -13.1010   20.9250 C   0  0  0  0  0  0  0  0  0  0  0  0
  -24.6130  -11.7510   20.9260 C   0  0  0  0  0  0  0  0  0  0  0  0
  -26.2810  -12.9890   20.4240 N   0  0  0  0  0  0  0  0  0  0  0  0
  -25.9160  -11.7090   20.6800 N   0  0  0  0  0  0  0  0  0  0  0  0
  -23.8860  -10.4900   21.0940 C   0  0  0  0  0  0  0  0  0  0  0  0
  -24.3000   -9.5240   22.0380 C   0  0  0  0  0  3  0  0  0  0  0  0
  -23.5790   -8.3230   22.1970 C   0  0  0  0  0  3  0  0  0  0  0  0
  -22.4250   -8.0810   21.4120 C   0  0  0  0  0  0  0  0  0  0  0  0
  -22.0300   -9.0340   20.4570 C   0  0  0  0  0  3  0  0  0  0  0  0
  -22.7540  -10.2280   20.2960 C   0  0  0  0  0  3  0  0  0  0  0  0
  -21.6740   -6.9330   21.4830 O   0  0  0  0  0  0  0  0  0  0  0  0
  -21.6100   -6.1860   22.6300 C   0  0  0  0  0  0  0  0  0  0  0  0
  -21.1750   -6.7370   23.8550 C   0  0  0  0  0  3  0  0  0  0  0  0
  -21.0570   -5.9150   24.9940 C   0  0  0  0  0  3  0  0  0  0  0  0
  -21.3650   -4.5440   24.9080 C   0  0  0  0  0  0  0  0  0  0  0  0
  -21.7960   -3.9940   23.6880 C   0  0  0  0  0  3  0  0  0  0  0  0
  -21.9160   -4.8120   22.5510 C   0  0  0  0  0  0  0  0  0  0  0  0
  -22.3100   -4.2740   21.3720 F   0  0  0  0  0  0  0  0  0  0  0  0
  -21.2430   -3.7510   25.9980 F   0  0  0  0  0  0  0  0  0  0  0  0
  -22.7390  -13.5780   21.1320 C   0  0  0  0  0  0  0  0  0  0  0  0
  -21.9740  -12.8890   21.9730 N   0  0  0  0  0  0  0  0  0  0  0  0
  -22.3220  -14.5970   20.5850 O   0  0  0  0  0  0  0  0  0  0  0  0
  -22.3270  -12.0710   22.4460 H   0  0  0  0  0  0  0  0  0  0  0  0
  -21.0260  -13.1880   22.1490 H   0  0  0  0  0  0  0  0  0  0  0  0
  -25.3880  -15.2430   20.4110 N   0  0  0  0  0  0  0  0  0  0  0  0
  -24.6110  -15.8900   20.4800 H   0  0  0  0  0  0  0  0  0  0  0  0
  -26.2570  -15.6910   20.1470 H   0  0  0  0  0  0  0  0  0  0  0  0
  1  3  1  0
  1  5  1  0
  2  4  1  0
  3  6  1  0
  5  8  1  0
  5  2  1  0
  6  7  1  1
  6  4  1  0
  8  9  1  0
 10  9  1  0
 10 11  1  0
 11 12  1  0
 12 14  1  0
 13 24  2  0
 14 19  1  0
 15 23  1  0
 15 25  1  0
 16 22  1  0
 16 18  1  0
 17 23  1  0
 18 19  2  0
 18 17  1  0
 20 21  1  0
 20 14  2  0
 21 16  2  0
 22 15  1  0
 23 13  1  0
 25 27  2  0
 26 25  1  0
 28 26  1  0
 29 38  2  0
 29 34  1  0
 30 26  1  0
 30 34  1  0
 31 30  1  0
 32 33  1  0
 32 31  1  0
 33 29  1  0
 34 35  2  0
 35 36  1  0
 37 36  2  0
 38 37  1  0
 39 13  1  0
 39 40  1  0
 39 49  1  0
 40 43  1  0
 41 45  1  0
 41 40  1  0
 42 41  2  0
 45 44  1  0
 47 45  1  0
 47 48  1  0
 47 46  1  0
 49 52  1  1
 49 50  1  0
 51 49  1  0
 53  6  1  0
 53 54  1  0
 55 54  1  0
 56 69  1  0
 57 62  1  0
 58 59  1  0
 58 57  1  0
 60 59  1  0
 60 73  1  0
 60 61  1  0
 62 56  1  0
 62 61  1  0
 63 56  2  0
 64 68  1  0
 64 66  1  0
 65 67  1  0
 66 69  1  0
 68 55  1  0
 68 65  1  0
 69 67  1  0
 70 71  2  0
 71 72  1  0
 71 90  1  0
 72 75  1  0
 73 70  1  0
 73 74  1  0
 74 72  2  0
 75 76  1  0
 76 77  2  0
 78 81  1  0
 78 77  1  0
 79 78  2  0
 80 79  1  0
 80 75  2  0
 81 82  1  0
 82 83  1  0
 83 84  2  0
 85 84  1  0
 85 89  1  0
 86 85  2  0
 87 82  2  0
 87 86  1  0
 88 87  1  0
 90 91  1  0
 91 94  1  0
 91 93  1  0
 92 90  2  0
 95 96  1  0
 95 70  1  0
 97 95  1  0
M  ISO  4  11 101  12 101  56 100  69 100
M  END
>  <TORSDO>  (51) 
F 23

>  <SCORE>  (51) 
-12.546

>  <name>  (51) 
51

>  <ligand_id>  (51) 
51

>  <original_smiles>  (51) 
[H]c1c([H])c([H])c2c(c1[H])C([H])([H])C([H])([H])C([H])([H])C2([H])N([H])C(=O)C1([H])N(C(=O)C([H])(N([H])C(=O)C([H])(N([H])C([H])([H])[H])C([H])([H])[H])C(C([H])([H])[H])(C([H])([H])[H])C([H])([H])[H])C([H])([H])c2c([H])c(OC([H])([H])C([H])([H])C([H])([H])C([H])([H])C3([H])C([H])([H])C([H])([H])C(C([H])([H])[H])(C([H])([H])C([H])([H])C([H])([H])C4([H])C([H])([H])C([H])([H])N(C(=O)N5C([H])([H])C([H])([H])C([H])([H])C([H])(n6nc(-c7c([H])c([H])c(Oc8c([H])c([H])c(F)c([H])c8F)c([H])c7[H])c(C(=O)N([H])[H])c6N([H])[H])C5([H])[H])C([H])([H])C4([H])[H])C([H])([H])C3([H])[H])c([H])c([H])c2C1([H])[H]

>  <smiles>  (51) 
[H]c1c([H])c([H])c2c(c1[H])C([H])([H])C([H])([H])C([H])([H])C2([H])N([H])C(=O)C1([H])N(C(=O)C([H])(N([H])C(=O)C([H])(N([H])C([H])([H])[H])C([H])([H])[H])C(C([H])([H])[H])(C([H])([H])[H])C([H])([H])[H])C([H])([H])c2c([H])c(OC([H])([H])C([H])([H])C([H])([H])C([H])([H])C3([H])C([H])([H])C([H])([H])C(C([H])([H])[H])(C([H])([H])C([H])([H])C([H])([H])C4([H])C([H])([H])C([H])([H])N(C(=O)N5C([H])([H])C([H])([H])C([H])([H])C([H])(n6nc(-c7c([H])c([H])c(Oc8c([H])c([H])c(F)c([H])c8F)c([H])c7[H])c(C(=O)N([H])[H])c6N([H])[H])C5([H])[H])C([H])([H])C4([H])[H])C([H])([H])C3([H])[H])c([H])c([H])c2C1([H])[H]

$$$$
52:0:0
     RDKit          3D

 96101  0  0  1  0  0  0  0  0999 V2000
  -20.8150  -25.9740   17.2860 C   0  0  0  0  0  3  0  0  0  0  0  0
  -22.4940  -25.1810   17.1390 C   0  0  0  0  0  3  0  0  0  0  0  0
  -19.6890  -25.6590   18.7540 C   0  0  0  0  0  2  0  0  0  0  0  0
  -22.5250  -23.4570   19.9010 C   0  0  0  0  0  3  0  0  0  0  0  0
  -23.3300  -24.0410   18.3440 C   0  0  0  0  0  0  0  0  0  0  0  0
  -20.8190  -24.0630   20.5140 C   0  0  0  0  0  2  0  0  0  0  0  0
  -21.0150  -24.5560   22.8940 C   0  0  0  0  0  1  0  0  0  0  0  0
  -21.7900  -24.3270   21.6800 N   0  0  0  0  0  0  0  0  0  0  0  0
  -23.4220  -24.3270   21.9070 C   0  0  0  0  0  2  0  0  0  0  0  0
  -24.8360  -24.6110   20.9080 C   0  0  0  0  0  3  0  0  0  0  0  0
  -26.5080  -24.5740   21.2850 C   0  0  0  0  0  3  0  0  0  0  0  0
  -27.8310  -24.8210   20.4270 O   0  0  0  0  0  0  0  0  0  0  0  0
  -25.9010  -29.3340   24.4740 C   0  0  0  0  0  0  0  0  0  0  0  0
  -28.0910  -26.1200   20.1390 C   0  0  0  0  0  0  0  0  0  0  0  0
  -25.1330  -29.4540   22.1520 C   0  0  0  0  0  3  0  0  0  0  0  0
  -26.5810  -28.3820   20.3590 C   0  0  0  0  0  0  0  0  0  0  0  0
  -27.5490  -28.9420   22.6160 C   0  0  0  0  0  2  0  0  0  0  0  0
  -27.5290  -28.1000   21.3550 C   0  0  0  0  0  0  0  0  0  0  0  0
  -28.3520  -26.9730   21.2230 C   0  0  0  0  0  3  0  0  0  0  0  0
  -27.3760  -26.5350   19.0140 C   0  0  0  0  0  3  0  0  0  0  0  0
  -26.5470  -27.6510   19.1560 C   0  0  0  0  0  3  0  0  0  0  0  0
  -25.5940  -29.4710   20.6670 C   0  0  0  0  0  2  0  0  0  0  0  0
  -26.2060  -29.2410   23.1450 N   0  0  0  0  0  0  0  0  0  0  0  0
  -24.7580  -29.6280   24.8650 O   0  0  0  0  0  0  0  0  0  0  0  0
  -24.1200  -28.3610   22.3110 C   0  0  0  0  0  0  0  0  0  0  0  0
  -22.9010  -28.8190   22.4480 N   0  0  0  0  0  0  0  0  0  0  0  0
  -24.4410  -27.1660   22.3170 O   0  0  0  0  0  0  0  0  0  0  0  0
  -22.6830  -29.8040   22.4690 H   0  0  0  0  0  0  0  0  0  0  0  0
  -18.9270  -28.3470   22.1140 C   0  0  0  0  0  0  0  0  0  0  0  0
  -21.9270  -27.8730   22.2210 C   0  0  0  0  0  2  0  0  0  0  0  0
  -22.1360  -27.2000   20.1700 C   0  0  0  0  0 15  0  0  0  0  0  0
  -20.0770  -27.1850   19.2330 C   0  0  0  0  0  1  0  0  0  0  0  0
  -18.6020  -27.7130   20.4560 C   0  0  0  0  0  1  0  0  0  0  0  0
  -20.3110  -28.3820   22.8730 C   0  0  0  0  0  0  0  0  0  0  0  0
  -20.3560  -29.1710   24.0650 C   0  0  0  0  0  3  0  0  0  0  0  0
  -19.2820  -29.9640   24.5260 C   0  0  0  0  0  3  0  0  0  0  0  0
  -18.0910  -30.0290   23.7870 C   0  0  0  0  0  3  0  0  0  0  0  0
  -17.9350  -29.2470   22.6200 C   0  0  0  0  0  3  0  0  0  0  0  0
  -26.9840  -29.1080   25.5580 C   0  0  0  0  0  3  0  0  0  0  0  0
  -26.5310  -28.1330   26.7100 C   0  0  1  0  0  0  0  0  0  0  0  0
  -25.1630  -28.4870   27.3400 C   0  0  0  0  0  1  0  0  0  0  0  0
  -26.4510  -26.6810   26.1860 C   0  0  0  0  0  1  0  0  0  0  0  0
  -27.5940  -28.1480   27.8330 C   0  0  0  0  0  1  0  0  0  0  0  0
  -27.3170  -30.4310   26.0910 N   0  0  0  0  0  0  0  0  0  0  0  0
  -28.0950  -31.3170   25.4600 C   0  0  0  0  0  0  0  0  0  0  0  0
  -28.6810  -31.0580   24.4040 O   0  0  0  0  0  0  0  0  0  0  0  0
  -26.8330  -30.7200   26.9280 H   0  0  0  0  0  0  0  0  0  0  0  0
  -27.2000  -33.6660   25.5360 C   0  0  0  0  0  1  0  0  0  0  0  0
  -28.2570  -32.7050   26.1040 C   0  0  0  0  0  3  0  0  0  0  0  0
  -30.6590  -32.5040   26.5660 C   0  0  0  0  0  1  0  0  0  0  0  0
  -29.6070  -33.2810   25.9170 N   0  0  0  0  0  0  0  0  0  0  0  0
  -29.6450  -34.2310   26.2770 H   0  0  0  0  0  0  0  0  0  0  0  0
  -24.8980  -23.5750   17.8660 C   0  0  0  0  0  3  0  0  0  0  0  0
  -26.3890  -23.1360   18.6340 C   0  0  0  0  0  3  0  0  0  0  0  0
  -27.9710  -23.0860   17.8920 C   0  0  0  0  0  2  0  0  0  0  0  0
  -29.5810  -23.0670   18.5670 C   0  0  0  0  0  3  0  0  0  0  0  0
  -31.0640  -22.3730   17.9530 C   0  0  0  0  0  3  0  0  0  0  0  0
  -32.6400  -22.1540   18.6880 C   0  0  0  0  0  2  0  0  0  0  0  0
  -34.7070  -20.2440   19.5430 C   0  0  0  0  0  0  0  0  0  0  0  0
  -35.8330  -17.9350   19.5820 C   0  0  0  0  0  2  0  0  0  0  0  0
  -35.4720  -17.2110   18.2610 C   0  0  0  0  0  2  0  0  0  0  0  0
  -34.0450  -16.6150   18.3120 C   0  0  0  0  0  2  0  0  0  0  0  0
  -33.0270  -17.6120   18.9180 C   0  0  0  0  0  3  0  0  0  0  0  0
  -33.5360  -18.1770   20.2510 C   0  0  0  0  0  2  0  0  0  0  0  0
  -34.7370  -18.9020   19.8900 N   0  0  0  0  0  0  0  0  0  0  0  0
  -35.8200  -20.8070   19.5460 O   0  0  0  0  0  0  0  0  0  0  0  0
  -33.4240  -20.7830   19.0830 N   0  0  0  0  0  0  0  0  0  0  0  0
  -32.7520  -20.0340   19.1600 H   0  0  0  0  0  0  0  0  0  0  0  0
  -30.4870  -17.7040   18.8980 C   0  0  0  0  0  0  0  0  0  0  0  0
  -29.5390  -16.7470   19.1230 C   0  0  0  0  0  0  0  0  0  0  0  0
  -30.2560  -15.5560   19.4500 C   0  0  0  0  0  0  0  0  0  0  0  0
  -31.7010  -17.0690   19.0780 N   0  0  0  0  0  0  0  0  0  0  0  0
  -31.5600  -15.7880   19.4820 N   0  0  0  0  0  0  0  0  0  0  0  0
  -29.7840  -14.1890   19.6680 C   0  0  0  0  0  0  0  0  0  0  0  0
  -30.2900  -13.3930   20.7190 C   0  0  0  0  0  3  0  0  0  0  0  0
  -29.8080  -12.0810   20.9120 C   0  0  0  0  0  3  0  0  0  0  0  0
  -28.8110  -11.5580   20.0540 C   0  0  0  0  0  0  0  0  0  0  0  0
  -28.3340  -12.3470   18.9930 C   0  0  0  0  0  3  0  0  0  0  0  0
  -28.8180  -13.6500   18.7990 C   0  0  0  0  0  3  0  0  0  0  0  0
  -28.3010  -10.2860   20.1530 O   0  0  0  0  0  0  0  0  0  0  0  0
  -28.6180   -9.4660   21.2050 C   0  0  0  0  0  0  0  0  0  0  0  0
  -28.2710   -9.7910   22.5360 C   0  0  0  0  0  3  0  0  0  0  0  0
  -28.5520   -8.8850   23.5770 C   0  0  0  0  0  3  0  0  0  0  0  0
  -29.1750   -7.6560   23.2910 C   0  0  0  0  0  0  0  0  0  0  0  0
  -29.5170   -7.3290   21.9680 C   0  0  0  0  0  3  0  0  0  0  0  0
  -29.2370   -8.2320   20.9280 C   0  0  0  0  0  0  0  0  0  0  0  0
  -29.5500   -7.9050   19.6500 F   0  0  0  0  0  0  0  0  0  0  0  0
  -29.4360   -6.7800   24.2910 F   0  0  0  0  0  0  0  0  0  0  0  0
  -28.0610  -16.8990   18.9290 C   0  0  0  0  0  0  0  0  0  0  0  0
  -27.2650  -16.1480   19.6830 N   0  0  0  0  0  0  0  0  0  0  0  0
  -27.6040  -17.7230   18.1390 O   0  0  0  0  0  0  0  0  0  0  0  0
  -27.6400  -15.4890   20.3480 H   0  0  0  0  0  0  0  0  0  0  0  0
  -26.2630  -16.2400   19.5980 H   0  0  0  0  0  0  0  0  0  0  0  0
  -30.4190  -19.0390   18.5220 N   0  0  0  0  0  0  0  0  0  0  0  0
  -29.5240  -19.4620   18.3030 H   0  0  0  0  0  0  0  0  0  0  0  0
  -31.2010  -19.5760   18.1710 H   0  0  0  0  0  0  0  0  0  0  0  0
  1  3  1  0
  2  1  2  0
  2  5  1  0
  3 32  1  0
  4  6  1  0
  5  4  2  0
  6  8  1  0
  8  9  1  0
  8  7  1  0
 10 11  2  0
 10  9  1  0
 12 11  1  0
 13 24  2  0
 14 12  1  0
 14 19  1  0
 15 25  1  0
 15 23  1  0
 16 22  1  0
 16 18  1  0
 17 23  1  0
 18 17  1  0
 19 18  2  0
 20 21  1  0
 20 14  2  0
 21 16  2  0
 22 15  1  0
 23 13  1  0
 25 27  2  0
 25 26  1  0
 26 28  1  0
 29 38  2  0
 29 34  1  0
 30 26  1  0
 30 34  1  0
 33 29  1  0
 34 35  2  0
 35 36  1  0
 37 36  2  0
 38 37  1  0
 39 13  1  0
 39 44  1  0
 39 40  1  0
 40 41  1  1
 40 43  1  0
 42 40  1  0
 44 47  1  0
 45 44  1  0
 45 49  1  0
 46 45  2  0
 49 48  1  0
 51 49  1  0
 51 52  1  0
 51 50  1  0
 53  5  1  0
 53 54  2  0
 55 56  1  0
 55 54  1  0
 57 56  2  0
 57 58  1  0
 58 67  1  0
 59 66  2  0
 59 65  1  0
 60 65  1  0
 61 62  1  0
 61 60  1  0
 63 62  1  0
 63 72  1  0
 63 64  1  0
 65 64  1  0
 67 68  1  0
 67 59  1  0
 69 72  1  0
 69 70  2  0
 70 71  1  0
 71 73  2  0
 71 74  1  0
 72 73  1  0
 74 75  1  0
 75 76  2  0
 77 80  1  0
 77 76  1  0
 78 77  2  0
 79 78  1  0
 79 74  2  0
 80 81  1  0
 81 82  1  0
 82 83  2  0
 84 83  1  0
 84 88  1  0
 85 84  2  0
 86 81  2  0
 86 85  1  0
 87 86  1  0
 89 70  1  0
 89 90  1  0
 90 92  1  0
 91 89  2  0
 93 90  1  0
 94 69  1  0
 95 94  1  0
 96 94  1  0
M  ISO  4  11 101  12 101  59 100  67 100
M  END
>  <TORSDO>  (52) 
F 26

>  <SCORE>  (52) 
-5.549

>  <name>  (52) 
52

>  <ligand_id>  (52) 
52

>  <original_smiles>  (52) 
[H]c1c([H])c([H])c2c(c1[H])C([H])([H])C([H])([H])C([H])([H])C2([H])N([H])C(=O)C1([H])N(C(=O)C([H])(N([H])C(=O)C([H])(N([H])C([H])([H])[H])C([H])([H])[H])C(C([H])([H])[H])(C([H])([H])[H])C([H])([H])[H])C([H])([H])c2c([H])c(OC([H])([H])C([H])([H])C([H])([H])N(c3c([H])c([H])c([H])c(C([H])([H])C([H])([H])C([H])([H])C([H])([H])C([H])([H])C([H])([H])N([H])C(=O)N4C([H])([H])C([H])([H])C([H])([H])C([H])(n5nc(-c6c([H])c([H])c(Oc7c([H])c([H])c(F)c([H])c7F)c([H])c6[H])c(C(=O)N([H])[H])c5N([H])[H])C4([H])[H])c3[H])C([H])([H])[H])c([H])c([H])c2C1([H])[H]

>  <smiles>  (52) 
[H]c1c([H])c([H])c2c(c1[H])C([H])([H])C([H])([H])C([H])([H])C2([H])N([H])C(=O)C1([H])N(C(=O)C([H])(N([H])C(=O)C([H])(N([H])C([H])([H])[H])C([H])([H])[H])C(C([H])([H])[H])(C([H])([H])[H])C([H])([H])[H])C([H])([H])c2c([H])c(OC([H])([H])C([H])([H])C([H])([H])N(c3c([H])c([H])c([H])c(C([H])([H])C([H])([H])C([H])([H])C([H])([H])C([H])([H])C([H])([H])N([H])C(=O)N4C([H])([H])C([H])([H])C([H])([H])C([H])(n5nc(-c6c([H])c([H])c(Oc7c([H])c([H])c(F)c([H])c7F)c([H])c6[H])c(C(=O)N([H])[H])c5N([H])[H])C4([H])[H])c3[H])C([H])([H])[H])c([H])c([H])c2C1([H])[H]

$$$$
53:0:0
     RDKit          3D

106113  0  0  1  0  0  0  0  0999 V2000
  -29.0010  -18.3170   18.3940 C   0  0  0  0  0  3  0  0  0  0  0  0
  -29.2530  -17.4600   19.5840 N   0  0  0  0  0  4  0  0  0  0  0  0
  -28.5810  -17.7020   20.2930 H   0  0  0  0  0  0  0  0  0  0  0  0
  -29.0800  -16.5060   19.3160 H   0  0  0  0  0  0  0  0  0  0  0  0
  -30.5980  -17.5000   20.2080 C   0  0  0  0  0  2  0  0  0  0  0  0
  -30.6370  -16.6700   21.5100 C   0  0  0  0  0  2  0  0  0  0  0  0
  -30.7510  -14.3650   20.6180 C   0  0  0  0  0  0  0  0  0  0  0  0
  -30.4140  -12.2640   19.3940 C   0  0  0  0  0  2  0  0  0  0  0  0
  -29.4810  -12.5090   18.1920 C   0  0  0  0  0  2  0  0  0  0  0  0
  -28.0030  -12.3800   18.6080 C   0  0  0  0  0  2  0  0  0  0  0  0
  -27.6660  -13.1970   19.8830 C   0  0  0  0  0  3  0  0  0  0  0  0
  -28.7090  -12.9320   20.9940 C   0  0  0  0  0  2  0  0  0  0  0  0
  -30.0480  -13.2190   20.4470 N   0  0  0  0  0  0  0  0  0  0  0  0
  -31.8280  -14.6010   20.0660 O   0  0  0  0  0  0  0  0  0  0  0  0
  -30.1310  -15.3090   21.3340 N   0  0  0  0  0  0  0  0  0  0  0  0
  -29.2730  -15.0510   21.8000 H   0  0  0  0  0  0  0  0  0  0  0  0
  -25.2600  -13.8140   20.5670 C   0  0  0  0  0  0  0  0  0  0  0  0
  -24.1840  -13.0420   20.9190 C   0  0  0  0  0  0  0  0  0  0  0  0
  -24.6390  -11.6900   20.8760 C   0  0  0  0  0  0  0  0  0  0  0  0
  -26.3040  -12.9300   20.3410 N   0  0  0  0  0  0  0  0  0  0  0  0
  -25.9310  -11.6470   20.5800 N   0  0  0  0  0  0  0  0  0  0  0  0
  -23.9050  -10.4290   21.0430 C   0  0  0  0  0  0  0  0  0  0  0  0
  -24.3610   -9.4200   21.9190 C   0  0  0  0  0  3  0  0  0  0  0  0
  -23.6290   -8.2240   22.0760 C   0  0  0  0  0  3  0  0  0  0  0  0
  -22.4270   -8.0280   21.3550 C   0  0  0  0  0  0  0  0  0  0  0  0
  -21.9910   -9.0250   20.4650 C   0  0  0  0  0  3  0  0  0  0  0  0
  -22.7240  -10.2140   20.3060 C   0  0  0  0  0  3  0  0  0  0  0  0
  -21.6630   -6.8890   21.4240 O   0  0  0  0  0  0  0  0  0  0  0  0
  -21.6850   -6.0740   22.5280 C   0  0  0  0  0  0  0  0  0  0  0  0
  -21.4010   -6.5650   23.8210 C   0  0  0  0  0  3  0  0  0  0  0  0
  -21.3650   -5.6800   24.9170 C   0  0  0  0  0  3  0  0  0  0  0  0
  -21.6050   -4.3060   24.7220 C   0  0  0  0  0  0  0  0  0  0  0  0
  -21.8820   -3.8160   23.4340 C   0  0  0  0  0  3  0  0  0  0  0  0
  -21.9190   -4.6970   22.3400 C   0  0  0  0  0  0  0  0  0  0  0  0
  -22.1660   -4.2160   21.0980 F   0  0  0  0  0  0  0  0  0  0  0  0
  -21.5630   -3.4540   25.7730 F   0  0  0  0  0  0  0  0  0  0  0  0
  -22.7870  -13.5250   21.1840 C   0  0  0  0  0  0  0  0  0  0  0  0
  -22.0500  -12.8230   22.0390 N   0  0  0  0  0  0  0  0  0  0  0  0
  -22.3570  -14.5560   20.6700 O   0  0  0  0  0  0  0  0  0  0  0  0
  -22.4110  -11.9880   22.4760 H   0  0  0  0  0  0  0  0  0  0  0  0
  -21.1120  -13.1270   22.2600 H   0  0  0  0  0  0  0  0  0  0  0  0
  -25.4310  -15.1840   20.4020 N   0  0  0  0  0  0  0  0  0  0  0  0
  -24.6530  -15.8310   20.4850 H   0  0  0  0  0  0  0  0  0  0  0  0
  -26.2630  -15.6120   20.0250 H   0  0  0  0  0  0  0  0  0  0  0  0
  -27.5150  -18.1160   17.9520 C   0  0  0  0  0  2  0  0  0  0  0  0
  -27.9510  -18.8850   15.5400 C   0  0  0  0  0  1  0  0  0  0  0  0
  -25.6990  -18.0630   16.2350 C   0  0  0  0  0  1  0  0  0  0  0  0
  -26.9360  -18.8620   16.7050 C   0  0  1  0  0  0  0  0  0  0  0  0
  -26.4600  -20.2940   17.0900 C   0  0  0  0  0  2  0  0  0  0  0  0
  -24.5930  -21.7150   16.1420 C   0  0  0  0  0  3  0  0  0  0  0  0
  -25.7620  -21.0670   15.9850 C   0  0  0  0  0  3  0  0  0  0  0  0
  -23.9760  -22.4740   15.0450 C   0  0  0  0  0  0  0  0  0  0  0  0
  -24.3060  -22.3380   13.8620 O   0  0  0  0  0  0  0  0  0  0  0  0
  -22.8810  -23.4760   15.4250 C   0  0  0  0  0  2  0  0  0  0  0  0
  -21.6070  -25.6010   14.7930 C   0  0  0  0  0  1  0  0  0  0  0  0
  -22.5610  -24.4990   14.3170 C   0  0  0  0  0  2  0  0  0  0  0  0
  -29.4140  -19.7870   18.6550 C   0  0  0  0  0  2  0  0  0  0  0  0
  -28.7070  -20.4260   19.8610 C   0  0  0  0  0  2  0  0  0  0  0  0
  -29.0360  -21.9100   20.0080 C   0  0  0  0  0  2  0  0  0  0  0  0
  -28.6390  -22.4350   21.3880 C   0  0  0  0  0  2  0  0  0  0  0  0
  -28.8940  -23.9360   21.5070 C   0  0  0  0  0  2  0  0  0  0  0  0
  -28.6900  -24.4430   22.9450 C   0  0  0  0  0  3  0  0  0  0  0  0
  -29.0370  -25.9310   23.2320 C   0  0  0  0  0  3  0  0  0  0  0  0
  -29.3780  -27.2050   22.4020 C   0  0  0  0  0  2  0  0  0  0  0  0
  -29.5490  -27.1160   20.8560 C   0  0  0  0  0  2  0  0  0  0  0  0
  -28.3990  -26.7180   20.1010 O   0  0  0  0  0  0  0  0  0  0  0  0
  -24.6050  -31.8690   23.2100 C   0  0  0  0  0  0  0  0  0  0  0  0
  -27.2640  -27.4990   20.1110 C   0  0  0  0  0  0  0  0  0  0  0  0
  -23.3920  -30.4880   21.5500 C   0  0  0  0  0  3  0  0  0  0  0  0
  -24.8430  -28.9620   20.1130 C   0  0  0  0  0  0  0  0  0  0  0  0
  -25.9070  -30.8710   21.3380 C   0  0  0  0  0  2  0  0  0  0  0  0
  -25.9950  -29.5070   20.6920 C   0  0  0  0  0  0  0  0  0  0  0  0
  -27.2070  -28.7960   20.6670 C   0  0  0  0  0  3  0  0  0  0  0  0
  -26.0970  -26.9600   19.5280 C   0  0  0  0  0  3  0  0  0  0  0  0
  -24.8890  -27.6860   19.5200 C   0  0  0  0  0  3  0  0  0  0  0  0
  -23.5950  -29.8130   20.1650 C   0  0  0  0  0  2  0  0  0  0  0  0
  -24.6540  -31.0870   22.0940 N   0  0  0  0  0  0  0  0  0  0  0  0
  -23.5270  -32.1370   23.7560 O   0  0  0  0  0  0  0  0  0  0  0  0
  -22.7370  -29.4630   22.5010 C   0  0  0  0  0  0  0  0  0  0  0  0
  -21.4100  -29.3010   22.3760 N   0  0  0  0  0  0  0  0  0  0  0  0
  -23.4160  -28.8180   23.3040 O   0  0  0  0  0  0  0  0  0  0  0  0
  -20.9260  -29.8760   21.7010 H   0  0  0  0  0  0  0  0  0  0  0  0
  -18.0240  -28.1370   22.8490 C   0  0  0  0  0  0  0  0  0  0  0  0
  -20.5820  -28.3640   23.1340 C   0  0  0  0  0  3  0  0  0  0  0  0
  -20.6730  -26.9370   22.5450 C   0  0  0  0  0  2  0  0  0  0  0  0
  -19.5730  -26.6380   21.5210 C   0  0  0  0  0  2  0  0  0  0  0  0
  -18.1900  -26.7920   22.1610 C   0  0  0  0  0  2  0  0  0  0  0  0
  -19.1490  -28.8820   23.2920 C   0  0  0  0  0  0  0  0  0  0  0  0
  -18.9430  -30.1420   23.8930 C   0  0  0  0  0  3  0  0  0  0  0  0
  -17.6440  -30.6580   24.0560 C   0  0  0  0  0  3  0  0  0  0  0  0
  -16.5330  -29.9100   23.6310 C   0  0  0  0  0  3  0  0  0  0  0  0
  -16.7240  -28.6510   23.0340 C   0  0  0  0  0  3  0  0  0  0  0  0
  -25.8960  -32.4830   23.8390 C   0  0  0  0  0  3  0  0  0  0  0  0
  -25.5830  -33.8620   24.2320 N   0  0  0  0  0  0  0  0  0  0  0  0
  -25.9010  -34.9480   23.5140 C   0  0  0  0  0  0  0  0  0  0  0  0
  -26.5600  -34.8930   22.4710 O   0  0  0  0  0  0  0  0  0  0  0  0
  -24.9930  -33.9780   25.0430 H   0  0  0  0  0  0  0  0  0  0  0  0
  -24.1480  -36.7340   23.2640 C   0  0  0  0  0  1  0  0  0  0  0  0
  -25.4100  -36.3120   24.0340 C   0  0  0  0  0  3  0  0  0  0  0  0
  -27.5580  -37.1820   24.8460 C   0  0  0  0  0  1  0  0  0  0  0  0
  -26.4280  -37.3800   23.9410 N   0  0  0  0  0  0  0  0  0  0  0  0
  -26.0180  -38.2880   24.1440 H   0  0  0  0  0  0  0  0  0  0  0  0
  -26.4430  -31.6580   25.0670 C   0  0  1  0  0  0  0  0  0  0  0  0
  -25.3750  -31.3670   26.1480 C   0  0  0  0  0  1  0  0  0  0  0  0
  -27.0250  -30.3060   24.5950 C   0  0  0  0  0  1  0  0  0  0  0  0
  -27.6010  -32.4300   25.7420 C   0  0  0  0  0  1  0  0  0  0  0  0
  1 45  1  0
  1 57  1  0
  1  2  1  0
  2  5  1  0
  2  3  1  0
  4  2  1  0
  5  6  1  0
  7 15  1  0
  8 13  1  0
  9 10  1  0
  9  8  1  0
 11 10  1  0
 11 20  1  0
 11 12  1  0
 13  7  1  0
 13 12  1  0
 14  7  2  0
 15  6  1  0
 15 16  1  0
 17 18  2  0
 18 37  1  0
 19 18  1  0
 19 22  1  0
 20 17  1  0
 20 21  1  0
 21 19  2  0
 22 23  1  0
 23 24  2  0
 25 28  1  0
 25 24  1  0
 26 25  2  0
 27 26  1  0
 27 22  2  0
 28 29  1  0
 29 30  1  0
 30 31  2  0
 32 31  1  0
 32 36  1  0
 33 32  2  0
 34 29  2  0
 34 33  1  0
 35 34  1  0
 37 38  1  0
 38 41  1  0
 38 40  1  0
 39 37  2  0
 42 43  1  0
 42 17  1  0
 44 42  1  0
 48 46  1  6
 47 48  1  0
 48 49  1  0
 48 45  1  0
 51 50  2  0
 51 49  1  0
 52 54  1  0
 52 50  1  0
 53 52  2  0
 56 55  1  0
 56 54  1  0
 57 58  1  0
 58 59  1  0
 59 60  1  0
 60 61  1  0
 61 62  1  0
 62 63  2  0
 64 63  1  0
 65 64  1  0
 66 68  1  0
 66 65  1  0
 67 78  2  0
 68 73  1  0
 69 77  1  0
 69 79  1  0
 70 76  1  0
 70 72  1  0
 71 77  1  0
 72 71  1  0
 73 72  2  0
 74 68  2  0
 75 74  1  0
 75 70  2  0
 76 69  1  0
 77 67  1  0
 79 81  2  0
 80 79  1  0
 82 80  1  0
 83 92  2  0
 83 88  1  0
 84 80  1  0
 84 88  1  0
 85 84  1  0
 86 87  1  0
 86 85  1  0
 87 83  1  0
 88 89  2  0
 89 90  1  0
 91 90  2  0
 92 91  1  0
 93 67  1  0
 93 94  1  0
 93103  1  0
 94 97  1  0
 95 99  1  0
 95 94  1  0
 96 95  2  0
 99 98  1  0
101 99  1  0
101102  1  0
101100  1  0
103106  1  1
103104  1  0
105103  1  0
M  ISO  4   7 100  15 100  65 101  66 101
M  END
>  <TORSDO>  (53) 
F 35

>  <SCORE>  (53) 
-2.862

>  <name>  (53) 
53

>  <ligand_id>  (53) 
53

>  <original_smiles>  (53) 
[H]C(C(=O)C([H])([H])C([H])([H])C([H])([H])[H])=C([H])C([H])([H])C(C([H])([H])[H])(C([H])([H])[H])C([H])([H])C([H])(C([H])([H])C([H])([H])C([H])([H])C([H])([H])C([H])([H])C([H])([H])C([H])([H])C([H])([H])C([H])([H])Oc1c([H])c([H])c2c(c1[H])C([H])([H])N(C(=O)C([H])(N([H])C(=O)C([H])(N([H])C([H])([H])[H])C([H])([H])[H])C(C([H])([H])[H])(C([H])([H])[H])C([H])([H])[H])C([H])(C(=O)N([H])C1([H])c3c([H])c([H])c([H])c([H])c3C([H])([H])C([H])([H])C1([H])[H])C2([H])[H])[N+]([H])([H])C([H])([H])C([H])([H])N([H])C(=O)N1C([H])([H])C([H])([H])C([H])([H])C([H])(n2nc(-c3c([H])c([H])c(Oc4c([H])c([H])c(F)c([H])c4F)c([H])c3[H])c(C(=O)N([H])[H])c2N([H])[H])C1([H])[H]

>  <smiles>  (53) 
[H]C(C(=O)C([H])([H])C([H])([H])C([H])([H])[H])=C([H])C([H])([H])C(C([H])([H])[H])(C([H])([H])[H])C([H])([H])C([H])(C([H])([H])C([H])([H])C([H])([H])C([H])([H])C([H])([H])C([H])([H])C([H])([H])C([H])([H])C([H])([H])Oc1c([H])c([H])c2c(c1[H])C([H])([H])N(C(=O)C([H])(N([H])C(=O)C([H])(N([H])C([H])([H])[H])C([H])([H])[H])C(C([H])([H])[H])(C([H])([H])[H])C([H])([H])[H])C([H])(C(=O)N([H])C1([H])c3c([H])c([H])c([H])c([H])c3C([H])([H])C([H])([H])C1([H])[H])C2([H])[H])[N+]([H])([H])C([H])([H])C([H])([H])N([H])C(=O)N1C([H])([H])C([H])([H])C([H])([H])C([H])(n2nc(-c3c([H])c([H])c(Oc4c([H])c([H])c(F)c([H])c4F)c([H])c3[H])c(C(=O)N([H])[H])c2N([H])[H])C1([H])[H]

$$$$
54:0:0
     RDKit          3D

101109  0  0  1  0  0  0  0  0999 V2000
  -23.4830  -24.2040   22.7330 C   0  0  0  0  0  1  0  0  0  0  0  0
  -24.9750  -23.8600   22.6090 C   0  0  0  0  0  3  0  0  0  0  0  0
  -26.2100  -25.4650   21.0990 C   0  0  0  0  0  3  0  0  0  0  0  0
  -26.5060  -25.9650   19.8210 C   0  0  0  0  0  3  0  0  0  0  0  0
  -25.1310  -23.5240   20.0900 C   0  0  0  0  0  3  0  0  0  0  0  0
  -25.4730  -24.2740   21.2350 C   0  0  0  0  0  0  0  0  0  0  0  0
  -26.0660  -25.2810   18.6670 C   0  0  0  0  0  0  0  0  0  0  0  0
  -25.4290  -24.0200   18.8020 C   0  0  0  0  0  0  0  0  0  0  0  0
  -25.0450  -23.3030   17.7010 O   0  0  0  0  0  0  0  0  0  0  0  0
  -24.8210  -22.3940   17.8840 H   0  0  0  0  0  0  0  0  0  0  0  0
  -26.1950  -25.9790   17.3120 C   0  0  0  0  0  2  0  0  0  0  0  0
  -26.4430  -27.3910   17.4210 O   0  0  0  0  0  0  0  0  0  0  0  0
  -25.0470  -31.3040   23.2140 C   0  0  0  0  0  0  0  0  0  0  0  0
  -25.5190  -28.1960   18.0660 C   0  0  0  0  0  0  0  0  0  0  0  0
  -23.1240  -30.8680   21.7160 C   0  0  0  0  0  3  0  0  0  0  0  0
  -23.6980  -29.8590   19.4510 C   0  0  0  0  0  0  0  0  0  0  0  0
  -25.5140  -30.9150   20.8000 C   0  0  0  0  0  2  0  0  0  0  0  0
  -25.0670  -29.9290   19.7400 C   0  0  0  0  0  0  0  0  0  0  0  0
  -25.9810  -29.1000   19.0510 C   0  0  0  0  0  3  0  0  0  0  0  0
  -24.1330  -28.1570   17.7780 C   0  0  0  0  0  3  0  0  0  0  0  0
  -23.2260  -28.9730   18.4720 C   0  0  0  0  0  3  0  0  0  0  0  0
  -22.7740  -30.7860   20.2080 C   0  0  0  0  0  2  0  0  0  0  0  0
  -24.5970  -31.0210   21.9580 N   0  0  0  0  0  0  0  0  0  0  0  0
  -24.2570  -31.4830   24.1510 O   0  0  0  0  0  0  0  0  0  0  0  0
  -22.5080  -29.6470   22.4350 C   0  0  0  0  0  0  0  0  0  0  0  0
  -21.1680  -29.5880   22.4750 N   0  0  0  0  0  0  0  0  0  0  0  0
  -23.2280  -28.7680   22.9170 O   0  0  0  0  0  0  0  0  0  0  0  0
  -20.6440  -30.3520   22.0670 H   0  0  0  0  0  0  0  0  0  0  0  0
  -17.8080  -28.3140   22.8250 C   0  0  0  0  0  0  0  0  0  0  0  0
  -20.3750  -28.5070   23.0580 C   0  0  0  0  0  3  0  0  0  0  0  0
  -20.4510  -27.2310   22.1860 C   0  0  0  0  0  2  0  0  0  0  0  0
  -19.3090  -27.1320   21.1700 C   0  0  0  0  0  2  0  0  0  0  0  0
  -17.9540  -27.1350   21.8810 C   0  0  0  0  0  2  0  0  0  0  0  0
  -18.9460  -28.9710   23.3670 C   0  0  0  0  0  0  0  0  0  0  0  0
  -18.7550  -30.0850   24.2130 C   0  0  0  0  0  3  0  0  0  0  0  0
  -17.4580  -30.5430   24.5200 C   0  0  0  0  0  3  0  0  0  0  0  0
  -16.3360  -29.8820   23.9910 C   0  0  0  0  0  3  0  0  0  0  0  0
  -16.5120  -28.7690   23.1490 C   0  0  0  0  0  3  0  0  0  0  0  0
  -26.5680  -31.4510   23.5270 C   0  0  0  0  0  3  0  0  0  0  0  0
  -27.1780  -30.1950   24.2610 C   0  0  1  0  0  0  0  0  0  0  0  0
  -26.3850  -29.7630   25.5160 C   0  0  0  0  0  1  0  0  0  0  0  0
  -27.2430  -28.9790   23.3070 C   0  0  0  0  0  1  0  0  0  0  0  0
  -28.6300  -30.4960   24.6990 C   0  0  0  0  0  1  0  0  0  0  0  0
  -26.7420  -32.6680   24.3310 N   0  0  0  0  0  0  0  0  0  0  0  0
  -27.1690  -33.8430   23.8480 C   0  0  0  0  0  0  0  0  0  0  0  0
  -27.5330  -33.9960   22.6770 O   0  0  0  0  0  0  0  0  0  0  0  0
  -26.4180  -32.6290   25.2860 H   0  0  0  0  0  0  0  0  0  0  0  0
  -25.9610  -35.9150   24.5960 C   0  0  0  0  0  1  0  0  0  0  0  0
  -27.2000  -35.0340   24.8210 C   0  0  0  0  0  3  0  0  0  0  0  0
  -29.6280  -35.1660   25.1570 C   0  0  0  0  0  1  0  0  0  0  0  0
  -28.4240  -35.8570   24.7080 N   0  0  0  0  0  0  0  0  0  0  0  0
  -28.3310  -36.7120   25.2480 H   0  0  0  0  0  0  0  0  0  0  0  0
  -25.4290  -25.1690   24.7760 C   0  0  0  0  0  3  0  0  0  0  0  0
  -25.8340  -24.4310   23.7230 C   0  0  0  0  0  3  0  0  0  0  0  0
  -26.4050  -25.6620   25.7600 C   0  0  0  0  0  0  0  0  0  0  0  0
  -26.3220  -25.4150   26.9640 O   0  0  0  0  0  0  0  0  0  0  0  0
  -27.5830  -26.4960   25.2480 C   0  0  0  0  0  2  0  0  0  0  0  0
  -28.7170  -25.6590   24.6210 C   0  0  0  0  0  2  0  0  0  0  0  0
  -29.1970  -26.2410   23.2740 C   0  0  0  0  0  2  0  0  0  0  0  0
  -29.9300  -25.1890   22.4260 C   0  0  0  0  0  2  0  0  0  0  0  0
  -30.4240  -25.6990   21.0610 C   0  0  0  0  0  2  0  0  0  0  0  0
  -30.8120  -24.5200   20.1680 C   0  0  0  0  0  2  0  0  0  0  0  0
  -31.6300  -24.8740   18.9110 C   0  0  0  0  0  2  0  0  0  0  0  0
  -32.2370  -23.3530   16.9800 C   0  0  0  0  0  0  0  0  0  0  0  0
  -32.3470  -21.5380   15.3030 C   0  0  0  0  0  2  0  0  0  0  0  0
  -31.0070  -21.3780   14.5520 C   0  0  0  0  0  2  0  0  0  0  0  0
  -29.9970  -20.5210   15.3460 C   0  0  0  0  0  2  0  0  0  0  0  0
  -29.8900  -20.9360   16.8360 C   0  0  0  0  0  3  0  0  0  0  0  0
  -31.2980  -21.0670   17.4480 C   0  0  0  0  0  2  0  0  0  0  0  0
  -32.0700  -22.0460   16.6530 N   0  0  0  0  0  0  0  0  0  0  0  0
  -32.6360  -24.2190   16.1930 O   0  0  0  0  0  0  0  0  0  0  0  0
  -31.9370  -23.6120   18.2550 N   0  0  0  0  0  0  0  0  0  0  0  0
  -31.7350  -22.7850   18.7960 H   0  0  0  0  0  0  0  0  0  0  0  0
  -27.7800  -20.1840   18.1160 C   0  0  0  0  0  0  0  0  0  0  0  0
  -27.4300  -18.9900   18.6870 C   0  0  0  0  0  0  0  0  0  0  0  0
  -28.5440  -18.1180   18.4770 C   0  0  0  0  0  0  0  0  0  0  0  0
  -29.0560  -20.0080   17.6010 N   0  0  0  0  0  0  0  0  0  0  0  0
  -29.5300  -18.7670   17.8700 N   0  0  0  0  0  0  0  0  0  0  0  0
  -28.7050  -16.6890   18.7700 C   0  0  0  0  0  0  0  0  0  0  0  0
  -29.7830  -16.2110   19.5500 C   0  0  0  0  0  3  0  0  0  0  0  0
  -29.9100  -14.8320   19.8290 C   0  0  0  0  0  3  0  0  0  0  0  0
  -28.9520  -13.9150   19.3330 C   0  0  0  0  0  0  0  0  0  0  0  0
  -27.8950  -14.3940   18.5390 C   0  0  0  0  0  3  0  0  0  0  0  0
  -27.7720  -15.7640   18.2560 C   0  0  0  0  0  3  0  0  0  0  0  0
  -29.0070  -12.5570   19.5330 O   0  0  0  0  0  0  0  0  0  0  0  0
  -29.5960  -12.0170   20.6490 C   0  0  0  0  0  0  0  0  0  0  0  0
  -29.0990  -12.2620   21.9480 C   0  0  0  0  0  3  0  0  0  0  0  0
  -29.6940  -11.6280   23.0590 C   0  0  0  0  0  3  0  0  0  0  0  0
  -30.7770  -10.7460   22.8720 C   0  0  0  0  0  0  0  0  0  0  0  0
  -31.2630  -10.4950   21.5780 C   0  0  0  0  0  3  0  0  0  0  0  0
  -30.6730  -11.1280   20.4690 C   0  0  0  0  0  0  0  0  0  0  0  0
  -31.1350  -10.8680   19.2230 F   0  0  0  0  0  0  0  0  0  0  0  0
  -31.3440  -10.1340   23.9370 F   0  0  0  0  0  0  0  0  0  0  0  0
  -26.1050  -18.6400   19.3070 C   0  0  0  0  0  0  0  0  0  0  0  0
  -26.0990  -17.7470   20.2900 N   0  0  0  0  0  0  0  0  0  0  0  0
  -25.0670  -19.1990   18.9540 O   0  0  0  0  0  0  0  0  0  0  0  0
  -26.9560  -17.3140   20.6050 H   0  0  0  0  0  0  0  0  0  0  0  0
  -25.2290  -17.4900   20.7340 H   0  0  0  0  0  0  0  0  0  0  0  0
  -27.1110  -21.3970   17.9730 N   0  0  0  0  0  0  0  0  0  0  0  0
  -26.1680  -21.5390   18.3130 H   0  0  0  0  0  0  0  0  0  0  0  0
  -27.4860  -22.2020   17.4850 H   0  0  0  0  0  0  0  0  0  0  0  0
  2  1  1  0
  2 54  1  0
  3  6  1  0
  4  3  2  0
  5  6  2  0
  6  2  1  0
  7  8  2  0
  7  4  1  0
  8  5  1  0
  9 10  1  0
  9  8  1  0
 11 12  1  0
 11  7  1  0
 12 14  1  0
 13 24  2  0
 14 19  1  0
 15 23  1  0
 15 25  1  0
 16 18  1  0
 16 22  1  0
 17 23  1  0
 18 17  1  0
 19 18  2  0
 20 14  2  0
 20 21  1  0
 21 16  2  0
 22 15  1  0
 23 13  1  0
 25 26  1  0
 25 27  2  0
 28 26  1  0
 29 38  2  0
 29 34  1  0
 30 26  1  0
 30 34  1  0
 31 30  1  0
 32 33  1  0
 32 31  1  0
 33 29  1  0
 34 35  2  0
 35 36  1  0
 37 36  2  0
 38 37  1  0
 39 13  1  0
 39 40  1  0
 39 44  1  0
 40 43  1  1
 40 41  1  0
 42 40  1  0
 44 47  1  0
 45 44  1  0
 45 49  1  0
 46 45  2  0
 49 48  1  0
 51 49  1  0
 51 50  1  0
 51 52  1  0
 53 55  1  0
 54 53  2  0
 55 56  2  0
 57 55  1  0
 58 57  1  0
 59 58  1  0
 60 59  1  0
 61 60  1  0
 62 61  1  0
 63 62  1  0
 64 72  1  0
 65 70  1  0
 66 65  1  0
 66 67  1  0
 68 67  1  0
 68 69  1  0
 68 77  1  0
 70 64  1  0
 70 69  1  0
 71 64  2  0
 72 73  1  0
 72 63  1  0
 74 75  2  0
 75 94  1  0
 76 75  1  0
 76 79  1  0
 77 78  1  0
 77 74  1  0
 78 76  2  0
 79 80  1  0
 80 81  2  0
 82 85  1  0
 82 81  1  0
 83 82  2  0
 84 83  1  0
 84 79  2  0
 85 86  1  0
 86 87  1  0
 87 88  2  0
 89 88  1  0
 89 93  1  0
 90 89  2  0
 91 86  2  0
 91 90  1  0
 92 91  1  0
 94 95  1  0
 95 97  1  0
 95 98  1  0
 96 94  2  0
 99 74  1  0
 99100  1  0
101 99  1  0
M  ISO  4  11 101  12 101  64 100  72 100
M  END
>  <TORSDO>  (54) 
F 28

>  <SCORE>  (54) 
-1.175

>  <name>  (54) 
54

>  <ligand_id>  (54) 
54

>  <original_smiles>  (54) 
[H]Oc1c([H])c(C([H])(C([H])=C([H])C(=O)C([H])([H])C([H])([H])C([H])([H])C([H])([H])C([H])([H])C([H])([H])C([H])([H])N([H])C(=O)N2C([H])([H])C([H])([H])C([H])([H])C([H])(n3nc(-c4c([H])c([H])c(Oc5c([H])c([H])c(F)c([H])c5F)c([H])c4[H])c(C(=O)N([H])[H])c3N([H])[H])C2([H])[H])C([H])([H])[H])c([H])c([H])c1C([H])([H])Oc1c([H])c([H])c2c(c1[H])C([H])([H])N(C(=O)C([H])(N([H])C(=O)C([H])(N([H])C([H])([H])[H])C([H])([H])[H])C(C([H])([H])[H])(C([H])([H])[H])C([H])([H])[H])C([H])(C(=O)N([H])C1([H])c3c([H])c([H])c([H])c([H])c3C([H])([H])C([H])([H])C1([H])[H])C2([H])[H]

>  <smiles>  (54) 
[H]Oc1c([H])c(C([H])(C([H])=C([H])C(=O)C([H])([H])C([H])([H])C([H])([H])C([H])([H])C([H])([H])C([H])([H])C([H])([H])N([H])C(=O)N2C([H])([H])C([H])([H])C([H])([H])C([H])(n3nc(-c4c([H])c([H])c(Oc5c([H])c([H])c(F)c([H])c5F)c([H])c4[H])c(C(=O)N([H])[H])c3N([H])[H])C2([H])[H])C([H])([H])[H])c([H])c([H])c1C([H])([H])Oc1c([H])c([H])c2c(c1[H])C([H])([H])N(C(=O)C([H])(N([H])C(=O)C([H])(N([H])C([H])([H])[H])C([H])([H])[H])C(C([H])([H])[H])(C([H])([H])[H])C([H])([H])[H])C([H])(C(=O)N([H])C1([H])c3c([H])c([H])c([H])c([H])c3C([H])([H])C([H])([H])C1([H])[H])C2([H])[H]

$$$$
55:0:0
     RDKit          3D

105114  0  0  1  0  0  0  0  0999 V2000
  -24.6970  -17.9720   18.8600 C   0  0  0  0  0  2  0  0  0  0  0  0
  -22.5650  -17.9480   17.6130 C   0  0  0  0  0  2  0  0  0  0  0  0
  -24.4360  -16.4570   19.2010 C   0  0  0  0  0  2  0  0  0  0  0  0
  -22.2500  -16.5160   18.2080 C   0  0  0  0  0  2  0  0  0  0  0  0
  -23.4830  -18.8490   18.5080 C   0  0  0  0  0  3  0  0  0  0  0  0
  -23.4840  -15.6810   18.3550 N   0  0  2  0  0  4  0  0  0  0  0  0
  -23.8550  -15.6430   17.4200 H   0  0  0  0  0  0  0  0  0  0  0  0
  -23.3070  -14.2070   18.7960 C   0  0  0  0  0  3  0  0  0  0  0  0
  -24.6370  -13.3040   18.7740 C   0  0  0  0  0  3  0  0  0  0  0  0
  -24.8120  -11.7820   19.2940 C   0  0  0  0  0  2  0  0  0  0  0  0
  -26.2660  -11.1430   19.0620 C   0  0  0  0  0  2  0  0  0  0  0  0
  -27.0440   -9.9480   19.8180 C   0  0  0  0  0  2  0  0  0  0  0  0
  -28.6120  -10.2430   20.0620 C   0  0  0  0  0  3  0  0  0  0  0  0
  -29.5910   -9.9320   21.3070 C   0  0  0  0  0  3  0  0  0  0  0  0
  -31.1720  -10.4700   21.4080 C   0  0  0  0  0  2  0  0  0  0  0  0
  -31.8140  -13.1310   21.2130 C   0  0  0  0  0  0  0  0  0  0  0  0
  -30.9150  -12.5500   19.2600 C   0  0  0  0  0  2  0  0  0  0  0  0
  -29.8750  -12.9720   18.2710 C   0  0  0  0  0  2  0  0  0  0  0  0
  -28.7000  -13.6910   18.9360 C   0  0  0  0  0  2  0  0  0  0  0  0
  -28.3710  -13.6260   20.4740 C   0  0  0  0  0  3  0  0  0  0  0  0
  -29.5000  -13.1740   21.3390 C   0  0  0  0  0  2  0  0  0  0  0  0
  -30.7230  -13.1970   20.5560 N   0  0  0  0  0  0  0  0  0  0  0  0
  -32.6970  -14.0070   21.0600 O   0  0  0  0  0  0  0  0  0  0  0  0
  -31.8260  -11.8600   21.7940 N   0  0  0  0  0  0  0  0  0  0  0  0
  -32.6320  -11.7250   22.3930 H   0  0  0  0  0  0  0  0  0  0  0  0
  -26.0850  -14.0580   21.4980 C   0  0  0  0  0  3  0  0  0  0  0  0
  -24.9930  -13.3000   21.7750 C   0  0  0  0  0  0  0  0  0  0  0  0
  -25.3610  -11.9500   21.4810 C   0  0  0  0  0  0  0  0  0  0  0  0
  -27.0480  -13.2220   20.9870 N   0  0  0  0  0  0  0  0  0  0  0  0
  -26.6460  -11.9250   21.1320 N   0  0  0  0  0  2  0  0  0  0  0  0
  -24.5420  -10.7170   21.5010 C   0  0  0  0  0  0  0  0  0  0  0  0
  -24.8950   -9.6400   22.3410 C   0  0  0  0  0  3  0  0  0  0  0  0
  -24.0800   -8.4890   22.4180 C   0  0  0  0  0  3  0  0  0  0  0  0
  -22.9230   -8.3760   21.6120 C   0  0  0  0  0  0  0  0  0  0  0  0
  -22.6070   -9.4220   20.7240 C   0  0  0  0  0  3  0  0  0  0  0  0
  -23.3920  -10.5930   20.6870 C   0  0  0  0  0  3  0  0  0  0  0  0
  -22.0930   -7.2830   21.5760 O   0  0  0  0  0  0  0  0  0  0  0  0
  -21.8070   -6.5430   22.7120 C   0  0  0  0  0  0  0  0  0  0  0  0
  -21.2020   -7.1270   23.8360 C   0  0  0  0  0  3  0  0  0  0  0  0
  -20.8580   -6.3300   24.9480 C   0  0  0  0  0  3  0  0  0  0  0  0
  -21.1090   -4.9420   24.9230 C   0  0  0  0  0  0  0  0  0  0  0  0
  -21.7090   -4.3560   23.7960 C   0  0  0  0  0  3  0  0  0  0  0  0
  -22.0620   -5.1570   22.6910 C   0  0  0  0  0  0  0  0  0  0  0  0
  -22.6170   -4.5840   21.5960 F   0  0  0  0  0  0  0  0  0  0  0  0
  -20.7760   -4.1740   25.9870 F   0  0  0  0  0  0  0  0  0  0  0  0
  -23.6620  -13.7950   22.2350 C   0  0  0  0  0  0  0  0  0  0  0  0
  -22.9950  -13.0300   23.0810 N   0  0  0  0  0  0  0  0  0  0  0  0
  -23.2390  -14.9010   21.8870 O   0  0  0  0  0  0  0  0  0  0  0  0
  -23.3490  -12.1240   23.3580 H   0  0  0  0  0  0  0  0  0  0  0  0
  -22.1380  -13.3750   23.4910 H   0  0  0  0  0  0  0  0  0  0  0  0
  -26.3280  -15.4180   21.6450 N   0  0  0  0  0  0  0  0  0  0  0  0
  -25.6670  -16.0060   22.1240 H   0  0  0  0  0  0  0  0  0  0  0  0
  -27.1980  -15.8790   21.4370 H   0  0  0  0  0  0  0  0  0  0  0  0
  -23.9310  -20.2710   17.9290 C   0  0  0  0  0  3  0  0  0  0  0  0
  -24.7100  -21.2700   18.8970 C   0  0  0  0  0  3  0  0  0  0  0  0
  -24.9740  -23.0860   17.0770 C   0  0  0  0  0  3  0  0  0  0  0  0
  -25.5910  -24.2410   16.5440 C   0  0  0  0  0  3  0  0  0  0  0  0
  -26.1250  -23.5100   19.1710 C   0  0  0  0  0  3  0  0  0  0  0  0
  -25.2700  -22.6480   18.3790 C   0  0  0  0  0  0  0  0  0  0  0  0
  -26.7170  -24.7320   18.6780 C   0  0  0  0  0  0  0  0  0  0  0  0
  -26.4550  -25.0590   17.3300 C   0  0  0  0  0  0  0  0  0  0  0  0
  -27.1830  -26.3030   15.4470 C   0  0  0  0  0  1  0  0  0  0  0  0
  -27.0430  -26.2020   16.8490 O   0  0  0  0  0  0  0  0  0  0  0  0
  -27.6680  -25.6750   19.5630 C   0  0  0  0  0  2  0  0  0  0  0  0
  -27.9230  -27.1370   19.2650 O   0  0  0  0  0  0  0  0  0  0  0  0
  -24.5990  -32.2100   23.2990 C   0  0  0  0  0  0  0  0  0  0  0  0
  -26.8830  -28.0380   19.5080 C   0  0  0  0  0  0  0  0  0  0  0  0
  -23.2580  -30.9250   21.6870 C   0  0  0  0  0  3  0  0  0  0  0  0
  -24.5630  -29.5860   19.9690 C   0  0  0  0  0  0  0  0  0  0  0  0
  -25.7510  -31.3690   21.2390 C   0  0  0  0  0  2  0  0  0  0  0  0
  -25.7900  -30.0610   20.4440 C   0  0  0  0  0  0  0  0  0  0  0  0
  -26.9660  -29.2850   20.2200 C   0  0  0  0  0  3  0  0  0  0  0  0
  -25.6200  -27.6350   19.0430 C   0  0  0  0  0  3  0  0  0  0  0  0
  -24.4690  -28.3700   19.2990 C   0  0  0  0  0  3  0  0  0  0  0  0
  -23.3320  -30.4040   20.2400 C   0  0  0  0  0  2  0  0  0  0  0  0
  -24.5610  -31.5090   22.1320 N   0  0  0  0  0  0  0  0  0  0  0  0
  -23.5740  -32.3790   23.9820 O   0  0  0  0  0  0  0  0  0  0  0  0
  -22.7440  -29.7880   22.6040 C   0  0  0  0  0  0  0  0  0  0  0  0
  -21.4570  -29.4230   22.4690 N   0  0  0  0  0  0  0  0  0  0  0  0
  -23.5040  -29.2290   23.3930 O   0  0  0  0  0  0  0  0  0  0  0  0
  -20.8900  -29.9000   21.7840 H   0  0  0  0  0  0  0  0  0  0  0  0
  -18.3540  -27.6270   22.8450 C   0  0  0  0  0  0  0  0  0  0  0  0
  -20.8010  -28.3620   23.2320 C   0  0  0  0  0  3  0  0  0  0  0  0
  -21.2050  -26.9670   22.7000 C   0  0  0  0  0  2  0  0  0  0  0  0
  -20.2390  -26.4260   21.6410 C   0  0  0  0  0  2  0  0  0  0  0  0
  -18.8210  -26.3270   22.2090 C   0  0  0  0  0  2  0  0  0  0  0  0
  -19.2890  -28.5850   23.3150 C   0  0  0  0  0  0  0  0  0  0  0  0
  -18.8170  -29.7930   23.8770 C   0  0  0  0  0  3  0  0  0  0  0  0
  -17.4370  -30.0490   23.9720 C   0  0  0  0  0  3  0  0  0  0  0  0
  -16.5140  -29.0900   23.5270 C   0  0  0  0  0  3  0  0  0  0  0  0
  -16.9740  -27.8850   22.9630 C   0  0  0  0  0  3  0  0  0  0  0  0
  -25.9110  -32.8470   23.8160 C   0  0  0  0  0  3  0  0  0  0  0  0
  -25.6150  -34.2340   24.1990 N   0  0  0  0  0  0  0  0  0  0  0  0
  -25.9210  -35.3080   23.4630 C   0  0  0  0  0  0  0  0  0  0  0  0
  -26.5630  -35.2410   22.4090 O   0  0  0  0  0  0  0  0  0  0  0  0
  -25.0320  -34.3480   25.0110 H   0  0  0  0  0  0  0  0  0  0  0  0
  -24.2100  -37.1290   23.1820 C   0  0  0  0  0  1  0  0  0  0  0  0
  -25.4430  -36.6800   23.9780 C   0  0  0  0  0  3  0  0  0  0  0  0
  -27.5750  -37.5130   24.8460 C   0  0  0  0  0  1  0  0  0  0  0  0
  -26.4770  -37.7260   23.9120 N   0  0  0  0  0  0  0  0  0  0  0  0
  -26.0770  -38.6400   24.0940 H   0  0  0  0  0  0  0  0  0  0  0  0
  -26.5360  -32.0630   25.0350 C   0  0  1  0  0  0  0  0  0  0  0  0
  -25.5430  -31.8110   26.1870 C   0  0  0  0  0  1  0  0  0  0  0  0
  -27.0980  -30.6920   24.5880 C   0  0  0  0  0  1  0  0  0  0  0  0
  -27.7280  -32.8590   25.6230 C   0  0  0  0  0  1  0  0  0  0  0  0
  1  3  1  0
  2  4  1  0
  2  5  1  0
  4  6  1  0
  5 54  1  0
  5  1  1  0
  6  8  1  0
  6  3  1  0
  6  7  1  6
  9  8  2  0
  9 10  1  0
 11 10  1  0
 11 12  1  0
 12 13  1  0
 13 14  2  0
 14 15  1  0
 15 24  1  0
 16 24  1  0
 17 22  1  0
 18 19  1  0
 18 17  1  0
 20 19  1  0
 20 29  1  0
 20 21  1  0
 22 16  1  0
 22 21  1  0
 23 16  2  0
 24 25  1  0
 26 51  1  0
 26 27  1  0
 27 46  1  0
 28 31  1  0
 28 27  2  0
 29 30  1  0
 29 26  1  0
 30 28  1  0
 31 32  1  0
 32 33  2  0
 34 33  1  0
 35 34  2  0
 36 35  1  0
 36 31  2  0
 37 34  1  0
 37 38  1  0
 38 39  1  0
 39 40  2  0
 41 40  1  0
 41 45  1  0
 42 41  2  0
 43 38  2  0
 43 42  1  0
 44 43  1  0
 46 47  1  0
 47 49  1  0
 47 50  1  0
 48 46  2  0
 51 52  1  0
 53 51  1  0
 54 55  2  0
 56 59  1  0
 57 56  2  0
 57 61  1  0
 59 55  1  0
 59 58  2  0
 60 58  1  0
 60 64  1  0
 61 60  2  0
 62 63  1  0
 63 61  1  0
 65 67  1  0
 65 64  1  0
 66 77  2  0
 67 72  1  0
 68 76  1  0
 68 78  1  0
 69 75  1  0
 69 71  1  0
 70 76  1  0
 71 70  1  0
 72 71  2  0
 73 74  1  0
 73 67  2  0
 74 69  2  0
 75 68  1  0
 76 66  1  0
 78 80  2  0
 79 78  1  0
 81 79  1  0
 82 91  2  0
 82 87  1  0
 83 79  1  0
 83 87  1  0
 84 83  1  0
 85 86  1  0
 85 84  1  0
 86 82  1  0
 87 88  2  0
 88 89  1  0
 90 89  2  0
 91 90  1  0
 92 66  1  0
 92 93  1  0
 92102  1  0
 93 96  1  0
 94 98  1  0
 94 93  1  0
 95 94  2  0
 98 97  1  0
100 98  1  0
100101  1  0
100 99  1  0
102105  1  1
102103  1  0
104102  1  0
M  ISO  4  16 100  24 100  64 101  65 101
M  END
>  <TORSDO>  (55) 
F 29

>  <SCORE>  (55) 
12.918

>  <name>  (55) 
55

>  <ligand_id>  (55) 
55

>  <original_smiles>  (55) 
[H]c1c([H])c([H])c2c(c1[H])C([H])([H])C([H])([H])C([H])([H])C2([H])N([H])C(=O)C1([H])N(C(=O)C([H])(N([H])C(=O)C([H])(N([H])C([H])([H])[H])C([H])([H])[H])C(C([H])([H])[H])(C([H])([H])[H])C([H])([H])[H])C([H])([H])c2c([H])c(OC([H])([H])c3c([H])c(C([H])([H])C([H])([H])C4([H])C([H])([H])C([H])([H])[N+]([H])(C([H])([H])C([H])([H])C([H])([H])C([H])([H])C([H])([H])C([H])([H])C([H])([H])C([H])([H])N([H])C(=O)N5C([H])([H])C([H])([H])C([H])([H])C([H])(n6nc(-c7c([H])c([H])c(Oc8c([H])c([H])c(F)c([H])c8F)c([H])c7[H])c(C(=O)N([H])[H])c6N([H])[H])C5([H])[H])C([H])([H])C4([H])[H])c([H])c([H])c3OC([H])([H])[H])c([H])c([H])c2C1([H])[H]

>  <smiles>  (55) 
[H]c1c([H])c([H])c2c(c1[H])C([H])([H])C([H])([H])C([H])([H])C2([H])N([H])C(=O)C1([H])N(C(=O)C([H])(N([H])C(=O)C([H])(N([H])C([H])([H])[H])C([H])([H])[H])C(C([H])([H])[H])(C([H])([H])[H])C([H])([H])[H])C([H])([H])c2c([H])c(OC([H])([H])c3c([H])c(C([H])([H])C([H])([H])C4([H])C([H])([H])C([H])([H])[N+]([H])(C([H])([H])C([H])([H])C([H])([H])C([H])([H])C([H])([H])C([H])([H])C([H])([H])C([H])([H])N([H])C(=O)N5C([H])([H])C([H])([H])C([H])([H])C([H])(n6nc(-c7c([H])c([H])c(Oc8c([H])c([H])c(F)c([H])c8F)c([H])c7[H])c(C(=O)N([H])[H])c6N([H])[H])C5([H])[H])C([H])([H])C4([H])[H])c([H])c([H])c3OC([H])([H])[H])c([H])c([H])c2C1([H])[H]

$$$$
56:0:0
     RDKit          3D

 94101  0  0  1  0  0  0  0  0999 V2000
  -29.7560  -20.6050   23.6910 C   0  0  0  0  0  2  0  0  0  0  0  0
  -30.8400  -19.6180   24.1650 C   0  0  0  0  0  2  0  0  0  0  0  0
  -31.0190  -17.6330   22.6670 C   0  0  0  0  0  0  0  0  0  0  0  0
  -31.4000  -18.8590   23.0480 N   0  0  0  0  0  0  0  0  0  0  0  0
  -30.1640  -16.9780   23.2680 O   0  0  0  0  0  0  0  0  0  0  0  0
  -32.1160  -19.3120   22.4960 H   0  0  0  0  0  0  0  0  0  0  0  0
  -31.6780  -17.0590   21.4050 C   0  0  0  0  0  3  0  0  0  0  0  0
  -31.7490  -14.7750   20.3770 C   0  0  0  0  0  0  0  0  0  0  0  0
  -31.2890  -12.7480   19.0530 C   0  0  0  0  0  2  0  0  0  0  0  0
  -30.3540  -13.1020   17.8770 C   0  0  0  0  0  2  0  0  0  0  0  0
  -28.8770  -13.0380   18.3110 C   0  0  0  0  0  2  0  0  0  0  0  0
  -28.6060  -13.8110   19.6290 C   0  0  0  0  0  3  0  0  0  0  0  0
  -29.6440  -13.4270   20.7080 C   0  0  0  0  0  2  0  0  0  0  0  0
  -30.9910  -13.6690   20.1590 N   0  0  0  0  0  0  0  0  0  0  0  0
  -32.8410  -14.9670   19.8340 O   0  0  0  0  0  0  0  0  0  0  0  0
  -31.1830  -15.7060   21.1500 N   0  0  0  0  0  0  0  0  0  0  0  0
  -30.3100  -15.4800   21.6050 H   0  0  0  0  0  0  0  0  0  0  0  0
  -26.2320  -14.5370   20.3140 C   0  0  0  0  0  0  0  0  0  0  0  0
  -25.1270  -13.8160   20.6820 C   0  0  0  0  0  0  0  0  0  0  0  0
  -25.5250  -12.4440   20.6580 C   0  0  0  0  0  0  0  0  0  0  0  0
  -27.2380  -13.6060   20.0970 N   0  0  0  0  0  0  0  0  0  0  0  0
  -26.8140  -12.3430   20.3580 N   0  0  0  0  0  0  0  0  0  0  0  0
  -24.7400  -11.2170   20.8500 C   0  0  0  0  0  0  0  0  0  0  0  0
  -25.0770  -10.2730   21.8440 C   0  0  0  0  0  3  0  0  0  0  0  0
  -24.2960   -9.1100   22.0190 C   0  0  0  0  0  3  0  0  0  0  0  0
  -23.1640   -8.8840   21.2010 C   0  0  0  0  0  0  0  0  0  0  0  0
  -22.8470   -9.8160   20.1980 C   0  0  0  0  0  3  0  0  0  0  0  0
  -23.6290  -10.9700   20.0190 C   0  0  0  0  0  3  0  0  0  0  0  0
  -22.3640   -7.7710   21.2830 O   0  0  0  0  0  0  0  0  0  0  0  0
  -22.1250   -7.1420   22.4790 C   0  0  0  0  0  0  0  0  0  0  0  0
  -21.5660   -7.8230   23.5810 C   0  0  0  0  0  3  0  0  0  0  0  0
  -21.2740   -7.1220   24.7680 C   0  0  0  0  0  3  0  0  0  0  0  0
  -21.5310   -5.7400   24.8510 C   0  0  0  0  0  0  0  0  0  0  0  0
  -22.0830   -5.0580   23.7540 C   0  0  0  0  0  3  0  0  0  0  0  0
  -22.3770   -5.7570   22.5690 C   0  0  0  0  0  0  0  0  0  0  0  0
  -22.8890   -5.0920   21.5060 F   0  0  0  0  0  0  0  0  0  0  0  0
  -21.2430   -5.0650   25.9890 F   0  0  0  0  0  0  0  0  0  0  0  0
  -23.7520  -14.3580   20.9470 C   0  0  0  0  0  0  0  0  0  0  0  0
  -23.0020  -13.7180   21.8370 N   0  0  0  0  0  0  0  0  0  0  0  0
  -23.3520  -15.3850   20.3990 O   0  0  0  0  0  0  0  0  0  0  0  0
  -23.3370  -12.8880   22.3020 H   0  0  0  0  0  0  0  0  0  0  0  0
  -22.0790  -14.0650   22.0580 H   0  0  0  0  0  0  0  0  0  0  0  0
  -26.4610  -15.8960   20.1310 N   0  0  0  0  0  0  0  0  0  0  0  0
  -25.7260  -16.5880   20.2370 H   0  0  0  0  0  0  0  0  0  0  0  0
  -27.3350  -16.2950   19.8150 H   0  0  0  0  0  0  0  0  0  0  0  0
  -31.5190  -17.9560   20.1490 C   0  0  0  0  0  2  0  0  0  0  0  0
  -29.9780  -19.0150   18.4060 C   0  0  0  0  0  1  0  0  0  0  0  0
  -30.0680  -18.1440   19.6640 C   0  0  0  0  0  2  0  0  0  0  0  0
  -30.3130  -21.8570   22.9880 C   0  0  0  0  0  2  0  0  0  0  0  0
  -29.2060  -22.7380   22.3760 C   0  0  0  0  0  2  0  0  0  0  0  0
  -29.7050  -24.1380   21.9750 C   0  0  0  0  0  2  0  0  0  0  0  0
  -28.6940  -24.9120   21.1090 C   0  0  0  0  0  2  0  0  0  0  0  0
  -29.1480  -26.3500   20.7940 C   0  0  0  0  0  2  0  0  0  0  0  0
  -28.5200  -26.8050   19.6010 O   0  0  0  0  0  0  0  0  0  0  0  0
  -24.6350  -31.6940   23.0610 C   0  0  0  0  0  0  0  0  0  0  0  0
  -27.3380  -27.4830   19.7500 C   0  0  0  0  0  0  0  0  0  0  0  0
  -23.4320  -30.3310   21.3800 C   0  0  0  0  0  3  0  0  0  0  0  0
  -24.9000  -28.8920   19.8700 C   0  0  0  0  0  0  0  0  0  0  0  0
  -25.9380  -30.7720   21.1520 C   0  0  0  0  0  2  0  0  0  0  0  0
  -26.0490  -29.4280   20.4660 C   0  0  0  0  0  0  0  0  0  0  0  0
  -27.2720  -28.7260   20.4130 C   0  0  0  0  0  3  0  0  0  0  0  0
  -26.1780  -26.9540   19.1500 C   0  0  0  0  0  3  0  0  0  0  0  0
  -24.9560  -27.6480   19.2150 C   0  0  0  0  0  3  0  0  0  0  0  0
  -23.6320  -29.7120   19.9710 C   0  0  0  0  0  2  0  0  0  0  0  0
  -24.6870  -30.9450   21.9230 N   0  0  0  0  0  0  0  0  0  0  0  0
  -23.5590  -31.9140   23.6330 O   0  0  0  0  0  0  0  0  0  0  0  0
  -22.8270  -29.2530   22.3090 C   0  0  0  0  0  0  0  0  0  0  0  0
  -21.5110  -29.0240   22.1790 N   0  0  0  0  0  0  0  0  0  0  0  0
  -23.5400  -28.6280   23.0990 O   0  0  0  0  0  0  0  0  0  0  0  0
  -20.9970  -29.5850   21.5120 H   0  0  0  0  0  0  0  0  0  0  0  0
  -18.1910  -27.6720   22.6230 C   0  0  0  0  0  0  0  0  0  0  0  0
  -20.7340  -28.0300   22.9170 C   0  0  0  0  0  3  0  0  0  0  0  0
  -20.9020  -26.6220   22.3000 C   0  0  0  0  0  2  0  0  0  0  0  0
  -19.8190  -26.2830   21.2720 C   0  0  0  0  0  2  0  0  0  0  0  0
  -18.4280  -26.3510   21.9110 C   0  0  0  0  0  2  0  0  0  0  0  0
  -19.2740  -28.4670   23.0810 C   0  0  0  0  0  0  0  0  0  0  0  0
  -19.0000  -29.7040   23.7050 C   0  0  0  0  0  3  0  0  0  0  0  0
  -17.6740  -30.1460   23.8770 C   0  0  0  0  0  3  0  0  0  0  0  0
  -16.6050  -29.3460   23.4360 C   0  0  0  0  0  3  0  0  0  0  0  0
  -16.8640  -28.1110   22.8150 C   0  0  0  0  0  3  0  0  0  0  0  0
  -25.9190  -32.3290   23.6820 C   0  0  0  0  0  3  0  0  0  0  0  0
  -26.4780  -31.5200   24.9170 C   0  0  1  0  0  0  0  0  0  0  0  0
  -25.4130  -31.2160   25.9950 C   0  0  0  0  0  1  0  0  0  0  0  0
  -27.0830  -30.1730   24.4570 C   0  0  0  0  0  1  0  0  0  0  0  0
  -27.6250  -32.3130   25.5870 C   0  0  0  0  0  1  0  0  0  0  0  0
  -25.5860  -33.7060   24.0690 N   0  0  0  0  0  0  0  0  0  0  0  0
  -25.9060  -34.7940   23.3570 C   0  0  0  0  0  0  0  0  0  0  0  0
  -26.5860  -34.7450   22.3270 O   0  0  0  0  0  0  0  0  0  0  0  0
  -24.9840  -33.8180   24.8720 H   0  0  0  0  0  0  0  0  0  0  0  0
  -24.1510  -36.5700   23.0620 C   0  0  0  0  0  1  0  0  0  0  0  0
  -25.3930  -36.1540   23.8670 C   0  0  0  0  0  3  0  0  0  0  0  0
  -27.5060  -37.0360   24.7510 C   0  0  0  0  0  1  0  0  0  0  0  0
  -26.4090  -37.2270   23.8070 N   0  0  0  0  0  0  0  0  0  0  0  0
  -25.9860  -38.1320   23.9910 H   0  0  0  0  0  0  0  0  0  0  0  0
  1  2  1  0
  3  4  1  0
  3  5  2  0
  4  2  1  0
  6  4  1  0
  7 46  1  0
  7  3  1  0
  8 16  1  0
  9 14  1  0
 10 11  1  0
 10  9  1  0
 12 11  1  0
 12 21  1  0
 12 13  1  0
 14  8  1  0
 14 13  1  0
 15  8  2  0
 16  7  1  0
 16 17  1  0
 18 19  2  0
 19 38  1  0
 20 19  1  0
 20 23  1  0
 21 18  1  0
 21 22  1  0
 22 20  2  0
 23 24  1  0
 24 25  2  0
 26 29  1  0
 26 25  1  0
 27 26  2  0
 28 27  1  0
 28 23  2  0
 29 30  1  0
 30 35  2  0
 30 31  1  0
 31 32  2  0
 32 33  1  0
 33 37  1  0
 34 33  2  0
 35 34  1  0
 36 35  1  0
 38 39  1  0
 39 42  1  0
 39 41  1  0
 40 38  2  0
 43 44  1  0
 43 18  1  0
 45 43  1  0
 47 48  1  0
 48 46  1  0
 49  1  1  0
 50 49  1  0
 51 50  1  0
 52 51  1  0
 53 52  1  0
 54 56  1  0
 54 53  1  0
 55 66  2  0
 56 61  1  0
 57 65  1  0
 57 67  1  0
 58 64  1  0
 58 60  1  0
 59 65  1  0
 60 59  1  0
 61 60  2  0
 62 63  1  0
 62 56  2  0
 63 58  2  0
 64 57  1  0
 65 55  1  0
 67 69  2  0
 68 67  1  0
 70 68  1  0
 71 80  2  0
 71 76  1  0
 72 68  1  0
 72 76  1  0
 73 72  1  0
 74 75  1  0
 74 73  1  0
 75 71  1  0
 76 77  2  0
 77 78  1  0
 79 78  2  0
 80 79  1  0
 81 55  1  0
 81 86  1  0
 81 82  1  0
 82 85  1  1
 82 83  1  0
 84 82  1  0
 86 89  1  0
 87 91  1  0
 87 86  1  0
 88 87  2  0
 91 90  1  0
 93 91  1  0
 93 94  1  0
 93 92  1  0
M  ISO  4   8 100  16 100  53 101  54 101
M  END
>  <TORSDO>  (56) 
F 26

>  <SCORE>  (56) 
-9.198

>  <name>  (56) 
56

>  <ligand_id>  (56) 
56

>  <original_smiles>  (56) 
[H]c1c([H])c([H])c2c(c1[H])C([H])([H])C([H])([H])C([H])([H])C2([H])N([H])C(=O)C1([H])N(C(=O)C([H])(N([H])C(=O)C([H])(N([H])C([H])([H])[H])C([H])([H])[H])C(C([H])([H])[H])(C([H])([H])[H])C([H])([H])[H])C([H])([H])c2c([H])c(OC([H])([H])C([H])([H])C([H])([H])C([H])([H])C([H])([H])C([H])([H])C([H])([H])N([H])C(=O)C([H])(N([H])C(=O)N3C([H])([H])C([H])([H])C([H])([H])C([H])(n4nc(-c5c([H])c([H])c(Oc6c([H])c([H])c(F)c([H])c6F)c([H])c5[H])c(C(=O)N([H])[H])c4N([H])[H])C3([H])[H])C([H])([H])C([H])([H])C([H])([H])[H])c([H])c([H])c2C1([H])[H]

>  <smiles>  (56) 
[H]c1c([H])c([H])c2c(c1[H])C([H])([H])C([H])([H])C([H])([H])C2([H])N([H])C(=O)C1([H])N(C(=O)C([H])(N([H])C(=O)C([H])(N([H])C([H])([H])[H])C([H])([H])[H])C(C([H])([H])[H])(C([H])([H])[H])C([H])([H])[H])C([H])([H])c2c([H])c(OC([H])([H])C([H])([H])C([H])([H])C([H])([H])C([H])([H])C([H])([H])C([H])([H])N([H])C(=O)C([H])(N([H])C(=O)N3C([H])([H])C([H])([H])C([H])([H])C([H])(n4nc(-c5c([H])c([H])c(Oc6c([H])c([H])c(F)c([H])c6F)c([H])c5[H])c(C(=O)N([H])[H])c4N([H])[H])C3([H])[H])C([H])([H])C([H])([H])C([H])([H])[H])c([H])c([H])c2C1([H])[H]

$$$$
57:0:0
     RDKit          3D

 99107  0  0  1  0  0  0  0  0999 V2000
  -26.9670  -23.5700   20.4250 C   0  0  0  0  0  3  0  0  0  0  0  0
  -27.8520  -23.5300   21.5160 C   0  0  0  0  0  3  0  0  0  0  0  0
  -28.7350  -24.4890   19.0300 C   0  0  0  0  0  3  0  0  0  0  0  0
  -27.4060  -24.0410   19.1720 C   0  0  0  0  0  0  0  0  0  0  0  0
  -29.1910  -23.9650   21.3820 C   0  0  0  0  0  0  0  0  0  0  0  0
  -29.6260  -24.4740   20.1250 C   0  0  0  0  0  0  0  0  0  0  0  0
  -31.0360  -24.9990   19.9070 C   0  0  0  0  0  1  0  0  0  0  0  0
  -29.7100  -24.6100   23.7980 C   0  0  0  0  0  1  0  0  0  0  0  0
  -30.1460  -23.7910   22.5700 C   0  0  0  0  0  3  0  0  0  0  0  0
  -30.3060  -22.3520   22.8990 N   0  0  0  0  0  4  0  0  0  0  0  0
  -30.9310  -22.2730   23.6850 H   0  0  0  0  0  0  0  0  0  0  0  0
  -29.4110  -21.9900   23.1800 H   0  0  0  0  0  0  0  0  0  0  0  0
  -30.8290  -21.5210   21.7890 C   0  0  0  0  0  2  0  0  0  0  0  0
  -30.9500  -20.0280   22.1360 C   0  0  0  0  0  2  0  0  0  0  0  0
  -31.4920  -19.2480   20.9270 C   0  0  0  0  0  2  0  0  0  0  0  0
  -31.6430  -17.7410   21.1610 C   0  0  0  0  0  2  0  0  0  0  0  0
  -32.4890  -17.0970   20.0490 C   0  0  0  0  0  2  0  0  0  0  0  0
  -32.9670  -15.6750   20.3710 C   0  0  0  0  0  2  0  0  0  0  0  0
  -31.9240  -13.7570   19.1610 C   0  0  0  0  0  0  0  0  0  0  0  0
  -31.3510  -11.3800   18.8690 C   0  0  0  0  0  2  0  0  0  0  0  0
  -30.2960  -11.0950   17.7920 C   0  0  0  0  0  2  0  0  0  0  0  0
  -28.8800  -11.2200   18.3780 C   0  0  0  0  0  2  0  0  0  0  0  0
  -28.6730  -12.5540   19.1380 C   0  0  0  0  0  3  0  0  0  0  0  0
  -29.8170  -12.8050   20.1420 C   0  0  0  0  0  2  0  0  0  0  0  0
  -31.1090  -12.7130   19.4340 N   0  0  0  0  0  0  0  0  0  0  0  0
  -32.7510  -13.7670   18.2440 O   0  0  0  0  0  0  0  0  0  0  0  0
  -31.9340  -14.6720   20.1360 N   0  0  0  0  0  0  0  0  0  0  0  0
  -31.2560  -14.5340   20.8720 H   0  0  0  0  0  0  0  0  0  0  0  0
  -26.6180  -13.6890   20.1990 C   0  0  0  0  0  0  0  0  0  0  0  0
  -25.4420  -13.1810   20.6850 C   0  0  0  0  0  0  0  0  0  0  0  0
  -25.5350  -11.7640   20.5370 C   0  0  0  0  0  0  0  0  0  0  0  0
  -27.3650  -12.5950   19.7910 N   0  0  0  0  0  0  0  0  0  0  0  0
  -26.7210  -11.4280   20.0490 N   0  0  0  0  0  0  0  0  0  0  0  0
  -24.5390  -10.7100   20.7780 C   0  0  0  0  0  0  0  0  0  0  0  0
  -24.8280   -9.5950   21.5970 C   0  0  0  0  0  3  0  0  0  0  0  0
  -23.8500   -8.6050   21.8280 C   0  0  0  0  0  3  0  0  0  0  0  0
  -22.5660   -8.7250   21.2450 C   0  0  0  0  0  0  0  0  0  0  0  0
  -22.2920   -9.8250   20.4130 C   0  0  0  0  0  3  0  0  0  0  0  0
  -23.2690  -10.8070   20.1780 C   0  0  0  0  0  3  0  0  0  0  0  0
  -21.5620   -7.8000   21.3920 O   0  0  0  0  0  0  0  0  0  0  0  0
  -21.4750   -7.0040   22.5070 C   0  0  0  0  0  0  0  0  0  0  0  0
  -21.3900   -7.5480   23.8070 C   0  0  0  0  0  3  0  0  0  0  0  0
  -21.2310   -6.6960   24.9180 C   0  0  0  0  0  3  0  0  0  0  0  0
  -21.1500   -5.3030   24.7320 C   0  0  0  0  0  0  0  0  0  0  0  0
  -21.2300   -4.7600   23.4370 C   0  0  0  0  0  3  0  0  0  0  0  0
  -21.3880   -5.6090   22.3270 C   0  0  0  0  0  0  0  0  0  0  0  0
  -21.4430   -5.0810   21.0810 F   0  0  0  0  0  0  0  0  0  0  0  0
  -20.9910   -4.4840   25.7960 F   0  0  0  0  0  0  0  0  0  0  0  0
  -24.2600  -13.9690   21.1720 C   0  0  0  0  0  0  0  0  0  0  0  0
  -23.5200  -13.4310   22.1350 N   0  0  0  0  0  0  0  0  0  0  0  0
  -24.0140  -15.0920   20.7320 O   0  0  0  0  0  0  0  0  0  0  0  0
  -23.7340  -12.5190   22.5100 H   0  0  0  0  0  0  0  0  0  0  0  0
  -22.7290  -13.9400   22.5040 H   0  0  0  0  0  0  0  0  0  0  0  0
  -27.1060  -14.9850   20.0540 N   0  0  0  0  0  0  0  0  0  0  0  0
  -26.5560  -15.8020   20.2920 H   0  0  0  0  0  0  0  0  0  0  0  0
  -28.0010  -15.2150   19.6410 H   0  0  0  0  0  0  0  0  0  0  0  0
  -26.4420  -24.0420   17.9940 C   0  0  0  0  0  2  0  0  0  0  0  0
  -26.4040  -25.3370   17.1510 C   0  0  0  0  0  2  0  0  0  0  0  0
  -26.8500  -26.5270   17.7990 O   0  0  0  0  0  0  0  0  0  0  0  0
  -25.5570  -30.8180   23.2850 C   0  0  0  0  0  0  0  0  0  0  0  0
  -25.9410  -27.3980   18.3550 C   0  0  0  0  0  0  0  0  0  0  0  0
  -23.6390  -30.4180   21.7730 C   0  0  0  0  0  3  0  0  0  0  0  0
  -24.1860  -29.2440   19.5780 C   0  0  0  0  0  0  0  0  0  0  0  0
  -26.0400  -30.2690   20.9070 C   0  0  0  0  0  2  0  0  0  0  0  0
  -25.5460  -29.2480   19.9060 C   0  0  0  0  0  0  0  0  0  0  0  0
  -26.4210  -28.3190   19.3100 C   0  0  0  0  0  3  0  0  0  0  0  0
  -24.5640  -27.4020   18.0360 C   0  0  0  0  0  3  0  0  0  0  0  0
  -23.6870  -28.3140   18.6490 C   0  0  0  0  0  3  0  0  0  0  0  0
  -23.3130  -30.2680   20.2640 C   0  0  0  0  0  2  0  0  0  0  0  0
  -25.1120  -30.4900   22.0390 N   0  0  0  0  0  0  0  0  0  0  0  0
  -24.7630  -31.1000   24.1940 O   0  0  0  0  0  0  0  0  0  0  0  0
  -22.9330  -29.2810   22.5460 C   0  0  0  0  0  0  0  0  0  0  0  0
  -21.5910  -29.2930   22.5310 N   0  0  0  0  0  0  0  0  0  0  0  0
  -23.5860  -28.4020   23.1160 O   0  0  0  0  0  0  0  0  0  0  0  0
  -21.1300  -30.0520   22.0490 H   0  0  0  0  0  0  0  0  0  0  0  0
  -18.1570  -28.2050   22.7920 C   0  0  0  0  0  0  0  0  0  0  0  0
  -20.7140  -28.3050   23.1560 C   0  0  0  0  0  3  0  0  0  0  0  0
  -20.7720  -26.9540   22.4060 C   0  0  0  0  0  2  0  0  0  0  0  0
  -19.6880  -26.8150   21.3330 C   0  0  0  0  0  2  0  0  0  0  0  0
  -18.2950  -26.9440   21.9570 C   0  0  0  0  0  2  0  0  0  0  0  0
  -19.2940  -28.8530   23.3420 C   0  0  0  0  0  0  0  0  0  0  0  0
  -19.1140  -30.0430   24.0810 C   0  0  0  0  0  3  0  0  0  0  0  0
  -17.8280  -30.5810   24.2770 C   0  0  0  0  0  3  0  0  0  0  0  0
  -16.7040  -29.9260   23.7440 C   0  0  0  0  0  3  0  0  0  0  0  0
  -16.8690  -28.7400   23.0080 C   0  0  0  0  0  3  0  0  0  0  0  0
  -27.0800  -30.8790   23.6210 C   0  0  0  0  0  3  0  0  0  0  0  0
  -27.6360  -29.5360   24.2360 C   0  0  1  0  0  0  0  0  0  0  0  0
  -26.8080  -29.0110   25.4320 C   0  0  0  0  0  1  0  0  0  0  0  0
  -27.6750  -28.4210   23.1650 C   0  0  0  0  0  1  0  0  0  0  0  0
  -29.0920  -29.7430   24.7160 C   0  0  0  0  0  1  0  0  0  0  0  0
  -27.2830  -31.9990   24.5480 N   0  0  0  0  0  0  0  0  0  0  0  0
  -27.8300  -33.1750   24.2110 C   0  0  0  0  0  0  0  0  0  0  0  0
  -28.2890  -33.4040   23.0880 O   0  0  0  0  0  0  0  0  0  0  0  0
  -26.8780  -31.9040   25.4680 H   0  0  0  0  0  0  0  0  0  0  0  0
  -26.7830  -35.3160   25.0140 C   0  0  0  0  0  1  0  0  0  0  0  0
  -27.8770  -34.2720   25.2920 C   0  0  0  0  0  3  0  0  0  0  0  0
  -30.2440  -34.0750   25.9130 C   0  0  0  0  0  1  0  0  0  0  0  0
  -29.1900  -34.9440   25.3930 N   0  0  0  0  0  0  0  0  0  0  0  0
  -29.1300  -35.7620   25.9920 H   0  0  0  0  0  0  0  0  0  0  0  0
  1  2  1  0
  3  4  1  0
  3  6  2  0
  4  1  2  0
  5  2  2  0
  5  9  1  0
  6  5  1  0
  7  6  1  0
  9 10  1  0
  9  8  1  0
 10 12  1  0
 10 11  1  0
 13 14  1  0
 13 10  1  0
 15 16  1  0
 15 14  1  0
 17 18  1  0
 17 16  1  0
 19 25  1  0
 19 27  1  0
 20 25  1  0
 21 22  1  0
 21 20  1  0
 23 22  1  0
 23 32  1  0
 23 24  1  0
 25 24  1  0
 26 19  2  0
 27 18  1  0
 27 28  1  0
 29 30  2  0
 30 49  1  0
 31 30  1  0
 31 34  1  0
 32 33  1  0
 32 29  1  0
 33 31  2  0
 34 35  1  0
 35 36  2  0
 37 40  1  0
 37 36  1  0
 38 37  2  0
 39 38  1  0
 39 34  2  0
 40 41  1  0
 41 42  1  0
 42 43  2  0
 44 43  1  0
 44 48  1  0
 45 44  2  0
 46 41  2  0
 46 45  1  0
 47 46  1  0
 49 50  1  0
 50 53  1  0
 50 52  1  0
 51 49  2  0
 54 29  1  0
 54 55  1  0
 56 54  1  0
 57  4  1  0
 58 59  1  0
 58 57  1  0
 59 61  1  0
 60 71  2  0
 61 66  1  0
 62 70  1  0
 62 72  1  0
 63 65  1  0
 63 69  1  0
 64 70  1  0
 65 64  1  0
 66 65  2  0
 67 61  2  0
 67 68  1  0
 68 63  2  0
 69 62  1  0
 70 60  1  0
 72 74  2  0
 73 72  1  0
 75 73  1  0
 76 85  2  0
 76 81  1  0
 77 73  1  0
 77 81  1  0
 78 77  1  0
 79 80  1  0
 79 78  1  0
 80 76  1  0
 81 82  2  0
 82 83  1  0
 84 83  2  0
 85 84  1  0
 86 60  1  0
 86 87  1  0
 86 91  1  0
 87 90  1  1
 87 88  1  0
 89 87  1  0
 91 94  1  0
 92 91  1  0
 92 96  1  0
 93 92  2  0
 96 95  1  0
 96 98  1  0
 98 97  1  0
 98 99  1  0
M  ISO  4  19 100  27 100  58 101  59 101
M  END
>  <TORSDO>  (57) 
F 26

>  <SCORE>  (57) 
-8.882

>  <name>  (57) 
57

>  <ligand_id>  (57) 
57

>  <original_smiles>  (57) 
[H]c1c([H])c([H])c2c(c1[H])C([H])([H])C([H])([H])C([H])([H])C2([H])N([H])C(=O)C1([H])N(C(=O)C([H])(N([H])C(=O)C([H])(N([H])C([H])([H])[H])C([H])([H])[H])C(C([H])([H])[H])(C([H])([H])[H])C([H])([H])[H])C([H])([H])c2c([H])c(OC([H])([H])C([H])([H])c3c([H])c([H])c(C([H])(C([H])([H])[H])[N+]([H])([H])C([H])([H])C([H])([H])C([H])([H])C([H])([H])C([H])([H])C([H])([H])N([H])C(=O)N4C([H])([H])C([H])([H])C([H])([H])C([H])(n5nc(-c6c([H])c([H])c(Oc7c([H])c([H])c(F)c([H])c7F)c([H])c6[H])c(C(=O)N([H])[H])c5N([H])[H])C4([H])[H])c(C([H])([H])[H])c3[H])c([H])c([H])c2C1([H])[H]

>  <smiles>  (57) 
[H]c1c([H])c([H])c2c(c1[H])C([H])([H])C([H])([H])C([H])([H])C2([H])N([H])C(=O)C1([H])N(C(=O)C([H])(N([H])C(=O)C([H])(N([H])C([H])([H])[H])C([H])([H])[H])C(C([H])([H])[H])(C([H])([H])[H])C([H])([H])[H])C([H])([H])c2c([H])c(OC([H])([H])C([H])([H])c3c([H])c([H])c(C([H])(C([H])([H])[H])[N+]([H])([H])C([H])([H])C([H])([H])C([H])([H])C([H])([H])C([H])([H])C([H])([H])N([H])C(=O)N4C([H])([H])C([H])([H])C([H])([H])C([H])(n5nc(-c6c([H])c([H])c(Oc7c([H])c([H])c(F)c([H])c7F)c([H])c6[H])c(C(=O)N([H])[H])c5N([H])[H])C4([H])[H])c(C([H])([H])[H])c3[H])c([H])c([H])c2C1([H])[H]

$$$$
58:0:0
     RDKit          3D

 94101  0  0  1  0  0  0  0  0999 V2000
  -27.2400  -22.6530   18.7860 C   0  0  0  0  0  3  0  0  0  0  0  0
  -28.5870  -23.1690   19.1530 N   0  0  0  0  0  4  0  0  0  0  0  0
  -28.9080  -22.7630   20.0160 H   0  0  0  0  0  0  0  0  0  0  0  0
  -29.2090  -22.8240   18.4370 H   0  0  0  0  0  0  0  0  0  0  0  0
  -28.7630  -24.6490   19.1320 C   0  0  0  0  0  2  0  0  0  0  0  0
  -28.4090  -25.3500   20.4550 C   0  0  0  0  0  2  0  0  0  0  0  0
  -28.5020  -26.7720   20.3090 O   0  0  0  0  0  0  0  0  0  0  0  0
  -24.6240  -31.8940   23.3270 C   0  0  0  0  0  0  0  0  0  0  0  0
  -27.3200  -27.4800   20.2640 C   0  0  0  0  0  0  0  0  0  0  0  0
  -23.4490  -30.5100   21.6470 C   0  0  0  0  0  3  0  0  0  0  0  0
  -24.9260  -28.9810   20.2410 C   0  0  0  0  0  0  0  0  0  0  0  0
  -25.9780  -30.8700   21.5010 C   0  0  0  0  0  2  0  0  0  0  0  0
  -26.0730  -29.5040   20.8470 C   0  0  0  0  0  0  0  0  0  0  0  0
  -27.2750  -28.7640   20.8490 C   0  0  0  0  0  3  0  0  0  0  0  0
  -26.1550  -26.9690   19.6470 C   0  0  0  0  0  3  0  0  0  0  0  0
  -24.9610  -27.7130   19.6380 C   0  0  0  0  0  3  0  0  0  0  0  0
  -23.6840  -29.8390   20.2690 C   0  0  0  0  0  2  0  0  0  0  0  0
  -24.7010  -31.1050   22.2160 N   0  0  0  0  0  0  0  0  0  0  0  0
  -23.5320  -32.1620   23.8460 O   0  0  0  0  0  0  0  0  0  0  0  0
  -22.7760  -29.4810   22.5830 C   0  0  0  0  0  0  0  0  0  0  0  0
  -21.4570  -29.2920   22.4110 N   0  0  0  0  0  0  0  0  0  0  0  0
  -23.4360  -28.8560   23.4150 O   0  0  0  0  0  0  0  0  0  0  0  0
  -20.9870  -29.8430   21.7070 H   0  0  0  0  0  0  0  0  0  0  0  0
  -18.0740  -28.0860   22.8010 C   0  0  0  0  0  0  0  0  0  0  0  0
  -20.6200  -28.3480   23.1530 C   0  0  0  0  0  3  0  0  0  0  0  0
  -20.7460  -26.9200   22.5730 C   0  0  0  0  0  2  0  0  0  0  0  0
  -19.6770  -26.6010   21.5250 C   0  0  0  0  0  2  0  0  0  0  0  0
  -18.2750  -26.7410   22.1250 C   0  0  0  0  0  2  0  0  0  0  0  0
  -19.1760  -28.8490   23.2680 C   0  0  0  0  0  0  0  0  0  0  0  0
  -18.9350  -30.1120   23.8520 C   0  0  0  0  0  3  0  0  0  0  0  0
  -17.6250  -30.6080   23.9780 C   0  0  0  0  0  3  0  0  0  0  0  0
  -16.5360  -29.8400   23.5310 C   0  0  0  0  0  3  0  0  0  0  0  0
  -16.7600  -28.5800   22.9470 C   0  0  0  0  0  3  0  0  0  0  0  0
  -25.8990  -32.5140   23.9830 C   0  0  0  0  0  3  0  0  0  0  0  0
  -26.3560  -31.7560   25.2880 C   0  0  1  0  0  0  0  0  0  0  0  0
  -25.2190  -31.5490   26.3150 C   0  0  0  0  0  1  0  0  0  0  0  0
  -26.9320  -30.3660   24.9290 C   0  0  0  0  0  1  0  0  0  0  0  0
  -27.4970  -32.5400   25.9780 C   0  0  0  0  0  1  0  0  0  0  0  0
  -25.6080  -33.9250   24.2760 N   0  0  0  0  0  0  0  0  0  0  0  0
  -25.9740  -34.9530   23.5020 C   0  0  0  0  0  0  0  0  0  0  0  0
  -26.6690  -34.8180   22.4920 O   0  0  0  0  0  0  0  0  0  0  0  0
  -25.0070  -34.1060   25.0670 H   0  0  0  0  0  0  0  0  0  0  0  0
  -24.2830  -36.7560   23.0520 C   0  0  0  0  0  1  0  0  0  0  0  0
  -25.4920  -36.3560   23.9140 C   0  0  0  0  0  3  0  0  0  0  0  0
  -27.6040  -37.2270   24.8040 C   0  0  0  0  0  1  0  0  0  0  0  0
  -26.5410  -37.3920   23.8180 N   0  0  0  0  0  0  0  0  0  0  0  0
  -26.1430  -38.3200   23.9370 H   0  0  0  0  0  0  0  0  0  0  0  0
  -24.8120  -22.6520   19.6360 C   0  0  0  0  0  1  0  0  0  0  0  0
  -26.2960  -22.4990   20.0040 C   0  0  0  0  0  2  0  0  0  0  0  0
  -27.3610  -21.3540   17.9550 C   0  0  0  0  0  2  0  0  0  0  0  0
  -28.1290  -20.1850   18.6150 C   0  0  0  0  0  2  0  0  0  0  0  0
  -28.3340  -19.0100   17.6430 C   0  0  0  0  0  2  0  0  0  0  0  0
  -29.3760  -17.9720   18.0960 C   0  0  0  0  0  2  0  0  0  0  0  0
  -28.9240  -17.0550   19.2440 C   0  0  0  0  0  2  0  0  0  0  0  0
  -29.2080  -17.5870   20.6720 C   0  0  0  0  0  2  0  0  0  0  0  0
  -30.3620  -16.9010   21.4360 C   0  0  0  0  0  2  0  0  0  0  0  0
  -30.8120  -14.5820   20.6670 C   0  0  0  0  0  0  0  0  0  0  0  0
  -30.5090  -12.5370   19.3360 C   0  0  0  0  0  2  0  0  0  0  0  0
  -29.5830  -12.8210   18.1370 C   0  0  0  0  0  2  0  0  0  0  0  0
  -28.0990  -12.6800   18.5260 C   0  0  0  0  0  2  0  0  0  0  0  0
  -27.7470  -13.4400   19.8300 C   0  0  0  0  0  3  0  0  0  0  0  0
  -28.7760  -13.1220   20.9400 C   0  0  0  0  0  2  0  0  0  0  0  0
  -30.1260  -13.4380   20.4300 N   0  0  0  0  0  0  0  0  0  0  0  0
  -31.8730  -14.8750   20.1040 O   0  0  0  0  0  0  0  0  0  0  0  0
  -30.1810  -15.4510   21.4630 N   0  0  0  0  0  0  0  0  0  0  0  0
  -29.3650  -15.1020   21.9440 H   0  0  0  0  0  0  0  0  0  0  0  0
  -25.3050  -14.0240   20.4080 C   0  0  0  0  0  0  0  0  0  0  0  0
  -24.2390  -13.2430   20.7660 C   0  0  0  0  0  0  0  0  0  0  0  0
  -24.7280  -11.9020   20.8060 C   0  0  0  0  0  0  0  0  0  0  0  0
  -26.3770  -13.1580   20.2570 N   0  0  0  0  0  0  0  0  0  0  0  0
  -26.0300  -11.8790   20.5470 N   0  0  0  0  0  0  0  0  0  0  0  0
  -24.0220  -10.6330   21.0220 C   0  0  0  0  0  0  0  0  0  0  0  0
  -24.4260   -9.7210   22.0220 C   0  0  0  0  0  3  0  0  0  0  0  0
  -23.7200   -8.5160   22.2210 C   0  0  0  0  0  3  0  0  0  0  0  0
  -22.5950   -8.2110   21.4200 C   0  0  0  0  0  0  0  0  0  0  0  0
  -22.2080   -9.1120   20.4110 C   0  0  0  0  0  3  0  0  0  0  0  0
  -22.9160  -10.3090   20.2090 C   0  0  0  0  0  3  0  0  0  0  0  0
  -21.8640   -7.0530   21.5230 O   0  0  0  0  0  0  0  0  0  0  0  0
  -21.7590   -6.3730   22.7090 C   0  0  0  0  0  0  0  0  0  0  0  0
  -21.2230   -6.9750   23.8690 C   0  0  0  0  0  3  0  0  0  0  0  0
  -21.0710   -6.2190   25.0480 C   0  0  0  0  0  3  0  0  0  0  0  0
  -21.4420   -4.8610   25.0670 C   0  0  0  0  0  0  0  0  0  0  0  0
  -21.9690   -4.2580   23.9120 C   0  0  0  0  0  3  0  0  0  0  0  0
  -22.1230   -5.0120   22.7360 C   0  0  0  0  0  0  0  0  0  0  0  0
  -22.6130   -4.4210   21.6190 F   0  0  0  0  0  0  0  0  0  0  0  0
  -21.2870   -4.1310   26.1960 F   0  0  0  0  0  0  0  0  0  0  0  0
  -22.8230  -13.7000   20.9730 C   0  0  0  0  0  0  0  0  0  0  0  0
  -22.0810  -13.0190   21.8400 N   0  0  0  0  0  0  0  0  0  0  0  0
  -22.3820  -14.6960   20.4030 O   0  0  0  0  0  0  0  0  0  0  0  0
  -22.4500  -12.2100   22.3170 H   0  0  0  0  0  0  0  0  0  0  0  0
  -21.1300  -13.3090   22.0240 H   0  0  0  0  0  0  0  0  0  0  0  0
  -25.4500  -15.3900   20.1840 N   0  0  0  0  0  0  0  0  0  0  0  0
  -24.6730  -16.0400   20.2450 H   0  0  0  0  0  0  0  0  0  0  0  0
  -26.3180  -15.8340   19.9150 H   0  0  0  0  0  0  0  0  0  0  0  0
  1 50  1  0
  1  2  1  0
  1 49  1  0
  2  3  1  0
  4  2  1  0
  5  2  1  0
  5  6  1  0
  7  6  1  0
  8 19  2  0
  9  7  1  0
  9 14  1  0
 10 18  1  0
 10 20  1  0
 11 17  1  0
 11 13  1  0
 12 18  1  0
 13 14  2  0
 13 12  1  0
 15  9  2  0
 16 15  1  0
 16 11  2  0
 17 10  1  0
 18  8  1  0
 20 22  2  0
 21 20  1  0
 23 21  1  0
 24 33  2  0
 24 29  1  0
 25 21  1  0
 25 29  1  0
 26 25  1  0
 27 28  1  0
 27 26  1  0
 28 24  1  0
 29 30  2  0
 30 31  1  0
 32 31  2  0
 33 32  1  0
 34  8  1  0
 34 39  1  0
 34 35  1  0
 35 38  1  1
 35 36  1  0
 37 35  1  0
 39 42  1  0
 40 44  1  0
 40 39  1  0
 41 40  2  0
 44 43  1  0
 46 44  1  0
 46 47  1  0
 46 45  1  0
 48 49  1  0
 50 51  1  0
 52 53  1  0
 52 51  1  0
 53 54  1  0
 54 55  1  0
 55 56  1  0
 56 65  1  0
 57 65  1  0
 58 63  1  0
 59 60  1  0
 59 58  1  0
 61 60  1  0
 61 70  1  0
 61 62  1  0
 63 57  1  0
 63 62  1  0
 64 57  2  0
 65 66  1  0
 67 68  2  0
 68 69  1  0
 68 87  1  0
 69 72  1  0
 70 67  1  0
 70 71  1  0
 71 69  2  0
 72 73  1  0
 73 74  2  0
 75 78  1  0
 75 74  1  0
 76 75  2  0
 77 76  1  0
 77 72  2  0
 78 79  1  0
 79 84  2  0
 79 80  1  0
 80 81  2  0
 81 82  1  0
 82 86  1  0
 83 82  2  0
 84 83  1  0
 85 84  1  0
 87 88  1  0
 88 91  1  0
 88 90  1  0
 89 87  2  0
 92 93  1  0
 92 67  1  0
 94 92  1  0
M  ISO  4   6 101   7 101  57 100  65 100
M  END
>  <TORSDO>  (58) 
F 27

>  <SCORE>  (58) 
-11.534

>  <name>  (58) 
58

>  <ligand_id>  (58) 
58

>  <original_smiles>  (58) 
[H]c1c([H])c([H])c2c(c1[H])C([H])([H])C([H])([H])C([H])([H])C2([H])N([H])C(=O)C1([H])N(C(=O)C([H])(N([H])C(=O)C([H])(N([H])C([H])([H])[H])C([H])([H])[H])C(C([H])([H])[H])(C([H])([H])[H])C([H])([H])[H])C([H])([H])c2c([H])c(OC([H])([H])C([H])([H])[N+]([H])([H])C([H])(C([H])([H])C([H])([H])[H])C([H])([H])C([H])([H])C([H])([H])C([H])([H])C([H])([H])C([H])([H])C([H])([H])N([H])C(=O)N3C([H])([H])C([H])([H])C([H])([H])C([H])(n4nc(-c5c([H])c([H])c(Oc6c([H])c([H])c(F)c([H])c6F)c([H])c5[H])c(C(=O)N([H])[H])c4N([H])[H])C3([H])[H])c([H])c([H])c2C1([H])[H]

>  <smiles>  (58) 
[H]c1c([H])c([H])c2c(c1[H])C([H])([H])C([H])([H])C([H])([H])C2([H])N([H])C(=O)C1([H])N(C(=O)C([H])(N([H])C(=O)C([H])(N([H])C([H])([H])[H])C([H])([H])[H])C(C([H])([H])[H])(C([H])([H])[H])C([H])([H])[H])C([H])([H])c2c([H])c(OC([H])([H])C([H])([H])[N+]([H])([H])C([H])(C([H])([H])C([H])([H])[H])C([H])([H])C([H])([H])C([H])([H])C([H])([H])C([H])([H])C([H])([H])C([H])([H])N([H])C(=O)N3C([H])([H])C([H])([H])C([H])([H])C([H])(n4nc(-c5c([H])c([H])c(Oc6c([H])c([H])c(F)c([H])c6F)c([H])c5[H])c(C(=O)N([H])[H])c4N([H])[H])C3([H])[H])c([H])c([H])c2C1([H])[H]

$$$$
59:0:0
     RDKit          3D

 98105  0  0  1  0  0  0  0  0999 V2000
  -32.2980  -24.5060   15.4680 C   0  0  0  0  0  1  0  0  0  0  0  0
  -30.8500  -24.7460   15.9460 C   0  0  0  0  0  3  0  0  0  0  0  0
  -30.3140  -23.5730   16.6870 N   0  0  0  0  0  4  0  0  0  0  0  0
  -30.9170  -23.3700   17.4700 H   0  0  0  0  0  0  0  0  0  0  0  0
  -29.4120  -23.8230   17.0570 H   0  0  0  0  0  0  0  0  0  0  0  0
  -30.1350  -22.3450   15.8800 C   0  0  0  0  0  2  0  0  0  0  0  0
  -29.4030  -21.2270   16.6480 C   0  0  0  0  0  2  0  0  0  0  0  0
  -30.1940  -20.6450   17.8350 C   0  0  0  0  0  2  0  0  0  0  0  0
  -29.5530  -19.3540   18.3710 C   0  0  0  0  0  2  0  0  0  0  0  0
  -30.2380  -18.8010   19.6320 C   0  0  0  0  0  2  0  0  0  0  0  0
  -29.7630  -17.3760   19.9450 C   0  0  0  0  0  2  0  0  0  0  0  0
  -30.4260  -16.7430   21.1830 C   0  0  0  0  0  2  0  0  0  0  0  0
  -30.7060  -14.3640   20.5650 C   0  0  0  0  0  0  0  0  0  0  0  0
  -30.3500  -12.2580   19.3450 C   0  0  0  0  0  2  0  0  0  0  0  0
  -29.4090  -12.5240   18.1530 C   0  0  0  0  0  2  0  0  0  0  0  0
  -27.9340  -12.4060   18.5820 C   0  0  0  0  0  2  0  0  0  0  0  0
  -27.6180  -13.2100   19.8710 C   0  0  0  0  0  3  0  0  0  0  0  0
  -28.6710  -12.9290   20.9680 C   0  0  0  0  0  2  0  0  0  0  0  0
  -30.0060  -13.2110   20.4100 N   0  0  0  0  0  0  0  0  0  0  0  0
  -31.7850  -14.5830   20.0050 O   0  0  0  0  0  0  0  0  0  0  0  0
  -30.0840  -15.3240   21.2610 N   0  0  0  0  0  0  0  0  0  0  0  0
  -29.2190  -15.0720   21.7180 H   0  0  0  0  0  0  0  0  0  0  0  0
  -25.2160  -13.8300   20.5670 C   0  0  0  0  0  0  0  0  0  0  0  0
  -24.1440  -13.0610   20.9340 C   0  0  0  0  0  0  0  0  0  0  0  0
  -24.6000  -11.7080   20.9040 C   0  0  0  0  0  0  0  0  0  0  0  0
  -26.2600  -12.9450   20.3420 N   0  0  0  0  0  0  0  0  0  0  0  0
  -25.8900  -11.6630   20.5980 N   0  0  0  0  0  0  0  0  0  0  0  0
  -23.8680  -10.4490   21.0940 C   0  0  0  0  0  0  0  0  0  0  0  0
  -24.3130   -9.4670   22.0070 C   0  0  0  0  0  3  0  0  0  0  0  0
  -23.5820   -8.2730   22.1840 C   0  0  0  0  0  3  0  0  0  0  0  0
  -22.3930   -8.0510   21.4490 C   0  0  0  0  0  0  0  0  0  0  0  0
  -21.9680   -9.0220   20.5250 C   0  0  0  0  0  3  0  0  0  0  0  0
  -22.6990  -10.2090   20.3450 C   0  0  0  0  0  3  0  0  0  0  0  0
  -21.6330   -6.9100   21.5370 O   0  0  0  0  0  0  0  0  0  0  0  0
  -21.6180   -6.1410   22.6730 C   0  0  0  0  0  0  0  0  0  0  0  0
  -21.2540   -6.6730   23.9290 C   0  0  0  0  0  3  0  0  0  0  0  0
  -21.1850   -5.8330   25.0580 C   0  0  0  0  0  3  0  0  0  0  0  0
  -21.4700   -4.4600   24.9310 C   0  0  0  0  0  0  0  0  0  0  0  0
  -21.8280   -3.9260   23.6810 C   0  0  0  0  0  3  0  0  0  0  0  0
  -21.8980   -4.7650   22.5540 C   0  0  0  0  0  0  0  0  0  0  0  0
  -22.2230   -4.2410   21.3470 F   0  0  0  0  0  0  0  0  0  0  0  0
  -21.3960   -3.6500   26.0130 F   0  0  0  0  0  0  0  0  0  0  0  0
  -22.7500  -13.5450   21.2080 C   0  0  0  0  0  0  0  0  0  0  0  0
  -22.0200  -12.8500   22.0740 N   0  0  0  0  0  0  0  0  0  0  0  0
  -22.3150  -14.5720   20.6900 O   0  0  0  0  0  0  0  0  0  0  0  0
  -22.3850  -12.0180   22.5130 H   0  0  0  0  0  0  0  0  0  0  0  0
  -21.0850  -13.1550   22.3010 H   0  0  0  0  0  0  0  0  0  0  0  0
  -25.3860  -15.2000   20.3880 N   0  0  0  0  0  0  0  0  0  0  0  0
  -24.6210  -15.8570   20.4880 H   0  0  0  0  0  0  0  0  0  0  0  0
  -26.2420  -15.6340   20.0670 H   0  0  0  0  0  0  0  0  0  0  0  0
  -30.7900  -26.0270   16.8120 C   0  0  0  0  0  2  0  0  0  0  0  0
  -29.3770  -26.5810   17.1510 C   0  0  0  0  0  3  0  0  0  0  0  0
  -29.4800  -27.7740   18.1370 C   0  0  0  0  0  2  0  0  0  0  0  0
  -29.6490  -27.3650   19.6150 C   0  0  0  0  0  2  0  0  0  0  0  0
  -28.4870  -26.6910   20.0970 O   0  0  0  0  0  0  0  0  0  0  0  0
  -24.6770  -31.8520   23.2420 C   0  0  0  0  0  0  0  0  0  0  0  0
  -27.3350  -27.4350   20.1730 C   0  0  0  0  0  0  0  0  0  0  0  0
  -23.4680  -30.4430   21.6040 C   0  0  0  0  0  3  0  0  0  0  0  0
  -24.9230  -28.8990   20.1910 C   0  0  0  0  0  0  0  0  0  0  0  0
  -25.9870  -30.8150   21.3980 C   0  0  0  0  0  2  0  0  0  0  0  0
  -26.0760  -29.4410   20.7740 C   0  0  0  0  0  0  0  0  0  0  0  0
  -27.2840  -28.7150   20.7710 C   0  0  0  0  0  3  0  0  0  0  0  0
  -26.1630  -26.8870   19.6140 C   0  0  0  0  0  3  0  0  0  0  0  0
  -24.9580  -27.6180   19.6120 C   0  0  0  0  0  3  0  0  0  0  0  0
  -23.6770  -29.7540   20.2280 C   0  0  0  0  0  2  0  0  0  0  0  0
  -24.7290  -31.0500   22.1410 N   0  0  0  0  0  0  0  0  0  0  0  0
  -23.5980  -32.1250   23.7840 O   0  0  0  0  0  0  0  0  0  0  0  0
  -22.8180  -29.4280   22.5690 C   0  0  0  0  0  0  0  0  0  0  0  0
  -21.4930  -29.2500   22.4450 N   0  0  0  0  0  0  0  0  0  0  0  0
  -23.5030  -28.8030   23.3830 O   0  0  0  0  0  0  0  0  0  0  0  0
  -21.0040  -29.8060   21.7590 H   0  0  0  0  0  0  0  0  0  0  0  0
  -18.1160  -28.0750   22.9520 C   0  0  0  0  0  0  0  0  0  0  0  0
  -20.6750  -28.3190   23.2190 C   0  0  0  0  0  3  0  0  0  0  0  0
  -20.7690  -26.8860   22.6470 C   0  0  0  0  0  2  0  0  0  0  0  0
  -19.6660  -26.5680   21.6340 C   0  0  0  0  0  2  0  0  0  0  0  0
  -18.2840  -26.7230   22.2780 C   0  0  0  0  0  2  0  0  0  0  0  0
  -19.2390  -28.8320   23.3790 C   0  0  0  0  0  0  0  0  0  0  0  0
  -19.0290  -30.0980   23.9670 C   0  0  0  0  0  3  0  0  0  0  0  0
  -17.7290  -30.6080   24.1320 C   0  0  0  0  0  3  0  0  0  0  0  0
  -16.6190  -29.8500   23.7220 C   0  0  0  0  0  3  0  0  0  0  0  0
  -16.8130  -28.5840   23.1380 C   0  0  0  0  0  3  0  0  0  0  0  0
  -25.9660  -32.4830   23.8580 C   0  0  0  0  0  3  0  0  0  0  0  0
  -26.4940  -31.7060   25.1250 C   0  0  1  0  0  0  0  0  0  0  0  0
  -25.4070  -31.4510   26.1960 C   0  0  0  0  0  1  0  0  0  0  0  0
  -27.0830  -30.3360   24.7160 C   0  0  0  0  0  1  0  0  0  0  0  0
  -27.6410  -32.5020   25.7890 C   0  0  0  0  0  1  0  0  0  0  0  0
  -25.6560  -33.8790   24.1940 N   0  0  0  0  0  0  0  0  0  0  0  0
  -25.9860  -34.9330   23.4360 C   0  0  0  0  0  0  0  0  0  0  0  0
  -26.6560  -34.8330   22.4040 O   0  0  0  0  0  0  0  0  0  0  0  0
  -25.0590  -34.0290   24.9940 H   0  0  0  0  0  0  0  0  0  0  0  0
  -24.2540  -36.7220   23.0860 C   0  0  0  0  0  1  0  0  0  0  0  0
  -25.4970  -36.3200   23.8950 C   0  0  0  0  0  3  0  0  0  0  0  0
  -27.6350  -37.2040   24.7200 C   0  0  0  0  0  1  0  0  0  0  0  0
  -26.5280  -37.3760   23.7830 N   0  0  0  0  0  0  0  0  0  0  0  0
  -26.1210  -38.2940   23.9390 H   0  0  0  0  0  0  0  0  0  0  0  0
  -28.5170  -26.9450   15.9100 C   0  0  0  0  0  2  0  0  0  0  0  0
  -29.0910  -28.0480   15.0190 C   0  0  0  0  0  3  0  0  0  0  0  0
  -29.8060  -27.7670   14.0530 O   0  0  0  0  0  0  0  0  0  0  0  0
  2  1  1  0
  2  3  1  0
  2 51  1  0
  3  5  1  0
  3  4  1  0
  6  7  1  0
  6  3  1  0
  7  8  1  0
  8  9  1  0
  9 10  1  0
 10 11  1  0
 11 12  1  0
 12 21  1  0
 13 21  1  0
 14 19  1  0
 15 16  1  0
 15 14  1  0
 17 16  1  0
 17 26  1  0
 17 18  1  0
 19 13  1  0
 19 18  1  0
 20 13  2  0
 21 22  1  0
 23 24  2  0
 24 43  1  0
 25 24  1  0
 25 28  1  0
 26 23  1  0
 26 27  1  0
 27 25  2  0
 28 29  1  0
 29 30  2  0
 31 34  1  0
 31 30  1  0
 32 31  2  0
 33 32  1  0
 33 28  2  0
 34 35  1  0
 35 36  1  0
 36 37  2  0
 38 37  1  0
 38 42  1  0
 39 38  2  0
 40 35  2  0
 40 39  1  0
 41 40  1  0
 43 44  1  0
 44 47  1  0
 44 46  1  0
 45 43  2  0
 48 49  1  0
 48 23  1  0
 50 48  1  0
 51 52  1  0
 52 96  1  0
 52 53  1  0
 53 54  1  0
 54 55  1  0
 55 57  1  0
 56 67  2  0
 57 62  1  0
 58 66  1  0
 58 68  1  0
 59 65  1  0
 59 61  1  0
 60 66  1  0
 61 60  1  0
 62 61  2  0
 63 57  2  0
 64 63  1  0
 64 59  2  0
 65 58  1  0
 66 56  1  0
 68 70  2  0
 69 68  1  0
 71 69  1  0
 72 81  2  0
 72 77  1  0
 73 69  1  0
 73 77  1  0
 74 73  1  0
 75 76  1  0
 75 74  1  0
 76 72  1  0
 77 78  2  0
 78 79  1  0
 80 79  2  0
 81 80  1  0
 82 56  1  0
 82 87  1  0
 82 83  1  0
 83 86  1  1
 83 84  1  0
 85 83  1  0
 87 90  1  0
 88 92  1  0
 88 87  1  0
 89 88  2  0
 92 91  1  0
 94 92  1  0
 94 95  1  0
 94 93  1  0
 97 96  1  0
 98 97  2  0
M  ISO  4  13 100  21 100  54 101  55 101
M  END
>  <TORSDO>  (59) 
F 30

>  <SCORE>  (59) 
-10.818

>  <name>  (59) 
59

>  <ligand_id>  (59) 
59

>  <original_smiles>  (59) 
[H]C(=O)C([H])([H])C([H])(C([H])([H])C([H])([H])Oc1c([H])c([H])c2c(c1[H])C([H])([H])N(C(=O)C([H])(N([H])C(=O)C([H])(N([H])C([H])([H])[H])C([H])([H])[H])C(C([H])([H])[H])(C([H])([H])[H])C([H])([H])[H])C([H])(C(=O)N([H])C1([H])c3c([H])c([H])c([H])c([H])c3C([H])([H])C([H])([H])C1([H])[H])C2([H])[H])C([H])([H])C([H])(C([H])([H])[H])[N+]([H])([H])C([H])([H])C([H])([H])C([H])([H])C([H])([H])C([H])([H])C([H])([H])C([H])([H])N([H])C(=O)N1C([H])([H])C([H])([H])C([H])([H])C([H])(n2nc(-c3c([H])c([H])c(Oc4c([H])c([H])c(F)c([H])c4F)c([H])c3[H])c(C(=O)N([H])[H])c2N([H])[H])C1([H])[H]

>  <smiles>  (59) 
[H]C(=O)C([H])([H])C([H])(C([H])([H])C([H])([H])Oc1c([H])c([H])c2c(c1[H])C([H])([H])N(C(=O)C([H])(N([H])C(=O)C([H])(N([H])C([H])([H])[H])C([H])([H])[H])C(C([H])([H])[H])(C([H])([H])[H])C([H])([H])[H])C([H])(C(=O)N([H])C1([H])c3c([H])c([H])c([H])c([H])c3C([H])([H])C([H])([H])C1([H])[H])C2([H])[H])C([H])([H])C([H])(C([H])([H])[H])[N+]([H])([H])C([H])([H])C([H])([H])C([H])([H])C([H])([H])C([H])([H])C([H])([H])C([H])([H])N([H])C(=O)N1C([H])([H])C([H])([H])C([H])([H])C([H])(n2nc(-c3c([H])c([H])c(Oc4c([H])c([H])c(F)c([H])c4F)c([H])c3[H])c(C(=O)N([H])[H])c2N([H])[H])C1([H])[H]

$$$$
60:0:0
     RDKit          3D

102107  0  0  1  0  0  0  0  0999 V2000
  -26.1040  -18.2770   19.4000 C   0  0  0  0  0  3  0  0  0  0  0  0
  -23.9330  -19.2500   19.8700 C   0  0  0  0  0  3  0  0  0  0  0  0
  -26.5210  -19.4840   18.7990 C   0  0  0  0  0  3  0  0  0  0  0  0
  -24.3390  -20.4520   19.2340 C   0  0  0  0  0  3  0  0  0  0  0  0
  -24.7920  -18.1200   19.9110 C   0  0  0  0  0  0  0  0  0  0  0  0
  -25.6450  -20.5840   18.6870 C   0  0  0  0  0  0  0  0  0  0  0  0
  -24.8370  -22.6160   17.3890 C   0  0  0  0  0  1  0  0  0  0  0  0
  -26.0760  -21.8190   17.8690 C   0  0  0  0  0  3  0  0  0  0  0  0
  -27.1610  -22.6660   18.4870 N   0  0  0  0  0  4  0  0  0  0  0  0
  -26.9730  -22.7400   19.4770 H   0  0  0  0  0  0  0  0  0  0  0  0
  -28.0280  -22.1590   18.3660 H   0  0  0  0  0  0  0  0  0  0  0  0
  -27.2440  -24.0110   17.8190 C   0  0  0  0  0  2  0  0  0  0  0  0
  -28.0620  -25.2400   18.3220 C   0  0  0  0  0  2  0  0  0  0  0  0
  -27.8450  -26.4220   17.4680 O   0  0  0  0  0  0  0  0  0  0  0  0
  -24.5240  -30.6100   22.2180 C   0  0  0  0  0  0  0  0  0  0  0  0
  -26.7240  -27.1910   17.7580 C   0  0  0  0  0  0  0  0  0  0  0  0
  -23.1090  -29.5410   20.5050 C   0  0  0  0  0  3  0  0  0  0  0  0
  -24.3460  -28.5230   18.5270 C   0  0  0  0  0  0  0  0  0  0  0  0
  -25.5540  -30.1190   20.0040 C   0  0  0  0  0  2  0  0  0  0  0  0
  -25.5780  -28.9390   19.0470 C   0  0  0  0  0  0  0  0  0  0  0  0
  -26.7710  -28.2610   18.6850 C   0  0  0  0  0  3  0  0  0  0  0  0
  -25.4870  -26.9280   17.1310 C   0  0  0  0  0  3  0  0  0  0  0  0
  -24.2940  -27.5170   17.5610 C   0  0  0  0  0  3  0  0  0  0  0  0
  -23.0940  -29.2380   18.9850 C   0  0  0  0  0  2  0  0  0  0  0  0
  -24.4240  -30.0920   20.9630 N   0  0  0  0  0  0  0  0  0  0  0  0
  -23.5450  -30.6570   22.9760 O   0  0  0  0  0  0  0  0  0  0  0  0
  -22.6920  -28.2600   21.2700 C   0  0  0  0  0  0  0  0  0  0  0  0
  -21.3880  -27.9460   21.2360 N   0  0  0  0  0  0  0  0  0  0  0  0
  -23.5260  -27.5640   21.8530 O   0  0  0  0  0  0  0  0  0  0  0  0
  -20.7630  -28.5700   20.7400 H   0  0  0  0  0  0  0  0  0  0  0  0
  -18.2670  -26.1570   21.6240 C   0  0  0  0  0  0  0  0  0  0  0  0
  -20.7690  -26.7720   21.8590 C   0  0  0  0  0  3  0  0  0  0  0  0
  -21.0530  -25.4840   21.0470 C   0  0  0  0  0  2  0  0  0  0  0  0
  -19.9600  -25.1590   20.0280 C   0  0  0  0  0  2  0  0  0  0  0  0
  -18.6120  -24.9790   20.7290 C   0  0  0  0  0  2  0  0  0  0  0  0
  -19.2760  -27.0100   22.1450 C   0  0  0  0  0  0  0  0  0  0  0  0
  -18.8950  -28.1130   22.9410 C   0  0  0  0  0  3  0  0  0  0  0  0
  -17.5400  -28.3600   23.2220 C   0  0  0  0  0  3  0  0  0  0  0  0
  -16.5470  -27.5080   22.7140 C   0  0  0  0  0  3  0  0  0  0  0  0
  -16.9130  -26.4090   21.9200 C   0  0  0  0  0  3  0  0  0  0  0  0
  -25.8690  -31.1900   22.7490 C   0  0  0  0  0  3  0  0  0  0  0  0
  -25.5560  -32.4370   23.4580 N   0  0  0  0  0  0  0  0  0  0  0  0
  -25.8170  -33.6650   22.9920 C   0  0  0  0  0  0  0  0  0  0  0  0
  -26.4230  -33.8630   21.9340 O   0  0  0  0  0  0  0  0  0  0  0  0
  -24.9940  -32.3430   24.2930 H   0  0  0  0  0  0  0  0  0  0  0  0
  -24.0820  -35.4790   23.1880 C   0  0  0  0  0  1  0  0  0  0  0  0
  -25.3340  -34.8640   23.8320 C   0  0  0  0  0  3  0  0  0  0  0  0
  -27.4790  -35.4860   24.8520 C   0  0  0  0  0  1  0  0  0  0  0  0
  -26.3630  -35.9100   24.0110 N   0  0  0  0  0  0  0  0  0  0  0  0
  -25.9590  -36.7480   24.4200 H   0  0  0  0  0  0  0  0  0  0  0  0
  -26.6450  -30.1900   23.6900 C   0  0  1  0  0  0  0  0  0  0  0  0
  -25.7820  -29.6160   24.8400 C   0  0  0  0  0  1  0  0  0  0  0  0
  -27.1990  -28.9970   22.8770 C   0  0  0  0  0  1  0  0  0  0  0  0
  -27.8640  -30.9040   24.3210 C   0  0  0  0  0  1  0  0  0  0  0  0
  -24.4020  -16.7550   20.5350 C   0  0  0  0  0  2  0  0  0  0  0  0
  -22.3190  -16.1440   19.4700 C   0  0  0  0  0  1  0  0  0  0  0  0
  -23.7350  -15.7430   19.6430 N   0  0  2  0  0  4  0  0  0  0  0  0
  -24.1350  -15.8490   18.7260 H   0  0  0  0  0  0  0  0  0  0  0  0
  -23.9380  -14.2690   20.0150 C   0  0  0  0  0  2  0  0  0  0  0  0
  -25.3550  -13.7000   19.5290 C   0  0  0  0  0  2  0  0  0  0  0  0
  -25.8310  -12.1680   19.3120 C   0  0  0  0  0  2  0  0  0  0  0  0
  -27.3520  -12.1260   18.8230 C   0  0  0  0  0  2  0  0  0  0  0  0
  -28.3580  -10.8660   18.5780 C   0  0  0  0  0  2  0  0  0  0  0  0
  -30.0450  -10.7570   18.5970 C   0  0  0  0  0  2  0  0  0  0  0  0
  -32.4130  -12.0530   20.1690 C   0  0  2  0  0  0  0  0  0  0  0  0
  -33.2750  -11.4180   18.9560 C   0  0  0  0  0  1  0  0  0  0  0  0
  -32.1220  -12.5100   17.8840 C   0  0  0  0  0  1  0  0  0  0  0  0
  -30.7800  -13.3550   18.7600 C   0  0  0  0  0  2  0  0  0  0  0  0
  -30.3780  -13.1690   20.5650 C   0  0  0  0  0  2  0  0  0  0  0  0
  -31.6260  -12.1940   21.5640 C   0  0  0  0  0  1  0  0  0  0  0  0
  -32.9070  -11.3560   20.7000 N   0  0  0  0  0  1  0  0  0  0  0  0
  -33.0790  -13.2770   20.1590 O   0  0  0  0  0  1  0  0  0  0  0  0
  -31.1900  -11.0160   19.6890 N   0  0  0  0  0  2  0  0  0  0  0  0
  -31.2440  -10.2210   20.3090 H   0  0  0  0  0  0  0  0  0  0  0  0
  -28.0910  -13.6790   21.5690 C   0  0  0  0  0  0  0  0  0  0  0  0
  -26.9360  -13.0070   21.8260 C   0  0  0  0  0  0  0  0  0  0  0  0
  -27.1600  -11.6590   21.4430 C   0  0  0  0  0  0  0  0  0  0  0  0
  -28.9940  -12.8040   21.0320 N   0  0  0  0  0  0  0  0  0  0  0  0
  -28.4580  -11.5340   21.1060 N   0  0  0  0  0  0  0  0  0  0  0  0
  -26.2030  -10.5310   21.4050 C   0  0  0  0  0  0  0  0  0  0  0  0
  -26.3760   -9.3770   22.2080 C   0  0  0  0  0  3  0  0  0  0  0  0
  -25.4050   -8.3440   22.2400 C   0  0  0  0  0  3  0  0  0  0  0  0
  -24.2630   -8.4240   21.4050 C   0  0  0  0  0  0  0  0  0  0  0  0
  -24.1180   -9.5370   20.5620 C   0  0  0  0  0  3  0  0  0  0  0  0
  -25.0560  -10.5870   20.5720 C   0  0  0  0  0  3  0  0  0  0  0  0
  -23.2790   -7.4720   21.3380 O   0  0  0  0  0  0  0  0  0  0  0  0
  -22.8070   -6.8150   22.4370 C   0  0  0  0  0  0  0  0  0  0  0  0
  -22.1920   -7.4840   23.5220 C   0  0  0  0  0  3  0  0  0  0  0  0
  -21.6810   -6.7470   24.6100 C   0  0  0  0  0  3  0  0  0  0  0  0
  -21.7740   -5.3410   24.6040 C   0  0  0  0  0  0  0  0  0  0  0  0
  -22.3800   -4.6650   23.5250 C   0  0  0  0  0  3  0  0  0  0  0  0
  -22.8960   -5.4080   22.4420 C   0  0  0  0  0  0  0  0  0  0  0  0
  -23.4710   -4.7550   21.4010 F   0  0  0  0  0  0  0  0  0  0  0  0
  -21.2780   -4.6270   25.6370 F   0  0  0  0  0  0  0  0  0  0  0  0
  -25.6860  -13.6220   22.3910 C   0  0  0  0  0  0  0  0  0  0  0  0
  -24.9230  -12.8670   23.1610 N   0  0  0  0  0  0  0  0  0  0  0  0
  -25.4380  -14.8100   22.2420 O   0  0  0  0  0  0  0  0  0  0  0  0
  -24.1220  -13.2560   23.6330 H   0  0  0  0  0  0  0  0  0  0  0  0
  -25.1050  -11.8820   23.2700 H   0  0  0  0  0  0  0  0  0  0  0  0
  -28.4770  -14.9730   21.8000 N   0  0  0  0  0  0  0  0  0  0  0  0
  -28.0450  -15.2720   22.6690 H   0  0  0  0  0  0  0  0  0  0  0  0
  -29.4730  -15.1420   21.8060 H   0  0  0  0  0  0  0  0  0  0  0  0
  1  5  1  0
  2  5  2  0
  3  1  2  0
  4  2  1  0
  5 55  1  0
  6  3  1  0
  6  4  2  0
  8  7  1  0
  8  9  1  0
  8  6  1  0
  9 10  1  0
 11  9  1  0
 12 13  1  0
 12  9  1  0
 14 16  1  0
 14 13  1  0
 15 26  2  0
 16 21  1  0
 17 25  1  0
 17 27  1  0
 18 24  1  0
 18 20  1  0
 19 25  1  0
 20 19  1  0
 21 20  2  0
 22 23  1  0
 22 16  2  0
 23 18  2  0
 24 17  1  0
 25 15  1  0
 27 29  2  0
 28 27  1  0
 30 28  1  0
 31 40  2  0
 31 36  1  0
 32 28  1  0
 32 36  1  0
 33 32  1  0
 34 35  1  0
 34 33  1  0
 35 31  1  0
 36 37  2  0
 37 38  1  0
 39 38  2  0
 40 39  1  0
 41 15  1  0
 41 42  1  0
 41 51  1  0
 42 45  1  0
 43 42  1  0
 43 47  1  0
 44 43  2  0
 47 46  1  0
 47 49  1  0
 49 50  1  0
 49 48  1  0
 51 54  1  1
 51 52  1  0
 53 51  1  0
 56 57  1  0
 57 59  1  0
 57 55  1  0
 57 58  1  6
 60 59  1  0
 61 60  1  0
 62 61  1  0
 63 64  1  0
 63 62  1  0
 64 73  1  0
 65 71  1  0
 65 70  1  6
 66 65  1  0
 67 68  1  0
 68 69  1  0
 69 78  1  0
 72 65  1  0
 73 74  1  0
 75100  1  0
 75 76  2  0
 76 95  1  0
 77 76  1  0
 78 79  1  0
 78 75  1  0
 79 77  2  0
 80 77  1  0
 80 81  1  0
 81 82  2  0
 83 82  1  0
 84 85  1  0
 84 83  2  0
 85 80  2  0
 86 83  1  0
 86 87  1  0
 87 92  2  0
 87 88  1  0
 88 89  2  0
 90 89  1  0
 90 94  1  0
 91 90  2  0
 92 91  1  0
 93 92  1  0
 95 96  1  0
 96 99  1  0
 96 98  1  0
 97 95  2  0
100102  1  0
100101  1  0
M  ISO  4  13 101  14 101  65 100  73 100
M  END
>  <TORSDO>  (60) 
F 28

>  <SCORE>  (60) 
5.026

>  <name>  (60) 
60

>  <ligand_id>  (60) 
60

>  <original_smiles>  (60) 
[H]c1c([H])c([H])c2c(c1[H])C([H])([H])C([H])([H])C([H])([H])C2([H])N([H])C(=O)C1([H])N(C(=O)C([H])(N([H])C(=O)C([H])(N([H])C([H])([H])[H])C([H])([H])[H])C(C([H])([H])[H])(C([H])([H])[H])C([H])([H])[H])C([H])([H])c2c([H])c(OC([H])([H])C([H])([H])[N+]([H])([H])C([H])(c3c([H])c([H])c(C([H])([H])[N+]([H])(C([H])([H])[H])C([H])([H])C([H])([H])C([H])([H])C([H])([H])C([H])([H])C([H])([H])N([H])C(=O)N4C([H])([H])C([H])([H])C([H])([H])C([H])(n5nc(-c6c([H])c([H])c(Oc7c([H])c([H])c(F)c([H])c7F)c([H])c6[H])c(C(=O)N([H])[H])c5N([H])[H])C4([H])[H])c([H])c3[H])C([H])([H])[H])c([H])c([H])c2C1([H])[H]

>  <smiles>  (60) 
[H]c1c([H])c([H])c2c(c1[H])C([H])([H])C([H])([H])C([H])([H])C2([H])N([H])C(=O)C1([H])N(C(=O)C([H])(N([H])C(=O)C([H])(N([H])C([H])([H])[H])C([H])([H])[H])C(C([H])([H])[H])(C([H])([H])[H])C([H])([H])[H])C([H])([H])c2c([H])c(OC([H])([H])C([H])([H])[N+]([H])([H])C([H])(c3c([H])c([H])c(C([H])([H])[N+]([H])(C([H])([H])[H])C([H])([H])C([H])([H])C([H])([H])C([H])([H])C([H])([H])C([H])([H])N([H])C(=O)N4C([H])([H])C([H])([H])C([H])([H])C([H])(n5nc(-c6c([H])c([H])c(Oc7c([H])c([H])c(F)c([H])c7F)c([H])c6[H])c(C(=O)N([H])[H])c5N([H])[H])C4([H])[H])c([H])c3[H])C([H])([H])[H])c([H])c([H])c2C1([H])[H]

$$$$
61:0:0
     RDKit          3D

 94102  0  0  1  0  0  0  0  0999 V2000
  -32.0310  -21.8670   21.0940 C   0  0  0  0  0  3  0  0  0  0  0  0
  -30.9840  -20.9300   21.1250 C   0  0  0  0  0  3  0  0  0  0  0  0
  -31.7820  -23.1880   20.6810 C   0  0  0  0  0  3  0  0  0  0  0  0
  -29.4350  -22.6400   20.3290 C   0  0  0  0  0  3  0  0  0  0  0  0
  -29.6860  -21.3040   20.7220 C   0  0  0  0  0  0  0  0  0  0  0  0
  -30.4810  -23.6000   20.3030 C   0  0  0  0  0  0  0  0  0  0  0  0
  -30.2610  -25.0340   19.9240 C   0  0  0  0  0  0  0  0  0  0  0  0
  -31.1990  -25.8340   19.8110 O   0  0  0  0  0  0  0  0  0  0  0  0
  -28.8270  -25.5240   19.6600 C   0  0  0  0  0  2  0  0  0  0  0  0
  -28.7890  -26.9530   19.7060 O   0  0  0  0  0  0  0  0  0  0  0  0
  -24.6560  -31.6490   23.0590 C   0  0  0  0  0  0  0  0  0  0  0  0
  -27.5520  -27.5490   19.7590 C   0  0  0  0  0  0  0  0  0  0  0  0
  -23.5280  -30.2700   21.3410 C   0  0  0  0  0  3  0  0  0  0  0  0
  -25.0650  -28.8860   19.8480 C   0  0  0  0  0  0  0  0  0  0  0  0
  -26.0260  -30.7850   21.1650 C   0  0  0  0  0  2  0  0  0  0  0  0
  -26.1890  -29.4560   20.4580 C   0  0  0  0  0  0  0  0  0  0  0  0
  -27.4340  -28.7960   20.4060 C   0  0  0  0  0  3  0  0  0  0  0  0
  -26.4100  -26.9780   19.1530 C   0  0  0  0  0  3  0  0  0  0  0  0
  -25.1690  -27.6440   19.1960 C   0  0  0  0  0  3  0  0  0  0  0  0
  -23.7750  -29.6700   19.9300 C   0  0  0  0  0  2  0  0  0  0  0  0
  -24.7550  -30.9140   21.9150 N   0  0  0  0  0  0  0  0  0  0  0  0
  -23.5620  -31.8320   23.6110 O   0  0  0  0  0  0  0  0  0  0  0  0
  -22.9350  -29.1670   22.2460 C   0  0  0  0  0  0  0  0  0  0  0  0
  -21.6140  -28.9500   22.1360 N   0  0  0  0  0  0  0  0  0  0  0  0
  -23.6570  -28.5110   23.0000 O   0  0  0  0  0  0  0  0  0  0  0  0
  -21.0900  -29.5360   21.5000 H   0  0  0  0  0  0  0  0  0  0  0  0
  -18.2840  -27.6560   22.6650 C   0  0  0  0  0  0  0  0  0  0  0  0
  -20.8460  -27.9380   22.8590 C   0  0  0  0  0  3  0  0  0  0  0  0
  -20.9480  -26.5610   22.1630 C   0  0  0  0  0  2  0  0  0  0  0  0
  -19.8110  -26.3020   21.1690 C   0  0  0  0  0  2  0  0  0  0  0  0
  -18.4540  -26.3700   21.8750 C   0  0  0  0  0  2  0  0  0  0  0  0
  -19.4070  -28.4010   23.1130 C   0  0  0  0  0  0  0  0  0  0  0  0
  -19.1950  -29.6090   23.8120 C   0  0  0  0  0  3  0  0  0  0  0  0
  -17.8900  -30.0730   24.0680 C   0  0  0  0  0  3  0  0  0  0  0  0
  -16.7820  -29.3230   23.6360 C   0  0  0  0  0  3  0  0  0  0  0  0
  -16.9800  -28.1170   22.9410 C   0  0  0  0  0  3  0  0  0  0  0  0
  -25.9080  -32.3140   23.7140 C   0  0  0  0  0  3  0  0  0  0  0  0
  -25.5490  -33.6990   24.0440 N   0  0  0  0  0  0  0  0  0  0  0  0
  -25.8680  -34.7660   23.3000 C   0  0  0  0  0  0  0  0  0  0  0  0
  -26.5660  -34.6900   22.2850 O   0  0  0  0  0  0  0  0  0  0  0  0
  -24.9280  -33.8300   24.8310 H   0  0  0  0  0  0  0  0  0  0  0  0
  -24.0910  -36.5030   22.9130 C   0  0  0  0  0  1  0  0  0  0  0  0
  -25.3250  -36.1350   23.7520 C   0  0  0  0  0  3  0  0  0  0  0  0
  -27.4100  -37.0830   24.6380 C   0  0  0  0  0  1  0  0  0  0  0  0
  -26.3260  -37.2210   23.6690 N   0  0  0  0  0  0  0  0  0  0  0  0
  -25.8870  -38.1270   23.8120 H   0  0  0  0  0  0  0  0  0  0  0  0
  -26.4210  -31.5480   24.9940 C   0  0  1  0  0  0  0  0  0  0  0  0
  -25.3160  -31.2790   26.0410 C   0  0  0  0  0  1  0  0  0  0  0  0
  -27.0420  -30.1870   24.6020 C   0  0  0  0  0  1  0  0  0  0  0  0
  -27.5410  -32.3650   25.6820 C   0  0  0  0  0  1  0  0  0  0  0  0
  -28.5610  -20.3380   20.8260 C   0  0  0  0  0  0  0  0  0  0  0  0
  -27.5660  -20.5640   21.5190 O   0  0  0  0  0  0  0  0  0  0  0  0
  -28.6130  -19.0590   19.9750 C   0  0  0  0  0  2  0  0  0  0  0  0
  -29.5130  -17.9230   20.5150 C   0  0  0  0  0  2  0  0  0  0  0  0
  -30.7140  -17.5940   19.6060 C   0  0  0  0  0  2  0  0  0  0  0  0
  -31.6860  -16.5680   20.2220 C   0  0  0  0  0  2  0  0  0  0  0  0
  -31.6510  -14.1000   19.9390 C   0  0  0  0  0  0  0  0  0  0  0  0
  -31.1780  -11.7980   19.2060 C   0  0  0  0  0  2  0  0  0  0  0  0
  -30.2150  -11.8110   18.0040 C   0  0  0  0  0  2  0  0  0  0  0  0
  -28.7470  -11.8760   18.4680 C   0  0  0  0  0  2  0  0  0  0  0  0
  -28.4970  -12.9580   19.5520 C   0  0  0  0  0  3  0  0  0  0  0  0
  -29.5640  -12.8830   20.6660 C   0  0  0  0  0  2  0  0  0  0  0  0
  -30.8890  -12.9810   20.0310 N   0  0  0  0  0  0  0  0  0  0  0  0
  -32.7520  -14.1160   19.3810 O   0  0  0  0  0  0  0  0  0  0  0  0
  -31.0900  -15.2360   20.3870 N   0  0  0  0  0  0  0  0  0  0  0  0
  -30.1780  -15.1700   20.8140 H   0  0  0  0  0  0  0  0  0  0  0  0
  -26.2610  -13.8780   20.4280 C   0  0  0  0  0  0  0  0  0  0  0  0
  -25.1050  -13.2540   20.8160 C   0  0  0  0  0  0  0  0  0  0  0  0
  -25.3470  -11.8540   20.6830 C   0  0  0  0  0  0  0  0  0  0  0  0
  -27.1420  -12.8640   20.0910 N   0  0  0  0  0  0  0  0  0  0  0  0
  -26.5990  -11.6380   20.3000 N   0  0  0  0  0  0  0  0  0  0  0  0
  -24.4450  -10.7080   20.8450 C   0  0  0  0  0  0  0  0  0  0  0  0
  -24.7710   -9.6270   21.6950 C   0  0  0  0  0  3  0  0  0  0  0  0
  -23.8820   -8.5430   21.8480 C   0  0  0  0  0  3  0  0  0  0  0  0
  -22.6490   -8.5330   21.1520 C   0  0  0  0  0  0  0  0  0  0  0  0
  -22.3400   -9.6000   20.2890 C   0  0  0  0  0  3  0  0  0  0  0  0
  -23.2290  -10.6770   20.1350 C   0  0  0  0  0  3  0  0  0  0  0  0
  -21.7330   -7.5110   21.2200 O   0  0  0  0  0  0  0  0  0  0  0  0
  -21.6250   -6.7140   22.3300 C   0  0  0  0  0  0  0  0  0  0  0  0
  -21.3500   -7.2470   23.6090 C   0  0  0  0  0  3  0  0  0  0  0  0
  -21.1760   -6.3840   24.7080 C   0  0  0  0  0  3  0  0  0  0  0  0
  -21.2720   -4.9910   24.5320 C   0  0  0  0  0  0  0  0  0  0  0  0
  -21.5420   -4.4580   23.2600 C   0  0  0  0  0  3  0  0  0  0  0  0
  -21.7150   -5.3180   22.1610 C   0  0  0  0  0  0  0  0  0  0  0  0
  -21.9510   -4.7980   20.9320 F   0  0  0  0  0  0  0  0  0  0  0  0
  -21.0990   -4.1600   25.5870 F   0  0  0  0  0  0  0  0  0  0  0  0
  -23.8130  -13.9190   21.1940 C   0  0  0  0  0  0  0  0  0  0  0  0
  -23.0420  -13.2980   22.0800 N   0  0  0  0  0  0  0  0  0  0  0  0
  -23.5010  -15.0170   20.7380 O   0  0  0  0  0  0  0  0  0  0  0  0
  -23.3080  -12.4050   22.4680 H   0  0  0  0  0  0  0  0  0  0  0  0
  -22.1720  -13.7220   22.3700 H   0  0  0  0  0  0  0  0  0  0  0  0
  -26.6270  -15.2150   20.3090 N   0  0  0  0  0  0  0  0  0  0  0  0
  -25.9740  -15.9710   20.4790 H   0  0  0  0  0  0  0  0  0  0  0  0
  -27.4960  -15.5270   19.8930 H   0  0  0  0  0  0  0  0  0  0  0  0
  1  2  1  0
  3  1  2  0
  4  5  1  0
  5 51  1  0
  5  2  2  0
  6  4  2  0
  6  3  1  0
  7  6  1  0
  8  7  2  0
  9 10  1  0
  9  7  1  0
 10 12  1  0
 11 22  2  0
 12 17  1  0
 13 21  1  0
 13 23  1  0
 14 20  1  0
 14 16  1  0
 15 21  1  0
 16 15  1  0
 17 16  2  0
 18 19  1  0
 18 12  2  0
 19 14  2  0
 20 13  1  0
 21 11  1  0
 23 25  2  0
 24 23  1  0
 26 24  1  0
 27 36  2  0
 27 32  1  0
 28 24  1  0
 28 32  1  0
 29 28  1  0
 30 31  1  0
 30 29  1  0
 31 27  1  0
 32 33  2  0
 33 34  1  0
 35 34  2  0
 36 35  1  0
 37 11  1  0
 37 38  1  0
 37 47  1  0
 38 41  1  0
 39 43  1  0
 39 38  1  0
 40 39  2  0
 43 42  1  0
 45 43  1  0
 45 46  1  0
 45 44  1  0
 47 50  1  1
 47 48  1  0
 49 47  1  0
 51 52  2  0
 53 54  1  0
 53 51  1  0
 55 56  1  0
 55 54  1  0
 56 65  1  0
 57 63  1  0
 57 65  1  0
 58 63  1  0
 59 60  1  0
 59 58  1  0
 61 60  1  0
 61 70  1  0
 61 62  1  0
 63 62  1  0
 64 57  2  0
 65 66  1  0
 67 68  2  0
 68 87  1  0
 69 68  1  0
 69 72  1  0
 70 71  1  0
 70 67  1  0
 71 69  2  0
 72 73  1  0
 73 74  2  0
 75 78  1  0
 75 74  1  0
 76 75  2  0
 77 76  1  0
 77 72  2  0
 78 79  1  0
 79 80  1  0
 80 81  2  0
 82 81  1  0
 82 86  1  0
 83 82  2  0
 84 79  2  0
 84 83  1  0
 85 84  1  0
 87 88  1  0
 88 91  1  0
 88 90  1  0
 89 87  2  0
 92 67  1  0
 92 93  1  0
 94 92  1  0
M  ISO  4   9 101  10 101  57 100  65 100
M  END
>  <TORSDO>  (61) 
F 23

>  <SCORE>  (61) 
-10.760

>  <name>  (61) 
61

>  <ligand_id>  (61) 
61

>  <original_smiles>  (61) 
[H]c1c([H])c(C(=O)C([H])([H])Oc2c([H])c([H])c3c(c2[H])C([H])([H])N(C(=O)C([H])(N([H])C(=O)C([H])(N([H])C([H])([H])[H])C([H])([H])[H])C(C([H])([H])[H])(C([H])([H])[H])C([H])([H])[H])C([H])(C(=O)N([H])C2([H])c4c([H])c([H])c([H])c([H])c4C([H])([H])C([H])([H])C2([H])[H])C3([H])[H])c([H])c(C(=O)C([H])([H])C([H])([H])C([H])([H])C([H])([H])N([H])C(=O)N2C([H])([H])C([H])([H])C([H])([H])C([H])(n3nc(-c4c([H])c([H])c(Oc5c([H])c([H])c(F)c([H])c5F)c([H])c4[H])c(C(=O)N([H])[H])c3N([H])[H])C2([H])[H])c1[H]

>  <smiles>  (61) 
[H]c1c([H])c(C(=O)C([H])([H])Oc2c([H])c([H])c3c(c2[H])C([H])([H])N(C(=O)C([H])(N([H])C(=O)C([H])(N([H])C([H])([H])[H])C([H])([H])[H])C(C([H])([H])[H])(C([H])([H])[H])C([H])([H])[H])C([H])(C(=O)N([H])C2([H])c4c([H])c([H])c([H])c([H])c4C([H])([H])C([H])([H])C2([H])[H])C3([H])[H])c([H])c(C(=O)C([H])([H])C([H])([H])C([H])([H])C([H])([H])N([H])C(=O)N2C([H])([H])C([H])([H])C([H])([H])C([H])(n3nc(-c4c([H])c([H])c(Oc5c([H])c([H])c(F)c([H])c5F)c([H])c4[H])c(C(=O)N([H])[H])c3N([H])[H])C2([H])[H])c1[H]

$$$$
62:0:0
     RDKit          3D

 91 98  0  0  1  0  0  0  0  0999 V2000
  -29.2930  -23.2190   18.8990 N   0  0  0  0  0  4  0  0  0  0  0  0
  -28.3720  -23.5490   18.6550 H   0  0  0  0  0  0  0  0  0  0  0  0
  -29.8120  -23.1070   18.0430 H   0  0  0  0  0  0  0  0  0  0  0  0
  -29.9950  -24.2140   19.7460 C   0  0  0  0  0  2  0  0  0  0  0  0
  -30.2190  -25.5760   19.0540 C   0  0  0  0  0  2  0  0  0  0  0  0
  -28.9430  -26.4040   18.8410 C   0  0  0  0  0  2  0  0  0  0  0  0
  -28.4360  -26.7870   20.1110 O   0  0  0  0  0  0  0  0  0  0  0  0
  -24.6250  -31.8930   23.2160 C   0  0  0  0  0  0  0  0  0  0  0  0
  -27.2570  -27.4880   20.1040 C   0  0  0  0  0  0  0  0  0  0  0  0
  -23.4020  -30.4880   21.5870 C   0  0  0  0  0  3  0  0  0  0  0  0
  -24.8450  -28.9510   20.1500 C   0  0  0  0  0  0  0  0  0  0  0  0
  -25.9190  -30.8570   21.3600 C   0  0  0  0  0  2  0  0  0  0  0  0
  -26.0030  -29.4850   20.7280 C   0  0  0  0  0  0  0  0  0  0  0  0
  -27.2070  -28.7550   20.7180 C   0  0  0  0  0  3  0  0  0  0  0  0
  -26.0850  -26.9510   19.5260 C   0  0  0  0  0  3  0  0  0  0  0  0
  -24.8800  -27.6780   19.5480 C   0  0  0  0  0  3  0  0  0  0  0  0
  -23.5970  -29.8030   20.2060 C   0  0  0  0  0  2  0  0  0  0  0  0
  -24.6680  -31.0920   22.1140 N   0  0  0  0  0  0  0  0  0  0  0  0
  -23.5500  -32.1640   23.7690 O   0  0  0  0  0  0  0  0  0  0  0  0
  -22.7650  -29.4650   22.5560 C   0  0  0  0  0  0  0  0  0  0  0  0
  -21.4400  -29.2820   22.4420 N   0  0  0  0  0  0  0  0  0  0  0  0
  -23.4580  -28.8430   23.3630 O   0  0  0  0  0  0  0  0  0  0  0  0
  -20.9410  -29.8400   21.7620 H   0  0  0  0  0  0  0  0  0  0  0  0
  -18.0730  -28.0870   22.9630 C   0  0  0  0  0  0  0  0  0  0  0  0
  -20.6310  -28.3470   23.2220 C   0  0  0  0  0  3  0  0  0  0  0  0
  -20.7320  -26.9150   22.6520 C   0  0  0  0  0  2  0  0  0  0  0  0
  -19.6270  -26.5850   21.6440 C   0  0  0  0  0  2  0  0  0  0  0  0
  -18.2470  -26.7350   22.2950 C   0  0  0  0  0  2  0  0  0  0  0  0
  -19.1920  -28.8520   23.3850 C   0  0  0  0  0  0  0  0  0  0  0  0
  -18.9770  -30.1190   23.9680 C   0  0  0  0  0  3  0  0  0  0  0  0
  -17.6720  -30.6210   24.1370 C   0  0  0  0  0  3  0  0  0  0  0  0
  -16.5660  -29.8540   23.7330 C   0  0  0  0  0  3  0  0  0  0  0  0
  -16.7680  -28.5890   23.1510 C   0  0  0  0  0  3  0  0  0  0  0  0
  -25.9210  -32.5250   23.8190 C   0  0  0  0  0  3  0  0  0  0  0  0
  -26.4640  -31.7450   25.0770 C   0  0  1  0  0  0  0  0  0  0  0  0
  -25.3930  -31.4930   26.1630 C   0  0  0  0  0  1  0  0  0  0  0  0
  -27.0460  -30.3770   24.6560 C   0  0  0  0  0  1  0  0  0  0  0  0
  -27.6230  -32.5380   25.7270 C   0  0  0  0  0  1  0  0  0  0  0  0
  -25.6130  -33.9190   24.1650 N   0  0  0  0  0  0  0  0  0  0  0  0
  -25.9310  -34.9780   23.4090 C   0  0  0  0  0  0  0  0  0  0  0  0
  -26.5870  -34.8850   22.3680 O   0  0  0  0  0  0  0  0  0  0  0  0
  -25.0340  -34.0640   24.9790 H   0  0  0  0  0  0  0  0  0  0  0  0
  -24.1920  -36.7620   23.0880 C   0  0  0  0  0  1  0  0  0  0  0  0
  -25.4440  -36.3600   23.8840 C   0  0  0  0  0  3  0  0  0  0  0  0
  -27.5850  -37.2430   24.6940 C   0  0  0  0  0  1  0  0  0  0  0  0
  -26.4700  -37.4170   23.7690 N   0  0  0  0  0  0  0  0  0  0  0  0
  -26.0610  -38.3320   23.9340 H   0  0  0  0  0  0  0  0  0  0  0  0
  -29.1370  -21.8940   19.5400 C   0  0  0  0  0  2  0  0  0  0  0  0
  -29.0290  -20.7510   18.5110 C   0  0  0  0  0  2  0  0  0  0  0  0
  -28.5430  -19.4130   19.1030 C   0  0  0  0  0  2  0  0  0  0  0  0
  -29.3500  -18.8880   20.3110 C   0  0  0  0  0  2  0  0  0  0  0  0
  -29.4840  -17.3610   20.2740 C   0  0  0  0  0  2  0  0  0  0  0  0
  -30.1560  -16.7300   21.5090 C   0  0  0  0  0  2  0  0  0  0  0  0
  -30.6550  -14.4230   20.6340 C   0  0  0  0  0  0  0  0  0  0  0  0
  -30.3780  -12.3350   19.3480 C   0  0  0  0  0  2  0  0  0  0  0  0
  -29.4290  -12.5730   18.1540 C   0  0  0  0  0  2  0  0  0  0  0  0
  -27.9490  -12.4260   18.5630 C   0  0  0  0  0  2  0  0  0  0  0  0
  -27.6170  -13.2160   19.8560 C   0  0  0  0  0  3  0  0  0  0  0  0
  -28.6580  -12.9210   20.9600 C   0  0  0  0  0  2  0  0  0  0  0  0
  -29.9940  -13.2510   20.4290 N   0  0  0  0  0  0  0  0  0  0  0  0
  -31.7070  -14.7200   20.0570 O   0  0  0  0  0  0  0  0  0  0  0  0
  -30.0150  -15.2750   21.4500 N   0  0  0  0  0  0  0  0  0  0  0  0
  -29.2150  -14.8960   21.9370 H   0  0  0  0  0  0  0  0  0  0  0  0
  -25.2090  -13.8410   20.5150 C   0  0  0  0  0  0  0  0  0  0  0  0
  -24.1350  -13.0770   20.8790 C   0  0  0  0  0  0  0  0  0  0  0  0
  -24.5900  -11.7230   20.8690 C   0  0  0  0  0  0  0  0  0  0  0  0
  -26.2530  -12.9530   20.3120 N   0  0  0  0  0  0  0  0  0  0  0  0
  -25.8820  -11.6740   20.5760 N   0  0  0  0  0  0  0  0  0  0  0  0
  -23.8590  -10.4640   21.0630 C   0  0  0  0  0  0  0  0  0  0  0  0
  -24.3030   -9.4900   21.9840 C   0  0  0  0  0  3  0  0  0  0  0  0
  -23.5740   -8.2960   22.1680 C   0  0  0  0  0  3  0  0  0  0  0  0
  -22.3880   -8.0710   21.4250 C   0  0  0  0  0  0  0  0  0  0  0  0
  -21.9650   -9.0320   20.4910 C   0  0  0  0  0  3  0  0  0  0  0  0
  -22.6950  -10.2190   20.3080 C   0  0  0  0  0  3  0  0  0  0  0  0
  -21.6240   -6.9320   21.5170 O   0  0  0  0  0  0  0  0  0  0  0  0
  -21.6030   -6.1680   22.6570 C   0  0  0  0  0  0  0  0  0  0  0  0
  -21.2350   -6.7050   23.9100 C   0  0  0  0  0  3  0  0  0  0  0  0
  -21.1680   -5.8680   25.0400 C   0  0  0  0  0  3  0  0  0  0  0  0
  -21.4510   -4.4930   24.9170 C   0  0  0  0  0  0  0  0  0  0  0  0
  -21.8150   -3.9550   23.6710 C   0  0  0  0  0  3  0  0  0  0  0  0
  -21.8870   -4.7900   22.5430 C   0  0  0  0  0  0  0  0  0  0  0  0
  -22.2130   -4.2640   21.3380 F   0  0  0  0  0  0  0  0  0  0  0  0
  -21.3750   -3.6890   26.0020 F   0  0  0  0  0  0  0  0  0  0  0  0
  -22.7400  -13.5590   21.1400 C   0  0  0  0  0  0  0  0  0  0  0  0
  -22.0050  -12.8720   22.0100 N   0  0  0  0  0  0  0  0  0  0  0  0
  -22.3090  -14.5810   20.6080 O   0  0  0  0  0  0  0  0  0  0  0  0
  -22.3640  -12.0460   22.4630 H   0  0  0  0  0  0  0  0  0  0  0  0
  -21.0680  -13.1790   22.2220 H   0  0  0  0  0  0  0  0  0  0  0  0
  -25.3790  -15.2110   20.3290 N   0  0  0  0  0  0  0  0  0  0  0  0
  -24.6080  -15.8650   20.4190 H   0  0  0  0  0  0  0  0  0  0  0  0
  -26.2420  -15.6570   20.0480 H   0  0  0  0  0  0  0  0  0  0  0  0
  1 48  1  0
  1  4  1  0
  2  1  1  0
  3  1  1  0
  5  4  1  0
  6  5  1  0
  6  7  1  0
  8 19  2  0
  9  7  1  0
  9 14  1  0
 10 18  1  0
 10 20  1  0
 11 17  1  0
 11 13  1  0
 12 18  1  0
 13 12  1  0
 14 13  2  0
 15 16  1  0
 15  9  2  0
 16 11  2  0
 17 10  1  0
 18  8  1  0
 20 22  2  0
 21 20  1  0
 23 21  1  0
 24 33  2  0
 24 29  1  0
 25 21  1  0
 25 29  1  0
 26 25  1  0
 27 28  1  0
 27 26  1  0
 28 24  1  0
 29 30  2  0
 30 31  1  0
 32 31  2  0
 33 32  1  0
 34  8  1  0
 34 39  1  0
 34 35  1  0
 35 38  1  1
 35 36  1  0
 37 35  1  0
 39 42  1  0
 40 44  1  0
 40 39  1  0
 41 40  2  0
 44 43  1  0
 46 44  1  0
 46 47  1  0
 46 45  1  0
 49 50  1  0
 49 48  1  0
 50 51  1  0
 52 51  1  0
 52 53  1  0
 54 62  1  0
 55 60  1  0
 56 57  1  0
 56 55  1  0
 58 57  1  0
 58 67  1  0
 58 59  1  0
 60 54  1  0
 60 59  1  0
 61 54  2  0
 62 53  1  0
 62 63  1  0
 64 65  2  0
 65 84  1  0
 66 65  1  0
 66 69  1  0
 67 64  1  0
 67 68  1  0
 68 66  2  0
 69 70  1  0
 70 71  2  0
 72 75  1  0
 72 71  1  0
 73 72  2  0
 74 73  1  0
 74 69  2  0
 75 76  1  0
 76 77  1  0
 77 78  2  0
 79 78  1  0
 79 83  1  0
 80 79  2  0
 81 76  2  0
 81 80  1  0
 82 81  1  0
 84 85  1  0
 85 88  1  0
 85 87  1  0
 86 84  2  0
 89 90  1  0
 89 64  1  0
 91 89  1  0
M  ISO  4   6 101   7 101  54 100  62 100
M  END
>  <TORSDO>  (62) 
F 25

>  <SCORE>  (62) 
-12.077

>  <name>  (62) 
62

>  <ligand_id>  (62) 
62

>  <original_smiles>  (62) 
[H]c1c([H])c([H])c2c(c1[H])C([H])([H])C([H])([H])C([H])([H])C2([H])N([H])C(=O)C1([H])N(C(=O)C([H])(N([H])C(=O)C([H])(N([H])C([H])([H])[H])C([H])([H])[H])C(C([H])([H])[H])(C([H])([H])[H])C([H])([H])[H])C([H])([H])c2c([H])c(OC([H])([H])C([H])([H])C([H])([H])[N+]([H])([H])C([H])([H])C([H])([H])C([H])([H])C([H])([H])C([H])([H])C([H])([H])N([H])C(=O)N3C([H])([H])C([H])([H])C([H])([H])C([H])(n4nc(-c5c([H])c([H])c(Oc6c([H])c([H])c(F)c([H])c6F)c([H])c5[H])c(C(=O)N([H])[H])c4N([H])[H])C3([H])[H])c([H])c([H])c2C1([H])[H]

>  <smiles>  (62) 
[H]c1c([H])c([H])c2c(c1[H])C([H])([H])C([H])([H])C([H])([H])C2([H])N([H])C(=O)C1([H])N(C(=O)C([H])(N([H])C(=O)C([H])(N([H])C([H])([H])[H])C([H])([H])[H])C(C([H])([H])[H])(C([H])([H])[H])C([H])([H])[H])C([H])([H])c2c([H])c(OC([H])([H])C([H])([H])C([H])([H])[N+]([H])([H])C([H])([H])C([H])([H])C([H])([H])C([H])([H])C([H])([H])C([H])([H])N([H])C(=O)N3C([H])([H])C([H])([H])C([H])([H])C([H])(n4nc(-c5c([H])c([H])c(Oc6c([H])c([H])c(F)c([H])c6F)c([H])c5[H])c(C(=O)N([H])[H])c4N([H])[H])C3([H])[H])c([H])c([H])c2C1([H])[H]

$$$$
63:0:0
     RDKit          3D

 96103  0  0  1  0  0  0  0  0999 V2000
  -24.9200  -22.9960   24.0660 C   0  0  0  0  0  1  0  0  0  0  0  0
  -26.9170  -23.5300   22.6510 C   0  0  0  0  0  1  0  0  0  0  0  0
  -25.5520  -24.0710   23.1520 C   0  0  2  0  0  0  0  0  0  0  0  0
  -25.6980  -25.3560   24.0130 C   0  0  0  0  0  0  0  0  0  0  0  0
  -26.9060  -25.6700   24.5040 N   0  0  0  0  0  0  0  0  0  0  0  0
  -24.7040  -26.0400   24.2670 O   0  0  0  0  0  0  0  0  0  0  0  0
  -27.6750  -25.0500   24.2870 H   0  0  0  0  0  0  0  0  0  0  0  0
  -27.1700  -26.7640   25.4390 C   0  0  0  0  0  2  0  0  0  0  0  0
  -27.4890  -28.0980   24.7200 C   0  0  0  0  0  2  0  0  0  0  0  0
  -28.2380  -28.9900   25.5560 O   0  0  0  0  0  0  0  0  0  0  0  0
  -27.3870  -29.4600   32.5660 C   0  0  0  0  0  0  0  0  0  0  0  0
  -27.5150  -29.5660   26.5730 C   0  0  0  0  0  0  0  0  0  0  0  0
  -25.5280  -30.3520   31.1990 C   0  0  0  0  0  3  0  0  0  0  0  0
  -26.0160  -30.6260   28.7130 C   0  0  0  0  0  0  0  0  0  0  0  0
  -27.9230  -30.3570   30.3080 C   0  0  0  0  0  2  0  0  0  0  0  0
  -27.3420  -30.2220   28.9170 C   0  0  0  0  0  0  0  0  0  0  0  0
  -28.1000  -29.6990   27.8490 C   0  0  0  0  0  3  0  0  0  0  0  0
  -26.1840  -29.9910   26.3730 C   0  0  0  0  0  3  0  0  0  0  0  0
  -25.4300  -30.5130   27.4400 C   0  0  0  0  0  3  0  0  0  0  0  0
  -25.2770  -31.1770   29.9100 C   0  0  0  0  0  2  0  0  0  0  0  0
  -26.9750  -30.0100   31.3900 N   0  0  0  0  0  0  0  0  0  0  0  0
  -26.5940  -29.2780   33.5000 O   0  0  0  0  0  0  0  0  0  0  0  0
  -24.6030  -29.1140   31.1810 C   0  0  0  0  0  0  0  0  0  0  0  0
  -23.5340  -29.1560   31.9930 N   0  0  0  0  0  0  0  0  0  0  0  0
  -24.8350  -28.1610   30.4330 O   0  0  0  0  0  0  0  0  0  0  0  0
  -23.4260  -29.9650   32.5900 H   0  0  0  0  0  0  0  0  0  0  0  0
  -20.7690  -28.0240   34.0230 C   0  0  0  0  0  0  0  0  0  0  0  0
  -22.5070  -28.1220   32.1120 C   0  0  0  0  0  3  0  0  0  0  0  0
  -21.3110  -28.4170   31.1760 C   0  0  0  0  0  2  0  0  0  0  0  0
  -20.1840  -29.1970   31.8590 C   0  0  0  0  0  2  0  0  0  0  0  0
  -19.6560  -28.4280   33.0740 C   0  0  0  0  0  2  0  0  0  0  0  0
  -22.1100  -27.8940   33.5750 C   0  0  0  0  0  0  0  0  0  0  0  0
  -23.1130  -27.5470   34.5050 C   0  0  0  0  0  3  0  0  0  0  0  0
  -22.7960  -27.3270   35.8590 C   0  0  0  0  0  3  0  0  0  0  0  0
  -21.4650  -27.4400   36.2930 C   0  0  0  0  0  3  0  0  0  0  0  0
  -20.4550  -27.7840   35.3780 C   0  0  0  0  0  3  0  0  0  0  0  0
  -28.8750  -29.0570   32.8070 C   0  0  0  0  0  3  0  0  0  0  0  0
  -29.1250  -27.5020   32.7050 C   0  0  1  0  0  0  0  0  0  0  0  0
  -28.1300  -26.6560   33.5320 C   0  0  0  0  0  1  0  0  0  0  0  0
  -29.0340  -27.0340   31.2320 C   0  0  0  0  0  1  0  0  0  0  0  0
  -30.5560  -27.1680   33.1880 C   0  0  0  0  0  1  0  0  0  0  0  0
  -29.2610  -29.5610   34.1320 N   0  0  0  0  0  0  0  0  0  0  0  0
  -29.9460  -30.6930   34.3430 C   0  0  0  0  0  0  0  0  0  0  0  0
  -30.3850  -31.3910   33.4260 O   0  0  0  0  0  0  0  0  0  0  0  0
  -28.8850  -29.0690   34.9280 H   0  0  0  0  0  0  0  0  0  0  0  0
  -29.1990  -32.2460   36.1760 C   0  0  0  0  0  1  0  0  0  0  0  0
  -30.1770  -31.1200   35.8050 C   0  0  0  0  0  3  0  0  0  0  0  0
  -32.5320  -30.4620   36.0350 C   0  0  0  0  0  1  0  0  0  0  0  0
  -31.5650  -31.5550   36.0770 N   0  0  0  0  0  0  0  0  0  0  0  0
  -31.6300  -32.0000   36.9890 H   0  0  0  0  0  0  0  0  0  0  0  0
  -24.5910  -24.2960   21.9440 C   0  0  0  0  0  2  0  0  0  0  0  0
  -23.6110  -26.6210   21.5540 C   0  0  0  0  0  1  0  0  0  0  0  0
  -24.7260  -25.6340   21.1580 C   0  0  0  0  0  3  0  0  0  0  0  0
  -24.6980  -25.4320   19.6180 C   0  0  0  0  0  2  0  0  0  0  0  0
  -25.8860  -24.6660   18.9940 C   0  0  0  0  0  2  0  0  0  0  0  0
  -27.2690  -25.3280   19.1580 C   0  0  0  0  0  2  0  0  0  0  0  0
  -27.5260  -26.5540   18.2650 C   0  0  0  0  0  2  0  0  0  0  0  0
  -27.5680  -26.2340   16.7560 C   0  0  0  0  0  2  0  0  0  0  0  0
  -28.8880  -27.2710   14.8940 C   0  0  0  0  0  0  0  0  0  0  0  0
  -28.3620  -28.2740   12.7230 C   0  0  0  0  0  2  0  0  0  0  0  0
  -27.3620  -29.4220   12.9600 C   0  0  0  0  0  2  0  0  0  0  0  0
  -25.9120  -28.8940   12.9460 C   0  0  0  0  0  2  0  0  0  0  0  0
  -25.7150  -27.6460   13.8490 C   0  0  0  0  0  3  0  0  0  0  0  0
  -26.8270  -26.6020   13.5960 C   0  0  0  0  0  2  0  0  0  0  0  0
  -28.1220  -27.2760   13.7730 N   0  0  0  0  0  0  0  0  0  0  0  0
  -30.0400  -27.6980   14.9240 O   0  0  0  0  0  0  0  0  0  0  0  0
  -28.2100  -27.3330   16.0460 N   0  0  0  0  0  0  0  0  0  0  0  0
  -28.6940  -27.9470   16.6850 H   0  0  0  0  0  0  0  0  0  0  0  0
  -23.3540  -26.9660   14.6040 C   0  0  0  0  0  0  0  0  0  0  0  0
  -22.2980  -26.4230   13.9240 C   0  0  0  0  0  0  0  0  0  0  0  0
  -22.7520  -26.2230   12.5840 C   0  0  0  0  0  0  0  0  0  0  0  0
  -24.3830  -27.0720   13.6820 N   0  0  0  0  0  0  0  0  0  0  0  0
  -24.0290  -26.5670   12.4740 N   0  0  0  0  0  0  0  0  0  0  0  0
  -22.0320  -25.7780   11.3840 C   0  0  0  0  0  0  0  0  0  0  0  0
  -22.4760  -24.6770   10.6210 C   0  0  0  0  0  3  0  0  0  0  0  0
  -21.7560  -24.2570    9.4830 C   0  0  0  0  0  3  0  0  0  0  0  0
  -20.5740  -24.9350    9.1000 C   0  0  0  0  0  0  0  0  0  0  0  0
  -20.1480  -26.0430    9.8520 C   0  0  0  0  0  3  0  0  0  0  0  0
  -20.8700  -26.4650   10.9820 C   0  0  0  0  0  3  0  0  0  0  0  0
  -19.8280  -24.6140    7.9930 O   0  0  0  0  0  0  0  0  0  0  0  0
  -19.7770  -23.3320    7.5060 C   0  0  0  0  0  0  0  0  0  0  0  0
  -19.3210  -22.2520    8.2930 C   0  0  0  0  0  3  0  0  0  0  0  0
  -19.2170  -20.9650    7.7290 C   0  0  0  0  0  3  0  0  0  0  0  0
  -19.5630  -20.7570    6.3800 C   0  0  0  0  0  0  0  0  0  0  0  0
  -20.0120  -21.8330    5.5950 C   0  0  0  0  0  3  0  0  0  0  0  0
  -20.1160  -23.1170    6.1550 C   0  0  0  0  0  0  0  0  0  0  0  0
  -20.5280  -24.1550    5.3890 F   0  0  0  0  0  0  0  0  0  0  0  0
  -19.4580  -19.5230    5.8330 F   0  0  0  0  0  0  0  0  0  0  0  0
  -20.9140  -26.1880   14.4570 C   0  0  0  0  0  0  0  0  0  0  0  0
  -20.2260  -25.1700   13.9510 N   0  0  0  0  0  0  0  0  0  0  0  0
  -20.4540  -26.8770   15.3680 O   0  0  0  0  0  0  0  0  0  0  0  0
  -20.6120  -24.5840   13.2260 H   0  0  0  0  0  0  0  0  0  0  0  0
  -19.3010  -24.9650   14.3020 H   0  0  0  0  0  0  0  0  0  0  0  0
  -23.5250  -27.3980   15.9160 N   0  0  0  0  0  0  0  0  0  0  0  0
  -22.7820  -27.3690   16.6030 H   0  0  0  0  0  0  0  0  0  0  0  0
  -24.3620  -27.8500   16.2590 H   0  0  0  0  0  0  0  0  0  0  0  0
  3  2  1  6
  3  4  1  0
  3  1  1  0
  4  6  2  0
  4  5  1  0
  5  8  1  0
  7  5  1  0
  9  8  1  0
  9 10  1  0
 10 12  1  0
 11 22  2  0
 12 17  1  0
 13 23  1  0
 13 21  1  0
 14 16  1  0
 14 20  1  0
 15 21  1  0
 16 15  1  0
 17 16  2  0
 18 12  2  0
 18 19  1  0
 19 14  2  0
 20 13  1  0
 21 11  1  0
 23 24  1  0
 24 26  1  0
 25 23  2  0
 27 36  1  0
 28 24  1  0
 28 32  1  0
 29 30  1  0
 29 28  1  0
 30 31  1  0
 31 27  1  0
 32 27  2  0
 32 33  1  0
 33 34  2  0
 34 35  1  0
 36 35  2  0
 37 11  1  0
 37 42  1  0
 38 37  1  0
 38 41  1  1
 38 39  1  0
 40 38  1  0
 42 43  1  0
 42 45  1  0
 43 47  1  0
 44 43  2  0
 47 49  1  0
 47 46  1  0
 48 49  1  0
 49 50  1  0
 51  3  1  0
 53 52  1  0
 53 51  1  0
 54 53  1  0
 55 56  1  0
 55 54  1  0
 57 56  1  0
 58 57  1  0
 59 66  2  0
 59 67  1  0
 60 61  1  0
 60 65  1  0
 62 61  1  0
 63 62  1  0
 64 65  1  0
 64 63  1  0
 65 59  1  0
 67 68  1  0
 67 58  1  0
 69 94  1  0
 70 89  1  0
 70 69  2  0
 71 70  1  0
 72 63  1  0
 72 69  1  0
 73 71  2  0
 73 72  1  0
 74 71  1  0
 75 74  2  0
 76 75  1  0
 77 76  2  0
 77 78  1  0
 78 79  2  0
 79 74  1  0
 80 77  1  0
 81 80  1  0
 81 82  1  0
 83 82  2  0
 84 83  1  0
 85 86  1  0
 85 84  2  0
 86 81  2  0
 87 86  1  0
 88 84  1  0
 89 91  2  0
 90 93  1  0
 90 89  1  0
 92 90  1  0
 94 96  1  0
 94 95  1  0
M  ISO  4   9 101  10 101  59 100  67 100
M  END
>  <TORSDO>  (63) 
F 26

>  <SCORE>  (63) 
6.458

>  <name>  (63) 
63

>  <ligand_id>  (63) 
63

>  <original_smiles>  (63) 
[H]c1c([H])c([H])c2c(c1[H])C([H])([H])C([H])([H])C([H])([H])C2([H])N([H])C(=O)C1([H])N(C(=O)C([H])(N([H])C(=O)C([H])(N([H])C([H])([H])[H])C([H])([H])[H])C(C([H])([H])[H])(C([H])([H])[H])C([H])([H])[H])C([H])([H])c2c([H])c(OC([H])([H])C([H])([H])N([H])C(=O)C(C([H])([H])[H])(C([H])([H])[H])C([H])([H])C([H])(C([H])([H])[H])C([H])([H])C([H])([H])C([H])([H])C([H])([H])C([H])([H])N([H])C(=O)N3C([H])([H])C([H])([H])C([H])([H])C([H])(n4nc(-c5c([H])c([H])c(Oc6c([H])c([H])c(F)c([H])c6F)c([H])c5[H])c(C(=O)N([H])[H])c4N([H])[H])C3([H])[H])c([H])c([H])c2C1([H])[H]

>  <smiles>  (63) 
[H]c1c([H])c([H])c2c(c1[H])C([H])([H])C([H])([H])C([H])([H])C2([H])N([H])C(=O)C1([H])N(C(=O)C([H])(N([H])C(=O)C([H])(N([H])C([H])([H])[H])C([H])([H])[H])C(C([H])([H])[H])(C([H])([H])[H])C([H])([H])[H])C([H])([H])c2c([H])c(OC([H])([H])C([H])([H])N([H])C(=O)C(C([H])([H])[H])(C([H])([H])[H])C([H])([H])C([H])(C([H])([H])[H])C([H])([H])C([H])([H])C([H])([H])C([H])([H])C([H])([H])N([H])C(=O)N3C([H])([H])C([H])([H])C([H])([H])C([H])(n4nc(-c5c([H])c([H])c(Oc6c([H])c([H])c(F)c([H])c6F)c([H])c5[H])c(C(=O)N([H])[H])c4N([H])[H])C3([H])[H])c([H])c([H])c2C1([H])[H]

$$$$
64:0:0
     RDKit          3D

 91 98  0  0  1  0  0  0  0  0999 V2000
  -30.9040  -21.2670   20.3520 C   0  0  0  0  0  0  0  0  0  0  0  0
  -30.5390  -21.9770   19.2750 N   0  0  0  0  0  0  0  0  0  0  0  0
  -31.5710  -21.7520   21.2710 O   0  0  0  0  0  0  0  0  0  0  0  0
  -29.9560  -21.5020   18.5950 H   0  0  0  0  0  0  0  0  0  0  0  0
  -30.5660  -19.7710   20.3430 C   0  0  0  0  0  2  0  0  0  0  0  0
  -30.1970  -19.1670   21.7170 C   0  0  0  0  0  2  0  0  0  0  0  0
  -30.4530  -17.6420   21.8450 C   0  0  0  0  0  2  0  0  0  0  0  0
  -30.0030  -16.8080   20.6310 C   0  0  0  0  0  2  0  0  0  0  0  0
  -30.7260  -14.4200   20.3310 C   0  0  0  0  0  0  0  0  0  0  0  0
  -30.4310  -12.3180   19.0820 C   0  0  0  0  0  2  0  0  0  0  0  0
  -29.4580  -12.5910   17.9150 C   0  0  0  0  0  2  0  0  0  0  0  0
  -27.9890  -12.4570   18.3650 C   0  0  0  0  0  2  0  0  0  0  0  0
  -27.6970  -13.2340   19.6800 C   0  0  0  0  0  3  0  0  0  0  0  0
  -28.7660  -12.9030   20.7460 C   0  0  0  0  0  2  0  0  0  0  0  0
  -30.0850  -13.2330   20.1780 N   0  0  0  0  0  0  0  0  0  0  0  0
  -31.8260  -14.6740   19.8280 O   0  0  0  0  0  0  0  0  0  0  0  0
  -29.9600  -15.3690   20.8970 N   0  0  0  0  0  0  0  0  0  0  0  0
  -29.0950  -15.0190   21.2830 H   0  0  0  0  0  0  0  0  0  0  0  0
  -25.3070  -13.8580   20.4150 C   0  0  0  0  0  0  0  0  0  0  0  0
  -24.2400  -13.0910   20.8000 C   0  0  0  0  0  0  0  0  0  0  0  0
  -24.6930  -11.7370   20.7600 C   0  0  0  0  0  0  0  0  0  0  0  0
  -26.3460  -12.9710   20.1710 N   0  0  0  0  0  0  0  0  0  0  0  0
  -25.9800  -11.6900   20.4330 N   0  0  0  0  0  0  0  0  0  0  0  0
  -23.9660  -10.4770   20.9600 C   0  0  0  0  0  0  0  0  0  0  0  0
  -24.3970   -9.5180   21.9010 C   0  0  0  0  0  3  0  0  0  0  0  0
  -23.6740   -8.3220   22.0880 C   0  0  0  0  0  3  0  0  0  0  0  0
  -22.5000   -8.0780   21.3370 C   0  0  0  0  0  0  0  0  0  0  0  0
  -22.0880   -9.0270   20.3850 C   0  0  0  0  0  3  0  0  0  0  0  0
  -22.8130  -10.2140   20.1950 C   0  0  0  0  0  3  0  0  0  0  0  0
  -21.7470   -6.9350   21.4340 O   0  0  0  0  0  0  0  0  0  0  0  0
  -21.6890   -6.2080   22.5950 C   0  0  0  0  0  0  0  0  0  0  0  0
  -21.2440   -6.7750   23.8100 C   0  0  0  0  0  3  0  0  0  0  0  0
  -21.1340   -5.9740   24.9620 C   0  0  0  0  0  3  0  0  0  0  0  0
  -21.4560   -4.6050   24.9020 C   0  0  0  0  0  0  0  0  0  0  0  0
  -21.8910   -4.0370   23.6920 C   0  0  0  0  0  3  0  0  0  0  0  0
  -22.0040   -4.8350   22.5410 C   0  0  0  0  0  0  0  0  0  0  0  0
  -22.4040   -4.2770   21.3740 F   0  0  0  0  0  0  0  0  0  0  0  0
  -21.3440   -3.8320   26.0080 F   0  0  0  0  0  0  0  0  0  0  0  0
  -22.8470  -13.5750   21.0900 C   0  0  0  0  0  0  0  0  0  0  0  0
  -22.1290  -12.8830   21.9640 N   0  0  0  0  0  0  0  0  0  0  0  0
  -22.4060  -14.6030   20.5780 O   0  0  0  0  0  0  0  0  0  0  0  0
  -22.5010  -12.0570   22.4090 H   0  0  0  0  0  0  0  0  0  0  0  0
  -21.1930  -13.1870   22.1970 H   0  0  0  0  0  0  0  0  0  0  0  0
  -25.4760  -15.2260   20.2310 N   0  0  0  0  0  0  0  0  0  0  0  0
  -24.7190  -15.8880   20.3500 H   0  0  0  0  0  0  0  0  0  0  0  0
  -26.3180  -15.6530   19.8640 H   0  0  0  0  0  0  0  0  0  0  0  0
  -31.2050  -23.1980   18.8200 C   0  0  0  0  0  2  0  0  0  0  0  0
  -30.6000  -24.5140   19.3570 C   0  0  0  0  0  2  0  0  0  0  0  0
  -29.2130  -24.8390   18.7710 C   0  0  0  0  0  2  0  0  0  0  0  0
  -28.8420  -26.3360   18.8270 C   0  0  0  0  0  2  0  0  0  0  0  0
  -28.3920  -26.7590   20.1170 O   0  0  0  0  0  0  0  0  0  0  0  0
  -24.5620  -31.8920   23.2430 C   0  0  0  0  0  0  0  0  0  0  0  0
  -27.2090  -27.4650   20.1420 C   0  0  0  0  0  0  0  0  0  0  0  0
  -23.3480  -30.4880   21.6050 C   0  0  0  0  0  3  0  0  0  0  0  0
  -24.7990  -28.9440   20.1810 C   0  0  0  0  0  0  0  0  0  0  0  0
  -25.8730  -30.8420   21.4080 C   0  0  0  0  0  2  0  0  0  0  0  0
  -25.9550  -29.4700   20.7720 C   0  0  0  0  0  0  0  0  0  0  0  0
  -27.1560  -28.7290   20.7680 C   0  0  0  0  0  3  0  0  0  0  0  0
  -26.0320  -26.9390   19.5640 C   0  0  0  0  0  3  0  0  0  0  0  0
  -24.8290  -27.6720   19.5820 C   0  0  0  0  0  3  0  0  0  0  0  0
  -23.5530  -29.8030   20.2280 C   0  0  0  0  0  2  0  0  0  0  0  0
  -24.6130  -31.0900   22.1430 N   0  0  0  0  0  0  0  0  0  0  0  0
  -23.4820  -32.1670   23.7860 O   0  0  0  0  0  0  0  0  0  0  0  0
  -22.6990  -29.4690   22.5680 C   0  0  0  0  0  0  0  0  0  0  0  0
  -21.3760  -29.2830   22.4390 N   0  0  0  0  0  0  0  0  0  0  0  0
  -23.3820  -28.8480   23.3880 O   0  0  0  0  0  0  0  0  0  0  0  0
  -20.8860  -29.8350   21.7480 H   0  0  0  0  0  0  0  0  0  0  0  0
  -18.0020  -28.0900   22.9300 C   0  0  0  0  0  0  0  0  0  0  0  0
  -20.5590  -28.3470   23.2090 C   0  0  0  0  0  3  0  0  0  0  0  0
  -20.6620  -26.9150   22.6360 C   0  0  0  0  0  2  0  0  0  0  0  0
  -19.5640  -26.5910   21.6200 C   0  0  0  0  0  2  0  0  0  0  0  0
  -18.1800  -26.7370   22.2600 C   0  0  0  0  0  2  0  0  0  0  0  0
  -19.1180  -28.8520   23.3620 C   0  0  0  0  0  0  0  0  0  0  0  0
  -18.8990  -30.1180   23.9460 C   0  0  0  0  0  3  0  0  0  0  0  0
  -17.5940  -30.6230   24.1040 C   0  0  0  0  0  3  0  0  0  0  0  0
  -16.4920  -29.8550   23.6920 C   0  0  0  0  0  3  0  0  0  0  0  0
  -16.6960  -28.5910   23.1100 C   0  0  0  0  0  3  0  0  0  0  0  0
  -25.8510  -32.5190   23.8580 C   0  0  0  0  0  3  0  0  0  0  0  0
  -25.5520  -33.9220   24.1740 N   0  0  0  0  0  0  0  0  0  0  0  0
  -25.9030  -34.9640   23.4100 C   0  0  0  0  0  0  0  0  0  0  0  0
  -26.5830  -34.8490   22.3870 O   0  0  0  0  0  0  0  0  0  0  0  0
  -24.9520  -34.0890   24.9680 H   0  0  0  0  0  0  0  0  0  0  0  0
  -24.1990  -36.7700   23.0110 C   0  0  0  0  0  1  0  0  0  0  0  0
  -25.4200  -36.3600   23.8500 C   0  0  0  0  0  3  0  0  0  0  0  0
  -27.5460  -37.2240   24.7230 C   0  0  0  0  0  1  0  0  0  0  0  0
  -26.4640  -37.4020   23.7550 N   0  0  0  0  0  0  0  0  0  0  0  0
  -26.0660  -38.3260   23.8950 H   0  0  0  0  0  0  0  0  0  0  0  0
  -26.3680  -31.7570   25.1390 C   0  0  1  0  0  0  0  0  0  0  0  0
  -25.2760  -31.5310   26.2100 C   0  0  0  0  0  1  0  0  0  0  0  0
  -26.9470  -30.3740   24.7560 C   0  0  0  0  0  1  0  0  0  0  0  0
  -27.5230  -32.5520   25.7930 C   0  0  0  0  0  1  0  0  0  0  0  0
  1  3  2  0
  2  1  1  0
  4  2  1  0
  5  1  1  0
  5  6  1  0
  6  7  1  0
  8 17  1  0
  8  7  1  0
  9 17  1  0
 10 15  1  0
 11 12  1  0
 11 10  1  0
 13 12  1  0
 13 22  1  0
 13 14  1  0
 15  9  1  0
 15 14  1  0
 16  9  2  0
 17 18  1  0
 19 20  2  0
 20 39  1  0
 21 20  1  0
 21 24  1  0
 22 19  1  0
 22 23  1  0
 23 21  2  0
 24 25  1  0
 25 26  2  0
 27 30  1  0
 27 26  1  0
 28 27  2  0
 29 28  1  0
 29 24  2  0
 30 31  1  0
 31 32  1  0
 32 33  2  0
 34 33  1  0
 34 38  1  0
 35 34  2  0
 36 31  2  0
 36 35  1  0
 37 36  1  0
 39 40  1  0
 40 43  1  0
 40 42  1  0
 41 39  2  0
 44 45  1  0
 44 19  1  0
 46 44  1  0
 47  2  1  0
 47 48  1  0
 49 50  1  0
 49 48  1  0
 50 51  1  0
 51 53  1  0
 52 63  2  0
 53 58  1  0
 54 62  1  0
 54 64  1  0
 55 61  1  0
 55 57  1  0
 56 62  1  0
 57 56  1  0
 58 57  2  0
 59 60  1  0
 59 53  2  0
 60 55  2  0
 61 54  1  0
 62 52  1  0
 64 66  2  0
 65 64  1  0
 67 65  1  0
 68 77  2  0
 68 73  1  0
 69 65  1  0
 69 73  1  0
 70 69  1  0
 71 72  1  0
 71 70  1  0
 72 68  1  0
 73 74  2  0
 74 75  1  0
 76 75  2  0
 77 76  1  0
 78 52  1  0
 78 79  1  0
 78 88  1  0
 79 82  1  0
 80 84  1  0
 80 79  1  0
 81 80  2  0
 84 83  1  0
 86 84  1  0
 86 87  1  0
 86 85  1  0
 88 91  1  1
 88 89  1  0
 90 88  1  0
M  ISO  4   9 100  17 100  50 101  51 101
M  END
>  <TORSDO>  (64) 
F 24

>  <SCORE>  (64) 
-12.167

>  <name>  (64) 
64

>  <ligand_id>  (64) 
64

>  <original_smiles>  (64) 
[H]c1c([H])c([H])c2c(c1[H])C([H])([H])C([H])([H])C([H])([H])C2([H])N([H])C(=O)C1([H])N(C(=O)C([H])(N([H])C(=O)C([H])(N([H])C([H])([H])[H])C([H])([H])[H])C(C([H])([H])[H])(C([H])([H])[H])C([H])([H])[H])C([H])([H])c2c([H])c(OC([H])([H])C([H])([H])C([H])([H])C([H])([H])N([H])C(=O)C([H])([H])C([H])([H])C([H])([H])C([H])([H])N([H])C(=O)N3C([H])([H])C([H])([H])C([H])([H])C([H])(n4nc(-c5c([H])c([H])c(Oc6c([H])c([H])c(F)c([H])c6F)c([H])c5[H])c(C(=O)N([H])[H])c4N([H])[H])C3([H])[H])c([H])c([H])c2C1([H])[H]

>  <smiles>  (64) 
[H]c1c([H])c([H])c2c(c1[H])C([H])([H])C([H])([H])C([H])([H])C2([H])N([H])C(=O)C1([H])N(C(=O)C([H])(N([H])C(=O)C([H])(N([H])C([H])([H])[H])C([H])([H])[H])C(C([H])([H])[H])(C([H])([H])[H])C([H])([H])[H])C([H])([H])c2c([H])c(OC([H])([H])C([H])([H])C([H])([H])C([H])([H])N([H])C(=O)C([H])([H])C([H])([H])C([H])([H])C([H])([H])N([H])C(=O)N3C([H])([H])C([H])([H])C([H])([H])C([H])(n4nc(-c5c([H])c([H])c(Oc6c([H])c([H])c(F)c([H])c6F)c([H])c5[H])c(C(=O)N([H])[H])c4N([H])[H])C3([H])[H])c([H])c([H])c2C1([H])[H]

$$$$
65:0:0
     RDKit          3D

 96105  0  0  1  0  0  0  0  0999 V2000
  -33.0490  -23.5120   20.6090 C   0  0  0  0  0  3  0  0  0  0  0  0
  -33.3580  -24.8810   20.7250 C   0  0  0  0  0  3  0  0  0  0  0  0
  -30.9620  -24.0850   19.4990 C   0  0  0  0  0  3  0  0  0  0  0  0
  -31.8450  -23.1080   19.9970 C   0  0  0  0  0  0  0  0  0  0  0  0
  -32.4700  -25.8630   20.2320 C   0  0  0  0  0  0  0  0  0  0  0  0
  -31.2600  -25.4600   19.6150 C   0  0  0  0  0  0  0  0  0  0  0  0
  -32.8460  -27.3290   20.3680 C   0  0  0  0  0  1  0  0  0  0  0  0
  -31.5040  -21.6350   19.8380 C   0  0  0  0  0  2  0  0  0  0  0  0
  -31.9140  -20.7700   21.0430 C   0  0  0  0  0  2  0  0  0  0  0  0
  -31.1520  -17.0770   22.0650 C   0  0  0  0  0  2  0  0  0  0  0  0
  -31.7090  -18.5000   22.1960 C   0  0  0  0  0  2  0  0  0  0  0  0
  -31.0680  -17.4680   19.5870 C   0  0  0  0  0  2  0  0  0  0  0  0
  -31.5240  -16.4910   20.6940 C   0  0  0  0  0  3  0  0  0  0  0  0
  -31.2730  -19.3730   21.0050 C   0  0  0  0  0  3  0  0  0  0  0  0
  -31.6780  -18.7360   19.7950 O   0  0  0  0  0  0  0  0  0  0  0  0
  -31.4340  -14.1360   19.8590 C   0  0  0  0  0  0  0  0  0  0  0  0
  -30.9530  -11.8970   18.9490 C   0  0  0  0  0  2  0  0  0  0  0  0
  -29.9550  -11.9960   17.7790 C   0  0  0  0  0  2  0  0  0  0  0  0
  -28.5040  -11.9800   18.2970 C   0  0  0  0  0  2  0  0  0  0  0  0
  -28.2720  -12.9960   19.4460 C   0  0  0  0  0  3  0  0  0  0  0  0
  -29.3670  -12.8560   20.5260 C   0  0  0  0  0  2  0  0  0  0  0  0
  -30.6790  -13.0090   19.8700 N   0  0  0  0  0  0  0  0  0  0  0  0
  -32.4860  -14.2420   19.2240 O   0  0  0  0  0  0  0  0  0  0  0  0
  -30.9280  -15.1650   20.5510 N   0  0  0  0  0  0  0  0  0  0  0  0
  -30.0570  -14.9940   21.0280 H   0  0  0  0  0  0  0  0  0  0  0  0
  -26.0410  -13.8430   20.4190 C   0  0  0  0  0  0  0  0  0  0  0  0
  -24.9070  -13.1830   20.8120 C   0  0  0  0  0  0  0  0  0  0  0  0
  -25.1710  -11.7930   20.6160 C   0  0  0  0  0  0  0  0  0  0  0  0
  -26.9330  -12.8590   20.0160 N   0  0  0  0  0  0  0  0  0  0  0  0
  -26.4150  -11.6160   20.1890 N   0  0  0  0  0  0  0  0  0  0  0  0
  -24.2950  -10.6240   20.7540 C   0  0  0  0  0  0  0  0  0  0  0  0
  -24.6010   -9.5720   21.6460 C   0  0  0  0  0  3  0  0  0  0  0  0
  -23.7330   -8.4670   21.7750 C   0  0  0  0  0  3  0  0  0  0  0  0
  -22.5440   -8.4050   21.0110 C   0  0  0  0  0  0  0  0  0  0  0  0
  -22.2540   -9.4450   20.1100 C   0  0  0  0  0  3  0  0  0  0  0  0
  -23.1210  -10.5420   19.9780 C   0  0  0  0  0  3  0  0  0  0  0  0
  -21.6530   -7.3600   21.0520 O   0  0  0  0  0  0  0  0  0  0  0  0
  -21.4130   -6.6640   22.2100 C   0  0  0  0  0  0  0  0  0  0  0  0
  -20.8870   -7.2920   23.3600 C   0  0  0  0  0  3  0  0  0  0  0  0
  -20.5900   -6.5260   24.5050 C   0  0  0  0  0  3  0  0  0  0  0  0
  -20.8090   -5.1350   24.5010 C   0  0  0  0  0  0  0  0  0  0  0  0
  -21.3270   -4.5090   23.3530 C   0  0  0  0  0  3  0  0  0  0  0  0
  -21.6260   -5.2710   22.2110 C   0  0  0  0  0  0  0  0  0  0  0  0
  -22.1060   -4.6590   21.1020 F   0  0  0  0  0  0  0  0  0  0  0  0
  -20.5150   -4.3990   25.5970 F   0  0  0  0  0  0  0  0  0  0  0  0
  -23.6150  -13.8080   21.2520 C   0  0  0  0  0  0  0  0  0  0  0  0
  -22.8790  -13.1390   22.1320 N   0  0  0  0  0  0  0  0  0  0  0  0
  -23.2740  -14.9210   20.8530 O   0  0  0  0  0  0  0  0  0  0  0  0
  -23.1700  -12.2360   22.4760 H   0  0  0  0  0  0  0  0  0  0  0  0
  -22.0140  -13.5360   22.4680 H   0  0  0  0  0  0  0  0  0  0  0  0
  -26.3830  -15.1910   20.3520 N   0  0  0  0  0  0  0  0  0  0  0  0
  -25.7300  -15.9290   20.5910 H   0  0  0  0  0  0  0  0  0  0  0  0
  -27.2640  -15.5400   19.9960 H   0  0  0  0  0  0  0  0  0  0  0  0
  -30.2490  -26.4540   19.0620 C   0  0  0  0  0  2  0  0  0  0  0  0
  -29.0220  -26.6200   19.9730 C   0  0  0  0  0  2  0  0  0  0  0  0
  -27.8530  -26.5220   19.1630 O   0  0  0  0  0  0  0  0  0  0  0  0
  -24.6490  -31.5750   23.0800 C   0  0  0  0  0  0  0  0  0  0  0  0
  -26.7710  -27.3280   19.4220 C   0  0  0  0  0  0  0  0  0  0  0  0
  -23.2180  -30.3820   21.4460 C   0  0  0  0  0  3  0  0  0  0  0  0
  -24.4500  -28.9010   19.7760 C   0  0  0  0  0  0  0  0  0  0  0  0
  -25.7220  -30.6460   21.0380 C   0  0  0  0  0  2  0  0  0  0  0  0
  -25.6760  -29.3310   20.2950 C   0  0  0  0  0  0  0  0  0  0  0  0
  -26.8380  -28.5560   20.1190 C   0  0  0  0  0  3  0  0  0  0  0  0
  -25.5290  -26.9070   18.9000 C   0  0  0  0  0  3  0  0  0  0  0  0
  -24.3670  -27.6850   19.0760 C   0  0  0  0  0  3  0  0  0  0  0  0
  -23.2630  -29.8080   20.0030 C   0  0  0  0  0  2  0  0  0  0  0  0
  -24.5540  -30.8750   21.9140 N   0  0  0  0  0  0  0  0  0  0  0  0
  -23.6400  -31.8520   23.7430 O   0  0  0  0  0  0  0  0  0  0  0  0
  -22.6010  -29.3140   22.3780 C   0  0  0  0  0  0  0  0  0  0  0  0
  -21.2690  -29.1690   22.3120 N   0  0  0  0  0  0  0  0  0  0  0  0
  -23.3130  -28.6250   23.1120 O   0  0  0  0  0  0  0  0  0  0  0  0
  -20.7570  -29.7770   21.6880 H   0  0  0  0  0  0  0  0  0  0  0  0
  -17.9070  -27.9680   22.8570 C   0  0  0  0  0  0  0  0  0  0  0  0
  -20.4720  -28.2020   23.0650 C   0  0  0  0  0  3  0  0  0  0  0  0
  -20.5510  -26.7960   22.4260 C   0  0  0  0  0  2  0  0  0  0  0  0
  -19.4180  -26.5230   21.4310 C   0  0  0  0  0  2  0  0  0  0  0  0
  -18.0570  -26.6460   22.1210 C   0  0  0  0  0  2  0  0  0  0  0  0
  -19.0420  -28.7050   23.2860 C   0  0  0  0  0  0  0  0  0  0  0  0
  -18.8490  -29.9450   23.9350 C   0  0  0  0  0  3  0  0  0  0  0  0
  -17.5520  -30.4470   24.1560 C   0  0  0  0  0  3  0  0  0  0  0  0
  -16.4320  -29.7050   23.7430 C   0  0  0  0  0  3  0  0  0  0  0  0
  -16.6100  -28.4670   23.1000 C   0  0  0  0  0  3  0  0  0  0  0  0
  -26.0230  -32.0790   23.6230 C   0  0  0  0  0  3  0  0  0  0  0  0
  -25.8320  -33.4570   24.0950 N   0  0  0  0  0  0  0  0  0  0  0  0
  -26.1850  -34.5510   23.4050 C   0  0  0  0  0  0  0  0  0  0  0  0
  -26.7780  -34.5020   22.3240 O   0  0  0  0  0  0  0  0  0  0  0  0
  -25.3020  -33.5750   24.9450 H   0  0  0  0  0  0  0  0  0  0  0  0
  -24.5650  -36.4710   23.3180 C   0  0  0  0  0  1  0  0  0  0  0  0
  -25.8190  -35.9190   24.0120 C   0  0  0  0  0  3  0  0  0  0  0  0
  -28.0450  -36.5950   24.7970 C   0  0  0  0  0  1  0  0  0  0  0  0
  -26.9130  -36.9110   23.9300 N   0  0  0  0  0  0  0  0  0  0  0  0
  -26.5770  -37.8380   24.1750 H   0  0  0  0  0  0  0  0  0  0  0  0
  -26.6110  -31.1690   24.7700 C   0  0  1  0  0  0  0  0  0  0  0  0
  -25.6150  -30.9020   25.9220 C   0  0  0  0  0  1  0  0  0  0  0  0
  -27.0580  -29.8020   24.2030 C   0  0  0  0  0  1  0  0  0  0  0  0
  -27.8700  -31.8350   25.3750 C   0  0  0  0  0  1  0  0  0  0  0  0
  1  2  1  0
  3  6  2  0
  3  4  1  0
  4  1  2  0
  5  7  1  0
  5  2  2  0
  6  5  1  0
  8  4  1  0
  8  9  1  0
 10 11  1  0
 12 15  1  0
 12 13  1  0
 13 24  1  0
 13 10  1  0
 14  9  1  0
 14 11  1  0
 15 14  1  0
 16 22  1  0
 16 24  1  0
 17 22  1  0
 18 19  1  0
 18 17  1  0
 20 19  1  0
 20 29  1  0
 20 21  1  0
 22 21  1  0
 23 16  2  0
 24 25  1  0
 26 27  2  0
 27 46  1  0
 28 31  1  0
 28 27  1  0
 29 30  1  0
 29 26  1  0
 30 28  2  0
 31 32  1  0
 32 33  2  0
 34 37  1  0
 34 33  1  0
 35 34  2  0
 36 35  1  0
 36 31  2  0
 37 38  1  0
 38 43  2  0
 38 39  1  0
 39 40  2  0
 41 40  1  0
 41 45  1  0
 42 41  2  0
 43 42  1  0
 44 43  1  0
 46 47  1  0
 47 50  1  0
 47 49  1  0
 48 46  2  0
 51 26  1  0
 51 52  1  0
 53 51  1  0
 54  6  1  0
 54 55  1  0
 56 58  1  0
 56 55  1  0
 57 68  2  0
 58 63  1  0
 59 67  1  0
 59 69  1  0
 60 66  1  0
 60 62  1  0
 61 67  1  0
 62 61  1  0
 63 62  2  0
 64 65  1  0
 64 58  2  0
 65 60  2  0
 66 59  1  0
 67 57  1  0
 69 71  2  0
 70 69  1  0
 72 70  1  0
 73 82  2  0
 73 78  1  0
 74 70  1  0
 74 78  1  0
 75 74  1  0
 76 77  1  0
 76 75  1  0
 77 73  1  0
 78 79  2  0
 79 80  1  0
 81 80  2  0
 82 81  1  0
 83 57  1  0
 83 84  1  0
 83 93  1  0
 84 87  1  0
 85 89  1  0
 85 84  1  0
 86 85  2  0
 89 88  1  0
 91 89  1  0
 91 92  1  0
 91 90  1  0
 93 96  1  1
 93 94  1  0
 95 93  1  0
M  ISO  4  16 100  24 100  55 101  56 101
M  END
>  <TORSDO>  (65) 
F 21

>  <SCORE>  (65) 
-10.810

>  <name>  (65) 
65

>  <ligand_id>  (65) 
65

>  <original_smiles>  (65) 
[H]c1c([H])c([H])c2c(c1[H])C([H])([H])C([H])([H])C([H])([H])C2([H])N([H])C(=O)C1([H])N(C(=O)C([H])(N([H])C(=O)C([H])(N([H])C([H])([H])[H])C([H])([H])[H])C(C([H])([H])[H])(C([H])([H])[H])C([H])([H])[H])C([H])([H])c2c([H])c(OC([H])([H])C([H])([H])c3c([H])c(C([H])([H])C([H])([H])C4([H])OC([H])([H])C([H])(N([H])C(=O)N5C([H])([H])C([H])([H])C([H])([H])C([H])(n6nc(-c7c([H])c([H])c(Oc8c([H])c([H])c(F)c([H])c8F)c([H])c7[H])c(C(=O)N([H])[H])c6N([H])[H])C5([H])[H])C([H])([H])C4([H])[H])c([H])c([H])c3C([H])([H])[H])c([H])c([H])c2C1([H])[H]

>  <smiles>  (65) 
[H]c1c([H])c([H])c2c(c1[H])C([H])([H])C([H])([H])C([H])([H])C2([H])N([H])C(=O)C1([H])N(C(=O)C([H])(N([H])C(=O)C([H])(N([H])C([H])([H])[H])C([H])([H])[H])C(C([H])([H])[H])(C([H])([H])[H])C([H])([H])[H])C([H])([H])c2c([H])c(OC([H])([H])C([H])([H])c3c([H])c(C([H])([H])C([H])([H])C4([H])OC([H])([H])C([H])(N([H])C(=O)N5C([H])([H])C([H])([H])C([H])([H])C([H])(n6nc(-c7c([H])c([H])c(Oc8c([H])c([H])c(F)c([H])c8F)c([H])c7[H])c(C(=O)N([H])[H])c6N([H])[H])C5([H])[H])C([H])([H])C4([H])[H])c([H])c([H])c3C([H])([H])[H])c([H])c([H])c2C1([H])[H]

$$$$
66:0:0
     RDKit          3D

 95104  0  0  1  0  0  0  0  0999 V2000
  -29.9740  -20.8100   23.6790 C   0  0  0  0  0  3  0  0  0  0  0  0
  -29.6580  -20.9480   21.2700 C   0  0  0  0  0  3  0  0  0  0  0  0
  -30.2180  -22.1950   23.7240 C   0  0  0  0  0  3  0  0  0  0  0  0
  -29.9080  -22.3350   21.3140 C   0  0  0  0  0  3  0  0  0  0  0  0
  -29.6860  -20.1790   22.4520 C   0  0  0  0  0  0  0  0  0  0  0  0
  -30.1810  -22.9730   22.5470 C   0  0  0  0  0  0  0  0  0  0  0  0
  -29.3920  -18.6860   22.4170 C   0  0  0  0  0  2  0  0  0  0  0  0
  -31.9180  -14.5170   19.4650 C   0  0  0  0  0  0  0  0  0  0  0  0
  -31.4450  -12.2720   18.5510 C   0  0  0  0  0  2  0  0  0  0  0  0
  -30.3320  -12.3330   17.4880 C   0  0  0  0  0  2  0  0  0  0  0  0
  -28.9440  -12.2180   18.1470 C   0  0  0  0  0  2  0  0  0  0  0  0
  -28.7740  -13.1920   19.3420 C   0  0  0  0  0  3  0  0  0  0  0  0
  -29.9810  -13.1060   20.2970 C   0  0  0  0  0  2  0  0  0  0  0  0
  -31.2130  -13.3520   19.5250 N   0  0  0  0  0  0  0  0  0  0  0  0
  -32.8390  -14.6900   18.6560 O   0  0  0  0  0  0  0  0  0  0  0  0
  -30.4050  -17.7940   20.2410 C   0  0  0  0  0  2  0  0  0  0  0  0
  -30.5820  -16.4230   22.3470 C   0  0  0  0  0  2  0  0  0  0  0  0
  -31.5020  -16.9060   19.6300 C   0  0  0  0  0  2  0  0  0  0  0  0
  -31.6790  -15.5840   21.6570 C   0  0  0  0  0  2  0  0  0  0  0  0
  -30.5240  -17.8540   21.7760 C   0  0  0  0  0  3  0  0  0  0  0  0
  -31.4560  -15.5530   20.2040 N   0  0  0  0  0  0  0  0  0  0  0  0
  -26.6620  -13.8680   20.6530 C   0  0  0  0  0  0  0  0  0  0  0  0
  -25.5960  -13.1390   21.1060 C   0  0  0  0  0  0  0  0  0  0  0  0
  -25.8600  -11.7840   20.7410 C   0  0  0  0  0  0  0  0  0  0  0  0
  -27.5160  -12.9570   20.0490 N   0  0  0  0  0  0  0  0  0  0  0  0
  -27.0450  -11.6880   20.1540 N   0  0  0  0  0  0  0  0  0  0  0  0
  -25.0260  -10.5810   20.8640 C   0  0  0  0  0  0  0  0  0  0  0  0
  -25.3800   -9.5220   21.7290 C   0  0  0  0  0  3  0  0  0  0  0  0
  -24.5540   -8.3840   21.8430 C   0  0  0  0  0  3  0  0  0  0  0  0
  -23.3580   -8.2960   21.0920 C   0  0  0  0  0  0  0  0  0  0  0  0
  -23.0220   -9.3430   20.2150 C   0  0  0  0  0  3  0  0  0  0  0  0
  -23.8480  -10.4740   20.0980 C   0  0  0  0  0  3  0  0  0  0  0  0
  -22.5070   -7.2180   21.1180 O   0  0  0  0  0  0  0  0  0  0  0  0
  -22.1090   -6.6450   22.2990 C   0  0  0  0  0  0  0  0  0  0  0  0
  -21.4760   -7.3940   23.3150 C   0  0  0  0  0  3  0  0  0  0  0  0
  -21.0210   -6.7500   24.4830 C   0  0  0  0  0  3  0  0  0  0  0  0
  -21.1870   -5.3610   24.6340 C   0  0  0  0  0  0  0  0  0  0  0  0
  -21.8110   -4.6120   23.6210 C   0  0  0  0  0  3  0  0  0  0  0  0
  -22.2680   -5.2530   22.4550 C   0  0  0  0  0  0  0  0  0  0  0  0
  -22.8500   -4.5240   21.4720 F   0  0  0  0  0  0  0  0  0  0  0  0
  -20.7430   -4.7420   25.7520 F   0  0  0  0  0  0  0  0  0  0  0  0
  -24.3550  -13.6790   21.7580 C   0  0  0  0  0  0  0  0  0  0  0  0
  -23.7700  -12.9240   22.6810 N   0  0  0  0  0  0  0  0  0  0  0  0
  -23.9250  -14.7990   21.4860 O   0  0  0  0  0  0  0  0  0  0  0  0
  -24.1350  -12.0130   22.9190 H   0  0  0  0  0  0  0  0  0  0  0  0
  -22.9450  -13.2620   23.1570 H   0  0  0  0  0  0  0  0  0  0  0  0
  -26.9700  -15.2250   20.6850 N   0  0  0  0  0  0  0  0  0  0  0  0
  -26.3390  -15.9150   21.0770 H   0  0  0  0  0  0  0  0  0  0  0  0
  -27.8040  -15.6320   20.2820 H   0  0  0  0  0  0  0  0  0  0  0  0
  -30.4210  -24.4780   22.6720 C   0  0  0  0  0  2  0  0  0  0  0  0
  -29.3620  -25.4060   22.0360 C   0  0  0  0  0  2  0  0  0  0  0  0
  -29.5200  -25.6250   20.5280 C   0  0  0  0  0  0  0  0  0  0  0  0
  -30.6340  -25.7020   19.9980 O   0  0  0  0  0  0  0  0  0  0  0  0
  -28.2420  -25.7890   19.7030 C   0  0  0  0  0  2  0  0  0  0  0  0
  -28.2170  -27.0980   19.1330 O   0  0  0  0  0  0  0  0  0  0  0  0
  -25.3330  -31.8160   23.5910 C   0  0  0  0  0  0  0  0  0  0  0  0
  -27.1150  -27.8540   19.4500 C   0  0  0  0  0  0  0  0  0  0  0  0
  -23.7820  -30.7970   21.9540 C   0  0  0  0  0  3  0  0  0  0  0  0
  -24.8770  -29.4480   20.0870 C   0  0  0  0  0  0  0  0  0  0  0  0
  -26.2710  -31.0440   21.4170 C   0  0  0  0  0  2  0  0  0  0  0  0
  -26.1470  -29.8030   20.5590 C   0  0  0  0  0  0  0  0  0  0  0  0
  -27.2710  -29.0140   20.2360 C   0  0  0  0  0  3  0  0  0  0  0  0
  -25.8310  -27.5080   18.9750 C   0  0  0  0  0  3  0  0  0  0  0  0
  -24.7110  -28.2990   19.2940 C   0  0  0  0  0  3  0  0  0  0  0  0
  -23.7280  -30.3540   20.4680 C   0  0  0  0  0  2  0  0  0  0  0  0
  -25.1560  -31.2210   22.3770 N   0  0  0  0  0  0  0  0  0  0  0  0
  -24.3700  -32.0530   24.3330 O   0  0  0  0  0  0  0  0  0  0  0  0
  -23.1960  -29.6630   22.8250 C   0  0  0  0  0  0  0  0  0  0  0  0
  -21.8860  -29.4110   22.6740 N   0  0  0  0  0  0  0  0  0  0  0  0
  -23.9170  -29.0160   23.5910 O   0  0  0  0  0  0  0  0  0  0  0  0
  -21.3640  -29.9910   22.0330 H   0  0  0  0  0  0  0  0  0  0  0  0
  -18.6910  -27.7300   22.7750 C   0  0  0  0  0  0  0  0  0  0  0  0
  -21.1260  -28.3660   23.3600 C   0  0  0  0  0  3  0  0  0  0  0  0
  -21.5120  -26.9630   22.8370 C   0  0  0  0  0  2  0  0  0  0  0  0
  -20.6080  -26.4740   21.7010 C   0  0  0  0  0  2  0  0  0  0  0  0
  -19.1490  -26.4170   22.1620 C   0  0  0  0  0  2  0  0  0  0  0  0
  -19.6210  -28.6520   23.3220 C   0  0  0  0  0  0  0  0  0  0  0  0
  -19.1470  -29.8730   23.8470 C   0  0  0  0  0  3  0  0  0  0  0  0
  -17.7720  -30.1780   23.8330 C   0  0  0  0  0  3  0  0  0  0  0  0
  -16.8540  -29.2540   23.3040 C   0  0  0  0  0  3  0  0  0  0  0  0
  -17.3130  -28.0320   22.7810 C   0  0  0  0  0  3  0  0  0  0  0  0
  -26.7460  -32.2510   24.0920 C   0  0  0  0  0  3  0  0  0  0  0  0
  -26.6710  -33.6720   24.4500 N   0  0  0  0  0  0  0  0  0  0  0  0
  -27.1440  -34.6730   23.6940 C   0  0  0  0  0  0  0  0  0  0  0  0
  -27.7630  -34.4820   22.6430 O   0  0  0  0  0  0  0  0  0  0  0  0
  -26.1300  -33.9050   25.2700 H   0  0  0  0  0  0  0  0  0  0  0  0
  -25.7160  -36.7200   23.4010 C   0  0  0  0  0  1  0  0  0  0  0  0
  -26.8920  -36.1110   24.1810 C   0  0  0  0  0  3  0  0  0  0  0  0
  -29.1640  -36.6180   24.9640 C   0  0  0  0  0  1  0  0  0  0  0  0
  -28.0760  -36.9890   24.0620 N   0  0  0  0  0  0  0  0  0  0  0  0
  -27.8280  -37.9580   24.2470 H   0  0  0  0  0  0  0  0  0  0  0  0
  -27.2630  -31.3930   25.3120 C   0  0  1  0  0  0  0  0  0  0  0  0
  -26.2530  -31.3000   26.4790 C   0  0  0  0  0  1  0  0  0  0  0  0
  -27.5990  -29.9530   24.8610 C   0  0  0  0  0  1  0  0  0  0  0  0
  -28.5740  -32.0030   25.8630 C   0  0  0  0  0  1  0  0  0  0  0  0
  1  3  1  0
  2  4  2  0
  2  5  1  0
  4  6  1  0
  5  1  2  0
  6 50  1  0
  6  3  2  0
  7  5  1  0
  8 14  1  0
  8 21  1  0
  9 14  1  0
 10 11  1  0
 10  9  1  0
 12 11  1  0
 12 25  1  0
 12 13  1  0
 14 13  1  0
 15  8  2  0
 16 20  1  0
 18 21  1  0
 18 16  1  0
 19 17  1  0
 20 17  1  0
 20  7  1  0
 21 19  1  0
 22 47  1  0
 22 23  2  0
 23 42  1  0
 24 27  1  0
 24 23  1  0
 25 26  1  0
 25 22  1  0
 26 24  2  0
 27 28  1  0
 28 29  2  0
 30 33  1  0
 30 29  1  0
 31 30  2  0
 32 31  1  0
 32 27  2  0
 33 34  1  0
 34 39  2  0
 34 35  1  0
 35 36  2  0
 36 37  1  0
 37 41  1  0
 38 37  2  0
 39 38  1  0
 40 39  1  0
 42 43  1  0
 43 45  1  0
 43 46  1  0
 44 42  2  0
 47 48  1  0
 49 47  1  0
 51 50  1  0
 52 51  1  0
 53 52  2  0
 54 52  1  0
 55 57  1  0
 55 54  1  0
 56 67  2  0
 57 62  1  0
 58 66  1  0
 58 68  1  0
 59 65  1  0
 59 61  1  0
 60 66  1  0
 61 60  1  0
 62 61  2  0
 63 64  1  0
 63 57  2  0
 64 59  2  0
 65 58  1  0
 66 56  1  0
 68 70  2  0
 69 68  1  0
 71 69  1  0
 72 81  2  0
 72 77  1  0
 73 69  1  0
 74 73  1  0
 75 76  1  0
 75 74  1  0
 76 72  1  0
 77 73  1  0
 77 78  2  0
 79 78  1  0
 80 79  2  0
 81 80  1  0
 82 56  1  0
 82 83  1  0
 82 92  1  0
 83 86  1  0
 84 88  1  0
 84 83  1  0
 85 84  2  0
 88 87  1  0
 90 88  1  0
 90 91  1  0
 90 89  1  0
 92 95  1  1
 92 93  1  0
 94 92  1  0
M  ISO  4   8 100  21 100  54 101  55 101
M  END
>  <TORSDO>  (66) 
F 21

>  <SCORE>  (66) 
-6.055

>  <name>  (66) 
66

>  <ligand_id>  (66) 
66

>  <original_smiles>  (66) 
[H]c1c([H])c([H])c2c(c1[H])C([H])([H])C([H])([H])C([H])([H])C2([H])N([H])C(=O)C1([H])N(C(=O)C([H])(N([H])C(=O)C([H])(N([H])C([H])([H])[H])C([H])([H])[H])C(C([H])([H])[H])(C([H])([H])[H])C([H])([H])[H])C([H])([H])c2c([H])c(OC([H])([H])C(=O)C([H])([H])C([H])([H])c3c([H])c([H])c(C([H])([H])C4([H])C([H])([H])C([H])([H])N(C(=O)N5C([H])([H])C([H])([H])C([H])([H])C([H])(n6nc(-c7c([H])c([H])c(Oc8c([H])c([H])c(F)c([H])c8F)c([H])c7[H])c(C(=O)N([H])[H])c6N([H])[H])C5([H])[H])C([H])([H])C4([H])[H])c([H])c3[H])c([H])c([H])c2C1([H])[H]

>  <smiles>  (66) 
[H]c1c([H])c([H])c2c(c1[H])C([H])([H])C([H])([H])C([H])([H])C2([H])N([H])C(=O)C1([H])N(C(=O)C([H])(N([H])C(=O)C([H])(N([H])C([H])([H])[H])C([H])([H])[H])C(C([H])([H])[H])(C([H])([H])[H])C([H])([H])[H])C([H])([H])c2c([H])c(OC([H])([H])C(=O)C([H])([H])C([H])([H])c3c([H])c([H])c(C([H])([H])C4([H])C([H])([H])C([H])([H])N(C(=O)N5C([H])([H])C([H])([H])C([H])([H])C([H])(n6nc(-c7c([H])c([H])c(Oc8c([H])c([H])c(F)c([H])c8F)c([H])c7[H])c(C(=O)N([H])[H])c6N([H])[H])C5([H])[H])C([H])([H])C4([H])[H])c([H])c3[H])c([H])c([H])c2C1([H])[H]

$$$$
67:0:0
     RDKit          3D

 93100  0  0  1  0  0  0  0  0999 V2000
  -33.1860  -24.3530   20.9990 C   0  0  0  0  0  1  0  0  0  0  0  0
  -32.3520  -24.0510   19.8070 N   0  0  1  0  0  4  0  0  0  0  0  0
  -32.5220  -24.8190   19.1730 H   0  0  0  0  0  0  0  0  0  0  0  0
  -32.8350  -22.8110   19.1230 C   0  0  0  0  0  2  0  0  0  0  0  0
  -32.2800  -22.5970   17.6860 C   0  0  0  0  0  2  0  0  0  0  0  0
  -31.0930  -21.6020   17.4920 C   0  0  0  0  0  2  0  0  0  0  0  0
  -31.4120  -20.1510   17.4990 N   0  0  0  0  0  4  0  0  0  0  0  0
  -30.6700  -19.7280   16.9630 H   0  0  0  0  0  0  0  0  0  0  0  0
  -32.2630  -19.9620   16.9930 H   0  0  0  0  0  0  0  0  0  0  0  0
  -31.4090  -19.4860   18.8270 C   0  0  0  0  0  2  0  0  0  0  0  0
  -30.9340  -17.9950   18.7860 C   0  0  0  0  0  2  0  0  0  0  0  0
  -30.9550  -17.3310   20.2100 C   0  0  0  0  0  2  0  0  0  0  0  0
  -30.0500  -16.0700   20.5530 C   0  0  0  0  0  2  0  0  0  0  0  0
  -30.6670  -14.6540   20.2380 C   0  0  0  0  0  0  0  0  0  0  0  0
  -30.3160  -12.3730   19.3510 C   0  0  0  0  0  2  0  0  0  0  0  0
  -29.4050  -12.5620   18.1210 C   0  0  0  0  0  2  0  0  0  0  0  0
  -27.9190  -12.4810   18.5340 C   0  0  0  0  0  2  0  0  0  0  0  0
  -27.5890  -13.3240   19.8010 C   0  0  0  0  0  3  0  0  0  0  0  0
  -28.6710  -13.2040   20.8950 C   0  0  0  0  0  2  0  0  0  0  0  0
  -29.9770  -13.4680   20.2770 N   0  0  0  0  0  0  0  0  0  0  0  0
  -31.8220  -14.6620   19.8220 O   0  0  0  0  0  0  0  0  0  0  0  0
  -25.2060  -13.9020   20.5670 C   0  0  0  0  0  0  0  0  0  0  0  0
  -24.1440  -13.1190   20.9480 C   0  0  0  0  0  0  0  0  0  0  0  0
  -24.6130  -11.7740   20.8970 C   0  0  0  0  0  0  0  0  0  0  0  0
  -26.2510  -13.0290   20.3130 N   0  0  0  0  0  0  0  0  0  0  0  0
  -25.8970  -11.7420   20.5680 N   0  0  0  0  0  0  0  0  0  0  0  0
  -23.8870  -10.5080   21.0890 C   0  0  0  0  0  0  0  0  0  0  0  0
  -24.3450   -9.5160   21.9830 C   0  0  0  0  0  3  0  0  0  0  0  0
  -23.6160   -8.3190   22.1580 C   0  0  0  0  0  3  0  0  0  0  0  0
  -22.4130   -8.1070   21.4420 C   0  0  0  0  0  0  0  0  0  0  0  0
  -21.9730   -9.0910   20.5380 C   0  0  0  0  0  3  0  0  0  0  0  0
  -22.7050  -10.2760   20.3600 C   0  0  0  0  0  3  0  0  0  0  0  0
  -21.6520   -6.9660   21.5330 O   0  0  0  0  0  0  0  0  0  0  0  0
  -21.6560   -6.1860   22.6630 C   0  0  0  0  0  0  0  0  0  0  0  0
  -21.3300   -6.7090   23.9330 C   0  0  0  0  0  3  0  0  0  0  0  0
  -21.2820   -5.8540   25.0540 C   0  0  0  0  0  3  0  0  0  0  0  0
  -21.5540   -4.4820   24.9060 C   0  0  0  0  0  0  0  0  0  0  0  0
  -21.8740   -3.9580   23.6410 C   0  0  0  0  0  3  0  0  0  0  0  0
  -21.9250   -4.8090   22.5220 C   0  0  0  0  0  0  0  0  0  0  0  0
  -22.2140   -4.2960   21.3010 F   0  0  0  0  0  0  0  0  0  0  0  0
  -21.5000   -3.6600   25.9800 F   0  0  0  0  0  0  0  0  0  0  0  0
  -22.7550  -13.5990   21.2440 C   0  0  0  0  0  0  0  0  0  0  0  0
  -22.0370  -12.9040   22.1270 N   0  0  0  0  0  0  0  0  0  0  0  0
  -22.3110  -14.6270   20.7380 O   0  0  0  0  0  0  0  0  0  0  0  0
  -22.4020  -12.0800   22.5810 H   0  0  0  0  0  0  0  0  0  0  0  0
  -21.1090  -13.2260   22.3690 H   0  0  0  0  0  0  0  0  0  0  0  0
  -25.3520  -15.2720   20.3980 N   0  0  0  0  0  0  0  0  0  0  0  0
  -24.5810  -15.9120   20.5620 H   0  0  0  0  0  0  0  0  0  0  0  0
  -26.1910  -15.7350   20.0680 H   0  0  0  0  0  0  0  0  0  0  0  0
  -30.8880  -24.0380   20.0920 C   0  0  0  0  0  2  0  0  0  0  0  0
  -30.2840  -25.4530   20.2090 C   0  0  0  0  0  2  0  0  0  0  0  0
  -28.7320  -25.5300   20.1600 C   0  0  0  0  0  2  0  0  0  0  0  0
  -28.4820  -26.9270   20.1020 O   0  0  0  0  0  0  0  0  0  0  0  0
  -24.5750  -31.8850   23.2170 C   0  0  0  0  0  0  0  0  0  0  0  0
  -27.2200  -27.4770   20.1450 C   0  0  0  0  0  0  0  0  0  0  0  0
  -23.3420  -30.4850   21.5870 C   0  0  0  0  0  3  0  0  0  0  0  0
  -24.7810  -28.9200   20.1650 C   0  0  0  0  0  0  0  0  0  0  0  0
  -25.8530  -30.8550   21.3450 C   0  0  0  0  0  2  0  0  0  0  0  0
  -25.9310  -29.4750   20.7310 C   0  0  0  0  0  0  0  0  0  0  0  0
  -27.1430  -28.7630   20.7080 C   0  0  0  0  0  3  0  0  0  0  0  0
  -26.0520  -26.9040   19.5930 C   0  0  0  0  0  3  0  0  0  0  0  0
  -24.8330  -27.6270   19.5980 C   0  0  0  0  0  3  0  0  0  0  0  0
  -23.5290  -29.7790   20.2110 C   0  0  0  0  0  2  0  0  0  0  0  0
  -24.6080  -31.0930   22.1080 N   0  0  0  0  0  0  0  0  0  0  0  0
  -23.5030  -32.1580   23.7730 O   0  0  0  0  0  0  0  0  0  0  0  0
  -22.7040  -29.4740   22.5640 C   0  0  0  0  0  0  0  0  0  0  0  0
  -21.3810  -29.2850   22.4390 N   0  0  0  0  0  0  0  0  0  0  0  0
  -23.3940  -28.8580   23.3780 O   0  0  0  0  0  0  0  0  0  0  0  0
  -20.8880  -29.8310   21.7440 H   0  0  0  0  0  0  0  0  0  0  0  0
  -18.0230  -28.0730   22.9450 C   0  0  0  0  0  0  0  0  0  0  0  0
  -20.5750  -28.3530   23.2220 C   0  0  0  0  0  3  0  0  0  0  0  0
  -20.6930  -26.9190   22.6650 C   0  0  0  0  0  2  0  0  0  0  0  0
  -19.5980  -26.5730   21.6490 C   0  0  0  0  0  2  0  0  0  0  0  0
  -18.2130  -26.7150   22.2850 C   0  0  0  0  0  2  0  0  0  0  0  0
  -19.1340  -28.8460   23.3700 C   0  0  0  0  0  0  0  0  0  0  0  0
  -18.9110  -30.1130   23.9510 C   0  0  0  0  0  3  0  0  0  0  0  0
  -17.6050  -30.6120   24.1080 C   0  0  0  0  0  3  0  0  0  0  0  0
  -16.5060  -29.8390   23.6950 C   0  0  0  0  0  3  0  0  0  0  0  0
  -16.7150  -28.5700   23.1240 C   0  0  0  0  0  3  0  0  0  0  0  0
  -25.8730  -32.5130   23.8200 C   0  0  0  0  0  3  0  0  0  0  0  0
  -25.5710  -33.9070   24.1640 N   0  0  0  0  0  0  0  0  0  0  0  0
  -25.8860  -34.9660   23.4070 C   0  0  0  0  0  0  0  0  0  0  0  0
  -26.5430  -34.8730   22.3670 O   0  0  0  0  0  0  0  0  0  0  0  0
  -24.9920  -34.0540   24.9760 H   0  0  0  0  0  0  0  0  0  0  0  0
  -24.1450  -36.7560   23.0900 C   0  0  0  0  0  1  0  0  0  0  0  0
  -25.3970  -36.3480   23.8820 C   0  0  0  0  0  3  0  0  0  0  0  0
  -27.5380  -37.2410   24.6880 C   0  0  0  0  0  1  0  0  0  0  0  0
  -26.4200  -37.4100   23.7620 N   0  0  0  0  0  0  0  0  0  0  0  0
  -26.0070  -38.3260   23.9210 H   0  0  0  0  0  0  0  0  0  0  0  0
  -26.4140  -31.7350   25.0830 C   0  0  1  0  0  0  0  0  0  0  0  0
  -25.3480  -31.4940   26.1750 C   0  0  0  0  0  1  0  0  0  0  0  0
  -26.9860  -30.3590   24.6630 C   0  0  0  0  0  1  0  0  0  0  0  0
  -27.5650  -32.5320   25.7400 C   0  0  0  0  0  1  0  0  0  0  0  0
  2 50  1  0
  2  1  1  0
  2  3  1  6
  4  2  1  0
  5  4  1  0
  6  7  1  0
  6  5  1  0
  7 10  1  0
  8  7  1  0
  9  7  1  0
 11 10  1  0
 11 12  1  0
 12 13  1  0
 14 20  1  0
 14 13  1  0
 15 20  1  0
 16 17  1  0
 16 15  1  0
 18 17  1  0
 18 25  1  0
 18 19  1  0
 20 19  1  0
 21 14  2  0
 22 23  2  0
 23 42  1  0
 24 23  1  0
 24 27  1  0
 25 22  1  0
 25 26  1  0
 26 24  2  0
 27 28  1  0
 28 29  2  0
 30 33  1  0
 30 29  1  0
 31 30  2  0
 32 31  1  0
 32 27  2  0
 33 34  1  0
 34 35  1  0
 35 36  2  0
 37 36  1  0
 37 41  1  0
 38 37  2  0
 39 34  2  0
 39 38  1  0
 40 39  1  0
 42 43  1  0
 43 46  1  0
 43 45  1  0
 44 42  2  0
 47 48  1  0
 47 22  1  0
 49 47  1  0
 50 51  1  0
 52 51  1  0
 53 55  1  0
 53 52  1  0
 54 65  2  0
 55 60  1  0
 56 64  1  0
 56 66  1  0
 57 63  1  0
 57 59  1  0
 58 64  1  0
 59 58  1  0
 60 59  2  0
 61 62  1  0
 61 55  2  0
 62 57  2  0
 63 56  1  0
 64 54  1  0
 66 68  2  0
 67 66  1  0
 69 67  1  0
 70 79  2  0
 70 75  1  0
 71 67  1  0
 71 75  1  0
 72 71  1  0
 73 74  1  0
 73 72  1  0
 74 70  1  0
 75 76  2  0
 76 77  1  0
 78 77  2  0
 79 78  1  0
 80 54  1  0
 80 81  1  0
 80 90  1  0
 81 84  1  0
 82 86  1  0
 82 81  1  0
 83 82  2  0
 86 85  1  0
 88 86  1  0
 88 89  1  0
 88 87  1  0
 90 93  1  1
 90 91  1  0
 92 90  1  0
M  ISO  4  13 100  14 100  52 101  53 101
M  END
>  <TORSDO>  (67) 
F 27

>  <SCORE>  (67) 
-10.443

>  <name>  (67) 
67

>  <ligand_id>  (67) 
67

>  <original_smiles>  (67) 
[H]c1c([H])c([H])c2c(c1[H])C([H])([H])C([H])([H])C([H])([H])C2([H])N([H])C(=O)C1([H])N(C(=O)C([H])(N([H])C(=O)C([H])(N([H])C([H])([H])[H])C([H])([H])[H])C(C([H])([H])[H])(C([H])([H])[H])C([H])([H])[H])C([H])([H])c2c([H])c(OC([H])([H])C([H])([H])C([H])([H])[N+]([H])(C([H])([H])[H])C([H])([H])C([H])([H])C([H])([H])[N+]([H])([H])C([H])([H])C([H])([H])C([H])([H])C([H])([H])C(=O)N3C([H])([H])C([H])([H])C([H])([H])C([H])(n4nc(-c5c([H])c([H])c(Oc6c([H])c([H])c(F)c([H])c6F)c([H])c5[H])c(C(=O)N([H])[H])c4N([H])[H])C3([H])[H])c([H])c([H])c2C1([H])[H]

>  <smiles>  (67) 
[H]c1c([H])c([H])c2c(c1[H])C([H])([H])C([H])([H])C([H])([H])C2([H])N([H])C(=O)C1([H])N(C(=O)C([H])(N([H])C(=O)C([H])(N([H])C([H])([H])[H])C([H])([H])[H])C(C([H])([H])[H])(C([H])([H])[H])C([H])([H])[H])C([H])([H])c2c([H])c(OC([H])([H])C([H])([H])C([H])([H])[N+]([H])(C([H])([H])[H])C([H])([H])C([H])([H])C([H])([H])[N+]([H])([H])C([H])([H])C([H])([H])C([H])([H])C([H])([H])C(=O)N3C([H])([H])C([H])([H])C([H])([H])C([H])(n4nc(-c5c([H])c([H])c(Oc6c([H])c([H])c(F)c([H])c6F)c([H])c5[H])c(C(=O)N([H])[H])c4N([H])[H])C3([H])[H])c([H])c([H])c2C1([H])[H]

$$$$
68:0:0
     RDKit          3D

 98106  0  0  1  0  0  0  0  0999 V2000
  -28.9260  -23.7460   22.2910 C   0  0  0  0  0  3  0  0  0  0  0  0
  -28.5030  -24.5440   21.2160 C   0  0  0  0  0  3  0  0  0  0  0  0
  -31.0420  -23.3620   21.1570 C   0  0  0  0  0  3  0  0  0  0  0  0
  -30.1850  -23.1250   22.2480 C   0  0  0  0  0  0  0  0  0  0  0  0
  -29.3280  -24.7450   20.0810 C   0  0  0  0  0  0  0  0  0  0  0  0
  -30.6290  -24.1660   20.0710 C   0  0  0  0  0  0  0  0  0  0  0  0
  -30.5550  -22.0960   23.3000 C   0  0  0  0  0  2  0  0  0  0  0  0
  -30.0220  -20.7130   22.8730 C   0  0  0  0  0  2  0  0  0  0  0  0
  -31.0430  -19.5640   22.9260 C   0  0  0  0  0  2  0  0  0  0  0  0
  -30.9340  -18.6920   21.6670 C   0  0  0  0  0  2  0  0  0  0  0  0
  -31.2200  -17.2100   21.9050 C   0  0  0  0  0  2  0  0  0  0  0  0
  -31.5400  -16.5000   20.5830 C   0  0  0  0  0  2  0  0  0  0  0  0
  -31.5190  -14.1560   19.8020 C   0  0  0  0  0  0  0  0  0  0  0  0
  -31.0160  -11.8980   18.9580 C   0  0  0  0  0  2  0  0  0  0  0  0
  -30.0180  -11.9590   17.7850 C   0  0  0  0  0  2  0  0  0  0  0  0
  -28.5640  -11.9860   18.2960 C   0  0  0  0  0  2  0  0  0  0  0  0
  -28.3420  -13.0510   19.4020 C   0  0  0  0  0  3  0  0  0  0  0  0
  -29.4310  -12.9270   20.4910 C   0  0  0  0  0  2  0  0  0  0  0  0
  -30.7560  -13.0350   19.8470 N   0  0  0  0  0  0  0  0  0  0  0  0
  -32.4910  -14.3040   19.0570 O   0  0  0  0  0  0  0  0  0  0  0  0
  -31.1270  -15.1120   20.6460 N   0  0  0  0  0  0  0  0  0  0  0  0
  -30.3590  -14.8790   21.2590 H   0  0  0  0  0  0  0  0  0  0  0  0
  -26.1090  -13.9640   20.3140 C   0  0  0  0  0  0  0  0  0  0  0  0
  -24.9710  -13.3330   20.7410 C   0  0  0  0  0  0  0  0  0  0  0  0
  -25.2290  -11.9330   20.6280 C   0  0  0  0  0  0  0  0  0  0  0  0
  -26.9990  -12.9550   19.9730 N   0  0  0  0  0  0  0  0  0  0  0  0
  -26.4730  -11.7260   20.2150 N   0  0  0  0  0  0  0  0  0  0  0  0
  -24.3460  -10.7770   20.8350 C   0  0  0  0  0  0  0  0  0  0  0  0
  -24.7250   -9.6990   21.6640 C   0  0  0  0  0  3  0  0  0  0  0  0
  -23.8510   -8.6080   21.8610 C   0  0  0  0  0  3  0  0  0  0  0  0
  -22.5850   -8.5880   21.2310 C   0  0  0  0  0  0  0  0  0  0  0  0
  -22.2220   -9.6550   20.3890 C   0  0  0  0  0  3  0  0  0  0  0  0
  -23.0940  -10.7370   20.1890 C   0  0  0  0  0  3  0  0  0  0  0  0
  -21.6840   -7.5570   21.3420 O   0  0  0  0  0  0  0  0  0  0  0  0
  -21.6090   -6.7860   22.4740 C   0  0  0  0  0  0  0  0  0  0  0  0
  -21.3840   -7.3530   23.7480 C   0  0  0  0  0  3  0  0  0  0  0  0
  -21.2450   -6.5190   24.8750 C   0  0  0  0  0  3  0  0  0  0  0  0
  -21.3190   -5.1200   24.7300 C   0  0  0  0  0  0  0  0  0  0  0  0
  -21.5360   -4.5540   23.4610 C   0  0  0  0  0  3  0  0  0  0  0  0
  -21.6770   -5.3850   22.3360 C   0  0  0  0  0  0  0  0  0  0  0  0
  -21.8660   -4.8350   21.1130 F   0  0  0  0  0  0  0  0  0  0  0  0
  -21.1770   -4.3170   25.8100 F   0  0  0  0  0  0  0  0  0  0  0  0
  -23.6810  -13.9880   21.1430 C   0  0  0  0  0  0  0  0  0  0  0  0
  -22.9490  -13.3840   22.0730 N   0  0  0  0  0  0  0  0  0  0  0  0
  -23.3360  -15.0700   20.6660 O   0  0  0  0  0  0  0  0  0  0  0  0
  -23.2420  -12.5090   22.4820 H   0  0  0  0  0  0  0  0  0  0  0  0
  -22.0840  -13.8030   22.3800 H   0  0  0  0  0  0  0  0  0  0  0  0
  -26.4540  -15.3040   20.1700 N   0  0  0  0  0  0  0  0  0  0  0  0
  -25.7990  -16.0530   20.3640 H   0  0  0  0  0  0  0  0  0  0  0  0
  -27.3430  -15.6330   19.8140 H   0  0  0  0  0  0  0  0  0  0  0  0
  -28.7990  -25.5310   18.8730 C   0  0  0  0  0  2  0  0  0  0  0  0
  -27.9750  -26.7870   19.1930 C   0  0  0  0  0  2  0  0  0  0  0  0
  -26.5670  -26.5790   19.0350 O   0  0  0  0  0  0  0  0  0  0  0  0
  -25.1730  -31.4090   24.0670 C   0  0  0  0  0  0  0  0  0  0  0  0
  -25.7320  -27.5650   19.5130 C   0  0  0  0  0  0  0  0  0  0  0  0
  -23.3050  -30.8990   22.5200 C   0  0  0  0  0  3  0  0  0  0  0  0
  -23.9220  -29.5190   20.4650 C   0  0  0  0  0  0  0  0  0  0  0  0
  -25.7300  -30.6730   21.7600 C   0  0  0  0  0  2  0  0  0  0  0  0
  -25.2700  -29.5710   20.8350 C   0  0  0  0  0  0  0  0  0  0  0  0
  -26.1740  -28.6140   20.3550 C   0  0  0  0  0  3  0  0  0  0  0  0
  -24.3700  -27.5210   19.1460 C   0  0  0  0  0  3  0  0  0  0  0  0
  -23.4620  -28.4930   19.6180 C   0  0  0  0  0  3  0  0  0  0  0  0
  -23.0310  -30.6060   21.0180 C   0  0  0  0  0  2  0  0  0  0  0  0
  -24.7670  -30.9840   22.8380 N   0  0  0  0  0  0  0  0  0  0  0  0
  -24.3510  -31.7770   24.9180 O   0  0  0  0  0  0  0  0  0  0  0  0
  -22.5540  -29.8460   23.3650 C   0  0  0  0  0  0  0  0  0  0  0  0
  -21.2380  -29.7260   23.1310 N   0  0  0  0  0  0  0  0  0  0  0  0
  -23.1560  -29.1420   24.1810 O   0  0  0  0  0  0  0  0  0  0  0  0
  -20.8210  -30.3460   22.4510 H   0  0  0  0  0  0  0  0  0  0  0  0
  -17.9380  -28.2760   22.9380 C   0  0  0  0  0  0  0  0  0  0  0  0
  -20.3320  -28.7760   23.7730 C   0  0  0  0  0  3  0  0  0  0  0  0
  -20.6700  -27.3230   23.3640 C   0  0  0  0  0  2  0  0  0  0  0  0
  -19.8650  -26.8340   22.1560 C   0  0  0  0  0  2  0  0  0  0  0  0
  -18.3630  -26.9030   22.4480 C   0  0  0  0  0  2  0  0  0  0  0  0
  -18.8660  -29.1610   23.5470 C   0  0  0  0  0  0  0  0  0  0  0  0
  -18.4290  -30.4410   23.9530 C   0  0  0  0  0  3  0  0  0  0  0  0
  -17.0910  -30.8370   23.7670 C   0  0  0  0  0  3  0  0  0  0  0  0
  -16.1720  -29.9500   23.1800 C   0  0  0  0  0  3  0  0  0  0  0  0
  -16.5950  -28.6730   22.7700 C   0  0  0  0  0  3  0  0  0  0  0  0
  -26.6840  -31.4770   24.4560 C   0  0  0  0  0  3  0  0  0  0  0  0
  -27.1450  -30.2840   25.3800 C   0  0  1  0  0  0  0  0  0  0  0  0
  -26.2300  -30.0580   26.6030 C   0  0  0  0  0  1  0  0  0  0  0  0
  -27.1970  -28.9620   24.5780 C   0  0  0  0  0  1  0  0  0  0  0  0
  -28.5780  -30.5470   25.9030 C   0  0  0  0  0  1  0  0  0  0  0  0
  -26.9120  -32.7680   25.1190 N   0  0  0  0  0  0  0  0  0  0  0  0
  -27.5950  -33.7870   24.5830 C   0  0  0  0  0  0  0  0  0  0  0  0
  -28.1670  -33.7110   23.4910 O   0  0  0  0  0  0  0  0  0  0  0  0
  -26.4270  -32.9210   25.9910 H   0  0  0  0  0  0  0  0  0  0  0  0
  -26.6650  -36.1160   24.7780 C   0  0  0  0  0  1  0  0  0  0  0  0
  -27.6490  -35.1030   25.3830 C   0  0  0  0  0  3  0  0  0  0  0  0
  -29.9430  -34.9090   26.2370 C   0  0  0  0  0  1  0  0  0  0  0  0
  -29.0020  -35.6980   25.4450 N   0  0  0  0  0  0  0  0  0  0  0  0
  -28.9640  -36.6330   25.8390 H   0  0  0  0  0  0  0  0  0  0  0  0
  -31.6080  -24.3520   18.9110 C   0  0  0  0  0  2  0  0  0  0  0  0
  -32.2060  -25.6950   18.9330 N   0  0  0  0  0  4  0  0  0  0  0  0
  -31.5010  -26.4010   18.8510 H   0  0  0  0  0  0  0  0  0  0  0  0
  -32.8500  -25.7950   18.1700 H   0  0  0  0  0  0  0  0  0  0  0  0
  -32.7050  -25.8380   19.7920 H   0  0  0  0  0  0  0  0  0  0  0  0
  2  1  2  0
  3  4  2  0
  4  1  1  0
  4  7  1  0
  5  2  1  0
  6  5  2  0
  6  3  1  0
  8  9  1  0
  8  7  1  0
 10 11  1  0
 10  9  1  0
 12 21  1  0
 12 11  1  0
 13 19  1  0
 13 21  1  0
 14 19  1  0
 15 16  1  0
 15 14  1  0
 17 16  1  0
 17 26  1  0
 17 18  1  0
 19 18  1  0
 20 13  2  0
 21 22  1  0
 23 24  2  0
 24 43  1  0
 25 24  1  0
 25 28  1  0
 26 27  1  0
 26 23  1  0
 27 25  2  0
 28 29  1  0
 29 30  2  0
 31 34  1  0
 31 30  1  0
 32 31  2  0
 33 32  1  0
 33 28  2  0
 34 35  1  0
 35 36  1  0
 36 37  2  0
 38 37  1  0
 38 42  1  0
 39 38  2  0
 40 35  2  0
 40 39  1  0
 41 40  1  0
 43 44  1  0
 44 47  1  0
 44 46  1  0
 45 43  2  0
 48 23  1  0
 48 49  1  0
 50 48  1  0
 51 52  1  0
 51  5  1  0
 53 52  1  0
 53 55  1  0
 54 65  2  0
 55 60  1  0
 56 64  1  0
 56 66  1  0
 57 59  1  0
 57 63  1  0
 58 64  1  0
 59 58  1  0
 60 59  2  0
 61 55  2  0
 61 62  1  0
 62 57  2  0
 63 56  1  0
 64 54  1  0
 66 68  2  0
 67 66  1  0
 69 67  1  0
 70 75  1  0
 71 67  1  0
 72 71  1  0
 73 74  1  0
 73 72  1  0
 74 70  1  0
 75 71  1  0
 75 76  2  0
 77 76  1  0
 78 77  2  0
 79 70  2  0
 79 78  1  0
 80 54  1  0
 80 85  1  0
 80 81  1  0
 81 84  1  1
 81 82  1  0
 83 81  1  0
 85 88  1  0
 86 85  1  0
 86 90  1  0
 87 86  2  0
 90 89  1  0
 90 92  1  0
 92 93  1  0
 92 91  1  0
 94 95  1  0
 94  6  1  0
 95 98  1  0
 96 95  1  0
 97 95  1  0
M  ISO  4  13 100  21 100  52 101  53 101
M  END
>  <TORSDO>  (68) 
F 26

>  <SCORE>  (68) 
-9.729

>  <name>  (68) 
68

>  <ligand_id>  (68) 
68

>  <original_smiles>  (68) 
[H]c1c([H])c([H])c2c(c1[H])C([H])([H])C([H])([H])C([H])([H])C2([H])N([H])C(=O)C1([H])N(C(=O)C([H])(N([H])C(=O)C([H])(N([H])C([H])([H])[H])C([H])([H])[H])C(C([H])([H])[H])(C([H])([H])[H])C([H])([H])[H])C([H])([H])c2c([H])c(OC([H])([H])C([H])([H])c3c([H])c([H])c(C([H])([H])C([H])([H])C([H])([H])C([H])([H])C([H])([H])C([H])([H])N([H])C(=O)N4C([H])([H])C([H])([H])C([H])([H])C([H])(n5nc(-c6c([H])c([H])c(Oc7c([H])c([H])c(F)c([H])c7F)c([H])c6[H])c(C(=O)N([H])[H])c5N([H])[H])C4([H])[H])c([H])c3C([H])([H])[N+]([H])([H])[H])c([H])c([H])c2C1([H])[H]

>  <smiles>  (68) 
[H]c1c([H])c([H])c2c(c1[H])C([H])([H])C([H])([H])C([H])([H])C2([H])N([H])C(=O)C1([H])N(C(=O)C([H])(N([H])C(=O)C([H])(N([H])C([H])([H])[H])C([H])([H])[H])C(C([H])([H])[H])(C([H])([H])[H])C([H])([H])[H])C([H])([H])c2c([H])c(OC([H])([H])C([H])([H])c3c([H])c([H])c(C([H])([H])C([H])([H])C([H])([H])C([H])([H])C([H])([H])C([H])([H])N([H])C(=O)N4C([H])([H])C([H])([H])C([H])([H])C([H])(n5nc(-c6c([H])c([H])c(Oc7c([H])c([H])c(F)c([H])c7F)c([H])c6[H])c(C(=O)N([H])[H])c5N([H])[H])C4([H])[H])c([H])c3C([H])([H])[N+]([H])([H])[H])c([H])c([H])c2C1([H])[H]

$$$$
69:0:0
     RDKit          3D

 92 94  0  0  1  0  0  0  0  0999 V2000
  -18.9220  -24.3120   22.4610 C   0  0  0  0  0  3  0  0  0  0  0  0
  -19.5750  -25.3870   23.5480 C   0  0  0  0  0  2  0  0  0  0  0  0
  -19.4460  -23.6950   21.0140 C   0  0  0  0  0  3  0  0  0  0  0  0
  -20.6060  -25.6360   20.7050 C   0  0  0  0  0  1  0  0  0  0  0  0
  -20.7910  -26.3740   22.9260 C   0  0  0  0  0  2  0  0  0  0  0  0
  -20.8200  -23.9150   20.1680 C   0  0  0  0  0  2  0  0  0  0  0  0
  -22.1830  -26.7340   23.8940 C   0  0  0  0  0  2  0  0  0  0  0  0
  -23.7210  -25.9180   24.2230 C   0  0  0  0  0  2  0  0  0  0  0  0
  -25.4090  -25.9620   23.7160 C   0  0  0  0  0  2  0  0  0  0  0  0
  -26.4140  -24.9520   22.7720 C   0  0  0  0  0  2  0  0  0  0  0  0
  -27.9720  -24.6490   22.8960 O   0  0  0  0  0  0  0  0  0  0  0  0
  -25.9960  -29.7270   26.1890 C   0  0  0  0  0  0  0  0  0  0  0  0
  -28.7480  -25.7710   22.9050 C   0  0  0  0  0  0  0  0  0  0  0  0
  -26.5660  -30.1010   23.8350 C   0  0  0  0  0  3  0  0  0  0  0  0
  -28.2030  -28.4540   22.7590 C   0  0  0  0  0  0  0  0  0  0  0  0
  -28.0660  -28.6650   25.2580 C   0  0  0  0  0  2  0  0  0  0  0  0
  -28.3770  -27.8560   24.0150 C   0  0  0  0  0  0  0  0  0  0  0  0
  -28.7100  -26.4990   24.1000 C   0  0  0  0  0  3  0  0  0  0  0  0
  -28.8860  -26.4040   21.6610 C   0  0  0  0  0  3  0  0  0  0  0  0
  -28.5240  -27.7570   21.5790 C   0  0  0  0  0  3  0  0  0  0  0  0
  -27.6700  -29.8590   22.7560 C   0  0  0  0  0  2  0  0  0  0  0  0
  -26.8380  -29.4730   25.1460 N   0  0  0  0  0  0  0  0  0  0  0  0
  -25.0020  -30.4610   26.0690 O   0  0  0  0  0  0  0  0  0  0  0  0
  -25.2430  -29.6430   23.2940 C   0  0  0  0  0  0  0  0  0  0  0  0
  -24.9770  -30.1550   22.0930 N   0  0  0  0  0  4  0  0  0  0  0  0
  -24.5550  -28.8010   23.8800 O   0  0  0  0  0  0  0  0  0  0  0  0
  -25.5900  -30.8650   21.7140 H   0  0  0  0  0  0  0  0  0  0  0  0
  -21.7070  -28.6610   20.2180 C   0  0  0  0  0  3  0  0  0  0  0  0
  -24.2020  -29.4010   21.2030 C   0  0  0  0  0  0  0  0  0  0  0  0
  -25.2240  -28.9090   19.8500 C   0  0  0  0  0  3  0  0  0  0  0  0
  -25.1760  -27.5720   18.6520 C   0  0  0  0  0  3  0  0  0  0  0  0
  -23.6360  -26.5500   18.4330 C   0  0  0  0  0  1  0  0  0  0  0  0
  -22.5650  -29.3740   21.3570 C   0  0  0  0  0  0  0  0  0  0  0  0
  -22.2370  -29.5680   22.7880 C   0  0  0  0  0  3  0  0  0  0  0  0
  -20.9680  -29.4730   23.3330 C   0  0  0  0  0  3  0  0  0  0  0  0
  -20.0240  -29.1470   22.3520 C   0  0  0  0  0  3  0  0  0  0  0  0
  -20.3770  -28.7180   20.9670 C   0  0  0  0  0  3  0  0  0  0  0  0
  -26.2760  -29.1410   27.5970 C   0  0  0  0  0  3  0  0  0  0  0  0
  -26.8370  -30.2380   28.3930 N   0  0  0  0  0  0  0  0  0  0  0  0
  -28.1340  -30.3540   28.6930 C   0  0  0  0  0  0  0  0  0  0  0  0
  -28.9690  -29.4930   28.4020 O   0  0  0  0  0  0  0  0  0  0  0  0
  -26.2190  -31.0050   28.6120 H   0  0  0  0  0  0  0  0  0  0  0  0
  -29.4060  -32.5170   28.5010 C   0  0  0  0  0  1  0  0  0  0  0  0
  -28.5760  -31.6260   29.4400 C   0  0  0  0  0  3  0  0  0  0  0  0
  -28.5420  -30.7260   31.7220 C   0  0  0  0  0  1  0  0  0  0  0  0
  -29.3450  -31.3420   30.6690 N   0  0  0  0  0  0  0  0  0  0  0  0
  -29.7570  -32.1940   31.0420 H   0  0  0  0  0  0  0  0  0  0  0  0
  -25.0010  -28.5320   28.2920 C   0  0  1  0  0  0  0  0  0  0  0  0
  -23.7780  -29.4780   28.3160 C   0  0  0  0  0  1  0  0  0  0  0  0
  -24.5680  -27.2260   27.5870 C   0  0  0  0  0  1  0  0  0  0  0  0
  -25.3520  -28.1580   29.7500 C   0  0  0  0  0  1  0  0  0  0  0  0
  -22.4000  -22.3010   19.7030 C   0  0  0  0  0 15  0  0  0  0  0  0
  -24.4860  -20.9940   19.7250 C   0  0  0  0  0 15  0  0  0  0  0  0
  -25.9520  -19.0490   19.3430 C   0  0  0  0  0 15  0  0  0  0  0  0
  -29.1040  -16.5650   19.3570 C   0  0  0  0  0  0  0  0  0  0  0  0
  -30.4350  -14.0210   18.7390 C   0  0  0  0  0  2  0  0  0  0  0  0
  -29.8710  -12.8970   17.7760 C   0  0  0  0  0  2  0  0  0  0  0  0
  -28.5750  -12.3010   18.3340 C   0  0  0  0  0  2  0  0  0  0  0  0
  -27.8780  -13.4150   19.1190 C   0  0  0  0  0  3  0  0  0  0  0  0
  -28.7170  -14.0580   20.2070 C   0  0  0  0  0  2  0  0  0  0  0  0
  -29.3460  -15.0360   19.3760 N   0  0  0  0  0  0  0  0  0  0  0  0
  -30.3890  -16.7090   19.1960 O   0  0  0  0  0  0  0  0  0  0  0  0
  -27.8040  -17.8740   19.4340 N   0  0  0  0  0  2  0  0  0  0  0  0
  -28.4610  -18.6360   19.5250 H   0  0  0  0  0  0  0  0  0  0  0  0
  -25.7760  -14.1410   20.1500 C   0  0  0  0  0  0  0  0  0  0  0  0
  -24.7100  -13.4460   20.6030 C   0  0  0  0  0  0  0  0  0  0  0  0
  -25.0370  -12.0650   20.4340 C   0  0  0  0  0  0  0  0  0  0  0  0
  -26.6400  -13.1660   19.7030 N   0  0  0  0  0  0  0  0  0  0  0  0
  -26.2560  -11.9110   19.9540 N   0  0  0  0  0  0  0  0  0  0  0  0
  -24.2310  -10.8760   20.6060 C   0  0  0  0  0  0  0  0  0  0  0  0
  -24.5440   -9.9100   21.5820 C   0  0  0  0  0  3  0  0  0  0  0  0
  -23.7280   -8.7720   21.7280 C   0  0  0  0  0  3  0  0  0  0  0  0
  -22.5940   -8.6070   20.8990 C   0  0  0  0  0  0  0  0  0  0  0  0
  -22.3100   -9.5610   19.9080 C   0  0  0  0  0  3  0  0  0  0  0  0
  -23.1250  -10.6920   19.7570 C   0  0  0  0  0  3  0  0  0  0  0  0
  -21.7500   -7.5280   20.9580 O   0  0  0  0  0  0  0  0  0  0  0  0
  -21.4810   -6.9010   22.1460 C   0  0  0  0  0  0  0  0  0  0  0  0
  -20.8870   -7.5790   23.2330 C   0  0  0  0  0  3  0  0  0  0  0  0
  -20.5680   -6.8730   24.4090 C   0  0  0  0  0  3  0  0  0  0  0  0
  -20.8310   -5.4930   24.4960 C   0  0  0  0  0  0  0  0  0  0  0  0
  -21.4200   -4.8180   23.4120 C   0  0  0  0  0  3  0  0  0  0  0  0
  -21.7420   -5.5210   22.2390 C   0  0  0  0  0  0  0  0  0  0  0  0
  -22.2920   -4.8640   21.1900 F   0  0  0  0  0  0  0  0  0  0  0  0
  -20.5130   -4.8130   25.6210 F   0  0  0  0  0  0  0  0  0  0  0  0
  -23.4190  -14.0500   21.0450 C   0  0  0  0  0  0  0  0  0  0  0  0
  -22.7170  -13.3870   21.9510 N   0  0  0  0  0  0  0  0  0  0  0  0
  -23.0600  -15.1450   20.6170 O   0  0  0  0  0  0  0  0  0  0  0  0
  -23.0320  -12.4990   22.3120 H   0  0  0  0  0  0  0  0  0  0  0  0
  -21.8460  -13.7750   22.2880 H   0  0  0  0  0  0  0  0  0  0  0  0
  -26.0590  -15.5030   20.0530 N   0  0  0  0  0  0  0  0  0  0  0  0
  -25.3800  -16.1970   20.3430 H   0  0  0  0  0  0  0  0  0  0  0  0
  -26.8730  -15.9250   19.6260 H   0  0  0  0  0  0  0  0  0  0  0  0
  1  2  1  0
  3  1  2  0
  5  2  1  0
  5  7  1  0
  6  4  1  0
  6  3  1  0
  7  8  1  0
  9  8  1  0
 10 11  1  0
 10  9  1  0
 11 13  1  0
 13 18  1  0
 14 24  1  0
 14 22  1  0
 15 17  1  0
 17 18  2  0
 17 16  1  0
 19 13  2  0
 20 19  1  0
 20 15  2  0
 21 15  1  0
 21 14  1  0
 22 16  1  0
 22 12  1  0
 23 12  2  0
 24 26  2  0
 25 24  1  0
 27 25  1  0
 28 37  2  0
 28 33  1  0
 29 33  1  0
 29 25  2  0
 30 29  1  0
 31 30  2  0
 32 31  1  0
 33 34  2  0
 34 35  1  0
 36 35  2  0
 37 36  1  0
 38 12  1  0
 38 48  1  0
 38 39  1  0
 39 42  1  0
 39 40  1  0
 40 44  1  0
 41 40  2  0
 44 43  1  0
 44 46  1  0
 46 47  1  0
 46 45  1  0
 48 49  1  1
 48 51  1  0
 50 48  1  0
 55 61  1  0
 55 63  1  0
 56 61  1  0
 57 58  1  0
 57 56  1  0
 59 58  1  0
 59 68  1  0
 59 60  1  0
 61 60  1  0
 62 55  2  0
 63 64  1  0
 65 66  2  0
 66 85  1  0
 67 66  1  0
 67 70  1  0
 68 69  1  0
 68 65  1  0
 69 67  2  0
 70 71  1  0
 71 72  2  0
 73 76  1  0
 73 72  1  0
 74 73  2  0
 75 74  1  0
 75 70  2  0
 76 77  1  0
 77 82  2  0
 77 78  1  0
 78 79  2  0
 79 80  1  0
 80 84  1  0
 81 80  2  0
 82 81  1  0
 83 82  1  0
 85 86  1  0
 86 89  1  0
 86 88  1  0
 87 85  2  0
 90 65  1  0
 90 91  1  0
 92 90  1  0
M  ISO  4  10 101  11 101  55 100  63 100
M  END
>  <TORSDO>  (69) 
F 23

>  <SCORE>  (69) 
-2.645

>  <name>  (69) 
69

>  <ligand_id>  (69) 
69

>  <original_smiles>  (69) 
[H]c1c([H])c(C([H])([H])C([H])([H])C([H])([H])N([H])C(=O)N2C([H])([H])C([H])([H])C([H])([H])C([H])(n3nc(-c4c([H])c([H])c(Oc5c([H])c([H])c(F)c([H])c5F)c([H])c4[H])c(C(=O)N([H])[H])c3N([H])[H])C2([H])[H])c([H])c(C([H])([H])C([H])([H])C([H])([H])C([H])([H])Oc2c([H])c([H])c3c(c2[H])C([H])([H])N(C(=O)C([H])(N([H])C(=O)C([H])(N([H])C([H])([H])[H])C([H])([H])[H])C(C([H])([H])[H])(C([H])([H])[H])C([H])([H])[H])C([H])(C(=O)N([H])C2([H])c4c([H])c([H])c([H])c([H])c4C([H])([H])C([H])([H])C2([H])[H])C3([H])[H])c1[H]

>  <smiles>  (69) 
[H]c1c([H])c(C([H])([H])C([H])([H])C([H])([H])N([H])C(=O)N2C([H])([H])C([H])([H])C([H])([H])C([H])(n3nc(-c4c([H])c([H])c(Oc5c([H])c([H])c(F)c([H])c5F)c([H])c4[H])c(C(=O)N([H])[H])c3N([H])[H])C2([H])[H])c([H])c(C([H])([H])C([H])([H])C([H])([H])C([H])([H])Oc2c([H])c([H])c3c(c2[H])C([H])([H])N(C(=O)C([H])(N([H])C(=O)C([H])(N([H])C([H])([H])[H])C([H])([H])[H])C(C([H])([H])[H])(C([H])([H])[H])C([H])([H])[H])C([H])(C(=O)N([H])C2([H])c4c([H])c([H])c([H])c([H])c4C([H])([H])C([H])([H])C2([H])[H])C3([H])[H])c1[H]

$$$$
70:0:0
     RDKit          3D

 89 96  0  0  1  0  0  0  0  0999 V2000
  -28.0350  -24.2990   20.6650 C   0  0  0  0  0  0  0  0  0  0  0  0
  -26.8630  -24.2610   21.1400 N   0  0  0  0  0  0  0  0  0  0  0  0
  -26.7510  -23.4840   21.7820 H   0  0  0  0  0  0  0  0  0  0  0  0
  -29.0610  -23.2350   21.0790 C   0  0  0  0  0  2  0  0  0  0  0  0
  -28.8770  -21.8690   20.3630 C   0  0  0  0  0  2  0  0  0  0  0  0
  -29.5330  -20.6650   21.0900 C   0  0  0  0  0  2  0  0  0  0  0  0
  -29.5410  -19.3720   20.2400 C   0  0  0  0  0  2  0  0  0  0  0  0
  -29.7690  -18.0480   21.0160 C   0  0  0  0  0  2  0  0  0  0  0  0
  -30.1830  -16.8970   20.0680 C   0  0  0  0  0  2  0  0  0  0  0  0
  -30.6840  -14.4750   20.1520 C   0  0  0  0  0  0  0  0  0  0  0  0
  -30.2940  -12.3360   19.0070 C   0  0  0  0  0  2  0  0  0  0  0  0
  -29.3110  -12.5870   17.8440 C   0  0  0  0  0  2  0  0  0  0  0  0
  -27.8540  -12.4740   18.3310 C   0  0  0  0  0  2  0  0  0  0  0  0
  -27.5830  -13.2910   19.6220 C   0  0  0  0  0  3  0  0  0  0  0  0
  -28.6800  -13.0370   20.6840 C   0  0  0  0  0  2  0  0  0  0  0  0
  -29.9880  -13.3100   20.0680 N   0  0  0  0  0  0  0  0  0  0  0  0
  -31.7970  -14.6280   19.6420 O   0  0  0  0  0  0  0  0  0  0  0  0
  -29.9870  -15.5360   20.5990 N   0  0  0  0  0  0  0  0  0  0  0  0
  -29.0960  -15.3320   21.0270 H   0  0  0  0  0  0  0  0  0  0  0  0
  -25.2190  -13.9210   20.4220 C   0  0  0  0  0  0  0  0  0  0  0  0
  -24.1580  -13.1590   20.8290 C   0  0  0  0  0  0  0  0  0  0  0  0
  -24.6030  -11.8020   20.7760 C   0  0  0  0  0  0  0  0  0  0  0  0
  -26.2450  -13.0300   20.1490 N   0  0  0  0  0  0  0  0  0  0  0  0
  -25.8800  -11.7500   20.4190 N   0  0  0  0  0  0  0  0  0  0  0  0
  -23.8720  -10.5460   20.9900 C   0  0  0  0  0  0  0  0  0  0  0  0
  -24.3340   -9.5680   21.8960 C   0  0  0  0  0  3  0  0  0  0  0  0
  -23.6040   -8.3760   22.0970 C   0  0  0  0  0  3  0  0  0  0  0  0
  -22.3960   -8.1560   21.3920 C   0  0  0  0  0  0  0  0  0  0  0  0
  -21.9530   -9.1240   20.4730 C   0  0  0  0  0  3  0  0  0  0  0  0
  -22.6830  -10.3070   20.2710 C   0  0  0  0  0  3  0  0  0  0  0  0
  -21.6330   -7.0180   21.5050 O   0  0  0  0  0  0  0  0  0  0  0  0
  -21.6340   -6.2630   22.6500 C   0  0  0  0  0  0  0  0  0  0  0  0
  -21.2860   -6.8110   23.9040 C   0  0  0  0  0  3  0  0  0  0  0  0
  -21.2300   -5.9830   25.0420 C   0  0  0  0  0  3  0  0  0  0  0  0
  -21.5120   -4.6080   24.9290 C   0  0  0  0  0  0  0  0  0  0  0  0
  -21.8530   -4.0600   23.6800 C   0  0  0  0  0  3  0  0  0  0  0  0
  -21.9100   -4.8840   22.5430 C   0  0  0  0  0  0  0  0  0  0  0  0
  -22.2190   -4.3470   21.3390 F   0  0  0  0  0  0  0  0  0  0  0  0
  -21.4500   -3.8110   26.0220 F   0  0  0  0  0  0  0  0  0  0  0  0
  -22.7770  -13.6490   21.1560 C   0  0  0  0  0  0  0  0  0  0  0  0
  -22.0750  -12.9580   22.0480 N   0  0  0  0  0  0  0  0  0  0  0  0
  -22.3290  -14.6810   20.6560 O   0  0  0  0  0  0  0  0  0  0  0  0
  -22.4500  -12.1240   22.4760 H   0  0  0  0  0  0  0  0  0  0  0  0
  -21.1500  -13.2700   22.3090 H   0  0  0  0  0  0  0  0  0  0  0  0
  -25.3940  -15.2900   20.2440 N   0  0  0  0  0  0  0  0  0  0  0  0
  -24.6450  -15.9590   20.3840 H   0  0  0  0  0  0  0  0  0  0  0  0
  -26.2370  -15.7140   19.8750 H   0  0  0  0  0  0  0  0  0  0  0  0
  -28.4740  -25.3810   19.6580 C   0  0  0  0  0  2  0  0  0  0  0  0
  -28.3830  -26.7360   20.1470 O   0  0  0  0  0  0  0  0  0  0  0  0
  -24.5800  -31.8770   23.2460 C   0  0  0  0  0  0  0  0  0  0  0  0
  -27.1890  -27.4390   20.1190 C   0  0  0  0  0  0  0  0  0  0  0  0
  -23.3570  -30.4900   21.6060 C   0  0  0  0  0  3  0  0  0  0  0  0
  -24.7940  -28.9590   20.1570 C   0  0  0  0  0  0  0  0  0  0  0  0
  -25.8820  -30.8410   21.3910 C   0  0  0  0  0  2  0  0  0  0  0  0
  -25.9570  -29.4740   20.7410 C   0  0  0  0  0  0  0  0  0  0  0  0
  -27.1530  -28.7200   20.7180 C   0  0  0  0  0  3  0  0  0  0  0  0
  -26.0040  -26.9420   19.5270 C   0  0  0  0  0  3  0  0  0  0  0  0
  -24.8120  -27.6920   19.5490 C   0  0  0  0  0  3  0  0  0  0  0  0
  -23.5530  -29.8190   20.2190 C   0  0  0  0  0  2  0  0  0  0  0  0
  -24.6250  -31.0840   22.1390 N   0  0  0  0  0  0  0  0  0  0  0  0
  -23.5030  -32.1500   23.7960 O   0  0  0  0  0  0  0  0  0  0  0  0
  -22.7100  -29.4640   22.5640 C   0  0  0  0  0  0  0  0  0  0  0  0
  -21.3860  -29.2830   22.4410 N   0  0  0  0  0  0  0  0  0  0  0  0
  -23.3960  -28.8360   23.3750 O   0  0  0  0  0  0  0  0  0  0  0  0
  -20.8930  -29.8410   21.7570 H   0  0  0  0  0  0  0  0  0  0  0  0
  -18.0130  -28.0830   22.9370 C   0  0  0  0  0  0  0  0  0  0  0  0
  -20.5700  -28.3430   23.2100 C   0  0  0  0  0  3  0  0  0  0  0  0
  -20.6760  -26.9140   22.6320 C   0  0  0  0  0  2  0  0  0  0  0  0
  -19.5740  -26.5910   21.6170 C   0  0  0  0  0  2  0  0  0  0  0  0
  -18.1910  -26.7350   22.2610 C   0  0  0  0  0  2  0  0  0  0  0  0
  -19.1310  -28.8460   23.3690 C   0  0  0  0  0  0  0  0  0  0  0  0
  -18.9120  -30.1080   23.9600 C   0  0  0  0  0  3  0  0  0  0  0  0
  -17.6060  -30.6080   24.1270 C   0  0  0  0  0  3  0  0  0  0  0  0
  -16.5030  -29.8430   23.7120 C   0  0  0  0  0  3  0  0  0  0  0  0
  -16.7070  -28.5820   23.1230 C   0  0  0  0  0  3  0  0  0  0  0  0
  -25.8720  -32.5010   23.8600 C   0  0  0  0  0  3  0  0  0  0  0  0
  -25.5750  -33.9010   24.1900 N   0  0  0  0  0  0  0  0  0  0  0  0
  -25.9130  -34.9490   23.4280 C   0  0  0  0  0  0  0  0  0  0  0  0
  -26.5780  -34.8410   22.3950 O   0  0  0  0  0  0  0  0  0  0  0  0
  -24.9850  -34.0600   24.9930 H   0  0  0  0  0  0  0  0  0  0  0  0
  -24.1940  -36.7510   23.0760 C   0  0  0  0  0  1  0  0  0  0  0  0
  -25.4350  -36.3410   23.8850 C   0  0  0  0  0  3  0  0  0  0  0  0
  -27.5790  -37.2120   24.7060 C   0  0  0  0  0  1  0  0  0  0  0  0
  -26.4740  -37.3880   23.7670 N   0  0  0  0  0  0  0  0  0  0  0  0
  -26.0750  -38.3110   23.9150 H   0  0  0  0  0  0  0  0  0  0  0  0
  -26.3940  -31.7260   25.1320 C   0  0  1  0  0  0  0  0  0  0  0  0
  -25.3060  -31.4940   26.2070 C   0  0  0  0  0  1  0  0  0  0  0  0
  -26.9650  -30.3440   24.7330 C   0  0  0  0  0  1  0  0  0  0  0  0
  -27.5530  -32.5120   25.7870 C   0  0  0  0  0  1  0  0  0  0  0  0
  1  4  1  0
  1  2  2  0
  2  3  1  0
  5  4  1  0
  5  6  1  0
  7  8  1  0
  7  6  1  0
  9 18  1  0
  9  8  1  0
 10 18  1  0
 11 16  1  0
 12 13  1  0
 12 11  1  0
 14 13  1  0
 14 23  1  0
 14 15  1  0
 16 10  1  0
 16 15  1  0
 17 10  2  0
 18 19  1  0
 20 21  2  0
 21 40  1  0
 22 21  1  0
 22 25  1  0
 23 24  1  0
 23 20  1  0
 24 22  2  0
 25 26  1  0
 26 27  2  0
 28 31  1  0
 28 27  1  0
 29 28  2  0
 30 29  1  0
 30 25  2  0
 31 32  1  0
 32 33  1  0
 33 34  2  0
 35 34  1  0
 35 39  1  0
 36 35  2  0
 37 32  2  0
 37 36  1  0
 38 37  1  0
 40 41  1  0
 41 44  1  0
 41 43  1  0
 42 40  2  0
 45 46  1  0
 45 20  1  0
 47 45  1  0
 48 49  1  0
 48  1  1  0
 50 61  2  0
 51 49  1  0
 51 56  1  0
 52 60  1  0
 52 62  1  0
 53 59  1  0
 53 55  1  0
 54 60  1  0
 55 54  1  0
 56 55  2  0
 57 58  1  0
 57 51  2  0
 58 53  2  0
 59 52  1  0
 60 50  1  0
 62 64  2  0
 63 62  1  0
 65 63  1  0
 66 75  2  0
 66 71  1  0
 67 63  1  0
 67 71  1  0
 68 67  1  0
 69 70  1  0
 69 68  1  0
 70 66  1  0
 71 72  2  0
 72 73  1  0
 74 73  2  0
 75 74  1  0
 76 50  1  0
 76 77  1  0
 76 86  1  0
 77 80  1  0
 78 82  1  0
 78 77  1  0
 79 78  2  0
 82 81  1  0
 84 82  1  0
 84 85  1  0
 84 83  1  0
 86 89  1  1
 86 87  1  0
 88 86  1  0
M  ISO  4  10 100  18 100  48 101  49 101
M  END
>  <TORSDO>  (70) 
F 23

>  <SCORE>  (70) 
-12.584

>  <name>  (70) 
70

>  <ligand_id>  (70) 
70

>  <original_smiles>  (70) 
[H]N=C(C([H])([H])Oc1c([H])c([H])c2c(c1[H])C([H])([H])N(C(=O)C([H])(N([H])C(=O)C([H])(N([H])C([H])([H])[H])C([H])([H])[H])C(C([H])([H])[H])(C([H])([H])[H])C([H])([H])[H])C([H])(C(=O)N([H])C1([H])c3c([H])c([H])c([H])c([H])c3C([H])([H])C([H])([H])C1([H])[H])C2([H])[H])C([H])([H])C([H])([H])C([H])([H])C([H])([H])C([H])([H])C([H])([H])N([H])C(=O)N1C([H])([H])C([H])([H])C([H])([H])C([H])(n2nc(-c3c([H])c([H])c(Oc4c([H])c([H])c(F)c([H])c4F)c([H])c3[H])c(C(=O)N([H])[H])c2N([H])[H])C1([H])[H]

>  <smiles>  (70) 
[H]N=C(C([H])([H])Oc1c([H])c([H])c2c(c1[H])C([H])([H])N(C(=O)C([H])(N([H])C(=O)C([H])(N([H])C([H])([H])[H])C([H])([H])[H])C(C([H])([H])[H])(C([H])([H])[H])C([H])([H])[H])C([H])(C(=O)N([H])C1([H])c3c([H])c([H])c([H])c([H])c3C([H])([H])C([H])([H])C1([H])[H])C2([H])[H])C([H])([H])C([H])([H])C([H])([H])C([H])([H])C([H])([H])C([H])([H])N([H])C(=O)N1C([H])([H])C([H])([H])C([H])([H])C([H])(n2nc(-c3c([H])c([H])c(Oc4c([H])c([H])c(F)c([H])c4F)c([H])c3[H])c(C(=O)N([H])[H])c2N([H])[H])C1([H])[H]

$$$$
71:0:0
     RDKit          3D

 96105  0  0  1  0  0  0  0  0999 V2000
  -30.9640  -21.0180   19.3300 C   0  0  0  0  0  3  0  0  0  0  0  0
  -31.3470  -22.3710   19.3310 C   0  0  0  0  0  3  0  0  0  0  0  0
  -30.6860  -21.0930   21.7520 C   0  0  0  0  0  3  0  0  0  0  0  0
  -30.6840  -20.3600   20.5470 C   0  0  0  0  0  0  0  0  0  0  0  0
  -31.4650  -23.0710   20.5480 C   0  0  0  0  0  0  0  0  0  0  0  0
  -31.0820  -22.4430   21.7550 C   0  0  0  0  0  0  0  0  0  0  0  0
  -31.1500  -23.1150   22.9300 F   0  0  0  0  0  0  0  0  0  0  0  0
  -30.5860  -18.8470   20.5820 C   0  0  0  0  0  2  0  0  0  0  0  0
  -30.6480  -14.3500   19.9240 C   0  0  0  0  0  0  0  0  0  0  0  0
  -30.2900  -12.2400   18.7220 C   0  0  0  0  0  2  0  0  0  0  0  0
  -29.2500  -12.4840   17.6080 C   0  0  0  0  0  2  0  0  0  0  0  0
  -27.8110  -12.3350   18.1490 C   0  0  0  0  0  2  0  0  0  0  0  0
  -27.5750  -13.1080   19.4750 C   0  0  0  0  0  3  0  0  0  0  0  0
  -28.7190  -12.8370   20.4790 C   0  0  0  0  0  2  0  0  0  0  0  0
  -29.9890  -13.1710   19.8160 N   0  0  0  0  0  0  0  0  0  0  0  0
  -31.7610  -14.5590   19.4250 O   0  0  0  0  0  0  0  0  0  0  0  0
  -29.3810  -17.1760   22.0840 C   0  0  0  0  0  2  0  0  0  0  0  0
  -30.2680  -15.9840   21.6540 C   0  0  0  0  0  2  0  0  0  0  0  0
  -29.4180  -16.2960   19.3010 C   0  0  0  0  0  2  0  0  0  0  0  0
  -29.2160  -18.2140   20.9590 C   0  0  0  0  0  3  0  0  0  0  0  0
  -28.5320  -17.4560   19.8030 C   0  0  0  0  0  3  0  0  0  0  0  0
  -28.0560  -18.3590   18.6580 C   0  0  0  0  0  1  0  0  0  0  0  0
  -29.8890  -15.3820   20.3630 N   0  0  0  0  0  0  0  0  0  0  0  0
  -25.2230  -13.6760   20.3420 C   0  0  0  0  0  0  0  0  0  0  0  0
  -24.1980  -12.8860   20.7870 C   0  0  0  0  0  0  0  0  0  0  0  0
  -24.6820  -11.5430   20.7280 C   0  0  0  0  0  0  0  0  0  0  0  0
  -26.2680  -12.8120   20.0460 N   0  0  0  0  0  0  0  0  0  0  0  0
  -25.9490  -11.5260   20.3330 N   0  0  0  0  0  0  0  0  0  0  0  0
  -24.0000  -10.2700   20.9760 C   0  0  0  0  0  0  0  0  0  0  0  0
  -24.4740   -9.3570   21.9470 C   0  0  0  0  0  3  0  0  0  0  0  0
  -23.7990   -8.1390   22.1740 C   0  0  0  0  0  3  0  0  0  0  0  0
  -22.6340   -7.8270   21.4360 C   0  0  0  0  0  0  0  0  0  0  0  0
  -22.1790   -8.7290   20.4600 C   0  0  0  0  0  3  0  0  0  0  0  0
  -22.8550   -9.9380   20.2270 C   0  0  0  0  0  3  0  0  0  0  0  0
  -21.9220   -6.6580   21.5740 O   0  0  0  0  0  0  0  0  0  0  0  0
  -21.8300   -6.0120   22.7800 C   0  0  0  0  0  0  0  0  0  0  0  0
  -21.3000   -6.6430   23.9260 C   0  0  0  0  0  3  0  0  0  0  0  0
  -21.1620   -5.9200   25.1270 C   0  0  0  0  0  3  0  0  0  0  0  0
  -21.5390   -4.5650   25.1820 C   0  0  0  0  0  0  0  0  0  0  0  0
  -22.0610   -3.9330   24.0380 C   0  0  0  0  0  3  0  0  0  0  0  0
  -22.2050   -4.6560   22.8410 C   0  0  0  0  0  0  0  0  0  0  0  0
  -22.6900   -4.0360   21.7380 F   0  0  0  0  0  0  0  0  0  0  0  0
  -21.3980   -3.8670   26.3330 F   0  0  0  0  0  0  0  0  0  0  0  0
  -22.8120  -13.3400   21.1470 C   0  0  0  0  0  0  0  0  0  0  0  0
  -22.1640  -12.6510   22.0800 N   0  0  0  0  0  0  0  0  0  0  0  0
  -22.3110  -14.3370   20.6320 O   0  0  0  0  0  0  0  0  0  0  0  0
  -22.5780  -11.8470   22.5250 H   0  0  0  0  0  0  0  0  0  0  0  0
  -21.2330  -12.9400   22.3510 H   0  0  0  0  0  0  0  0  0  0  0  0
  -25.3520  -15.0470   20.1470 N   0  0  0  0  0  0  0  0  0  0  0  0
  -24.5910  -15.6980   20.2950 H   0  0  0  0  0  0  0  0  0  0  0  0
  -26.1870  -15.4830   19.7800 H   0  0  0  0  0  0  0  0  0  0  0  0
  -32.0950  -24.4520   20.5490 C   0  0  0  0  0  2  0  0  0  0  0  0
  -31.1040  -25.5810   20.2750 C   0  0  0  0  0  2  0  0  0  0  0  0
  -30.2650  -25.9190   21.5050 C   0  0  0  0  0  2  0  0  0  0  0  0
  -29.2870  -27.0450   21.2230 C   0  0  0  0  0  2  0  0  0  0  0  0
  -28.3370  -26.6640   20.2220 O   0  0  0  0  0  0  0  0  0  0  0  0
  -24.6210  -31.8620   23.2400 C   0  0  0  0  0  0  0  0  0  0  0  0
  -27.2020  -27.4390   20.1820 C   0  0  0  0  0  0  0  0  0  0  0  0
  -23.3840  -30.4970   21.5790 C   0  0  0  0  0  3  0  0  0  0  0  0
  -24.8110  -28.9390   20.1460 C   0  0  0  0  0  0  0  0  0  0  0  0
  -25.9000  -30.8340   21.3740 C   0  0  0  0  0  2  0  0  0  0  0  0
  -25.9610  -29.4670   20.7400 C   0  0  0  0  0  0  0  0  0  0  0  0
  -27.1510  -28.7330   20.7480 C   0  0  0  0  0  3  0  0  0  0  0  0
  -26.0440  -26.9170   19.5680 C   0  0  0  0  0  3  0  0  0  0  0  0
  -24.8450  -27.6620   19.5520 C   0  0  0  0  0  3  0  0  0  0  0  0
  -23.5780  -29.8100   20.1940 C   0  0  0  0  0  2  0  0  0  0  0  0
  -24.6540  -31.0760   22.1250 N   0  0  0  0  0  0  0  0  0  0  0  0
  -23.5450  -32.1510   23.7820 O   0  0  0  0  0  0  0  0  0  0  0  0
  -22.7170  -29.4820   22.5330 C   0  0  0  0  0  0  0  0  0  0  0  0
  -21.3880  -29.3360   22.4070 N   0  0  0  0  0  0  0  0  0  0  0  0
  -23.3870  -28.8290   23.3360 O   0  0  0  0  0  0  0  0  0  0  0  0
  -20.9100  -29.9160   21.7310 H   0  0  0  0  0  0  0  0  0  0  0  0
  -17.9810  -28.2570   22.9020 C   0  0  0  0  0  0  0  0  0  0  0  0
  -20.5470  -28.4160   23.1680 C   0  0  0  0  0  3  0  0  0  0  0  0
  -20.5950  -26.9920   22.5680 C   0  0  0  0  0  2  0  0  0  0  0  0
  -19.4790  -26.7260   21.5530 C   0  0  0  0  0  2  0  0  0  0  0  0
  -18.1060  -26.9140   22.2040 C   0  0  0  0  0  2  0  0  0  0  0  0
  -19.1290  -28.9700   23.3390 C   0  0  0  0  0  0  0  0  0  0  0  0
  -18.9610  -30.2340   23.9460 C   0  0  0  0  0  3  0  0  0  0  0  0
  -17.6760  -30.7810   24.1250 C   0  0  0  0  0  3  0  0  0  0  0  0
  -16.5430  -30.0620   23.7080 C   0  0  0  0  0  3  0  0  0  0  0  0
  -16.6970  -28.8030   23.1000 C   0  0  0  0  0  3  0  0  0  0  0  0
  -25.9220  -32.4570   23.8670 C   0  0  0  0  0  3  0  0  0  0  0  0
  -25.6490  -33.8580   24.2090 N   0  0  0  0  0  0  0  0  0  0  0  0
  -26.0130  -34.9080   23.4610 C   0  0  0  0  0  0  0  0  0  0  0  0
  -26.6860  -34.7980   22.4300 O   0  0  0  0  0  0  0  0  0  0  0  0
  -25.0550  -34.0200   25.0090 H   0  0  0  0  0  0  0  0  0  0  0  0
  -24.3340  -36.7440   23.1010 C   0  0  0  0  0  1  0  0  0  0  0  0
  -25.5530  -36.3030   23.9250 C   0  0  0  0  0  3  0  0  0  0  0  0
  -27.6970  -37.1260   24.7930 C   0  0  0  0  0  1  0  0  0  0  0  0
  -26.6120  -37.3320   23.8360 N   0  0  0  0  0  0  0  0  0  0  0  0
  -26.2270  -38.2610   23.9860 H   0  0  0  0  0  0  0  0  0  0  0  0
  -26.4280  -31.6590   25.1320 C   0  0  1  0  0  0  0  0  0  0  0  0
  -25.3320  -31.4300   26.1990 C   0  0  0  0  0  1  0  0  0  0  0  0
  -26.9810  -30.2760   24.7150 C   0  0  0  0  0  1  0  0  0  0  0  0
  -27.5940  -32.4220   25.8060 C   0  0  0  0  0  1  0  0  0  0  0  0
  1  2  2  0
  1  4  1  0
  2  5  1  0
  3  6  1  0
  4  8  1  0
  4  3  2  0
  5 52  1  0
  5  6  2  0
  6  7  1  0
  9 23  1  0
 10 15  1  0
 11 12  1  0
 11 10  1  0
 13 12  1  0
 13 27  1  0
 13 14  1  0
 15  9  1  0
 15 14  1  0
 16  9  2  0
 18 17  1  0
 19 21  1  0
 19 23  1  0
 20  8  1  0
 20 17  1  0
 21 22  1  0
 21 20  1  0
 23 18  1  0
 24 25  2  0
 25 44  1  0
 26 25  1  0
 26 29  1  0
 27 28  1  0
 27 24  1  0
 28 26  2  0
 29 30  1  0
 30 31  2  0
 32 35  1  0
 32 31  1  0
 33 32  2  0
 34 33  1  0
 34 29  2  0
 35 36  1  0
 36 41  2  0
 36 37  1  0
 37 38  2  0
 38 39  1  0
 39 43  1  0
 40 39  2  0
 41 40  1  0
 42 41  1  0
 44 45  1  0
 45 48  1  0
 45 47  1  0
 46 44  2  0
 49 50  1  0
 49 24  1  0
 51 49  1  0
 53 52  1  0
 53 54  1  0
 55 54  1  0
 56 55  1  0
 57 68  2  0
 58 56  1  0
 58 63  1  0
 59 67  1  0
 59 69  1  0
 60 66  1  0
 60 62  1  0
 61 67  1  0
 62 63  2  0
 62 61  1  0
 64 58  2  0
 65 64  1  0
 65 60  2  0
 66 59  1  0
 67 57  1  0
 69 71  2  0
 70 69  1  0
 72 70  1  0
 73 82  2  0
 73 78  1  0
 74 70  1  0
 74 78  1  0
 75 74  1  0
 76 77  1  0
 76 75  1  0
 77 73  1  0
 78 79  2  0
 79 80  1  0
 81 80  2  0
 82 81  1  0
 83 57  1  0
 83 84  1  0
 83 93  1  0
 84 87  1  0
 85 89  1  0
 85 84  1  0
 86 85  2  0
 89 88  1  0
 91 89  1  0
 91 92  1  0
 91 90  1  0
 93 96  1  1
 93 94  1  0
 95 93  1  0
M  ISO  4   9 100  23 100  55 101  56 101
M  END
>  <TORSDO>  (71) 
F 21

>  <SCORE>  (71) 
-11.933

>  <name>  (71) 
71

>  <ligand_id>  (71) 
71

>  <original_smiles>  (71) 
[H]c1c([H])c([H])c2c(c1[H])C([H])([H])C([H])([H])C([H])([H])C2([H])N([H])C(=O)C1([H])N(C(=O)C([H])(N([H])C(=O)C([H])(N([H])C([H])([H])[H])C([H])([H])[H])C(C([H])([H])[H])(C([H])([H])[H])C([H])([H])[H])C([H])([H])c2c([H])c(OC([H])([H])C([H])([H])C([H])([H])C([H])([H])c3c([H])c([H])c(C([H])([H])C4([H])C([H])([H])C([H])([H])N(C(=O)N5C([H])([H])C([H])([H])C([H])([H])C([H])(n6nc(-c7c([H])c([H])c(Oc8c([H])c([H])c(F)c([H])c8F)c([H])c7[H])c(C(=O)N([H])[H])c6N([H])[H])C5([H])[H])C([H])([H])C4([H])C([H])([H])[H])c([H])c3F)c([H])c([H])c2C1([H])[H]

>  <smiles>  (71) 
[H]c1c([H])c([H])c2c(c1[H])C([H])([H])C([H])([H])C([H])([H])C2([H])N([H])C(=O)C1([H])N(C(=O)C([H])(N([H])C(=O)C([H])(N([H])C([H])([H])[H])C([H])([H])[H])C(C([H])([H])[H])(C([H])([H])[H])C([H])([H])[H])C([H])([H])c2c([H])c(OC([H])([H])C([H])([H])C([H])([H])C([H])([H])c3c([H])c([H])c(C([H])([H])C4([H])C([H])([H])C([H])([H])N(C(=O)N5C([H])([H])C([H])([H])C([H])([H])C([H])(n6nc(-c7c([H])c([H])c(Oc8c([H])c([H])c(F)c([H])c8F)c([H])c7[H])c(C(=O)N([H])[H])c6N([H])[H])C5([H])[H])C([H])([H])C4([H])C([H])([H])[H])c([H])c3F)c([H])c([H])c2C1([H])[H]

$$$$
72:0:0
     RDKit          3D

 92100  0  0  1  0  0  0  0  0999 V2000
  -26.3780  -20.9370   18.3560 C   0  0  0  0  0  3  0  0  0  0  0  0
  -26.1950  -22.2940   18.0650 C   0  0  0  0  0  3  0  0  0  0  0  0
  -27.4890  -20.5320   19.1150 C   0  0  0  0  0  3  0  0  0  0  0  0
  -27.1000  -23.2390   18.5710 C   0  0  0  0  0  3  0  0  0  0  0  0
  -28.4290  -21.4610   19.6340 C   0  0  0  0  0  0  0  0  0  0  0  0
  -28.1940  -22.8730   19.3910 C   0  0  0  0  0  0  0  0  0  0  0  0
  -29.6530  -20.8500   20.2880 C   0  0  0  0  0  0  0  0  0  0  0  0
  -30.7600  -21.3920   20.2450 O   0  0  0  0  0  0  0  0  0  0  0  0
  -29.5360  -19.5070   21.0810 C   0  0  0  0  0  2  0  0  0  0  0  0
  -29.7360  -18.1340   20.3340 C   0  0  0  0  0  2  0  0  0  0  0  0
  -30.4140  -17.0070   21.1920 C   0  0  0  0  0  2  0  0  0  0  0  0
  -30.7300  -14.5700   20.4530 C   0  0  0  0  0  0  0  0  0  0  0  0
  -30.4680  -12.3760   19.3360 C   0  0  0  0  0  2  0  0  0  0  0  0
  -29.5400  -12.5460   18.1130 C   0  0  0  0  0  2  0  0  0  0  0  0
  -28.0590  -12.4140   18.5230 C   0  0  0  0  0  2  0  0  0  0  0  0
  -27.7010  -13.2700   19.7680 C   0  0  0  0  0  3  0  0  0  0  0  0
  -28.7430  -13.0730   20.8930 C   0  0  0  0  0  2  0  0  0  0  0  0
  -30.0680  -13.3820   20.3330 N   0  0  0  0  0  0  0  0  0  0  0  0
  -31.8860  -14.7280   20.0530 O   0  0  0  0  0  0  0  0  0  0  0  0
  -29.9890  -15.6140   20.8970 N   0  0  0  0  0  0  0  0  0  0  0  0
  -29.0390  -15.3810   21.1460 H   0  0  0  0  0  0  0  0  0  0  0  0
  -25.2960  -13.8950   20.4310 C   0  0  0  0  0  0  0  0  0  0  0  0
  -24.2190  -13.1320   20.7940 C   0  0  0  0  0  0  0  0  0  0  0  0
  -24.6740  -11.7780   20.7940 C   0  0  0  0  0  0  0  0  0  0  0  0
  -26.3400  -13.0060   20.2310 N   0  0  0  0  0  0  0  0  0  0  0  0
  -25.9700  -11.7290   20.5080 N   0  0  0  0  0  0  0  0  0  0  0  0
  -23.9400  -10.5230   20.9920 C   0  0  0  0  0  0  0  0  0  0  0  0
  -24.3550   -9.5680   21.9460 C   0  0  0  0  0  3  0  0  0  0  0  0
  -23.6210   -8.3770   22.1310 C   0  0  0  0  0  3  0  0  0  0  0  0
  -22.4590   -8.1310   21.3610 C   0  0  0  0  0  0  0  0  0  0  0  0
  -22.0640   -9.0740   20.3970 C   0  0  0  0  0  3  0  0  0  0  0  0
  -22.7980  -10.2570   20.2100 C   0  0  0  0  0  3  0  0  0  0  0  0
  -21.6990   -6.9910   21.4540 O   0  0  0  0  0  0  0  0  0  0  0  0
  -21.6290   -6.2660   22.6170 C   0  0  0  0  0  0  0  0  0  0  0  0
  -21.1870   -6.8400   23.8280 C   0  0  0  0  0  3  0  0  0  0  0  0
  -21.0610   -6.0430   24.9820 C   0  0  0  0  0  3  0  0  0  0  0  0
  -21.3700   -4.6700   24.9260 C   0  0  0  0  0  0  0  0  0  0  0  0
  -21.8060   -4.0940   23.7200 C   0  0  0  0  0  3  0  0  0  0  0  0
  -21.9330   -4.8900   22.5680 C   0  0  0  0  0  0  0  0  0  0  0  0
  -22.3330   -4.3260   21.4030 F   0  0  0  0  0  0  0  0  0  0  0  0
  -21.2420   -3.9000   26.0330 F   0  0  0  0  0  0  0  0  0  0  0  0
  -22.8180  -13.6200   21.0340 C   0  0  0  0  0  0  0  0  0  0  0  0
  -22.0730  -12.9410   21.8990 N   0  0  0  0  0  0  0  0  0  0  0  0
  -22.3940  -14.6390   20.4910 O   0  0  0  0  0  0  0  0  0  0  0  0
  -22.4280  -12.1170   22.3600 H   0  0  0  0  0  0  0  0  0  0  0  0
  -21.1340  -13.2500   22.1040 H   0  0  0  0  0  0  0  0  0  0  0  0
  -25.4690  -15.2610   20.2320 N   0  0  0  0  0  0  0  0  0  0  0  0
  -24.7020  -15.9200   20.3180 H   0  0  0  0  0  0  0  0  0  0  0  0
  -26.3220  -15.6910   19.8970 H   0  0  0  0  0  0  0  0  0  0  0  0
  -29.0270  -24.0710   19.9280 C   0  0  0  0  0  2  0  0  0  0  0  0
  -28.1980  -25.2300   20.6140 C   0  0  0  0  0  2  0  0  0  0  0  0
  -28.3580  -26.5960   20.1110 O   0  0  0  0  0  0  0  0  0  0  0  0
  -24.5990  -31.8790   23.2180 C   0  0  0  0  0  0  0  0  0  0  0  0
  -27.2200  -27.3950   20.1210 C   0  0  0  0  0  0  0  0  0  0  0  0
  -23.3910  -30.4880   21.5720 C   0  0  0  0  0  3  0  0  0  0  0  0
  -24.8400  -28.9540   20.1370 C   0  0  0  0  0  0  0  0  0  0  0  0
  -25.9250  -30.8280   21.3780 C   0  0  0  0  0  2  0  0  0  0  0  0
  -26.0060  -29.4580   20.7270 C   0  0  0  0  0  0  0  0  0  0  0  0
  -27.2010  -28.6890   20.7100 C   0  0  0  0  0  3  0  0  0  0  0  0
  -26.0330  -26.9300   19.5150 C   0  0  0  0  0  3  0  0  0  0  0  0
  -24.8510  -27.6920   19.5250 C   0  0  0  0  0  3  0  0  0  0  0  0
  -23.6010  -29.8210   20.1890 C   0  0  0  0  0  2  0  0  0  0  0  0
  -24.6570  -31.0820   22.1130 N   0  0  0  0  0  0  0  0  0  0  0  0
  -23.5180  -32.1500   23.7600 O   0  0  0  0  0  0  0  0  0  0  0  0
  -22.7380  -29.4620   22.5290 C   0  0  0  0  0  0  0  0  0  0  0  0
  -21.4120  -29.2830   22.4070 N   0  0  0  0  0  0  0  0  0  0  0  0
  -23.4230  -28.8300   23.3380 O   0  0  0  0  0  0  0  0  0  0  0  0
  -20.9210  -29.8440   21.7240 H   0  0  0  0  0  0  0  0  0  0  0  0
  -18.0390  -28.0860   22.9090 C   0  0  0  0  0  0  0  0  0  0  0  0
  -20.5980  -28.3430   23.1750 C   0  0  0  0  0  3  0  0  0  0  0  0
  -20.6990  -26.9140   22.5930 C   0  0  0  0  0  2  0  0  0  0  0  0
  -19.5930  -26.5960   21.5810 C   0  0  0  0  0  2  0  0  0  0  0  0
  -18.2120  -26.7390   22.2290 C   0  0  0  0  0  2  0  0  0  0  0  0
  -19.1590  -28.8450   23.3400 C   0  0  0  0  0  0  0  0  0  0  0  0
  -18.9420  -30.1060   23.9380 C   0  0  0  0  0  3  0  0  0  0  0  0
  -17.6380  -30.6080   24.1090 C   0  0  0  0  0  3  0  0  0  0  0  0
  -16.5330  -29.8460   23.6940 C   0  0  0  0  0  3  0  0  0  0  0  0
  -16.7330  -28.5870   23.1010 C   0  0  0  0  0  3  0  0  0  0  0  0
  -25.8850  -32.5090   23.8370 C   0  0  0  0  0  3  0  0  0  0  0  0
  -25.5770  -33.9070   24.1700 N   0  0  0  0  0  0  0  0  0  0  0  0
  -25.9090  -34.9600   23.4140 C   0  0  0  0  0  0  0  0  0  0  0  0
  -26.5800  -34.8600   22.3830 O   0  0  0  0  0  0  0  0  0  0  0  0
  -24.9840  -34.0580   24.9730 H   0  0  0  0  0  0  0  0  0  0  0  0
  -24.1860  -36.7560   23.0580 C   0  0  0  0  0  1  0  0  0  0  0  0
  -25.4220  -36.3490   23.8740 C   0  0  0  0  0  3  0  0  0  0  0  0
  -27.5540  -37.2250   24.7180 C   0  0  0  0  0  1  0  0  0  0  0  0
  -26.4570  -37.4000   23.7700 N   0  0  0  0  0  0  0  0  0  0  0  0
  -26.0510  -38.3200   23.9190 H   0  0  0  0  0  0  0  0  0  0  0  0
  -26.4030  -31.7360   25.1120 C   0  0  1  0  0  0  0  0  0  0  0  0
  -25.3110  -31.5020   26.1810 C   0  0  0  0  0  1  0  0  0  0  0  0
  -26.9820  -30.3580   24.7170 C   0  0  0  0  0  1  0  0  0  0  0  0
  -27.5570  -32.5270   25.7710 C   0  0  0  0  0  1  0  0  0  0  0  0
  1  3  1  0
  2  1  2  0
  2  4  1  0
  3  5  2  0
  4  6  2  0
  5  7  1  0
  6  5  1  0
  6 50  1  0
  7  9  1  0
  8  7  2  0
 10  9  1  0
 10 11  1  0
 12 20  1  0
 13 18  1  0
 14 15  1  0
 14 13  1  0
 16 15  1  0
 16 25  1  0
 16 17  1  0
 18 12  1  0
 18 17  1  0
 19 12  2  0
 20 21  1  0
 20 11  1  0
 22 23  2  0
 23 42  1  0
 24 23  1  0
 24 27  1  0
 25 22  1  0
 25 26  1  0
 26 24  2  0
 27 28  1  0
 28 29  2  0
 30 33  1  0
 30 29  1  0
 31 30  2  0
 32 31  1  0
 32 27  2  0
 33 34  1  0
 34 35  1  0
 35 36  2  0
 37 36  1  0
 37 41  1  0
 38 37  2  0
 39 34  2  0
 39 38  1  0
 40 39  1  0
 42 43  1  0
 43 46  1  0
 43 45  1  0
 44 42  2  0
 47 48  1  0
 47 22  1  0
 49 47  1  0
 50 51  1  0
 52 54  1  0
 52 51  1  0
 53 64  2  0
 54 59  1  0
 55 63  1  0
 55 65  1  0
 56 62  1  0
 56 58  1  0
 57 63  1  0
 58 57  1  0
 59 58  2  0
 60 61  1  0
 60 54  2  0
 61 56  2  0
 62 55  1  0
 63 53  1  0
 65 67  2  0
 66 65  1  0
 68 66  1  0
 69 78  2  0
 69 74  1  0
 70 66  1  0
 70 74  1  0
 71 70  1  0
 72 73  1  0
 72 71  1  0
 73 69  1  0
 74 75  2  0
 75 76  1  0
 77 76  2  0
 78 77  1  0
 79 53  1  0
 79 80  1  0
 79 89  1  0
 80 83  1  0
 81 85  1  0
 81 80  1  0
 82 81  2  0
 85 84  1  0
 87 85  1  0
 87 88  1  0
 87 86  1  0
 89 92  1  1
 89 90  1  0
 91 89  1  0
M  ISO  4  12 100  20 100  51 101  52 101
M  END
>  <TORSDO>  (72) 
F 22

>  <SCORE>  (72) 
-13.175

>  <name>  (72) 
72

>  <ligand_id>  (72) 
72

>  <original_smiles>  (72) 
[H]c1c([H])c([H])c(C([H])([H])C([H])([H])Oc2c([H])c([H])c3c(c2[H])C([H])([H])N(C(=O)C([H])(N([H])C(=O)C([H])(N([H])C([H])([H])[H])C([H])([H])[H])C(C([H])([H])[H])(C([H])([H])[H])C([H])([H])[H])C([H])(C(=O)N([H])C2([H])c4c([H])c([H])c([H])c([H])c4C([H])([H])C([H])([H])C2([H])[H])C3([H])[H])c(C(=O)C([H])([H])C([H])([H])C([H])([H])N([H])C(=O)N2C([H])([H])C([H])([H])C([H])([H])C([H])(n3nc(-c4c([H])c([H])c(Oc5c([H])c([H])c(F)c([H])c5F)c([H])c4[H])c(C(=O)N([H])[H])c3N([H])[H])C2([H])[H])c1[H]

>  <smiles>  (72) 
[H]c1c([H])c([H])c(C([H])([H])C([H])([H])Oc2c([H])c([H])c3c(c2[H])C([H])([H])N(C(=O)C([H])(N([H])C(=O)C([H])(N([H])C([H])([H])[H])C([H])([H])[H])C(C([H])([H])[H])(C([H])([H])[H])C([H])([H])[H])C([H])(C(=O)N([H])C2([H])c4c([H])c([H])c([H])c([H])c4C([H])([H])C([H])([H])C2([H])[H])C3([H])[H])c(C(=O)C([H])([H])C([H])([H])C([H])([H])N([H])C(=O)N2C([H])([H])C([H])([H])C([H])([H])C([H])(n3nc(-c4c([H])c([H])c(Oc5c([H])c([H])c(F)c([H])c5F)c([H])c4[H])c(C(=O)N([H])[H])c3N([H])[H])C2([H])[H])c1[H]

$$$$
73:0:0
     RDKit          3D

 98105  0  0  1  0  0  0  0  0999 V2000
  -26.4230  -22.5920   21.8950 C   0  0  0  0  0  2  0  0  0  0  0  0
  -25.3830  -23.7130   21.9850 C   0  0  0  0  0  2  0  0  0  0  0  0
  -24.9030  -26.1860   21.7980 C   0  0  0  0  0  1  0  0  0  0  0  0
  -25.9770  -25.0930   21.6470 C   0  0  0  0  0  3  0  0  0  0  0  0
  -26.5800  -25.0980   20.2900 N   0  0  0  0  0  4  0  0  0  0  0  0
  -26.9370  -24.1750   20.0940 H   0  0  0  0  0  0  0  0  0  0  0  0
  -25.8550  -25.2760   19.6130 H   0  0  0  0  0  0  0  0  0  0  0  0
  -27.7030  -26.0530   20.1010 C   0  0  0  0  0  2  0  0  0  0  0  0
  -27.9160  -26.4300   18.6120 C   0  0  0  0  0  2  0  0  0  0  0  0
  -27.7740  -27.8400   18.4030 O   0  0  0  0  0  0  0  0  0  0  0  0
  -24.4710  -31.8090   23.2550 C   0  0  0  0  0  0  0  0  0  0  0  0
  -26.5740  -28.4160   18.7660 C   0  0  0  0  0  0  0  0  0  0  0  0
  -22.9960  -30.6400   21.6500 C   0  0  0  0  0  3  0  0  0  0  0  0
  -24.1590  -29.5990   19.6380 C   0  0  0  0  0  0  0  0  0  0  0  0
  -25.3800  -31.3110   20.9930 C   0  0  0  0  0  2  0  0  0  0  0  0
  -25.3870  -30.1230   20.0560 C   0  0  0  0  0  0  0  0  0  0  0  0
  -26.5970  -29.5410   19.6170 C   0  0  0  0  0  3  0  0  0  0  0  0
  -25.3240  -27.9040   18.3440 C   0  0  0  0  0  3  0  0  0  0  0  0
  -24.1200  -28.4860   18.7840 C   0  0  0  0  0  3  0  0  0  0  0  0
  -22.9100  -30.2810   20.1440 C   0  0  0  0  0  2  0  0  0  0  0  0
  -24.3110  -31.2590   22.0180 N   0  0  0  0  0  0  0  0  0  0  0  0
  -23.5350  -31.8480   24.0650 O   0  0  0  0  0  0  0  0  0  0  0  0
  -22.6590  -29.3790   22.4770 C   0  0  0  0  0  0  0  0  0  0  0  0
  -21.4100  -28.8990   22.3540 N   0  0  0  0  0  0  0  0  0  0  0  0
  -23.5130  -28.8390   23.1850 O   0  0  0  0  0  0  0  0  0  0  0  0
  -20.7680  -29.4040   21.7580 H   0  0  0  0  0  0  0  0  0  0  0  0
  -18.5530  -26.6960   22.4910 C   0  0  0  0  0  0  0  0  0  0  0  0
  -20.8750  -27.7070   23.0110 C   0  0  0  0  0  3  0  0  0  0  0  0
  -21.4620  -26.4160   22.3930 C   0  0  0  0  0  2  0  0  0  0  0  0
  -20.6000  -25.8430   21.2640 C   0  0  0  0  0  2  0  0  0  0  0  0
  -19.1910  -25.5170   21.7730 C   0  0  0  0  0  2  0  0  0  0  0  0
  -19.3430  -27.7330   23.0530 C   0  0  0  0  0  0  0  0  0  0  0  0
  -18.6980  -28.8260   23.6710 C   0  0  0  0  0  3  0  0  0  0  0  0
  -17.2940  -28.8910   23.7350 C   0  0  0  0  0  3  0  0  0  0  0  0
  -16.5160  -27.8530   23.1940 C   0  0  0  0  0  3  0  0  0  0  0  0
  -17.1460  -26.7550   22.5780 C   0  0  0  0  0  3  0  0  0  0  0  0
  -25.8300  -32.4380   23.7000 C   0  0  0  0  0  3  0  0  0  0  0  0
  -26.5450  -31.6280   24.8510 C   0  0  1  0  0  0  0  0  0  0  0  0
  -25.6170  -31.2880   26.0380 C   0  0  0  0  0  1  0  0  0  0  0  0
  -27.1280  -30.3000   24.3110 C   0  0  0  0  0  1  0  0  0  0  0  0
  -27.7400  -32.4420   25.3990 C   0  0  0  0  0  1  0  0  0  0  0  0
  -25.5550  -33.8170   24.1260 N   0  0  0  0  0  0  0  0  0  0  0  0
  -25.7910  -34.9060   23.3830 C   0  0  0  0  0  0  0  0  0  0  0  0
  -26.3380  -34.8540   22.2770 O   0  0  0  0  0  0  0  0  0  0  0  0
  -25.0590  -33.9330   24.9990 H   0  0  0  0  0  0  0  0  0  0  0  0
  -24.0330  -36.7030   23.2940 C   0  0  0  0  0  1  0  0  0  0  0  0
  -25.3510  -36.2680   23.9550 C   0  0  0  0  0  3  0  0  0  0  0  0
  -27.5550  -37.1280   24.6090 C   0  0  0  0  0  1  0  0  0  0  0  0
  -26.3640  -37.3320   23.7900 N   0  0  0  0  0  0  0  0  0  0  0  0
  -25.9720  -38.2420   24.0160 H   0  0  0  0  0  0  0  0  0  0  0  0
  -25.8420  -21.2840   21.3330 C   0  0  0  0  0  2  0  0  0  0  0  0
  -26.8170  -20.5980   20.3670 C   0  0  0  0  0  2  0  0  0  0  0  0
  -26.7480  -21.1780   18.9470 C   0  0  0  0  0  2  0  0  0  0  0  0
  -28.0420  -21.8830   18.5270 C   0  0  0  0  0  2  0  0  0  0  0  0
  -28.3640  -21.6160   17.0590 C   0  0  0  0  0  2  0  0  0  0  0  0
  -29.5090  -22.5010   16.5430 C   0  0  0  0  0  2  0  0  0  0  0  0
  -30.8310  -21.7320   16.4750 C   0  0  0  0  0  2  0  0  0  0  0  0
  -31.4240  -21.4820   17.8710 C   0  0  0  0  0  2  0  0  0  0  0  0
  -32.7170  -20.6640   17.8120 C   0  0  0  0  0  2  0  0  0  0  0  0
  -33.0070  -19.9620   19.1400 C   0  0  0  0  0  2  0  0  0  0  0  0
  -32.6530  -17.5110   19.0450 C   0  0  0  0  0  0  0  0  0  0  0  0
  -33.0340  -15.7200   20.6560 C   0  0  0  0  0  2  0  0  0  0  0  0
  -32.7680  -14.2820   20.1990 C   0  0  0  0  0  2  0  0  0  0  0  0
  -31.2910  -13.9240   20.4110 C   0  0  0  0  0  2  0  0  0  0  0  0
  -30.3400  -14.9630   19.7680 C   0  0  0  0  0  3  0  0  0  0  0  0
  -30.7140  -16.4080   20.1790 C   0  0  0  0  0  2  0  0  0  0  0  0
  -32.1480  -16.6310   19.9300 N   0  0  0  0  0  0  0  0  0  0  0  0
  -33.6780  -17.3260   18.3830 O   0  0  0  0  0  0  0  0  0  0  0  0
  -32.2110  -18.7450   19.3100 N   0  0  0  0  0  0  0  0  0  0  0  0
  -31.4320  -18.8010   19.9510 H   0  0  0  0  0  0  0  0  0  0  0  0
  -27.8270  -15.4670   20.0390 C   0  0  0  0  0  0  0  0  0  0  0  0
  -26.7580  -14.6630   20.3330 C   0  0  0  0  0  0  0  0  0  0  0  0
  -27.2940  -13.3510   20.5270 C   0  0  0  0  0  0  0  0  0  0  0  0
  -28.9450  -14.6480   20.0750 N   0  0  0  0  0  0  0  0  0  0  0  0
  -28.6170  -13.3760   20.4220 N   0  0  0  0  0  0  0  0  0  0  0  0
  -26.6200  -12.0660   20.7510 C   0  0  0  0  0  0  0  0  0  0  0  0
  -26.4060  -11.5630   22.0540 C   0  0  0  0  0  3  0  0  0  0  0  0
  -25.7400  -10.3330   22.2470 C   0  0  0  0  0  3  0  0  0  0  0  0
  -25.2760   -9.5950   21.1310 C   0  0  0  0  0  0  0  0  0  0  0  0
  -25.5110  -10.0890   19.8350 C   0  0  0  0  0  3  0  0  0  0  0  0
  -26.1800  -11.3100   19.6460 C   0  0  0  0  0  3  0  0  0  0  0  0
  -24.6420   -8.3790   21.2200 O   0  0  0  0  0  0  0  0  0  0  0  0
  -23.5440   -8.1970   22.0200 C   0  0  0  0  0  0  0  0  0  0  0  0
  -22.3310   -8.8820   21.7890 C   0  0  0  0  0  3  0  0  0  0  0  0
  -21.2050   -8.6140   22.5920 C   0  0  0  0  0  3  0  0  0  0  0  0
  -21.2860   -7.6580   23.6230 C   0  0  0  0  0  0  0  0  0  0  0  0
  -22.4920   -6.9710   23.8530 C   0  0  0  0  0  3  0  0  0  0  0  0
  -23.6160   -7.2390   23.0520 C   0  0  0  0  0  0  0  0  0  0  0  0
  -24.7680   -6.5590   23.2630 F   0  0  0  0  0  0  0  0  0  0  0  0
  -20.2040   -7.3940   24.3900 F   0  0  0  0  0  0  0  0  0  0  0  0
  -25.3100  -15.0610   20.3410 C   0  0  0  0  0  0  0  0  0  0  0  0
  -24.4980  -14.4040   21.1620 N   0  0  0  0  0  0  0  0  0  0  0  0
  -24.9000  -15.9900   19.6470 O   0  0  0  0  0  0  0  0  0  0  0  0
  -24.8400  -13.6550   21.7450 H   0  0  0  0  0  0  0  0  0  0  0  0
  -23.5220  -14.6590   21.2110 H   0  0  0  0  0  0  0  0  0  0  0  0
  -27.9400  -16.8180   19.7290 N   0  0  0  0  0  0  0  0  0  0  0  0
  -27.1350  -17.4290   19.6490 H   0  0  0  0  0  0  0  0  0  0  0  0
  -28.8110  -17.2810   19.5040 H   0  0  0  0  0  0  0  0  0  0  0  0
  1  2  1  0
  4  3  1  0
  4  2  1  0
  5  4  1  0
  6  5  1  0
  7  5  1  0
  8  5  1  0
  9  8  1  0
 10  9  1  0
 10 12  1  0
 11 22  2  0
 12 17  1  0
 13 21  1  0
 13 23  1  0
 14 16  1  0
 14 20  1  0
 15 21  1  0
 16 15  1  0
 17 16  2  0
 18 12  2  0
 18 19  1  0
 19 14  2  0
 20 13  1  0
 21 11  1  0
 23 25  2  0
 24 23  1  0
 26 24  1  0
 27 36  2  0
 27 32  1  0
 28 24  1  0
 28 32  1  0
 29 28  1  0
 30 31  1  0
 30 29  1  0
 31 27  1  0
 32 33  2  0
 33 34  1  0
 35 34  2  0
 36 35  1  0
 37 11  1  0
 37 42  1  0
 37 38  1  0
 38 41  1  1
 38 39  1  0
 40 38  1  0
 42 45  1  0
 43 47  1  0
 43 42  1  0
 44 43  2  0
 47 46  1  0
 49 47  1  0
 49 50  1  0
 49 48  1  0
 51  1  1  0
 52 51  1  0
 53 52  1  0
 54 53  1  0
 55 54  1  0
 56 55  1  0
 57 56  1  0
 57 58  1  0
 59 58  1  0
 59 60  1  0
 60 69  1  0
 61 69  1  0
 61 67  1  0
 63 64  1  0
 63 62  1  0
 65 74  1  0
 65 66  1  0
 65 64  1  0
 67 66  1  0
 67 62  1  0
 68 61  2  0
 69 70  1  0
 71 74  1  0
 71 72  2  0
 72 91  1  0
 72 73  1  0
 73 76  1  0
 74 75  1  0
 75 73  2  0
 76 77  1  0
 77 78  2  0
 79 82  1  0
 79 78  1  0
 80 79  2  0
 81 80  1  0
 81 76  2  0
 82 83  1  0
 83 88  1  0
 84 83  2  0
 84 85  1  0
 85 86  2  0
 86 87  1  0
 86 90  1  0
 88 89  1  0
 88 87  2  0
 91 92  1  0
 92 95  1  0
 92 94  1  0
 93 91  2  0
 96 71  1  0
 97 96  1  0
 98 96  1  0
M  ISO  4   9 101  10 101  61 100  69 100
M  END
>  <TORSDO>  (73) 
F 31

>  <SCORE>  (73) 
1.004

>  <name>  (73) 
73

>  <ligand_id>  (73) 
73

>  <original_smiles>  (73) 
[H]c1c([H])c([H])c2c(c1[H])C([H])([H])C([H])([H])C([H])([H])C2([H])N([H])C(=O)C1([H])N(C(=O)C([H])(N([H])C(=O)C([H])(N([H])C([H])([H])[H])C([H])([H])[H])C(C([H])([H])[H])(C([H])([H])[H])C([H])([H])[H])C([H])([H])c2c([H])c(OC([H])([H])C([H])([H])[N+]([H])([H])C([H])(C([H])([H])[H])C([H])([H])C([H])([H])C([H])([H])C([H])([H])C([H])([H])C([H])([H])C([H])([H])C([H])([H])C([H])([H])C([H])([H])C([H])([H])C([H])([H])N([H])C(=O)N3C([H])([H])C([H])([H])C([H])([H])C([H])(n4nc(-c5c([H])c([H])c(Oc6c([H])c([H])c(F)c([H])c6F)c([H])c5[H])c(C(=O)N([H])[H])c4N([H])[H])C3([H])[H])c([H])c([H])c2C1([H])[H]

>  <smiles>  (73) 
[H]c1c([H])c([H])c2c(c1[H])C([H])([H])C([H])([H])C([H])([H])C2([H])N([H])C(=O)C1([H])N(C(=O)C([H])(N([H])C(=O)C([H])(N([H])C([H])([H])[H])C([H])([H])[H])C(C([H])([H])[H])(C([H])([H])[H])C([H])([H])[H])C([H])([H])c2c([H])c(OC([H])([H])C([H])([H])[N+]([H])([H])C([H])(C([H])([H])[H])C([H])([H])C([H])([H])C([H])([H])C([H])([H])C([H])([H])C([H])([H])C([H])([H])C([H])([H])C([H])([H])C([H])([H])C([H])([H])C([H])([H])N([H])C(=O)N3C([H])([H])C([H])([H])C([H])([H])C([H])(n4nc(-c5c([H])c([H])c(Oc6c([H])c([H])c(F)c([H])c6F)c([H])c5[H])c(C(=O)N([H])[H])c4N([H])[H])C3([H])[H])c([H])c([H])c2C1([H])[H]

$$$$
74:0:0
     RDKit          3D

 95104  0  0  1  0  0  0  0  0999 V2000
  -28.3670  -20.6900   19.8190 C   0  0  0  0  0  3  0  0  0  0  0  0
  -30.0140  -20.1490   18.1150 C   0  0  0  0  0  3  0  0  0  0  0  0
  -28.2830  -22.0090   19.3280 C   0  0  0  0  0  3  0  0  0  0  0  0
  -29.9360  -21.4710   17.6290 C   0  0  0  0  0  3  0  0  0  0  0  0
  -29.2260  -19.7470   19.2110 C   0  0  0  0  0  0  0  0  0  0  0  0
  -29.0640  -22.4090   18.2200 C   0  0  0  0  0  0  0  0  0  0  0  0
  -29.2990  -18.3170   19.7400 C   0  0  0  0  0  2  0  0  0  0  0  0
  -30.4740  -18.1160   20.7180 C   0  0  0  0  0  2  0  0  0  0  0  0
  -31.3080  -15.8420   23.6400 C   0  0  0  0  0  2  0  0  0  0  0  0
  -30.9070  -17.1910   23.0540 C   0  0  0  0  0  2  0  0  0  0  0  0
  -31.7960  -15.0240   22.4450 C   0  0  0  0  0  2  0  0  0  0  0  0
  -30.3600  -16.8870   21.6520 C   0  0  0  0  0  3  0  0  0  0  0  0
  -31.1320  -15.6260   21.1870 C   0  0  0  0  0  3  0  0  0  0  0  0
  -30.3240  -14.0820   19.3870 C   0  0  0  0  0  0  0  0  0  0  0  0
  -29.6490  -12.1160   18.0490 C   0  0  0  0  0  2  0  0  0  0  0  0
  -28.4730  -12.4140   17.1040 C   0  0  0  0  0  2  0  0  0  0  0  0
  -27.1260  -12.2480   17.8300 C   0  0  0  0  0  2  0  0  0  0  0  0
  -27.0880  -12.9980   19.1860 C   0  0  0  0  0  3  0  0  0  0  0  0
  -28.3390  -12.6690   20.0270 C   0  0  0  0  0  2  0  0  0  0  0  0
  -29.5370  -12.9880   19.2270 N   0  0  0  0  0  0  0  0  0  0  0  0
  -31.1480  -14.4600   18.5470 O   0  0  0  0  0  0  0  0  0  0  0  0
  -30.2260  -14.6470   20.5970 N   0  0  0  0  0  0  0  0  0  0  0  0
  -29.5230  -14.2550   21.2060 H   0  0  0  0  0  0  0  0  0  0  0  0
  -24.8880  -13.5810   20.3910 C   0  0  0  0  0  0  0  0  0  0  0  0
  -23.9090  -12.7960   20.9390 C   0  0  0  0  0  0  0  0  0  0  0  0
  -24.3410  -11.4450   20.7560 C   0  0  0  0  0  0  0  0  0  0  0  0
  -25.8560  -12.7100   19.9180 N   0  0  0  0  0  0  0  0  0  0  0  0
  -25.5380  -11.4170   20.1880 N   0  0  0  0  0  0  0  0  0  0  0  0
  -23.6560  -10.1770   21.0390 C   0  0  0  0  0  0  0  0  0  0  0  0
  -24.2070   -9.2220   21.9220 C   0  0  0  0  0  3  0  0  0  0  0  0
  -23.5210   -8.0180   22.1910 C   0  0  0  0  0  3  0  0  0  0  0  0
  -22.2730   -7.7600   21.5770 C   0  0  0  0  0  0  0  0  0  0  0  0
  -21.7420   -8.7030   20.6800 C   0  0  0  0  0  3  0  0  0  0  0  0
  -22.4270   -9.8980   20.4090 C   0  0  0  0  0  3  0  0  0  0  0  0
  -21.5480   -6.6060   21.7590 O   0  0  0  0  0  0  0  0  0  0  0  0
  -21.5830   -5.9130   22.9420 C   0  0  0  0  0  0  0  0  0  0  0  0
  -21.1960   -6.5040   24.1640 C   0  0  0  0  0  3  0  0  0  0  0  0
  -21.1820   -5.7350   25.3440 C   0  0  0  0  0  3  0  0  0  0  0  0
  -21.5420   -4.3750   25.3040 C   0  0  0  0  0  0  0  0  0  0  0  0
  -21.9220   -3.7830   24.0860 C   0  0  0  0  0  3  0  0  0  0  0  0
  -21.9390   -4.5500   22.9080 C   0  0  0  0  0  0  0  0  0  0  0  0
  -22.2850   -3.9680   21.7340 F   0  0  0  0  0  0  0  0  0  0  0  0
  -21.5210   -3.6330   26.4360 F   0  0  0  0  0  0  0  0  0  0  0  0
  -22.6030  -13.2610   21.5140 C   0  0  0  0  0  0  0  0  0  0  0  0
  -22.0800  -12.5440   22.5030 N   0  0  0  0  0  0  0  0  0  0  0  0
  -22.0640  -14.2950   21.1220 O   0  0  0  0  0  0  0  0  0  0  0  0
  -22.5370  -11.7100   22.8380 H   0  0  0  0  0  0  0  0  0  0  0  0
  -21.2140  -12.8380   22.9320 H   0  0  0  0  0  0  0  0  0  0  0  0
  -25.0290  -14.9580   20.2430 N   0  0  0  0  0  0  0  0  0  0  0  0
  -24.3130  -15.6130   20.5370 H   0  0  0  0  0  0  0  0  0  0  0  0
  -25.8140  -15.4070   19.7880 H   0  0  0  0  0  0  0  0  0  0  0  0
  -28.9660  -23.8040   17.5970 C   0  0  0  0  0  2  0  0  0  0  0  0
  -27.9630  -24.8100   18.2080 C   0  0  0  0  0  2  0  0  0  0  0  0
  -28.3040  -25.3450   19.6140 C   0  0  0  0  0  2  0  0  0  0  0  0
  -28.2890  -26.7780   19.6830 O   0  0  0  0  0  0  0  0  0  0  0  0
  -24.4780  -31.7280   23.0640 C   0  0  0  0  0  0  0  0  0  0  0  0
  -27.0780  -27.4380   19.7440 C   0  0  0  0  0  0  0  0  0  0  0  0
  -23.2340  -30.3600   21.4190 C   0  0  0  0  0  3  0  0  0  0  0  0
  -24.6560  -28.8940   19.8940 C   0  0  0  0  0  0  0  0  0  0  0  0
  -25.7430  -30.7650   21.1460 C   0  0  0  0  0  2  0  0  0  0  0  0
  -25.8260  -29.4210   20.4550 C   0  0  0  0  0  0  0  0  0  0  0  0
  -27.0380  -28.7040   20.3700 C   0  0  0  0  0  3  0  0  0  0  0  0
  -25.8850  -26.9110   19.1990 C   0  0  0  0  0  3  0  0  0  0  0  0
  -24.6810  -27.6360   19.2630 C   0  0  0  0  0  3  0  0  0  0  0  0
  -23.4040  -29.7320   20.0090 C   0  0  0  0  0  2  0  0  0  0  0  0
  -24.5040  -30.9640   21.9340 N   0  0  0  0  0  0  0  0  0  0  0  0
  -23.4130  -31.9620   23.6510 O   0  0  0  0  0  0  0  0  0  0  0  0
  -22.6330  -29.2940   22.3670 C   0  0  0  0  0  0  0  0  0  0  0  0
  -21.3270  -29.0300   22.2130 N   0  0  0  0  0  0  0  0  0  0  0  0
  -23.3390  -28.7100   23.1940 O   0  0  0  0  0  0  0  0  0  0  0  0
  -20.8180  -29.5580   21.5170 H   0  0  0  0  0  0  0  0  0  0  0  0
  -18.0430  -27.5640   22.5810 C   0  0  0  0  0  0  0  0  0  0  0  0
  -20.5550  -28.0420   22.9650 C   0  0  0  0  0  3  0  0  0  0  0  0
  -20.8030  -26.6130   22.4310 C   0  0  0  0  0  2  0  0  0  0  0  0
  -19.7830  -26.1780   21.3740 C   0  0  0  0  0  2  0  0  0  0  0  0
  -18.3630  -26.2210   21.9500 C   0  0  0  0  0  2  0  0  0  0  0  0
  -19.0720  -28.4270   23.0430 C   0  0  0  0  0  0  0  0  0  0  0  0
  -18.7210  -29.6800   23.5900 C   0  0  0  0  0  3  0  0  0  0  0  0
  -17.3720  -30.0690   23.6870 C   0  0  0  0  0  3  0  0  0  0  0  0
  -16.3570  -29.2060   23.2360 C   0  0  0  0  0  3  0  0  0  0  0  0
  -16.6950  -27.9560   22.6900 C   0  0  0  0  0  3  0  0  0  0  0  0
  -25.7760  -32.3590   23.6570 C   0  0  0  0  0  3  0  0  0  0  0  0
  -25.4600  -33.7340   24.0650 N   0  0  0  0  0  0  0  0  0  0  0  0
  -25.7280  -34.8250   23.3360 C   0  0  0  0  0  0  0  0  0  0  0  0
  -26.3460  -34.7800   22.2690 O   0  0  0  0  0  0  0  0  0  0  0  0
  -24.9120  -33.8410   24.9050 H   0  0  0  0  0  0  0  0  0  0  0  0
  -23.9460  -36.5890   23.1280 C   0  0  0  0  0  1  0  0  0  0  0  0
  -25.2280  -36.1820   23.8730 C   0  0  0  0  0  3  0  0  0  0  0  0
  -27.3740  -37.0730   24.6560 C   0  0  0  0  0  1  0  0  0  0  0  0
  -26.2310  -37.2650   23.7670 N   0  0  0  0  0  0  0  0  0  0  0  0
  -25.8180  -38.1690   23.9830 H   0  0  0  0  0  0  0  0  0  0  0  0
  -26.3580  -31.5430   24.8740 C   0  0  1  0  0  0  0  0  0  0  0  0
  -25.3030  -31.2130   25.9550 C   0  0  0  0  0  1  0  0  0  0  0  0
  -26.9770  -30.2120   24.3890 C   0  0  0  0  0  1  0  0  0  0  0  0
  -27.4970  -32.3450   25.5480 C   0  0  0  0  0  1  0  0  0  0  0  0
  2  5  1  0
  3  1  1  0
  4  2  2  0
  4  6  1  0
  5  7  1  0
  5  1  2  0
  6  3  2  0
  7  8  1  0
 10  9  1  0
 11  9  1  0
 12  8  1  0
 12 10  1  0
 13 22  1  0
 13 12  1  0
 13 11  1  0
 14 22  1  0
 15 20  1  0
 16 17  1  0
 16 15  1  0
 18 17  1  0
 18 27  1  0
 18 19  1  0
 20 14  1  0
 20 19  1  0
 21 14  2  0
 22 23  1  0
 24 25  2  0
 25 44  1  0
 26 25  1  0
 26 29  1  0
 27 28  1  0
 27 24  1  0
 28 26  2  0
 29 30  1  0
 30 31  2  0
 32 35  1  0
 32 31  1  0
 33 32  2  0
 34 33  1  0
 34 29  2  0
 35 36  1  0
 36 37  1  0
 37 38  2  0
 39 38  1  0
 39 43  1  0
 40 39  2  0
 41 36  2  0
 41 40  1  0
 42 41  1  0
 44 45  1  0
 45 47  1  0
 45 48  1  0
 46 44  2  0
 49 24  1  0
 49 50  1  0
 51 49  1  0
 52 53  1  0
 52  6  1  0
 53 54  1  0
 54 55  1  0
 55 57  1  0
 56 67  2  0
 57 62  1  0
 58 66  1  0
 58 68  1  0
 59 65  1  0
 59 61  1  0
 60 66  1  0
 61 60  1  0
 62 61  2  0
 63 64  1  0
 63 57  2  0
 64 59  2  0
 65 58  1  0
 66 56  1  0
 68 70  2  0
 69 68  1  0
 71 69  1  0
 72 81  2  0
 72 77  1  0
 73 69  1  0
 73 77  1  0
 74 73  1  0
 75 76  1  0
 75 74  1  0
 76 72  1  0
 77 78  2  0
 78 79  1  0
 80 79  2  0
 81 80  1  0
 82 56  1  0
 82 83  1  0
 82 92  1  0
 83 86  1  0
 84 88  1  0
 84 83  1  0
 85 84  2  0
 88 87  1  0
 90 88  1  0
 90 91  1  0
 90 89  1  0
 92 95  1  1
 92 93  1  0
 94 92  1  0
M  ISO  4  14 100  22 100  54 101  55 101
M  END
>  <TORSDO>  (74) 
F 22

>  <SCORE>  (74) 
-7.034

>  <name>  (74) 
74

>  <ligand_id>  (74) 
74

>  <original_smiles>  (74) 
[H]c1c([H])c([H])c2c(c1[H])C([H])([H])C([H])([H])C([H])([H])C2([H])N([H])C(=O)C1([H])N(C(=O)C([H])(N([H])C(=O)C([H])(N([H])C([H])([H])[H])C([H])([H])[H])C(C([H])([H])[H])(C([H])([H])[H])C([H])([H])[H])C([H])([H])c2c([H])c(OC([H])([H])C([H])([H])C([H])([H])c3c([H])c([H])c(C([H])([H])C([H])([H])C4([H])C([H])([H])C([H])([H])C([H])([H])C4([H])N([H])C(=O)N4C([H])([H])C([H])([H])C([H])([H])C([H])(n5nc(-c6c([H])c([H])c(Oc7c([H])c([H])c(F)c([H])c7F)c([H])c6[H])c(C(=O)N([H])[H])c5N([H])[H])C4([H])[H])c([H])c3[H])c([H])c([H])c2C1([H])[H]

>  <smiles>  (74) 
[H]c1c([H])c([H])c2c(c1[H])C([H])([H])C([H])([H])C([H])([H])C2([H])N([H])C(=O)C1([H])N(C(=O)C([H])(N([H])C(=O)C([H])(N([H])C([H])([H])[H])C([H])([H])[H])C(C([H])([H])[H])(C([H])([H])[H])C([H])([H])[H])C([H])([H])c2c([H])c(OC([H])([H])C([H])([H])C([H])([H])c3c([H])c([H])c(C([H])([H])C([H])([H])C4([H])C([H])([H])C([H])([H])C([H])([H])C4([H])N([H])C(=O)N4C([H])([H])C([H])([H])C([H])([H])C([H])(n5nc(-c6c([H])c([H])c(Oc7c([H])c([H])c(F)c([H])c7F)c([H])c6[H])c(C(=O)N([H])[H])c5N([H])[H])C4([H])[H])c([H])c3[H])c([H])c([H])c2C1([H])[H]

$$$$
75:0:0
     RDKit          3D

101110  0  0  1  0  0  0  0  0999 V2000
  -23.9300  -20.4630   24.2880 C   0  0  0  0  0  2  0  0  0  0  0  0
  -23.6490  -22.1910   25.9720 C   0  0  0  0  0  2  0  0  0  0  0  0
  -25.0420  -19.7510   25.0930 C   0  0  0  0  0  2  0  0  0  0  0  0
  -24.6980  -21.5550   26.9070 C   0  0  0  0  0  2  0  0  0  0  0  0
  -24.0830  -21.9640   24.5230 C   0  0  0  0  0  3  0  0  0  0  0  0
  -25.2130  -20.1900   26.5240 N   0  0  2  0  0  4  0  0  0  0  0  0
  -24.6660  -19.5420   27.0730 H   0  0  0  0  0  0  0  0  0  0  0  0
  -26.6300  -20.0720   26.9980 C   0  0  0  0  0  2  0  0  0  0  0  0
  -27.4400  -18.8260   26.5390 C   0  0  0  0  0  2  0  0  0  0  0  0
  -28.5710  -19.2290   25.5630 C   0  0  0  0  0  2  0  0  0  0  0  0
  -29.4350  -18.0740   25.0090 C   0  0  0  0  0  2  0  0  0  0  0  0
  -29.8720  -18.3500   23.5510 C   0  0  0  0  0  2  0  0  0  0  0  0
  -30.8920  -17.3490   22.9610 C   0  0  0  0  0  2  0  0  0  0  0  0
  -30.6530  -15.6160   21.1590 C   0  0  0  0  0  0  0  0  0  0  0  0
  -30.5630  -13.5530   19.7960 C   0  0  0  0  0  2  0  0  0  0  0  0
  -29.6890  -13.6950   18.5360 C   0  0  0  0  0  2  0  0  0  0  0  0
  -28.2230  -13.3590   18.8630 C   0  0  0  0  0  2  0  0  0  0  0  0
  -27.7090  -14.1400   20.1000 C   0  0  0  0  0  3  0  0  0  0  0  0
  -28.6930  -14.0260   21.2900 C   0  0  0  0  0  2  0  0  0  0  0  0
  -30.0370  -14.4410   20.8470 N   0  0  0  0  0  0  0  0  0  0  0  0
  -31.6030  -16.0590   20.5110 O   0  0  0  0  0  0  0  0  0  0  0  0
  -30.2600  -16.1890   22.3120 N   0  0  0  0  0  0  0  0  0  0  0  0
  -29.5410  -15.7150   22.8370 H   0  0  0  0  0  0  0  0  0  0  0  0
  -25.1930  -14.4570   20.5660 C   0  0  0  0  0  0  0  0  0  0  0  0
  -24.2060  -13.5690   20.8920 C   0  0  0  0  0  0  0  0  0  0  0  0
  -24.8390  -12.2870   20.9770 C   0  0  0  0  0  0  0  0  0  0  0  0
  -26.3610  -13.7150   20.4770 N   0  0  0  0  0  0  0  0  0  0  0  0
  -26.1430  -12.4080   20.7760 N   0  0  0  0  0  0  0  0  0  0  0  0
  -24.2640  -10.9520   21.1840 C   0  0  0  0  0  0  0  0  0  0  0  0
  -24.6870  -10.1240   22.2470 C   0  0  0  0  0  3  0  0  0  0  0  0
  -24.1100   -8.8490   22.4340 C   0  0  0  0  0  3  0  0  0  0  0  0
  -23.0980   -8.3950   21.5540 C   0  0  0  0  0  0  0  0  0  0  0  0
  -22.7000   -9.2140   20.4860 C   0  0  0  0  0  3  0  0  0  0  0  0
  -23.2780  -10.4810   20.2970 C   0  0  0  0  0  3  0  0  0  0  0  0
  -22.4980   -7.1610   21.6470 O   0  0  0  0  0  0  0  0  0  0  0  0
  -22.2180   -6.5820   22.8590 C   0  0  0  0  0  0  0  0  0  0  0  0
  -21.4650   -7.2520   23.8490 C   0  0  0  0  0  3  0  0  0  0  0  0
  -21.1400   -6.5960   25.0500 C   0  0  0  0  0  3  0  0  0  0  0  0
  -21.5570   -5.2680   25.2650 C   0  0  0  0  0  0  0  0  0  0  0  0
  -22.3020   -4.5980   24.2800 C   0  0  0  0  0  3  0  0  0  0  0  0
  -22.6300   -5.2510   23.0800 C   0  0  0  0  0  0  0  0  0  0  0  0
  -23.3300   -4.5930   22.1230 F   0  0  0  0  0  0  0  0  0  0  0  0
  -21.2380   -4.6360   26.4160 F   0  0  0  0  0  0  0  0  0  0  0  0
  -22.7410  -13.8660   21.0190 C   0  0  0  0  0  0  0  0  0  0  0  0
  -22.0390  -13.1440   21.8880 N   0  0  0  0  0  0  0  0  0  0  0  0
  -22.2180  -14.7810   20.3850 O   0  0  0  0  0  0  0  0  0  0  0  0
  -22.4750  -12.4100   22.4260 H   0  0  0  0  0  0  0  0  0  0  0  0
  -21.0550  -13.3340   22.0130 H   0  0  0  0  0  0  0  0  0  0  0  0
  -25.1980  -15.8290   20.3240 N   0  0  0  0  0  0  0  0  0  0  0  0
  -24.3500  -16.3790   20.3300 H   0  0  0  0  0  0  0  0  0  0  0  0
  -26.0160  -16.3620   20.0630 H   0  0  0  0  0  0  0  0  0  0  0  0
  -23.4980  -22.9460   23.4700 C   0  0  0  0  0  2  0  0  0  0  0  0
  -25.2950  -24.6960   23.6320 C   0  0  0  0  0  3  0  0  0  0  0  0
  -25.3780  -23.1030   21.7850 C   0  0  0  0  0  3  0  0  0  0  0  0
  -26.6390  -25.0340   23.3890 C   0  0  0  0  0  3  0  0  0  0  0  0
  -26.7210  -23.4450   21.5460 C   0  0  0  0  0  3  0  0  0  0  0  0
  -24.6960  -23.6710   22.8820 C   0  0  0  0  0  0  0  0  0  0  0  0
  -27.3840  -24.3610   22.3890 C   0  0  0  0  0  0  0  0  0  0  0  0
  -28.9010  -24.5020   22.2610 C   0  0  0  0  0  2  0  0  0  0  0  0
  -29.5740  -25.8070   22.7610 C   0  0  0  0  0  2  0  0  0  0  0  0
  -29.5510  -26.8420   21.7810 O   0  0  0  0  0  0  0  0  0  0  0  0
  -24.9190  -31.8540   23.7610 C   0  0  0  0  0  0  0  0  0  0  0  0
  -28.3320  -27.4290   21.5730 C   0  0  0  0  0  0  0  0  0  0  0  0
  -24.0900  -30.2090   22.1030 C   0  0  0  0  0  3  0  0  0  0  0  0
  -25.8630  -28.6970   21.0610 C   0  0  0  0  0  0  0  0  0  0  0  0
  -26.5800  -30.7800   22.2470 C   0  0  0  0  0  2  0  0  0  0  0  0
  -26.8640  -29.3700   21.7790 C   0  0  0  0  0  0  0  0  0  0  0  0
  -28.1020  -28.7390   22.0370 C   0  0  0  0  0  3  0  0  0  0  0  0
  -27.3250  -26.7680   20.8370 C   0  0  0  0  0  3  0  0  0  0  0  0
  -26.0920  -27.3960   20.5890 C   0  0  0  0  0  3  0  0  0  0  0  0
  -24.5640  -29.4400   20.8380 C   0  0  0  0  0  2  0  0  0  0  0  0
  -25.2020  -30.9740   22.7600 N   0  0  0  0  0  0  0  0  0  0  0  0
  -23.7500  -32.0770   24.1030 O   0  0  0  0  0  0  0  0  0  0  0  0
  -23.3790  -29.2200   23.0550 C   0  0  0  0  0  0  0  0  0  0  0  0
  -22.1310  -28.8690   22.7130 N   0  0  0  0  0  0  0  0  0  0  0  0
  -23.9520  -28.7720   24.0510 O   0  0  0  0  0  0  0  0  0  0  0  0
  -21.7480  -29.2710   21.8670 H   0  0  0  0  0  0  0  0  0  0  0  0
  -18.8360  -27.3980   22.7210 C   0  0  0  0  0  0  0  0  0  0  0  0
  -21.2670  -27.9260   23.4250 C   0  0  0  0  0  3  0  0  0  0  0  0
  -21.5960  -26.4690   23.0290 C   0  0  0  0  0  2  0  0  0  0  0  0
  -20.7450  -25.9630   21.8630 C   0  0  0  0  0  2  0  0  0  0  0  0
  -19.2510  -26.0300   22.2030 C   0  0  0  0  0  2  0  0  0  0  0  0
  -19.7880  -28.2980   23.2670 C   0  0  0  0  0  0  0  0  0  0  0  0
  -19.3630  -29.5800   23.6840 C   0  0  0  0  0  3  0  0  0  0  0  0
  -18.0100  -29.9560   23.5800 C   0  0  0  0  0  3  0  0  0  0  0  0
  -17.0680  -29.0520   23.0590 C   0  0  0  0  0  3  0  0  0  0  0  0
  -17.4790  -27.7800   22.6340 C   0  0  0  0  0  3  0  0  0  0  0  0
  -26.0430  -32.6340   24.5110 C   0  0  0  0  0  3  0  0  0  0  0  0
  -26.4380  -31.9970   25.9000 C   0  0  1  0  0  0  0  0  0  0  0  0
  -25.2210  -31.6570   26.7910 C   0  0  0  0  0  1  0  0  0  0  0  0
  -27.2500  -30.6950   25.6910 C   0  0  0  0  0  1  0  0  0  0  0  0
  -27.3550  -32.9660   26.6850 C   0  0  0  0  0  1  0  0  0  0  0  0
  -25.5800  -34.0170   24.6870 N   0  0  0  0  0  0  0  0  0  0  0  0
  -25.9130  -35.0390   23.8850 C   0  0  0  0  0  0  0  0  0  0  0  0
  -26.7100  -34.9270   22.9480 O   0  0  0  0  0  0  0  0  0  0  0  0
  -24.8800  -34.1770   25.3950 H   0  0  0  0  0  0  0  0  0  0  0  0
  -24.0720  -36.6110   23.1870 C   0  0  0  0  0  1  0  0  0  0  0  0
  -25.2470  -36.3990   24.1590 C   0  0  0  0  0  3  0  0  0  0  0  0
  -27.1840  -37.5610   25.1280 C   0  0  0  0  0  1  0  0  0  0  0  0
  -26.1830  -37.5420   24.0630 N   0  0  0  0  0  0  0  0  0  0  0  0
  -25.6780  -38.4240   24.0840 H   0  0  0  0  0  0  0  0  0  0  0  0
  1  5  1  0
  1  3  1  0
  2  4  1  0
  3  6  1  0
  5 52  1  0
  5  2  1  0
  6  4  1  0
  6  8  1  0
  6  7  1  1
  9  8  1  0
 10  9  1  0
 11 10  1  0
 12 11  1  0
 13 12  1  0
 14 22  1  0
 15 20  1  0
 16 17  1  0
 16 15  1  0
 18 17  1  0
 18 27  1  0
 18 19  1  0
 20 14  1  0
 20 19  1  0
 21 14  2  0
 22 23  1  0
 22 13  1  0
 24 25  2  0
 25 26  1  0
 25 44  1  0
 26 29  1  0
 27 24  1  0
 27 28  1  0
 28 26  2  0
 29 30  1  0
 30 31  2  0
 32 35  1  0
 32 31  1  0
 33 32  2  0
 34 33  1  0
 34 29  2  0
 35 36  1  0
 36 41  2  0
 36 37  1  0
 37 38  2  0
 38 39  1  0
 39 43  1  0
 40 39  2  0
 41 40  1  0
 42 41  1  0
 44 45  1  0
 45 48  1  0
 45 47  1  0
 46 44  2  0
 49 50  1  0
 49 24  1  0
 51 49  1  0
 54 57  1  0
 55 53  1  0
 56 54  2  0
 56 58  1  0
 57 52  1  0
 57 53  2  0
 58 55  2  0
 59 58  1  0
 59 60  1  0
 61 60  1  0
 62 73  2  0
 63 61  1  0
 63 68  1  0
 64 72  1  0
 64 74  1  0
 65 67  1  0
 66 72  1  0
 67 68  2  0
 67 66  1  0
 69 63  2  0
 70 69  1  0
 70 65  2  0
 71 65  1  0
 71 64  1  0
 72 62  1  0
 74 76  2  0
 75 74  1  0
 77 75  1  0
 78 83  1  0
 79 75  1  0
 80 79  1  0
 81 82  1  0
 81 80  1  0
 82 78  1  0
 83 79  1  0
 83 84  2  0
 85 84  1  0
 86 85  2  0
 87 78  2  0
 87 86  1  0
 88 62  1  0
 88 93  1  0
 88 89  1  0
 89 92  1  1
 89 90  1  0
 91 89  1  0
 93 96  1  0
 94 98  1  0
 94 93  1  0
 95 94  2  0
 98 97  1  0
100101  1  0
100 98  1  0
100 99  1  0
M  ISO  4  14 100  22 100  60 101  61 101
M  END
>  <TORSDO>  (75) 
F 26

>  <SCORE>  (75) 
34.571

>  <name>  (75) 
75

>  <ligand_id>  (75) 
75

>  <original_smiles>  (75) 
[H]c1c([H])c([H])c2c(c1[H])C([H])([H])C([H])([H])C([H])([H])C2([H])N([H])C(=O)C1([H])N(C(=O)C([H])(N([H])C(=O)C([H])(N([H])C([H])([H])[H])C([H])([H])[H])C(C([H])([H])[H])(C([H])([H])[H])C([H])([H])[H])C([H])([H])c2c([H])c(OC([H])([H])C([H])([H])c3c([H])c([H])c(C([H])([H])C4([H])C([H])([H])C([H])([H])[N+]([H])(C([H])([H])C([H])([H])C([H])([H])C([H])([H])C([H])([H])C([H])([H])N([H])C(=O)N5C([H])([H])C([H])([H])C([H])([H])C([H])(n6nc(-c7c([H])c([H])c(Oc8c([H])c([H])c(F)c([H])c8F)c([H])c7[H])c(C(=O)N([H])[H])c6N([H])[H])C5([H])[H])C([H])([H])C4([H])[H])c([H])c3[H])c([H])c([H])c2C1([H])[H]

>  <smiles>  (75) 
[H]c1c([H])c([H])c2c(c1[H])C([H])([H])C([H])([H])C([H])([H])C2([H])N([H])C(=O)C1([H])N(C(=O)C([H])(N([H])C(=O)C([H])(N([H])C([H])([H])[H])C([H])([H])[H])C(C([H])([H])[H])(C([H])([H])[H])C([H])([H])[H])C([H])([H])c2c([H])c(OC([H])([H])C([H])([H])c3c([H])c([H])c(C([H])([H])C4([H])C([H])([H])C([H])([H])[N+]([H])(C([H])([H])C([H])([H])C([H])([H])C([H])([H])C([H])([H])C([H])([H])N([H])C(=O)N5C([H])([H])C([H])([H])C([H])([H])C([H])(n6nc(-c7c([H])c([H])c(Oc8c([H])c([H])c(F)c([H])c8F)c([H])c7[H])c(C(=O)N([H])[H])c6N([H])[H])C5([H])[H])C([H])([H])C4([H])[H])c([H])c3[H])c([H])c([H])c2C1([H])[H]

$$$$
76:0:0
     RDKit          3D

102109  0  0  1  0  0  0  0  0999 V2000
  -27.5470  -25.0710   21.1140 C   0  0  0  0  0  3  0  0  0  0  0  0
  -27.5310  -25.1150   19.6290 N   0  0  0  0  0  4  0  0  0  0  0  0
  -27.7300  -24.1990   19.2520 H   0  0  0  0  0  0  0  0  0  0  0  0
  -26.5870  -25.3480   19.3610 H   0  0  0  0  0  0  0  0  0  0  0  0
  -28.4330  -26.1330   19.0270 C   0  0  0  0  0  2  0  0  0  0  0  0
  -28.1610  -26.3730   17.5210 C   0  0  0  0  0  2  0  0  0  0  0  0
  -27.9570  -27.7650   17.2380 O   0  0  0  0  0  0  0  0  0  0  0  0
  -24.3470  -30.8440   22.5080 C   0  0  0  0  0  0  0  0  0  0  0  0
  -26.7520  -28.3180   17.6160 C   0  0  0  0  0  0  0  0  0  0  0  0
  -22.9960  -30.1270   20.5630 C   0  0  0  0  0  3  0  0  0  0  0  0
  -24.3140  -29.4460   18.4930 C   0  0  0  0  0  0  0  0  0  0  0  0
  -25.4560  -30.7720   20.2780 C   0  0  0  0  0  2  0  0  0  0  0  0
  -25.5140  -29.7970   19.1220 C   0  0  0  0  0  0  0  0  0  0  0  0
  -26.7350  -29.2430   18.6820 C   0  0  0  0  0  3  0  0  0  0  0  0
  -25.5310  -27.9810   16.9840 C   0  0  0  0  0  3  0  0  0  0  0  0
  -24.3170  -28.5370   17.4230 C   0  0  0  0  0  3  0  0  0  0  0  0
  -23.0510  -30.0890   19.0140 C   0  0  0  0  0  2  0  0  0  0  0  0
  -24.2920  -30.5710   21.1740 N   0  0  0  0  0  0  0  0  0  0  0  0
  -23.3340  -30.7720   23.2190 O   0  0  0  0  0  0  0  0  0  0  0  0
  -22.5200  -28.7470   21.0730 C   0  0  0  0  0  0  0  0  0  0  0  0
  -21.2790  -28.3760   20.7210 N   0  0  0  0  0  0  0  0  0  0  0  0
  -23.2660  -28.0270   21.7420 O   0  0  0  0  0  0  0  0  0  0  0  0
  -20.7280  -29.0250   20.1760 H   0  0  0  0  0  0  0  0  0  0  0  0
  -18.3500  -26.3530   20.1040 C   0  0  0  0  0  0  0  0  0  0  0  0
  -20.6320  -27.1080   21.0550 C   0  0  0  0  0  3  0  0  0  0  0  0
  -21.2410  -25.9410   20.2420 C   0  0  0  0  0  2  0  0  0  0  0  0
  -20.4860  -25.6540   18.9420 C   0  0  0  0  0  2  0  0  0  0  0  0
  -19.0230  -25.3060   19.2340 C   0  0  0  0  0  2  0  0  0  0  0  0
  -19.1060  -27.2100   20.9470 C   0  0  0  0  0  0  0  0  0  0  0  0
  -18.4330  -28.1890   21.7090 C   0  0  0  0  0  3  0  0  0  0  0  0
  -17.0330  -28.3180   21.6400 C   0  0  0  0  0  3  0  0  0  0  0  0
  -16.2870  -27.4570   20.8170 C   0  0  0  0  0  3  0  0  0  0  0  0
  -16.9460  -26.4760   20.0540 C   0  0  0  0  0  3  0  0  0  0  0  0
  -25.6760  -31.2810   23.1990 C   0  0  0  0  0  3  0  0  0  0  0  0
  -25.4260  -32.5690   23.8600 N   0  0  0  0  0  0  0  0  0  0  0  0
  -25.7810  -33.7600   23.3610 C   0  0  0  0  0  0  0  0  0  0  0  0
  -26.4260  -33.8830   22.3150 O   0  0  0  0  0  0  0  0  0  0  0  0
  -24.8520  -32.5470   24.6900 H   0  0  0  0  0  0  0  0  0  0  0  0
  -24.1120  -35.6370   23.4870 C   0  0  0  0  0  1  0  0  0  0  0  0
  -25.3540  -35.0150   24.1460 C   0  0  0  0  0  3  0  0  0  0  0  0
  -27.5290  -35.6160   25.1100 C   0  0  0  0  0  1  0  0  0  0  0  0
  -26.4220  -36.0330   24.2560 N   0  0  0  0  0  0  0  0  0  0  0  0
  -26.0510  -36.9060   24.6190 H   0  0  0  0  0  0  0  0  0  0  0  0
  -26.2200  -30.2190   24.2310 C   0  0  1  0  0  0  0  0  0  0  0  0
  -25.1600  -29.7500   25.2560 C   0  0  0  0  0  1  0  0  0  0  0  0
  -26.7530  -28.9670   23.4970 C   0  0  0  0  0  1  0  0  0  0  0  0
  -27.4150  -30.8130   25.0130 C   0  0  0  0  0  1  0  0  0  0  0  0
  -26.1110  -25.0130   21.6890 C   0  0  0  0  0  2  0  0  0  0  0  0
  -25.6320  -26.3130   22.3750 C   0  0  0  0  0  2  0  0  0  0  0  0
  -24.8450  -26.1150   23.6840 C   0  0  0  0  0  2  0  0  0  0  0  0
  -23.8860  -27.2890   23.9550 C   0  0  0  0  0  2  0  0  0  0  0  0
  -22.4940  -26.8680   24.4650 C   0  0  0  0  0  2  0  0  0  0  0  0
  -21.6190  -26.3720   23.3890 N   0  0  0  0  0  4  0  0  0  0  0  0
  -21.5210  -27.0600   22.6640 H   0  0  0  0  0  0  0  0  0  0  0  0
  -20.7040  -26.1800   23.7570 H   0  0  0  0  0  0  0  0  0  0  0  0
  -21.9760  -25.5230   22.9890 H   0  0  0  0  0  0  0  0  0  0  0  0
  -28.5110  -23.9890   21.6640 C   0  0  0  0  0  2  0  0  0  0  0  0
  -28.6190  -22.6600   20.8810 C   0  0  0  0  0  2  0  0  0  0  0  0
  -28.9190  -22.7970   19.3760 C   0  0  0  0  0  2  0  0  0  0  0  0
  -30.2450  -22.1220   18.9710 C   0  0  0  0  0  2  0  0  0  0  0  0
  -30.5370  -20.7900   19.6870 C   0  0  0  0  0  2  0  0  0  0  0  0
  -30.4980  -19.5730   18.7480 C   0  0  0  0  0  2  0  0  0  0  0  0
  -30.4560  -18.2380   19.5080 C   0  0  0  0  0  2  0  0  0  0  0  0
  -31.1240  -17.0930   18.7270 C   0  0  0  0  0  2  0  0  0  0  0  0
  -31.5290  -14.6790   19.1570 C   0  0  0  0  0  0  0  0  0  0  0  0
  -31.4880  -12.2250   19.3880 C   0  0  0  0  0  2  0  0  0  0  0  0
  -30.5920  -11.6040   18.2990 C   0  0  0  0  0  2  0  0  0  0  0  0
  -29.1180  -11.5760   18.7450 C   0  0  0  0  0  2  0  0  0  0  0  0
  -28.6370  -12.9460   19.2950 C   0  0  0  0  0  3  0  0  0  0  0  0
  -29.6410  -13.4940   20.3320 C   0  0  0  0  0  2  0  0  0  0  0  0
  -30.9690  -13.5660   19.6930 N   0  0  0  0  0  0  0  0  0  0  0  0
  -32.5800  -14.6710   18.5070 O   0  0  0  0  0  0  0  0  0  0  0  0
  -30.8290  -15.8040   19.3430 N   0  0  0  0  0  0  0  0  0  0  0  0
  -29.9850  -15.7250   19.8910 H   0  0  0  0  0  0  0  0  0  0  0  0
  -26.3820  -13.8650   20.1370 C   0  0  0  0  0  0  0  0  0  0  0  0
  -25.2430  -13.2380   20.5630 C   0  0  0  0  0  0  0  0  0  0  0  0
  -25.5150  -11.8370   20.4980 C   0  0  0  0  0  0  0  0  0  0  0  0
  -27.2860  -12.8540   19.8450 N   0  0  0  0  0  0  0  0  0  0  0  0
  -26.7680  -11.6290   20.1160 N   0  0  0  0  0  0  0  0  0  0  0  0
  -24.6400  -10.6800   20.7260 C   0  0  0  0  0  0  0  0  0  0  0  0
  -24.9500   -9.6980   21.6910 C   0  0  0  0  0  3  0  0  0  0  0  0
  -24.0830   -8.6050   21.9040 C   0  0  0  0  0  3  0  0  0  0  0  0
  -22.8910   -8.4870   21.1490 C   0  0  0  0  0  0  0  0  0  0  0  0
  -22.6000   -9.4560   20.1720 C   0  0  0  0  0  3  0  0  0  0  0  0
  -23.4670  -10.5410   19.9580 C   0  0  0  0  0  3  0  0  0  0  0  0
  -22.0020   -7.4460   21.2680 O   0  0  0  0  0  0  0  0  0  0  0  0
  -21.6840   -6.9070   22.4890 C   0  0  0  0  0  0  0  0  0  0  0  0
  -21.1760   -7.6970   23.5430 C   0  0  0  0  0  3  0  0  0  0  0  0
  -20.7970   -7.0920   24.7570 C   0  0  0  0  0  3  0  0  0  0  0  0
  -20.9160   -5.6980   24.9160 C   0  0  0  0  0  0  0  0  0  0  0  0
  -21.4170   -4.9100   23.8660 C   0  0  0  0  0  3  0  0  0  0  0  0
  -21.7970   -5.5120   22.6550 C   0  0  0  0  0  0  0  0  0  0  0  0
  -22.2590   -4.7450   21.6370 F   0  0  0  0  0  0  0  0  0  0  0  0
  -20.5450   -5.1140   26.0800 F   0  0  0  0  0  0  0  0  0  0  0  0
  -23.9390  -13.8930   20.9220 C   0  0  0  0  0  0  0  0  0  0  0  0
  -23.1960  -13.3080   21.8550 N   0  0  0  0  0  0  0  0  0  0  0  0
  -23.5970  -14.9580   20.4100 O   0  0  0  0  0  0  0  0  0  0  0  0
  -23.4880  -12.4440   22.2880 H   0  0  0  0  0  0  0  0  0  0  0  0
  -22.3220  -13.7280   22.1390 H   0  0  0  0  0  0  0  0  0  0  0  0
  -26.7190  -15.2020   19.9550 N   0  0  0  0  0  0  0  0  0  0  0  0
  -26.0560  -15.9560   20.1080 H   0  0  0  0  0  0  0  0  0  0  0  0
  -27.6070  -15.5240   19.5890 H   0  0  0  0  0  0  0  0  0  0  0  0
  1 57  1  0
  1 48  1  0
  2  1  1  0
  3  2  1  0
  4  2  1  0
  5  2  1  0
  6  5  1  0
  7  6  1  0
  7  9  1  0
  8 19  2  0
  9 14  1  0
 10 20  1  0
 10 18  1  0
 11 17  1  0
 11 13  1  0
 12 18  1  0
 13 12  1  0
 14 13  2  0
 15 16  1  0
 15  9  2  0
 16 11  2  0
 17 10  1  0
 18  8  1  0
 20 22  2  0
 21 20  1  0
 23 21  1  0
 24 29  1  0
 25 21  1  0
 26 25  1  0
 27 28  1  0
 27 26  1  0
 28 24  1  0
 29 25  1  0
 29 30  2  0
 31 30  1  0
 32 31  2  0
 33 24  2  0
 33 32  1  0
 34  8  1  0
 34 35  1  0
 34 44  1  0
 35 38  1  0
 36 35  1  0
 36 40  1  0
 37 36  2  0
 40 39  1  0
 40 42  1  0
 42 43  1  0
 42 41  1  0
 44 47  1  1
 44 45  1  0
 46 44  1  0
 48 49  1  0
 49 50  1  0
 50 51  1  0
 51 52  1  0
 53 55  1  0
 53 52  1  0
 54 53  1  0
 56 53  1  0
 58 57  1  0
 59 58  1  0
 60 59  1  0
 60 61  1  0
 62 63  1  0
 62 61  1  0
 64 73  1  0
 64 63  1  0
 65 73  1  0
 65 71  1  0
 66 71  1  0
 67 68  1  0
 67 66  1  0
 69 68  1  0
 69 78  1  0
 69 70  1  0
 71 70  1  0
 72 65  2  0
 73 74  1  0
 75 76  2  0
 76 95  1  0
 77 76  1  0
 77 80  1  0
 78 79  1  0
 78 75  1  0
 79 77  2  0
 80 81  1  0
 81 82  2  0
 83 86  1  0
 83 82  1  0
 84 83  2  0
 85 84  1  0
 85 80  2  0
 86 87  1  0
 87 92  2  0
 87 88  1  0
 88 89  2  0
 89 90  1  0
 90 94  1  0
 91 90  2  0
 92 91  1  0
 93 92  1  0
 95 96  1  0
 96 99  1  0
 96 98  1  0
 97 95  2  0
100101  1  0
100 75  1  0
102100  1  0
M  ISO  4   6 101   7 101  65 100  73 100
M  END
>  <TORSDO>  (76) 
F 33

>  <SCORE>  (76) 
-4.976

>  <name>  (76) 
76

>  <ligand_id>  (76) 
76

>  <original_smiles>  (76) 
[H]c1c([H])c([H])c2c(c1[H])C([H])([H])C([H])([H])C([H])([H])C2([H])N([H])C(=O)C1([H])N(C(=O)C([H])(N([H])C(=O)C([H])(N([H])C([H])([H])[H])C([H])([H])[H])C(C([H])([H])[H])(C([H])([H])[H])C([H])([H])[H])C([H])([H])c2c([H])c(OC([H])([H])C([H])([H])[N+]([H])([H])C([H])(C([H])([H])C([H])([H])C([H])([H])C([H])([H])C([H])([H])C([H])([H])C([H])([H])C([H])([H])N([H])C(=O)N3C([H])([H])C([H])([H])C([H])([H])C([H])(n4nc(-c5c([H])c([H])c(Oc6c([H])c([H])c(F)c([H])c6F)c([H])c5[H])c(C(=O)N([H])[H])c4N([H])[H])C3([H])[H])C([H])([H])C([H])([H])C([H])([H])C([H])([H])C([H])([H])[N+]([H])([H])[H])c([H])c([H])c2C1([H])[H]

>  <smiles>  (76) 
[H]c1c([H])c([H])c2c(c1[H])C([H])([H])C([H])([H])C([H])([H])C2([H])N([H])C(=O)C1([H])N(C(=O)C([H])(N([H])C(=O)C([H])(N([H])C([H])([H])[H])C([H])([H])[H])C(C([H])([H])[H])(C([H])([H])[H])C([H])([H])[H])C([H])([H])c2c([H])c(OC([H])([H])C([H])([H])[N+]([H])([H])C([H])(C([H])([H])C([H])([H])C([H])([H])C([H])([H])C([H])([H])C([H])([H])C([H])([H])C([H])([H])N([H])C(=O)N3C([H])([H])C([H])([H])C([H])([H])C([H])(n4nc(-c5c([H])c([H])c(Oc6c([H])c([H])c(F)c([H])c6F)c([H])c5[H])c(C(=O)N([H])[H])c4N([H])[H])C3([H])[H])C([H])([H])C([H])([H])C([H])([H])C([H])([H])C([H])([H])[N+]([H])([H])[H])c([H])c([H])c2C1([H])[H]

$$$$
77:0:0
     RDKit          3D

 92 99  0  0  1  0  0  0  0  0999 V2000
  -30.7880  -21.3420   19.9370 C   0  0  0  0  0  3  0  0  0  0  0  0
  -32.1750  -21.3600   20.4430 N   0  0  0  0  0  4  0  0  0  0  0  0
  -32.2080  -21.5940   21.4200 H   0  0  0  0  0  0  0  0  0  0  0  0
  -32.7240  -22.0350   19.9400 H   0  0  0  0  0  0  0  0  0  0  0  0
  -32.6080  -20.4630   20.3120 H   0  0  0  0  0  0  0  0  0  0  0  0
  -29.9490  -20.2200   20.6100 C   0  0  0  0  0  2  0  0  0  0  0  0
  -30.7100  -18.8820   20.7670 C   0  0  0  0  0  2  0  0  0  0  0  0
  -29.8490  -17.6760   21.1810 C   0  0  0  0  0  2  0  0  0  0  0  0
  -30.7200  -16.5300   21.7390 C   0  0  0  0  0  2  0  0  0  0  0  0
  -30.7010  -14.3780   20.4910 C   0  0  0  0  0  0  0  0  0  0  0  0
  -30.3350  -12.3170   19.1910 C   0  0  0  0  0  2  0  0  0  0  0  0
  -29.3720  -12.5950   18.0220 C   0  0  0  0  0  2  0  0  0  0  0  0
  -27.9080  -12.4480   18.4760 C   0  0  0  0  0  2  0  0  0  0  0  0
  -27.6060  -13.2370   19.7780 C   0  0  0  0  0  3  0  0  0  0  0  0
  -28.6700  -12.9320   20.8550 C   0  0  0  0  0  2  0  0  0  0  0  0
  -29.9950  -13.2370   20.2860 N   0  0  0  0  0  0  0  0  0  0  0  0
  -31.7350  -14.6530   19.8720 O   0  0  0  0  0  0  0  0  0  0  0  0
  -30.1830  -15.2140   21.4010 N   0  0  0  0  0  0  0  0  0  0  0  0
  -29.3370  -14.9160   21.8660 H   0  0  0  0  0  0  0  0  0  0  0  0
  -25.2140  -13.8470   20.5070 C   0  0  0  0  0  0  0  0  0  0  0  0
  -24.1490  -13.0740   20.8870 C   0  0  0  0  0  0  0  0  0  0  0  0
  -24.6090  -11.7220   20.8480 C   0  0  0  0  0  0  0  0  0  0  0  0
  -26.2550  -12.9640   20.2660 N   0  0  0  0  0  0  0  0  0  0  0  0
  -25.8950  -11.6810   20.5230 N   0  0  0  0  0  0  0  0  0  0  0  0
  -23.8860  -10.4600   21.0470 C   0  0  0  0  0  0  0  0  0  0  0  0
  -24.3400   -9.4890   21.9670 C   0  0  0  0  0  3  0  0  0  0  0  0
  -23.6220   -8.2890   22.1530 C   0  0  0  0  0  3  0  0  0  0  0  0
  -22.4350   -8.0520   21.4200 C   0  0  0  0  0  0  0  0  0  0  0  0
  -21.9990   -9.0130   20.4890 C   0  0  0  0  0  3  0  0  0  0  0  0
  -22.7180  -10.2040   20.3020 C   0  0  0  0  0  3  0  0  0  0  0  0
  -21.6840   -6.9060   21.5170 O   0  0  0  0  0  0  0  0  0  0  0  0
  -21.6690   -6.1500   22.6620 C   0  0  0  0  0  0  0  0  0  0  0  0
  -21.2780   -6.6890   23.9070 C   0  0  0  0  0  3  0  0  0  0  0  0
  -21.2090   -5.8570   25.0430 C   0  0  0  0  0  3  0  0  0  0  0  0
  -21.5220   -4.4890   24.9350 C   0  0  0  0  0  0  0  0  0  0  0  0
  -21.9060   -3.9490   23.6960 C   0  0  0  0  0  3  0  0  0  0  0  0
  -21.9770   -4.7780   22.5620 C   0  0  0  0  0  0  0  0  0  0  0  0
  -22.3260   -4.2470   21.3650 F   0  0  0  0  0  0  0  0  0  0  0  0
  -21.4490   -3.6880   26.0240 F   0  0  0  0  0  0  0  0  0  0  0  0
  -22.7550  -13.5500   21.1790 C   0  0  0  0  0  0  0  0  0  0  0  0
  -22.0430  -12.8520   22.0570 N   0  0  0  0  0  0  0  0  0  0  0  0
  -22.3090  -14.5750   20.6660 O   0  0  0  0  0  0  0  0  0  0  0  0
  -22.4190  -12.0250   22.4940 H   0  0  0  0  0  0  0  0  0  0  0  0
  -21.1050  -13.1480   22.2900 H   0  0  0  0  0  0  0  0  0  0  0  0
  -25.3780  -15.2180   20.3310 N   0  0  0  0  0  0  0  0  0  0  0  0
  -24.6160  -15.8780   20.4420 H   0  0  0  0  0  0  0  0  0  0  0  0
  -26.2330  -15.6550   20.0100 H   0  0  0  0  0  0  0  0  0  0  0  0
  -30.1750  -22.7580   20.0900 C   0  0  0  0  0  2  0  0  0  0  0  0
  -28.8380  -23.0130   19.3620 C   0  0  0  0  0  2  0  0  0  0  0  0
  -28.5500  -24.5160   19.1290 C   0  0  0  0  0  2  0  0  0  0  0  0
  -28.3350  -25.3380   20.4170 C   0  0  0  0  0  2  0  0  0  0  0  0
  -28.3970  -26.7470   20.1730 O   0  0  0  0  0  0  0  0  0  0  0  0
  -24.5770  -31.8820   23.2630 C   0  0  0  0  0  0  0  0  0  0  0  0
  -27.2120  -27.4490   20.1780 C   0  0  0  0  0  0  0  0  0  0  0  0
  -23.3700  -30.4840   21.6180 C   0  0  0  0  0  3  0  0  0  0  0  0
  -24.8190  -28.9480   20.1940 C   0  0  0  0  0  0  0  0  0  0  0  0
  -25.8950  -30.8440   21.4210 C   0  0  0  0  0  2  0  0  0  0  0  0
  -25.9780  -29.4750   20.7770 C   0  0  0  0  0  0  0  0  0  0  0  0
  -27.1800  -28.7350   20.7590 C   0  0  0  0  0  3  0  0  0  0  0  0
  -26.0350  -26.9280   19.5990 C   0  0  0  0  0  3  0  0  0  0  0  0
  -24.8420  -27.6740   19.6010 C   0  0  0  0  0  3  0  0  0  0  0  0
  -23.5780  -29.8050   20.2380 C   0  0  0  0  0  2  0  0  0  0  0  0
  -24.6320  -31.0850   22.1590 N   0  0  0  0  0  0  0  0  0  0  0  0
  -23.4960  -32.1540   23.8040 O   0  0  0  0  0  0  0  0  0  0  0  0
  -22.7180  -29.4610   22.5780 C   0  0  0  0  0  0  0  0  0  0  0  0
  -21.3940  -29.2800   22.4480 N   0  0  0  0  0  0  0  0  0  0  0  0
  -23.4010  -28.8340   23.3920 O   0  0  0  0  0  0  0  0  0  0  0  0
  -20.9070  -29.8370   21.7590 H   0  0  0  0  0  0  0  0  0  0  0  0
  -18.0180  -28.0960   22.9390 C   0  0  0  0  0  0  0  0  0  0  0  0
  -20.5760  -28.3430   23.2140 C   0  0  0  0  0  3  0  0  0  0  0  0
  -20.6740  -26.9140   22.6320 C   0  0  0  0  0  2  0  0  0  0  0  0
  -19.5710  -26.5980   21.6170 C   0  0  0  0  0  2  0  0  0  0  0  0
  -18.1890  -26.7470   22.2610 C   0  0  0  0  0  2  0  0  0  0  0  0
  -19.1380  -28.8510   23.3720 C   0  0  0  0  0  0  0  0  0  0  0  0
  -18.9230  -30.1150   23.9660 C   0  0  0  0  0  3  0  0  0  0  0  0
  -17.6200  -30.6210   24.1320 C   0  0  0  0  0  3  0  0  0  0  0  0
  -16.5130  -29.8600   23.7150 C   0  0  0  0  0  3  0  0  0  0  0  0
  -16.7130  -28.6000   23.1240 C   0  0  0  0  0  3  0  0  0  0  0  0
  -25.8640  -32.5090   23.8860 C   0  0  0  0  0  3  0  0  0  0  0  0
  -26.3790  -31.7390   25.1630 C   0  0  1  0  0  0  0  0  0  0  0  0
  -25.2830  -31.5060   26.2280 C   0  0  0  0  0  1  0  0  0  0  0  0
  -26.9580  -30.3590   24.7700 C   0  0  0  0  0  1  0  0  0  0  0  0
  -27.5310  -32.5310   25.8240 C   0  0  0  0  0  1  0  0  0  0  0  0
  -25.5600  -33.9090   24.2110 N   0  0  0  0  0  0  0  0  0  0  0  0
  -25.9010  -34.9570   23.4510 C   0  0  0  0  0  0  0  0  0  0  0  0
  -26.5770  -34.8490   22.4240 O   0  0  0  0  0  0  0  0  0  0  0  0
  -24.9620  -34.0690   25.0090 H   0  0  0  0  0  0  0  0  0  0  0  0
  -24.1850  -36.7570   23.0780 C   0  0  0  0  0  1  0  0  0  0  0  0
  -25.4160  -36.3490   23.9020 C   0  0  0  0  0  3  0  0  0  0  0  0
  -27.5470  -37.2230   24.7530 C   0  0  0  0  0  1  0  0  0  0  0  0
  -26.4560  -37.3960   23.7980 N   0  0  0  0  0  0  0  0  0  0  0  0
  -26.0530  -38.3180   23.9410 H   0  0  0  0  0  0  0  0  0  0  0  0
  1 48  1  0
  1  2  1  0
  1  6  1  0
  2  3  1  0
  4  2  1  0
  5  2  1  0
  6  7  1  0
  7  8  1  0
  8  9  1  0
 10 18  1  0
 11 16  1  0
 12 13  1  0
 12 11  1  0
 14 13  1  0
 14 23  1  0
 14 15  1  0
 16 10  1  0
 16 15  1  0
 17 10  2  0
 18  9  1  0
 18 19  1  0
 20 21  2  0
 21 40  1  0
 22 21  1  0
 22 25  1  0
 23 20  1  0
 23 24  1  0
 24 22  2  0
 25 26  1  0
 26 27  2  0
 28 31  1  0
 28 27  1  0
 29 28  2  0
 30 29  1  0
 30 25  2  0
 31 32  1  0
 32 33  1  0
 33 34  2  0
 35 34  1  0
 35 39  1  0
 36 35  2  0
 37 32  2  0
 37 36  1  0
 38 37  1  0
 40 41  1  0
 41 44  1  0
 41 43  1  0
 42 40  2  0
 45 46  1  0
 45 20  1  0
 47 45  1  0
 49 48  1  0
 50 49  1  0
 50 51  1  0
 52 54  1  0
 52 51  1  0
 53 64  2  0
 54 59  1  0
 55 63  1  0
 55 65  1  0
 56 62  1  0
 56 58  1  0
 57 63  1  0
 58 57  1  0
 59 58  2  0
 60 61  1  0
 60 54  2  0
 61 56  2  0
 62 55  1  0
 63 53  1  0
 65 67  2  0
 66 65  1  0
 68 66  1  0
 69 78  2  0
 69 74  1  0
 70 66  1  0
 70 74  1  0
 71 70  1  0
 72 73  1  0
 72 71  1  0
 73 69  1  0
 74 75  2  0
 75 76  1  0
 77 76  2  0
 78 77  1  0
 79 53  1  0
 79 84  1  0
 79 80  1  0
 80 83  1  1
 80 81  1  0
 82 80  1  0
 84 87  1  0
 85 89  1  0
 85 84  1  0
 86 85  2  0
 89 88  1  0
 91 89  1  0
 91 92  1  0
 91 90  1  0
M  ISO  4  10 100  18 100  51 101  52 101
M  END
>  <TORSDO>  (77) 
F 25

>  <SCORE>  (77) 
-12.314

>  <name>  (77) 
77

>  <ligand_id>  (77) 
77

>  <original_smiles>  (77) 
[H]c1c([H])c([H])c2c(c1[H])C([H])([H])C([H])([H])C([H])([H])C2([H])N([H])C(=O)C1([H])N(C(=O)C([H])(N([H])C(=O)C([H])(N([H])C([H])([H])[H])C([H])([H])[H])C(C([H])([H])[H])(C([H])([H])[H])C([H])([H])[H])C([H])([H])c2c([H])c(OC([H])([H])C([H])([H])C([H])([H])C([H])([H])C([H])(C([H])([H])C([H])([H])C([H])([H])C([H])([H])N([H])C(=O)N3C([H])([H])C([H])([H])C([H])([H])C([H])(n4nc(-c5c([H])c([H])c(Oc6c([H])c([H])c(F)c([H])c6F)c([H])c5[H])c(C(=O)N([H])[H])c4N([H])[H])C3([H])[H])[N+]([H])([H])[H])c([H])c([H])c2C1([H])[H]

>  <smiles>  (77) 
[H]c1c([H])c([H])c2c(c1[H])C([H])([H])C([H])([H])C([H])([H])C2([H])N([H])C(=O)C1([H])N(C(=O)C([H])(N([H])C(=O)C([H])(N([H])C([H])([H])[H])C([H])([H])[H])C(C([H])([H])[H])(C([H])([H])[H])C([H])([H])[H])C([H])([H])c2c([H])c(OC([H])([H])C([H])([H])C([H])([H])C([H])([H])C([H])(C([H])([H])C([H])([H])C([H])([H])C([H])([H])N([H])C(=O)N3C([H])([H])C([H])([H])C([H])([H])C([H])(n4nc(-c5c([H])c([H])c(Oc6c([H])c([H])c(F)c([H])c6F)c([H])c5[H])c(C(=O)N([H])[H])c4N([H])[H])C3([H])[H])[N+]([H])([H])[H])c([H])c([H])c2C1([H])[H]

$$$$
78:0:0
     RDKit          3D

 94102  0  0  1  0  0  0  0  0999 V2000
  -27.3350  -21.0890   19.8830 C   0  0  0  0  0  3  0  0  0  0  0  0
  -27.3820  -22.4910   19.8380 C   0  0  0  0  0  3  0  0  0  0  0  0
  -28.3340  -20.3350   19.2430 C   0  0  0  0  0  3  0  0  0  0  0  0
  -29.4240  -22.3710   18.5130 C   0  0  0  0  0  3  0  0  0  0  0  0
  -28.4370  -23.1370   19.1620 C   0  0  0  0  0  0  0  0  0  0  0  0
  -29.3970  -20.9570   18.5540 C   0  0  0  0  0  0  0  0  0  0  0  0
  -29.8650  -19.6840   16.4650 C   0  0  0  0  0  1  0  0  0  0  0  0
  -31.7290  -20.9250   17.5230 C   0  0  0  0  0  1  0  0  0  0  0  0
  -30.4530  -20.1050   17.8280 C   0  0  1  0  0  0  0  0  0  0  0  0
  -30.9170  -18.8990   18.7170 C   0  0  0  0  0  2  0  0  0  0  0  0
  -30.3590  -17.4820   18.4500 C   0  0  0  0  0  2  0  0  0  0  0  0
  -29.5590  -16.8560   19.5970 C   0  0  0  0  0  2  0  0  0  0  0  0
  -30.3440  -16.7060   20.9300 C   0  0  0  0  0  2  0  0  0  0  0  0
  -30.8400  -14.3720   20.6420 C   0  0  0  0  0  0  0  0  0  0  0  0
  -30.4340  -12.3220   19.3580 C   0  0  0  0  0  2  0  0  0  0  0  0
  -29.5270  -12.6300   18.1490 C   0  0  0  0  0  2  0  0  0  0  0  0
  -28.0380  -12.5180   18.5350 C   0  0  0  0  0  2  0  0  0  0  0  0
  -27.7010  -13.3010   19.8330 C   0  0  0  0  0  3  0  0  0  0  0  0
  -28.7320  -13.0080   20.9540 C   0  0  0  0  0  2  0  0  0  0  0  0
  -30.0960  -13.2560   20.4410 N   0  0  0  0  0  0  0  0  0  0  0  0
  -31.8980  -14.6040   20.0440 O   0  0  0  0  0  0  0  0  0  0  0  0
  -30.2680  -15.3190   21.3790 N   0  0  0  0  0  0  0  0  0  0  0  0
  -29.5190  -15.0630   22.0100 H   0  0  0  0  0  0  0  0  0  0  0  0
  -25.2840  -13.9210   20.4780 C   0  0  0  0  0  0  0  0  0  0  0  0
  -24.2070  -13.1540   20.8350 C   0  0  0  0  0  0  0  0  0  0  0  0
  -24.6690  -11.8030   20.8300 C   0  0  0  0  0  0  0  0  0  0  0  0
  -26.3350  -13.0370   20.2810 N   0  0  0  0  0  0  0  0  0  0  0  0
  -25.9630  -11.7590   20.5400 N   0  0  0  0  0  0  0  0  0  0  0  0
  -23.9400  -10.5430   21.0190 C   0  0  0  0  0  0  0  0  0  0  0  0
  -24.3650   -9.5790   21.9580 C   0  0  0  0  0  3  0  0  0  0  0  0
  -23.6370   -8.3830   22.1370 C   0  0  0  0  0  3  0  0  0  0  0  0
  -22.4700   -8.1440   21.3720 C   0  0  0  0  0  0  0  0  0  0  0  0
  -22.0680   -9.0960   20.4170 C   0  0  0  0  0  3  0  0  0  0  0  0
  -22.7970  -10.2820   20.2390 C   0  0  0  0  0  3  0  0  0  0  0  0
  -21.7130   -7.0010   21.4610 O   0  0  0  0  0  0  0  0  0  0  0  0
  -21.6600   -6.2580   22.6140 C   0  0  0  0  0  0  0  0  0  0  0  0
  -21.2370   -6.8150   23.8410 C   0  0  0  0  0  3  0  0  0  0  0  0
  -21.1310   -5.9980   24.9840 C   0  0  0  0  0  3  0  0  0  0  0  0
  -21.4340   -4.6260   24.9020 C   0  0  0  0  0  0  0  0  0  0  0  0
  -21.8480   -4.0700   23.6800 C   0  0  0  0  0  3  0  0  0  0  0  0
  -21.9570   -4.8830   22.5380 C   0  0  0  0  0  0  0  0  0  0  0  0
  -22.3360   -4.3360   21.3580 F   0  0  0  0  0  0  0  0  0  0  0  0
  -21.3250   -3.8410   25.9990 F   0  0  0  0  0  0  0  0  0  0  0  0
  -22.8020  -13.6340   21.0750 C   0  0  0  0  0  0  0  0  0  0  0  0
  -22.0560  -12.9520   21.9340 N   0  0  0  0  0  0  0  0  0  0  0  0
  -22.3760  -14.6540   20.5310 O   0  0  0  0  0  0  0  0  0  0  0  0
  -22.4170  -12.1360   22.4080 H   0  0  0  0  0  0  0  0  0  0  0  0
  -21.1070  -13.2490   22.1240 H   0  0  0  0  0  0  0  0  0  0  0  0
  -25.4460  -15.2910   20.2930 N   0  0  0  0  0  0  0  0  0  0  0  0
  -24.6680  -15.9380   20.3700 H   0  0  0  0  0  0  0  0  0  0  0  0
  -26.3020  -15.7410   19.9960 H   0  0  0  0  0  0  0  0  0  0  0  0
  -28.5160  -24.6500   19.0950 C   0  0  0  0  0  2  0  0  0  0  0  0
  -28.2800  -25.3480   20.4420 C   0  0  0  0  0  2  0  0  0  0  0  0
  -28.3780  -26.7660   20.2630 O   0  0  0  0  0  0  0  0  0  0  0  0
  -24.5590  -31.9080   23.2760 C   0  0  0  0  0  0  0  0  0  0  0  0
  -27.1970  -27.4720   20.2140 C   0  0  0  0  0  0  0  0  0  0  0  0
  -23.3490  -30.5030   21.6370 C   0  0  0  0  0  3  0  0  0  0  0  0
  -24.7980  -28.9590   20.2250 C   0  0  0  0  0  0  0  0  0  0  0  0
  -25.8680  -30.8770   21.4240 C   0  0  0  0  0  2  0  0  0  0  0  0
  -25.9570  -29.5020   20.7890 C   0  0  0  0  0  0  0  0  0  0  0  0
  -27.1640  -28.7690   20.7710 C   0  0  0  0  0  3  0  0  0  0  0  0
  -26.0180  -26.9410   19.6410 C   0  0  0  0  0  3  0  0  0  0  0  0
  -24.8190  -27.6740   19.6520 C   0  0  0  0  0  3  0  0  0  0  0  0
  -23.5540  -29.8110   20.2630 C   0  0  0  0  0  2  0  0  0  0  0  0
  -24.6090  -31.1120   22.1700 N   0  0  0  0  0  0  0  0  0  0  0  0
  -23.4800  -32.1810   23.8180 O   0  0  0  0  0  0  0  0  0  0  0  0
  -22.6990  -29.4880   22.6030 C   0  0  0  0  0  0  0  0  0  0  0  0
  -21.3770  -29.2960   22.4660 N   0  0  0  0  0  0  0  0  0  0  0  0
  -23.3790  -28.8730   23.4280 O   0  0  0  0  0  0  0  0  0  0  0  0
  -20.8930  -29.8390   21.7650 H   0  0  0  0  0  0  0  0  0  0  0  0
  -18.0060  -28.0820   22.9370 C   0  0  0  0  0  0  0  0  0  0  0  0
  -20.5600  -28.3600   23.2350 C   0  0  0  0  0  3  0  0  0  0  0  0
  -20.6800  -26.9260   22.6690 C   0  0  0  0  0  2  0  0  0  0  0  0
  -19.5900  -26.5890   21.6460 C   0  0  0  0  0  2  0  0  0  0  0  0
  -18.2000  -26.7300   22.2730 C   0  0  0  0  0  2  0  0  0  0  0  0
  -19.1150  -28.8550   23.3740 C   0  0  0  0  0  0  0  0  0  0  0  0
  -18.8820  -30.1220   23.9500 C   0  0  0  0  0  3  0  0  0  0  0  0
  -17.5730  -30.6160   24.0980 C   0  0  0  0  0  3  0  0  0  0  0  0
  -16.4770  -29.8410   23.6780 C   0  0  0  0  0  3  0  0  0  0  0  0
  -16.6960  -28.5750   23.1020 C   0  0  0  0  0  3  0  0  0  0  0  0
  -25.8490  -32.5330   23.8950 C   0  0  0  0  0  3  0  0  0  0  0  0
  -25.5500  -33.9360   24.2130 N   0  0  0  0  0  0  0  0  0  0  0  0
  -25.8920  -34.9790   23.4430 C   0  0  0  0  0  0  0  0  0  0  0  0
  -26.5670  -34.8600   22.4180 O   0  0  0  0  0  0  0  0  0  0  0  0
  -24.9660  -34.1030   25.0190 H   0  0  0  0  0  0  0  0  0  0  0  0
  -24.1810  -36.7740   23.0500 C   0  0  0  0  0  1  0  0  0  0  0  0
  -25.4090  -36.3730   23.8820 C   0  0  0  0  0  3  0  0  0  0  0  0
  -27.5410  -37.2470   24.7320 C   0  0  0  0  0  1  0  0  0  0  0  0
  -26.4520  -37.4160   23.7710 N   0  0  0  0  0  0  0  0  0  0  0  0
  -26.0510  -38.3390   23.9090 H   0  0  0  0  0  0  0  0  0  0  0  0
  -26.3550  -31.7720   25.1810 C   0  0  1  0  0  0  0  0  0  0  0  0
  -25.2530  -31.5620   26.2450 C   0  0  0  0  0  1  0  0  0  0  0  0
  -26.9280  -30.3890   24.8010 C   0  0  0  0  0  1  0  0  0  0  0  0
  -27.5070  -32.5650   25.8420 C   0  0  0  0  0  1  0  0  0  0  0  0
  2  1  1  0
  3  1  2  0
  4  6  2  0
  4  5  1  0
  5  2  2  0
  6  3  1  0
  9  7  1  6
  8  9  1  0
  9  6  1  0
  9 10  1  0
 11 10  1  0
 11 12  1  0
 12 13  1  0
 13 22  1  0
 14 22  1  0
 15 20  1  0
 16 17  1  0
 16 15  1  0
 18 17  1  0
 18 27  1  0
 18 19  1  0
 20 14  1  0
 20 19  1  0
 21 14  2  0
 22 23  1  0
 24 25  2  0
 25 44  1  0
 26 25  1  0
 26 29  1  0
 27 24  1  0
 27 28  1  0
 28 26  2  0
 29 30  1  0
 30 31  2  0
 32 35  1  0
 32 31  1  0
 33 32  2  0
 34 33  1  0
 34 29  2  0
 35 36  1  0
 36 37  1  0
 37 38  2  0
 39 38  1  0
 39 43  1  0
 40 39  2  0
 41 36  2  0
 41 40  1  0
 42 41  1  0
 44 45  1  0
 45 48  1  0
 45 47  1  0
 46 44  2  0
 49 50  1  0
 49 24  1  0
 51 49  1  0
 52  5  1  0
 52 53  1  0
 54 53  1  0
 55 66  2  0
 56 54  1  0
 56 61  1  0
 57 65  1  0
 57 67  1  0
 58 64  1  0
 58 60  1  0
 59 65  1  0
 60 59  1  0
 61 60  2  0
 62 63  1  0
 62 56  2  0
 63 58  2  0
 64 57  1  0
 65 55  1  0
 67 69  2  0
 68 67  1  0
 70 68  1  0
 71 80  2  0
 71 76  1  0
 72 68  1  0
 72 76  1  0
 73 72  1  0
 74 75  1  0
 74 73  1  0
 75 71  1  0
 76 77  2  0
 77 78  1  0
 79 78  2  0
 80 79  1  0
 81 55  1  0
 81 82  1  0
 81 91  1  0
 82 85  1  0
 83 87  1  0
 83 82  1  0
 84 83  2  0
 87 86  1  0
 89 87  1  0
 89 90  1  0
 89 88  1  0
 91 94  1  1
 91 92  1  0
 93 91  1  0
M  ISO  4  14 100  22 100  53 101  54 101
M  END
>  <TORSDO>  (78) 
F 23

>  <SCORE>  (78) 
-12.705

>  <name>  (78) 
78

>  <ligand_id>  (78) 
78

>  <original_smiles>  (78) 
[H]c1c([H])c([H])c2c(c1[H])C([H])([H])C([H])([H])C([H])([H])C2([H])N([H])C(=O)C1([H])N(C(=O)C([H])(N([H])C(=O)C([H])(N([H])C([H])([H])[H])C([H])([H])[H])C(C([H])([H])[H])(C([H])([H])[H])C([H])([H])[H])C([H])([H])c2c([H])c(OC([H])([H])C([H])([H])c3c([H])c([H])c([H])c(C(C([H])([H])[H])(C([H])([H])[H])C([H])([H])C([H])([H])C([H])([H])C([H])([H])N([H])C(=O)N4C([H])([H])C([H])([H])C([H])([H])C([H])(n5nc(-c6c([H])c([H])c(Oc7c([H])c([H])c(F)c([H])c7F)c([H])c6[H])c(C(=O)N([H])[H])c5N([H])[H])C4([H])[H])c3[H])c([H])c([H])c2C1([H])[H]

>  <smiles>  (78) 
[H]c1c([H])c([H])c2c(c1[H])C([H])([H])C([H])([H])C([H])([H])C2([H])N([H])C(=O)C1([H])N(C(=O)C([H])(N([H])C(=O)C([H])(N([H])C([H])([H])[H])C([H])([H])[H])C(C([H])([H])[H])(C([H])([H])[H])C([H])([H])[H])C([H])([H])c2c([H])c(OC([H])([H])C([H])([H])c3c([H])c([H])c([H])c(C(C([H])([H])[H])(C([H])([H])[H])C([H])([H])C([H])([H])C([H])([H])C([H])([H])N([H])C(=O)N4C([H])([H])C([H])([H])C([H])([H])C([H])(n5nc(-c6c([H])c([H])c(Oc7c([H])c([H])c(F)c([H])c7F)c([H])c6[H])c(C(=O)N([H])[H])c5N([H])[H])C4([H])[H])c3[H])c([H])c([H])c2C1([H])[H]

$$$$
79:0:0
     RDKit          3D

 95104  0  0  1  0  0  0  0  0999 V2000
  -27.6490  -22.1940   22.4550 C   0  0  0  0  0  3  0  0  0  0  0  0
  -26.6010  -23.0980   22.1910 C   0  0  0  0  0  3  0  0  0  0  0  0
  -28.9600  -23.1930   20.6600 C   0  0  0  0  0  3  0  0  0  0  0  0
  -28.8310  -22.2380   21.6880 C   0  0  0  0  0  0  0  0  0  0  0  0
  -27.8960  -24.0630   20.3580 C   0  0  0  0  0  0  0  0  0  0  0  0
  -26.7170  -24.0260   21.1370 C   0  0  0  0  0  0  0  0  0  0  0  0
  -25.6790  -24.8700   20.8630 O   0  0  0  0  0  0  0  0  0  0  0  0
  -24.9710  -24.8200   21.4960 H   0  0  0  0  0  0  0  0  0  0  0  0
  -29.9400  -21.2220   21.8930 C   0  0  0  0  0  2  0  0  0  0  0  0
  -30.1690  -20.4200   20.6030 C   0  0  0  0  0  2  0  0  0  0  0  0
  -31.8950  -15.2690   19.8060 C   0  0  0  0  0  0  0  0  0  0  0  0
  -31.5460  -12.9930   18.9340 C   0  0  0  0  0  2  0  0  0  0  0  0
  -30.5640  -13.0650   17.7500 C   0  0  0  0  0  2  0  0  0  0  0  0
  -29.1040  -12.9960   18.2440 C   0  0  0  0  0  2  0  0  0  0  0  0
  -28.8160  -13.9890   19.4030 C   0  0  0  0  0  3  0  0  0  0  0  0
  -29.9070  -13.8830   20.4920 C   0  0  0  0  0  2  0  0  0  0  0  0
  -31.2150  -14.0950   19.8470 N   0  0  0  0  0  0  0  0  0  0  0  0
  -32.9760  -15.4100   19.2240 O   0  0  0  0  0  0  0  0  0  0  0  0
  -31.4230  -18.6230   19.3360 C   0  0  0  0  0  2  0  0  0  0  0  0
  -30.8600  -18.2760   21.8040 C   0  0  0  0  0  2  0  0  0  0  0  0
  -30.6830  -17.2840   19.2440 C   0  0  0  0  0  2  0  0  0  0  0  0
  -31.5200  -16.9030   21.5690 C   0  0  0  0  0  2  0  0  0  0  0  0
  -31.2190  -19.3040   20.7070 C   0  0  0  0  0  3  0  0  0  0  0  0
  -31.2000  -16.3380   20.2460 N   0  0  0  0  0  0  0  0  0  0  0  0
  -26.5250  -14.7400   20.3110 C   0  0  0  0  0  0  0  0  0  0  0  0
  -25.4270  -14.0310   20.7160 C   0  0  0  0  0  0  0  0  0  0  0  0
  -25.7770  -12.6520   20.5800 C   0  0  0  0  0  0  0  0  0  0  0  0
  -27.4800  -13.7970   19.9610 N   0  0  0  0  0  0  0  0  0  0  0  0
  -27.0350  -12.5320   20.1750 N   0  0  0  0  0  0  0  0  0  0  0  0
  -24.9690  -11.4390   20.7590 C   0  0  0  0  0  0  0  0  0  0  0  0
  -25.3030  -10.4650   21.7250 C   0  0  0  0  0  3  0  0  0  0  0  0
  -24.5000   -9.3140   21.8890 C   0  0  0  0  0  3  0  0  0  0  0  0
  -23.3500   -9.1320   21.0850 C   0  0  0  0  0  0  0  0  0  0  0  0
  -23.0350  -10.0950   20.1100 C   0  0  0  0  0  3  0  0  0  0  0  0
  -23.8380  -11.2360   19.9430 C   0  0  0  0  0  3  0  0  0  0  0  0
  -22.5290   -8.0330   21.1550 O   0  0  0  0  0  0  0  0  0  0  0  0
  -22.2390   -7.4250   22.3510 C   0  0  0  0  0  0  0  0  0  0  0  0
  -21.6430   -8.1290   23.4190 C   0  0  0  0  0  3  0  0  0  0  0  0
  -21.2960   -7.4510   24.6050 C   0  0  0  0  0  3  0  0  0  0  0  0
  -21.5370   -6.0680   24.7220 C   0  0  0  0  0  0  0  0  0  0  0  0
  -22.1270   -5.3640   23.6570 C   0  0  0  0  0  3  0  0  0  0  0  0
  -22.4740   -6.0410   22.4750 C   0  0  0  0  0  0  0  0  0  0  0  0
  -23.0220   -5.3520   21.4430 F   0  0  0  0  0  0  0  0  0  0  0  0
  -21.1980   -5.4160   25.8580 F   0  0  0  0  0  0  0  0  0  0  0  0
  -24.0950  -14.5940   21.1160 C   0  0  0  0  0  0  0  0  0  0  0  0
  -23.3890  -13.9270   22.0230 N   0  0  0  0  0  0  0  0  0  0  0  0
  -23.6910  -15.6630   20.6600 O   0  0  0  0  0  0  0  0  0  0  0  0
  -23.7310  -13.0640   22.4200 H   0  0  0  0  0  0  0  0  0  0  0  0
  -22.4960  -14.2870   22.3240 H   0  0  0  0  0  0  0  0  0  0  0  0
  -26.7820  -16.1040   20.1960 N   0  0  0  0  0  0  0  0  0  0  0  0
  -26.0760  -16.8050   20.3990 H   0  0  0  0  0  0  0  0  0  0  0  0
  -27.6450  -16.5010   19.8470 H   0  0  0  0  0  0  0  0  0  0  0  0
  -28.0040  -24.9670   19.1440 C   0  0  0  0  0  2  0  0  0  0  0  0
  -28.4640  -26.3950   19.4740 C   0  0  0  0  0  2  0  0  0  0  0  0
  -28.0530  -27.2940   18.4450 O   0  0  0  0  0  0  0  0  0  0  0  0
  -24.5140  -31.4470   22.9680 C   0  0  0  0  0  0  0  0  0  0  0  0
  -26.8630  -27.9100   18.7360 C   0  0  0  0  0  0  0  0  0  0  0  0
  -23.1310  -30.2500   21.2990 C   0  0  0  0  0  3  0  0  0  0  0  0
  -24.4150  -29.1300   19.4020 C   0  0  0  0  0  0  0  0  0  0  0  0
  -25.5530  -30.8770   20.7810 C   0  0  0  0  0  2  0  0  0  0  0  0
  -25.6150  -29.6550   19.8930 C   0  0  0  0  0  0  0  0  0  0  0  0
  -26.8460  -29.0470   19.5670 C   0  0  0  0  0  3  0  0  0  0  0  0
  -25.6510  -27.4000   18.2280 C   0  0  0  0  0  3  0  0  0  0  0  0
  -24.4250  -27.9950   18.5720 C   0  0  0  0  0  3  0  0  0  0  0  0
  -23.1430  -29.8420   19.8020 C   0  0  0  0  0  2  0  0  0  0  0  0
  -24.4260  -30.8620   21.7410 N   0  0  0  0  0  0  0  0  0  0  0  0
  -23.5290  -31.5200   23.7140 O   0  0  0  0  0  0  0  0  0  0  0  0
  -22.7200  -29.0210   22.1400 C   0  0  0  0  0  0  0  0  0  0  0  0
  -21.4480  -28.6070   22.0100 N   0  0  0  0  0  0  0  0  0  0  0  0
  -23.5380  -28.4480   22.8650 O   0  0  0  0  0  0  0  0  0  0  0  0
  -20.8390  -29.1400   21.4050 H   0  0  0  0  0  0  0  0  0  0  0  0
  -18.4480  -26.6070   22.2160 C   0  0  0  0  0  0  0  0  0  0  0  0
  -20.8480  -27.4510   22.6720 C   0  0  0  0  0  3  0  0  0  0  0  0
  -21.3260  -26.1280   22.0310 C   0  0  0  0  0  2  0  0  0  0  0  0
  -20.3910  -25.6200   20.9290 C   0  0  0  0  0  2  0  0  0  0  0  0
  -18.9830  -25.3870   21.4850 C   0  0  0  0  0  2  0  0  0  0  0  0
  -19.3240  -27.5840   22.7590 C   0  0  0  0  0  0  0  0  0  0  0  0
  -18.7750  -28.7170   23.3970 C   0  0  0  0  0  3  0  0  0  0  0  0
  -17.3800  -28.8820   23.4960 C   0  0  0  0  0  3  0  0  0  0  0  0
  -16.5180  -27.9040   22.9700 C   0  0  0  0  0  3  0  0  0  0  0  0
  -17.0530  -26.7670   22.3380 C   0  0  0  0  0  3  0  0  0  0  0  0
  -25.8500  -32.0710   23.4830 C   0  0  0  0  0  3  0  0  0  0  0  0
  -25.5430  -33.4160   23.9860 N   0  0  0  0  0  0  0  0  0  0  0  0
  -25.7760  -34.5510   23.3110 C   0  0  0  0  0  0  0  0  0  0  0  0
  -26.3480  -34.5740   22.2180 O   0  0  0  0  0  0  0  0  0  0  0  0
  -25.0270  -33.4700   24.8520 H   0  0  0  0  0  0  0  0  0  0  0  0
  -23.9900  -36.3190   23.2860 C   0  0  0  0  0  1  0  0  0  0  0  0
  -25.2990  -35.8670   23.9520 C   0  0  0  0  0  3  0  0  0  0  0  0
  -27.4780  -36.7150   24.7010 C   0  0  0  0  0  1  0  0  0  0  0  0
  -26.2980  -36.9550   23.8750 N   0  0  0  0  0  0  0  0  0  0  0  0
  -25.8880  -37.8420   24.1570 H   0  0  0  0  0  0  0  0  0  0  0  0
  -26.5530  -31.2040   24.5980 C   0  0  1  0  0  0  0  0  0  0  0  0
  -25.6150  -30.7930   25.7560 C   0  0  0  0  0  1  0  0  0  0  0  0
  -27.1420  -29.9100   23.9870 C   0  0  0  0  0  1  0  0  0  0  0  0
  -27.7390  -31.9900   25.2040 C   0  0  0  0  0  1  0  0  0  0  0  0
  2  1  1  0
  3  4  1  0
  4  9  1  0
  4  1  2  0
  5  3  2  0
  5  6  1  0
  6  2  2  0
  7  6  1  0
  7  8  1  0
 10  9  1  0
 11 17  1  0
 11 24  1  0
 12 17  1  0
 13 14  1  0
 13 12  1  0
 15 14  1  0
 15 28  1  0
 15 16  1  0
 17 16  1  0
 18 11  2  0
 19 23  1  0
 21 19  1  0
 21 24  1  0
 22 20  1  0
 23 10  1  0
 23 20  1  0
 24 22  1  0
 25 26  2  0
 26 45  1  0
 27 26  1  0
 27 30  1  0
 28 29  1  0
 28 25  1  0
 29 27  2  0
 30 31  1  0
 31 32  2  0
 33 36  1  0
 33 32  1  0
 34 33  2  0
 35 34  1  0
 35 30  2  0
 36 37  1  0
 37 42  2  0
 37 38  1  0
 38 39  2  0
 39 40  1  0
 40 44  1  0
 41 40  2  0
 42 41  1  0
 43 42  1  0
 45 46  1  0
 46 49  1  0
 46 48  1  0
 47 45  2  0
 50 25  1  0
 50 51  1  0
 52 50  1  0
 53 54  1  0
 53  5  1  0
 55 57  1  0
 55 54  1  0
 56 67  2  0
 57 62  1  0
 58 66  1  0
 58 68  1  0
 59 65  1  0
 59 61  1  0
 60 66  1  0
 61 60  1  0
 62 61  2  0
 63 64  1  0
 63 57  2  0
 64 59  2  0
 65 58  1  0
 66 56  1  0
 68 70  2  0
 69 68  1  0
 71 69  1  0
 72 81  2  0
 72 77  1  0
 73 69  1  0
 73 77  1  0
 74 73  1  0
 75 76  1  0
 75 74  1  0
 76 72  1  0
 77 78  2  0
 78 79  1  0
 80 79  2  0
 81 80  1  0
 82 56  1  0
 82 83  1  0
 82 92  1  0
 83 86  1  0
 84 88  1  0
 84 83  1  0
 85 84  2  0
 88 87  1  0
 90 88  1  0
 90 91  1  0
 90 89  1  0
 92 95  1  1
 92 93  1  0
 94 92  1  0
M  ISO  4  11 100  24 100  54 101  55 101
M  END
>  <TORSDO>  (79) 
F 21

>  <SCORE>  (79) 
-8.453

>  <name>  (79) 
79

>  <ligand_id>  (79) 
79

>  <original_smiles>  (79) 
[H]Oc1c([H])c([H])c(C([H])([H])C([H])([H])C2([H])C([H])([H])C([H])([H])N(C(=O)N3C([H])([H])C([H])([H])C([H])([H])C([H])(n4nc(-c5c([H])c([H])c(Oc6c([H])c([H])c(F)c([H])c6F)c([H])c5[H])c(C(=O)N([H])[H])c4N([H])[H])C3([H])[H])C([H])([H])C2([H])[H])c([H])c1C([H])([H])C([H])([H])Oc1c([H])c([H])c2c(c1[H])C([H])([H])N(C(=O)C([H])(N([H])C(=O)C([H])(N([H])C([H])([H])[H])C([H])([H])[H])C(C([H])([H])[H])(C([H])([H])[H])C([H])([H])[H])C([H])(C(=O)N([H])C1([H])c3c([H])c([H])c([H])c([H])c3C([H])([H])C([H])([H])C1([H])[H])C2([H])[H]

>  <smiles>  (79) 
[H]Oc1c([H])c([H])c(C([H])([H])C([H])([H])C2([H])C([H])([H])C([H])([H])N(C(=O)N3C([H])([H])C([H])([H])C([H])([H])C([H])(n4nc(-c5c([H])c([H])c(Oc6c([H])c([H])c(F)c([H])c6F)c([H])c5[H])c(C(=O)N([H])[H])c4N([H])[H])C3([H])[H])C([H])([H])C2([H])[H])c([H])c1C([H])([H])C([H])([H])Oc1c([H])c([H])c2c(c1[H])C([H])([H])N(C(=O)C([H])(N([H])C(=O)C([H])(N([H])C([H])([H])[H])C([H])([H])[H])C(C([H])([H])[H])(C([H])([H])[H])C([H])([H])[H])C([H])(C(=O)N([H])C1([H])c3c([H])c([H])c([H])c([H])c3C([H])([H])C([H])([H])C1([H])[H])C2([H])[H]

$$$$
80:0:0
     RDKit          3D

 94103  0  0  1  0  0  0  0  0999 V2000
  -31.6450  -19.6030   20.1140 C   0  0  0  0  0  3  0  0  0  0  0  0
  -29.2060  -19.6620   20.0430 C   0  0  0  0  0  3  0  0  0  0  0  0
  -31.6770  -21.0020   20.2590 C   0  0  0  0  0  3  0  0  0  0  0  0
  -29.2370  -21.0600   20.1830 C   0  0  0  0  0  3  0  0  0  0  0  0
  -30.4090  -18.9280   20.0250 C   0  0  0  0  0  0  0  0  0  0  0  0
  -30.4710  -21.7290   20.3010 C   0  0  0  0  0  0  0  0  0  0  0  0
  -30.3780  -17.4170   19.9030 C   0  0  0  0  0  2  0  0  0  0  0  0
  -31.0820  -17.7370   23.0130 C   0  0  0  0  0  2  0  0  0  0  0  0
  -29.7580  -17.1670   22.5030 C   0  0  0  0  0  2  0  0  0  0  0  0
  -31.7910  -16.7590   22.0710 C   0  0  0  0  0  2  0  0  0  0  0  0
  -30.4890  -16.6470   21.2440 C   0  0  2  0  0  0  0  0  0  0  0  0
  -30.6990  -14.3710   20.1980 C   0  0  0  0  0  0  0  0  0  0  0  0
  -30.2730  -12.3320   18.8910 C   0  0  0  0  0  2  0  0  0  0  0  0
  -29.2720  -12.6490   17.7620 C   0  0  0  0  0  2  0  0  0  0  0  0
  -27.8210  -12.5170   18.2660 C   0  0  0  0  0  2  0  0  0  0  0  0
  -27.5740  -13.2760   19.5980 C   0  0  0  0  0  3  0  0  0  0  0  0
  -28.6770  -12.9330   20.6240 C   0  0  0  0  0  2  0  0  0  0  0  0
  -29.9860  -13.2350   20.0120 N   0  0  0  0  0  0  0  0  0  0  0  0
  -31.7430  -14.6320   19.5940 O   0  0  0  0  0  0  0  0  0  0  0  0
  -30.1220  -15.2480   21.0280 N   0  0  0  0  0  0  0  0  0  0  0  0
  -29.2680  -14.9300   21.4640 H   0  0  0  0  0  0  0  0  0  0  0  0
  -25.2030  -13.8800   20.4090 C   0  0  0  0  0  0  0  0  0  0  0  0
  -24.1540  -13.1030   20.8240 C   0  0  0  0  0  0  0  0  0  0  0  0
  -24.6170  -11.7530   20.7680 C   0  0  0  0  0  0  0  0  0  0  0  0
  -26.2390  -13.0030   20.1310 N   0  0  0  0  0  0  0  0  0  0  0  0
  -25.8920  -11.7190   20.4020 N   0  0  0  0  0  0  0  0  0  0  0  0
  -23.9050  -10.4870   20.9890 C   0  0  0  0  0  0  0  0  0  0  0  0
  -24.3680   -9.5330   21.9210 C   0  0  0  0  0  3  0  0  0  0  0  0
  -23.6590   -8.3310   22.1280 C   0  0  0  0  0  3  0  0  0  0  0  0
  -22.4710   -8.0740   21.4020 C   0  0  0  0  0  0  0  0  0  0  0  0
  -22.0270   -9.0180   20.4590 C   0  0  0  0  0  3  0  0  0  0  0  0
  -22.7380  -10.2120   20.2510 C   0  0  0  0  0  3  0  0  0  0  0  0
  -21.7300   -6.9230   21.5170 O   0  0  0  0  0  0  0  0  0  0  0  0
  -21.6980   -6.2020   22.6840 C   0  0  0  0  0  0  0  0  0  0  0  0
  -21.2810   -6.7760   23.9040 C   0  0  0  0  0  3  0  0  0  0  0  0
  -21.1960   -5.9820   25.0640 C   0  0  0  0  0  3  0  0  0  0  0  0
  -21.5160   -4.6120   25.0060 C   0  0  0  0  0  0  0  0  0  0  0  0
  -21.9260   -4.0360   23.7900 C   0  0  0  0  0  3  0  0  0  0  0  0
  -22.0130   -4.8290   22.6310 C   0  0  0  0  0  0  0  0  0  0  0  0
  -22.3870   -4.2640   21.4580 F   0  0  0  0  0  0  0  0  0  0  0  0
  -21.4280   -3.8450   26.1180 F   0  0  0  0  0  0  0  0  0  0  0  0
  -22.7680  -13.5730   21.1600 C   0  0  0  0  0  0  0  0  0  0  0  0
  -22.0820  -12.8720   22.0550 N   0  0  0  0  0  0  0  0  0  0  0  0
  -22.3030  -14.5990   20.6650 O   0  0  0  0  0  0  0  0  0  0  0  0
  -22.4710  -12.0440   22.4810 H   0  0  0  0  0  0  0  0  0  0  0  0
  -21.1530  -13.1700   22.3210 H   0  0  0  0  0  0  0  0  0  0  0  0
  -25.3560  -15.2510   20.2270 N   0  0  0  0  0  0  0  0  0  0  0  0
  -24.5960  -15.9050   20.3760 H   0  0  0  0  0  0  0  0  0  0  0  0
  -26.1940  -15.6930   19.8710 H   0  0  0  0  0  0  0  0  0  0  0  0
  -30.4910  -23.2310   20.4660 C   0  0  0  0  0  2  0  0  0  0  0  0
  -30.5300  -23.9550   19.1130 C   0  0  0  0  0  2  0  0  0  0  0  0
  -30.1740  -25.4380   19.2510 C   0  0  0  0  0  2  0  0  0  0  0  0
  -28.6640  -25.6760   19.4040 C   0  0  0  0  0  2  0  0  0  0  0  0
  -28.5040  -26.8880   20.1220 O   0  0  0  0  0  0  0  0  0  0  0  0
  -24.6010  -31.9170   23.2250 C   0  0  0  0  0  0  0  0  0  0  0  0
  -27.2780  -27.5100   20.1420 C   0  0  0  0  0  0  0  0  0  0  0  0
  -23.3980  -30.5010   21.5890 C   0  0  0  0  0  3  0  0  0  0  0  0
  -24.8550  -28.9610   20.1750 C   0  0  0  0  0  0  0  0  0  0  0  0
  -25.9170  -30.8790   21.3830 C   0  0  0  0  0  2  0  0  0  0  0  0
  -26.0060  -29.5060   20.7550 C   0  0  0  0  0  0  0  0  0  0  0  0
  -27.2150  -28.7820   20.7430 C   0  0  0  0  0  3  0  0  0  0  0  0
  -26.1020  -26.9570   19.5800 C   0  0  0  0  0  3  0  0  0  0  0  0
  -24.8950  -27.6810   19.5920 C   0  0  0  0  0  3  0  0  0  0  0  0
  -23.6070  -29.8110   20.2130 C   0  0  0  0  0  2  0  0  0  0  0  0
  -24.6570  -31.1150   22.1250 N   0  0  0  0  0  0  0  0  0  0  0  0
  -23.5200  -32.1870   23.7650 O   0  0  0  0  0  0  0  0  0  0  0  0
  -22.7550  -29.4810   22.5550 C   0  0  0  0  0  0  0  0  0  0  0  0
  -21.4310  -29.2970   22.4320 N   0  0  0  0  0  0  0  0  0  0  0  0
  -23.4430  -28.8570   23.3670 O   0  0  0  0  0  0  0  0  0  0  0  0
  -20.9390  -29.8540   21.7470 H   0  0  0  0  0  0  0  0  0  0  0  0
  -18.0550  -28.1220   22.9500 C   0  0  0  0  0  0  0  0  0  0  0  0
  -20.6170  -28.3610   23.2050 C   0  0  0  0  0  3  0  0  0  0  0  0
  -20.7060  -26.9320   22.6200 C   0  0  0  0  0  2  0  0  0  0  0  0
  -19.5930  -26.6210   21.6140 C   0  0  0  0  0  2  0  0  0  0  0  0
  -18.2180  -26.7730   22.2690 C   0  0  0  0  0  2  0  0  0  0  0  0
  -19.1830  -28.8740   23.3740 C   0  0  0  0  0  0  0  0  0  0  0  0
  -18.9760  -30.1390   23.9680 C   0  0  0  0  0  3  0  0  0  0  0  0
  -17.6770  -30.6490   24.1430 C   0  0  0  0  0  3  0  0  0  0  0  0
  -16.5640  -29.8920   23.7350 C   0  0  0  0  0  3  0  0  0  0  0  0
  -16.7550  -28.6310   23.1440 C   0  0  0  0  0  3  0  0  0  0  0  0
  -25.8870  -32.5510   23.8410 C   0  0  0  0  0  3  0  0  0  0  0  0
  -25.5730  -33.9460   24.1760 N   0  0  0  0  0  0  0  0  0  0  0  0
  -25.9010  -35.0020   23.4210 C   0  0  0  0  0  0  0  0  0  0  0  0
  -26.5750  -34.9050   22.3920 O   0  0  0  0  0  0  0  0  0  0  0  0
  -24.9770  -34.0950   24.9790 H   0  0  0  0  0  0  0  0  0  0  0  0
  -24.1690  -36.7880   23.0570 C   0  0  0  0  0  1  0  0  0  0  0  0
  -25.4040  -36.3860   23.8790 C   0  0  0  0  0  3  0  0  0  0  0  0
  -27.5290  -37.2720   24.7310 C   0  0  0  0  0  1  0  0  0  0  0  0
  -26.4340  -37.4430   23.7800 N   0  0  0  0  0  0  0  0  0  0  0  0
  -26.0250  -38.3610   23.9270 H   0  0  0  0  0  0  0  0  0  0  0  0
  -26.4160  -31.7750   25.1100 C   0  0  1  0  0  0  0  0  0  0  0  0
  -25.3310  -31.5200   26.1820 C   0  0  0  0  0  1  0  0  0  0  0  0
  -27.0090  -30.4060   24.7000 C   0  0  0  0  0  1  0  0  0  0  0  0
  -27.5620  -32.5730   25.7730 C   0  0  0  0  0  1  0  0  0  0  0  0
  1  3  1  0
  2  4  2  0
  3  6  2  0
  4  6  1  0
  5  2  1  0
  5  1  2  0
  6 50  1  0
  7  5  1  0
 11  7  1  6
  9  8  1  0
 10  8  1  0
 11 10  1  0
 11  9  1  0
 12 20  1  0
 13 18  1  0
 14 15  1  0
 14 13  1  0
 16 15  1  0
 16 25  1  0
 16 17  1  0
 18 12  1  0
 18 17  1  0
 19 12  2  0
 20 11  1  0
 20 21  1  0
 22 23  2  0
 23 42  1  0
 24 23  1  0
 24 27  1  0
 25 26  1  0
 25 22  1  0
 26 24  2  0
 27 28  1  0
 28 29  2  0
 30 33  1  0
 30 29  1  0
 31 30  2  0
 32 31  1  0
 32 27  2  0
 33 34  1  0
 34 35  1  0
 35 36  2  0
 37 36  1  0
 37 41  1  0
 38 37  2  0
 39 34  2  0
 39 38  1  0
 40 39  1  0
 42 43  1  0
 43 46  1  0
 43 45  1  0
 44 42  2  0
 47 48  1  0
 47 22  1  0
 49 47  1  0
 51 52  1  0
 51 50  1  0
 52 53  1  0
 53 54  1  0
 54 56  1  0
 55 66  2  0
 56 61  1  0
 57 65  1  0
 57 67  1  0
 58 64  1  0
 58 60  1  0
 59 65  1  0
 60 59  1  0
 61 60  2  0
 62 63  1  0
 62 56  2  0
 63 58  2  0
 64 57  1  0
 65 55  1  0
 67 69  2  0
 68 67  1  0
 70 68  1  0
 71 80  2  0
 71 76  1  0
 72 68  1  0
 72 76  1  0
 73 72  1  0
 74 75  1  0
 74 73  1  0
 75 71  1  0
 76 77  2  0
 77 78  1  0
 79 78  2  0
 80 79  1  0
 81 55  1  0
 81 82  1  0
 81 91  1  0
 82 85  1  0
 83 87  1  0
 83 82  1  0
 84 83  2  0
 87 86  1  0
 89 87  1  0
 89 90  1  0
 89 88  1  0
 91 94  1  1
 91 92  1  0
 93 91  1  0
M  ISO  4  12 100  20 100  53 101  54 101
M  END
>  <TORSDO>  (80) 
F 22

>  <SCORE>  (80) 
-11.412

>  <name>  (80) 
80

>  <ligand_id>  (80) 
80

>  <original_smiles>  (80) 
[H]c1c([H])c([H])c2c(c1[H])C([H])([H])C([H])([H])C([H])([H])C2([H])N([H])C(=O)C1([H])N(C(=O)C([H])(N([H])C(=O)C([H])(N([H])C([H])([H])[H])C([H])([H])[H])C(C([H])([H])[H])(C([H])([H])[H])C([H])([H])[H])C([H])([H])c2c([H])c(OC([H])([H])C([H])([H])C([H])([H])C([H])([H])c3c([H])c([H])c(C([H])([H])C4(N([H])C(=O)N5C([H])([H])C([H])([H])C([H])([H])C([H])(n6nc(-c7c([H])c([H])c(Oc8c([H])c([H])c(F)c([H])c8F)c([H])c7[H])c(C(=O)N([H])[H])c6N([H])[H])C5([H])[H])C([H])([H])C([H])([H])C4([H])[H])c([H])c3[H])c([H])c([H])c2C1([H])[H]

>  <smiles>  (80) 
[H]c1c([H])c([H])c2c(c1[H])C([H])([H])C([H])([H])C([H])([H])C2([H])N([H])C(=O)C1([H])N(C(=O)C([H])(N([H])C(=O)C([H])(N([H])C([H])([H])[H])C([H])([H])[H])C(C([H])([H])[H])(C([H])([H])[H])C([H])([H])[H])C([H])([H])c2c([H])c(OC([H])([H])C([H])([H])C([H])([H])C([H])([H])c3c([H])c([H])c(C([H])([H])C4(N([H])C(=O)N5C([H])([H])C([H])([H])C([H])([H])C([H])(n6nc(-c7c([H])c([H])c(Oc8c([H])c([H])c(F)c([H])c8F)c([H])c7[H])c(C(=O)N([H])[H])c6N([H])[H])C5([H])[H])C([H])([H])C([H])([H])C4([H])[H])c([H])c3[H])c([H])c([H])c2C1([H])[H]

$$$$
81:0:0
     RDKit          3D

107116  0  0  1  0  0  0  0  0999 V2000
  -24.7350  -22.9070   20.9450 N   0  0  0  0  0  4  0  0  0  0  0  0
  -24.0660  -23.5310   21.3650 H   0  0  0  0  0  0  0  0  0  0  0  0
  -24.6140  -22.0210   21.4070 H   0  0  0  0  0  0  0  0  0  0  0  0
  -27.2750  -22.4940   21.2570 C   0  0  0  0  0  2  0  0  0  0  0  0
  -28.0480  -24.8820   21.1030 C   0  0  0  0  0  3  0  0  0  0  0  0
  -28.5370  -23.4030   21.2120 C   0  0  0  0  0  3  0  0  0  0  0  0
  -26.0810  -23.4590   21.3060 C   0  0  0  0  0  3  0  0  0  0  0  0
  -26.5860  -24.7260   20.5970 C   0  0  0  0  0  3  0  0  0  0  0  0
  -29.4610  -23.1660   22.3480 N   0  0  0  0  0  4  0  0  0  0  0  0
  -29.0320  -23.3600   23.2360 H   0  0  0  0  0  0  0  0  0  0  0  0
  -30.2850  -23.7370   22.2690 H   0  0  0  0  0  0  0  0  0  0  0  0
  -29.7740  -22.2110   22.3530 H   0  0  0  0  0  0  0  0  0  0  0  0
  -26.6120  -24.4590   19.2150 O   0  0  0  0  0  0  0  0  0  0  0  0
  -26.5080  -25.2790   18.7490 H   0  0  0  0  0  0  0  0  0  0  0  0
  -29.0260  -25.7910   20.2710 C   0  0  0  0  0  2  0  0  0  0  0  0
  -29.0200  -27.2110   20.5320 O   0  0  0  0  0  0  0  0  0  0  0  0
  -24.7460  -31.9640   23.6430 C   0  0  0  0  0  0  0  0  0  0  0  0
  -27.8370  -27.9140   20.4420 C   0  0  0  0  0  0  0  0  0  0  0  0
  -23.7290  -30.6010   21.8480 C   0  0  0  0  0  3  0  0  0  0  0  0
  -25.3580  -29.2720   20.4130 C   0  0  0  0  0  0  0  0  0  0  0  0
  -26.2330  -31.1180   21.8400 C   0  0  0  0  0  2  0  0  0  0  0  0
  -26.4390  -29.7990   21.1310 C   0  0  0  0  0  0  0  0  0  0  0  0
  -27.6720  -29.1100   21.1750 C   0  0  0  0  0  3  0  0  0  0  0  0
  -26.7740  -27.4880   19.6220 C   0  0  0  0  0  3  0  0  0  0  0  0
  -25.5190  -28.1080   19.6550 C   0  0  0  0  0  3  0  0  0  0  0  0
  -24.0590  -30.0410   20.4410 C   0  0  0  0  0  2  0  0  0  0  0  0
  -24.9150  -31.2400   22.5020 N   0  0  0  0  0  0  0  0  0  0  0  0
  -23.6190  -32.1340   24.1310 O   0  0  0  0  0  0  0  0  0  0  0  0
  -23.1000  -29.4730   22.6970 C   0  0  0  0  0  0  0  0  0  0  0  0
  -21.8260  -29.1540   22.4180 N   0  0  0  0  0  0  0  0  0  0  0  0
  -23.7580  -28.8890   23.5620 O   0  0  0  0  0  0  0  0  0  0  0  0
  -21.3520  -29.6850   21.6990 H   0  0  0  0  0  0  0  0  0  0  0  0
  -18.5610  -27.6130   22.5200 C   0  0  0  0  0  0  0  0  0  0  0  0
  -21.0380  -28.1060   23.0660 C   0  0  0  0  0  3  0  0  0  0  0  0
  -21.3430  -26.7190   22.4520 C   0  0  0  0  0  2  0  0  0  0  0  0
  -20.3860  -26.3380   21.3190 C   0  0  0  0  0  2  0  0  0  0  0  0
  -18.9390  -26.3190   21.8210 C   0  0  0  0  0  2  0  0  0  0  0  0
  -19.5470  -28.4610   23.0900 C   0  0  0  0  0  0  0  0  0  0  0  0
  -19.1440  -29.6690   23.6970 C   0  0  0  0  0  3  0  0  0  0  0  0
  -17.7850  -30.0340   23.7430 C   0  0  0  0  0  3  0  0  0  0  0  0
  -16.8110  -29.1840   23.1920 C   0  0  0  0  0  3  0  0  0  0  0  0
  -17.1980  -27.9750   22.5870 C   0  0  0  0  0  3  0  0  0  0  0  0
  -25.9520  -32.6320   24.3730 C   0  0  0  0  0  3  0  0  0  0  0  0
  -25.5940  -34.0330   24.6270 N   0  0  0  0  0  0  0  0  0  0  0  0
  -25.9650  -35.0630   23.8540 C   0  0  0  0  0  0  0  0  0  0  0  0
  -26.7180  -34.9370   22.8840 O   0  0  0  0  0  0  0  0  0  0  0  0
  -24.9410  -34.2060   25.3770 H   0  0  0  0  0  0  0  0  0  0  0  0
  -24.2210  -36.7870   23.3060 C   0  0  0  0  0  1  0  0  0  0  0  0
  -25.4140  -36.4550   24.2170 C   0  0  0  0  0  3  0  0  0  0  0  0
  -27.4630  -37.4330   25.1490 C   0  0  0  0  0  1  0  0  0  0  0  0
  -26.4260  -37.5310   24.1250 N   0  0  0  0  0  0  0  0  0  0  0  0
  -25.9890  -38.4440   24.2040 H   0  0  0  0  0  0  0  0  0  0  0  0
  -26.3470  -31.9010   25.7150 C   0  0  1  0  0  0  0  0  0  0  0  0
  -25.1400  -31.5990   26.6330 C   0  0  0  0  0  1  0  0  0  0  0  0
  -27.0600  -30.5620   25.4180 C   0  0  0  0  0  1  0  0  0  0  0  0
  -27.3490  -32.7700   26.5100 C   0  0  0  0  0  1  0  0  0  0  0  0
  -24.2680  -22.7570   19.5370 C   0  0  0  0  0  2  0  0  0  0  0  0
  -25.9760  -19.5610   18.2550 C   0  0  0  0  0  3  0  0  0  0  0  0
  -26.7310  -21.4440   16.9040 C   0  0  0  0  0  3  0  0  0  0  0  0
  -25.1220  -20.4160   18.9760 C   0  0  0  0  0  3  0  0  0  0  0  0
  -25.8410  -22.2840   17.5910 C   0  0  0  0  0  3  0  0  0  0  0  0
  -26.8380  -20.0900   17.2690 C   0  0  0  0  0  0  0  0  0  0  0  0
  -25.0930  -21.7970   18.6850 C   0  0  0  0  0  0  0  0  0  0  0  0
  -27.9500  -19.2490   16.6720 C   0  0  0  0  0  2  0  0  0  0  0  0
  -29.1500  -19.1610   17.6420 C   0  0  0  0  0  2  0  0  0  0  0  0
  -28.9200  -18.1150   18.7420 C   0  0  0  0  0  2  0  0  0  0  0  0
  -30.0740  -17.9000   19.7330 C   0  0  0  0  0  2  0  0  0  0  0  0
  -29.8490  -16.5460   20.4160 C   0  0  0  0  0  2  0  0  0  0  0  0
  -30.7800  -16.1530   21.5750 C   0  0  0  0  0  2  0  0  0  0  0  0
  -31.2000  -13.8140   20.9780 C   0  0  0  0  0  0  0  0  0  0  0  0
  -30.6220  -12.1450   19.2790 C   0  0  0  0  0  2  0  0  0  0  0  0
  -29.7100  -12.8160   18.2330 C   0  0  0  0  0  2  0  0  0  0  0  0
  -28.2310  -12.7200   18.6600 C   0  0  0  0  0  2  0  0  0  0  0  0
  -27.9990  -13.1700   20.1270 C   0  0  0  0  0  3  0  0  0  0  0  0
  -29.0320  -12.5200   21.0790 C   0  0  0  0  0  2  0  0  0  0  0  0
  -30.3870  -12.8060   20.5700 N   0  0  0  0  0  0  0  0  0  0  0  0
  -32.3130  -14.0330   20.4940 O   0  0  0  0  0  0  0  0  0  0  0  0
  -30.6150  -14.7120   21.7780 N   0  0  0  0  0  0  0  0  0  0  0  0
  -29.7480  -14.4180   22.2000 H   0  0  0  0  0  0  0  0  0  0  0  0
  -25.5970  -13.8200   20.7890 C   0  0  0  0  0  0  0  0  0  0  0  0
  -24.4980  -13.0630   21.0980 C   0  0  0  0  0  0  0  0  0  0  0  0
  -24.9240  -11.7020   21.0210 C   0  0  0  0  0  0  0  0  0  0  0  0
  -26.6250  -12.9190   20.5520 N   0  0  0  0  0  0  0  0  0  0  0  0
  -26.2200  -11.6380   20.7450 N   0  0  0  0  0  0  0  0  0  0  0  0
  -24.1610  -10.4530   21.1380 C   0  0  0  0  0  0  0  0  0  0  0  0
  -24.5260   -9.4510   22.0640 C   0  0  0  0  0  3  0  0  0  0  0  0
  -23.7670   -8.2650   22.1710 C   0  0  0  0  0  3  0  0  0  0  0  0
  -22.6280   -8.0760   21.3530 C   0  0  0  0  0  0  0  0  0  0  0  0
  -22.2830   -9.0670   20.4170 C   0  0  0  0  0  3  0  0  0  0  0  0
  -23.0430  -10.2450   20.3070 C   0  0  0  0  0  3  0  0  0  0  0  0
  -21.8460   -6.9460   21.3710 O   0  0  0  0  0  0  0  0  0  0  0  0
  -21.6320   -6.2370   22.5250 C   0  0  0  0  0  0  0  0  0  0  0  0
  -21.0930   -6.8410   23.6810 C   0  0  0  0  0  3  0  0  0  0  0  0
  -20.8230   -6.0620   24.8230 C   0  0  0  0  0  3  0  0  0  0  0  0
  -21.0830   -4.6780   24.8090 C   0  0  0  0  0  0  0  0  0  0  0  0
  -21.6160   -4.0730   23.6570 C   0  0  0  0  0  3  0  0  0  0  0  0
  -21.8860   -4.8500   22.5180 C   0  0  0  0  0  0  0  0  0  0  0  0
  -22.3790   -4.2570   21.4020 F   0  0  0  0  0  0  0  0  0  0  0  0
  -20.8170   -3.9270   25.9040 F   0  0  0  0  0  0  0  0  0  0  0  0
  -23.1080  -13.5670   21.3580 C   0  0  0  0  0  0  0  0  0  0  0  0
  -22.3500  -12.8640   22.1940 N   0  0  0  0  0  0  0  0  0  0  0  0
  -22.7020  -14.6130   20.8580 O   0  0  0  0  0  0  0  0  0  0  0  0
  -22.6900  -12.0140   22.6190 H   0  0  0  0  0  0  0  0  0  0  0  0
  -21.4150  -13.1800   22.4110 H   0  0  0  0  0  0  0  0  0  0  0  0
  -25.8010  -15.1910   20.6700 N   0  0  0  0  0  0  0  0  0  0  0  0
  -25.0470  -15.8600   20.7790 H   0  0  0  0  0  0  0  0  0  0  0  0
  -26.6710  -15.6170   20.3780 H   0  0  0  0  0  0  0  0  0  0  0  0
  1  2  1  0
  1  3  1  0
  4  7  1  0
  5 15  1  0
  5  6  1  0
  6  4  1  0
  6  9  1  0
  7  1  1  0
  8 13  1  0
  8  5  1  0
  8  7  1  0
  9 12  1  0
  9 10  1  0
 11  9  1  0
 14 13  1  0
 15 16  1  0
 17 28  2  0
 18 16  1  0
 18 23  1  0
 19 27  1  0
 19 29  1  0
 20 26  1  0
 20 22  1  0
 21 27  1  0
 22 23  2  0
 22 21  1  0
 24 25  1  0
 24 18  2  0
 25 20  2  0
 26 19  1  0
 27 17  1  0
 29 31  2  0
 30 29  1  0
 32 30  1  0
 33 42  2  0
 33 38  1  0
 34 30  1  0
 34 38  1  0
 35 34  1  0
 36 37  1  0
 36 35  1  0
 37 33  1  0
 38 39  2  0
 39 40  1  0
 41 40  2  0
 42 41  1  0
 43 17  1  0
 43 44  1  0
 43 53  1  0
 44 47  1  0
 45 49  1  0
 45 44  1  0
 46 45  2  0
 49 48  1  0
 51 52  1  0
 51 49  1  0
 51 50  1  0
 53 56  1  1
 53 54  1  0
 55 53  1  0
 57  1  1  0
 58 60  1  0
 59 62  1  0
 59 61  2  0
 61 63  1  0
 62 58  2  0
 63 60  2  0
 63 57  1  0
 64 62  1  0
 64 65  1  0
 65 66  1  0
 66 67  1  0
 67 68  1  0
 68 69  1  0
 69 78  1  0
 70 78  1  0
 71 76  1  0
 72 73  1  0
 72 71  1  0
 74 73  1  0
 74 83  1  0
 74 75  1  0
 76 70  1  0
 76 75  1  0
 77 70  2  0
 78 79  1  0
 80 81  2  0
 81100  1  0
 82 81  1  0
 82 85  1  0
 83 84  1  0
 83 80  1  0
 84 82  2  0
 85 86  1  0
 86 87  2  0
 88 91  1  0
 88 87  1  0
 89 88  2  0
 90 89  1  0
 90 85  2  0
 91 92  1  0
 92 93  1  0
 93 94  2  0
 95 94  1  0
 95 99  1  0
 96 95  2  0
 97 92  2  0
 97 96  1  0
 98 97  1  0
100101  1  0
101104  1  0
101103  1  0
102100  2  0
105106  1  0
105 80  1  0
107105  1  0
M  ISO  4  15 101  16 101  70 100  78 100
M  END
>  <TORSDO>  (81) 
F 28

>  <SCORE>  (81) 
-9.541

>  <name>  (81) 
81

>  <ligand_id>  (81) 
81

>  <original_smiles>  (81) 
[H]OC1([H])C([H])(C([H])([H])Oc2c([H])c([H])c3c(c2[H])C([H])([H])N(C(=O)C([H])(N([H])C(=O)C([H])(N([H])C([H])([H])[H])C([H])([H])[H])C(C([H])([H])[H])(C([H])([H])[H])C([H])([H])[H])C([H])(C(=O)N([H])C2([H])c4c([H])c([H])c([H])c([H])c4C([H])([H])C([H])([H])C2([H])[H])C3([H])[H])C([H])([N+]([H])([H])[H])C([H])([H])C1([H])[N+]([H])([H])C([H])([H])c1c([H])c([H])c(C([H])([H])C([H])([H])C([H])([H])C([H])([H])C([H])([H])C([H])([H])N([H])C(=O)N2C([H])([H])C([H])([H])C([H])([H])C([H])(n3nc(-c4c([H])c([H])c(Oc5c([H])c([H])c(F)c([H])c5F)c([H])c4[H])c(C(=O)N([H])[H])c3N([H])[H])C2([H])[H])c([H])c1[H]

>  <smiles>  (81) 
[H]OC1([H])C([H])(C([H])([H])Oc2c([H])c([H])c3c(c2[H])C([H])([H])N(C(=O)C([H])(N([H])C(=O)C([H])(N([H])C([H])([H])[H])C([H])([H])[H])C(C([H])([H])[H])(C([H])([H])[H])C([H])([H])[H])C([H])(C(=O)N([H])C2([H])c4c([H])c([H])c([H])c([H])c4C([H])([H])C([H])([H])C2([H])[H])C3([H])[H])C([H])([N+]([H])([H])[H])C([H])([H])C1([H])[N+]([H])([H])C([H])([H])c1c([H])c([H])c(C([H])([H])C([H])([H])C([H])([H])C([H])([H])C([H])([H])C([H])([H])N([H])C(=O)N2C([H])([H])C([H])([H])C([H])([H])C([H])(n3nc(-c4c([H])c([H])c(Oc5c([H])c([H])c(F)c([H])c5F)c([H])c4[H])c(C(=O)N([H])[H])c3N([H])[H])C2([H])[H])c([H])c1[H]

$$$$
82:0:0
     RDKit          3D

 93100  0  0  1  0  0  0  0  0999 V2000
  -28.6540  -21.9490   20.9030 C   0  0  0  0  0  3  0  0  0  0  0  0
  -29.1010  -23.3030   21.3760 N   0  0  0  0  0  4  0  0  0  0  0  0
  -30.0230  -23.2080   21.7750 H   0  0  0  0  0  0  0  0  0  0  0  0
  -28.4910  -23.5060   22.1530 H   0  0  0  0  0  0  0  0  0  0  0  0
  -29.0660  -24.5210   20.4940 C   0  0  0  0  0  2  0  0  0  0  0  0
  -29.1480  -25.8350   21.3330 C   0  0  0  0  0  2  0  0  0  0  0  0
  -29.0830  -27.0660   20.5850 O   0  0  0  0  0  0  0  0  0  0  0  0
  -24.7960  -32.0190   23.4820 C   0  0  0  0  0  0  0  0  0  0  0  0
  -27.8740  -27.7300   20.5800 C   0  0  0  0  0  0  0  0  0  0  0  0
  -23.7790  -30.5660   21.7550 C   0  0  0  0  0  3  0  0  0  0  0  0
  -25.4070  -29.1120   20.4320 C   0  0  0  0  0  0  0  0  0  0  0  0
  -26.2900  -31.0570   21.7300 C   0  0  0  0  0  2  0  0  0  0  0  0
  -26.4930  -29.6920   21.1000 C   0  0  0  0  0  0  0  0  0  0  0  0
  -27.7320  -29.0100   21.1690 C   0  0  0  0  0  3  0  0  0  0  0  0
  -26.7720  -27.1620   19.9090 C   0  0  0  0  0  3  0  0  0  0  0  0
  -25.5410  -27.8470   19.8330 C   0  0  0  0  0  3  0  0  0  0  0  0
  -24.1180  -29.9060   20.3920 C   0  0  0  0  0  2  0  0  0  0  0  0
  -24.9680  -31.2320   22.3820 N   0  0  0  0  0  0  0  0  0  0  0  0
  -23.6680  -32.2280   23.9500 O   0  0  0  0  0  0  0  0  0  0  0  0
  -23.1180  -29.5070   22.6670 C   0  0  0  0  0  0  0  0  0  0  0  0
  -21.8130  -29.2690   22.4640 N   0  0  0  0  0  0  0  0  0  0  0  0
  -23.7820  -28.9020   23.5130 O   0  0  0  0  0  0  0  0  0  0  0  0
  -21.3380  -29.8140   21.7580 H   0  0  0  0  0  0  0  0  0  0  0  0
  -18.4510  -27.9970   22.8310 C   0  0  0  0  0  0  0  0  0  0  0  0
  -20.9940  -28.2880   23.1770 C   0  0  0  0  0  3  0  0  0  0  0  0
  -21.1390  -26.8840   22.5450 C   0  0  0  0  0  2  0  0  0  0  0  0
  -20.0670  -26.5820   21.4910 C   0  0  0  0  0  2  0  0  0  0  0  0
  -18.6690  -26.6790   22.1060 C   0  0  0  0  0  2  0  0  0  0  0  0
  -19.5440  -28.7610   23.3190 C   0  0  0  0  0  0  0  0  0  0  0  0
  -19.2870  -29.9950   23.9530 C   0  0  0  0  0  3  0  0  0  0  0  0
  -17.9700  -30.4670   24.1050 C   0  0  0  0  0  3  0  0  0  0  0  0
  -16.8910  -29.6990   23.6320 C   0  0  0  0  0  3  0  0  0  0  0  0
  -17.1320  -28.4660   23.0020 C   0  0  0  0  0  3  0  0  0  0  0  0
  -26.0010  -32.7110   24.1900 C   0  0  0  0  0  3  0  0  0  0  0  0
  -26.4090  -32.0200   25.5490 C   0  0  1  0  0  0  0  0  0  0  0  0
  -25.2180  -31.7800   26.5030 C   0  0  0  0  0  1  0  0  0  0  0  0
  -27.0850  -30.6560   25.2840 C   0  0  0  0  0  1  0  0  0  0  0  0
  -27.4470  -32.8950   26.2920 C   0  0  0  0  0  1  0  0  0  0  0  0
  -25.6370  -34.1180   24.4110 N   0  0  0  0  0  0  0  0  0  0  0  0
  -26.0150  -35.1340   23.6240 C   0  0  0  0  0  0  0  0  0  0  0  0
  -26.7750  -34.9910   22.6610 O   0  0  0  0  0  0  0  0  0  0  0  0
  -24.9740  -34.3040   25.1480 H   0  0  0  0  0  0  0  0  0  0  0  0
  -24.2780  -36.8530   23.0270 C   0  0  0  0  0  1  0  0  0  0  0  0
  -25.4590  -36.5320   23.9550 C   0  0  0  0  0  3  0  0  0  0  0  0
  -27.4930  -37.5280   24.9030 C   0  0  0  0  0  1  0  0  0  0  0  0
  -26.4720  -37.6050   23.8620 N   0  0  0  0  0  0  0  0  0  0  0  0
  -26.0320  -38.5200   23.9180 H   0  0  0  0  0  0  0  0  0  0  0  0
  -27.6020  -21.9870   19.7560 C   0  0  0  0  0  2  0  0  0  0  0  0
  -26.7840  -20.7830   19.7170 N   0  0  0  0  0  0  0  0  0  0  0  0
  -26.0340  -20.9120   19.0440 H   0  0  0  0  0  0  0  0  0  0  0  0
  -26.3000  -20.6660   20.6010 H   0  0  0  0  0  0  0  0  0  0  0  0
  -29.8010  -20.9010   20.6800 C   0  0  0  0  0  2  0  0  0  0  0  0
  -29.4080  -19.4400   21.1000 C   0  0  0  0  0  2  0  0  0  0  0  0
  -30.3940  -18.2580   20.7380 C   0  0  0  0  0  2  0  0  0  0  0  0
  -30.0420  -16.7620   20.3540 C   0  0  0  0  0  2  0  0  0  0  0  0
  -31.4620  -14.7090   20.3370 C   0  0  0  0  0  0  0  0  0  0  0  0
  -31.0630  -12.4860   19.3380 C   0  0  0  0  0  2  0  0  0  0  0  0
  -30.1490  -12.6070   18.1030 C   0  0  0  0  0  2  0  0  0  0  0  0
  -28.6690  -12.5400   18.5250 C   0  0  0  0  0  2  0  0  0  0  0  0
  -28.3340  -13.4960   19.7000 C   0  0  0  0  0  3  0  0  0  0  0  0
  -29.3710  -13.3760   20.8400 C   0  0  0  0  0  2  0  0  0  0  0  0
  -30.7110  -13.5740   20.2650 N   0  0  0  0  0  0  0  0  0  0  0  0
  -32.5830  -14.7960   19.8380 O   0  0  0  0  0  0  0  0  0  0  0  0
  -30.9530  -15.7760   20.9810 N   0  0  0  0  0  0  0  0  0  0  0  0
  -31.7040  -16.2710   21.4400 H   0  0  0  0  0  0  0  0  0  0  0  0
  -25.9840  -14.2300   20.4540 C   0  0  0  0  0  0  0  0  0  0  0  0
  -24.8660  -13.5180   20.7960 C   0  0  0  0  0  0  0  0  0  0  0  0
  -25.2350  -12.1410   20.7050 C   0  0  0  0  0  0  0  0  0  0  0  0
  -26.9680  -13.2920   20.1800 N   0  0  0  0  0  0  0  0  0  0  0  0
  -26.5200  -12.0270   20.3910 N   0  0  0  0  0  0  0  0  0  0  0  0
  -24.4220  -10.9240   20.8440 C   0  0  0  0  0  0  0  0  0  0  0  0
  -24.7590   -9.9160   21.7750 C   0  0  0  0  0  3  0  0  0  0  0  0
  -23.9550   -8.7630   21.9060 C   0  0  0  0  0  3  0  0  0  0  0  0
  -22.7950   -8.6140   21.1080 C   0  0  0  0  0  0  0  0  0  0  0  0
  -22.4760   -9.6110   20.1680 C   0  0  0  0  0  3  0  0  0  0  0  0
  -23.2820  -10.7530   20.0350 C   0  0  0  0  0  3  0  0  0  0  0  0
  -21.9650   -7.5200   21.1490 O   0  0  0  0  0  0  0  0  0  0  0  0
  -21.7820   -6.7990   22.3010 C   0  0  0  0  0  0  0  0  0  0  0  0
  -21.2720   -7.3890   23.4780 C   0  0  0  0  0  3  0  0  0  0  0  0
  -21.0340   -6.5970   24.6170 C   0  0  0  0  0  3  0  0  0  0  0  0
  -21.2990   -5.2130   24.5800 C   0  0  0  0  0  0  0  0  0  0  0  0
  -21.8010   -4.6230   23.4090 C   0  0  0  0  0  3  0  0  0  0  0  0
  -22.0400   -5.4140   22.2700 C   0  0  0  0  0  0  0  0  0  0  0  0
  -22.5040   -4.8370   21.1370 F   0  0  0  0  0  0  0  0  0  0  0  0
  -21.0620   -4.4490   25.6710 F   0  0  0  0  0  0  0  0  0  0  0  0
  -23.5070  -14.0790   21.0930 C   0  0  0  0  0  0  0  0  0  0  0  0
  -22.7360  -13.4060   21.9390 N   0  0  0  0  0  0  0  0  0  0  0  0
  -23.1350  -15.1480   20.6080 O   0  0  0  0  0  0  0  0  0  0  0  0
  -23.0450  -12.5380   22.3510 H   0  0  0  0  0  0  0  0  0  0  0  0
  -21.8230  -13.7660   22.1770 H   0  0  0  0  0  0  0  0  0  0  0  0
  -26.2390  -15.5920   20.3310 N   0  0  0  0  0  0  0  0  0  0  0  0
  -25.5140  -16.2890   20.4610 H   0  0  0  0  0  0  0  0  0  0  0  0
  -27.1130  -15.9830   20.0040 H   0  0  0  0  0  0  0  0  0  0  0  0
  1 48  1  0
  1  2  1  0
  2  3  1  0
  2  4  1  0
  5  6  1  0
  5  2  1  0
  7  6  1  0
  8 19  2  0
  9  7  1  0
  9 14  1  0
 10 18  1  0
 10 20  1  0
 11 13  1  0
 12 18  1  0
 13 14  2  0
 13 12  1  0
 15  9  2  0
 16 15  1  0
 16 11  2  0
 17 11  1  0
 17 10  1  0
 18  8  1  0
 20 22  2  0
 21 20  1  0
 23 21  1  0
 24 33  2  0
 24 29  1  0
 25 21  1  0
 25 29  1  0
 26 25  1  0
 27 28  1  0
 27 26  1  0
 28 24  1  0
 29 30  2  0
 30 31  1  0
 32 31  2  0
 33 32  1  0
 34  8  1  0
 34 39  1  0
 34 35  1  0
 35 38  1  1
 35 36  1  0
 37 35  1  0
 39 42  1  0
 40 44  1  0
 40 39  1  0
 41 40  2  0
 44 43  1  0
 46 47  1  0
 46 44  1  0
 46 45  1  0
 49 48  1  0
 49 51  1  0
 50 49  1  0
 52  1  1  0
 52 53  1  0
 54 53  1  0
 55 54  1  0
 55 64  1  0
 56 64  1  0
 57 62  1  0
 58 59  1  0
 58 57  1  0
 60 59  1  0
 60 69  1  0
 60 61  1  0
 62 56  1  0
 62 61  1  0
 63 56  2  0
 64 65  1  0
 66 67  2  0
 67 86  1  0
 68 67  1  0
 68 71  1  0
 69 70  1  0
 69 66  1  0
 70 68  2  0
 71 72  1  0
 72 73  2  0
 74 77  1  0
 74 73  1  0
 75 74  2  0
 76 75  1  0
 76 71  2  0
 77 78  1  0
 78 79  1  0
 79 80  2  0
 81 80  1  0
 81 85  1  0
 82 81  2  0
 83 78  2  0
 83 82  1  0
 84 83  1  0
 86 87  1  0
 87 90  1  0
 87 89  1  0
 88 86  2  0
 91 66  1  0
 91 92  1  0
 93 91  1  0
M  ISO  4   6 101   7 101  56 100  64 100
M  END
>  <TORSDO>  (82) 
F 25

>  <SCORE>  (82) 
-11.048

>  <name>  (82) 
82

>  <ligand_id>  (82) 
82

>  <original_smiles>  (82) 
[H]c1c([H])c([H])c2c(c1[H])C([H])([H])C([H])([H])C([H])([H])C2([H])N([H])C(=O)C1([H])N(C(=O)C([H])(N([H])C(=O)C([H])(N([H])C([H])([H])[H])C([H])([H])[H])C(C([H])([H])[H])(C([H])([H])[H])C([H])([H])[H])C([H])([H])c2c([H])c(OC([H])([H])C([H])([H])[N+]([H])([H])C([H])(C([H])([H])N([H])[H])C([H])([H])C([H])([H])C([H])([H])C([H])([H])N([H])C(=O)N3C([H])([H])C([H])([H])C([H])([H])C([H])(n4nc(-c5c([H])c([H])c(Oc6c([H])c([H])c(F)c([H])c6F)c([H])c5[H])c(C(=O)N([H])[H])c4N([H])[H])C3([H])[H])c([H])c([H])c2C1([H])[H]

>  <smiles>  (82) 
[H]c1c([H])c([H])c2c(c1[H])C([H])([H])C([H])([H])C([H])([H])C2([H])N([H])C(=O)C1([H])N(C(=O)C([H])(N([H])C(=O)C([H])(N([H])C([H])([H])[H])C([H])([H])[H])C(C([H])([H])[H])(C([H])([H])[H])C([H])([H])[H])C([H])([H])c2c([H])c(OC([H])([H])C([H])([H])[N+]([H])([H])C([H])(C([H])([H])N([H])[H])C([H])([H])C([H])([H])C([H])([H])C([H])([H])N([H])C(=O)N3C([H])([H])C([H])([H])C([H])([H])C([H])(n4nc(-c5c([H])c([H])c(Oc6c([H])c([H])c(F)c([H])c6F)c([H])c5[H])c(C(=O)N([H])[H])c4N([H])[H])C3([H])[H])c([H])c([H])c2C1([H])[H]

$$$$
83:0:0
     RDKit          3D

 95103  0  0  1  0  0  0  0  0999 V2000
  -31.8990  -22.5710   19.2240 C   0  0  0  0  0  3  0  0  0  0  0  0
  -32.1620  -21.2000   19.3730 C   0  0  0  0  0  3  0  0  0  0  0  0
  -34.1320  -23.0850   20.0580 C   0  0  0  0  0  3  0  0  0  0  0  0
  -32.8770  -23.5140   19.5830 C   0  0  0  0  0  0  0  0  0  0  0  0
  -33.4010  -20.7550   19.8860 C   0  0  0  0  0  0  0  0  0  0  0  0
  -34.4040  -21.7050   20.2110 C   0  0  0  0  0  0  0  0  0  0  0  0
  -35.7680  -21.2850   20.7290 C   0  0  0  0  0  1  0  0  0  0  0  0
  -32.5510  -24.9840   19.4850 C   0  0  0  0  0  2  0  0  0  0  0  0
  -31.4120  -25.3640   20.4410 C   0  0  0  0  0  2  0  0  0  0  0  0
  -31.0380  -26.8370   20.2640 C   0  0  0  0  0  2  0  0  0  0  0  0
  -29.7070  -27.2460   20.8970 C   0  0  0  0  0  2  0  0  0  0  0  0
  -28.5970  -26.7940   20.1060 O   0  0  0  0  0  0  0  0  0  0  0  0
  -24.6120  -31.8850   23.1250 C   0  0  0  0  0  0  0  0  0  0  0  0
  -27.4220  -27.5250   20.1330 C   0  0  0  0  0  0  0  0  0  0  0  0
  -23.4560  -30.4510   21.4590 C   0  0  0  0  0  3  0  0  0  0  0  0
  -24.9650  -28.9360   20.0630 C   0  0  0  0  0  0  0  0  0  0  0  0
  -25.9620  -30.8780   21.2940 C   0  0  0  0  0  2  0  0  0  0  0  0
  -26.0830  -29.5030   20.6810 C   0  0  0  0  0  0  0  0  0  0  0  0
  -27.2960  -28.8010   20.7350 C   0  0  0  0  0  3  0  0  0  0  0  0
  -26.2820  -26.9680   19.5090 C   0  0  0  0  0  3  0  0  0  0  0  0
  -25.0520  -27.6630   19.4740 C   0  0  0  0  0  3  0  0  0  0  0  0
  -23.7020  -29.7690   20.0850 C   0  0  0  0  0  2  0  0  0  0  0  0
  -24.6930  -31.0900   22.0210 N   0  0  0  0  0  0  0  0  0  0  0  0
  -23.5190  -32.1380   23.6500 O   0  0  0  0  0  0  0  0  0  0  0  0
  -22.8190  -29.4210   22.4160 C   0  0  0  0  0  0  0  0  0  0  0  0
  -21.4990  -29.2310   22.2820 N   0  0  0  0  0  0  0  0  0  0  0  0
  -23.5050  -28.7980   23.2290 O   0  0  0  0  0  0  0  0  0  0  0  0
  -21.0140  -29.7730   21.5820 H   0  0  0  0  0  0  0  0  0  0  0  0
  -18.1240  -28.0510   22.7760 C   0  0  0  0  0  0  0  0  0  0  0  0
  -20.6830  -28.2880   23.0440 C   0  0  0  0  0  3  0  0  0  0  0  0
  -20.7770  -26.8680   22.4410 C   0  0  0  0  0  2  0  0  0  0  0  0
  -19.6700  -26.5700   21.4250 C   0  0  0  0  0  2  0  0  0  0  0  0
  -18.2890  -26.7130   22.0750 C   0  0  0  0  0  2  0  0  0  0  0  0
  -19.2490  -28.7970   23.2160 C   0  0  0  0  0  0  0  0  0  0  0  0
  -19.0460  -30.0490   23.8340 C   0  0  0  0  0  3  0  0  0  0  0  0
  -17.7460  -30.5570   24.0180 C   0  0  0  0  0  3  0  0  0  0  0  0
  -16.6330  -29.8030   23.6010 C   0  0  0  0  0  3  0  0  0  0  0  0
  -16.8220  -28.5550   22.9810 C   0  0  0  0  0  3  0  0  0  0  0  0
  -25.8790  -32.5340   23.7680 C   0  0  0  0  0  3  0  0  0  0  0  0
  -26.4110  -31.7550   25.0300 C   0  0  1  0  0  0  0  0  0  0  0  0
  -25.3140  -31.4670   26.0820 C   0  0  0  0  0  1  0  0  0  0  0  0
  -27.0410  -30.4100   24.6020 C   0  0  0  0  0  1  0  0  0  0  0  0
  -27.5360  -32.5690   25.7140 C   0  0  0  0  0  1  0  0  0  0  0  0
  -25.5410  -33.9180   24.1210 N   0  0  0  0  0  0  0  0  0  0  0  0
  -25.8380  -34.9890   23.3720 C   0  0  0  0  0  0  0  0  0  0  0  0
  -26.5020  -34.9180   22.3330 O   0  0  0  0  0  0  0  0  0  0  0  0
  -24.9620  -34.0540   24.9360 H   0  0  0  0  0  0  0  0  0  0  0  0
  -24.0600  -36.7290   23.0510 C   0  0  0  0  0  1  0  0  0  0  0  0
  -25.3130  -36.3510   23.8550 C   0  0  0  0  0  3  0  0  0  0  0  0
  -27.4190  -37.2850   24.7000 C   0  0  0  0  0  1  0  0  0  0  0  0
  -26.3150  -37.4330   23.7560 N   0  0  0  0  0  0  0  0  0  0  0  0
  -25.8830  -38.3390   23.9140 H   0  0  0  0  0  0  0  0  0  0  0  0
  -33.5830  -19.2580   20.0900 C   0  0  0  0  0  2  0  0  0  0  0  0
  -32.5740  -18.6930   21.1050 C   0  0  0  0  0  2  0  0  0  0  0  0
  -32.2060  -17.2380   20.7990 C   0  0  0  0  0  2  0  0  0  0  0  0
  -31.3550  -16.5930   21.9000 C   0  0  0  0  0  2  0  0  0  0  0  0
  -31.3420  -15.0600   21.8340 C   0  0  0  0  0  2  0  0  0  0  0  0
  -30.2830  -14.0960   19.7690 C   0  0  0  0  0  0  0  0  0  0  0  0
  -29.7100  -12.1260   18.4040 C   0  0  0  0  0  2  0  0  0  0  0  0
  -28.5680  -12.3230   17.3950 C   0  0  0  0  0  2  0  0  0  0  0  0
  -27.2010  -12.0880   18.0610 C   0  0  0  0  0  2  0  0  0  0  0  0
  -27.0490  -12.8950   19.3750 C   0  0  0  0  0  3  0  0  0  0  0  0
  -28.2660  -12.6890   20.2960 C   0  0  0  0  0  2  0  0  0  0  0  0
  -29.4890  -13.0220   19.5450 N   0  0  0  0  0  0  0  0  0  0  0  0
  -31.1060  -14.5190   18.9510 O   0  0  0  0  0  0  0  0  0  0  0  0
  -30.2470  -14.5030   21.0450 N   0  0  0  0  0  0  0  0  0  0  0  0
  -29.4980  -14.0930   21.5830 H   0  0  0  0  0  0  0  0  0  0  0  0
  -24.7970  -13.4140   20.5090 C   0  0  0  0  0  0  0  0  0  0  0  0
  -23.8180  -12.5980   21.0090 C   0  0  0  0  0  0  0  0  0  0  0  0
  -24.2880  -11.2590   20.8340 C   0  0  0  0  0  0  0  0  0  0  0  0
  -25.8010  -12.5690   20.0600 N   0  0  0  0  0  0  0  0  0  0  0  0
  -25.5090  -11.2680   20.3110 N   0  0  0  0  0  0  0  0  0  0  0  0
  -23.6280   -9.9710   21.0780 C   0  0  0  0  0  0  0  0  0  0  0  0
  -24.1490   -9.0360   21.9990 C   0  0  0  0  0  3  0  0  0  0  0  0
  -23.4840   -7.8110   22.2300 C   0  0  0  0  0  3  0  0  0  0  0  0
  -22.2850   -7.5140   21.5380 C   0  0  0  0  0  0  0  0  0  0  0  0
  -21.7830   -8.4390   20.6050 C   0  0  0  0  0  3  0  0  0  0  0  0
  -22.4500   -9.6550   20.3720 C   0  0  0  0  0  3  0  0  0  0  0  0
  -21.5860   -6.3410   21.6770 O   0  0  0  0  0  0  0  0  0  0  0  0
  -21.5700   -5.6480   22.8610 C   0  0  0  0  0  0  0  0  0  0  0  0
  -21.0770   -6.2210   24.0530 C   0  0  0  0  0  3  0  0  0  0  0  0
  -21.0120   -5.4510   25.2310 C   0  0  0  0  0  3  0  0  0  0  0  0
  -21.4330   -4.1080   25.2180 C   0  0  0  0  0  0  0  0  0  0  0  0
  -21.9190   -3.5330   24.0300 C   0  0  0  0  0  3  0  0  0  0  0  0
  -21.9830   -4.3010   22.8540 C   0  0  0  0  0  0  0  0  0  0  0  0
  -22.4330   -3.7350   21.7080 F   0  0  0  0  0  0  0  0  0  0  0  0
  -21.3640   -3.3650   26.3470 F   0  0  0  0  0  0  0  0  0  0  0  0
  -22.4780  -13.0250   21.5360 C   0  0  0  0  0  0  0  0  0  0  0  0
  -21.9200  -12.2670   22.4750 N   0  0  0  0  0  0  0  0  0  0  0  0
  -21.9400  -14.0620   21.1520 O   0  0  0  0  0  0  0  0  0  0  0  0
  -22.3670  -11.4200   22.7950 H   0  0  0  0  0  0  0  0  0  0  0  0
  -21.0350  -12.5380   22.8770 H   0  0  0  0  0  0  0  0  0  0  0  0
  -24.9140  -14.7950   20.3770 N   0  0  0  0  0  0  0  0  0  0  0  0
  -24.1820  -15.4390   20.6570 H   0  0  0  0  0  0  0  0  0  0  0  0
  -25.7150  -15.2620   19.9700 H   0  0  0  0  0  0  0  0  0  0  0  0
  1  2  2  0
  1  4  1  0
  2  5  1  0
  3  6  1  0
  4  3  2  0
  5 53  1  0
  5  6  2  0
  6  7  1  0
  8  4  1  0
  8  9  1  0
 10  9  1  0
 10 11  1  0
 12 14  1  0
 12 11  1  0
 13 24  2  0
 14 19  1  0
 15 23  1  0
 15 25  1  0
 16 22  1  0
 16 18  1  0
 17 23  1  0
 18 19  2  0
 18 17  1  0
 20 14  2  0
 21 20  1  0
 21 16  2  0
 22 15  1  0
 23 13  1  0
 25 27  2  0
 26 25  1  0
 28 26  1  0
 29 38  2  0
 29 34  1  0
 30 26  1  0
 30 34  1  0
 31 30  1  0
 32 33  1  0
 32 31  1  0
 33 29  1  0
 34 35  2  0
 35 36  1  0
 37 36  2  0
 38 37  1  0
 39 13  1  0
 39 44  1  0
 39 40  1  0
 40 43  1  1
 40 41  1  0
 42 40  1  0
 44 47  1  0
 45 49  1  0
 45 44  1  0
 46 45  2  0
 49 48  1  0
 51 49  1  0
 51 52  1  0
 51 50  1  0
 53 54  1  0
 55 54  1  0
 55 56  1  0
 57 56  1  0
 58 66  1  0
 59 64  1  0
 60 61  1  0
 60 59  1  0
 62 61  1  0
 62 71  1  0
 62 63  1  0
 64 58  1  0
 64 63  1  0
 65 58  2  0
 66 67  1  0
 66 57  1  0
 68 69  2  0
 69 88  1  0
 70 69  1  0
 70 73  1  0
 71 72  1  0
 71 68  1  0
 72 70  2  0
 73 74  1  0
 74 75  2  0
 76 79  1  0
 76 75  1  0
 77 76  2  0
 78 77  1  0
 78 73  2  0
 79 80  1  0
 80 81  1  0
 81 82  2  0
 83 82  1  0
 83 87  1  0
 84 83  2  0
 85 80  2  0
 85 84  1  0
 86 85  1  0
 88 89  1  0
 89 91  1  0
 89 92  1  0
 90 88  2  0
 93 68  1  0
 93 94  1  0
 95 93  1  0
M  ISO  4  11 101  12 101  58 100  66 100
M  END
>  <TORSDO>  (83) 
F 25

>  <SCORE>  (83) 
-10.327

>  <name>  (83) 
83

>  <ligand_id>  (83) 
83

>  <original_smiles>  (83) 
[H]c1c([H])c([H])c2c(c1[H])C([H])([H])C([H])([H])C([H])([H])C2([H])N([H])C(=O)C1([H])N(C(=O)C([H])(N([H])C(=O)C([H])(N([H])C([H])([H])[H])C([H])([H])[H])C(C([H])([H])[H])(C([H])([H])[H])C([H])([H])[H])C([H])([H])c2c([H])c(OC([H])([H])C([H])([H])C([H])([H])C([H])([H])c3c([H])c([H])c(C([H])([H])C([H])([H])C([H])([H])C([H])([H])C([H])([H])N([H])C(=O)N4C([H])([H])C([H])([H])C([H])([H])C([H])(n5nc(-c6c([H])c([H])c(Oc7c([H])c([H])c(F)c([H])c7F)c([H])c6[H])c(C(=O)N([H])[H])c5N([H])[H])C4([H])[H])c(C([H])([H])[H])c3[H])c([H])c([H])c2C1([H])[H]

>  <smiles>  (83) 
[H]c1c([H])c([H])c2c(c1[H])C([H])([H])C([H])([H])C([H])([H])C2([H])N([H])C(=O)C1([H])N(C(=O)C([H])(N([H])C(=O)C([H])(N([H])C([H])([H])[H])C([H])([H])[H])C(C([H])([H])[H])(C([H])([H])[H])C([H])([H])[H])C([H])([H])c2c([H])c(OC([H])([H])C([H])([H])C([H])([H])C([H])([H])c3c([H])c([H])c(C([H])([H])C([H])([H])C([H])([H])C([H])([H])C([H])([H])N([H])C(=O)N4C([H])([H])C([H])([H])C([H])([H])C([H])(n5nc(-c6c([H])c([H])c(Oc7c([H])c([H])c(F)c([H])c7F)c([H])c6[H])c(C(=O)N([H])[H])c5N([H])[H])C4([H])[H])c(C([H])([H])[H])c3[H])c([H])c([H])c2C1([H])[H]

$$$$
84:0:0
     RDKit          3D

 92100  0  0  1  0  0  0  0  0999 V2000
  -31.1310  -21.5810   18.5070 C   0  0  0  0  0  1  0  0  0  0  0  0
  -30.6750  -21.1840   19.8650 N   0  0  2  0  0  4  0  0  0  0  0  0
  -31.4070  -21.5050   20.4820 H   0  0  0  0  0  0  0  0  0  0  0  0
  -31.0730  -17.6570   21.5580 C   0  0  0  0  0  2  0  0  0  0  0  0
  -29.6390  -17.4110   19.4750 C   0  0  0  0  0  2  0  0  0  0  0  0
  -30.9000  -19.2000   21.4840 C   0  0  0  0  0  2  0  0  0  0  0  0
  -29.4690  -18.9500   19.4030 C   0  0  0  0  0  2  0  0  0  0  0  0
  -29.8680  -16.9290   20.9250 C   0  0  0  0  0  3  0  0  0  0  0  0
  -30.6820  -19.6840   20.0290 C   0  0  0  0  0  3  0  0  0  0  0  0
  -30.6340  -14.4970   20.5150 C   0  0  0  0  0  0  0  0  0  0  0  0
  -30.3920  -12.3350   19.3430 C   0  0  0  0  0  2  0  0  0  0  0  0
  -29.4490  -12.5480   18.1390 C   0  0  0  0  0  2  0  0  0  0  0  0
  -27.9710  -12.4060   18.5580 C   0  0  0  0  0  2  0  0  0  0  0  0
  -27.6290  -13.2260   19.8300 C   0  0  0  0  0  3  0  0  0  0  0  0
  -28.6770  -12.9660   20.9380 C   0  0  0  0  0  2  0  0  0  0  0  0
  -30.0070  -13.2940   20.3900 N   0  0  0  0  0  0  0  0  0  0  0  0
  -31.7410  -14.7360   20.0230 O   0  0  0  0  0  0  0  0  0  0  0  0
  -29.8590  -15.4570   21.0610 N   0  0  0  0  0  0  0  0  0  0  0  0
  -29.0140  -15.0880   21.4700 H   0  0  0  0  0  0  0  0  0  0  0  0
  -25.2230  -13.8450   20.5100 C   0  0  0  0  0  0  0  0  0  0  0  0
  -24.1510  -13.0770   20.8750 C   0  0  0  0  0  0  0  0  0  0  0  0
  -24.6090  -11.7250   20.8560 C   0  0  0  0  0  0  0  0  0  0  0  0
  -26.2700  -12.9600   20.2940 N   0  0  0  0  0  0  0  0  0  0  0  0
  -25.9020  -11.6800   20.5580 N   0  0  0  0  0  0  0  0  0  0  0  0
  -23.8800  -10.4640   21.0480 C   0  0  0  0  0  0  0  0  0  0  0  0
  -24.3130   -9.4970   21.9820 C   0  0  0  0  0  3  0  0  0  0  0  0
  -23.5850   -8.3000   22.1610 C   0  0  0  0  0  3  0  0  0  0  0  0
  -22.4120   -8.0640   21.4060 C   0  0  0  0  0  0  0  0  0  0  0  0
  -21.9990   -9.0200   20.4620 C   0  0  0  0  0  3  0  0  0  0  0  0
  -22.7280  -10.2080   20.2800 C   0  0  0  0  0  3  0  0  0  0  0  0
  -21.6560   -6.9190   21.4950 O   0  0  0  0  0  0  0  0  0  0  0  0
  -21.6140   -6.1710   22.6440 C   0  0  0  0  0  0  0  0  0  0  0  0
  -21.2020   -6.7230   23.8770 C   0  0  0  0  0  3  0  0  0  0  0  0
  -21.1070   -5.9020   25.0190 C   0  0  0  0  0  3  0  0  0  0  0  0
  -21.4130   -4.5300   24.9280 C   0  0  0  0  0  0  0  0  0  0  0  0
  -21.8190   -3.9790   23.7000 C   0  0  0  0  0  3  0  0  0  0  0  0
  -21.9160   -4.7970   22.5600 C   0  0  0  0  0  0  0  0  0  0  0  0
  -22.2860   -4.2570   21.3740 F   0  0  0  0  0  0  0  0  0  0  0  0
  -21.3150   -3.7400   26.0220 F   0  0  0  0  0  0  0  0  0  0  0  0
  -22.7520  -13.5580   21.1350 C   0  0  0  0  0  0  0  0  0  0  0  0
  -22.0160  -12.8660   21.9990 N   0  0  0  0  0  0  0  0  0  0  0  0
  -22.3190  -14.5810   20.6080 O   0  0  0  0  0  0  0  0  0  0  0  0
  -22.3790  -12.0370   22.4480 H   0  0  0  0  0  0  0  0  0  0  0  0
  -21.0780  -13.1700   22.2160 H   0  0  0  0  0  0  0  0  0  0  0  0
  -25.3930  -15.2140   20.3260 N   0  0  0  0  0  0  0  0  0  0  0  0
  -24.6260  -15.8700   20.4210 H   0  0  0  0  0  0  0  0  0  0  0  0
  -26.2460  -15.6470   19.9960 H   0  0  0  0  0  0  0  0  0  0  0  0
  -29.4350  -21.9180   20.2890 C   0  0  0  0  0  2  0  0  0  0  0  0
  -29.6050  -23.4730   20.3970 C   0  0  0  0  0  3  0  0  0  0  0  0
  -28.3460  -24.2420   20.8850 C   0  0  0  0  0  3  0  0  0  0  0  0
  -28.5610  -25.7400   21.2550 C   0  0  0  0  0  2  0  0  0  0  0  0
  -28.4430  -26.6740   20.1680 O   0  0  0  0  0  0  0  0  0  0  0  0
  -24.6140  -31.8740   23.2360 C   0  0  0  0  0  0  0  0  0  0  0  0
  -27.2880  -27.4280   20.1810 C   0  0  0  0  0  0  0  0  0  0  0  0
  -23.4190  -30.4610   21.5930 C   0  0  0  0  0  3  0  0  0  0  0  0
  -24.8860  -28.9230   20.1780 C   0  0  0  0  0  0  0  0  0  0  0  0
  -25.9440  -30.8290   21.4030 C   0  0  0  0  0  2  0  0  0  0  0  0
  -26.0390  -29.4550   20.7700 C   0  0  0  0  0  0  0  0  0  0  0  0
  -27.2460  -28.7140   20.7700 C   0  0  0  0  0  3  0  0  0  0  0  0
  -26.1230  -26.9090   19.5830 C   0  0  0  0  0  3  0  0  0  0  0  0
  -24.9220  -27.6490   19.5820 C   0  0  0  0  0  3  0  0  0  0  0  0
  -23.6370  -29.7760   20.2170 C   0  0  0  0  0  2  0  0  0  0  0  0
  -24.6770  -31.0700   22.1350 N   0  0  0  0  0  0  0  0  0  0  0  0
  -23.5300  -32.1430   23.7720 O   0  0  0  0  0  0  0  0  0  0  0  0
  -22.7690  -29.4420   22.5550 C   0  0  0  0  0  0  0  0  0  0  0  0
  -21.4420  -29.2640   22.4320 N   0  0  0  0  0  0  0  0  0  0  0  0
  -23.4520  -28.8140   23.3670 O   0  0  0  0  0  0  0  0  0  0  0  0
  -20.9510  -29.8220   21.7470 H   0  0  0  0  0  0  0  0  0  0  0  0
  -18.0650  -28.0860   22.9450 C   0  0  0  0  0  0  0  0  0  0  0  0
  -20.6260  -28.3270   23.2030 C   0  0  0  0  0  3  0  0  0  0  0  0
  -20.7160  -26.8980   22.6180 C   0  0  0  0  0  2  0  0  0  0  0  0
  -19.6060  -26.5890   21.6090 C   0  0  0  0  0  2  0  0  0  0  0  0
  -18.2290  -26.7380   22.2620 C   0  0  0  0  0  2  0  0  0  0  0  0
  -19.1910  -28.8390   23.3730 C   0  0  0  0  0  0  0  0  0  0  0  0
  -18.9840  -30.1000   23.9700 C   0  0  0  0  0  3  0  0  0  0  0  0
  -17.6840  -30.6100   24.1460 C   0  0  0  0  0  3  0  0  0  0  0  0
  -16.5720  -29.8540   23.7360 C   0  0  0  0  0  3  0  0  0  0  0  0
  -16.7640  -28.5940   23.1410 C   0  0  0  0  0  3  0  0  0  0  0  0
  -25.8960  -32.5110   23.8580 C   0  0  0  0  0  3  0  0  0  0  0  0
  -25.5810  -33.9060   24.1880 N   0  0  0  0  0  0  0  0  0  0  0  0
  -25.9080  -34.9600   23.4280 C   0  0  0  0  0  0  0  0  0  0  0  0
  -26.5780  -34.8590   22.3960 O   0  0  0  0  0  0  0  0  0  0  0  0
  -24.9860  -34.0590   24.9900 H   0  0  0  0  0  0  0  0  0  0  0  0
  -24.1710  -36.7430   23.0710 C   0  0  0  0  0  1  0  0  0  0  0  0
  -25.4140  -36.3460   23.8840 C   0  0  0  0  0  3  0  0  0  0  0  0
  -27.5440  -37.2410   24.7120 C   0  0  0  0  0  1  0  0  0  0  0  0
  -26.4410  -37.4040   23.7700 N   0  0  0  0  0  0  0  0  0  0  0  0
  -26.0310  -38.3220   23.9180 H   0  0  0  0  0  0  0  0  0  0  0  0
  -26.4190  -31.7400   25.1320 C   0  0  1  0  0  0  0  0  0  0  0  0
  -25.3290  -31.4950   26.2010 C   0  0  0  0  0  1  0  0  0  0  0  0
  -27.0070  -30.3660   24.7350 C   0  0  0  0  0  1  0  0  0  0  0  0
  -27.5670  -32.5380   25.7940 C   0  0  0  0  0  1  0  0  0  0  0  0
  1  2  1  0
  2 48  1  0
  2  3  1  1
  5  8  1  0
  6  4  1  0
  7  5  1  0
  7  9  1  0
  8 18  1  0
  8  4  1  0
  9  2  1  0
  9  6  1  0
 10 18  1  0
 11 16  1  0
 12 13  1  0
 12 11  1  0
 14 13  1  0
 14 23  1  0
 14 15  1  0
 16 10  1  0
 16 15  1  0
 17 10  2  0
 18 19  1  0
 20 21  2  0
 21 40  1  0
 22 21  1  0
 22 25  1  0
 23 20  1  0
 23 24  1  0
 24 22  2  0
 25 26  1  0
 26 27  2  0
 28 31  1  0
 28 27  1  0
 29 28  2  0
 30 29  1  0
 30 25  2  0
 31 32  1  0
 32 33  1  0
 33 34  2  0
 35 34  1  0
 35 39  1  0
 36 35  2  0
 37 32  2  0
 37 36  1  0
 38 37  1  0
 40 41  1  0
 41 44  1  0
 41 43  1  0
 42 40  2  0
 45 46  1  0
 45 20  1  0
 47 45  1  0
 48 49  1  0
 49 50  2  0
 50 51  1  0
 52 54  1  0
 52 51  1  0
 53 64  2  0
 54 59  1  0
 55 63  1  0
 55 65  1  0
 56 62  1  0
 56 58  1  0
 57 63  1  0
 58 59  2  0
 58 57  1  0
 60 54  2  0
 61 60  1  0
 61 56  2  0
 62 55  1  0
 63 53  1  0
 65 67  2  0
 66 65  1  0
 68 66  1  0
 69 78  2  0
 69 74  1  0
 70 66  1  0
 70 74  1  0
 71 70  1  0
 72 73  1  0
 72 71  1  0
 73 69  1  0
 74 75  2  0
 75 76  1  0
 77 76  2  0
 78 77  1  0
 79 53  1  0
 79 80  1  0
 79 89  1  0
 80 83  1  0
 81 85  1  0
 81 80  1  0
 82 81  2  0
 85 84  1  0
 87 85  1  0
 87 88  1  0
 87 86  1  0
 89 92  1  1
 89 90  1  0
 91 89  1  0
M  ISO  4  10 100  18 100  51 101  52 101
M  END
>  <TORSDO>  (84) 
F 21

>  <SCORE>  (84) 
-13.670

>  <name>  (84) 
84

>  <ligand_id>  (84) 
84

>  <original_smiles>  (84) 
[H]c1c([H])c([H])c2c(c1[H])C([H])([H])C([H])([H])C([H])([H])C2([H])N([H])C(=O)C1([H])N(C(=O)C([H])(N([H])C(=O)C([H])(N([H])C([H])([H])[H])C([H])([H])[H])C(C([H])([H])[H])(C([H])([H])[H])C([H])([H])[H])C([H])([H])c2c([H])c(OC([H])([H])C([H])([H])C([H])([H])C([H])([H])[N+]([H])(C([H])([H])[H])C3([H])C([H])([H])C([H])([H])C([H])(N([H])C(=O)N4C([H])([H])C([H])([H])C([H])([H])C([H])(n5nc(-c6c([H])c([H])c(Oc7c([H])c([H])c(F)c([H])c7F)c([H])c6[H])c(C(=O)N([H])[H])c5N([H])[H])C4([H])[H])C([H])([H])C3([H])[H])c([H])c([H])c2C1([H])[H]

>  <smiles>  (84) 
[H]c1c([H])c([H])c2c(c1[H])C([H])([H])C([H])([H])C([H])([H])C2([H])N([H])C(=O)C1([H])N(C(=O)C([H])(N([H])C(=O)C([H])(N([H])C([H])([H])[H])C([H])([H])[H])C(C([H])([H])[H])(C([H])([H])[H])C([H])([H])[H])C([H])([H])c2c([H])c(OC([H])([H])C([H])([H])C([H])([H])C([H])([H])[N+]([H])(C([H])([H])[H])C3([H])C([H])([H])C([H])([H])C([H])(N([H])C(=O)N4C([H])([H])C([H])([H])C([H])([H])C([H])(n5nc(-c6c([H])c([H])c(Oc7c([H])c([H])c(F)c([H])c7F)c([H])c6[H])c(C(=O)N([H])[H])c5N([H])[H])C4([H])[H])C([H])([H])C3([H])[H])c([H])c([H])c2C1([H])[H]

$$$$
85:0:0
     RDKit          3D

 97105  0  0  1  0  0  0  0  0999 V2000
  -30.3540  -21.2270   19.2900 C   0  0  0  0  0  3  0  0  0  0  0  0
  -30.0980  -22.6090   19.3340 C   0  0  0  0  0  3  0  0  0  0  0  0
  -31.0950  -20.6130   20.3160 C   0  0  0  0  0  3  0  0  0  0  0  0
  -31.3070  -22.7580   21.4500 C   0  0  0  0  0  3  0  0  0  0  0  0
  -30.5810  -23.3780   20.4110 C   0  0  0  0  0  0  0  0  0  0  0  0
  -31.5800  -21.3720   21.4050 C   0  0  0  0  0  0  0  0  0  0  0  0
  -33.6470  -21.4860   22.9080 C   0  0  0  0  0  1  0  0  0  0  0  0
  -32.3950  -20.6910   22.5000 C   0  0  0  0  0  3  0  0  0  0  0  0
  -31.5450  -20.4180   23.6790 N   0  0  0  0  0  4  0  0  0  0  0  0
  -31.9100  -20.9420   24.4570 H   0  0  0  0  0  0  0  0  0  0  0  0
  -30.6190  -20.7610   23.4910 H   0  0  0  0  0  0  0  0  0  0  0  0
  -31.4340  -18.9960   24.0650 C   0  0  0  0  0  2  0  0  0  0  0  0
  -30.1530  -18.3620   23.4940 C   0  0  0  0  0  2  0  0  0  0  0  0
  -30.2340  -16.8410   23.3220 C   0  0  0  0  0  2  0  0  0  0  0  0
  -31.0620  -16.4190   22.0970 C   0  0  0  0  0  2  0  0  0  0  0  0
  -30.6490  -15.0230   21.6240 C   0  0  0  0  0  2  0  0  0  0  0  0
  -31.7120  -13.7420   19.7430 C   0  0  0  0  0  0  0  0  0  0  0  0
  -30.9860  -11.7650   18.4540 C   0  0  0  0  0  2  0  0  0  0  0  0
  -29.9920  -12.1370   17.3380 C   0  0  0  0  0  2  0  0  0  0  0  0
  -28.5450  -12.1960   17.8700 C   0  0  0  0  0  2  0  0  0  0  0  0
  -28.4320  -13.0340   19.1720 C   0  0  0  0  0  3  0  0  0  0  0  0
  -29.4970  -12.5480   20.1770 C   0  0  0  0  0  2  0  0  0  0  0  0
  -30.8280  -12.7180   19.5650 N   0  0  0  0  0  0  0  0  0  0  0  0
  -32.6570  -13.9510   18.9790 O   0  0  0  0  0  0  0  0  0  0  0  0
  -31.7390  -14.3220   20.9520 N   0  0  0  0  0  0  0  0  0  0  0  0
  -32.6510  -14.6970   21.1690 H   0  0  0  0  0  0  0  0  0  0  0  0
  -26.1980  -13.9960   20.0340 C   0  0  0  0  0  0  0  0  0  0  0  0
  -25.0560  -13.3890   20.4830 C   0  0  0  0  0  0  0  0  0  0  0  0
  -25.3080  -11.9840   20.4240 C   0  0  0  0  0  0  0  0  0  0  0  0
  -27.0850  -12.9690   19.7370 N   0  0  0  0  0  0  0  0  0  0  0  0
  -26.5520  -11.7540   20.0210 N   0  0  0  0  0  0  0  0  0  0  0  0
  -24.4200  -10.8410   20.6730 C   0  0  0  0  0  0  0  0  0  0  0  0
  -24.7730   -9.8170   21.5800 C   0  0  0  0  0  3  0  0  0  0  0  0
  -23.8960   -8.7370   21.8150 C   0  0  0  0  0  3  0  0  0  0  0  0
  -22.6520   -8.6750   21.1450 C   0  0  0  0  0  0  0  0  0  0  0  0
  -22.3160   -9.6840   20.2270 C   0  0  0  0  0  3  0  0  0  0  0  0
  -23.1910  -10.7570   19.9900 C   0  0  0  0  0  3  0  0  0  0  0  0
  -21.7470   -7.6510   21.2930 O   0  0  0  0  0  0  0  0  0  0  0  0
  -21.6400   -6.9480   22.4650 C   0  0  0  0  0  0  0  0  0  0  0  0
  -21.4070   -7.5900   23.7010 C   0  0  0  0  0  3  0  0  0  0  0  0
  -21.2340   -6.8250   24.8710 C   0  0  0  0  0  3  0  0  0  0  0  0
  -21.2840   -5.4190   24.8080 C   0  0  0  0  0  0  0  0  0  0  0  0
  -21.5120   -4.7780   23.5780 C   0  0  0  0  0  3  0  0  0  0  0  0
  -21.6860   -5.5400   22.4110 C   0  0  0  0  0  0  0  0  0  0  0  0
  -21.8830   -4.9160   21.2230 F   0  0  0  0  0  0  0  0  0  0  0  0
  -21.1110   -4.6820   25.9300 F   0  0  0  0  0  0  0  0  0  0  0  0
  -23.7670  -14.0640   20.8590 C   0  0  0  0  0  0  0  0  0  0  0  0
  -23.0310  -13.5000   21.8100 N   0  0  0  0  0  0  0  0  0  0  0  0
  -23.4300  -15.1270   20.3400 O   0  0  0  0  0  0  0  0  0  0  0  0
  -23.3180  -12.6400   22.2530 H   0  0  0  0  0  0  0  0  0  0  0  0
  -22.1660  -13.9360   22.0990 H   0  0  0  0  0  0  0  0  0  0  0  0
  -26.5490  -15.3280   19.8390 N   0  0  0  0  0  0  0  0  0  0  0  0
  -25.8900  -16.0830   19.9890 H   0  0  0  0  0  0  0  0  0  0  0  0
  -27.4310  -15.6440   19.4570 H   0  0  0  0  0  0  0  0  0  0  0  0
  -30.3590  -24.8780   20.4350 C   0  0  0  0  0  2  0  0  0  0  0  0
  -28.8790  -25.2670   20.4920 C   0  0  0  0  0  2  0  0  0  0  0  0
  -28.8520  -26.6840   20.4830 O   0  0  0  0  0  0  0  0  0  0  0  0
  -24.7840  -31.7430   23.2910 C   0  0  0  0  0  0  0  0  0  0  0  0
  -27.6310  -27.3070   20.4310 C   0  0  0  0  0  0  0  0  0  0  0  0
  -23.6710  -30.2840   21.6290 C   0  0  0  0  0  3  0  0  0  0  0  0
  -25.2070  -28.7390   20.3110 C   0  0  0  0  0  0  0  0  0  0  0  0
  -26.1910  -30.6950   21.5250 C   0  0  0  0  0  2  0  0  0  0  0  0
  -26.3250  -29.3100   20.9300 C   0  0  0  0  0  0  0  0  0  0  0  0
  -27.5420  -28.6000   20.9820 C   0  0  0  0  0  3  0  0  0  0  0  0
  -26.4920  -26.7310   19.8250 C   0  0  0  0  0  3  0  0  0  0  0  0
  -25.2810  -27.4480   19.7600 C   0  0  0  0  0  3  0  0  0  0  0  0
  -23.9520  -29.5800   20.2750 C   0  0  0  0  0  2  0  0  0  0  0  0
  -24.8990  -30.9220   22.2090 N   0  0  0  0  0  0  0  0  0  0  0  0
  -23.6770  -32.0080   23.7780 O   0  0  0  0  0  0  0  0  0  0  0  0
  -22.9980  -29.2710   22.5830 C   0  0  0  0  0  0  0  0  0  0  0  0
  -21.6810  -29.0710   22.4090 N   0  0  0  0  0  0  0  0  0  0  0  0
  -23.6560  -28.6690   23.4360 O   0  0  0  0  0  0  0  0  0  0  0  0
  -21.2170  -29.6100   21.6930 H   0  0  0  0  0  0  0  0  0  0  0  0
  -18.3040  -27.8530   22.7860 C   0  0  0  0  0  0  0  0  0  0  0  0
  -20.8450  -28.1420   23.1650 C   0  0  0  0  0  3  0  0  0  0  0  0
  -20.9890  -26.7000   22.6260 C   0  0  0  0  0  2  0  0  0  0  0  0
  -19.9350  -26.3440   21.5730 C   0  0  0  0  0  2  0  0  0  0  0  0
  -18.5230  -26.4890   22.1520 C   0  0  0  0  0  2  0  0  0  0  0  0
  -19.3950  -28.6350   23.2480 C   0  0  0  0  0  0  0  0  0  0  0  0
  -19.1390  -29.9090   23.7990 C   0  0  0  0  0  3  0  0  0  0  0  0
  -17.8240  -30.4010   23.8950 C   0  0  0  0  0  3  0  0  0  0  0  0
  -16.7460  -29.6160   23.4510 C   0  0  0  0  0  3  0  0  0  0  0  0
  -16.9880  -28.3440   22.9010 C   0  0  0  0  0  3  0  0  0  0  0  0
  -26.0330  -32.4070   23.9500 C   0  0  0  0  0  3  0  0  0  0  0  0
  -26.5090  -31.6740   25.2620 C   0  0  1  0  0  0  0  0  0  0  0  0
  -25.3780  -31.4410   26.2900 C   0  0  0  0  0  1  0  0  0  0  0  0
  -27.1250  -30.2980   24.9150 C   0  0  0  0  0  1  0  0  0  0  0  0
  -27.6190  -32.4980   25.9550 C   0  0  0  0  0  1  0  0  0  0  0  0
  -25.6930  -33.8080   24.2300 N   0  0  0  0  0  0  0  0  0  0  0  0
  -26.0490  -34.8470   23.4610 C   0  0  0  0  0  0  0  0  0  0  0  0
  -26.7690  -34.7270   22.4660 O   0  0  0  0  0  0  0  0  0  0  0  0
  -25.0620  -33.9740   25.0020 H   0  0  0  0  0  0  0  0  0  0  0  0
  -24.3200  -36.6060   22.9700 C   0  0  0  0  0  1  0  0  0  0  0  0
  -25.5190  -36.2380   23.8580 C   0  0  0  0  0  3  0  0  0  0  0  0
  -27.5950  -37.1650   24.7820 C   0  0  0  0  0  1  0  0  0  0  0  0
  -26.5430  -37.3030   23.7790 N   0  0  0  0  0  0  0  0  0  0  0  0
  -26.1190  -38.2200   23.8940 H   0  0  0  0  0  0  0  0  0  0  0  0
  1  2  2  0
  1  3  1  0
  2  5  1  0
  3  6  2  0
  5 55  1  0
  5  4  2  0
  6  4  1  0
  6  8  1  0
  8  7  1  0
  8  9  1  0
  9 12  1  0
  9 10  1  0
 11  9  1  0
 13 12  1  0
 14 13  1  0
 15 14  1  0
 16 15  1  0
 17 25  1  0
 18 23  1  0
 19 20  1  0
 19 18  1  0
 21 20  1  0
 21 30  1  0
 21 22  1  0
 23 17  1  0
 23 22  1  0
 24 17  2  0
 25 26  1  0
 25 16  1  0
 27 28  2  0
 28 47  1  0
 29 28  1  0
 29 32  1  0
 30 31  1  0
 30 27  1  0
 31 29  2  0
 32 33  1  0
 33 34  2  0
 35 38  1  0
 35 34  1  0
 36 35  2  0
 37 36  1  0
 37 32  2  0
 38 39  1  0
 39 40  1  0
 40 41  2  0
 42 41  1  0
 42 46  1  0
 43 42  2  0
 44 39  2  0
 44 43  1  0
 45 44  1  0
 47 48  1  0
 48 51  1  0
 48 50  1  0
 49 47  2  0
 52 53  1  0
 52 27  1  0
 54 52  1  0
 55 56  1  0
 57 56  1  0
 58 69  2  0
 59 57  1  0
 59 64  1  0
 60 68  1  0
 60 70  1  0
 61 63  1  0
 62 68  1  0
 63 64  2  0
 63 62  1  0
 65 59  2  0
 66 65  1  0
 66 61  2  0
 67 61  1  0
 67 60  1  0
 68 58  1  0
 70 72  2  0
 71 70  1  0
 73 71  1  0
 74 83  2  0
 74 79  1  0
 75 71  1  0
 75 79  1  0
 76 75  1  0
 77 78  1  0
 77 76  1  0
 78 74  1  0
 79 80  2  0
 80 81  1  0
 82 81  2  0
 83 82  1  0
 84 58  1  0
 84 89  1  0
 84 85  1  0
 85 88  1  1
 85 86  1  0
 87 85  1  0
 89 92  1  0
 90 94  1  0
 90 89  1  0
 91 90  2  0
 94 93  1  0
 96 94  1  0
 96 97  1  0
 96 95  1  0
M  ISO  4  17 100  25 100  56 101  57 101
M  END
>  <TORSDO>  (85) 
F 25

>  <SCORE>  (85) 
-7.861

>  <name>  (85) 
85

>  <ligand_id>  (85) 
85

>  <original_smiles>  (85) 
[H]c1c([H])c([H])c2c(c1[H])C([H])([H])C([H])([H])C([H])([H])C2([H])N([H])C(=O)C1([H])N(C(=O)C([H])(N([H])C(=O)C([H])(N([H])C([H])([H])[H])C([H])([H])[H])C(C([H])([H])[H])(C([H])([H])[H])C([H])([H])[H])C([H])([H])c2c([H])c(OC([H])([H])C([H])([H])c3c([H])c([H])c([H])c(C([H])(C([H])([H])[H])[N+]([H])([H])C([H])([H])C([H])([H])C([H])([H])C([H])([H])C([H])([H])N([H])C(=O)N4C([H])([H])C([H])([H])C([H])([H])C([H])(n5nc(-c6c([H])c([H])c(Oc7c([H])c([H])c(F)c([H])c7F)c([H])c6[H])c(C(=O)N([H])[H])c5N([H])[H])C4([H])[H])c3[H])c([H])c([H])c2C1([H])[H]

>  <smiles>  (85) 
[H]c1c([H])c([H])c2c(c1[H])C([H])([H])C([H])([H])C([H])([H])C2([H])N([H])C(=O)C1([H])N(C(=O)C([H])(N([H])C(=O)C([H])(N([H])C([H])([H])[H])C([H])([H])[H])C(C([H])([H])[H])(C([H])([H])[H])C([H])([H])[H])C([H])([H])c2c([H])c(OC([H])([H])C([H])([H])c3c([H])c([H])c([H])c(C([H])(C([H])([H])[H])[N+]([H])([H])C([H])([H])C([H])([H])C([H])([H])C([H])([H])C([H])([H])N([H])C(=O)N4C([H])([H])C([H])([H])C([H])([H])C([H])(n5nc(-c6c([H])c([H])c(Oc7c([H])c([H])c(F)c([H])c7F)c([H])c6[H])c(C(=O)N([H])[H])c5N([H])[H])C4([H])[H])c3[H])c([H])c([H])c2C1([H])[H]

$$$$
86:0:0
     RDKit          3D

 99106  0  0  1  0  0  0  0  0999 V2000
  -32.4150  -26.2060   19.7450 C   0  0  0  0  0  2  0  0  0  0  0  0
  -31.7370  -24.8670   19.4370 C   0  0  0  0  0  0  0  0  0  0  0  0
  -31.6120  -24.0100   20.4560 N   0  0  0  0  0  0  0  0  0  0  0  0
  -31.3740  -24.6050   18.2900 O   0  0  0  0  0  0  0  0  0  0  0  0
  -31.9490  -24.3240   21.3560 H   0  0  0  0  0  0  0  0  0  0  0  0
  -31.1710  -22.6200   20.3850 C   0  0  0  0  0  2  0  0  0  0  0  0
  -29.6730  -22.4360   20.0510 C   0  0  0  0  0  2  0  0  0  0  0  0
  -29.1230  -21.0470   20.4440 C   0  0  0  0  0  2  0  0  0  0  0  0
  -29.9330  -19.8420   19.9130 C   0  0  0  0  0  2  0  0  0  0  0  0
  -29.7610  -18.5550   20.7490 C   0  0  0  0  0  2  0  0  0  0  0  0
  -31.0100  -17.6560   20.6860 C   0  0  0  0  0  2  0  0  0  0  0  0
  -31.0090  -16.4860   21.6950 C   0  0  0  0  0  2  0  0  0  0  0  0
  -30.6620  -14.4590   20.3110 C   0  0  0  0  0  0  0  0  0  0  0  0
  -30.2540  -12.3480   19.1050 C   0  0  0  0  0  2  0  0  0  0  0  0
  -29.2840  -12.5660   17.9300 C   0  0  0  0  0  2  0  0  0  0  0  0
  -27.8320  -12.4020   18.4100 C   0  0  0  0  0  2  0  0  0  0  0  0
  -27.5240  -13.2520   19.6710 C   0  0  0  0  0  3  0  0  0  0  0  0
  -28.6100  -13.0520   20.7540 C   0  0  0  0  0  2  0  0  0  0  0  0
  -29.9260  -13.3270   20.1540 N   0  0  0  0  0  0  0  0  0  0  0  0
  -31.6820  -14.6880   19.6570 O   0  0  0  0  0  0  0  0  0  0  0  0
  -30.2430  -15.3190   21.2500 N   0  0  0  0  0  0  0  0  0  0  0  0
  -29.4010  -15.0830   21.7560 H   0  0  0  0  0  0  0  0  0  0  0  0
  -25.1360  -13.8350   20.4330 C   0  0  0  0  0  0  0  0  0  0  0  0
  -24.0890  -13.0550   20.8440 C   0  0  0  0  0  0  0  0  0  0  0  0
  -24.5680  -11.7090   20.8230 C   0  0  0  0  0  0  0  0  0  0  0  0
  -26.1880  -12.9660   20.1900 N   0  0  0  0  0  0  0  0  0  0  0  0
  -25.8490  -11.6830   20.4800 N   0  0  0  0  0  0  0  0  0  0  0  0
  -23.8650  -10.4410   21.0600 C   0  0  0  0  0  0  0  0  0  0  0  0
  -24.2990   -9.5290   22.0460 C   0  0  0  0  0  3  0  0  0  0  0  0
  -23.5970   -8.3250   22.2670 C   0  0  0  0  0  3  0  0  0  0  0  0
  -22.4470   -8.0230   21.5020 C   0  0  0  0  0  0  0  0  0  0  0  0
  -22.0310   -8.9240   20.5060 C   0  0  0  0  0  3  0  0  0  0  0  0
  -22.7320  -10.1200   20.2840 C   0  0  0  0  0  3  0  0  0  0  0  0
  -21.7180   -6.8650   21.6280 O   0  0  0  0  0  0  0  0  0  0  0  0
  -21.6360   -6.1920   22.8210 C   0  0  0  0  0  0  0  0  0  0  0  0
  -21.1140   -6.7970   23.9840 C   0  0  0  0  0  3  0  0  0  0  0  0
  -20.9840   -6.0480   25.1700 C   0  0  0  0  0  3  0  0  0  0  0  0
  -21.3660   -4.6920   25.1930 C   0  0  0  0  0  0  0  0  0  0  0  0
  -21.8830   -4.0870   24.0330 C   0  0  0  0  0  3  0  0  0  0  0  0
  -22.0160   -4.8350   22.8510 C   0  0  0  0  0  0  0  0  0  0  0  0
  -22.4940   -4.2410   21.7300 F   0  0  0  0  0  0  0  0  0  0  0  0
  -21.2350   -3.9690   26.3290 F   0  0  0  0  0  0  0  0  0  0  0  0
  -22.6930  -13.5190   21.1480 C   0  0  0  0  0  0  0  0  0  0  0  0
  -21.9950  -12.8210   22.0340 N   0  0  0  0  0  0  0  0  0  0  0  0
  -22.2310  -14.5360   20.6330 O   0  0  0  0  0  0  0  0  0  0  0  0
  -22.3810  -11.9980   22.4760 H   0  0  0  0  0  0  0  0  0  0  0  0
  -21.0600  -13.1140   22.2810 H   0  0  0  0  0  0  0  0  0  0  0  0
  -25.2790  -15.2040   20.2260 N   0  0  0  0  0  0  0  0  0  0  0  0
  -24.5060  -15.8510   20.3350 H   0  0  0  0  0  0  0  0  0  0  0  0
  -26.1280  -15.6500   19.9020 H   0  0  0  0  0  0  0  0  0  0  0  0
  -31.5690  -27.4610   19.3870 C   0  0  0  0  0  3  0  0  0  0  0  0
  -30.7540  -27.9910   20.6010 C   0  0  0  0  0  2  0  0  0  0  0  0
  -29.6050  -27.0890   21.0930 C   0  0  0  0  0  2  0  0  0  0  0  0
  -28.6210  -26.8780   20.0820 O   0  0  0  0  0  0  0  0  0  0  0  0
  -24.6590  -31.9540   23.1990 C   0  0  0  0  0  0  0  0  0  0  0  0
  -27.4600  -27.6190   20.1330 C   0  0  0  0  0  0  0  0  0  0  0  0
  -23.5030  -30.5290   21.5340 C   0  0  0  0  0  3  0  0  0  0  0  0
  -25.0100  -29.0330   20.1200 C   0  0  0  0  0  0  0  0  0  0  0  0
  -26.0120  -30.9570   21.3680 C   0  0  0  0  0  2  0  0  0  0  0  0
  -26.1360  -29.5890   20.7360 C   0  0  0  0  0  0  0  0  0  0  0  0
  -27.3540  -28.8840   20.7600 C   0  0  0  0  0  3  0  0  0  0  0  0
  -26.3180  -27.0760   19.5080 C   0  0  0  0  0  3  0  0  0  0  0  0
  -25.0910  -27.7700   19.5080 C   0  0  0  0  0  3  0  0  0  0  0  0
  -23.7430  -29.8550   20.1540 C   0  0  0  0  0  2  0  0  0  0  0  0
  -24.7400  -31.1640   22.0910 N   0  0  0  0  0  0  0  0  0  0  0  0
  -23.5680  -32.1990   23.7290 O   0  0  0  0  0  0  0  0  0  0  0  0
  -22.8690  -29.4890   22.4860 C   0  0  0  0  0  0  0  0  0  0  0  0
  -21.5530  -29.2720   22.3380 N   0  0  0  0  0  0  0  0  0  0  0  0
  -23.5590  -28.8810   23.3080 O   0  0  0  0  0  0  0  0  0  0  0  0
  -21.0630  -29.8130   21.6400 H   0  0  0  0  0  0  0  0  0  0  0  0
  -18.1980  -28.0170   22.8020 C   0  0  0  0  0  0  0  0  0  0  0  0
  -20.7490  -28.3130   23.0950 C   0  0  0  0  0  3  0  0  0  0  0  0
  -20.8810  -26.8910   22.5030 C   0  0  0  0  0  2  0  0  0  0  0  0
  -19.7900  -26.5620   21.4790 C   0  0  0  0  0  2  0  0  0  0  0  0
  -18.4020  -26.6780   22.1150 C   0  0  0  0  0  2  0  0  0  0  0  0
  -19.3010  -28.7920   23.2480 C   0  0  0  0  0  0  0  0  0  0  0  0
  -19.0580  -30.0460   23.8490 C   0  0  0  0  0  3  0  0  0  0  0  0
  -17.7440  -30.5250   24.0120 C   0  0  0  0  0  3  0  0  0  0  0  0
  -16.6550  -29.7440   23.5850 C   0  0  0  0  0  3  0  0  0  0  0  0
  -16.8840  -28.4930   22.9830 C   0  0  0  0  0  3  0  0  0  0  0  0
  -25.9270  -32.6070   23.8350 C   0  0  0  0  0  3  0  0  0  0  0  0
  -26.4470  -31.8450   25.1150 C   0  0  1  0  0  0  0  0  0  0  0  0
  -25.3480  -31.5830   26.1710 C   0  0  0  0  0  1  0  0  0  0  0  0
  -27.0620  -30.4800   24.7270 C   0  0  0  0  0  1  0  0  0  0  0  0
  -27.5740  -32.6610   25.7920 C   0  0  0  0  0  1  0  0  0  0  0  0
  -25.5890  -34.0000   24.1560 N   0  0  0  0  0  0  0  0  0  0  0  0
  -25.9270  -35.0570   23.4040 C   0  0  0  0  0  0  0  0  0  0  0  0
  -26.6270  -34.9640   22.3910 O   0  0  0  0  0  0  0  0  0  0  0  0
  -24.9660  -34.1480   24.9360 H   0  0  0  0  0  0  0  0  0  0  0  0
  -24.1960  -36.8320   22.9830 C   0  0  0  0  0  1  0  0  0  0  0  0
  -25.4040  -36.4370   23.8470 C   0  0  0  0  0  3  0  0  0  0  0  0
  -27.4870  -37.3420   24.7820 C   0  0  0  0  0  1  0  0  0  0  0  0
  -26.4290  -37.5010   23.7860 N   0  0  0  0  0  0  0  0  0  0  0  0
  -26.0070  -38.4170   23.9130 H   0  0  0  0  0  0  0  0  0  0  0  0
  -32.5070  -28.5530   18.8040 C   0  0  0  0  0  2  0  0  0  0  0  0
  -31.7970  -29.7620   18.3460 N   0  0  0  0  0  4  0  0  0  0  0  0
  -31.1510  -29.5500   17.6070 H   0  0  0  0  0  0  0  0  0  0  0  0
  -32.4600  -30.4350   18.0010 H   0  0  0  0  0  0  0  0  0  0  0  0
  -31.3020  -30.1910   19.1060 H   0  0  0  0  0  0  0  0  0  0  0  0
  2  1  1  0
  2  3  1  0
  3  5  1  0
  4  2  2  0
  6  3  1  0
  7  6  1  0
  7  8  1  0
  9  8  1  0
  9 10  1  0
 11 10  1  0
 11 12  1  0
 13 21  1  0
 14 19  1  0
 15 16  1  0
 15 14  1  0
 17 16  1  0
 17 26  1  0
 17 18  1  0
 19 13  1  0
 19 18  1  0
 20 13  2  0
 21 12  1  0
 21 22  1  0
 23 24  2  0
 24 43  1  0
 25 24  1  0
 25 28  1  0
 26 23  1  0
 26 27  1  0
 27 25  2  0
 28 29  1  0
 29 30  2  0
 31 34  1  0
 31 30  1  0
 32 31  2  0
 33 32  1  0
 33 28  2  0
 34 35  1  0
 35 40  2  0
 35 36  1  0
 36 37  2  0
 37 38  1  0
 38 42  1  0
 39 38  2  0
 40 39  1  0
 41 40  1  0
 43 44  1  0
 44 47  1  0
 44 46  1  0
 45 43  2  0
 48 49  1  0
 48 23  1  0
 50 48  1  0
 51 95  1  0
 51  1  1  0
 51 52  1  0
 52 53  1  0
 54 56  1  0
 54 53  1  0
 55 66  2  0
 56 61  1  0
 57 65  1  0
 57 67  1  0
 58 64  1  0
 58 60  1  0
 59 65  1  0
 60 61  2  0
 60 59  1  0
 62 56  2  0
 63 62  1  0
 63 58  2  0
 64 57  1  0
 65 55  1  0
 67 69  2  0
 68 67  1  0
 70 68  1  0
 71 80  2  0
 71 76  1  0
 72 68  1  0
 72 76  1  0
 73 72  1  0
 74 75  1  0
 74 73  1  0
 75 71  1  0
 76 77  2  0
 77 78  1  0
 79 78  2  0
 80 79  1  0
 81 55  1  0
 81 86  1  0
 81 82  1  0
 82 85  1  1
 82 83  1  0
 84 82  1  0
 86 89  1  0
 87 91  1  0
 87 86  1  0
 88 87  2  0
 91 90  1  0
 93 91  1  0
 93 94  1  0
 93 92  1  0
 96 95  1  0
 96 99  1  0
 97 96  1  0
 98 96  1  0
M  ISO  4  13 100  21 100  53 101  54 101
M  END
>  <TORSDO>  (86) 
F 29

>  <SCORE>  (86) 
-11.244

>  <name>  (86) 
86

>  <ligand_id>  (86) 
86

>  <original_smiles>  (86) 
[H]c1c([H])c([H])c2c(c1[H])C([H])([H])C([H])([H])C([H])([H])C2([H])N([H])C(=O)C1([H])N(C(=O)C([H])(N([H])C(=O)C([H])(N([H])C([H])([H])[H])C([H])([H])[H])C(C([H])([H])[H])(C([H])([H])[H])C([H])([H])[H])C([H])([H])c2c([H])c(OC([H])([H])C([H])([H])C([H])(C([H])([H])C(=O)N([H])C([H])([H])C([H])([H])C([H])([H])C([H])([H])C([H])([H])C([H])([H])C([H])([H])N([H])C(=O)N3C([H])([H])C([H])([H])C([H])([H])C([H])(n4nc(-c5c([H])c([H])c(Oc6c([H])c([H])c(F)c([H])c6F)c([H])c5[H])c(C(=O)N([H])[H])c4N([H])[H])C3([H])[H])C([H])([H])[N+]([H])([H])[H])c([H])c([H])c2C1([H])[H]

>  <smiles>  (86) 
[H]c1c([H])c([H])c2c(c1[H])C([H])([H])C([H])([H])C([H])([H])C2([H])N([H])C(=O)C1([H])N(C(=O)C([H])(N([H])C(=O)C([H])(N([H])C([H])([H])[H])C([H])([H])[H])C(C([H])([H])[H])(C([H])([H])[H])C([H])([H])[H])C([H])([H])c2c([H])c(OC([H])([H])C([H])([H])C([H])(C([H])([H])C(=O)N([H])C([H])([H])C([H])([H])C([H])([H])C([H])([H])C([H])([H])C([H])([H])C([H])([H])N([H])C(=O)N3C([H])([H])C([H])([H])C([H])([H])C([H])(n4nc(-c5c([H])c([H])c(Oc6c([H])c([H])c(F)c([H])c6F)c([H])c5[H])c(C(=O)N([H])[H])c4N([H])[H])C3([H])[H])C([H])([H])[N+]([H])([H])[H])c([H])c([H])c2C1([H])[H]

$$$$
87:0:0
     RDKit          3D

 96104  0  0  1  0  0  0  0  0999 V2000
  -32.4230  -21.8030   22.6180 C   0  0  0  0  0  3  0  0  0  0  0  0
  -32.9990  -22.4490   21.5110 C   0  0  0  0  0  3  0  0  0  0  0  0
  -30.2970  -22.8850   22.1330 C   0  0  0  0  0  3  0  0  0  0  0  0
  -31.0650  -22.0090   22.9330 C   0  0  0  0  0  0  0  0  0  0  0  0
  -32.2370  -23.3290   20.7160 C   0  0  0  0  0  0  0  0  0  0  0  0
  -30.8710  -23.5600   21.0310 C   0  0  0  0  0  0  0  0  0  0  0  0
  -32.9190  -23.9980   19.5440 C   0  0  0  0  0  1  0  0  0  0  0  0
  -30.0070  -24.5570   20.2570 C   0  0  0  0  0  2  0  0  0  0  0  0
  -29.0340  -23.9310   19.2310 C   0  0  0  0  0  2  0  0  0  0  0  0
  -27.6490  -24.6200   19.1850 C   0  0  0  0  0  2  0  0  0  0  0  0
  -27.7720  -26.0300   19.3660 O   0  0  0  0  0  0  0  0  0  0  0  0
  -24.5060  -31.1600   23.0320 C   0  0  0  0  0  0  0  0  0  0  0  0
  -26.6300  -26.8010   19.4830 C   0  0  0  0  0  0  0  0  0  0  0  0
  -23.1280  -30.0660   21.2940 C   0  0  0  0  0  3  0  0  0  0  0  0
  -24.3860  -28.5130   19.7060 C   0  0  0  0  0  0  0  0  0  0  0  0
  -25.6750  -30.1810   21.0560 C   0  0  0  0  0  2  0  0  0  0  0  0
  -25.6010  -28.8730   20.3010 C   0  0  0  0  0  0  0  0  0  0  0  0
  -26.7230  -28.0240   20.1820 C   0  0  0  0  0  3  0  0  0  0  0  0
  -25.3870  -26.4440   18.9070 C   0  0  0  0  0  3  0  0  0  0  0  0
  -24.2690  -27.2930   19.0180 C   0  0  0  0  0  3  0  0  0  0  0  0
  -23.2430  -29.4960   19.8530 C   0  0  0  0  0  2  0  0  0  0  0  0
  -24.4580  -30.4750   21.8560 N   0  0  0  0  0  0  0  0  0  0  0  0
  -23.4680  -31.4920   23.6220 O   0  0  0  0  0  0  0  0  0  0  0  0
  -22.3820  -29.0340   22.1710 C   0  0  0  0  0  0  0  0  0  0  0  0
  -21.0460  -29.0140   22.0610 N   0  0  0  0  0  0  0  0  0  0  0  0
  -23.0060  -28.2590   22.9040 O   0  0  0  0  0  0  0  0  0  0  0  0
  -20.6110  -29.6800   21.4380 H   0  0  0  0  0  0  0  0  0  0  0  0
  -17.5700  -28.1510   22.5120 C   0  0  0  0  0  0  0  0  0  0  0  0
  -20.1410  -28.1030   22.7610 C   0  0  0  0  0  3  0  0  0  0  0  0
  -20.0830  -26.7270   22.0580 C   0  0  0  0  0  2  0  0  0  0  0  0
  -18.9440  -26.6210   21.0400 C   0  0  0  0  0  2  0  0  0  0  0  0
  -17.5910  -26.8590   21.7170 C   0  0  0  0  0  2  0  0  0  0  0  0
  -18.7680  -28.7440   22.9890 C   0  0  0  0  0  0  0  0  0  0  0  0
  -18.6930  -29.9670   23.6920 C   0  0  0  0  0  3  0  0  0  0  0  0
  -17.4530  -30.5890   23.9240 C   0  0  0  0  0  3  0  0  0  0  0  0
  -16.2670  -29.9910   23.4620 C   0  0  0  0  0  3  0  0  0  0  0  0
  -16.3290  -28.7740   22.7590 C   0  0  0  0  0  3  0  0  0  0  0  0
  -25.8650  -31.5820   23.6770 C   0  0  0  0  0  3  0  0  0  0  0  0
  -26.3650  -30.5740   24.7830 C   0  0  1  0  0  0  0  0  0  0  0  0
  -25.2980  -30.2480   25.8540 C   0  0  0  0  0  1  0  0  0  0  0  0
  -26.8100  -29.2420   24.1370 C   0  0  0  0  0  1  0  0  0  0  0  0
  -27.6030  -31.1540   25.5060 C   0  0  0  0  0  1  0  0  0  0  0  0
  -25.6880  -32.9260   24.2400 N   0  0  0  0  0  0  0  0  0  0  0  0
  -26.1310  -34.0540   23.6700 C   0  0  0  0  0  0  0  0  0  0  0  0
  -26.8050  -34.0640   22.6360 O   0  0  0  0  0  0  0  0  0  0  0  0
  -25.1040  -32.9950   25.0600 H   0  0  0  0  0  0  0  0  0  0  0  0
  -24.5920  -36.0400   23.6110 C   0  0  0  0  0  1  0  0  0  0  0  0
  -25.7670  -35.3850   24.3540 C   0  0  0  0  0  3  0  0  0  0  0  0
  -27.9510  -35.8990   25.3510 C   0  0  0  0  0  1  0  0  0  0  0  0
  -26.8990  -36.3340   24.4350 N   0  0  0  0  0  0  0  0  0  0  0  0
  -26.5790  -37.2510   24.7340 H   0  0  0  0  0  0  0  0  0  0  0  0
  -30.4350  -21.3340   24.1480 C   0  0  0  0  0  2  0  0  0  0  0  0
  -30.9870  -19.9320   24.4970 C   0  0  0  0  0  2  0  0  0  0  0  0
  -31.4960  -19.1000   23.3000 C   0  0  0  0  0  2  0  0  0  0  0  0
  -30.4790  -18.9850   22.1540 C   0  0  0  0  0  2  0  0  0  0  0  0
  -30.9970  -18.2300   20.9190 C   0  0  0  0  0  2  0  0  0  0  0  0
  -30.8000  -16.7030   20.9310 C   0  0  0  0  0  2  0  0  0  0  0  0
  -32.0470  -15.8510   21.2380 C   0  0  0  0  0  2  0  0  0  0  0  0
  -32.0210  -13.4640   20.4560 C   0  0  0  0  0  0  0  0  0  0  0  0
  -31.4220  -11.2430   19.5560 C   0  0  0  0  0  2  0  0  0  0  0  0
  -30.5020  -11.3900   18.3270 C   0  0  0  0  0  2  0  0  0  0  0  0
  -29.0280  -11.4970   18.7570 C   0  0  0  0  0  2  0  0  0  0  0  0
  -28.8110  -12.5560   19.8670 C   0  0  0  0  0  3  0  0  0  0  0  0
  -29.8250  -12.3580   21.0130 C   0  0  0  0  0  2  0  0  0  0  0  0
  -31.1910  -12.3870   20.4470 N   0  0  0  0  0  0  0  0  0  0  0  0
  -33.0440  -13.5450   19.7650 O   0  0  0  0  0  0  0  0  0  0  0  0
  -31.6350  -14.4490   21.2730 N   0  0  0  0  0  0  0  0  0  0  0  0
  -30.8680  -14.2200   21.8850 H   0  0  0  0  0  0  0  0  0  0  0  0
  -26.6020  -13.6030   20.6790 C   0  0  0  0  0  0  0  0  0  0  0  0
  -25.4010  -13.0450   21.0270 C   0  0  0  0  0  0  0  0  0  0  0  0
  -25.5670  -11.6320   20.8960 C   0  0  0  0  0  0  0  0  0  0  0  0
  -27.4340  -12.5420   20.3590 N   0  0  0  0  0  0  0  0  0  0  0  0
  -26.8150  -11.3470   20.5440 N   0  0  0  0  0  0  0  0  0  0  0  0
  -24.5990  -10.5370   21.0370 C   0  0  0  0  0  0  0  0  0  0  0  0
  -24.8640   -9.4180   21.8570 C   0  0  0  0  0  3  0  0  0  0  0  0
  -23.9130   -8.3830   21.9860 C   0  0  0  0  0  3  0  0  0  0  0  0
  -22.6820   -8.4650   21.2970 C   0  0  0  0  0  0  0  0  0  0  0  0
  -22.4280   -9.5720   20.4700 C   0  0  0  0  0  3  0  0  0  0  0  0
  -23.3780  -10.5980   20.3380 C   0  0  0  0  0  3  0  0  0  0  0  0
  -21.7060   -7.4980   21.3450 O   0  0  0  0  0  0  0  0  0  0  0  0
  -21.5650   -6.6700   22.4270 C   0  0  0  0  0  0  0  0  0  0  0  0
  -21.3310   -7.1730   23.7260 C   0  0  0  0  0  3  0  0  0  0  0  0
  -21.1230   -6.2840   24.7970 C   0  0  0  0  0  3  0  0  0  0  0  0
  -21.1400   -4.8920   24.5760 C   0  0  0  0  0  0  0  0  0  0  0  0
  -21.3660   -4.3900   23.2820 C   0  0  0  0  0  3  0  0  0  0  0  0
  -21.5780   -5.2760   22.2110 C   0  0  0  0  0  0  0  0  0  0  0  0
  -21.7790   -4.7860   20.9650 F   0  0  0  0  0  0  0  0  0  0  0  0
  -20.9290   -4.0390   25.6040 F   0  0  0  0  0  0  0  0  0  0  0  0
  -24.1420  -13.7850   21.3700 C   0  0  0  0  0  0  0  0  0  0  0  0
  -23.3180  -13.2250   22.2470 N   0  0  0  0  0  0  0  0  0  0  0  0
  -23.9000  -14.8920   20.8910 O   0  0  0  0  0  0  0  0  0  0  0  0
  -23.5200  -12.3230   22.6540 H   0  0  0  0  0  0  0  0  0  0  0  0
  -22.4650  -13.7030   22.5040 H   0  0  0  0  0  0  0  0  0  0  0  0
  -27.0530  -14.9180   20.6060 N   0  0  0  0  0  0  0  0  0  0  0  0
  -26.4670  -15.7090   20.8540 H   0  0  0  0  0  0  0  0  0  0  0  0
  -28.0040  -15.1820   20.3790 H   0  0  0  0  0  0  0  0  0  0  0  0
  1  4  1  0
  2  1  2  0
  3  4  2  0
  4 52  1  0
  5  6  2  0
  5  2  1  0
  6  3  1  0
  7  5  1  0
  8  6  1  0
  9  8  1  0
 10  9  1  0
 10 11  1  0
 11 13  1  0
 12 23  2  0
 13 18  1  0
 14 22  1  0
 14 24  1  0
 15 21  1  0
 15 17  1  0
 16 22  1  0
 17 16  1  0
 18 17  2  0
 19 20  1  0
 19 13  2  0
 20 15  2  0
 21 14  1  0
 22 12  1  0
 24 26  2  0
 25 24  1  0
 27 25  1  0
 28 37  2  0
 28 33  1  0
 29 25  1  0
 29 33  1  0
 30 29  1  0
 31 32  1  0
 31 30  1  0
 32 28  1  0
 33 34  2  0
 34 35  1  0
 36 35  2  0
 37 36  1  0
 38 12  1  0
 38 43  1  0
 38 39  1  0
 39 42  1  1
 39 40  1  0
 41 39  1  0
 43 46  1  0
 44 43  1  0
 44 48  1  0
 45 44  2  0
 48 47  1  0
 48 50  1  0
 50 51  1  0
 50 49  1  0
 52 53  1  0
 54 53  1  0
 55 54  1  0
 56 57  1  0
 56 55  1  0
 57 58  1  0
 58 67  1  0
 59 67  1  0
 60 65  1  0
 61 62  1  0
 61 60  1  0
 63 62  1  0
 63 72  1  0
 63 64  1  0
 65 59  1  0
 65 64  1  0
 66 59  2  0
 67 68  1  0
 69 70  2  0
 70 89  1  0
 71 70  1  0
 71 74  1  0
 72 73  1  0
 72 69  1  0
 73 71  2  0
 74 75  1  0
 75 76  2  0
 77 80  1  0
 77 76  1  0
 78 77  2  0
 79 78  1  0
 79 74  2  0
 80 81  1  0
 81 82  1  0
 82 83  2  0
 84 83  1  0
 84 88  1  0
 85 84  2  0
 86 81  2  0
 86 85  1  0
 87 86  1  0
 89 90  1  0
 90 93  1  0
 90 92  1  0
 91 89  2  0
 94 69  1  0
 94 95  1  0
 96 94  1  0
M  ISO  4  10 101  11 101  59 100  67 100
M  END
>  <TORSDO>  (87) 
F 26

>  <SCORE>  (87) 
-7.838

>  <name>  (87) 
87

>  <ligand_id>  (87) 
87

>  <original_smiles>  (87) 
[H]c1c([H])c([H])c2c(c1[H])C([H])([H])C([H])([H])C([H])([H])C2([H])N([H])C(=O)C1([H])N(C(=O)C([H])(N([H])C(=O)C([H])(N([H])C([H])([H])[H])C([H])([H])[H])C(C([H])([H])[H])(C([H])([H])[H])C([H])([H])[H])C([H])([H])c2c([H])c(OC([H])([H])C([H])([H])C([H])([H])c3c([H])c(C([H])([H])C([H])([H])C([H])([H])C([H])([H])C([H])([H])C([H])([H])C([H])([H])N([H])C(=O)N4C([H])([H])C([H])([H])C([H])([H])C([H])(n5nc(-c6c([H])c([H])c(Oc7c([H])c([H])c(F)c([H])c7F)c([H])c6[H])c(C(=O)N([H])[H])c5N([H])[H])C4([H])[H])c([H])c([H])c3C([H])([H])[H])c([H])c([H])c2C1([H])[H]

>  <smiles>  (87) 
[H]c1c([H])c([H])c2c(c1[H])C([H])([H])C([H])([H])C([H])([H])C2([H])N([H])C(=O)C1([H])N(C(=O)C([H])(N([H])C(=O)C([H])(N([H])C([H])([H])[H])C([H])([H])[H])C(C([H])([H])[H])(C([H])([H])[H])C([H])([H])[H])C([H])([H])c2c([H])c(OC([H])([H])C([H])([H])C([H])([H])c3c([H])c(C([H])([H])C([H])([H])C([H])([H])C([H])([H])C([H])([H])C([H])([H])C([H])([H])N([H])C(=O)N4C([H])([H])C([H])([H])C([H])([H])C([H])(n5nc(-c6c([H])c([H])c(Oc7c([H])c([H])c(F)c([H])c7F)c([H])c6[H])c(C(=O)N([H])[H])c5N([H])[H])C4([H])[H])c([H])c([H])c3C([H])([H])[H])c([H])c([H])c2C1([H])[H]

$$$$
88:0:0
     RDKit          3D

 91100  0  0  1  0  0  0  0  0999 V2000
  -30.6800  -14.5930   20.4040 C   0  0  0  0  0  0  0  0  0  0  0  0
  -30.4090  -12.3490   19.4260 C   0  0  0  0  0  2  0  0  0  0  0  0
  -29.4880  -12.4150   18.1900 C   0  0  0  0  0  2  0  0  0  0  0  0
  -27.9950  -12.4040   18.5890 C   0  0  0  0  0  2  0  0  0  0  0  0
  -27.6440  -13.2920   19.8160 C   0  0  0  0  0  3  0  0  0  0  0  0
  -28.6870  -13.1570   20.9440 C   0  0  0  0  0  2  0  0  0  0  0  0
  -30.0070  -13.4120   20.3560 N   0  0  0  0  0  0  0  0  0  0  0  0
  -31.9040  -14.6640   20.2550 O   0  0  0  0  0  0  0  0  0  0  0  0
  -27.6000  -19.1460   19.0030 C   0  0  0  0  0  3  0  0  0  0  0  0
  -27.6850  -20.3690   19.6820 C   0  0  0  0  0  3  0  0  0  0  0  0
  -29.3880  -19.4290   21.1610 C   0  0  0  0  0  3  0  0  0  0  0  0
  -28.4300  -18.0780   19.3800 C   0  0  0  0  0  0  0  0  0  0  0  0
  -29.2910  -18.1750   20.5010 C   0  0  0  0  0  0  0  0  0  0  0  0
  -28.6130  -20.5380   20.7290 C   0  0  0  0  0  0  0  0  0  0  0  0
  -28.4440  -16.8410   18.5240 C   0  0  0  0  0  2  0  0  0  0  0  0
  -30.1340  -16.9550   20.9510 C   0  0  0  0  0  2  0  0  0  0  0  0
  -29.7310  -16.0470   18.7600 C   0  0  0  0  0  2  0  0  0  0  0  0
  -29.9170  -15.7020   20.1810 N   0  0  0  0  0  0  0  0  0  0  0  0
  -25.2490  -13.9530   20.4910 C   0  0  0  0  0  0  0  0  0  0  0  0
  -24.1610  -13.2000   20.8440 C   0  0  0  0  0  0  0  0  0  0  0  0
  -24.6050  -11.8420   20.8400 C   0  0  0  0  0  0  0  0  0  0  0  0
  -26.2830  -13.0520   20.2890 N   0  0  0  0  0  0  0  0  0  0  0  0
  -25.8990  -11.7810   20.5640 N   0  0  0  0  0  0  0  0  0  0  0  0
  -23.8610  -10.5910   21.0260 C   0  0  0  0  0  0  0  0  0  0  0  0
  -24.2820   -9.6150   21.9560 C   0  0  0  0  0  3  0  0  0  0  0  0
  -23.5410   -8.4270   22.1290 C   0  0  0  0  0  3  0  0  0  0  0  0
  -22.3660   -8.2070   21.3740 C   0  0  0  0  0  0  0  0  0  0  0  0
  -21.9660   -9.1700   20.4300 C   0  0  0  0  0  3  0  0  0  0  0  0
  -22.7070  -10.3510   20.2550 C   0  0  0  0  0  3  0  0  0  0  0  0
  -21.5970   -7.0710   21.4580 O   0  0  0  0  0  0  0  0  0  0  0  0
  -21.5570   -6.3130   22.6010 C   0  0  0  0  0  0  0  0  0  0  0  0
  -21.1820   -6.8620   23.8470 C   0  0  0  0  0  3  0  0  0  0  0  0
  -21.0820   -6.0310   24.9810 C   0  0  0  0  0  3  0  0  0  0  0  0
  -21.3480   -4.6530   24.8710 C   0  0  0  0  0  0  0  0  0  0  0  0
  -21.7170   -4.1040   23.6310 C   0  0  0  0  0  3  0  0  0  0  0  0
  -21.8160   -4.9320   22.4980 C   0  0  0  0  0  0  0  0  0  0  0  0
  -22.1500   -4.3920   21.3000 F   0  0  0  0  0  0  0  0  0  0  0  0
  -21.2460   -3.8540   25.9590 F   0  0  0  0  0  0  0  0  0  0  0  0
  -22.7630  -13.6960   21.0760 C   0  0  0  0  0  0  0  0  0  0  0  0
  -22.0070  -13.0220   21.9360 N   0  0  0  0  0  0  0  0  0  0  0  0
  -22.3480  -14.7160   20.5290 O   0  0  0  0  0  0  0  0  0  0  0  0
  -22.3520  -12.1930   22.3960 H   0  0  0  0  0  0  0  0  0  0  0  0
  -21.0670  -13.3360   22.1300 H   0  0  0  0  0  0  0  0  0  0  0  0
  -25.4350  -15.3210   20.3030 N   0  0  0  0  0  0  0  0  0  0  0  0
  -24.6860  -15.9930   20.4220 H   0  0  0  0  0  0  0  0  0  0  0  0
  -26.3140  -15.7570   20.0540 H   0  0  0  0  0  0  0  0  0  0  0  0
  -28.7230  -21.9190   21.3720 C   0  0  0  0  0  2  0  0  0  0  0  0
  -29.0760  -23.0480   20.3650 C   0  0  0  0  0  2  0  0  0  0  0  0
  -28.6360  -24.4580   20.8220 C   0  0  0  0  0  2  0  0  0  0  0  0
  -28.8120  -25.5410   19.7370 C   0  0  0  0  0  2  0  0  0  0  0  0
  -28.6150  -26.8540   20.2690 O   0  0  0  0  0  0  0  0  0  0  0  0
  -24.6180  -31.9160   23.2380 C   0  0  0  0  0  0  0  0  0  0  0  0
  -27.3840  -27.4800   20.2470 C   0  0  0  0  0  0  0  0  0  0  0  0
  -23.4560  -30.4780   21.5940 C   0  0  0  0  0  3  0  0  0  0  0  0
  -24.9510  -28.9360   20.2180 C   0  0  0  0  0  0  0  0  0  0  0  0
  -25.9790  -30.8680   21.4320 C   0  0  0  0  0  2  0  0  0  0  0  0
  -26.0910  -29.4910   20.8100 C   0  0  0  0  0  0  0  0  0  0  0  0
  -27.3030  -28.7710   20.8190 C   0  0  0  0  0  3  0  0  0  0  0  0
  -26.2140  -26.9230   19.6750 C   0  0  0  0  0  3  0  0  0  0  0  0
  -25.0070  -27.6490   19.6530 C   0  0  0  0  0  3  0  0  0  0  0  0
  -23.6960  -29.7800   20.2280 C   0  0  0  0  0  2  0  0  0  0  0  0
  -24.7010  -31.1040   22.1460 N   0  0  0  0  0  0  0  0  0  0  0  0
  -23.5240  -32.1800   23.7580 O   0  0  0  0  0  0  0  0  0  0  0  0
  -22.8020  -29.4610   22.5570 C   0  0  0  0  0  0  0  0  0  0  0  0
  -21.4800  -29.2730   22.4200 N   0  0  0  0  0  0  0  0  0  0  0  0
  -23.4830  -28.8430   23.3810 O   0  0  0  0  0  0  0  0  0  0  0  0
  -20.9930  -29.8280   21.7300 H   0  0  0  0  0  0  0  0  0  0  0  0
  -18.1080  -28.0720   22.9020 C   0  0  0  0  0  0  0  0  0  0  0  0
  -20.6630  -28.3360   23.1880 C   0  0  0  0  0  3  0  0  0  0  0  0
  -20.7720  -26.9040   22.6150 C   0  0  0  0  0  2  0  0  0  0  0  0
  -19.6770  -26.5740   21.5970 C   0  0  0  0  0  2  0  0  0  0  0  0
  -18.2900  -26.7210   22.2300 C   0  0  0  0  0  2  0  0  0  0  0  0
  -19.2220  -28.8370   23.3360 C   0  0  0  0  0  0  0  0  0  0  0  0
  -18.9980  -30.1030   23.9200 C   0  0  0  0  0  3  0  0  0  0  0  0
  -17.6920  -30.6020   24.0770 C   0  0  0  0  0  3  0  0  0  0  0  0
  -16.5910  -29.8330   23.6590 C   0  0  0  0  0  3  0  0  0  0  0  0
  -16.8000  -28.5710   23.0770 C   0  0  0  0  0  3  0  0  0  0  0  0
  -25.8850  -32.5710   23.8720 C   0  0  0  0  0  3  0  0  0  0  0  0
  -26.4020  -31.8140   25.1560 C   0  0  1  0  0  0  0  0  0  0  0  0
  -25.3050  -31.5600   26.2170 C   0  0  0  0  0  1  0  0  0  0  0  0
  -27.0120  -30.4450   24.7720 C   0  0  0  0  0  1  0  0  0  0  0  0
  -27.5360  -32.6270   25.8240 C   0  0  0  0  0  1  0  0  0  0  0  0
  -25.5510  -33.9650   24.1910 N   0  0  0  0  0  0  0  0  0  0  0  0
  -25.8730  -35.0190   23.4300 C   0  0  0  0  0  0  0  0  0  0  0  0
  -26.5570  -34.9200   22.4060 O   0  0  0  0  0  0  0  0  0  0  0  0
  -24.9500  -34.1140   24.9890 H   0  0  0  0  0  0  0  0  0  0  0  0
  -24.1160  -36.7760   23.0470 C   0  0  0  0  0  1  0  0  0  0  0  0
  -25.3580  -36.4010   23.8740 C   0  0  0  0  0  3  0  0  0  0  0  0
  -27.4710  -37.3270   24.7120 C   0  0  0  0  0  1  0  0  0  0  0  0
  -26.3730  -37.4720   23.7620 N   0  0  0  0  0  0  0  0  0  0  0  0
  -25.9510  -38.3860   23.9020 H   0  0  0  0  0  0  0  0  0  0  0  0
  2  7  1  0
  3  4  1  0
  3  2  1  0
  5  4  1  0
  5 22  1  0
  5  6  1  0
  7  1  1  0
  7  6  1  0
  8  1  2  0
  9 12  2  0
  9 10  1  0
 10 14  2  0
 12 13  1  0
 13 16  1  0
 13 11  2  0
 14 11  1  0
 14 47  1  0
 15 17  1  0
 15 12  1  0
 17 18  1  0
 18  1  1  0
 18 16  1  0
 19 20  2  0
 20 39  1  0
 21 20  1  0
 21 24  1  0
 22 19  1  0
 22 23  1  0
 23 21  2  0
 24 25  1  0
 25 26  2  0
 27 30  1  0
 27 26  1  0
 28 27  2  0
 29 28  1  0
 29 24  2  0
 30 31  1  0
 31 32  1  0
 32 33  2  0
 34 33  1  0
 34 38  1  0
 35 34  2  0
 36 31  2  0
 36 35  1  0
 37 36  1  0
 39 40  1  0
 40 43  1  0
 40 42  1  0
 41 39  2  0
 44 45  1  0
 44 19  1  0
 46 44  1  0
 48 49  1  0
 48 47  1  0
 50 51  1  0
 50 49  1  0
 52 63  2  0
 53 51  1  0
 53 58  1  0
 54 62  1  0
 54 64  1  0
 55 61  1  0
 55 57  1  0
 56 62  1  0
 57 58  2  0
 57 56  1  0
 59 53  2  0
 60 59  1  0
 60 55  2  0
 61 54  1  0
 62 52  1  0
 64 66  2  0
 65 64  1  0
 67 65  1  0
 68 77  2  0
 68 73  1  0
 69 65  1  0
 69 73  1  0
 70 69  1  0
 71 72  1  0
 71 70  1  0
 72 68  1  0
 73 74  2  0
 74 75  1  0
 76 75  2  0
 77 76  1  0
 78 52  1  0
 78 83  1  0
 78 79  1  0
 79 82  1  1
 79 80  1  0
 81 79  1  0
 83 86  1  0
 84 88  1  0
 84 83  1  0
 85 84  2  0
 88 87  1  0
 90 88  1  0
 90 91  1  0
 90 89  1  0
M  ISO  4   1 100  18 100  50 101  51 101
M  END
>  <TORSDO>  (88) 
F 19

>  <SCORE>  (88) 
-14.004

>  <name>  (88) 
88

>  <ligand_id>  (88) 
88

>  <original_smiles>  (88) 
[H]c1c([H])c([H])c2c(c1[H])C([H])([H])C([H])([H])C([H])([H])C2([H])N([H])C(=O)C1([H])N(C(=O)C([H])(N([H])C(=O)C([H])(N([H])C([H])([H])[H])C([H])([H])[H])C(C([H])([H])[H])(C([H])([H])[H])C([H])([H])[H])C([H])([H])c2c([H])c(OC([H])([H])C([H])([H])C([H])([H])C([H])([H])c3c([H])c([H])c4c(c3[H])C([H])([H])N(C(=O)N3C([H])([H])C([H])([H])C([H])([H])C([H])(n5nc(-c6c([H])c([H])c(Oc7c([H])c([H])c(F)c([H])c7F)c([H])c6[H])c(C(=O)N([H])[H])c5N([H])[H])C3([H])[H])C([H])([H])C4([H])[H])c([H])c([H])c2C1([H])[H]

>  <smiles>  (88) 
[H]c1c([H])c([H])c2c(c1[H])C([H])([H])C([H])([H])C([H])([H])C2([H])N([H])C(=O)C1([H])N(C(=O)C([H])(N([H])C(=O)C([H])(N([H])C([H])([H])[H])C([H])([H])[H])C(C([H])([H])[H])(C([H])([H])[H])C([H])([H])[H])C([H])([H])c2c([H])c(OC([H])([H])C([H])([H])C([H])([H])C([H])([H])c3c([H])c([H])c4c(c3[H])C([H])([H])N(C(=O)N3C([H])([H])C([H])([H])C([H])([H])C([H])(n5nc(-c6c([H])c([H])c(Oc7c([H])c([H])c(F)c([H])c7F)c([H])c6[H])c(C(=O)N([H])[H])c5N([H])[H])C3([H])[H])C([H])([H])C4([H])[H])c([H])c([H])c2C1([H])[H]

$$$$
89:0:0
     RDKit          3D

 91 98  0  0  1  0  0  0  0  0999 V2000
  -30.3460  -21.3840   18.3890 C   0  0  0  0  0  2  0  0  0  0  0  0
  -29.8370  -19.6150   20.0620 C   0  0  0  0  0  0  0  0  0  0  0  0
  -30.6710  -20.5170   19.5230 N   0  0  0  0  0  0  0  0  0  0  0  0
  -28.7810  -19.2900   19.5130 O   0  0  0  0  0  0  0  0  0  0  0  0
  -31.5490  -20.6980   19.9930 H   0  0  0  0  0  0  0  0  0  0  0  0
  -30.2040  -19.0270   21.4340 C   0  0  0  0  0  2  0  0  0  0  0  0
  -29.8150  -17.5400   21.6040 C   0  0  0  0  0  2  0  0  0  0  0  0
  -30.8800  -16.5760   21.0680 C   0  0  0  0  0  2  0  0  0  0  0  0
  -30.8730  -14.2700   20.1640 C   0  0  0  0  0  0  0  0  0  0  0  0
  -30.4000  -12.2030   18.9220 C   0  0  0  0  0  2  0  0  0  0  0  0
  -29.4150  -12.4990   17.7720 C   0  0  0  0  0  2  0  0  0  0  0  0
  -27.9570  -12.4030   18.2630 C   0  0  0  0  0  2  0  0  0  0  0  0
  -27.7110  -13.2030   19.5700 C   0  0  0  0  0  3  0  0  0  0  0  0
  -28.8050  -12.8890   20.6170 C   0  0  0  0  0  2  0  0  0  0  0  0
  -30.1200  -13.1520   20.0040 N   0  0  0  0  0  0  0  0  0  0  0  0
  -31.9430  -14.4600   19.5820 O   0  0  0  0  0  0  0  0  0  0  0  0
  -30.3310  -15.2270   20.9250 N   0  0  0  0  0  0  0  0  0  0  0  0
  -29.4380  -15.0220   21.3490 H   0  0  0  0  0  0  0  0  0  0  0  0
  -25.3520  -13.8600   20.3690 C   0  0  0  0  0  0  0  0  0  0  0  0
  -24.2830  -13.1130   20.7830 C   0  0  0  0  0  0  0  0  0  0  0  0
  -24.7130  -11.7500   20.7310 C   0  0  0  0  0  0  0  0  0  0  0  0
  -26.3700  -12.9590   20.0990 N   0  0  0  0  0  0  0  0  0  0  0  0
  -25.9900  -11.6840   20.3740 N   0  0  0  0  0  0  0  0  0  0  0  0
  -23.9690  -10.5030   20.9490 C   0  0  0  0  0  0  0  0  0  0  0  0
  -24.4100   -9.5310   21.8740 C   0  0  0  0  0  3  0  0  0  0  0  0
  -23.6690   -8.3460   22.0760 C   0  0  0  0  0  3  0  0  0  0  0  0
  -22.4710   -8.1280   21.3560 C   0  0  0  0  0  0  0  0  0  0  0  0
  -22.0470   -9.0910   20.4220 C   0  0  0  0  0  3  0  0  0  0  0  0
  -22.7880  -10.2660   20.2190 C   0  0  0  0  0  3  0  0  0  0  0  0
  -21.6980   -6.9980   21.4680 O   0  0  0  0  0  0  0  0  0  0  0  0
  -21.6590   -6.2630   22.6250 C   0  0  0  0  0  0  0  0  0  0  0  0
  -21.2760   -6.8350   23.8580 C   0  0  0  0  0  3  0  0  0  0  0  0
  -21.1850   -6.0300   25.0100 C   0  0  0  0  0  3  0  0  0  0  0  0
  -21.4650   -4.6520   24.9320 C   0  0  0  0  0  0  0  0  0  0  0  0
  -21.8390   -4.0790   23.7030 C   0  0  0  0  0  3  0  0  0  0  0  0
  -21.9340   -4.8820   22.5540 C   0  0  0  0  0  0  0  0  0  0  0  0
  -22.2740   -4.3200   21.3690 F   0  0  0  0  0  0  0  0  0  0  0  0
  -21.3700   -3.8770   26.0370 F   0  0  0  0  0  0  0  0  0  0  0  0
  -22.9060  -13.6170   21.1090 C   0  0  0  0  0  0  0  0  0  0  0  0
  -22.1950  -12.9440   22.0040 N   0  0  0  0  0  0  0  0  0  0  0  0
  -22.4700  -14.6520   20.6050 O   0  0  0  0  0  0  0  0  0  0  0  0
  -22.5610  -12.1130   22.4420 H   0  0  0  0  0  0  0  0  0  0  0  0
  -21.2740  -13.2700   22.2620 H   0  0  0  0  0  0  0  0  0  0  0  0
  -25.5390  -15.2280   20.1880 N   0  0  0  0  0  0  0  0  0  0  0  0
  -24.7960  -15.8980   20.3510 H   0  0  0  0  0  0  0  0  0  0  0  0
  -26.3910  -15.6450   19.8350 H   0  0  0  0  0  0  0  0  0  0  0  0
  -29.6690  -22.6860   18.8770 C   0  0  0  0  0  2  0  0  0  0  0  0
  -30.5370  -23.9570   18.7580 C   0  0  0  0  0  2  0  0  0  0  0  0
  -30.0660  -25.1150   19.6620 C   0  0  0  0  0  2  0  0  0  0  0  0
  -28.6440  -25.6350   19.3750 C   0  0  0  0  0  2  0  0  0  0  0  0
  -28.4300  -26.7660   20.2080 O   0  0  0  0  0  0  0  0  0  0  0  0
  -24.5430  -31.8510   23.2220 C   0  0  0  0  0  0  0  0  0  0  0  0
  -27.2160  -27.4180   20.1780 C   0  0  0  0  0  0  0  0  0  0  0  0
  -23.3440  -30.4510   21.5670 C   0  0  0  0  0  3  0  0  0  0  0  0
  -24.8080  -28.8980   20.1720 C   0  0  0  0  0  0  0  0  0  0  0  0
  -25.8690  -30.8020   21.4030 C   0  0  0  0  0  2  0  0  0  0  0  0
  -25.9530  -29.4280   20.7750 C   0  0  0  0  0  0  0  0  0  0  0  0
  -27.1530  -28.6880   20.7900 C   0  0  0  0  0  3  0  0  0  0  0  0
  -26.0500  -26.8920   19.5750 C   0  0  0  0  0  3  0  0  0  0  0  0
  -24.8470  -27.6240   19.5800 C   0  0  0  0  0  3  0  0  0  0  0  0
  -23.5640  -29.7530   20.1960 C   0  0  0  0  0  2  0  0  0  0  0  0
  -24.6010  -31.0500   22.1240 N   0  0  0  0  0  0  0  0  0  0  0  0
  -23.4580  -32.1350   23.7490 O   0  0  0  0  0  0  0  0  0  0  0  0
  -22.6770  -29.4430   22.5280 C   0  0  0  0  0  0  0  0  0  0  0  0
  -21.3560  -29.2600   22.3760 N   0  0  0  0  0  0  0  0  0  0  0  0
  -23.3450  -28.8280   23.3620 O   0  0  0  0  0  0  0  0  0  0  0  0
  -20.8790  -29.8140   21.6790 H   0  0  0  0  0  0  0  0  0  0  0  0
  -17.9730  -28.0660   22.8030 C   0  0  0  0  0  0  0  0  0  0  0  0
  -20.5220  -28.3300   23.1380 C   0  0  0  0  0  3  0  0  0  0  0  0
  -20.6420  -26.8920   22.5850 C   0  0  0  0  0  2  0  0  0  0  0  0
  -19.5690  -26.5560   21.5460 C   0  0  0  0  0  2  0  0  0  0  0  0
  -18.1700  -26.7060   22.1520 C   0  0  0  0  0  2  0  0  0  0  0  0
  -19.0800  -28.8350   23.2510 C   0  0  0  0  0  0  0  0  0  0  0  0
  -18.8460  -30.1060   23.8170 C   0  0  0  0  0  3  0  0  0  0  0  0
  -17.5390  -30.6110   23.9410 C   0  0  0  0  0  3  0  0  0  0  0  0
  -16.4460  -29.8390   23.5080 C   0  0  0  0  0  3  0  0  0  0  0  0
  -16.6640  -28.5690   22.9460 C   0  0  0  0  0  3  0  0  0  0  0  0
  -25.8310  -32.4720   23.8500 C   0  0  0  0  0  3  0  0  0  0  0  0
  -25.5310  -33.8730   24.1740 N   0  0  0  0  0  0  0  0  0  0  0  0
  -25.8880  -34.9220   23.4200 C   0  0  0  0  0  0  0  0  0  0  0  0
  -26.5780  -34.8110   22.4010 O   0  0  0  0  0  0  0  0  0  0  0  0
  -24.9220  -34.0330   24.9640 H   0  0  0  0  0  0  0  0  0  0  0  0
  -24.1860  -36.7310   23.0280 C   0  0  0  0  0  1  0  0  0  0  0  0
  -25.4060  -36.3160   23.8660 C   0  0  0  0  0  3  0  0  0  0  0  0
  -27.5300  -37.1780   24.7400 C   0  0  0  0  0  1  0  0  0  0  0  0
  -26.4500  -37.3590   23.7740 N   0  0  0  0  0  0  0  0  0  0  0  0
  -26.0500  -38.2820   23.9140 H   0  0  0  0  0  0  0  0  0  0  0  0
  -26.3350  -31.6980   25.1310 C   0  0  1  0  0  0  0  0  0  0  0  0
  -25.2350  -31.4740   26.1920 C   0  0  0  0  0  1  0  0  0  0  0  0
  -26.9090  -30.3130   24.7430 C   0  0  0  0  0  1  0  0  0  0  0  0
  -27.4840  -32.4860   25.8040 C   0  0  0  0  0  1  0  0  0  0  0  0
  1 47  1  0
  1  3  1  0
  2  6  1  0
  3  5  1  0
  3  2  1  0
  4  2  2  0
  6  7  1  0
  8  7  1  0
  9 17  1  0
 10 15  1  0
 11 12  1  0
 11 10  1  0
 13 12  1  0
 13 22  1  0
 13 14  1  0
 15  9  1  0
 15 14  1  0
 16  9  2  0
 17  8  1  0
 17 18  1  0
 19 20  2  0
 20 39  1  0
 21 20  1  0
 21 24  1  0
 22 19  1  0
 22 23  1  0
 23 21  2  0
 24 25  1  0
 25 26  2  0
 27 30  1  0
 27 26  1  0
 28 27  2  0
 29 28  1  0
 29 24  2  0
 30 31  1  0
 31 32  1  0
 32 33  2  0
 34 33  1  0
 34 38  1  0
 35 34  2  0
 36 31  2  0
 36 35  1  0
 37 36  1  0
 39 40  1  0
 40 43  1  0
 40 42  1  0
 41 39  2  0
 44 45  1  0
 44 19  1  0
 46 44  1  0
 48 47  1  0
 48 49  1  0
 50 49  1  0
 50 51  1  0
 52 63  2  0
 53 51  1  0
 53 58  1  0
 54 62  1  0
 54 64  1  0
 55 61  1  0
 55 57  1  0
 56 62  1  0
 57 58  2  0
 57 56  1  0
 59 60  1  0
 59 53  2  0
 60 55  2  0
 61 54  1  0
 62 52  1  0
 64 66  2  0
 65 64  1  0
 67 65  1  0
 68 77  2  0
 68 73  1  0
 69 65  1  0
 69 73  1  0
 70 69  1  0
 71 72  1  0
 71 70  1  0
 72 68  1  0
 73 74  2  0
 74 75  1  0
 76 75  2  0
 77 76  1  0
 78 52  1  0
 78 79  1  0
 78 88  1  0
 79 82  1  0
 80 84  1  0
 80 79  1  0
 81 80  2  0
 84 83  1  0
 86 84  1  0
 86 87  1  0
 86 85  1  0
 88 91  1  1
 88 89  1  0
 90 88  1  0
M  ISO  4   9 100  17 100  50 101  51 101
M  END
>  <TORSDO>  (89) 
F 24

>  <SCORE>  (89) 
-12.138

>  <name>  (89) 
89

>  <ligand_id>  (89) 
89

>  <original_smiles>  (89) 
[H]c1c([H])c([H])c2c(c1[H])C([H])([H])C([H])([H])C([H])([H])C2([H])N([H])C(=O)C1([H])N(C(=O)C([H])(N([H])C(=O)C([H])(N([H])C([H])([H])[H])C([H])([H])[H])C(C([H])([H])[H])(C([H])([H])[H])C([H])([H])[H])C([H])([H])c2c([H])c(OC([H])([H])C([H])([H])C([H])([H])C([H])([H])C([H])([H])N([H])C(=O)C([H])([H])C([H])([H])C([H])([H])N([H])C(=O)N3C([H])([H])C([H])([H])C([H])([H])C([H])(n4nc(-c5c([H])c([H])c(Oc6c([H])c([H])c(F)c([H])c6F)c([H])c5[H])c(C(=O)N([H])[H])c4N([H])[H])C3([H])[H])c([H])c([H])c2C1([H])[H]

>  <smiles>  (89) 
[H]c1c([H])c([H])c2c(c1[H])C([H])([H])C([H])([H])C([H])([H])C2([H])N([H])C(=O)C1([H])N(C(=O)C([H])(N([H])C(=O)C([H])(N([H])C([H])([H])[H])C([H])([H])[H])C(C([H])([H])[H])(C([H])([H])[H])C([H])([H])[H])C([H])([H])c2c([H])c(OC([H])([H])C([H])([H])C([H])([H])C([H])([H])C([H])([H])N([H])C(=O)C([H])([H])C([H])([H])C([H])([H])N([H])C(=O)N3C([H])([H])C([H])([H])C([H])([H])C([H])(n4nc(-c5c([H])c([H])c(Oc6c([H])c([H])c(F)c([H])c6F)c([H])c5[H])c(C(=O)N([H])[H])c4N([H])[H])C3([H])[H])c([H])c([H])c2C1([H])[H]

$$$$
90:0:0
     RDKit          3D

 98106  0  0  1  0  0  0  0  0999 V2000
  -28.9950  -21.6040   22.5300 C   0  0  0  0  0  3  0  0  0  0  0  0
  -28.5820  -21.5110   20.1240 C   0  0  0  0  0  3  0  0  0  0  0  0
  -28.9310  -23.0020   22.4910 C   0  0  0  0  0  3  0  0  0  0  0  0
  -28.5050  -22.9160   20.0850 C   0  0  0  0  0  3  0  0  0  0  0  0
  -28.8070  -20.8600   21.3530 C   0  0  0  0  0  0  0  0  0  0  0  0
  -28.6660  -23.6630   21.2740 C   0  0  0  0  0  0  0  0  0  0  0  0
  -28.9140  -19.3580   21.4070 C   0  0  0  0  0  2  0  0  0  0  0  0
  -30.2460  -18.9500   20.7790 C   0  0  0  0  0  2  0  0  0  0  0  0
  -30.5580  -17.4680   20.9060 C   0  0  0  0  0  2  0  0  0  0  0  0
  -32.0680  -17.2250   20.7490 C   0  0  0  0  0  2  0  0  0  0  0  0
  -32.5190  -15.8760   21.3110 C   0  0  0  0  0  2  0  0  0  0  0  0
  -31.6150  -14.3460   19.5620 C   0  0  0  0  0  0  0  0  0  0  0  0
  -30.9530  -12.2380   18.4880 C   0  0  0  0  0  2  0  0  0  0  0  0
  -29.8850  -12.3560   17.3940 C   0  0  0  0  0  2  0  0  0  0  0  0
  -28.4780  -12.3180   18.0140 C   0  0  0  0  0  2  0  0  0  0  0  0
  -28.3100  -13.3560   19.1520 C   0  0  0  0  0  3  0  0  0  0  0  0
  -29.4630  -13.2330   20.1710 C   0  0  0  0  0  2  0  0  0  0  0  0
  -30.7550  -13.3130   19.4620 N   0  0  0  0  0  0  0  0  0  0  0  0
  -32.4160  -14.6860   18.6850 O   0  0  0  0  0  0  0  0  0  0  0  0
  -31.6700  -14.8110   20.8110 N   0  0  0  0  0  0  0  0  0  0  0  0
  -31.0230  -14.3920   21.4640 H   0  0  0  0  0  0  0  0  0  0  0  0
  -26.1260  -14.2050   20.2260 C   0  0  0  0  0  0  0  0  0  0  0  0
  -25.0220  -13.5370   20.6940 C   0  0  0  0  0  0  0  0  0  0  0  0
  -25.2940  -12.1480   20.5190 C   0  0  0  0  0  0  0  0  0  0  0  0
  -27.0060  -13.2200   19.8010 N   0  0  0  0  0  0  0  0  0  0  0  0
  -26.5170  -11.9760   20.0330 N   0  0  0  0  0  0  0  0  0  0  0  0
  -24.4420  -10.9680   20.7230 C   0  0  0  0  0  0  0  0  0  0  0  0
  -24.8230   -9.9220   21.5910 C   0  0  0  0  0  3  0  0  0  0  0  0
  -23.9740   -8.8120   21.7860 C   0  0  0  0  0  3  0  0  0  0  0  0
  -22.7340   -8.7400   21.1110 C   0  0  0  0  0  0  0  0  0  0  0  0
  -22.3690   -9.7750   20.2340 C   0  0  0  0  0  3  0  0  0  0  0  0
  -23.2160  -10.8780   20.0360 C   0  0  0  0  0  3  0  0  0  0  0  0
  -21.8560   -7.6880   21.2190 O   0  0  0  0  0  0  0  0  0  0  0  0
  -21.7420   -6.9620   22.3780 C   0  0  0  0  0  0  0  0  0  0  0  0
  -21.4100   -7.5690   23.6090 C   0  0  0  0  0  3  0  0  0  0  0  0
  -21.2320   -6.7780   24.7610 C   0  0  0  0  0  3  0  0  0  0  0  0
  -21.3830   -5.3800   24.6860 C   0  0  0  0  0  0  0  0  0  0  0  0
  -21.7120   -4.7720   23.4610 C   0  0  0  0  0  3  0  0  0  0  0  0
  -21.8890   -5.5620   22.3100 C   0  0  0  0  0  0  0  0  0  0  0  0
  -22.1820   -4.9660   21.1290 F   0  0  0  0  0  0  0  0  0  0  0  0
  -21.2080   -4.6190   25.7910 F   0  0  0  0  0  0  0  0  0  0  0  0
  -23.7460  -14.1590   21.1860 C   0  0  0  0  0  0  0  0  0  0  0  0
  -23.0650  -13.5060   22.1230 N   0  0  0  0  0  0  0  0  0  0  0  0
  -23.3690  -15.2550   20.7760 O   0  0  0  0  0  0  0  0  0  0  0  0
  -23.3750  -12.6090   22.4640 H   0  0  0  0  0  0  0  0  0  0  0  0
  -22.2250  -13.9180   22.5060 H   0  0  0  0  0  0  0  0  0  0  0  0
  -26.4510  -15.5510   20.1100 N   0  0  0  0  0  0  0  0  0  0  0  0
  -25.8310  -16.2970   20.4060 H   0  0  0  0  0  0  0  0  0  0  0  0
  -27.3090  -15.8920   19.6920 H   0  0  0  0  0  0  0  0  0  0  0  0
  -28.4100  -25.1570   21.3100 C   0  0  0  0  0  3  0  0  0  0  0  0
  -26.8660  -25.3950   21.3350 C   0  0  0  0  0  2  0  0  0  0  0  0
  -26.0870  -24.4200   22.2600 C   0  0  0  0  0  2  0  0  0  0  0  0
  -24.6510  -24.7370   22.4100 N   0  0  0  0  0  4  0  0  0  0  0  0
  -24.5230  -25.6570   22.7930 H   0  0  0  0  0  0  0  0  0  0  0  0
  -24.2270  -24.0740   23.0400 H   0  0  0  0  0  0  0  0  0  0  0  0
  -24.1730  -24.6690   21.5270 H   0  0  0  0  0  0  0  0  0  0  0  0
  -29.2390  -25.8810   20.2150 C   0  0  0  0  0  2  0  0  0  0  0  0
  -29.2820  -27.3170   20.3230 O   0  0  0  0  0  0  0  0  0  0  0  0
  -24.9040  -31.9350   23.4310 C   0  0  0  0  0  0  0  0  0  0  0  0
  -28.0800  -27.9760   20.2230 C   0  0  0  0  0  0  0  0  0  0  0  0
  -23.9190  -30.5470   21.6360 C   0  0  0  0  0  3  0  0  0  0  0  0
  -25.5780  -29.2780   20.1820 C   0  0  0  0  0  0  0  0  0  0  0  0
  -26.4110  -31.1470   21.6100 C   0  0  0  0  0  2  0  0  0  0  0  0
  -26.6510  -29.8430   20.8800 C   0  0  0  0  0  0  0  0  0  0  0  0
  -27.9020  -29.1960   20.9110 C   0  0  0  0  0  3  0  0  0  0  0  0
  -26.9930  -27.4390   19.4920 C   0  0  0  0  0  3  0  0  0  0  0  0
  -25.7400  -28.0710   19.4890 C   0  0  0  0  0  3  0  0  0  0  0  0
  -24.2640  -30.0170   20.2210 C   0  0  0  0  0  2  0  0  0  0  0  0
  -25.0920  -31.2210   22.2850 N   0  0  0  0  0  0  0  0  0  0  0  0
  -23.7760  -32.0620   23.9260 O   0  0  0  0  0  0  0  0  0  0  0  0
  -23.3270  -29.3930   22.4770 C   0  0  0  0  0  0  0  0  0  0  0  0
  -22.0320  -29.1070   22.2710 N   0  0  0  0  0  0  0  0  0  0  0  0
  -24.0270  -28.7610   23.2730 O   0  0  0  0  0  0  0  0  0  0  0  0
  -21.5270  -29.6670   21.5960 H   0  0  0  0  0  0  0  0  0  0  0  0
  -18.7480  -27.6300   22.5360 C   0  0  0  0  0  0  0  0  0  0  0  0
  -21.2660  -28.0430   22.9230 C   0  0  0  0  0  3  0  0  0  0  0  0
  -21.5080  -26.6860   22.2270 C   0  0  0  0  0  2  0  0  0  0  0  0
  -20.4600  -26.3520   21.1610 C   0  0  0  0  0  2  0  0  0  0  0  0
  -19.0480  -26.3640   21.7520 C   0  0  0  0  0  2  0  0  0  0  0  0
  -19.7920  -28.4240   23.0730 C   0  0  0  0  0  0  0  0  0  0  0  0
  -19.4660  -29.6000   23.7790 C   0  0  0  0  0  3  0  0  0  0  0  0
  -18.1260  -29.9970   23.9420 C   0  0  0  0  0  3  0  0  0  0  0  0
  -17.0920  -29.2020   23.4190 C   0  0  0  0  0  3  0  0  0  0  0  0
  -17.4030  -28.0170   22.7250 C   0  0  0  0  0  3  0  0  0  0  0  0
  -26.0880  -32.6390   24.1590 C   0  0  0  0  0  3  0  0  0  0  0  0
  -26.5260  -31.9070   25.4860 C   0  0  1  0  0  0  0  0  0  0  0  0
  -25.3570  -31.5870   26.4440 C   0  0  0  0  0  1  0  0  0  0  0  0
  -27.2490  -30.5790   25.1650 C   0  0  0  0  0  1  0  0  0  0  0  0
  -27.5360  -32.7860   26.2640 C   0  0  0  0  0  1  0  0  0  0  0  0
  -25.6790  -34.0200   24.4340 N   0  0  0  0  0  0  0  0  0  0  0  0
  -26.0210  -35.0750   23.6840 C   0  0  0  0  0  0  0  0  0  0  0  0
  -26.7910  -34.9940   22.7220 O   0  0  0  0  0  0  0  0  0  0  0  0
  -25.0120  -34.1570   25.1810 H   0  0  0  0  0  0  0  0  0  0  0  0
  -24.2470  -36.7690   23.1350 C   0  0  0  0  0  1  0  0  0  0  0  0
  -25.4200  -36.4410   24.0700 C   0  0  0  0  0  3  0  0  0  0  0  0
  -27.4230  -37.4460   25.0740 C   0  0  0  0  0  1  0  0  0  0  0  0
  -26.3980  -37.5510   24.0380 N   0  0  0  0  0  0  0  0  0  0  0  0
  -25.9290  -38.4490   24.1420 H   0  0  0  0  0  0  0  0  0  0  0  0
  2  5  1  0
  3  1  1  0
  4  2  2  0
  4  6  1  0
  5  7  1  0
  5  1  2  0
  6 50  1  0
  6  3  2  0
  8  9  1  0
  8  7  1  0
 10  9  1  0
 10 11  1  0
 12 20  1  0
 13 18  1  0
 14 15  1  0
 14 13  1  0
 16 15  1  0
 16 25  1  0
 16 17  1  0
 18 12  1  0
 18 17  1  0
 19 12  2  0
 20 11  1  0
 20 21  1  0
 22 23  2  0
 23 42  1  0
 24 23  1  0
 24 27  1  0
 25 26  1  0
 25 22  1  0
 26 24  2  0
 27 28  1  0
 28 29  2  0
 30 33  1  0
 30 29  1  0
 31 30  2  0
 32 31  1  0
 32 27  2  0
 33 34  1  0
 34 35  1  0
 35 36  2  0
 37 36  1  0
 37 41  1  0
 38 37  2  0
 39 34  2  0
 39 38  1  0
 40 39  1  0
 42 43  1  0
 43 45  1  0
 43 46  1  0
 44 42  2  0
 47 22  1  0
 47 48  1  0
 49 47  1  0
 50 57  1  0
 50 51  1  0
 51 52  1  0
 52 53  1  0
 53 54  1  0
 53 55  1  0
 56 53  1  0
 57 58  1  0
 59 70  2  0
 60 58  1  0
 60 65  1  0
 61 69  1  0
 61 71  1  0
 62 68  1  0
 62 64  1  0
 63 69  1  0
 64 65  2  0
 64 63  1  0
 66 60  2  0
 67 66  1  0
 67 62  2  0
 68 61  1  0
 69 59  1  0
 71 73  2  0
 72 71  1  0
 74 72  1  0
 75 84  2  0
 75 80  1  0
 76 72  1  0
 76 80  1  0
 77 76  1  0
 78 79  1  0
 78 77  1  0
 79 75  1  0
 80 81  2  0
 81 82  1  0
 83 82  2  0
 84 83  1  0
 85 59  1  0
 85 90  1  0
 85 86  1  0
 86 89  1  1
 86 87  1  0
 88 86  1  0
 90 93  1  0
 91 95  1  0
 91 90  1  0
 92 91  2  0
 95 94  1  0
 97 95  1  0
 97 98  1  0
 97 96  1  0
M  ISO  4  12 100  20 100  57 101  58 101
M  END
>  <TORSDO>  (90) 
F 26

>  <SCORE>  (90) 
-8.396

>  <name>  (90) 
90

>  <ligand_id>  (90) 
90

>  <original_smiles>  (90) 
[H]c1c([H])c([H])c2c(c1[H])C([H])([H])C([H])([H])C([H])([H])C2([H])N([H])C(=O)C1([H])N(C(=O)C([H])(N([H])C(=O)C([H])(N([H])C([H])([H])[H])C([H])([H])[H])C(C([H])([H])[H])(C([H])([H])[H])C([H])([H])[H])C([H])([H])c2c([H])c(OC([H])([H])C([H])(c3c([H])c([H])c(C([H])([H])C([H])([H])C([H])([H])C([H])([H])C([H])([H])N([H])C(=O)N4C([H])([H])C([H])([H])C([H])([H])C([H])(n5nc(-c6c([H])c([H])c(Oc7c([H])c([H])c(F)c([H])c7F)c([H])c6[H])c(C(=O)N([H])[H])c5N([H])[H])C4([H])[H])c([H])c3[H])C([H])([H])C([H])([H])[N+]([H])([H])[H])c([H])c([H])c2C1([H])[H]

>  <smiles>  (90) 
[H]c1c([H])c([H])c2c(c1[H])C([H])([H])C([H])([H])C([H])([H])C2([H])N([H])C(=O)C1([H])N(C(=O)C([H])(N([H])C(=O)C([H])(N([H])C([H])([H])[H])C([H])([H])[H])C(C([H])([H])[H])(C([H])([H])[H])C([H])([H])[H])C([H])([H])c2c([H])c(OC([H])([H])C([H])(c3c([H])c([H])c(C([H])([H])C([H])([H])C([H])([H])C([H])([H])C([H])([H])N([H])C(=O)N4C([H])([H])C([H])([H])C([H])([H])C([H])(n5nc(-c6c([H])c([H])c(Oc7c([H])c([H])c(F)c([H])c7F)c([H])c6[H])c(C(=O)N([H])[H])c5N([H])[H])C4([H])[H])c([H])c3[H])C([H])([H])C([H])([H])[N+]([H])([H])[H])c([H])c([H])c2C1([H])[H]

$$$$
91:0:0
     RDKit          3D

103111  0  0  1  0  0  0  0  0999 V2000
  -20.8900  -24.5800   16.2100 C   0  0  0  0  0  1  0  0  0  0  0  0
  -22.3340  -24.2720   16.6500 C   0  0  0  0  0  3  0  0  0  0  0  0
  -23.1290  -25.5830   16.8960 C   0  0  0  0  0  2  0  0  0  0  0  0
  -24.5680  -27.2250   15.7650 C   0  0  0  0  0  1  0  0  0  0  0  0
  -24.2880  -25.7820   15.9740 N   0  0  1  0  0  4  0  0  0  0  0  0
  -23.9920  -25.4480   15.0690 H   0  0  0  0  0  0  0  0  0  0  0  0
  -25.4680  -24.9460   16.3640 C   0  0  0  0  0  2  0  0  0  0  0  0
  -26.8420  -25.3190   15.7500 C   0  0  0  0  0  2  0  0  0  0  0  0
  -27.7010  -26.2980   16.5910 C   0  0  0  0  0  2  0  0  0  0  0  0
  -28.4260  -25.6750   17.8060 C   0  0  0  0  0  2  0  0  0  0  0  0
  -29.0150  -26.7340   18.7720 C   0  0  0  0  0  2  0  0  0  0  0  0
  -28.3660  -26.7990   20.0450 O   0  0  0  0  0  0  0  0  0  0  0  0
  -24.5570  -31.8850   23.2620 C   0  0  0  0  0  0  0  0  0  0  0  0
  -27.1960  -27.5170   20.0940 C   0  0  0  0  0  0  0  0  0  0  0  0
  -23.3390  -30.4960   21.6190 C   0  0  0  0  0  3  0  0  0  0  0  0
  -24.7870  -28.9820   20.1750 C   0  0  0  0  0  0  0  0  0  0  0  0
  -25.8580  -30.8780   21.3930 C   0  0  0  0  0  2  0  0  0  0  0  0
  -25.9500  -29.5140   20.7470 C   0  0  0  0  0  0  0  0  0  0  0  0
  -27.1590  -28.7850   20.7110 C   0  0  0  0  0  3  0  0  0  0  0  0
  -26.0060  -26.9740   19.5740 C   0  0  0  0  0  3  0  0  0  0  0  0
  -24.8040  -27.7050   19.5990 C   0  0  0  0  0  3  0  0  0  0  0  0
  -23.5380  -29.8330   20.2310 C   0  0  0  0  0  2  0  0  0  0  0  0
  -24.6030  -31.0980   22.1510 N   0  0  0  0  0  0  0  0  0  0  0  0
  -23.4790  -32.1460   23.8160 O   0  0  0  0  0  0  0  0  0  0  0  0
  -22.7010  -29.4610   22.5730 C   0  0  0  0  0  0  0  0  0  0  0  0
  -21.3770  -29.2740   22.4510 N   0  0  0  0  0  0  0  0  0  0  0  0
  -23.3920  -28.8290   23.3760 O   0  0  0  0  0  0  0  0  0  0  0  0
  -20.8810  -29.8380   21.7770 H   0  0  0  0  0  0  0  0  0  0  0  0
  -18.0140  -28.0480   22.9430 C   0  0  0  0  0  0  0  0  0  0  0  0
  -20.5680  -28.3260   23.2170 C   0  0  0  0  0  3  0  0  0  0  0  0
  -20.6850  -26.8980   22.6350 C   0  0  0  0  0  2  0  0  0  0  0  0
  -19.5860  -26.5690   21.6200 C   0  0  0  0  0  2  0  0  0  0  0  0
  -18.2030  -26.7020   22.2640 C   0  0  0  0  0  2  0  0  0  0  0  0
  -19.1250  -28.8190   23.3760 C   0  0  0  0  0  0  0  0  0  0  0  0
  -18.8950  -30.0790   23.9680 C   0  0  0  0  0  3  0  0  0  0  0  0
  -17.5870  -30.5690   24.1350 C   0  0  0  0  0  3  0  0  0  0  0  0
  -16.4900  -29.7960   23.7180 C   0  0  0  0  0  3  0  0  0  0  0  0
  -16.7030  -28.5380   23.1280 C   0  0  0  0  0  3  0  0  0  0  0  0
  -25.8470  -32.5120   23.8760 C   0  0  0  0  0  3  0  0  0  0  0  0
  -25.5540  -33.9160   24.1910 N   0  0  0  0  0  0  0  0  0  0  0  0
  -25.8920  -34.9540   23.4140 C   0  0  0  0  0  0  0  0  0  0  0  0
  -26.5570  -34.8300   22.3810 O   0  0  0  0  0  0  0  0  0  0  0  0
  -24.9680  -34.0870   24.9960 H   0  0  0  0  0  0  0  0  0  0  0  0
  -24.1740  -36.7500   23.0330 C   0  0  0  0  0  1  0  0  0  0  0  0
  -25.4130  -36.3520   23.8490 C   0  0  0  0  0  3  0  0  0  0  0  0
  -27.5600  -37.2300   24.6570 C   0  0  0  0  0  1  0  0  0  0  0  0
  -26.4520  -37.3970   23.7190 N   0  0  0  0  0  0  0  0  0  0  0  0
  -26.0540  -38.3210   23.8620 H   0  0  0  0  0  0  0  0  0  0  0  0
  -26.3590  -31.7470   25.1580 C   0  0  1  0  0  0  0  0  0  0  0  0
  -25.2660  -31.5260   26.2280 C   0  0  0  0  0  1  0  0  0  0  0  0
  -26.9290  -30.3630   24.7710 C   0  0  0  0  0  1  0  0  0  0  0  0
  -27.5200  -32.5340   25.8110 C   0  0  0  0  0  1  0  0  0  0  0  0
  -22.3140  -23.3490   17.8930 C   0  0  0  0  0  2  0  0  0  0  0  0
  -25.4100  -21.1250   17.5390 C   0  0  0  0  0  3  0  0  0  0  0  0
  -25.7850  -22.6770   19.3810 C   0  0  0  0  0  3  0  0  0  0  0  0
  -24.1170  -21.6510   17.3590 C   0  0  0  0  0  3  0  0  0  0  0  0
  -24.4900  -23.2000   19.2060 C   0  0  0  0  0  3  0  0  0  0  0  0
  -26.2580  -21.6540   18.5330 C   0  0  0  0  0  0  0  0  0  0  0  0
  -23.6640  -22.7120   18.1700 C   0  0  0  0  0  0  0  0  0  0  0  0
  -27.6850  -21.1550   18.6570 C   0  0  0  0  0  2  0  0  0  0  0  0
  -27.8140  -19.8780   19.5000 C   0  0  0  0  0  2  0  0  0  0  0  0
  -29.2750  -19.4030   19.5680 C   0  0  0  0  0  2  0  0  0  0  0  0
  -29.4870  -18.1480   20.4290 C   0  0  0  0  0  2  0  0  0  0  0  0
  -30.9790  -17.7830   20.5190 C   0  0  0  0  0  2  0  0  0  0  0  0
  -31.2930  -16.6070   21.4620 C   0  0  0  0  0  2  0  0  0  0  0  0
  -31.1210  -14.5000   20.1310 C   0  0  0  0  0  0  0  0  0  0  0  0
  -30.7040  -12.3680   18.9610 C   0  0  0  0  0  2  0  0  0  0  0  0
  -29.7380  -12.5600   17.7780 C   0  0  0  0  0  2  0  0  0  0  0  0
  -28.2720  -12.4720   18.2460 C   0  0  0  0  0  2  0  0  0  0  0  0
  -27.9870  -13.3630   19.4830 C   0  0  0  0  0  3  0  0  0  0  0  0
  -29.0520  -13.1280   20.5760 C   0  0  0  0  0  2  0  0  0  0  0  0
  -30.3810  -13.3710   19.9850 N   0  0  0  0  0  0  0  0  0  0  0  0
  -32.1510  -14.7290   19.4910 O   0  0  0  0  0  0  0  0  0  0  0  0
  -30.6560  -15.3600   21.0470 N   0  0  0  0  0  0  0  0  0  0  0  0
  -29.8080  -15.0940   21.5240 H   0  0  0  0  0  0  0  0  0  0  0  0
  -25.6270  -14.0710   20.2340 C   0  0  0  0  0  0  0  0  0  0  0  0
  -24.5400  -13.3430   20.6380 C   0  0  0  0  0  0  0  0  0  0  0  0
  -24.9510  -11.9750   20.6170 C   0  0  0  0  0  0  0  0  0  0  0  0
  -26.6350  -13.1490   19.9930 N   0  0  0  0  0  0  0  0  0  0  0  0
  -26.2300  -11.8850   20.2780 N   0  0  0  0  0  0  0  0  0  0  0  0
  -24.1850  -10.7430   20.8420 C   0  0  0  0  0  0  0  0  0  0  0  0
  -24.5990   -9.7800   21.7890 C   0  0  0  0  0  3  0  0  0  0  0  0
  -23.8370   -8.6110   22.0020 C   0  0  0  0  0  3  0  0  0  0  0  0
  -22.6470   -8.3970   21.2650 C   0  0  0  0  0  0  0  0  0  0  0  0
  -22.2520   -9.3470   20.3080 C   0  0  0  0  0  3  0  0  0  0  0  0
  -23.0150  -10.5070   20.0940 C   0  0  0  0  0  3  0  0  0  0  0  0
  -21.8570   -7.2790   21.3860 O   0  0  0  0  0  0  0  0  0  0  0  0
  -21.7830   -6.5730   22.5600 C   0  0  0  0  0  0  0  0  0  0  0  0
  -21.3940   -7.1820   23.7730 C   0  0  0  0  0  3  0  0  0  0  0  0
  -21.2640   -6.4040   24.9400 C   0  0  0  0  0  3  0  0  0  0  0  0
  -21.5120   -5.0190   24.8970 C   0  0  0  0  0  0  0  0  0  0  0  0
  -21.8950   -4.4110   23.6890 C   0  0  0  0  0  3  0  0  0  0  0  0
  -22.0260   -5.1850   22.5230 C   0  0  0  0  0  0  0  0  0  0  0  0
  -22.3740   -4.5900   21.3570 F   0  0  0  0  0  0  0  0  0  0  0  0
  -21.3800   -4.2700   26.0170 F   0  0  0  0  0  0  0  0  0  0  0  0
  -23.1670  -13.8730   20.9380 C   0  0  0  0  0  0  0  0  0  0  0  0
  -22.4410  -13.2210   21.8390 N   0  0  0  0  0  0  0  0  0  0  0  0
  -22.7490  -14.9030   20.4080 O   0  0  0  0  0  0  0  0  0  0  0  0
  -22.7910  -12.3890   22.2890 H   0  0  0  0  0  0  0  0  0  0  0  0
  -21.5210  -13.5600   22.0820 H   0  0  0  0  0  0  0  0  0  0  0  0
  -25.8380  -15.4320   20.0320 N   0  0  0  0  0  0  0  0  0  0  0  0
  -25.1020  -16.1190   20.1540 H   0  0  0  0  0  0  0  0  0  0  0  0
  -26.7030  -15.8320   19.6910 H   0  0  0  0  0  0  0  0  0  0  0  0
  2  1  1  0
  2  3  1  0
  2 53  1  0
  4  5  1  0
  5  7  1  0
  5  3  1  0
  5  6  1  6
  8  7  1  0
  8  9  1  0
  9 10  1  0
 10 11  1  0
 11 12  1  0
 12 14  1  0
 13 24  2  0
 14 19  1  0
 15 23  1  0
 15 25  1  0
 16 22  1  0
 16 18  1  0
 17 23  1  0
 18 17  1  0
 19 18  2  0
 20 21  1  0
 20 14  2  0
 21 16  2  0
 22 15  1  0
 23 13  1  0
 25 27  2  0
 26 25  1  0
 28 26  1  0
 29 38  2  0
 29 34  1  0
 30 26  1  0
 30 34  1  0
 31 30  1  0
 32 33  1  0
 32 31  1  0
 33 29  1  0
 34 35  2  0
 35 36  1  0
 37 36  2  0
 38 37  1  0
 39 13  1  0
 39 40  1  0
 39 49  1  0
 40 43  1  0
 41 45  1  0
 41 40  1  0
 42 41  2  0
 45 44  1  0
 47 45  1  0
 47 48  1  0
 47 46  1  0
 49 52  1  1
 49 50  1  0
 51 49  1  0
 53 59  1  0
 54 58  1  0
 56 54  2  0
 56 59  1  0
 57 55  1  0
 58 60  1  0
 58 55  2  0
 59 57  2  0
 60 61  1  0
 61 62  1  0
 62 63  1  0
 63 64  1  0
 64 65  1  0
 66 74  1  0
 67 72  1  0
 68 69  1  0
 68 67  1  0
 70 69  1  0
 70 79  1  0
 70 71  1  0
 72 66  1  0
 72 71  1  0
 73 66  2  0
 74 65  1  0
 74 75  1  0
 76 77  2  0
 77 96  1  0
 78 77  1  0
 78 81  1  0
 79 76  1  0
 79 80  1  0
 80 78  2  0
 81 82  1  0
 82 83  2  0
 84 87  1  0
 84 83  1  0
 85 84  2  0
 86 85  1  0
 86 81  2  0
 87 88  1  0
 88 89  1  0
 89 90  2  0
 91 90  1  0
 91 95  1  0
 92 91  2  0
 93 88  2  0
 93 92  1  0
 94 93  1  0
 96 97  1  0
 97100  1  0
 97 99  1  0
 98 96  2  0
101102  1  0
101 76  1  0
103101  1  0
M  ISO  4  11 101  12 101  66 100  74 100
M  END
>  <TORSDO>  (91) 
F 31

>  <SCORE>  (91) 
-10.711

>  <name>  (91) 
91

>  <ligand_id>  (91) 
91

>  <original_smiles>  (91) 
[H]c1c([H])c([H])c2c(c1[H])C([H])([H])C([H])([H])C([H])([H])C2([H])N([H])C(=O)C1([H])N(C(=O)C([H])(N([H])C(=O)C([H])(N([H])C([H])([H])[H])C([H])([H])[H])C(C([H])([H])[H])(C([H])([H])[H])C([H])([H])[H])C([H])([H])c2c([H])c(OC([H])([H])C([H])([H])C([H])([H])C([H])([H])C([H])([H])[N+]([H])(C([H])([H])[H])C([H])([H])C([H])(C([H])([H])[H])C([H])([H])c3c([H])c([H])c(C([H])([H])C([H])([H])C([H])([H])C([H])([H])C([H])([H])C([H])([H])N([H])C(=O)N4C([H])([H])C([H])([H])C([H])([H])C([H])(n5nc(-c6c([H])c([H])c(Oc7c([H])c([H])c(F)c([H])c7F)c([H])c6[H])c(C(=O)N([H])[H])c5N([H])[H])C4([H])[H])c([H])c3[H])c([H])c([H])c2C1([H])[H]

>  <smiles>  (91) 
[H]c1c([H])c([H])c2c(c1[H])C([H])([H])C([H])([H])C([H])([H])C2([H])N([H])C(=O)C1([H])N(C(=O)C([H])(N([H])C(=O)C([H])(N([H])C([H])([H])[H])C([H])([H])[H])C(C([H])([H])[H])(C([H])([H])[H])C([H])([H])[H])C([H])([H])c2c([H])c(OC([H])([H])C([H])([H])C([H])([H])C([H])([H])C([H])([H])[N+]([H])(C([H])([H])[H])C([H])([H])C([H])(C([H])([H])[H])C([H])([H])c3c([H])c([H])c(C([H])([H])C([H])([H])C([H])([H])C([H])([H])C([H])([H])C([H])([H])N([H])C(=O)N4C([H])([H])C([H])([H])C([H])([H])C([H])(n5nc(-c6c([H])c([H])c(Oc7c([H])c([H])c(F)c([H])c7F)c([H])c6[H])c(C(=O)N([H])[H])c5N([H])[H])C4([H])[H])c([H])c3[H])c([H])c([H])c2C1([H])[H]

$$$$
92:0:0
     RDKit          3D

 95103  0  0  1  0  0  0  0  0999 V2000
  -28.5110  -21.5480   18.0460 C   0  0  0  0  0  3  0  0  0  0  0  0
  -27.6710  -21.4760   19.1210 C   0  0  0  0  0  0  0  0  0  0  0  0
  -27.9510  -22.6180   19.9390 C   0  0  0  0  0  0  0  0  0  0  0  0
  -28.9590  -23.3250   19.3400 C   0  0  0  0  0  0  0  0  0  0  0  0
  -27.2710  -22.9990   21.2310 C   0  0  0  0  0  1  0  0  0  0  0  0
  -30.3260  -23.0800   17.2220 C   0  0  0  0  0  1  0  0  0  0  0  0
  -29.3060  -22.6700   18.1710 N   0  0  0  0  0  0  0  0  0  0  0  0
  -26.6250  -20.4080   19.3590 C   0  0  0  0  0  2  0  0  0  0  0  0
  -27.1080  -19.2260   20.2230 C   0  0  0  0  0  2  0  0  0  0  0  0
  -27.8280  -18.0920   19.4660 C   0  0  0  0  0  2  0  0  0  0  0  0
  -29.3350  -18.3140   19.2380 C   0  0  0  0  0  2  0  0  0  0  0  0
  -30.1950  -17.1190   19.6890 C   0  0  0  0  0  2  0  0  0  0  0  0
  -31.6970  -17.3580   19.4500 C   0  0  0  0  0  2  0  0  0  0  0  0
  -32.6190  -16.5870   20.4140 C   0  0  0  0  0  2  0  0  0  0  0  0
  -32.6230  -14.0880   20.4080 C   0  0  0  0  0  0  0  0  0  0  0  0
  -32.4450  -11.6460   20.6970 C   0  0  0  0  0  2  0  0  0  0  0  0
  -31.7350  -10.9670   19.5120 C   0  0  0  0  0  2  0  0  0  0  0  0
  -30.2060  -10.9900   19.6980 C   0  0  0  0  0  2  0  0  0  0  0  0
  -29.6740  -12.4010   20.0610 C   0  0  0  0  0  3  0  0  0  0  0  0
  -30.4940  -13.0100   21.2180 C   0  0  0  0  0  2  0  0  0  0  0  0
  -31.9200  -13.0100   20.8380 N   0  0  0  0  0  0  0  0  0  0  0  0
  -33.7130  -14.0090   19.8320 O   0  0  0  0  0  0  0  0  0  0  0  0
  -32.0830  -15.2680   20.7340 N   0  0  0  0  0  0  0  0  0  0  0  0
  -31.2210  -15.2350   21.2570 H   0  0  0  0  0  0  0  0  0  0  0  0
  -27.3150  -13.3940   20.3650 C   0  0  0  0  0  0  0  0  0  0  0  0
  -26.1110  -12.8160   20.6600 C   0  0  0  0  0  0  0  0  0  0  0  0
  -26.3730  -11.4210   20.8280 C   0  0  0  0  0  0  0  0  0  0  0  0
  -28.2450  -12.3650   20.3710 N   0  0  0  0  0  0  0  0  0  0  0  0
  -27.6720  -11.1790   20.7030 N   0  0  0  0  0  0  0  0  0  0  0  0
  -25.4570  -10.2950   21.0440 C   0  0  0  0  0  0  0  0  0  0  0  0
  -25.5380   -9.4870   22.2010 C   0  0  0  0  0  3  0  0  0  0  0  0
  -24.6350   -8.4210   22.3950 C   0  0  0  0  0  3  0  0  0  0  0  0
  -23.6340   -8.1540   21.4310 C   0  0  0  0  0  0  0  0  0  0  0  0
  -23.5720   -8.9460   20.2710 C   0  0  0  0  0  3  0  0  0  0  0  0
  -24.4750  -10.0040   20.0770 C   0  0  0  0  0  3  0  0  0  0  0  0
  -22.7300   -7.1230   21.5230 O   0  0  0  0  0  0  0  0  0  0  0  0
  -22.2650   -6.6800   22.7350 C   0  0  0  0  0  0  0  0  0  0  0  0
  -21.5700   -7.5310   23.6220 C   0  0  0  0  0  3  0  0  0  0  0  0
  -21.0480   -7.0160   24.8260 C   0  0  0  0  0  3  0  0  0  0  0  0
  -21.2110   -5.6550   25.1410 C   0  0  0  0  0  0  0  0  0  0  0  0
  -21.8980   -4.8050   24.2540 C   0  0  0  0  0  3  0  0  0  0  0  0
  -22.4200   -5.3170   23.0540 C   0  0  0  0  0  0  0  0  0  0  0  0
  -23.0620   -4.4890   22.1950 F   0  0  0  0  0  0  0  0  0  0  0  0
  -20.7030   -5.1580   26.2930 F   0  0  0  0  0  0  0  0  0  0  0  0
  -24.7730  -13.4980   20.6950 C   0  0  0  0  0  0  0  0  0  0  0  0
  -23.8640  -13.0230   21.5380 N   0  0  0  0  0  0  0  0  0  0  0  0
  -24.5440  -14.4910   20.0050 O   0  0  0  0  0  0  0  0  0  0  0  0
  -24.0580  -12.2220   22.1200 H   0  0  0  0  0  0  0  0  0  0  0  0
  -22.9600  -13.4690   21.6040 H   0  0  0  0  0  0  0  0  0  0  0  0
  -27.6950  -14.7010   20.0730 N   0  0  0  0  0  0  0  0  0  0  0  0
  -27.0240  -15.4590   20.0160 H   0  0  0  0  0  0  0  0  0  0  0  0
  -28.6380  -14.9840   19.8410 H   0  0  0  0  0  0  0  0  0  0  0  0
  -29.6300  -24.6020   19.7640 C   0  0  0  0  0  2  0  0  0  0  0  0
  -29.0230  -25.8660   19.1270 C   0  0  0  0  0  2  0  0  0  0  0  0
  -28.6510  -26.7840   20.1560 O   0  0  0  0  0  0  0  0  0  0  0  0
  -24.7940  -31.7220   23.4350 C   0  0  0  0  0  0  0  0  0  0  0  0
  -27.4510  -27.4620   20.1330 C   0  0  0  0  0  0  0  0  0  0  0  0
  -23.6080  -30.4660   21.6630 C   0  0  0  0  0  3  0  0  0  0  0  0
  -25.0710  -28.9920   20.1840 C   0  0  0  0  0  0  0  0  0  0  0  0
  -26.1410  -30.7880   21.5560 C   0  0  0  0  0  2  0  0  0  0  0  0
  -26.2160  -29.4600   20.8350 C   0  0  0  0  0  0  0  0  0  0  0  0
  -27.4040  -28.7000   20.8090 C   0  0  0  0  0  3  0  0  0  0  0  0
  -26.2750  -26.9850   19.5090 C   0  0  0  0  0  3  0  0  0  0  0  0
  -25.0910  -27.7490   19.5270 C   0  0  0  0  0  3  0  0  0  0  0  0
  -23.8470  -29.8780   20.2460 C   0  0  0  0  0  2  0  0  0  0  0  0
  -24.8650  -31.0020   22.2800 N   0  0  0  0  0  0  0  0  0  0  0  0
  -23.7030  -31.9800   23.9620 O   0  0  0  0  0  0  0  0  0  0  0  0
  -22.9060  -29.3970   22.5300 C   0  0  0  0  0  0  0  0  0  0  0  0
  -21.5860  -29.2440   22.3380 N   0  0  0  0  0  0  0  0  0  0  0  0
  -23.5480  -28.7090   23.3290 O   0  0  0  0  0  0  0  0  0  0  0  0
  -21.1330  -29.8490   21.6680 H   0  0  0  0  0  0  0  0  0  0  0  0
  -18.1850  -28.0560   22.6020 C   0  0  0  0  0  0  0  0  0  0  0  0
  -20.7270  -28.2760   23.0180 C   0  0  0  0  0  3  0  0  0  0  0  0
  -20.8510  -26.8760   22.3740 C   0  0  0  0  0  2  0  0  0  0  0  0
  -19.8010  -26.6160   21.2900 C   0  0  0  0  0  2  0  0  0  0  0  0
  -18.3880  -26.7420   21.8680 C   0  0  0  0  0  2  0  0  0  0  0  0
  -19.2840  -28.7820   23.1300 C   0  0  0  0  0  0  0  0  0  0  0  0
  -19.0440  -30.0150   23.7750 C   0  0  0  0  0  3  0  0  0  0  0  0
  -17.7370  -30.5220   23.8980 C   0  0  0  0  0  3  0  0  0  0  0  0
  -16.6500  -29.7920   23.3870 C   0  0  0  0  0  3  0  0  0  0  0  0
  -16.8740  -28.5610   22.7450 C   0  0  0  0  0  3  0  0  0  0  0  0
  -26.0740  -32.2790   24.1350 C   0  0  0  0  0  3  0  0  0  0  0  0
  -26.4980  -31.4470   25.4080 C   0  0  1  0  0  0  0  0  0  0  0  0
  -25.3470  -31.2270   26.4170 C   0  0  0  0  0  1  0  0  0  0  0  0
  -27.0370  -30.0590   24.9890 C   0  0  0  0  0  1  0  0  0  0  0  0
  -27.6510  -32.1670   26.1470 C   0  0  0  0  0  1  0  0  0  0  0  0
  -25.8140  -33.6790   24.4910 N   0  0  0  0  0  0  0  0  0  0  0  0
  -26.2380  -34.7350   23.7840 C   0  0  0  0  0  0  0  0  0  0  0  0
  -26.9640  -34.6280   22.7910 O   0  0  0  0  0  0  0  0  0  0  0  0
  -25.1930  -33.8400   25.2710 H   0  0  0  0  0  0  0  0  0  0  0  0
  -24.6260  -36.6190   23.3720 C   0  0  0  0  0  1  0  0  0  0  0  0
  -25.7870  -36.1320   24.2530 C   0  0  0  0  0  3  0  0  0  0  0  0
  -27.8950  -36.8870   25.2550 C   0  0  0  0  0  1  0  0  0  0  0  0
  -26.8710  -37.1360   24.2430 N   0  0  0  0  0  0  0  0  0  0  0  0
  -26.5000  -38.0710   24.3920 H   0  0  0  0  0  0  0  0  0  0  0  0
  1  7  1  0
  1  2  2  0
  2  8  1  0
  2  3  1  0
  3  5  1  0
  4 53  1  0
  4  3  2  0
  6  7  1  0
  7  4  1  0
  8  9  1  0
 10  9  1  0
 11 10  1  0
 11 12  1  0
 13 12  1  0
 13 14  1  0
 14 23  1  0
 15 23  1  0
 15 21  1  0
 16 21  1  0
 17 18  1  0
 17 16  1  0
 19 18  1  0
 19 28  1  0
 19 20  1  0
 21 20  1  0
 22 15  2  0
 23 24  1  0
 25 28  1  0
 25 26  2  0
 26 45  1  0
 26 27  1  0
 27 30  1  0
 28 29  1  0
 29 27  2  0
 30 31  1  0
 31 32  2  0
 33 36  1  0
 33 32  1  0
 34 33  2  0
 35 34  1  0
 35 30  2  0
 36 37  1  0
 37 42  2  0
 37 38  1  0
 38 39  2  0
 39 40  1  0
 40 44  1  0
 41 40  2  0
 42 41  1  0
 43 42  1  0
 45 46  1  0
 46 49  1  0
 46 48  1  0
 47 45  2  0
 50 25  1  0
 51 50  1  0
 52 50  1  0
 54 53  1  0
 54 55  1  0
 56 67  2  0
 57 55  1  0
 57 62  1  0
 58 66  1  0
 58 68  1  0
 59 65  1  0
 59 61  1  0
 60 66  1  0
 61 60  1  0
 62 61  2  0
 63 64  1  0
 63 57  2  0
 64 59  2  0
 65 58  1  0
 66 56  1  0
 68 70  2  0
 69 68  1  0
 71 69  1  0
 72 81  2  0
 72 77  1  0
 73 69  1  0
 73 77  1  0
 74 73  1  0
 75 76  1  0
 75 74  1  0
 76 72  1  0
 77 78  2  0
 78 79  1  0
 80 79  2  0
 81 80  1  0
 82 56  1  0
 82 87  1  0
 82 83  1  0
 83 86  1  1
 83 84  1  0
 85 83  1  0
 87 90  1  0
 88 92  1  0
 88 87  1  0
 89 88  2  0
 92 91  1  0
 94 92  1  0
 94 95  1  0
 94 93  1  0
M  ISO  4  15 100  23 100  54 101  55 101
M  END
>  <TORSDO>  (92) 
F 25

>  <SCORE>  (92) 
-9.033

>  <name>  (92) 
92

>  <ligand_id>  (92) 
92

>  <original_smiles>  (92) 
[H]c1c([H])c([H])c2c(c1[H])C([H])([H])C([H])([H])C([H])([H])C2([H])N([H])C(=O)C1([H])N(C(=O)C([H])(N([H])C(=O)C([H])(N([H])C([H])([H])[H])C([H])([H])[H])C(C([H])([H])[H])(C([H])([H])[H])C([H])([H])[H])C([H])([H])c2c([H])c(OC([H])([H])C([H])([H])c3c(C([H])([H])[H])c(C([H])([H])C([H])([H])C([H])([H])C([H])([H])C([H])([H])C([H])([H])C([H])([H])N([H])C(=O)N4C([H])([H])C([H])([H])C([H])([H])C([H])(n5nc(-c6c([H])c([H])c(Oc7c([H])c([H])c(F)c([H])c7F)c([H])c6[H])c(C(=O)N([H])[H])c5N([H])[H])C4([H])[H])c([H])n3C([H])([H])[H])c([H])c([H])c2C1([H])[H]

>  <smiles>  (92) 
[H]c1c([H])c([H])c2c(c1[H])C([H])([H])C([H])([H])C([H])([H])C2([H])N([H])C(=O)C1([H])N(C(=O)C([H])(N([H])C(=O)C([H])(N([H])C([H])([H])[H])C([H])([H])[H])C(C([H])([H])[H])(C([H])([H])[H])C([H])([H])[H])C([H])([H])c2c([H])c(OC([H])([H])C([H])([H])c3c(C([H])([H])[H])c(C([H])([H])C([H])([H])C([H])([H])C([H])([H])C([H])([H])C([H])([H])C([H])([H])N([H])C(=O)N4C([H])([H])C([H])([H])C([H])([H])C([H])(n5nc(-c6c([H])c([H])c(Oc7c([H])c([H])c(F)c([H])c7F)c([H])c6[H])c(C(=O)N([H])[H])c5N([H])[H])C4([H])[H])c([H])n3C([H])([H])[H])c([H])c([H])c2C1([H])[H]

$$$$
93:0:0
     RDKit          3D

 95103  0  0  1  0  0  0  0  0999 V2000
  -33.5280  -22.1210   18.9430 C   0  0  0  0  0  3  0  0  0  0  0  0
  -33.1300  -23.2390   18.1880 C   0  0  0  0  0  3  0  0  0  0  0  0
  -32.0160  -22.8040   20.7210 C   0  0  0  0  0  3  0  0  0  0  0  0
  -31.6190  -23.9440   19.9890 C   0  0  0  0  0  0  0  0  0  0  0  0
  -32.9440  -21.8820   20.1990 C   0  0  0  0  0  0  0  0  0  0  0  0
  -32.1540  -24.1380   18.6780 C   0  0  0  0  0  0  0  0  0  0  0  0
  -31.6930  -25.2360   17.7280 C   0  0  0  0  0  1  0  0  0  0  0  0
  -30.5750  -24.7980   20.6390 C   0  0  0  0  0  0  0  0  0  0  0  0
  -29.6500  -24.3130   21.3000 O   0  0  0  0  0  0  0  0  0  0  0  0
  -30.7510  -26.3190   20.5910 C   0  0  0  0  0  2  0  0  0  0  0  0
  -29.4680  -27.1170   20.8740 C   0  0  0  0  0  2  0  0  0  0  0  0
  -28.3850  -26.7650   19.9990 O   0  0  0  0  0  0  0  0  0  0  0  0
  -24.5340  -31.8640   23.2080 C   0  0  0  0  0  0  0  0  0  0  0  0
  -27.2160  -27.4950   20.0910 C   0  0  0  0  0  0  0  0  0  0  0  0
  -23.3180  -30.4660   21.5600 C   0  0  0  0  0  3  0  0  0  0  0  0
  -24.7720  -28.9340   20.1280 C   0  0  0  0  0  0  0  0  0  0  0  0
  -25.8310  -30.8450   21.3480 C   0  0  0  0  0  2  0  0  0  0  0  0
  -25.9190  -29.4750   20.7180 C   0  0  0  0  0  0  0  0  0  0  0  0
  -27.1320  -28.7640   20.7120 C   0  0  0  0  0  3  0  0  0  0  0  0
  -26.0500  -26.9570   19.5000 C   0  0  0  0  0  3  0  0  0  0  0  0
  -24.8310  -27.6660   19.5200 C   0  0  0  0  0  3  0  0  0  0  0  0
  -23.5210  -29.7800   20.1800 C   0  0  0  0  0  2  0  0  0  0  0  0
  -24.5770  -31.0750   22.0980 N   0  0  0  0  0  0  0  0  0  0  0  0
  -23.4570  -32.1350   23.7590 O   0  0  0  0  0  0  0  0  0  0  0  0
  -22.6720  -29.4470   22.5240 C   0  0  0  0  0  0  0  0  0  0  0  0
  -21.3460  -29.2720   22.4030 N   0  0  0  0  0  0  0  0  0  0  0  0
  -23.3580  -28.8130   23.3290 O   0  0  0  0  0  0  0  0  0  0  0  0
  -20.8530  -29.8290   21.7190 H   0  0  0  0  0  0  0  0  0  0  0  0
  -17.9700  -28.1000   22.9190 C   0  0  0  0  0  0  0  0  0  0  0  0
  -20.5320  -28.3350   23.1750 C   0  0  0  0  0  3  0  0  0  0  0  0
  -20.6200  -26.9100   22.5840 C   0  0  0  0  0  2  0  0  0  0  0  0
  -19.5070  -26.6050   21.5770 C   0  0  0  0  0  2  0  0  0  0  0  0
  -18.1300  -26.7540   22.2320 C   0  0  0  0  0  2  0  0  0  0  0  0
  -19.0980  -28.8490   23.3480 C   0  0  0  0  0  0  0  0  0  0  0  0
  -18.8940  -30.1090   23.9500 C   0  0  0  0  0  3  0  0  0  0  0  0
  -17.5960  -30.6200   24.1280 C   0  0  0  0  0  3  0  0  0  0  0  0
  -16.4820  -29.8700   23.7150 C   0  0  0  0  0  3  0  0  0  0  0  0
  -16.6700  -28.6110   23.1160 C   0  0  0  0  0  3  0  0  0  0  0  0
  -25.8280  -32.4870   23.8240 C   0  0  0  0  0  3  0  0  0  0  0  0
  -25.5230  -33.8790   24.1780 N   0  0  0  0  0  0  0  0  0  0  0  0
  -25.8500  -34.9410   23.4280 C   0  0  0  0  0  0  0  0  0  0  0  0
  -26.5140  -34.8520   22.3910 O   0  0  0  0  0  0  0  0  0  0  0  0
  -24.9260  -34.0240   24.9770 H   0  0  0  0  0  0  0  0  0  0  0  0
  -24.1120  -36.7310   23.1080 C   0  0  0  0  0  1  0  0  0  0  0  0
  -25.3620  -36.3220   23.9050 C   0  0  0  0  0  3  0  0  0  0  0  0
  -27.5050  -37.1930   24.7260 C   0  0  0  0  0  1  0  0  0  0  0  0
  -26.3930  -37.3780   23.7990 N   0  0  0  0  0  0  0  0  0  0  0  0
  -25.9880  -38.2950   23.9700 H   0  0  0  0  0  0  0  0  0  0  0  0
  -26.3640  -31.6930   25.0790 C   0  0  1  0  0  0  0  0  0  0  0  0
  -25.2850  -31.4310   26.1550 C   0  0  0  0  0  1  0  0  0  0  0  0
  -26.9440  -30.3250   24.6510 C   0  0  0  0  0  1  0  0  0  0  0  0
  -27.5240  -32.4750   25.7380 C   0  0  0  0  0  1  0  0  0  0  0  0
  -33.2320  -20.6030   20.9620 C   0  0  0  0  0  2  0  0  0  0  0  0
  -32.0480  -19.6290   20.8310 C   0  0  0  0  0  2  0  0  0  0  0  0
  -32.2420  -18.3170   21.6010 C   0  0  0  0  0  2  0  0  0  0  0  0
  -31.0610  -17.3520   21.3970 C   0  0  0  0  0  2  0  0  0  0  0  0
  -31.2950  -15.9830   22.0660 C   0  0  0  0  0  2  0  0  0  0  0  0
  -30.6420  -14.3520   20.3200 C   0  0  0  0  0  0  0  0  0  0  0  0
  -30.1370  -12.4000   18.9090 C   0  0  0  0  0  2  0  0  0  0  0  0
  -29.1440  -12.7430   17.7870 C   0  0  0  0  0  2  0  0  0  0  0  0
  -27.7000  -12.5630   18.2860 C   0  0  0  0  0  2  0  0  0  0  0  0
  -27.4430  -13.3090   19.6210 C   0  0  0  0  0  3  0  0  0  0  0  0
  -28.5440  -12.9930   20.6590 C   0  0  0  0  0  2  0  0  0  0  0  0
  -29.8610  -13.2740   20.0590 N   0  0  0  0  0  0  0  0  0  0  0  0
  -31.5640  -14.7150   19.5840 O   0  0  0  0  0  0  0  0  0  0  0  0
  -30.4340  -14.9420   21.5070 N   0  0  0  0  0  0  0  0  0  0  0  0
  -29.7040  -14.5620   22.0930 H   0  0  0  0  0  0  0  0  0  0  0  0
  -25.0580  -13.8730   20.4110 C   0  0  0  0  0  0  0  0  0  0  0  0
  -24.0150  -13.0810   20.8150 C   0  0  0  0  0  0  0  0  0  0  0  0
  -24.4990  -11.7380   20.7640 C   0  0  0  0  0  0  0  0  0  0  0  0
  -26.1100  -13.0110   20.1440 N   0  0  0  0  0  0  0  0  0  0  0  0
  -25.7780  -11.7220   20.4100 N   0  0  0  0  0  0  0  0  0  0  0  0
  -23.8020  -10.4620   20.9760 C   0  0  0  0  0  0  0  0  0  0  0  0
  -24.2790   -9.5010   21.8940 C   0  0  0  0  0  3  0  0  0  0  0  0
  -23.5790   -8.2910   22.0910 C   0  0  0  0  0  3  0  0  0  0  0  0
  -22.3870   -8.0340   21.3730 C   0  0  0  0  0  0  0  0  0  0  0  0
  -21.9290   -8.9850   20.4430 C   0  0  0  0  0  3  0  0  0  0  0  0
  -22.6300  -10.1860   20.2440 C   0  0  0  0  0  3  0  0  0  0  0  0
  -21.6550   -6.8770   21.4820 O   0  0  0  0  0  0  0  0  0  0  0  0
  -21.6600   -6.1290   22.6320 C   0  0  0  0  0  0  0  0  0  0  0  0
  -21.2850   -6.6750   23.8790 C   0  0  0  0  0  3  0  0  0  0  0  0
  -21.2370   -5.8530   25.0210 C   0  0  0  0  0  3  0  0  0  0  0  0
  -21.5530   -4.4850   24.9190 C   0  0  0  0  0  0  0  0  0  0  0  0
  -21.9210   -3.9380   23.6780 C   0  0  0  0  0  3  0  0  0  0  0  0
  -21.9710   -4.7570   22.5370 C   0  0  0  0  0  0  0  0  0  0  0  0
  -22.3060   -4.2200   21.3390 F   0  0  0  0  0  0  0  0  0  0  0  0
  -21.5000   -3.6940   26.0170 F   0  0  0  0  0  0  0  0  0  0  0  0
  -22.6210  -13.5330   21.1430 C   0  0  0  0  0  0  0  0  0  0  0  0
  -21.9380  -12.8220   22.0320 N   0  0  0  0  0  0  0  0  0  0  0  0
  -22.1470  -14.5540   20.6440 O   0  0  0  0  0  0  0  0  0  0  0  0
  -22.3310  -11.9940   22.4550 H   0  0  0  0  0  0  0  0  0  0  0  0
  -21.0060  -13.1100   22.2960 H   0  0  0  0  0  0  0  0  0  0  0  0
  -25.1930  -15.2470   20.2330 N   0  0  0  0  0  0  0  0  0  0  0  0
  -24.4210  -15.8910   20.3660 H   0  0  0  0  0  0  0  0  0  0  0  0
  -26.0360  -15.7030   19.9070 H   0  0  0  0  0  0  0  0  0  0  0  0
  1  5  1  0
  2  6  1  0
  2  1  2  0
  4  8  1  0
  4  3  1  0
  5  3  2  0
  5 53  1  0
  6  4  2  0
  7  6  1  0
  8  9  2  0
 10  8  1  0
 10 11  1  0
 12 14  1  0
 12 11  1  0
 13 24  2  0
 14 19  1  0
 15 23  1  0
 15 25  1  0
 16 22  1  0
 16 18  1  0
 17 23  1  0
 18 17  1  0
 19 18  2  0
 20 21  1  0
 20 14  2  0
 21 16  2  0
 22 15  1  0
 23 13  1  0
 25 27  2  0
 26 25  1  0
 28 26  1  0
 29 38  2  0
 29 34  1  0
 30 26  1  0
 30 34  1  0
 31 30  1  0
 32 33  1  0
 32 31  1  0
 33 29  1  0
 34 35  2  0
 35 36  1  0
 37 36  2  0
 38 37  1  0
 39 13  1  0
 39 40  1  0
 39 49  1  0
 40 43  1  0
 41 45  1  0
 41 40  1  0
 42 41  2  0
 45 44  1  0
 47 45  1  0
 47 48  1  0
 47 46  1  0
 49 52  1  1
 49 50  1  0
 51 49  1  0
 54 53  1  0
 54 55  1  0
 56 55  1  0
 56 57  1  0
 58 66  1  0
 59 64  1  0
 60 61  1  0
 60 59  1  0
 62 61  1  0
 62 71  1  0
 62 63  1  0
 64 58  1  0
 64 63  1  0
 65 58  2  0
 66 57  1  0
 66 67  1  0
 68 69  2  0
 69 88  1  0
 70 69  1  0
 70 73  1  0
 71 72  1  0
 71 68  1  0
 72 70  2  0
 73 74  1  0
 74 75  2  0
 76 79  1  0
 76 75  1  0
 77 76  2  0
 78 77  1  0
 78 73  2  0
 79 80  1  0
 80 81  1  0
 81 82  2  0
 83 82  1  0
 83 87  1  0
 84 83  2  0
 85 80  2  0
 85 84  1  0
 86 85  1  0
 88 89  1  0
 89 92  1  0
 89 91  1  0
 90 88  2  0
 93 94  1  0
 93 68  1  0
 95 93  1  0
M  ISO  4  11 101  12 101  58 100  66 100
M  END
>  <TORSDO>  (93) 
F 24

>  <SCORE>  (93) 
-11.798

>  <name>  (93) 
93

>  <ligand_id>  (93) 
93

>  <original_smiles>  (93) 
[H]c1c([H])c([H])c2c(c1[H])C([H])([H])C([H])([H])C([H])([H])C2([H])N([H])C(=O)C1([H])N(C(=O)C([H])(N([H])C(=O)C([H])(N([H])C([H])([H])[H])C([H])([H])[H])C(C([H])([H])[H])(C([H])([H])[H])C([H])([H])[H])C([H])([H])c2c([H])c(OC([H])([H])C([H])([H])C(=O)c3c([H])c(C([H])([H])C([H])([H])C([H])([H])C([H])([H])C([H])([H])N([H])C(=O)N4C([H])([H])C([H])([H])C([H])([H])C([H])(n5nc(-c6c([H])c([H])c(Oc7c([H])c([H])c(F)c([H])c7F)c([H])c6[H])c(C(=O)N([H])[H])c5N([H])[H])C4([H])[H])c([H])c([H])c3C([H])([H])[H])c([H])c([H])c2C1([H])[H]

>  <smiles>  (93) 
[H]c1c([H])c([H])c2c(c1[H])C([H])([H])C([H])([H])C([H])([H])C2([H])N([H])C(=O)C1([H])N(C(=O)C([H])(N([H])C(=O)C([H])(N([H])C([H])([H])[H])C([H])([H])[H])C(C([H])([H])[H])(C([H])([H])[H])C([H])([H])[H])C([H])([H])c2c([H])c(OC([H])([H])C([H])([H])C(=O)c3c([H])c(C([H])([H])C([H])([H])C([H])([H])C([H])([H])C([H])([H])N([H])C(=O)N4C([H])([H])C([H])([H])C([H])([H])C([H])(n5nc(-c6c([H])c([H])c(Oc7c([H])c([H])c(F)c([H])c7F)c([H])c6[H])c(C(=O)N([H])[H])c5N([H])[H])C4([H])[H])c([H])c([H])c3C([H])([H])[H])c([H])c([H])c2C1([H])[H]

$$$$
94:0:0
     RDKit          3D

 93102  0  0  1  0  0  0  0  0999 V2000
  -27.7920  -22.7440   16.5580 C   0  0  0  0  0  3  0  0  0  0  0  0
  -28.5120  -21.6620   17.1020 C   0  0  0  0  0  3  0  0  0  0  0  0
  -27.9640  -24.0400   17.0800 C   0  0  0  0  0  3  0  0  0  0  0  0
  -29.5820  -23.1760   18.6840 C   0  0  0  0  0  3  0  0  0  0  0  0
  -29.4140  -21.8770   18.1660 C   0  0  0  0  0  0  0  0  0  0  0  0
  -28.8580  -24.2630   18.1510 C   0  0  0  0  0  0  0  0  0  0  0  0
  -30.2530  -20.7380   18.7130 C   0  0  0  0  0  2  0  0  0  0  0  0
  -29.6360  -20.0120   19.9320 C   0  0  0  0  0  2  0  0  0  0  0  0
  -31.3030  -14.5310   20.3940 C   0  0  0  0  0  0  0  0  0  0  0  0
  -30.8830  -12.4920   19.0910 C   0  0  0  0  0  2  0  0  0  0  0  0
  -29.9300  -12.8360   17.9280 C   0  0  0  0  0  2  0  0  0  0  0  0
  -28.4550  -12.7830   18.3780 C   0  0  0  0  0  2  0  0  0  0  0  0
  -28.1890  -13.4960   19.7310 C   0  0  0  0  0  3  0  0  0  0  0  0
  -29.2560  -13.1130   20.7840 C   0  0  0  0  0  2  0  0  0  0  0  0
  -30.5720  -13.4020   20.2020 N   0  0  0  0  0  0  0  0  0  0  0  0
  -32.5020  -14.5930   20.0990 O   0  0  0  0  0  0  0  0  0  0  0  0
  -29.8450  -17.6680   18.9650 C   0  0  0  0  0  2  0  0  0  0  0  0
  -29.8000  -17.8850   21.4320 C   0  0  0  0  0  3  0  0  0  0  0  0
  -30.7280  -16.4330   19.0470 C   0  0  0  0  0  2  0  0  0  0  0  0
  -29.9230  -16.3240   21.4590 C   0  0  0  0  0  3  0  0  0  0  0  0
  -30.2150  -18.5880   20.1220 C   0  0  0  0  0  3  0  0  0  0  0  0
  -30.5640  -15.6670   20.2950 N   0  0  0  0  0  0  0  0  0  0  0  0
  -25.8090  -14.1450   20.4610 C   0  0  0  0  0  0  0  0  0  0  0  0
  -24.7250  -13.3870   20.8160 C   0  0  0  0  0  0  0  0  0  0  0  0
  -25.1590  -12.0280   20.7610 C   0  0  0  0  0  0  0  0  0  0  0  0
  -26.8350  -13.2450   20.2130 N   0  0  0  0  0  0  0  0  0  0  0  0
  -26.4470  -11.9670   20.4540 N   0  0  0  0  0  0  0  0  0  0  0  0
  -24.4070  -10.7780   20.9250 C   0  0  0  0  0  0  0  0  0  0  0  0
  -24.7500   -9.8380   21.9230 C   0  0  0  0  0  3  0  0  0  0  0  0
  -24.0010   -8.6510   22.0750 C   0  0  0  0  0  3  0  0  0  0  0  0
  -22.8990   -8.3930   21.2250 C   0  0  0  0  0  0  0  0  0  0  0  0
  -22.5770   -9.3210   20.2190 C   0  0  0  0  0  3  0  0  0  0  0  0
  -23.3250  -10.5000   20.0650 C   0  0  0  0  0  3  0  0  0  0  0  0
  -22.1300   -7.2550   21.2830 O   0  0  0  0  0  0  0  0  0  0  0  0
  -21.8660   -6.6240   22.4720 C   0  0  0  0  0  0  0  0  0  0  0  0
  -21.1530   -7.2610   23.5110 C   0  0  0  0  0  3  0  0  0  0  0  0
  -20.8440   -6.5530   24.6900 C   0  0  0  0  0  3  0  0  0  0  0  0
  -21.2360   -5.2080   24.8260 C   0  0  0  0  0  0  0  0  0  0  0  0
  -21.9410   -4.5700   23.7900 C   0  0  0  0  0  3  0  0  0  0  0  0
  -22.2520   -5.2770   22.6160 C   0  0  0  0  0  0  0  0  0  0  0  0
  -22.9120   -4.6510   21.6120 F   0  0  0  0  0  0  0  0  0  0  0  0
  -20.9320   -4.5240   25.9550 F   0  0  0  0  0  0  0  0  0  0  0  0
  -23.3380  -13.8880   21.0950 C   0  0  0  0  0  0  0  0  0  0  0  0
  -22.6000  -13.1960   21.9560 N   0  0  0  0  0  0  0  0  0  0  0  0
  -22.9170  -14.9270   20.5880 O   0  0  0  0  0  0  0  0  0  0  0  0
  -22.9560  -12.3580   22.3920 H   0  0  0  0  0  0  0  0  0  0  0  0
  -21.6680  -13.5110   22.1840 H   0  0  0  0  0  0  0  0  0  0  0  0
  -25.9990  -15.5140   20.3090 N   0  0  0  0  0  0  0  0  0  0  0  0
  -25.2420  -16.1760   20.4340 H   0  0  0  0  0  0  0  0  0  0  0  0
  -26.8560  -15.9450   19.9890 H   0  0  0  0  0  0  0  0  0  0  0  0
  -29.0360  -25.6690   18.7080 C   0  0  0  0  0  2  0  0  0  0  0  0
  -29.0480  -25.7150   20.2510 C   0  0  0  0  0  2  0  0  0  0  0  0
  -28.9310  -27.0360   20.7700 O   0  0  0  0  0  0  0  0  0  0  0  0
  -24.8140  -32.0980   23.5700 C   0  0  0  0  0  0  0  0  0  0  0  0
  -27.7050  -27.6660   20.7200 C   0  0  0  0  0  0  0  0  0  0  0  0
  -23.7170  -30.6240   21.9140 C   0  0  0  0  0  3  0  0  0  0  0  0
  -25.2680  -29.0920   20.6050 C   0  0  0  0  0  0  0  0  0  0  0  0
  -26.2390  -31.0510   21.8150 C   0  0  0  0  0  2  0  0  0  0  0  0
  -26.3870  -29.6670   21.2190 C   0  0  0  0  0  0  0  0  0  0  0  0
  -27.6060  -28.9620   21.2720 C   0  0  0  0  0  3  0  0  0  0  0  0
  -26.5520  -27.0880   20.1330 C   0  0  0  0  0  3  0  0  0  0  0  0
  -25.3440  -27.8010   20.0630 C   0  0  0  0  0  3  0  0  0  0  0  0
  -24.0050  -29.9170   20.5650 C   0  0  0  0  0  2  0  0  0  0  0  0
  -24.9390  -31.2730   22.4920 N   0  0  0  0  0  0  0  0  0  0  0  0
  -23.7040  -32.3550   24.0540 O   0  0  0  0  0  0  0  0  0  0  0  0
  -23.0520  -29.6080   22.8680 C   0  0  0  0  0  0  0  0  0  0  0  0
  -21.7600  -29.3290   22.6360 N   0  0  0  0  0  0  0  0  0  0  0  0
  -23.6960  -29.0730   23.7750 O   0  0  0  0  0  0  0  0  0  0  0  0
  -21.2990  -29.8140   21.8780 H   0  0  0  0  0  0  0  0  0  0  0  0
  -18.4460  -27.9140   22.8780 C   0  0  0  0  0  0  0  0  0  0  0  0
  -20.9380  -28.3780   23.3830 C   0  0  0  0  0  3  0  0  0  0  0  0
  -21.1980  -26.9280   22.9170 C   0  0  0  0  0  2  0  0  0  0  0  0
  -20.2320  -26.4640   21.8220 C   0  0  0  0  0  2  0  0  0  0  0  0
  -18.7840  -26.5430   22.3160 C   0  0  0  0  0  2  0  0  0  0  0  0
  -19.4590  -28.7800   23.3650 C   0  0  0  0  0  0  0  0  0  0  0  0
  -19.0950  -30.0570   23.8460 C   0  0  0  0  0  3  0  0  0  0  0  0
  -17.7500  -30.4710   23.8450 C   0  0  0  0  0  3  0  0  0  0  0  0
  -16.7490  -29.6020   23.3770 C   0  0  0  0  0  3  0  0  0  0  0  0
  -17.0970  -28.3260   22.9000 C   0  0  0  0  0  3  0  0  0  0  0  0
  -26.0560  -32.7760   24.2290 C   0  0  0  0  0  3  0  0  0  0  0  0
  -26.5170  -32.0710   25.5630 C   0  0  1  0  0  0  0  0  0  0  0  0
  -25.3540  -31.7500   26.5290 C   0  0  0  0  0  1  0  0  0  0  0  0
  -27.2530  -30.7460   25.2540 C   0  0  0  0  0  1  0  0  0  0  0  0
  -27.5270  -32.9720   26.3130 C   0  0  0  0  0  1  0  0  0  0  0  0
  -25.7110  -34.1820   24.4760 N   0  0  0  0  0  0  0  0  0  0  0  0
  -26.0730  -35.2030   23.6880 C   0  0  0  0  0  0  0  0  0  0  0  0
  -26.8050  -35.0630   22.7040 O   0  0  0  0  0  0  0  0  0  0  0  0
  -25.0700  -34.3640   25.2350 H   0  0  0  0  0  0  0  0  0  0  0  0
  -24.3440  -36.9450   23.1460 C   0  0  0  0  0  1  0  0  0  0  0  0
  -25.5380  -36.6010   24.0500 C   0  0  0  0  0  3  0  0  0  0  0  0
  -27.5940  -37.5660   24.9820 C   0  0  0  0  0  1  0  0  0  0  0  0
  -26.5590  -37.6650   23.9550 N   0  0  0  0  0  0  0  0  0  0  0  0
  -26.1310  -38.5850   24.0280 H   0  0  0  0  0  0  0  0  0  0  0  0
  1  3  2  0
  1  2  1  0
  2  5  2  0
  3  6  1  0
  5  4  1  0
  5  7  1  0
  6  4  2  0
  6 51  1  0
  7  8  1  0
 10 15  1  0
 11 12  1  0
 11 10  1  0
 13 12  1  0
 13 26  1  0
 13 14  1  0
 15  9  1  0
 15 14  1  0
 16  9  2  0
 17 19  1  0
 17 21  1  0
 18 20  2  0
 19 22  1  0
 21  8  1  0
 21 18  1  0
 22  9  1  0
 22 20  1  0
 23 24  2  0
 24 43  1  0
 25 24  1  0
 25 28  1  0
 26 27  1  0
 26 23  1  0
 27 25  2  0
 28 29  1  0
 29 30  2  0
 31 34  1  0
 31 30  1  0
 32 31  2  0
 33 32  1  0
 33 28  2  0
 34 35  1  0
 35 40  2  0
 35 36  1  0
 36 37  2  0
 37 38  1  0
 38 42  1  0
 39 38  2  0
 40 39  1  0
 41 40  1  0
 43 44  1  0
 44 47  1  0
 44 46  1  0
 45 43  2  0
 48 49  1  0
 48 23  1  0
 50 48  1  0
 51 52  1  0
 52 53  1  0
 54 65  2  0
 55 53  1  0
 55 60  1  0
 56 64  1  0
 56 66  1  0
 57 59  1  0
 58 64  1  0
 59 60  2  0
 59 58  1  0
 61 55  2  0
 62 61  1  0
 62 57  2  0
 63 57  1  0
 63 56  1  0
 64 54  1  0
 66 68  2  0
 67 66  1  0
 69 67  1  0
 70 79  2  0
 70 75  1  0
 71 67  1  0
 72 71  1  0
 73 74  1  0
 73 72  1  0
 74 70  1  0
 75 71  1  0
 75 76  2  0
 77 76  1  0
 78 77  2  0
 79 78  1  0
 80 54  1  0
 80 85  1  0
 80 81  1  0
 81 84  1  1
 81 82  1  0
 83 81  1  0
 85 88  1  0
 86 90  1  0
 86 85  1  0
 87 86  2  0
 90 89  1  0
 92 93  1  0
 92 90  1  0
 92 91  1  0
M  ISO  4   9 100  22 100  52 101  53 101
M  END
>  <TORSDO>  (94) 
F 20

>  <SCORE>  (94) 
-11.521

>  <name>  (94) 
94

>  <ligand_id>  (94) 
94

>  <original_smiles>  (94) 
[H]c1c([H])c([H])c2c(c1[H])C([H])([H])C([H])([H])C([H])([H])C2([H])N([H])C(=O)C1([H])N(C(=O)C([H])(N([H])C(=O)C([H])(N([H])C([H])([H])[H])C([H])([H])[H])C(C([H])([H])[H])(C([H])([H])[H])C([H])([H])[H])C([H])([H])c2c([H])c(OC([H])([H])C([H])([H])c3c([H])c([H])c([H])c(C([H])([H])C([H])([H])C4([H])C([H])([H])C([H])([H])N(C(=O)N5C([H])([H])C([H])([H])C([H])([H])C([H])(n6nc(-c7c([H])c([H])c(Oc8c([H])c([H])c(F)c([H])c8F)c([H])c7[H])c(C(=O)N([H])[H])c6N([H])[H])C5([H])[H])C([H])([H])C4([H])[H])c3[H])c([H])c([H])c2C1([H])[H]

>  <smiles>  (94) 
[H]c1c([H])c([H])c2c(c1[H])C([H])([H])C([H])([H])C([H])([H])C2([H])N([H])C(=O)C1([H])N(C(=O)C([H])(N([H])C(=O)C([H])(N([H])C([H])([H])[H])C([H])([H])[H])C(C([H])([H])[H])(C([H])([H])[H])C([H])([H])[H])C([H])([H])c2c([H])c(OC([H])([H])C([H])([H])c3c([H])c([H])c([H])c(C([H])([H])C([H])([H])C4([H])C([H])([H])C([H])([H])N(C(=O)N5C([H])([H])C([H])([H])C([H])([H])C([H])(n6nc(-c7c([H])c([H])c(Oc8c([H])c([H])c(F)c([H])c8F)c([H])c7[H])c(C(=O)N([H])[H])c6N([H])[H])C5([H])[H])C([H])([H])C4([H])[H])c3[H])c([H])c([H])c2C1([H])[H]

$$$$
95:0:0
     RDKit          3D

 89 96  0  0  1  0  0  0  0  0999 V2000
  -29.2100  -23.9710   20.4700 C   0  0  0  0  0  3  0  0  0  0  0  0
  -30.4890  -24.5200   20.1790 O   0  0  0  0  0  0  0  0  0  0  0  0
  -30.4650  -25.4260   20.4740 H   0  0  0  0  0  0  0  0  0  0  0  0
  -29.1580  -22.4980   19.8690 C   0  0  0  0  0  0  0  0  0  0  0  0
  -29.1300  -22.3570   18.6420 O   0  0  0  0  0  0  0  0  0  0  0  0
  -29.1840  -21.2010   20.7760 C   0  0  0  0  0  3  0  0  0  0  0  0
  -29.7830  -19.8520   20.1490 C   0  0  0  0  0  3  0  0  0  0  0  0
  -29.4480  -18.4230   20.7890 C   0  0  0  0  0  3  0  0  0  0  0  0
  -30.2980  -17.1860   20.2450 C   0  0  0  0  0  3  0  0  0  0  0  0
  -30.6230  -14.6480   20.3040 C   0  0  0  0  0  0  0  0  0  0  0  0
  -30.3510  -12.4160   19.2440 C   0  0  0  0  0  2  0  0  0  0  0  0
  -29.4110  -12.5690   18.0290 C   0  0  0  0  0  2  0  0  0  0  0  0
  -27.9370  -12.4310   18.4580 C   0  0  0  0  0  2  0  0  0  0  0  0
  -27.5940  -13.2780   19.7130 C   0  0  0  0  0  3  0  0  0  0  0  0
  -28.6590  -13.1270   20.8230 C   0  0  0  0  0  2  0  0  0  0  0  0
  -29.9650  -13.4470   20.2340 N   0  0  0  0  0  0  0  0  0  0  0  0
  -31.7860  -14.7550   19.9060 O   0  0  0  0  0  0  0  0  0  0  0  0
  -29.8940  -15.7730   20.5980 N   0  0  0  0  0  0  0  0  0  0  0  0
  -28.9440  -15.6260   20.9050 H   0  0  0  0  0  0  0  0  0  0  0  0
  -25.2030  -13.8740   20.4310 C   0  0  0  0  0  0  0  0  0  0  0  0
  -24.1390  -13.1020   20.8120 C   0  0  0  0  0  0  0  0  0  0  0  0
  -24.6030  -11.7510   20.7940 C   0  0  0  0  0  0  0  0  0  0  0  0
  -26.2480  -12.9940   20.2040 N   0  0  0  0  0  0  0  0  0  0  0  0
  -25.8930  -11.7130   20.4820 N   0  0  0  0  0  0  0  0  0  0  0  0
  -23.8790  -10.4900   20.9990 C   0  0  0  0  0  0  0  0  0  0  0  0
  -24.3220   -9.5270   21.9300 C   0  0  0  0  0  3  0  0  0  0  0  0
  -23.5990   -8.3300   22.1230 C   0  0  0  0  0  3  0  0  0  0  0  0
  -22.4170   -8.0890   21.3840 C   0  0  0  0  0  0  0  0  0  0  0  0
  -21.9920   -9.0410   20.4400 C   0  0  0  0  0  3  0  0  0  0  0  0
  -22.7160  -10.2280   20.2460 C   0  0  0  0  0  3  0  0  0  0  0  0
  -21.6620   -6.9450   21.4860 O   0  0  0  0  0  0  0  0  0  0  0  0
  -21.6380   -6.1980   22.6370 C   0  0  0  0  0  0  0  0  0  0  0  0
  -21.2500   -6.7540   23.8760 C   0  0  0  0  0  3  0  0  0  0  0  0
  -21.1710   -5.9350   25.0200 C   0  0  0  0  0  3  0  0  0  0  0  0
  -21.4720   -4.5620   24.9280 C   0  0  0  0  0  0  0  0  0  0  0  0
  -21.8520   -4.0070   23.6940 C   0  0  0  0  0  3  0  0  0  0  0  0
  -21.9330   -4.8230   22.5510 C   0  0  0  0  0  0  0  0  0  0  0  0
  -22.2800   -4.2780   21.3600 F   0  0  0  0  0  0  0  0  0  0  0  0
  -21.3890   -3.7740   26.0250 F   0  0  0  0  0  0  0  0  0  0  0  0
  -22.7420  -13.5780   21.0830 C   0  0  0  0  0  0  0  0  0  0  0  0
  -22.0180  -12.8910   21.9600 N   0  0  0  0  0  0  0  0  0  0  0  0
  -22.2980  -14.5970   20.5530 O   0  0  0  0  0  0  0  0  0  0  0  0
  -22.3920  -12.0690   22.4120 H   0  0  0  0  0  0  0  0  0  0  0  0
  -21.0800  -13.1900   22.1840 H   0  0  0  0  0  0  0  0  0  0  0  0
  -25.3640  -15.2430   20.2370 N   0  0  0  0  0  0  0  0  0  0  0  0
  -24.5940  -15.8960   20.3370 H   0  0  0  0  0  0  0  0  0  0  0  0
  -26.2040  -15.6770   19.8740 H   0  0  0  0  0  0  0  0  0  0  0  0
  -28.1860  -25.0350   19.8640 C   0  0  0  0  0  2  0  0  0  0  0  0
  -28.3230  -26.4710   20.2250 O   0  0  0  0  0  0  0  0  0  0  0  0
  -24.6090  -31.8680   23.2270 C   0  0  0  0  0  0  0  0  0  0  0  0
  -27.2000  -27.3160   20.1520 C   0  0  0  0  0  0  0  0  0  0  0  0
  -23.3910  -30.4710   21.5950 C   0  0  0  0  0  3  0  0  0  0  0  0
  -24.8320  -28.9260   20.1530 C   0  0  0  0  0  0  0  0  0  0  0  0
  -25.9270  -30.7940   21.3900 C   0  0  0  0  0  2  0  0  0  0  0  0
  -26.0030  -29.4140   20.7460 C   0  0  0  0  0  0  0  0  0  0  0  0
  -27.1870  -28.6190   20.7400 C   0  0  0  0  0  3  0  0  0  0  0  0
  -26.0090  -26.8910   19.5180 C   0  0  0  0  0  3  0  0  0  0  0  0
  -24.8370  -27.6700   19.5300 C   0  0  0  0  0  3  0  0  0  0  0  0
  -23.5950  -29.7980   20.2120 C   0  0  0  0  0  2  0  0  0  0  0  0
  -24.6620  -31.0610   22.1280 N   0  0  0  0  0  0  0  0  0  0  0  0
  -23.5290  -32.1450   23.7710 O   0  0  0  0  0  0  0  0  0  0  0  0
  -22.7370  -29.4540   22.5600 C   0  0  0  0  0  0  0  0  0  0  0  0
  -21.4100  -29.2770   22.4440 N   0  0  0  0  0  0  0  0  0  0  0  0
  -23.4220  -28.8250   23.3720 O   0  0  0  0  0  0  0  0  0  0  0  0
  -20.9160  -29.8380   21.7640 H   0  0  0  0  0  0  0  0  0  0  0  0
  -18.0350  -28.0790   22.9620 C   0  0  0  0  0  0  0  0  0  0  0  0
  -20.5950  -28.3400   23.2200 C   0  0  0  0  0  3  0  0  0  0  0  0
  -20.6950  -26.9080   22.6460 C   0  0  0  0  0  2  0  0  0  0  0  0
  -19.5880  -26.5830   21.6370 C   0  0  0  0  0  2  0  0  0  0  0  0
  -18.2090  -26.7290   22.2870 C   0  0  0  0  0  2  0  0  0  0  0  0
  -19.1550  -28.8430   23.3850 C   0  0  0  0  0  0  0  0  0  0  0  0
  -18.9390  -30.1070   23.9760 C   0  0  0  0  0  3  0  0  0  0  0  0
  -17.6350  -30.6090   24.1460 C   0  0  0  0  0  3  0  0  0  0  0  0
  -16.5300  -29.8420   23.7390 C   0  0  0  0  0  3  0  0  0  0  0  0
  -16.7300  -28.5790   23.1540 C   0  0  0  0  0  3  0  0  0  0  0  0
  -25.8980  -32.4990   23.8400 C   0  0  0  0  0  3  0  0  0  0  0  0
  -25.5890  -33.8950   24.1830 N   0  0  0  0  0  0  0  0  0  0  0  0
  -25.9100  -34.9530   23.4260 C   0  0  0  0  0  0  0  0  0  0  0  0
  -26.5690  -34.8580   22.3870 O   0  0  0  0  0  0  0  0  0  0  0  0
  -25.0060  -34.0440   24.9930 H   0  0  0  0  0  0  0  0  0  0  0  0
  -24.1750  -36.7460   23.1000 C   0  0  0  0  0  1  0  0  0  0  0  0
  -25.4250  -36.3390   23.8970 C   0  0  0  0  0  3  0  0  0  0  0  0
  -27.5690  -37.2210   24.7070 C   0  0  0  0  0  1  0  0  0  0  0  0
  -26.4550  -37.3940   23.7780 N   0  0  0  0  0  0  0  0  0  0  0  0
  -26.0490  -38.3130   23.9360 H   0  0  0  0  0  0  0  0  0  0  0  0
  -26.4270  -31.7210   25.1060 C   0  0  1  0  0  0  0  0  0  0  0  0
  -25.3460  -31.4760   26.1860 C   0  0  0  0  0  1  0  0  0  0  0  0
  -27.0070  -30.3460   24.6990 C   0  0  0  0  0  1  0  0  0  0  0  0
  -27.5850  -32.5100   25.7610 C   0  0  0  0  0  1  0  0  0  0  0  0
  1 48  1  0
  2  1  1  0
  2  3  1  0
  4  1  1  0
  4  6  1  0
  5  4  2  0
  7  6  2  0
  7  8  1  0
  9 18  1  0
  9  8  2  0
 10 18  1  0
 11 16  1  0
 12 13  1  0
 12 11  1  0
 14 13  1  0
 14 23  1  0
 14 15  1  0
 16 10  1  0
 16 15  1  0
 17 10  2  0
 18 19  1  0
 20 21  2  0
 21 40  1  0
 22 21  1  0
 22 25  1  0
 23 20  1  0
 23 24  1  0
 24 22  2  0
 25 26  1  0
 26 27  2  0
 28 31  1  0
 28 27  1  0
 29 28  2  0
 30 29  1  0
 30 25  2  0
 31 32  1  0
 32 33  1  0
 33 34  2  0
 35 34  1  0
 35 39  1  0
 36 35  2  0
 37 32  2  0
 37 36  1  0
 38 37  1  0
 40 41  1  0
 41 44  1  0
 41 43  1  0
 42 40  2  0
 45 46  1  0
 45 20  1  0
 47 45  1  0
 48 49  1  0
 50 61  2  0
 51 49  1  0
 51 56  1  0
 52 60  1  0
 52 62  1  0
 53 59  1  0
 53 55  1  0
 54 60  1  0
 55 54  1  0
 56 55  2  0
 57 58  1  0
 57 51  2  0
 58 53  2  0
 59 52  1  0
 60 50  1  0
 62 64  2  0
 63 62  1  0
 65 63  1  0
 66 75  2  0
 66 71  1  0
 67 63  1  0
 67 71  1  0
 68 67  1  0
 69 70  1  0
 69 68  1  0
 70 66  1  0
 71 72  2  0
 72 73  1  0
 74 73  2  0
 75 74  1  0
 76 50  1  0
 76 77  1  0
 76 86  1  0
 77 80  1  0
 78 82  1  0
 78 77  1  0
 79 78  2  0
 82 81  1  0
 84 82  1  0
 84 85  1  0
 84 83  1  0
 86 89  1  1
 86 87  1  0
 88 86  1  0
M  ISO  4  10 100  18 100  48 101  49 101
M  END
>  <TORSDO>  (95) 
F 23

>  <SCORE>  (95) 
-12.715

>  <name>  (95) 
95

>  <ligand_id>  (95) 
95

>  <original_smiles>  (95) 
[H]OC([H])(C(=O)C([H])([H])C([H])([H])C([H])([H])C([H])([H])N([H])C(=O)N1C([H])([H])C([H])([H])C([H])([H])C([H])(n2nc(-c3c([H])c([H])c(Oc4c([H])c([H])c(F)c([H])c4F)c([H])c3[H])c(C(=O)N([H])[H])c2N([H])[H])C1([H])[H])C([H])([H])Oc1c([H])c([H])c2c(c1[H])C([H])([H])N(C(=O)C([H])(N([H])C(=O)C([H])(N([H])C([H])([H])[H])C([H])([H])[H])C(C([H])([H])[H])(C([H])([H])[H])C([H])([H])[H])C([H])(C(=O)N([H])C1([H])c3c([H])c([H])c([H])c([H])c3C([H])([H])C([H])([H])C1([H])[H])C2([H])[H]

>  <smiles>  (95) 
[H]OC([H])(C(=O)C([H])([H])C([H])([H])C([H])([H])C([H])([H])N([H])C(=O)N1C([H])([H])C([H])([H])C([H])([H])C([H])(n2nc(-c3c([H])c([H])c(Oc4c([H])c([H])c(F)c([H])c4F)c([H])c3[H])c(C(=O)N([H])[H])c2N([H])[H])C1([H])[H])C([H])([H])Oc1c([H])c([H])c2c(c1[H])C([H])([H])N(C(=O)C([H])(N([H])C(=O)C([H])(N([H])C([H])([H])[H])C([H])([H])[H])C(C([H])([H])[H])(C([H])([H])[H])C([H])([H])[H])C([H])(C(=O)N([H])C1([H])c3c([H])c([H])c([H])c([H])c3C([H])([H])C([H])([H])C1([H])[H])C2([H])[H]

$$$$
96:0:0
     RDKit          3D

 96104  0  0  1  0  0  0  0  0999 V2000
  -24.7210  -20.9760   18.8050 C   0  0  0  0  0  3  0  0  0  0  0  0
  -25.0680  -19.6300   19.0030 C   0  0  0  0  0  3  0  0  0  0  0  0
  -25.7200  -21.9630   18.8410 C   0  0  0  0  0  3  0  0  0  0  0  0
  -26.4140  -19.2620   19.2280 C   0  0  0  0  0  0  0  0  0  0  0  0
  -27.0670  -21.6200   19.0870 C   0  0  0  0  0  0  0  0  0  0  0  0
  -27.4190  -20.2640   19.2920 C   0  0  0  0  0  0  0  0  0  0  0  0
  -26.7120  -17.8260   19.4310 C   0  0  0  0  0  0  0  0  0  0  0  0
  -25.8800  -17.0380   19.8850 O   0  0  0  0  0  0  0  0  0  0  0  0
  -28.1030  -17.3580   18.9730 C   0  0  0  0  0  2  0  0  0  0  0  0
  -28.6210  -16.1470   19.7790 C   0  0  0  0  0  2  0  0  0  0  0  0
  -30.1390  -15.9130   19.6960 C   0  0  0  0  0  2  0  0  0  0  0  0
  -31.1660  -13.8240   20.5030 C   0  0  0  0  0  0  0  0  0  0  0  0
  -31.0540  -11.3690   20.6690 C   0  0  0  0  0  2  0  0  0  0  0  0
  -30.3320  -10.7790   19.4380 C   0  0  0  0  0  2  0  0  0  0  0  0
  -28.8080  -10.7420   19.6720 C   0  0  0  0  0  2  0  0  0  0  0  0
  -28.2600  -12.1010   20.1740 C   0  0  0  0  0  3  0  0  0  0  0  0
  -29.1000  -12.6470   21.3520 C   0  0  0  0  0  2  0  0  0  0  0  0
  -30.5120  -12.7110   20.9280 N   0  0  0  0  0  0  0  0  0  0  0  0
  -32.2630  -13.8000   19.9370 O   0  0  0  0  0  0  0  0  0  0  0  0
  -30.5540  -14.9880   20.7490 N   0  0  0  0  0  0  0  0  0  0  0  0
  -30.9310  -15.4430   21.5710 H   0  0  0  0  0  0  0  0  0  0  0  0
  -25.8860  -12.9970   20.6090 C   0  0  0  0  0  0  0  0  0  0  0  0
  -24.7070  -12.3700   20.9140 C   0  0  0  0  0  0  0  0  0  0  0  0
  -25.0150  -10.9770   20.9910 C   0  0  0  0  0  0  0  0  0  0  0  0
  -26.8450  -12.0000   20.5280 N   0  0  0  0  0  0  0  0  0  0  0  0
  -26.3160  -10.7830   20.8090 N   0  0  0  0  0  0  0  0  0  0  0  0
  -24.1350   -9.8150   21.1590 C   0  0  0  0  0  0  0  0  0  0  0  0
  -24.1960   -9.0040   22.3130 C   0  0  0  0  0  3  0  0  0  0  0  0
  -23.3300   -7.8970   22.4590 C   0  0  0  0  0  3  0  0  0  0  0  0
  -22.3860   -7.5970   21.4490 C   0  0  0  0  0  0  0  0  0  0  0  0
  -22.3460   -8.3930   20.2900 C   0  0  0  0  0  3  0  0  0  0  0  0
  -23.2120   -9.4920   20.1440 C   0  0  0  0  0  3  0  0  0  0  0  0
  -21.5220   -6.5290   21.4960 O   0  0  0  0  0  0  0  0  0  0  0  0
  -20.8930   -6.1650   22.6600 C   0  0  0  0  0  0  0  0  0  0  0  0
  -20.0870   -7.0690   23.3880 C   0  0  0  0  0  3  0  0  0  0  0  0
  -19.4040   -6.6320   24.5400 C   0  0  0  0  0  3  0  0  0  0  0  0
  -19.5140   -5.2920   24.9600 C   0  0  0  0  0  0  0  0  0  0  0  0
  -20.3090   -4.3900   24.2330 C   0  0  0  0  0  3  0  0  0  0  0  0
  -20.9960   -4.8250   23.0860 C   0  0  0  0  0  0  0  0  0  0  0  0
  -21.7460   -3.9480   22.3780 F   0  0  0  0  0  0  0  0  0  0  0  0
  -18.8520   -4.8710   26.0630 F   0  0  0  0  0  0  0  0  0  0  0  0
  -23.3560  -13.0140   21.0310 C   0  0  0  0  0  0  0  0  0  0  0  0
  -22.4790  -12.4450   21.8500 N   0  0  0  0  0  0  0  0  0  0  0  0
  -23.0840  -14.0590   20.4370 O   0  0  0  0  0  0  0  0  0  0  0  0
  -22.7030  -11.5990   22.3520 H   0  0  0  0  0  0  0  0  0  0  0  0
  -21.5700  -12.8660   21.9740 H   0  0  0  0  0  0  0  0  0  0  0  0
  -26.2270  -14.3200   20.3650 N   0  0  0  0  0  0  0  0  0  0  0  0
  -25.5490  -15.0740   20.3580 H   0  0  0  0  0  0  0  0  0  0  0  0
  -27.1630  -14.6110   20.1120 H   0  0  0  0  0  0  0  0  0  0  0  0
  -28.7280  -19.9330   19.5380 O   0  0  0  0  0  0  0  0  0  0  0  0
  -29.3100  -20.6810   19.6120 H   0  0  0  0  0  0  0  0  0  0  0  0
  -28.1030  -22.7370   19.0350 C   0  0  0  0  0  2  0  0  0  0  0  0
  -28.4570  -23.0580   17.5710 C   0  0  0  0  0  2  0  0  0  0  0  0
  -29.8320  -23.7170   17.3500 C   0  0  0  0  0  2  0  0  0  0  0  0
  -29.9420  -24.4610   15.9950 C   0  0  0  0  0  2  0  0  0  0  0  0
  -29.8430  -25.8790   16.0900 O   0  0  0  0  0  0  0  0  0  0  0  0
  -24.2210  -27.0660   20.1860 C   0  0  0  0  0  0  0  0  0  0  0  0
  -28.6010  -26.4680   16.1460 C   0  0  0  0  0  0  0  0  0  0  0  0
  -23.9320  -27.6840   17.8010 C   0  0  0  0  0  3  0  0  0  0  0  0
  -26.0620  -27.6780   16.3950 C   0  0  0  0  0  0  0  0  0  0  0  0
  -26.2380  -27.7260   18.8950 C   0  0  0  0  0  2  0  0  0  0  0  0
  -26.8160  -27.3910   17.5390 C   0  0  0  0  0  0  0  0  0  0  0  0
  -28.0840  -26.7910   17.4160 C   0  0  0  0  0  3  0  0  0  0  0  0
  -27.8430  -26.7800   14.9970 C   0  0  0  0  0  3  0  0  0  0  0  0
  -26.5700  -27.3750   15.1150 C   0  0  0  0  0  3  0  0  0  0  0  0
  -24.7130  -28.3240   16.6190 C   0  0  0  0  0  2  0  0  0  0  0  0
  -24.7900  -27.4520   19.0110 N   0  0  0  0  0  0  0  0  0  0  0  0
  -22.9950  -26.9450   20.2930 O   0  0  0  0  0  0  0  0  0  0  0  0
  -23.2350  -26.3990   17.3010 C   0  0  0  0  0  0  0  0  0  0  0  0
  -22.3290  -26.5600   16.3230 N   0  0  0  0  0  0  0  0  0  0  0  0
  -23.5420  -25.2960   17.7570 O   0  0  0  0  0  0  0  0  0  0  0  0
  -22.1870  -27.4920   15.9580 H   0  0  0  0  0  0  0  0  0  0  0  0
  -20.0670  -25.8170   13.6070 C   0  0  0  0  0  0  0  0  0  0  0  0
  -21.5890  -25.4860   15.6670 C   0  0  0  0  0  3  0  0  0  0  0  0
  -22.5280  -24.6840   14.7280 C   0  0  0  0  0  2  0  0  0  0  0  0
  -22.4900  -25.1750   13.2770 C   0  0  0  0  0  2  0  0  0  0  0  0
  -21.0630  -25.0760   12.7320 C   0  0  0  0  0  2  0  0  0  0  0  0
  -20.3180  -26.0170   14.9880 C   0  0  0  0  0  0  0  0  0  0  0  0
  -19.3680  -26.7240   15.7590 C   0  0  0  0  0  3  0  0  0  0  0  0
  -18.2020  -27.2420   15.1640 C   0  0  0  0  0  3  0  0  0  0  0  0
  -17.9600  -27.0410   13.7950 C   0  0  0  0  0  3  0  0  0  0  0  0
  -18.8830  -26.3140   13.0230 C   0  0  0  0  0  3  0  0  0  0  0  0
  -25.0800  -26.7830   21.4620 C   0  0  0  0  0  3  0  0  0  0  0  0
  -25.5830  -25.2890   21.5580 C   0  0  1  0  0  0  0  0  0  0  0  0
  -24.4600  -24.2440   21.3590 C   0  0  0  0  0  1  0  0  0  0  0  0
  -26.6830  -25.0130   20.5060 C   0  0  0  0  0  1  0  0  0  0  0  0
  -26.2290  -25.0350   22.9410 C   0  0  0  0  0  1  0  0  0  0  0  0
  -24.2650  -27.1310   22.6320 N   0  0  0  0  0  0  0  0  0  0  0  0
  -24.4680  -28.2050   23.4070 C   0  0  0  0  0  0  0  0  0  0  0  0
  -25.4220  -28.9720   23.2480 O   0  0  0  0  0  0  0  0  0  0  0  0
  -23.4330  -26.5790   22.7880 H   0  0  0  0  0  0  0  0  0  0  0  0
  -22.5150  -29.6140   24.1260 C   0  0  0  0  0  1  0  0  0  0  0  0
  -23.4540  -28.4690   24.5360 C   0  0  0  0  0  3  0  0  0  0  0  0
  -24.7830  -27.6450   26.4280 C   0  0  0  0  0  1  0  0  0  0  0  0
  -24.0890  -28.7840   25.8340 N   0  0  0  0  0  0  0  0  0  0  0  0
  -23.3980  -29.1170   26.5010 H   0  0  0  0  0  0  0  0  0  0  0  0
  1  3  2  0
  1  2  1  0
  2  4  2  0
  3  5  1  0
  4  6  1  0
  4  7  1  0
  5  6  2  0
  6 50  1  0
  7  8  2  0
  9  7  1  0
  9 10  1  0
 11 10  1  0
 11 20  1  0
 12 20  1  0
 12 18  1  0
 13 18  1  0
 14 15  1  0
 14 13  1  0
 16 15  1  0
 16 25  1  0
 16 17  1  0
 18 17  1  0
 19 12  2  0
 20 21  1  0
 22 23  2  0
 23 24  1  0
 23 42  1  0
 24 27  1  0
 25 22  1  0
 25 26  1  0
 26 24  2  0
 27 28  1  0
 28 29  2  0
 30 33  1  0
 30 29  1  0
 31 30  2  0
 32 31  1  0
 32 27  2  0
 33 34  1  0
 34 39  2  0
 34 35  1  0
 35 36  2  0
 36 37  1  0
 37 41  1  0
 38 37  2  0
 39 38  1  0
 40 39  1  0
 42 43  1  0
 43 46  1  0
 43 45  1  0
 44 42  2  0
 47 22  1  0
 48 47  1  0
 49 47  1  0
 50 51  1  0
 52  5  1  0
 53 52  1  0
 54 53  1  0
 55 56  1  0
 55 54  1  0
 56 58  1  0
 57 68  2  0
 58 63  1  0
 59 69  1  0
 59 67  1  0
 60 66  1  0
 60 62  1  0
 61 67  1  0
 62 61  1  0
 63 62  2  0
 64 65  1  0
 64 58  2  0
 65 60  2  0
 66 59  1  0
 67 57  1  0
 69 71  2  0
 70 69  1  0
 72 70  1  0
 73 78  1  0
 74 70  1  0
 75 74  1  0
 76 75  1  0
 77 76  1  0
 77 73  1  0
 78 74  1  0
 78 79  2  0
 80 79  1  0
 81 80  2  0
 82 73  2  0
 82 81  1  0
 83 57  1  0
 83 84  1  0
 83 88  1  0
 84 87  1  1
 85 84  1  0
 86 84  1  0
 88 91  1  0
 88 89  1  0
 89 93  1  0
 90 89  2  0
 93 92  1  0
 93 95  1  0
 95 94  1  0
 95 96  1  0
M  ISO  4  12 100  20 100  55 101  56 101
M  END
>  <TORSDO>  (96) 
F 25

>  <SCORE>  (96) 
-6.514

>  <name>  (96) 
96

>  <ligand_id>  (96) 
96

>  <original_smiles>  (96) 
[H]Oc1c(C(=O)C([H])([H])C([H])([H])C([H])([H])N([H])C(=O)N2C([H])([H])C([H])([H])C([H])([H])C([H])(n3nc(-c4c([H])c([H])c(Oc5c([H])c([H])c(F)c([H])c5F)c([H])c4[H])c(C(=O)N([H])[H])c3N([H])[H])C2([H])[H])c([H])c([H])c([H])c1C([H])([H])C([H])([H])C([H])([H])C([H])([H])Oc1c([H])c([H])c2c(c1[H])C([H])([H])N(C(=O)C([H])(N([H])C(=O)C([H])(N([H])C([H])([H])[H])C([H])([H])[H])C(C([H])([H])[H])(C([H])([H])[H])C([H])([H])[H])C([H])(C(=O)N([H])C1([H])c3c([H])c([H])c([H])c([H])c3C([H])([H])C([H])([H])C1([H])[H])C2([H])[H]

>  <smiles>  (96) 
[H]Oc1c(C(=O)C([H])([H])C([H])([H])C([H])([H])N([H])C(=O)N2C([H])([H])C([H])([H])C([H])([H])C([H])(n3nc(-c4c([H])c([H])c(Oc5c([H])c([H])c(F)c([H])c5F)c([H])c4[H])c(C(=O)N([H])[H])c3N([H])[H])C2([H])[H])c([H])c([H])c([H])c1C([H])([H])C([H])([H])C([H])([H])C([H])([H])Oc1c([H])c([H])c2c(c1[H])C([H])([H])N(C(=O)C([H])(N([H])C(=O)C([H])(N([H])C([H])([H])[H])C([H])([H])[H])C(C([H])([H])[H])(C([H])([H])[H])C([H])([H])[H])C([H])(C(=O)N([H])C1([H])c3c([H])c([H])c([H])c([H])c3C([H])([H])C([H])([H])C1([H])[H])C2([H])[H]

$$$$
97:0:0
     RDKit          3D

 91 98  0  0  1  0  0  0  0  0999 V2000
  -28.9110  -22.9380   20.8220 C   0  0  0  0  0  3  0  0  0  0  0  0
  -28.4610  -22.8020   22.2250 N   0  0  0  0  0  4  0  0  0  0  0  0
  -27.4600  -22.7300   22.2830 H   0  0  0  0  0  0  0  0  0  0  0  0
  -28.7610  -23.5830   22.7830 H   0  0  0  0  0  0  0  0  0  0  0  0
  -28.8550  -21.9750   22.6390 H   0  0  0  0  0  0  0  0  0  0  0  0
  -28.6990  -21.5840   20.0670 C   0  0  0  0  0  2  0  0  0  0  0  0
  -29.5660  -20.3700   20.5510 C   0  0  0  0  0  2  0  0  0  0  0  0
  -29.0800  -19.0130   19.9450 C   0  0  0  0  0  2  0  0  0  0  0  0
  -30.0740  -17.8120   19.8890 C   0  0  0  0  0  2  0  0  0  0  0  0
  -30.2480  -16.9580   21.1840 C   0  0  0  0  0  2  0  0  0  0  0  0
  -30.6310  -14.5140   20.5170 C   0  0  0  0  0  0  0  0  0  0  0  0
  -30.3660  -12.3550   19.3390 C   0  0  0  0  0  2  0  0  0  0  0  0
  -29.4160  -12.5420   18.1370 C   0  0  0  0  0  2  0  0  0  0  0  0
  -27.9430  -12.3970   18.5650 C   0  0  0  0  0  2  0  0  0  0  0  0
  -27.6050  -13.2360   19.8250 C   0  0  0  0  0  3  0  0  0  0  0  0
  -28.6540  -13.0020   20.9340 C   0  0  0  0  0  2  0  0  0  0  0  0
  -29.9770  -13.3280   20.3730 N   0  0  0  0  0  0  0  0  0  0  0  0
  -31.7680  -14.7080   20.0790 O   0  0  0  0  0  0  0  0  0  0  0  0
  -29.8940  -15.5260   21.0250 N   0  0  0  0  0  0  0  0  0  0  0  0
  -28.9650  -15.2670   21.3250 H   0  0  0  0  0  0  0  0  0  0  0  0
  -25.2060  -13.8650   20.5080 C   0  0  0  0  0  0  0  0  0  0  0  0
  -24.1300  -13.0980   20.8730 C   0  0  0  0  0  0  0  0  0  0  0  0
  -24.5860  -11.7450   20.8560 C   0  0  0  0  0  0  0  0  0  0  0  0
  -26.2470  -12.9730   20.2930 N   0  0  0  0  0  0  0  0  0  0  0  0
  -25.8770  -11.6960   20.5590 N   0  0  0  0  0  0  0  0  0  0  0  0
  -23.8530  -10.4860   21.0510 C   0  0  0  0  0  0  0  0  0  0  0  0
  -24.2930   -9.5170   21.9790 C   0  0  0  0  0  3  0  0  0  0  0  0
  -23.5660   -8.3200   22.1630 C   0  0  0  0  0  3  0  0  0  0  0  0
  -22.3840   -8.0890   21.4190 C   0  0  0  0  0  0  0  0  0  0  0  0
  -21.9640   -9.0460   20.4810 C   0  0  0  0  0  3  0  0  0  0  0  0
  -22.6910  -10.2350   20.2940 C   0  0  0  0  0  3  0  0  0  0  0  0
  -21.6270   -6.9470   21.5130 O   0  0  0  0  0  0  0  0  0  0  0  0
  -21.6030   -6.1890   22.6560 C   0  0  0  0  0  0  0  0  0  0  0  0
  -21.2350   -6.7360   23.9050 C   0  0  0  0  0  3  0  0  0  0  0  0
  -21.1600   -5.9070   25.0420 C   0  0  0  0  0  3  0  0  0  0  0  0
  -21.4390   -4.5310   24.9310 C   0  0  0  0  0  0  0  0  0  0  0  0
  -21.8000   -3.9840   23.6870 C   0  0  0  0  0  3  0  0  0  0  0  0
  -21.8790   -4.8110   22.5520 C   0  0  0  0  0  0  0  0  0  0  0  0
  -22.2070   -4.2740   21.3520 F   0  0  0  0  0  0  0  0  0  0  0  0
  -21.3580   -3.7330   26.0220 F   0  0  0  0  0  0  0  0  0  0  0  0
  -22.7310  -13.5810   21.1270 C   0  0  0  0  0  0  0  0  0  0  0  0
  -21.9980  -12.8890   21.9930 N   0  0  0  0  0  0  0  0  0  0  0  0
  -22.2990  -14.6020   20.5980 O   0  0  0  0  0  0  0  0  0  0  0  0
  -22.3600  -12.0590   22.4360 H   0  0  0  0  0  0  0  0  0  0  0  0
  -21.0560  -13.1850   22.2070 H   0  0  0  0  0  0  0  0  0  0  0  0
  -25.3880  -15.2300   20.3270 N   0  0  0  0  0  0  0  0  0  0  0  0
  -24.6480  -15.9120   20.4600 H   0  0  0  0  0  0  0  0  0  0  0  0
  -26.2580  -15.6480   20.0210 H   0  0  0  0  0  0  0  0  0  0  0  0
  -28.2320  -24.1760   20.1350 C   0  0  0  0  0  2  0  0  0  0  0  0
  -28.5420  -25.5370   20.8360 C   0  0  0  0  0  2  0  0  0  0  0  0
  -28.3960  -26.7240   20.0420 O   0  0  0  0  0  0  0  0  0  0  0  0
  -24.6050  -31.8810   23.2390 C   0  0  0  0  0  0  0  0  0  0  0  0
  -27.2160  -27.4270   20.1430 C   0  0  0  0  0  0  0  0  0  0  0  0
  -23.3810  -30.4780   21.6130 C   0  0  0  0  0  3  0  0  0  0  0  0
  -24.8220  -28.9310   20.1830 C   0  0  0  0  0  0  0  0  0  0  0  0
  -25.9000  -30.8390   21.3800 C   0  0  0  0  0  2  0  0  0  0  0  0
  -25.9850  -29.4580   20.7590 C   0  0  0  0  0  0  0  0  0  0  0  0
  -27.1870  -28.7100   20.7380 C   0  0  0  0  0  3  0  0  0  0  0  0
  -26.0350  -26.9090   19.5730 C   0  0  0  0  0  3  0  0  0  0  0  0
  -24.8400  -27.6550   19.5960 C   0  0  0  0  0  3  0  0  0  0  0  0
  -23.5770  -29.7900   20.2360 C   0  0  0  0  0  2  0  0  0  0  0  0
  -24.6500  -31.0790   22.1370 N   0  0  0  0  0  0  0  0  0  0  0  0
  -23.5290  -32.1550   23.7890 O   0  0  0  0  0  0  0  0  0  0  0  0
  -22.7380  -29.4620   22.5810 C   0  0  0  0  0  0  0  0  0  0  0  0
  -21.4140  -29.2780   22.4610 N   0  0  0  0  0  0  0  0  0  0  0  0
  -23.4260  -28.8380   23.3920 O   0  0  0  0  0  0  0  0  0  0  0  0
  -20.9230  -29.8310   21.7710 H   0  0  0  0  0  0  0  0  0  0  0  0
  -18.0420  -28.0770   22.9710 C   0  0  0  0  0  0  0  0  0  0  0  0
  -20.6010  -28.3440   23.2370 C   0  0  0  0  0  3  0  0  0  0  0  0
  -20.7080  -26.9140   22.6600 C   0  0  0  0  0  2  0  0  0  0  0  0
  -19.6050  -26.5870   21.6490 C   0  0  0  0  0  2  0  0  0  0  0  0
  -18.2220  -26.7280   22.2930 C   0  0  0  0  0  2  0  0  0  0  0  0
  -19.1600  -28.8430   23.3960 C   0  0  0  0  0  0  0  0  0  0  0  0
  -18.9410  -30.1070   23.9840 C   0  0  0  0  0  3  0  0  0  0  0  0
  -17.6380  -30.6100   24.1470 C   0  0  0  0  0  3  0  0  0  0  0  0
  -16.5330  -29.8420   23.7390 C   0  0  0  0  0  3  0  0  0  0  0  0
  -16.7370  -28.5760   23.1610 C   0  0  0  0  0  3  0  0  0  0  0  0
  -25.8980  -32.5090   23.8480 C   0  0  0  0  0  3  0  0  0  0  0  0
  -26.4380  -31.7230   25.1070 C   0  0  1  0  0  0  0  0  0  0  0  0
  -25.3580  -31.4620   26.1830 C   0  0  0  0  0  1  0  0  0  0  0  0
  -27.0260  -30.3540   24.6860 C   0  0  0  0  0  1  0  0  0  0  0  0
  -27.5980  -32.5140   25.7590 C   0  0  0  0  0  1  0  0  0  0  0  0
  -25.5870  -33.9020   24.1940 N   0  0  0  0  0  0  0  0  0  0  0  0
  -25.9090  -34.9630   23.4420 C   0  0  0  0  0  0  0  0  0  0  0  0
  -26.5700  -34.8720   22.4040 O   0  0  0  0  0  0  0  0  0  0  0  0
  -24.9860  -34.0450   24.9920 H   0  0  0  0  0  0  0  0  0  0  0  0
  -24.1670  -36.7560   23.1250 C   0  0  0  0  0  1  0  0  0  0  0  0
  -25.4200  -36.3450   23.9150 C   0  0  0  0  0  3  0  0  0  0  0  0
  -27.5630  -37.2310   24.7190 C   0  0  0  0  0  1  0  0  0  0  0  0
  -26.4470  -37.4010   23.7930 N   0  0  0  0  0  0  0  0  0  0  0  0
  -26.0400  -38.3170   23.9560 H   0  0  0  0  0  0  0  0  0  0  0  0
  1  6  1  0
  1  2  1  0
  2  3  1  0
  2  5  1  0
  2  4  1  0
  6  7  1  0
  8  7  1  0
  9  8  1  0
  9 10  1  0
 11 19  1  0
 12 17  1  0
 13 14  1  0
 13 12  1  0
 15 14  1  0
 15 24  1  0
 15 16  1  0
 17 11  1  0
 17 16  1  0
 18 11  2  0
 19 10  1  0
 19 20  1  0
 21 22  2  0
 22 41  1  0
 23 22  1  0
 23 26  1  0
 24 21  1  0
 24 25  1  0
 25 23  2  0
 26 27  1  0
 27 28  2  0
 29 32  1  0
 29 28  1  0
 30 29  2  0
 31 30  1  0
 31 26  2  0
 32 33  1  0
 33 34  1  0
 34 35  2  0
 36 35  1  0
 36 40  1  0
 37 36  2  0
 38 33  2  0
 38 37  1  0
 39 38  1  0
 41 42  1  0
 42 45  1  0
 42 44  1  0
 43 41  2  0
 46 47  1  0
 46 21  1  0
 48 46  1  0
 49  1  1  0
 49 50  1  0
 51 53  1  0
 51 50  1  0
 52 63  2  0
 53 58  1  0
 54 62  1  0
 54 64  1  0
 55 61  1  0
 55 57  1  0
 56 62  1  0
 57 56  1  0
 58 57  2  0
 59 60  1  0
 59 53  2  0
 60 55  2  0
 61 54  1  0
 62 52  1  0
 64 66  2  0
 65 64  1  0
 67 65  1  0
 68 77  2  0
 68 73  1  0
 69 65  1  0
 69 73  1  0
 70 69  1  0
 71 72  1  0
 71 70  1  0
 72 68  1  0
 73 74  2  0
 74 75  1  0
 76 75  2  0
 77 76  1  0
 78 52  1  0
 78 83  1  0
 78 79  1  0
 79 82  1  1
 79 80  1  0
 81 79  1  0
 83 86  1  0
 84 88  1  0
 84 83  1  0
 85 84  2  0
 88 87  1  0
 90 88  1  0
 90 91  1  0
 90 89  1  0
M  ISO  4  11 100  19 100  50 101  51 101
M  END
>  <TORSDO>  (97) 
F 24

>  <SCORE>  (97) 
-12.688

>  <name>  (97) 
97

>  <ligand_id>  (97) 
97

>  <original_smiles>  (97) 
[H]c1c([H])c([H])c2c(c1[H])C([H])([H])C([H])([H])C([H])([H])C2([H])N([H])C(=O)C1([H])N(C(=O)C([H])(N([H])C(=O)C([H])(N([H])C([H])([H])[H])C([H])([H])[H])C(C([H])([H])[H])(C([H])([H])[H])C([H])([H])[H])C([H])([H])c2c([H])c(OC([H])([H])C([H])([H])C([H])(C([H])([H])C([H])([H])C([H])([H])C([H])([H])C([H])([H])N([H])C(=O)N3C([H])([H])C([H])([H])C([H])([H])C([H])(n4nc(-c5c([H])c([H])c(Oc6c([H])c([H])c(F)c([H])c6F)c([H])c5[H])c(C(=O)N([H])[H])c4N([H])[H])C3([H])[H])[N+]([H])([H])[H])c([H])c([H])c2C1([H])[H]

>  <smiles>  (97) 
[H]c1c([H])c([H])c2c(c1[H])C([H])([H])C([H])([H])C([H])([H])C2([H])N([H])C(=O)C1([H])N(C(=O)C([H])(N([H])C(=O)C([H])(N([H])C([H])([H])[H])C([H])([H])[H])C(C([H])([H])[H])(C([H])([H])[H])C([H])([H])[H])C([H])([H])c2c([H])c(OC([H])([H])C([H])([H])C([H])(C([H])([H])C([H])([H])C([H])([H])C([H])([H])C([H])([H])N([H])C(=O)N3C([H])([H])C([H])([H])C([H])([H])C([H])(n4nc(-c5c([H])c([H])c(Oc6c([H])c([H])c(F)c([H])c6F)c([H])c5[H])c(C(=O)N([H])[H])c4N([H])[H])C3([H])[H])[N+]([H])([H])[H])c([H])c([H])c2C1([H])[H]

$$$$
98:0:0
     RDKit          3D

 93102  0  0  1  0  0  0  0  0999 V2000
  -29.5300  -20.1830   22.9590 C   0  0  0  0  0  3  0  0  0  0  0  0
  -30.8400  -19.7160   23.1550 C   0  0  0  0  0  3  0  0  0  0  0  0
  -28.8590  -19.9060   21.7490 C   0  0  0  0  0  3  0  0  0  0  0  0
  -31.3600  -18.8000   22.2220 C   0  0  0  0  0  0  0  0  0  0  0  0
  -30.6660  -18.4490   21.0500 C   0  0  0  0  0  0  0  0  0  0  0  0
  -29.5780  -19.3180   20.6840 C   0  0  0  0  0  0  0  0  0  0  0  0
  -32.4290  -17.8260   22.5890 C   0  0  0  0  0  2  0  0  0  0  0  0
  -31.8930  -16.5170   22.0070 C   0  0  0  0  0  2  0  0  0  0  0  0
  -30.7090  -16.8770   21.0500 C   0  0  0  0  0  3  0  0  0  0  0  0
  -31.3840  -14.9260   19.5690 C   0  0  0  0  0  0  0  0  0  0  0  0
  -30.9960  -12.6730   18.6190 C   0  0  0  0  0  2  0  0  0  0  0  0
  -29.9470  -12.7680   17.4940 C   0  0  0  0  0  2  0  0  0  0  0  0
  -28.5230  -12.6340   18.0660 C   0  0  0  0  0  2  0  0  0  0  0  0
  -28.2890  -13.5380   19.3070 C   0  0  0  0  0  3  0  0  0  0  0  0
  -29.4550  -13.4480   20.3170 C   0  0  0  0  0  2  0  0  0  0  0  0
  -30.6940  -13.7420   19.5900 N   0  0  0  0  0  0  0  0  0  0  0  0
  -32.4940  -15.0110   19.0450 O   0  0  0  0  0  0  0  0  0  0  0  0
  -30.7020  -16.0850   19.7930 N   0  0  0  0  0  0  0  0  0  0  0  0
  -30.8630  -16.7180   19.0260 H   0  0  0  0  0  0  0  0  0  0  0  0
  -26.0290  -14.1490   20.3620 C   0  0  0  0  0  0  0  0  0  0  0  0
  -24.9800  -13.3830   20.7930 C   0  0  0  0  0  0  0  0  0  0  0  0
  -25.3740  -12.0250   20.5950 C   0  0  0  0  0  0  0  0  0  0  0  0
  -26.9980  -13.2590   19.9330 N   0  0  0  0  0  0  0  0  0  0  0  0
  -26.6180  -11.9690   20.1300 N   0  0  0  0  0  0  0  0  0  0  0  0
  -24.6200  -10.7750   20.7640 C   0  0  0  0  0  0  0  0  0  0  0  0
  -25.0260   -9.7850   21.6860 C   0  0  0  0  0  3  0  0  0  0  0  0
  -24.2730   -8.6020   21.8440 C   0  0  0  0  0  3  0  0  0  0  0  0
  -23.0990   -8.4010   21.0810 C   0  0  0  0  0  0  0  0  0  0  0  0
  -22.7110   -9.3790   20.1470 C   0  0  0  0  0  3  0  0  0  0  0  0
  -23.4660  -10.5540   19.9860 C   0  0  0  0  0  3  0  0  0  0  0  0
  -22.3170   -7.2730   21.1500 O   0  0  0  0  0  0  0  0  0  0  0  0
  -22.1100   -6.6130   22.3340 C   0  0  0  0  0  0  0  0  0  0  0  0
  -21.5310   -7.2500   23.4530 C   0  0  0  0  0  3  0  0  0  0  0  0
  -21.2730   -6.5150   24.6270 C   0  0  0  0  0  3  0  0  0  0  0  0
  -21.5840   -5.1430   24.6820 C   0  0  0  0  0  0  0  0  0  0  0  0
  -22.1550   -4.5050   23.5680 C   0  0  0  0  0  3  0  0  0  0  0  0
  -22.4150   -5.2370   22.3960 C   0  0  0  0  0  0  0  0  0  0  0  0
  -22.9460   -4.6130   21.3180 F   0  0  0  0  0  0  0  0  0  0  0  0
  -21.3280   -4.4340   25.8070 F   0  0  0  0  0  0  0  0  0  0  0  0
  -23.6450  -13.8820   21.2700 C   0  0  0  0  0  0  0  0  0  0  0  0
  -23.0110  -13.1550   22.1830 N   0  0  0  0  0  0  0  0  0  0  0  0
  -23.1830  -14.9510   20.8720 O   0  0  0  0  0  0  0  0  0  0  0  0
  -23.4000  -12.2900   22.5270 H   0  0  0  0  0  0  0  0  0  0  0  0
  -22.1210  -13.4680   22.5430 H   0  0  0  0  0  0  0  0  0  0  0  0
  -26.2330  -15.5240   20.2770 N   0  0  0  0  0  0  0  0  0  0  0  0
  -25.5240  -16.1990   20.5360 H   0  0  0  0  0  0  0  0  0  0  0  0
  -27.0770  -15.9540   19.9160 H   0  0  0  0  0  0  0  0  0  0  0  0
  -29.6650  -20.2880   19.4600 C   0  0  0  0  0  2  0  0  0  0  0  0
  -29.6440  -21.8420   19.8460 C   0  0  0  0  0  2  0  0  0  0  0  0
  -29.5330  -22.9890   18.7710 C   0  0  0  0  0  2  0  0  0  0  0  0
  -29.2560  -24.4240   19.3870 C   0  0  0  0  0  3  0  0  0  0  0  0
  -29.1580  -25.6600   18.4210 C   0  0  0  0  0  3  0  0  0  0  0  0
  -28.9800  -26.9630   19.0700 O   0  0  0  0  0  0  0  0  0  0  0  0
  -24.7900  -31.3880   22.8870 C   0  0  0  0  0  0  0  0  0  0  0  0
  -27.7300  -27.5690   19.2020 C   0  0  0  0  0  0  0  0  0  0  0  0
  -23.6620  -30.0500   21.1430 C   0  0  0  0  0  3  0  0  0  0  0  0
  -25.1950  -28.8420   19.4980 C   0  0  0  0  0  0  0  0  0  0  0  0
  -26.1340  -30.6850   20.8960 C   0  0  0  0  0  2  0  0  0  0  0  0
  -26.3280  -29.4080   20.0940 C   0  0  0  0  0  0  0  0  0  0  0  0
  -27.5940  -28.7810   19.9430 C   0  0  0  0  0  3  0  0  0  0  0  0
  -26.5590  -27.0210   18.6300 C   0  0  0  0  0  3  0  0  0  0  0  0
  -25.3090  -27.6520   18.7660 C   0  0  0  0  0  3  0  0  0  0  0  0
  -23.8750  -29.5530   19.6890 C   0  0  0  0  0  2  0  0  0  0  0  0
  -24.8820  -30.7200   21.7010 N   0  0  0  0  0  0  0  0  0  0  0  0
  -23.7120  -31.4770   23.4920 O   0  0  0  0  0  0  0  0  0  0  0  0
  -23.1620  -28.8690   22.0090 C   0  0  0  0  0  0  0  0  0  0  0  0
  -21.8680  -28.5290   21.8830 N   0  0  0  0  0  0  0  0  0  0  0  0
  -23.9400  -28.2570   22.7460 O   0  0  0  0  0  0  0  0  0  0  0  0
  -21.2940  -29.0700   21.2500 H   0  0  0  0  0  0  0  0  0  0  0  0
  -18.7060  -26.8330   22.2880 C   0  0  0  0  0  0  0  0  0  0  0  0
  -21.2060  -27.4200   22.5700 C   0  0  0  0  0  3  0  0  0  0  0  0
  -21.4970  -26.0750   21.8620 C   0  0  0  0  0  2  0  0  0  0  0  0
  -20.4350  -25.7100   20.8210 C   0  0  0  0  0  2  0  0  0  0  0  0
  -19.0600  -25.5900   21.4860 C   0  0  0  0  0  2  0  0  0  0  0  0
  -19.7140  -27.7000   22.7830 C   0  0  0  0  0  0  0  0  0  0  0  0
  -19.3300  -28.8610   23.4910 C   0  0  0  0  0  3  0  0  0  0  0  0
  -17.9700  -29.1550   23.7150 C   0  0  0  0  0  3  0  0  0  0  0  0
  -16.9780  -28.2880   23.2270 C   0  0  0  0  0  3  0  0  0  0  0  0
  -17.3470  -27.1280   22.5200 C   0  0  0  0  0  3  0  0  0  0  0  0
  -26.0280  -32.0940   23.5250 C   0  0  0  0  0  3  0  0  0  0  0  0
  -25.6090  -33.4410   23.9340 N   0  0  0  0  0  0  0  0  0  0  0  0
  -25.8510  -34.5580   23.2360 C   0  0  0  0  0  0  0  0  0  0  0  0
  -26.5210  -34.5680   22.2000 O   0  0  0  0  0  0  0  0  0  0  0  0
  -25.0120  -33.5040   24.7460 H   0  0  0  0  0  0  0  0  0  0  0  0
  -23.9900  -36.2300   22.9770 C   0  0  0  0  0  1  0  0  0  0  0  0
  -25.2580  -35.8730   23.7710 C   0  0  0  0  0  3  0  0  0  0  0  0
  -27.3130  -36.8730   24.6680 C   0  0  0  0  0  1  0  0  0  0  0  0
  -26.2050  -37.0090   23.7270 N   0  0  0  0  0  0  0  0  0  0  0  0
  -25.7270  -37.8840   23.9260 H   0  0  0  0  0  0  0  0  0  0  0  0
  -26.6260  -31.3020   24.7510 C   0  0  1  0  0  0  0  0  0  0  0  0
  -25.5720  -30.8960   25.8080 C   0  0  0  0  0  1  0  0  0  0  0  0
  -27.3390  -30.0120   24.2770 C   0  0  0  0  0  1  0  0  0  0  0  0
  -27.6980  -32.1640   25.4600 C   0  0  0  0  0  1  0  0  0  0  0  0
  1  2  1  0
  3  1  2  0
  4  7  1  0
  4  2  2  0
  5  4  1  0
  6  5  2  3
  6  3  1  0
  8  7  1  0
  9 18  1  0
  9  5  1  0
  9  8  1  0
 10 16  1  0
 10 18  1  0
 11 16  1  0
 12 13  1  0
 12 11  1  0
 14 13  1  0
 14 23  1  0
 14 15  1  0
 16 15  1  0
 17 10  2  0
 19 18  1  0
 20 21  2  0
 21 40  1  0
 22 25  1  0
 22 21  1  0
 23 24  1  0
 23 20  1  0
 24 22  2  0
 25 26  1  0
 26 27  2  0
 28 31  1  0
 28 27  1  0
 29 28  2  0
 30 29  1  0
 30 25  2  0
 31 32  1  0
 32 37  2  0
 32 33  1  0
 33 34  2  0
 34 35  1  0
 35 39  1  0
 36 35  2  0
 37 36  1  0
 38 37  1  0
 40 41  1  0
 41 43  1  0
 41 44  1  0
 42 40  2  0
 45 20  1  0
 45 46  1  0
 47 45  1  0
 48 49  1  0
 48  6  1  0
 50 51  1  0
 50 49  1  0
 52 53  1  0
 52 51  2  0
 53 55  1  0
 54 65  2  0
 55 60  1  0
 56 64  1  0
 56 66  1  0
 57 63  1  0
 57 59  1  0
 58 64  1  0
 59 58  1  0
 60 59  2  0
 61 62  1  0
 61 55  2  0
 62 57  2  0
 63 56  1  0
 64 54  1  0
 66 68  2  0
 67 66  1  0
 69 67  1  0
 70 79  2  0
 70 75  1  0
 71 67  1  0
 71 75  1  0
 72 71  1  0
 73 74  1  0
 73 72  1  0
 74 70  1  0
 75 76  2  0
 76 77  1  0
 78 77  2  0
 79 78  1  0
 80 54  1  0
 80 81  1  0
 80 90  1  0
 81 84  1  0
 82 86  1  0
 82 81  1  0
 83 82  2  0
 86 85  1  0
 88 86  1  0
 88 89  1  0
 88 87  1  0
 90 93  1  1
 90 91  1  0
 92 90  1  0
M  ISO  4  10 100  18 100  52 101  53 101
M  END
>  <TORSDO>  (98) 
F 21

>  <SCORE>  (98) 
-4.720

>  <name>  (98) 
98

>  <ligand_id>  (98) 
98

>  <original_smiles>  (98) 
[H]c1c([H])c([H])c2c(c1[H])C([H])([H])C([H])([H])C([H])([H])C2([H])N([H])C(=O)C1([H])N(C(=O)C([H])(N([H])C(=O)C([H])(N([H])C([H])([H])[H])C([H])([H])[H])C(C([H])([H])[H])(C([H])([H])[H])C([H])([H])[H])C([H])([H])c2c([H])c(OC([H])([H])C([H])([H])C([H])([H])C([H])([H])C([H])([H])c3c([H])c([H])c([H])c4c3C([H])(N([H])C(=O)N3C([H])([H])C([H])([H])C([H])([H])C([H])(n5nc(-c6c([H])c([H])c(Oc7c([H])c([H])c(F)c([H])c7F)c([H])c6[H])c(C(=O)N([H])[H])c5N([H])[H])C3([H])[H])C([H])([H])C4([H])[H])c([H])c([H])c2C1([H])[H]

>  <smiles>  (98) 
[H]c1c([H])c([H])c2c(c1[H])C([H])([H])C([H])([H])C([H])([H])C2([H])N([H])C(=O)C1([H])N(C(=O)C([H])(N([H])C(=O)C([H])(N([H])C([H])([H])[H])C([H])([H])[H])C(C([H])([H])[H])(C([H])([H])[H])C([H])([H])[H])C([H])([H])c2c([H])c(OC([H])([H])C([H])([H])C([H])([H])C([H])([H])C([H])([H])c3c([H])c([H])c([H])c4c3C([H])(N([H])C(=O)N3C([H])([H])C([H])([H])C([H])([H])C([H])(n5nc(-c6c([H])c([H])c(Oc7c([H])c([H])c(F)c([H])c7F)c([H])c6[H])c(C(=O)N([H])[H])c5N([H])[H])C3([H])[H])C([H])([H])C4([H])[H])c([H])c([H])c2C1([H])[H]

$$$$
99:0:0
     RDKit          3D

 92 99  0  0  1  0  0  0  0  0999 V2000
  -26.3120  -21.0880   19.3740 C   0  0  0  0  0  0  0  0  0  0  0  0
  -26.8620  -20.7040   20.4100 O   0  0  0  0  0  0  0  0  0  0  0  0
  -25.6190  -22.4470   19.3190 C   0  0  0  0  0  2  0  0  0  0  0  0
  -26.4100  -23.5530   20.0340 C   0  0  0  0  0  2  0  0  0  0  0  0
  -27.6930  -23.9540   19.2910 C   0  0  0  0  0  2  0  0  0  0  0  0
  -28.4990  -24.9990   20.0730 C   0  0  0  0  0  2  0  0  0  0  0  0
  -29.1290  -26.0740   19.1690 C   0  0  0  0  0  2  0  0  0  0  0  0
  -28.9590  -27.3530   19.7670 O   0  0  0  0  0  0  0  0  0  0  0  0
  -24.6730  -31.7430   23.3130 C   0  0  0  0  0  0  0  0  0  0  0  0
  -27.6960  -27.9070   19.8160 C   0  0  0  0  0  0  0  0  0  0  0  0
  -23.5930  -30.4430   21.5060 C   0  0  0  0  0  3  0  0  0  0  0  0
  -25.1760  -29.1800   19.9660 C   0  0  0  0  0  0  0  0  0  0  0  0
  -26.0840  -31.0140   21.4020 C   0  0  0  0  0  2  0  0  0  0  0  0
  -26.2820  -29.7350   20.6190 C   0  0  0  0  0  0  0  0  0  0  0  0
  -27.5420  -29.1060   20.5420 C   0  0  0  0  0  3  0  0  0  0  0  0
  -26.5600  -27.3460   19.1790 C   0  0  0  0  0  3  0  0  0  0  0  0
  -25.3050  -27.9770   19.2550 C   0  0  0  0  0  3  0  0  0  0  0  0
  -23.8730  -29.9360   20.0680 C   0  0  0  0  0  2  0  0  0  0  0  0
  -24.7980  -31.0760   22.1330 N   0  0  0  0  0  0  0  0  0  0  0  0
  -23.5700  -31.8740   23.8610 O   0  0  0  0  0  0  0  0  0  0  0  0
  -23.0110  -29.2780   22.3370 C   0  0  0  0  0  0  0  0  0  0  0  0
  -21.7120  -28.9960   22.1430 N   0  0  0  0  0  0  0  0  0  0  0  0
  -23.7240  -28.6340   23.1120 O   0  0  0  0  0  0  0  0  0  0  0  0
  -21.1910  -29.5710   21.4950 H   0  0  0  0  0  0  0  0  0  0  0  0
  -18.4460  -27.4820   22.3920 C   0  0  0  0  0  0  0  0  0  0  0  0
  -20.9600  -27.9240   22.7930 C   0  0  0  0  0  3  0  0  0  0  0  0
  -21.2070  -26.5690   22.0910 C   0  0  0  0  0  2  0  0  0  0  0  0
  -20.1720  -26.2560   21.0060 C   0  0  0  0  0  2  0  0  0  0  0  0
  -18.7620  -26.2230   21.6030 C   0  0  0  0  0  2  0  0  0  0  0  0
  -19.4790  -28.2890   22.9370 C   0  0  0  0  0  0  0  0  0  0  0  0
  -19.1320  -29.4690   23.6300 C   0  0  0  0  0  3  0  0  0  0  0  0
  -17.7850  -29.8440   23.7840 C   0  0  0  0  0  3  0  0  0  0  0  0
  -16.7650  -29.0330   23.2570 C   0  0  0  0  0  3  0  0  0  0  0  0
  -17.0970  -27.8540   22.5670 C   0  0  0  0  0  3  0  0  0  0  0  0
  -25.9050  -32.3900   24.0190 C   0  0  0  0  0  3  0  0  0  0  0  0
  -26.3610  -31.6140   25.3170 C   0  0  1  0  0  0  0  0  0  0  0  0
  -25.2050  -31.3180   26.2980 C   0  0  0  0  0  1  0  0  0  0  0  0
  -27.0210  -30.2670   24.9410 C   0  0  0  0  0  1  0  0  0  0  0  0
  -27.4320  -32.4370   26.0700 C   0  0  0  0  0  1  0  0  0  0  0  0
  -25.5520  -33.7790   24.3340 N   0  0  0  0  0  0  0  0  0  0  0  0
  -25.9110  -34.8400   23.5990 C   0  0  0  0  0  0  0  0  0  0  0  0
  -26.6470  -34.7550   22.6110 O   0  0  0  0  0  0  0  0  0  0  0  0
  -24.9060  -33.9210   25.0960 H   0  0  0  0  0  0  0  0  0  0  0  0
  -24.1660  -36.5900   23.1510 C   0  0  0  0  0  1  0  0  0  0  0  0
  -25.3690  -36.2140   24.0300 C   0  0  0  0  0  3  0  0  0  0  0  0
  -27.4220  -37.1570   24.9870 C   0  0  0  0  0  1  0  0  0  0  0  0
  -26.3800  -37.2910   23.9740 N   0  0  0  0  0  0  0  0  0  0  0  0
  -25.9410  -38.2010   24.0860 H   0  0  0  0  0  0  0  0  0  0  0  0
  -26.2920  -20.2360   18.0980 C   0  0  0  0  0  2  0  0  0  0  0  0
  -27.0480  -18.8970   18.2350 C   0  0  0  0  0  2  0  0  0  0  0  0
  -28.5720  -19.0440   18.4360 C   0  0  0  0  0  2  0  0  0  0  0  0
  -29.1350  -18.0320   19.4410 C   0  0  0  0  0  2  0  0  0  0  0  0
  -30.6420  -18.2270   19.7030 C   0  0  0  0  0  2  0  0  0  0  0  0
  -31.1610  -17.4620   20.9360 C   0  0  0  0  0  2  0  0  0  0  0  0
  -31.4940  -15.0520   20.3500 C   0  0  0  0  0  0  0  0  0  0  0  0
  -31.2630  -12.7680   19.4510 C   0  0  0  0  0  2  0  0  0  0  0  0
  -30.3620  -12.7960   18.1980 C   0  0  0  0  0  2  0  0  0  0  0  0
  -28.8720  -12.7020   18.5830 C   0  0  0  0  0  2  0  0  0  0  0  0
  -28.4830  -13.7090   19.6980 C   0  0  0  0  0  3  0  0  0  0  0  0
  -29.4850  -13.6240   20.8690 C   0  0  0  0  0  2  0  0  0  0  0  0
  -30.8390  -13.8620   20.3340 N   0  0  0  0  0  0  0  0  0  0  0  0
  -32.5980  -15.2340   19.8300 O   0  0  0  0  0  0  0  0  0  0  0  0
  -30.7950  -16.0500   20.9040 N   0  0  0  0  0  0  0  0  0  0  0  0
  -29.8890  -15.8060   21.2770 H   0  0  0  0  0  0  0  0  0  0  0  0
  -26.1150  -14.4380   20.4090 C   0  0  0  0  0  0  0  0  0  0  0  0
  -25.0040  -13.7140   20.7440 C   0  0  0  0  0  0  0  0  0  0  0  0
  -25.3880  -12.3430   20.6680 C   0  0  0  0  0  0  0  0  0  0  0  0
  -27.1110  -13.5060   20.1540 N   0  0  0  0  0  0  0  0  0  0  0  0
  -26.6740  -12.2410   20.3630 N   0  0  0  0  0  0  0  0  0  0  0  0
  -24.5960  -11.1170   20.8100 C   0  0  0  0  0  0  0  0  0  0  0  0
  -24.9000  -10.1520   21.7960 C   0  0  0  0  0  3  0  0  0  0  0  0
  -24.1130   -8.9870   21.9260 C   0  0  0  0  0  3  0  0  0  0  0  0
  -23.0060   -8.7800   21.0670 C   0  0  0  0  0  0  0  0  0  0  0  0
  -22.7220   -9.7330   20.0740 C   0  0  0  0  0  3  0  0  0  0  0  0
  -23.5100  -10.8910   19.9430 C   0  0  0  0  0  3  0  0  0  0  0  0
  -22.2020   -7.6670   21.1030 O   0  0  0  0  0  0  0  0  0  0  0  0
  -21.9250   -7.0170   22.2770 C   0  0  0  0  0  0  0  0  0  0  0  0
  -21.2550   -7.6560   23.3440 C   0  0  0  0  0  3  0  0  0  0  0  0
  -20.9260   -6.9280   24.5050 C   0  0  0  0  0  3  0  0  0  0  0  0
  -21.2570   -5.5620   24.5990 C   0  0  0  0  0  0  0  0  0  0  0  0
  -21.9170   -4.9230   23.5360 C   0  0  0  0  0  3  0  0  0  0  0  0
  -22.2480   -5.6490   22.3790 C   0  0  0  0  0  0  0  0  0  0  0  0
  -22.8650   -5.0220   21.3480 F   0  0  0  0  0  0  0  0  0  0  0  0
  -20.9350   -4.8640   25.7130 F   0  0  0  0  0  0  0  0  0  0  0  0
  -23.6310  -14.2580   21.0240 C   0  0  0  0  0  0  0  0  0  0  0  0
  -22.8710  -13.5810   21.8800 N   0  0  0  0  0  0  0  0  0  0  0  0
  -23.2430  -15.3100   20.5180 O   0  0  0  0  0  0  0  0  0  0  0  0
  -23.2000  -12.7270   22.3050 H   0  0  0  0  0  0  0  0  0  0  0  0
  -21.9440  -13.9140   22.1070 H   0  0  0  0  0  0  0  0  0  0  0  0
  -26.3590  -15.8010   20.2780 N   0  0  0  0  0  0  0  0  0  0  0  0
  -25.6250  -16.4920   20.3870 H   0  0  0  0  0  0  0  0  0  0  0  0
  -27.2310  -16.1990   19.9580 H   0  0  0  0  0  0  0  0  0  0  0  0
  1  2  2  0
  3  1  1  0
  3  4  1  0
  5  4  1  0
  5  6  1  0
  7  8  1  0
  7  6  1  0
  8 10  1  0
  9 20  2  0
 10 15  1  0
 11 19  1  0
 11 21  1  0
 12 18  1  0
 12 14  1  0
 13 19  1  0
 14 13  1  0
 15 14  2  0
 16 17  1  0
 16 10  2  0
 17 12  2  0
 18 11  1  0
 19  9  1  0
 21 23  2  0
 22 21  1  0
 24 22  1  0
 25 34  2  0
 25 30  1  0
 26 22  1  0
 26 30  1  0
 27 26  1  0
 28 29  1  0
 28 27  1  0
 29 25  1  0
 30 31  2  0
 31 32  1  0
 33 32  2  0
 34 33  1  0
 35  9  1  0
 35 40  1  0
 35 36  1  0
 36 39  1  1
 36 37  1  0
 38 36  1  0
 40 43  1  0
 41 45  1  0
 41 40  1  0
 42 41  2  0
 45 44  1  0
 47 45  1  0
 47 48  1  0
 47 46  1  0
 49 50  1  0
 49  1  1  0
 50 51  1  0
 51 52  1  0
 52 53  1  0
 53 54  1  0
 55 63  1  0
 56 61  1  0
 57 58  1  0
 57 56  1  0
 59 58  1  0
 59 68  1  0
 59 60  1  0
 61 55  1  0
 61 60  1  0
 62 55  2  0
 63 54  1  0
 63 64  1  0
 65 66  2  0
 66 85  1  0
 67 66  1  0
 67 70  1  0
 68 69  1  0
 68 65  1  0
 69 67  2  0
 70 71  1  0
 71 72  2  0
 73 76  1  0
 73 72  1  0
 74 73  2  0
 75 74  1  0
 75 70  2  0
 76 77  1  0
 77 82  2  0
 77 78  1  0
 78 79  2  0
 79 80  1  0
 80 84  1  0
 81 80  2  0
 82 81  1  0
 83 82  1  0
 85 86  1  0
 86 89  1  0
 86 88  1  0
 87 85  2  0
 90 91  1  0
 90 65  1  0
 92 90  1  0
M  ISO  4   7 101   8 101  55 100  63 100
M  END
>  <TORSDO>  (99) 
F 27

>  <SCORE>  (99) 
-8.690

>  <name>  (99) 
99

>  <ligand_id>  (99) 
99

>  <original_smiles>  (99) 
[H]c1c([H])c([H])c2c(c1[H])C([H])([H])C([H])([H])C([H])([H])C2([H])N([H])C(=O)C1([H])N(C(=O)C([H])(N([H])C(=O)C([H])(N([H])C([H])([H])[H])C([H])([H])[H])C(C([H])([H])[H])(C([H])([H])[H])C([H])([H])[H])C([H])([H])c2c([H])c(OC([H])([H])C([H])([H])C([H])([H])C([H])([H])C([H])([H])C(=O)C([H])([H])C([H])([H])C([H])([H])C([H])([H])C([H])([H])C([H])([H])N([H])C(=O)N3C([H])([H])C([H])([H])C([H])([H])C([H])(n4nc(-c5c([H])c([H])c(Oc6c([H])c([H])c(F)c([H])c6F)c([H])c5[H])c(C(=O)N([H])[H])c4N([H])[H])C3([H])[H])c([H])c([H])c2C1([H])[H]

>  <smiles>  (99) 
[H]c1c([H])c([H])c2c(c1[H])C([H])([H])C([H])([H])C([H])([H])C2([H])N([H])C(=O)C1([H])N(C(=O)C([H])(N([H])C(=O)C([H])(N([H])C([H])([H])[H])C([H])([H])[H])C(C([H])([H])[H])(C([H])([H])[H])C([H])([H])[H])C([H])([H])c2c([H])c(OC([H])([H])C([H])([H])C([H])([H])C([H])([H])C([H])([H])C(=O)C([H])([H])C([H])([H])C([H])([H])C([H])([H])C([H])([H])C([H])([H])N([H])C(=O)N3C([H])([H])C([H])([H])C([H])([H])C([H])(n4nc(-c5c([H])c([H])c(Oc6c([H])c([H])c(F)c([H])c6F)c([H])c5[H])c(C(=O)N([H])[H])c4N([H])[H])C3([H])[H])c([H])c([H])c2C1([H])[H]

$$$$
