0:0:0
     RDKit          3D

 97106  0  0  1  0  0  0  0  0999 V2000
  -31.8420  -22.8360   18.1170 C   0  0  0  0  0  3  0  0  0  0  0  0
  -29.7740  -22.7280   19.4170 C   0  0  0  0  0  3  0  0  0  0  0  0
  -31.3920  -24.0190   17.5050 C   0  0  0  0  0  3  0  0  0  0  0  0
  -29.3250  -23.9080   18.8030 C   0  0  0  0  0  3  0  0  0  0  0  0
  -31.0600  -22.2220   19.1190 C   0  0  0  0  0  0  0  0  0  0  0  0
  -30.1630  -24.5850   17.8960 C   0  0  0  0  0  0  0  0  0  0  0  0
  -31.6400  -21.0920   19.9430 C   0  0  0  0  0  2  0  0  0  0  0  0
  -30.7720  -19.8290   19.9630 C   0  0  0  0  0  2  0  0  0  0  0  0
  -31.2350  -17.3210   20.1360 C   0  0  0  0  0  2  0  0  0  0  0  0
  -30.3940  -17.2110   22.3550 C   0  0  0  0  0  2  0  0  0  0  0  0
  -31.1560  -16.3670   21.3300 C   0  0  0  0  0  3  0  0  0  0  0  0
  -31.4200  -18.6970   20.7830 C   0  0  0  0  0  3  0  0  0  0  0  0
  -30.8790  -18.5880   22.1560 N   0  0  0  0  0  4  0  0  0  0  0  0
  -31.6210  -18.7690   22.8140 H   0  0  0  0  0  0  0  0  0  0  0  0
  -30.1410  -19.2520   22.3230 H   0  0  0  0  0  0  0  0  0  0  0  0
  -30.9700  -14.1700   20.1880 C   0  0  0  0  0  0  0  0  0  0  0  0
  -30.4540  -12.1250   18.9230 C   0  0  0  0  0  2  0  0  0  0  0  0
  -29.4730  -12.4350   17.7760 C   0  0  0  0  0  2  0  0  0  0  0  0
  -28.0140  -12.3660   18.2680 C   0  0  0  0  0  2  0  0  0  0  0  0
  -27.7850  -13.1630   19.5790 C   0  0  0  0  0  3  0  0  0  0  0  0
  -28.8730  -12.8340   20.6270 C   0  0  0  0  0  2  0  0  0  0  0  0
  -30.1900  -13.0740   20.0130 N   0  0  0  0  0  0  0  0  0  0  0  0
  -32.0210  -14.3570   19.5690 O   0  0  0  0  0  0  0  0  0  0  0  0
  -30.5030  -15.0850   21.0460 N   0  0  0  0  0  0  0  0  0  0  0  0
  -29.6290  -14.8800   21.5100 H   0  0  0  0  0  0  0  0  0  0  0  0
  -25.4430  -13.8570   20.3870 C   0  0  0  0  0  0  0  0  0  0  0  0
  -24.3600  -13.1260   20.7920 C   0  0  0  0  0  0  0  0  0  0  0  0
  -24.7650  -11.7550   20.7330 C   0  0  0  0  0  0  0  0  0  0  0  0
  -26.4420  -12.9380   20.1090 N   0  0  0  0  0  0  0  0  0  0  0  0
  -26.0390  -11.6670   20.3720 N   0  0  0  0  0  0  0  0  0  0  0  0
  -23.9990  -10.5220   20.9450 C   0  0  0  0  0  0  0  0  0  0  0  0
  -24.4260   -9.5380   21.8650 C   0  0  0  0  0  3  0  0  0  0  0  0
  -23.6630   -8.3680   22.0670 C   0  0  0  0  0  3  0  0  0  0  0  0
  -22.4600   -8.1720   21.3470 C   0  0  0  0  0  0  0  0  0  0  0  0
  -22.0520   -9.1420   20.4180 C   0  0  0  0  0  3  0  0  0  0  0  0
  -22.8130  -10.3050   20.2160 C   0  0  0  0  0  3  0  0  0  0  0  0
  -21.6680   -7.0550   21.4580 O   0  0  0  0  0  0  0  0  0  0  0  0
  -21.6170   -6.3210   22.6170 C   0  0  0  0  0  0  0  0  0  0  0  0
  -21.2400   -6.8980   23.8490 C   0  0  0  0  0  3  0  0  0  0  0  0
  -21.1360   -6.0920   25.0000 C   0  0  0  0  0  3  0  0  0  0  0  0
  -21.3950   -4.7100   24.9190 C   0  0  0  0  0  0  0  0  0  0  0  0
  -21.7610   -4.1330   23.6910 C   0  0  0  0  0  3  0  0  0  0  0  0
  -21.8710   -4.9370   22.5430 C   0  0  0  0  0  0  0  0  0  0  0  0
  -22.2050   -4.3730   21.3580 F   0  0  0  0  0  0  0  0  0  0  0  0
  -21.2850   -3.9350   26.0220 F   0  0  0  0  0  0  0  0  0  0  0  0
  -22.9960  -13.6550   21.1260 C   0  0  0  0  0  0  0  0  0  0  0  0
  -22.2800  -12.9790   22.0180 N   0  0  0  0  0  0  0  0  0  0  0  0
  -22.5770  -14.7020   20.6330 O   0  0  0  0  0  0  0  0  0  0  0  0
  -22.6340  -12.1310   22.4340 H   0  0  0  0  0  0  0  0  0  0  0  0
  -21.3630  -13.3090   22.2800 H   0  0  0  0  0  0  0  0  0  0  0  0
  -25.6600  -15.2210   20.2120 N   0  0  0  0  0  0  0  0  0  0  0  0
  -24.9310  -15.9100   20.3560 H   0  0  0  0  0  0  0  0  0  0  0  0
  -26.5150  -15.6180   19.8440 H   0  0  0  0  0  0  0  0  0  0  0  0
  -29.8550  -26.0120   17.5180 C   0  0  0  0  0  2  0  0  0  0  0  0
  -30.4440  -26.9380   18.6030 C   0  0  0  0  0  2  0  0  0  0  0  0
  -29.4000  -27.7040   19.4190 C   0  0  0  0  0  2  0  0  0  0  0  0
  -28.4990  -26.8490   20.1370 O   0  0  0  0  0  0  0  0  0  0  0  0
  -24.5700  -31.9250   23.2600 C   0  0  0  0  0  0  0  0  0  0  0  0
  -27.2870  -27.4700   20.3060 C   0  0  0  0  0  0  0  0  0  0  0  0
  -23.3820  -30.4680   21.6440 C   0  0  0  0  0  3  0  0  0  0  0  0
  -24.8570  -28.8900   20.2920 C   0  0  0  0  0  0  0  0  0  0  0  0
  -25.8940  -30.8480   21.4520 C   0  0  0  0  0  2  0  0  0  0  0  0
  -25.9950  -29.4530   20.8790 C   0  0  0  0  0  0  0  0  0  0  0  0
  -27.2050  -28.7440   20.9070 C   0  0  0  0  0  3  0  0  0  0  0  0
  -26.1330  -26.8880   19.7470 C   0  0  0  0  0  3  0  0  0  0  0  0
  -24.9150  -27.5980   19.7330 C   0  0  0  0  0  3  0  0  0  0  0  0
  -23.6060  -29.7350   20.2910 C   0  0  0  0  0  2  0  0  0  0  0  0
  -24.6330  -31.0970   22.1780 N   0  0  0  0  0  0  0  0  0  0  0  0
  -23.4850  -32.2070   23.7860 O   0  0  0  0  0  0  0  0  0  0  0  0
  -22.7330  -29.4760   22.6300 C   0  0  0  0  0  0  0  0  0  0  0  0
  -21.4130  -29.2770   22.4870 N   0  0  0  0  0  0  0  0  0  0  0  0
  -23.4100  -28.8840   23.4750 O   0  0  0  0  0  0  0  0  0  0  0  0
  -20.9280  -29.8090   21.7770 H   0  0  0  0  0  0  0  0  0  0  0  0
  -18.0490  -28.0550   22.9430 C   0  0  0  0  0  0  0  0  0  0  0  0
  -20.5940  -28.3550   23.2710 C   0  0  0  0  0  3  0  0  0  0  0  0
  -20.7300  -26.9080   22.7450 C   0  0  0  0  0  2  0  0  0  0  0  0
  -19.6580  -26.5320   21.7190 C   0  0  0  0  0  2  0  0  0  0  0  0
  -18.2590  -26.6840   22.3250 C   0  0  0  0  0  2  0  0  0  0  0  0
  -19.1460  -28.8470   23.3740 C   0  0  0  0  0  0  0  0  0  0  0  0
  -18.8970  -30.1300   23.9100 C   0  0  0  0  0  3  0  0  0  0  0  0
  -17.5830  -30.6190   24.0250 C   0  0  0  0  0  3  0  0  0  0  0  0
  -16.4990  -29.8240   23.6150 C   0  0  0  0  0  3  0  0  0  0  0  0
  -16.7330  -28.5460   23.0780 C   0  0  0  0  0  3  0  0  0  0  0  0
  -25.8530  -32.5760   23.8720 C   0  0  0  0  0  3  0  0  0  0  0  0
  -25.5330  -33.9760   24.1750 N   0  0  0  0  0  0  0  0  0  0  0  0
  -25.8760  -35.0190   23.4070 C   0  0  0  0  0  0  0  0  0  0  0  0
  -26.5660  -34.9040   22.3900 O   0  0  0  0  0  0  0  0  0  0  0  0
  -24.9190  -34.1420   24.9590 H   0  0  0  0  0  0  0  0  0  0  0  0
  -24.1480  -36.7980   22.9940 C   0  0  0  0  0  1  0  0  0  0  0  0
  -25.3730  -36.4100   23.8360 C   0  0  0  0  0  3  0  0  0  0  0  0
  -27.4870  -37.3130   24.7020 C   0  0  0  0  0  1  0  0  0  0  0  0
  -26.4030  -37.4680   23.7360 N   0  0  0  0  0  0  0  0  0  0  0  0
  -25.9880  -38.3850   23.8740 H   0  0  0  0  0  0  0  0  0  0  0  0
  -26.3760  -31.8290   25.1600 C   0  0  1  0  0  0  0  0  0  0  0  0
  -25.2860  -31.5860   26.2270 C   0  0  0  0  0  1  0  0  0  0  0  0
  -26.9750  -30.4550   24.7790 C   0  0  0  0  0  1  0  0  0  0  0  0
  -27.5150  -32.6430   25.8170 C   0  0  0  0  0  1  0  0  0  0  0  0
  1  5  1  0
  3  6  1  0
  3  1  2  0
  4  2  1  0
  5  2  2  0
  5  7  1  0
  6  4  2  0
  7  8  1  0
  9 12  1  0
  9 11  1  0
 11 24  1  0
 11 10  1  0
 12  8  1  0
 12 13  1  0
 13 15  1  0
 13 10  1  0
 13 14  1  0
 16 24  1  0
 17 22  1  0
 18 19  1  0
 18 17  1  0
 20 19  1  0
 20 29  1  0
 20 21  1  0
 22 16  1  0
 22 21  1  0
 23 16  2  0
 24 25  1  0
 26 27  2  0
 27 46  1  0
 28 27  1  0
 28 31  1  0
 29 30  1  0
 29 26  1  0
 30 28  2  0
 31 32  1  0
 32 33  2  0
 34 37  1  0
 34 33  1  0
 35 34  2  0
 36 35  1  0
 36 31  2  0
 37 38  1  0
 38 39  1  0
 39 40  2  0
 41 40  1  0
 41 45  1  0
 42 41  2  0
 43 38  2  0
 43 42  1  0
 44 43  1  0
 46 47  1  0
 47 50  1  0
 47 49  1  0
 48 46  2  0
 51 52  1  0
 51 26  1  0
 53 51  1  0
 54  6  1  0
 54 55  1  0
 55 56  1  0
 56 57  1  0
 57 59  1  0
 58 69  2  0
 59 64  1  0
 60 68  1  0
 60 70  1  0
 61 63  1  0
 62 68  1  0
 63 64  2  0
 63 62  1  0
 65 59  2  0
 66 65  1  0
 66 61  2  0
 67 61  1  0
 67 60  1  0
 68 58  1  0
 70 72  2  0
 71 70  1  0
 73 71  1  0
 74 83  2  0
 74 79  1  0
 75 71  1  0
 75 79  1  0
 76 75  1  0
 77 78  1  0
 77 76  1  0
 78 74  1  0
 79 80  2  0
 80 81  1  0
 82 81  2  0
 83 82  1  0
 84 58  1  0
 84 85  1  0
 84 94  1  0
 85 88  1  0
 86 90  1  0
 86 85  1  0
 87 86  2  0
 90 89  1  0
 92 90  1  0
 92 93  1  0
 92 91  1  0
 94 97  1  1
 94 95  1  0
 96 94  1  0
M  ISO  4  16 100  24 100  56 101  57 101
M  END
>  <TORSDO>  (1) 
F 22

>  <SCORE>  (1) 
-13.147

>  <name>  (1) 
0

>  <ligand_id>  (1) 
0

>  <original_smiles>  (1) 
[H]c1c([H])c([H])c2c(c1[H])C([H])([H])C([H])([H])C([H])([H])C2([H])N([H])C(=O)C1([H])N(C(=O)C([H])(N([H])C(=O)C([H])(N([H])C([H])([H])[H])C([H])([H])[H])C(C([H])([H])[H])(C([H])([H])[H])C([H])([H])[H])C([H])([H])c2c([H])c(OC([H])([H])C([H])([H])C([H])([H])c3c([H])c([H])c(C([H])([H])C([H])([H])C4([H])C([H])([H])C([H])(N([H])C(=O)N5C([H])([H])C([H])([H])C([H])([H])C([H])(n6nc(-c7c([H])c([H])c(Oc8c([H])c([H])c(F)c([H])c8F)c([H])c7[H])c(C(=O)N([H])[H])c6N([H])[H])C5([H])[H])C([H])([H])[N+]4([H])[H])c([H])c3[H])c([H])c([H])c2C1([H])[H]

>  <smiles>  (1) 
[H]c1c([H])c([H])c2c(c1[H])C([H])([H])C([H])([H])C([H])([H])C2([H])N([H])C(=O)C1([H])N(C(=O)C([H])(N([H])C(=O)C([H])(N([H])C([H])([H])[H])C([H])([H])[H])C(C([H])([H])[H])(C([H])([H])[H])C([H])([H])[H])C([H])([H])c2c([H])c(OC([H])([H])C([H])([H])C([H])([H])c3c([H])c([H])c(C([H])([H])C([H])([H])C4([H])C([H])([H])C([H])(N([H])C(=O)N5C([H])([H])C([H])([H])C([H])([H])C([H])(n6nc(-c7c([H])c([H])c(Oc8c([H])c([H])c(F)c([H])c8F)c([H])c7[H])c(C(=O)N([H])[H])c6N([H])[H])C5([H])[H])C([H])([H])[N+]4([H])[H])c([H])c3[H])c([H])c([H])c2C1([H])[H]

$$$$
1:0:0
     RDKit          3D

 94102  0  0  1  0  0  0  0  0999 V2000
  -28.9370  -24.8070   16.4850 C   0  0  0  0  0  3  0  0  0  0  0  0
  -28.8980  -25.5530   17.6790 C   0  0  0  0  0  3  0  0  0  0  0  0
  -28.7860  -23.4070   16.5190 C   0  0  0  0  0  3  0  0  0  0  0  0
  -28.5440  -23.5050   18.9400 C   0  0  0  0  0  3  0  0  0  0  0  0
  -28.7010  -24.9030   18.9150 C   0  0  0  0  0  0  0  0  0  0  0  0
  -28.5910  -22.7450   17.7550 C   0  0  0  0  0  0  0  0  0  0  0  0
  -27.8950  -20.5380   16.6360 C   0  0  0  0  0  1  0  0  0  0  0  0
  -28.5150  -21.2270   17.8670 C   0  0  0  0  0  3  0  0  0  0  0  0
  -29.9100  -20.6660   18.2160 C   0  0  0  0  0  2  0  0  0  0  0  0
  -29.8850  -19.6410   19.3480 C   0  0  0  0  0  0  0  0  0  0  0  0
  -29.9120  -19.9970   20.5300 O   0  0  0  0  0  0  0  0  0  0  0  0
  -29.8290  -18.1720   18.9380 C   0  0  0  0  0  2  0  0  0  0  0  0
  -29.4060  -17.1870   20.0400 C   0  0  0  0  0  2  0  0  0  0  0  0
  -30.4900  -16.8470   21.0890 C   0  0  0  0  0  2  0  0  0  0  0  0
  -31.0660  -14.4450   21.0870 C   0  0  0  0  0  0  0  0  0  0  0  0
  -30.8040  -12.3480   19.8440 C   0  0  0  0  0  2  0  0  0  0  0  0
  -29.9760  -12.6640   18.5800 C   0  0  0  0  0  2  0  0  0  0  0  0
  -28.4650  -12.5590   18.8750 C   0  0  0  0  0  2  0  0  0  0  0  0
  -28.0500  -13.3360   20.1540 C   0  0  0  0  0  3  0  0  0  0  0  0
  -29.0030  -13.0170   21.3310 C   0  0  0  0  0  2  0  0  0  0  0  0
  -30.3830  -13.2860   20.8910 N   0  0  0  0  0  0  0  0  0  0  0  0
  -32.2190  -14.6310   20.6890 O   0  0  0  0  0  0  0  0  0  0  0  0
  -30.3140  -15.4620   21.5280 N   0  0  0  0  0  0  0  0  0  0  0  0
  -29.4110  -15.2180   21.9080 H   0  0  0  0  0  0  0  0  0  0  0  0
  -25.6030  -13.9980   20.6210 C   0  0  0  0  0  0  0  0  0  0  0  0
  -24.4930  -13.2470   20.9030 C   0  0  0  0  0  0  0  0  0  0  0  0
  -24.9340  -11.8890   20.9360 C   0  0  0  0  0  0  0  0  0  0  0  0
  -26.6510  -13.0970   20.5050 N   0  0  0  0  0  0  0  0  0  0  0  0
  -26.2450  -11.8240   20.7460 N   0  0  0  0  0  0  0  0  0  0  0  0
  -24.1740  -10.6410   21.0790 C   0  0  0  0  0  0  0  0  0  0  0  0
  -24.5140   -9.6800   22.0560 C   0  0  0  0  0  3  0  0  0  0  0  0
  -23.7580   -8.4950   22.1870 C   0  0  0  0  0  3  0  0  0  0  0  0
  -22.6500   -8.2640   21.3380 C   0  0  0  0  0  0  0  0  0  0  0  0
  -22.3300   -9.2140   20.3530 C   0  0  0  0  0  3  0  0  0  0  0  0
  -23.0870  -10.3900   20.2210 C   0  0  0  0  0  3  0  0  0  0  0  0
  -21.8740   -7.1310   21.3750 O   0  0  0  0  0  0  0  0  0  0  0  0
  -21.7160   -6.4050   22.5270 C   0  0  0  0  0  0  0  0  0  0  0  0
  -21.1850   -6.9790   23.7030 C   0  0  0  0  0  3  0  0  0  0  0  0
  -20.9720   -6.1790   24.8440 C   0  0  0  0  0  3  0  0  0  0  0  0
  -21.2830   -4.8060   24.8100 C   0  0  0  0  0  0  0  0  0  0  0  0
  -21.8050   -4.2320   23.6380 C   0  0  0  0  0  3  0  0  0  0  0  0
  -22.0180   -5.0290   22.5000 C   0  0  0  0  0  0  0  0  0  0  0  0
  -22.5020   -4.4650   21.3670 F   0  0  0  0  0  0  0  0  0  0  0  0
  -21.0730   -4.0350   25.9030 F   0  0  0  0  0  0  0  0  0  0  0  0
  -23.0840  -13.7500   21.0410 C   0  0  0  0  0  0  0  0  0  0  0  0
  -22.2690  -13.0830   21.8510 N   0  0  0  0  0  0  0  0  0  0  0  0
  -22.7090  -14.7710   20.4650 O   0  0  0  0  0  0  0  0  0  0  0  0
  -22.5790  -12.2590   22.3450 H   0  0  0  0  0  0  0  0  0  0  0  0
  -21.3200  -13.4060   21.9820 H   0  0  0  0  0  0  0  0  0  0  0  0
  -25.8060  -15.3630   20.4340 N   0  0  0  0  0  0  0  0  0  0  0  0
  -25.0440  -16.0310   20.4580 H   0  0  0  0  0  0  0  0  0  0  0  0
  -26.6900  -15.7830   20.1790 H   0  0  0  0  0  0  0  0  0  0  0  0
  -28.7160  -25.6620   20.2320 C   0  0  0  0  0  2  0  0  0  0  0  0
  -28.7160  -27.0820   20.1030 O   0  0  0  0  0  0  0  0  0  0  0  0
  -24.7600  -31.9460   23.4050 C   0  0  0  0  0  0  0  0  0  0  0  0
  -27.5030  -27.7320   20.1180 C   0  0  0  0  0  0  0  0  0  0  0  0
  -23.5830  -30.6030   21.6890 C   0  0  0  0  0  3  0  0  0  0  0  0
  -25.0700  -29.1610   20.2000 C   0  0  0  0  0  0  0  0  0  0  0  0
  -26.1000  -31.0230   21.5180 C   0  0  0  0  0  2  0  0  0  0  0  0
  -26.2120  -29.6880   20.8160 C   0  0  0  0  0  0  0  0  0  0  0  0
  -27.4300  -28.9790   20.7720 C   0  0  0  0  0  3  0  0  0  0  0  0
  -26.3420  -27.2100   19.5040 C   0  0  0  0  0  3  0  0  0  0  0  0
  -25.1260  -27.9190   19.5440 C   0  0  0  0  0  3  0  0  0  0  0  0
  -23.8110  -29.9930   20.2800 C   0  0  0  0  0  2  0  0  0  0  0  0
  -24.8310  -31.2030   22.2640 N   0  0  0  0  0  0  0  0  0  0  0  0
  -23.6730  -32.1740   23.9540 O   0  0  0  0  0  0  0  0  0  0  0  0
  -22.9520  -29.5230   22.5980 C   0  0  0  0  0  0  0  0  0  0  0  0
  -21.6330  -29.3170   22.4490 N   0  0  0  0  0  0  0  0  0  0  0  0
  -23.6430  -28.8760   23.3890 O   0  0  0  0  0  0  0  0  0  0  0  0
  -21.1370  -29.8970   21.7870 H   0  0  0  0  0  0  0  0  0  0  0  0
  -18.2840  -28.0220   22.8420 C   0  0  0  0  0  0  0  0  0  0  0  0
  -20.8290  -28.3280   23.1670 C   0  0  0  0  0  3  0  0  0  0  0  0
  -20.9760  -26.9260   22.5320 C   0  0  0  0  0  2  0  0  0  0  0  0
  -19.8980  -26.6190   21.4880 C   0  0  0  0  0  2  0  0  0  0  0  0
  -18.5040  -26.7050   22.1160 C   0  0  0  0  0  2  0  0  0  0  0  0
  -19.3770  -28.7900   23.3220 C   0  0  0  0  0  0  0  0  0  0  0  0
  -19.1200  -30.0230   23.9610 C   0  0  0  0  0  3  0  0  0  0  0  0
  -17.8010  -30.4900   24.1220 C   0  0  0  0  0  3  0  0  0  0  0  0
  -16.7220  -29.7170   23.6590 C   0  0  0  0  0  3  0  0  0  0  0  0
  -16.9640  -28.4830   23.0280 C   0  0  0  0  0  3  0  0  0  0  0  0
  -26.0330  -32.5670   24.0600 C   0  0  0  0  0  3  0  0  0  0  0  0
  -25.6980  -33.9400   24.4610 N   0  0  0  0  0  0  0  0  0  0  0  0
  -26.0430  -35.0380   23.7750 C   0  0  0  0  0  0  0  0  0  0  0  0
  -26.7510  -35.0010   22.7650 O   0  0  0  0  0  0  0  0  0  0  0  0
  -25.0760  -34.0430   25.2500 H   0  0  0  0  0  0  0  0  0  0  0  0
  -24.3180  -36.8370   23.4460 C   0  0  0  0  0  1  0  0  0  0  0  0
  -25.5210  -36.3910   24.2920 C   0  0  0  0  0  3  0  0  0  0  0  0
  -27.6080  -37.2300   25.2760 C   0  0  0  0  0  1  0  0  0  0  0  0
  -26.5490  -37.4550   24.2960 N   0  0  0  0  0  0  0  0  0  0  0  0
  -26.1290  -38.3620   24.4850 H   0  0  0  0  0  0  0  0  0  0  0  0
  -26.5650  -31.7410   25.2930 C   0  0  1  0  0  0  0  0  0  0  0  0
  -25.4770  -31.4230   26.3460 C   0  0  0  0  0  1  0  0  0  0  0  0
  -27.1760  -30.4000   24.8240 C   0  0  0  0  0  1  0  0  0  0  0  0
  -27.7020  -32.5200   25.9990 C   0  0  0  0  0  1  0  0  0  0  0  0
  1  3  2  0
  1  2  1  0
  2  5  2  0
  3  6  1  0
  5  4  1  0
  5 53  1  0
  6  8  1  0
  6  4  2  0
  8  7  1  0
  8  9  1  0
  9 10  1  0
 10 11  2  0
 12 10  1  0
 12 13  1  0
 13 14  1  0
 14 23  1  0
 15 23  1  0
 16 21  1  0
 17 18  1  0
 17 16  1  0
 19 18  1  0
 19 28  1  0
 19 20  1  0
 21 15  1  0
 21 20  1  0
 22 15  2  0
 23 24  1  0
 25 26  2  0
 26 27  1  0
 26 45  1  0
 27 30  1  0
 28 25  1  0
 28 29  1  0
 29 27  2  0
 30 31  1  0
 31 32  2  0
 33 36  1  0
 33 32  1  0
 34 33  2  0
 35 34  1  0
 35 30  2  0
 36 37  1  0
 37 38  1  0
 38 39  2  0
 40 39  1  0
 40 44  1  0
 41 40  2  0
 42 37  2  0
 42 41  1  0
 43 42  1  0
 45 46  1  0
 46 49  1  0
 46 48  1  0
 47 45  2  0
 50 51  1  0
 50 25  1  0
 52 50  1  0
 54 56  1  0
 54 53  1  0
 55 66  2  0
 56 61  1  0
 57 65  1  0
 57 67  1  0
 58 64  1  0
 58 60  1  0
 59 65  1  0
 60 59  1  0
 61 60  2  0
 62 63  1  0
 62 56  2  0
 63 58  2  0
 64 57  1  0
 65 55  1  0
 67 69  2  0
 68 67  1  0
 70 68  1  0
 71 80  2  0
 71 76  1  0
 72 68  1  0
 72 76  1  0
 73 72  1  0
 74 75  1  0
 74 73  1  0
 75 71  1  0
 76 77  2  0
 77 78  1  0
 79 78  2  0
 80 79  1  0
 81 55  1  0
 81 82  1  0
 81 91  1  0
 82 85  1  0
 83 87  1  0
 83 82  1  0
 84 83  2  0
 87 86  1  0
 87 89  1  0
 89 90  1  0
 89 88  1  0
 91 94  1  1
 91 92  1  0
 93 91  1  0
M  ISO  4  15 100  23 100  53 101  54 101
M  END
>  <TORSDO>  (2) 
F 23

>  <SCORE>  (2) 
-11.791

>  <name>  (2) 
1

>  <ligand_id>  (2) 
1

>  <original_smiles>  (2) 
[H]c1c([H])c([H])c2c(c1[H])C([H])([H])C([H])([H])C([H])([H])C2([H])N([H])C(=O)C1([H])N(C(=O)C([H])(N([H])C(=O)C([H])(N([H])C([H])([H])[H])C([H])([H])[H])C(C([H])([H])[H])(C([H])([H])[H])C([H])([H])[H])C([H])([H])c2c([H])c(OC([H])([H])c3c([H])c([H])c([H])c(C([H])(C([H])([H])[H])C([H])([H])C(=O)C([H])([H])C([H])([H])C([H])([H])N([H])C(=O)N4C([H])([H])C([H])([H])C([H])([H])C([H])(n5nc(-c6c([H])c([H])c(Oc7c([H])c([H])c(F)c([H])c7F)c([H])c6[H])c(C(=O)N([H])[H])c5N([H])[H])C4([H])[H])c3[H])c([H])c([H])c2C1([H])[H]

>  <smiles>  (2) 
[H]c1c([H])c([H])c2c(c1[H])C([H])([H])C([H])([H])C([H])([H])C2([H])N([H])C(=O)C1([H])N(C(=O)C([H])(N([H])C(=O)C([H])(N([H])C([H])([H])[H])C([H])([H])[H])C(C([H])([H])[H])(C([H])([H])[H])C([H])([H])[H])C([H])([H])c2c([H])c(OC([H])([H])c3c([H])c([H])c([H])c(C([H])(C([H])([H])[H])C([H])([H])C(=O)C([H])([H])C([H])([H])C([H])([H])N([H])C(=O)N4C([H])([H])C([H])([H])C([H])([H])C([H])(n5nc(-c6c([H])c([H])c(Oc7c([H])c([H])c(F)c([H])c7F)c([H])c6[H])c(C(=O)N([H])[H])c5N([H])[H])C4([H])[H])c3[H])c([H])c([H])c2C1([H])[H]

$$$$
2:0:0
     RDKit          3D

100109  0  0  1  0  0  0  0  0999 V2000
  -29.0740  -22.7920   20.7440 C   0  0  0  0  0  3  0  0  0  0  0  0
  -29.8740  -23.9410   20.8980 C   0  0  0  0  0  3  0  0  0  0  0  0
  -28.2260  -25.2320   19.6780 C   0  0  0  0  0  3  0  0  0  0  0  0
  -27.8440  -22.8300   20.0380 C   0  0  0  0  0  0  0  0  0  0  0  0
  -29.4560  -25.1690   20.3600 C   0  0  0  0  0  0  0  0  0  0  0  0
  -27.4030  -24.0920   19.5220 C   0  0  0  0  0  0  0  0  0  0  0  0
  -27.0520  -21.5570   19.8860 C   0  0  0  0  0  0  0  0  0  0  0  0
  -25.9260  -21.5120   19.3850 O   0  0  0  0  0  0  0  0  0  0  0  0
  -27.7090  -20.2410   20.3300 C   0  0  0  0  0  2  0  0  0  0  0  0
  -28.3190  -19.4010   19.1790 C   0  0  0  0  0  2  0  0  0  0  0  0
  -33.8910  -18.1790   19.0100 C   0  0  0  0  0  0  0  0  0  0  0  0
  -35.8430  -18.4810   17.5350 C   0  0  0  0  0  2  0  0  0  0  0  0
  -36.0180  -19.9700   17.1790 C   0  0  0  0  0  2  0  0  0  0  0  0
  -35.1790  -20.3350   15.9410 C   0  0  0  0  0  2  0  0  0  0  0  0
  -33.7100  -19.8490   16.0520 C   0  0  0  0  0  3  0  0  0  0  0  0
  -33.6540  -18.3720   16.4930 C   0  0  0  0  0  2  0  0  0  0  0  0
  -34.4090  -18.2320   17.7520 N   0  0  0  0  0  0  0  0  0  0  0  0
  -34.6040  -18.1700   20.0200 O   0  0  0  0  0  0  0  0  0  0  0  0
  -30.7350  -19.8940   19.8350 C   0  0  0  0  0  2  0  0  0  0  0  0
  -30.2340  -17.8430   18.4720 C   0  0  0  0  0  2  0  0  0  0  0  0
  -32.0900  -19.2710   20.1990 C   0  0  0  0  0  2  0  0  0  0  0  0
  -31.6140  -17.2850   18.8800 C   0  0  0  0  0  2  0  0  0  0  0  0
  -29.6870  -18.8000   19.5510 C   0  0  0  0  0  3  0  0  0  0  0  0
  -32.5590  -18.3850   19.1230 N   0  0  0  0  0  0  0  0  0  0  0  0
  -31.8590  -20.8420   14.5630 C   0  0  0  0  0  0  0  0  0  0  0  0
  -31.6190  -20.7520   13.2180 C   0  0  0  0  0  0  0  0  0  0  0  0
  -32.6410  -19.9010   12.6930 C   0  0  0  0  0  0  0  0  0  0  0  0
  -32.9790  -20.0640   14.8040 N   0  0  0  0  0  0  0  0  0  0  0  0
  -33.4150  -19.4530   13.6720 N   0  0  0  0  0  0  0  0  0  0  0  0
  -32.9590  -19.5340   11.3070 C   0  0  0  0  0  0  0  0  0  0  0  0
  -33.0370  -18.1820   10.9010 C   0  0  0  0  0  3  0  0  0  0  0  0
  -33.3280  -17.8550    9.5600 C   0  0  0  0  0  3  0  0  0  0  0  0
  -33.5410  -18.8800    8.6080 C   0  0  0  0  0  0  0  0  0  0  0  0
  -33.4850  -20.2220    9.0220 C   0  0  0  0  0  3  0  0  0  0  0  0
  -33.2010  -20.5470   10.3600 C   0  0  0  0  0  3  0  0  0  0  0  0
  -33.8550  -18.6550    7.2890 O   0  0  0  0  0  0  0  0  0  0  0  0
  -33.4530  -17.5170    6.6370 C   0  0  0  0  0  0  0  0  0  0  0  0
  -32.0910  -17.1590    6.5340 C   0  0  0  0  0  3  0  0  0  0  0  0
  -31.7180  -16.0180    5.7960 C   0  0  0  0  0  3  0  0  0  0  0  0
  -32.7010  -15.2400    5.1540 C   0  0  0  0  0  0  0  0  0  0  0  0
  -34.0570  -15.5990    5.2510 C   0  0  0  0  0  3  0  0  0  0  0  0
  -34.4310  -16.7370    5.9880 C   0  0  0  0  0  0  0  0  0  0  0  0
  -35.7370  -17.0900    6.0610 F   0  0  0  0  0  0  0  0  0  0  0  0
  -32.3420  -14.1490    4.4390 F   0  0  0  0  0  0  0  0  0  0  0  0
  -30.5640  -21.4880   12.4450 C   0  0  0  0  0  0  0  0  0  0  0  0
  -30.0290  -20.8690   11.3980 N   0  0  0  0  0  0  0  0  0  0  0  0
  -30.1730  -22.6000   12.7950 O   0  0  0  0  0  0  0  0  0  0  0  0
  -30.3350  -19.9480   11.1220 H   0  0  0  0  0  0  0  0  0  0  0  0
  -29.3010  -21.3230   10.8640 H   0  0  0  0  0  0  0  0  0  0  0  0
  -31.2310  -21.5330   15.5950 N   0  0  0  0  0  0  0  0  0  0  0  0
  -30.4360  -22.1410   15.4370 H   0  0  0  0  0  0  0  0  0  0  0  0
  -31.5360  -21.5140   16.5610 H   0  0  0  0  0  0  0  0  0  0  0  0
  -30.3120  -26.4250   20.4930 C   0  0  0  0  0  2  0  0  0  0  0  0
  -30.8010  -26.7600   21.9200 C   0  0  0  0  0  2  0  0  0  0  0  0
  -29.9380  -26.3930   22.9970 O   0  0  0  0  0  0  0  0  0  0  0  0
  -24.5960  -28.0250   27.3720 C   0  0  0  0  0  0  0  0  0  0  0  0
  -28.7280  -27.0340   23.1170 C   0  0  0  0  0  0  0  0  0  0  0  0
  -24.1700  -28.4170   24.9670 C   0  0  0  0  0  3  0  0  0  0  0  0
  -26.2100  -28.2710   23.4450 C   0  0  0  0  0  0  0  0  0  0  0  0
  -26.5460  -28.5290   25.9100 C   0  0  0  0  0  2  0  0  0  0  0  0
  -27.0400  -28.0680   24.5550 C   0  0  0  0  0  0  0  0  0  0  0  0
  -28.2960  -27.4430   24.3970 C   0  0  0  0  0  3  0  0  0  0  0  0
  -27.8720  -27.2290   22.0130 C   0  0  0  0  0  3  0  0  0  0  0  0
  -26.6180  -27.8460   22.1710 C   0  0  0  0  0  3  0  0  0  0  0  0
  -24.8840  -28.9480   23.6960 C   0  0  0  0  0  2  0  0  0  0  0  0
  -25.1020  -28.2890   26.1350 N   0  0  0  0  0  0  0  0  0  0  0  0
  -23.3750  -27.9330   27.5570 O   0  0  0  0  0  0  0  0  0  0  0  0
  -23.4470  -27.0970   24.6140 C   0  0  0  0  0  0  0  0  0  0  0  0
  -22.5460  -27.1590   23.6200 N   0  0  0  0  0  0  0  0  0  0  0  0
  -23.7160  -26.0480   25.2060 O   0  0  0  0  0  0  0  0  0  0  0  0
  -22.3760  -28.0580   23.1910 H   0  0  0  0  0  0  0  0  0  0  0  0
  -20.2980  -26.1670   20.9720 C   0  0  0  0  0  0  0  0  0  0  0  0
  -21.7700  -26.0370   23.0930 C   0  0  0  0  0  3  0  0  0  0  0  0
  -22.6670  -25.0690   22.2880 C   0  0  0  0  0  2  0  0  0  0  0  0
  -22.6970  -25.3810   20.7880 C   0  0  0  0  0  2  0  0  0  0  0  0
  -21.2860  -25.3110   20.1970 C   0  0  0  0  0  2  0  0  0  0  0  0
  -20.5340  -26.5210   22.3270 C   0  0  0  0  0  0  0  0  0  0  0  0
  -19.6010  -27.3470   22.9900 C   0  0  0  0  0  3  0  0  0  0  0  0
  -18.4520  -27.8140   22.3260 C   0  0  0  0  0  3  0  0  0  0  0  0
  -18.2180  -27.4490   20.9880 C   0  0  0  0  0  3  0  0  0  0  0  0
  -19.1370  -26.6240   20.3170 C   0  0  0  0  0  3  0  0  0  0  0  0
  -25.5230  -27.8560   28.6160 C   0  0  0  0  0  3  0  0  0  0  0  0
  -24.6940  -28.0460   29.8130 N   0  0  0  0  0  0  0  0  0  0  0  0
  -24.6610  -29.1680   30.5440 C   0  0  0  0  0  0  0  0  0  0  0  0
  -25.3900  -30.1370   30.3160 O   0  0  0  0  0  0  0  0  0  0  0  0
  -24.0270  -27.3180   30.0230 H   0  0  0  0  0  0  0  0  0  0  0  0
  -22.3770  -29.9360   31.2610 C   0  0  0  0  0  1  0  0  0  0  0  0
  -23.6610  -29.2220   31.7140 C   0  0  0  0  0  3  0  0  0  0  0  0
  -25.2640  -29.1290   33.5700 C   0  0  0  0  0  1  0  0  0  0  0  0
  -24.2010  -29.8890   32.9180 N   0  0  0  0  0  0  0  0  0  0  0  0
  -23.4650  -30.0550   33.5990 H   0  0  0  0  0  0  0  0  0  0  0  0
  -26.2570  -26.4580   28.6570 C   0  0  1  0  0  0  0  0  0  0  0  0
  -25.2940  -25.2490   28.6080 C   0  0  0  0  0  1  0  0  0  0  0  0
  -27.2430  -26.3250   27.4730 C   0  0  0  0  0  1  0  0  0  0  0  0
  -27.0990  -26.3470   29.9500 C   0  0  0  0  0  1  0  0  0  0  0  0
  -26.0750  -24.3030   18.7900 C   0  0  0  0  0  2  0  0  0  0  0  0
  -24.9010  -24.0650   16.6240 C   0  0  0  0  0  1  0  0  0  0  0  0
  -26.1320  -23.8210   17.3980 N   0  0  0  0  0  4  0  0  0  0  0  0
  -26.9000  -24.2770   16.9310 H   0  0  0  0  0  0  0  0  0  0  0  0
  -26.3120  -22.8320   17.4010 H   0  0  0  0  0  0  0  0  0  0  0  0
  1  2  1  0
  3  5  1  0
  4  1  2  0
  5 53  1  0
  5  2  2  0
  6  3  2  0
  6  4  1  0
  7  4  1  0
  7  9  1  0
  8  7  2  0
 10  9  1  0
 11 24  1  0
 11 18  2  0
 12 17  1  0
 13 12  1  0
 14 15  1  0
 14 13  1  0
 15 28  1  0
 15 16  1  0
 16 17  1  0
 17 11  1  0
 19 21  1  0
 20 22  1  0
 20 23  1  0
 22 24  1  0
 23 10  1  0
 23 19  1  0
 24 21  1  0
 25 28  1  0
 25 50  1  0
 26 25  2  0
 27 26  1  0
 27 29  2  0
 29 28  1  0
 30 27  1  0
 31 30  1  0
 32 31  2  0
 33 34  2  0
 33 32  1  0
 34 35  1  0
 35 30  2  0
 36 33  1  0
 37 36  1  0
 38 37  1  0
 39 38  2  0
 40 41  2  0
 40 39  1  0
 41 42  1  0
 42 43  1  0
 42 37  2  0
 44 40  1  0
 45 47  2  0
 45 26  1  0
 46 45  1  0
 48 46  1  0
 49 46  1  0
 50 52  1  0
 51 50  1  0
 53 54  1  0
 54 55  1  0
 55 57  1  0
 56 67  2  0
 57 62  1  0
 58 68  1  0
 58 66  1  0
 59 65  1  0
 59 61  1  0
 60 66  1  0
 61 60  1  0
 62 61  2  0
 63 64  1  0
 63 57  2  0
 64 59  2  0
 65 58  1  0
 66 56  1  0
 68 70  2  0
 69 68  1  0
 71 69  1  0
 72 77  1  0
 73 69  1  0
 74 73  1  0
 75 74  1  0
 76 75  1  0
 76 72  1  0
 77 78  2  0
 77 73  1  0
 79 78  1  0
 80 79  2  0
 81 72  2  0
 81 80  1  0
 82 56  1  0
 82 92  1  0
 82 83  1  0
 83 86  1  0
 83 84  1  0
 84 88  1  0
 85 84  2  0
 88 87  1  0
 88 90  1  0
 90 89  1  0
 90 91  1  0
 92 95  1  1
 93 92  1  0
 94 92  1  0
 96  6  1  0
 97 98  1  0
 98100  1  0
 98 96  1  0
 99 98  1  0
M  ISO  4  11 100  24 100  54 101  55 101
M  END
>  <TORSDO>  (3) 
F 23

>  <SCORE>  (3) 
-3.728

>  <name>  (3) 
2

>  <ligand_id>  (3) 
2

>  <original_smiles>  (3) 
[H]c1c([H])c([H])c2c(c1[H])C([H])([H])C([H])([H])C([H])([H])C2([H])N([H])C(=O)C1([H])N(C(=O)C([H])(N([H])C(=O)C([H])(N([H])C([H])([H])[H])C([H])([H])[H])C(C([H])([H])[H])(C([H])([H])[H])C([H])([H])[H])C([H])([H])c2c([H])c(OC([H])([H])C([H])([H])c3c([H])c([H])c(C(=O)C([H])([H])C([H])([H])C4([H])C([H])([H])C([H])([H])N(C(=O)N5C([H])([H])C([H])([H])C([H])([H])C([H])(n6nc(-c7c([H])c([H])c(Oc8c([H])c([H])c(F)c([H])c8F)c([H])c7[H])c(C(=O)N([H])[H])c6N([H])[H])C5([H])[H])C([H])([H])C4([H])[H])c(C([H])([H])[N+]([H])([H])C([H])([H])[H])c3[H])c([H])c([H])c2C1([H])[H]

>  <smiles>  (3) 
[H]c1c([H])c([H])c2c(c1[H])C([H])([H])C([H])([H])C([H])([H])C2([H])N([H])C(=O)C1([H])N(C(=O)C([H])(N([H])C(=O)C([H])(N([H])C([H])([H])[H])C([H])([H])[H])C(C([H])([H])[H])(C([H])([H])[H])C([H])([H])[H])C([H])([H])c2c([H])c(OC([H])([H])C([H])([H])c3c([H])c([H])c(C(=O)C([H])([H])C([H])([H])C4([H])C([H])([H])C([H])([H])N(C(=O)N5C([H])([H])C([H])([H])C([H])([H])C([H])(n6nc(-c7c([H])c([H])c(Oc8c([H])c([H])c(F)c([H])c8F)c([H])c7[H])c(C(=O)N([H])[H])c6N([H])[H])C5([H])[H])C([H])([H])C4([H])[H])c(C([H])([H])[N+]([H])([H])C([H])([H])[H])c3[H])c([H])c([H])c2C1([H])[H]

$$$$
3:0:0
     RDKit          3D

 95103  0  0  1  0  0  0  0  0999 V2000
  -28.2590  -21.0550   18.5130 C   0  0  0  0  0  3  0  0  0  0  0  0
  -28.4220  -22.4190   18.8080 C   0  0  0  0  0  3  0  0  0  0  0  0
  -29.0060  -20.0830   19.1980 C   0  0  0  0  0  3  0  0  0  0  0  0
  -30.1020  -21.8440   20.4730 C   0  0  0  0  0  3  0  0  0  0  0  0
  -29.3430  -22.8430   19.7910 C   0  0  0  0  0  0  0  0  0  0  0  0
  -29.9360  -20.4490   20.2010 C   0  0  0  0  0  0  0  0  0  0  0  0
  -30.7210  -24.9110   19.2800 C   0  0  0  0  0  1  0  0  0  0  0  0
  -29.5340  -24.3580   20.0810 C   0  0  0  0  0  3  0  0  0  0  0  0
  -28.2670  -25.2350   19.8130 C   0  0  0  0  0  2  0  0  0  0  0  0
  -28.3750  -26.6370   20.1660 O   0  0  0  0  0  0  0  0  0  0  0  0
  -24.5960  -31.8850   23.2170 C   0  0  0  0  0  0  0  0  0  0  0  0
  -27.2100  -27.3970   20.1350 C   0  0  0  0  0  0  0  0  0  0  0  0
  -23.3810  -30.4840   21.5830 C   0  0  0  0  0  3  0  0  0  0  0  0
  -24.8230  -28.9400   20.1550 C   0  0  0  0  0  0  0  0  0  0  0  0
  -25.9100  -30.8240   21.3760 C   0  0  0  0  0  2  0  0  0  0  0  0
  -25.9880  -29.4490   20.7400 C   0  0  0  0  0  0  0  0  0  0  0  0
  -27.1820  -28.6860   20.7290 C   0  0  0  0  0  3  0  0  0  0  0  0
  -26.0170  -26.9160   19.5390 C   0  0  0  0  0  3  0  0  0  0  0  0
  -24.8330  -27.6720   19.5550 C   0  0  0  0  0  3  0  0  0  0  0  0
  -23.5850  -29.8060   20.2030 C   0  0  0  0  0  2  0  0  0  0  0  0
  -24.6480  -31.0810   22.1150 N   0  0  0  0  0  0  0  0  0  0  0  0
  -23.5170  -32.1600   23.7590 O   0  0  0  0  0  0  0  0  0  0  0  0
  -22.7300  -29.4650   22.5460 C   0  0  0  0  0  0  0  0  0  0  0  0
  -21.4050  -29.2800   22.4210 N   0  0  0  0  0  0  0  0  0  0  0  0
  -23.4140  -28.8410   23.3640 O   0  0  0  0  0  0  0  0  0  0  0  0
  -20.9150  -29.8360   21.7350 H   0  0  0  0  0  0  0  0  0  0  0  0
  -18.0290  -28.0910   22.9280 C   0  0  0  0  0  0  0  0  0  0  0  0
  -20.5880  -28.3440   23.1940 C   0  0  0  0  0  3  0  0  0  0  0  0
  -20.6870  -26.9130   22.6160 C   0  0  0  0  0  2  0  0  0  0  0  0
  -19.5800  -26.5910   21.6070 C   0  0  0  0  0  2  0  0  0  0  0  0
  -18.2010  -26.7400   22.2540 C   0  0  0  0  0  2  0  0  0  0  0  0
  -19.1510  -28.8510   23.3550 C   0  0  0  0  0  0  0  0  0  0  0  0
  -18.9380  -30.1160   23.9460 C   0  0  0  0  0  3  0  0  0  0  0  0
  -17.6350  -30.6200   24.1150 C   0  0  0  0  0  3  0  0  0  0  0  0
  -16.5270  -29.8580   23.7020 C   0  0  0  0  0  3  0  0  0  0  0  0
  -16.7250  -28.5960   23.1160 C   0  0  0  0  0  3  0  0  0  0  0  0
  -25.8860  -32.5130   23.8300 C   0  0  0  0  0  3  0  0  0  0  0  0
  -25.5780  -33.9100   24.1670 N   0  0  0  0  0  0  0  0  0  0  0  0
  -25.9030  -34.9650   23.4080 C   0  0  0  0  0  0  0  0  0  0  0  0
  -26.5670  -34.8670   22.3720 O   0  0  0  0  0  0  0  0  0  0  0  0
  -24.9910  -34.0620   24.9750 H   0  0  0  0  0  0  0  0  0  0  0  0
  -24.1780  -36.7640   23.0650 C   0  0  0  0  0  1  0  0  0  0  0  0
  -25.4170  -36.3500   23.8750 C   0  0  0  0  0  3  0  0  0  0  0  0
  -27.5480  -37.2310   24.7220 C   0  0  0  0  0  1  0  0  0  0  0  0
  -26.4490  -37.4040   23.7750 N   0  0  0  0  0  0  0  0  0  0  0  0
  -26.0400  -38.3210   23.9260 H   0  0  0  0  0  0  0  0  0  0  0  0
  -26.4150  -31.7350   25.0960 C   0  0  1  0  0  0  0  0  0  0  0  0
  -25.3310  -31.4910   26.1700 C   0  0  0  0  0  1  0  0  0  0  0  0
  -26.9950  -30.3600   24.6880 C   0  0  0  0  0  1  0  0  0  0  0  0
  -27.5640  -32.5300   25.7590 C   0  0  0  0  0  1  0  0  0  0  0  0
  -30.7530  -19.3570   20.9540 C   0  0  0  0  0  3  0  0  0  0  0  0
  -30.7740  -19.6450   22.4020 N   0  0  0  0  0  4  0  0  0  0  0  0
  -29.8640  -19.5340   22.8130 H   0  0  0  0  0  0  0  0  0  0  0  0
  -31.0770  -20.5880   22.5560 H   0  0  0  0  0  0  0  0  0  0  0  0
  -31.4330  -19.0510   22.8760 H   0  0  0  0  0  0  0  0  0  0  0  0
  -30.2880  -17.8740   20.6640 C   0  0  0  0  0  2  0  0  0  0  0  0
  -30.7940  -16.7390   21.6010 C   0  0  0  0  0  2  0  0  0  0  0  0
  -30.8430  -14.4620   20.4980 C   0  0  0  0  0  0  0  0  0  0  0  0
  -30.5020  -12.3220   19.3140 C   0  0  0  0  0  2  0  0  0  0  0  0
  -29.5560  -12.5240   18.1130 C   0  0  0  0  0  2  0  0  0  0  0  0
  -28.0860  -12.3840   18.5490 C   0  0  0  0  0  2  0  0  0  0  0  0
  -27.7570  -13.2380   19.8000 C   0  0  0  0  0  3  0  0  0  0  0  0
  -28.8100  -13.0040   20.9090 C   0  0  0  0  0  2  0  0  0  0  0  0
  -30.1400  -13.3050   20.3440 N   0  0  0  0  0  0  0  0  0  0  0  0
  -31.9210  -14.6740   19.9330 O   0  0  0  0  0  0  0  0  0  0  0  0
  -30.2620  -15.4050   21.2580 N   0  0  0  0  0  0  0  0  0  0  0  0
  -29.3790  -15.1470   21.6740 H   0  0  0  0  0  0  0  0  0  0  0  0
  -25.3640  -13.8910   20.4960 C   0  0  0  0  0  0  0  0  0  0  0  0
  -24.2780  -13.1370   20.8610 C   0  0  0  0  0  0  0  0  0  0  0  0
  -24.7170  -11.7780   20.8310 C   0  0  0  0  0  0  0  0  0  0  0  0
  -26.3940  -12.9910   20.2700 N   0  0  0  0  0  0  0  0  0  0  0  0
  -26.0070  -11.7150   20.5240 N   0  0  0  0  0  0  0  0  0  0  0  0
  -23.9670  -10.5290   21.0250 C   0  0  0  0  0  0  0  0  0  0  0  0
  -24.3860   -9.5530   21.9580 C   0  0  0  0  0  3  0  0  0  0  0  0
  -23.6410   -8.3690   22.1400 C   0  0  0  0  0  3  0  0  0  0  0  0
  -22.4630   -8.1520   21.3870 C   0  0  0  0  0  0  0  0  0  0  0  0
  -22.0630   -9.1150   20.4450 C   0  0  0  0  0  3  0  0  0  0  0  0
  -22.8080  -10.2910   20.2630 C   0  0  0  0  0  3  0  0  0  0  0  0
  -21.6930   -7.0170   21.4740 O   0  0  0  0  0  0  0  0  0  0  0  0
  -21.6310   -6.2750   22.6270 C   0  0  0  0  0  0  0  0  0  0  0  0
  -21.2050   -6.8370   23.8500 C   0  0  0  0  0  3  0  0  0  0  0  0
  -21.0880   -6.0240   24.9960 C   0  0  0  0  0  3  0  0  0  0  0  0
  -21.3900   -4.6520   24.9190 C   0  0  0  0  0  0  0  0  0  0  0  0
  -21.8090   -4.0900   23.7010 C   0  0  0  0  0  3  0  0  0  0  0  0
  -21.9270   -4.8980   22.5560 C   0  0  0  0  0  0  0  0  0  0  0  0
  -22.3100   -4.3490   21.3790 F   0  0  0  0  0  0  0  0  0  0  0  0
  -21.2730   -3.8690   26.0170 F   0  0  0  0  0  0  0  0  0  0  0  0
  -22.8900  -13.6370   21.1370 C   0  0  0  0  0  0  0  0  0  0  0  0
  -22.1520  -12.9500   22.0040 N   0  0  0  0  0  0  0  0  0  0  0  0
  -22.4680  -14.6700   20.6220 O   0  0  0  0  0  0  0  0  0  0  0  0
  -22.5130  -12.1140   22.4390 H   0  0  0  0  0  0  0  0  0  0  0  0
  -21.2200  -13.2640   22.2330 H   0  0  0  0  0  0  0  0  0  0  0  0
  -25.5550  -15.2560   20.3230 N   0  0  0  0  0  0  0  0  0  0  0  0
  -24.8080  -15.9310   20.4390 H   0  0  0  0  0  0  0  0  0  0  0  0
  -26.4240  -15.6790   20.0190 H   0  0  0  0  0  0  0  0  0  0  0  0
  1  2  2  0
  1  3  1  0
  2  5  1  0
  3  6  2  0
  5  8  1  0
  5  4  2  0
  6  4  1  0
  6 51  1  0
  8  7  1  0
  9  8  1  0
  9 10  1  0
 11 22  2  0
 12 10  1  0
 12 17  1  0
 13 21  1  0
 13 23  1  0
 14 20  1  0
 14 16  1  0
 15 21  1  0
 16 15  1  0
 17 16  2  0
 18 19  1  0
 18 12  2  0
 19 14  2  0
 20 13  1  0
 21 11  1  0
 23 25  2  0
 24 23  1  0
 26 24  1  0
 27 36  2  0
 27 32  1  0
 28 24  1  0
 28 32  1  0
 29 28  1  0
 30 31  1  0
 30 29  1  0
 31 27  1  0
 32 33  2  0
 33 34  1  0
 35 34  2  0
 36 35  1  0
 37 11  1  0
 37 38  1  0
 37 47  1  0
 38 41  1  0
 39 43  1  0
 39 38  1  0
 40 39  2  0
 43 42  1  0
 45 43  1  0
 45 46  1  0
 45 44  1  0
 47 50  1  1
 47 48  1  0
 49 47  1  0
 51 56  1  0
 51 52  1  0
 52 54  1  0
 52 53  1  0
 52 55  1  0
 56 57  1  0
 58 66  1  0
 59 64  1  0
 60 61  1  0
 60 59  1  0
 62 61  1  0
 62 71  1  0
 62 63  1  0
 64 58  1  0
 64 63  1  0
 65 58  2  0
 66 57  1  0
 66 67  1  0
 68 69  2  0
 69 88  1  0
 70 69  1  0
 70 73  1  0
 71 68  1  0
 71 72  1  0
 72 70  2  0
 73 74  1  0
 74 75  2  0
 76 79  1  0
 76 75  1  0
 77 76  2  0
 78 77  1  0
 78 73  2  0
 79 80  1  0
 80 81  1  0
 81 82  2  0
 83 82  1  0
 83 87  1  0
 84 83  2  0
 85 80  2  0
 85 84  1  0
 86 85  1  0
 88 89  1  0
 89 92  1  0
 89 91  1  0
 90 88  2  0
 93 94  1  0
 93 68  1  0
 95 93  1  0
M  ISO  4   9 101  10 101  58 100  66 100
M  END
>  <TORSDO>  (4) 
F 22

>  <SCORE>  (4) 
-13.631

>  <name>  (4) 
3

>  <ligand_id>  (4) 
3

>  <original_smiles>  (4) 
[H]c1c([H])c([H])c2c(c1[H])C([H])([H])C([H])([H])C([H])([H])C2([H])N([H])C(=O)C1([H])N(C(=O)C([H])(N([H])C(=O)C([H])(N([H])C([H])([H])[H])C([H])([H])[H])C(C([H])([H])[H])(C([H])([H])[H])C([H])([H])[H])C([H])([H])c2c([H])c(OC([H])([H])C([H])(c3c([H])c([H])c([H])c(C([H])(C([H])([H])C([H])([H])N([H])C(=O)N4C([H])([H])C([H])([H])C([H])([H])C([H])(n5nc(-c6c([H])c([H])c(Oc7c([H])c([H])c(F)c([H])c7F)c([H])c6[H])c(C(=O)N([H])[H])c5N([H])[H])C4([H])[H])[N+]([H])([H])[H])c3[H])C([H])([H])[H])c([H])c([H])c2C1([H])[H]

>  <smiles>  (4) 
[H]c1c([H])c([H])c2c(c1[H])C([H])([H])C([H])([H])C([H])([H])C2([H])N([H])C(=O)C1([H])N(C(=O)C([H])(N([H])C(=O)C([H])(N([H])C([H])([H])[H])C([H])([H])[H])C(C([H])([H])[H])(C([H])([H])[H])C([H])([H])[H])C([H])([H])c2c([H])c(OC([H])([H])C([H])(c3c([H])c([H])c([H])c(C([H])(C([H])([H])C([H])([H])N([H])C(=O)N4C([H])([H])C([H])([H])C([H])([H])C([H])(n5nc(-c6c([H])c([H])c(Oc7c([H])c([H])c(F)c([H])c7F)c([H])c6[H])c(C(=O)N([H])[H])c5N([H])[H])C4([H])[H])[N+]([H])([H])[H])c3[H])C([H])([H])[H])c([H])c([H])c2C1([H])[H]

$$$$
4:0:0
     RDKit          3D

 96105  0  0  1  0  0  0  0  0999 V2000
  -26.4680  -22.5120   21.0660 C   0  0  0  0  0  3  0  0  0  0  0  0
  -28.8620  -22.4450   21.5170 C   0  0  0  0  0  3  0  0  0  0  0  0
  -26.4800  -23.9160   21.1930 C   0  0  0  0  0  3  0  0  0  0  0  0
  -28.8790  -23.8420   21.6400 C   0  0  0  0  0  3  0  0  0  0  0  0
  -27.6670  -21.7770   21.1820 C   0  0  0  0  0  0  0  0  0  0  0  0
  -27.7030  -24.5790   21.4190 C   0  0  0  0  0  0  0  0  0  0  0  0
  -27.6760  -20.2760   20.9570 C   0  0  0  0  0  2  0  0  0  0  0  0
  -28.1230  -19.8380   19.5440 C   0  0  0  0  0  2  0  0  0  0  0  0
  -30.0350  -18.9910   18.0440 C   0  0  0  0  0  2  0  0  0  0  0  0
  -30.5790  -19.6890   20.4000 C   0  0  0  0  0  2  0  0  0  0  0  0
  -30.0140  -17.5170   18.4730 C   0  0  0  0  0  2  0  0  0  0  0  0
  -30.6690  -18.2170   20.8270 C   0  0  0  0  0  2  0  0  0  0  0  0
  -29.6370  -19.9380   19.2020 C   0  0  0  0  0  3  0  0  0  0  0  0
  -30.9620  -17.2530   19.6620 C   0  0  0  0  0  3  0  0  0  0  0  0
  -31.4440  -14.8130   19.7200 C   0  0  0  0  0  0  0  0  0  0  0  0
  -31.1320  -12.4650   19.0590 C   0  0  0  0  0  2  0  0  0  0  0  0
  -30.1740  -12.4340   17.8480 C   0  0  0  0  0  2  0  0  0  0  0  0
  -28.7020  -12.4050   18.3080 C   0  0  0  0  0  2  0  0  0  0  0  0
  -28.3870  -13.4860   19.3770 C   0  0  0  0  0  3  0  0  0  0  0  0
  -29.4560  -13.4720   20.4960 C   0  0  0  0  0  2  0  0  0  0  0  0
  -30.7810  -13.6390   19.8680 N   0  0  0  0  0  0  0  0  0  0  0  0
  -32.5250  -14.9180   19.1300 O   0  0  0  0  0  0  0  0  0  0  0  0
  -30.7610  -15.8860   20.1280 N   0  0  0  0  0  0  0  0  0  0  0  0
  -29.9080  -15.6960   20.6290 H   0  0  0  0  0  0  0  0  0  0  0  0
  -26.0900  -14.2900   20.2330 C   0  0  0  0  0  0  0  0  0  0  0  0
  -24.9710  -13.6030   20.6320 C   0  0  0  0  0  0  0  0  0  0  0  0
  -25.2980  -12.2190   20.5210 C   0  0  0  0  0  0  0  0  0  0  0  0
  -27.0350  -13.3240   19.9160 N   0  0  0  0  0  0  0  0  0  0  0  0
  -26.5610  -12.0720   20.1410 N   0  0  0  0  0  0  0  0  0  0  0  0
  -24.4650  -11.0230   20.7030 C   0  0  0  0  0  0  0  0  0  0  0  0
  -24.8220  -10.0050   21.6140 C   0  0  0  0  0  3  0  0  0  0  0  0
  -23.9970   -8.8730   21.7850 C   0  0  0  0  0  3  0  0  0  0  0  0
  -22.7970   -8.7510   21.0420 C   0  0  0  0  0  0  0  0  0  0  0  0
  -22.4590   -9.7560   20.1180 C   0  0  0  0  0  3  0  0  0  0  0  0
  -23.2840  -10.8790   19.9460 C   0  0  0  0  0  3  0  0  0  0  0  0
  -21.9470   -7.6760   21.1240 O   0  0  0  0  0  0  0  0  0  0  0  0
  -21.7960   -6.9600   22.2850 C   0  0  0  0  0  0  0  0  0  0  0  0
  -21.3860   -7.5740   23.4910 C   0  0  0  0  0  3  0  0  0  0  0  0
  -21.1790   -6.7900   24.6430 C   0  0  0  0  0  3  0  0  0  0  0  0
  -21.3720   -5.3970   24.5920 C   0  0  0  0  0  0  0  0  0  0  0  0
  -21.7770   -4.7850   23.3920 C   0  0  0  0  0  3  0  0  0  0  0  0
  -21.9860   -5.5650   22.2430 C   0  0  0  0  0  0  0  0  0  0  0  0
  -22.3550   -4.9670   21.0830 F   0  0  0  0  0  0  0  0  0  0  0  0
  -21.1660   -4.6440   25.6970 F   0  0  0  0  0  0  0  0  0  0  0  0
  -23.6430  -14.1980   21.0040 C   0  0  0  0  0  0  0  0  0  0  0  0
  -22.9090  -13.5440   21.9020 N   0  0  0  0  0  0  0  0  0  0  0  0
  -23.2690  -15.2720   20.5390 O   0  0  0  0  0  0  0  0  0  0  0  0
  -23.2250  -12.6720   22.3010 H   0  0  0  0  0  0  0  0  0  0  0  0
  -22.0210  -13.9240   22.1940 H   0  0  0  0  0  0  0  0  0  0  0  0
  -26.3800  -15.6430   20.1020 N   0  0  0  0  0  0  0  0  0  0  0  0
  -25.6970  -16.3700   20.2850 H   0  0  0  0  0  0  0  0  0  0  0  0
  -27.2640  -16.0060   19.7690 H   0  0  0  0  0  0  0  0  0  0  0  0
  -27.8220  -26.0750   21.2650 C   0  0  0  0  0  2  0  0  0  0  0  0
  -28.6820  -26.3600   20.0210 C   0  0  0  0  0  2  0  0  0  0  0  0
  -27.9290  -26.2500   18.6840 C   0  0  0  0  0  2  0  0  0  0  0  0
  -27.5960  -27.5630   18.2930 O   0  0  0  0  0  0  0  0  0  0  0  0
  -24.3980  -31.8220   23.0080 C   0  0  0  0  0  0  0  0  0  0  0  0
  -26.4250  -28.0970   18.7580 C   0  0  0  0  0  0  0  0  0  0  0  0
  -22.9100  -30.6750   21.4000 C   0  0  0  0  0  3  0  0  0  0  0  0
  -24.0710  -29.4320   19.5080 C   0  0  0  0  0  0  0  0  0  0  0  0
  -25.3490  -31.1440   20.8080 C   0  0  0  0  0  2  0  0  0  0  0  0
  -25.3130  -29.9020   19.9510 C   0  0  0  0  0  0  0  0  0  0  0  0
  -26.4960  -29.2370   19.5740 C   0  0  0  0  0  3  0  0  0  0  0  0
  -25.1700  -27.6010   18.3490 C   0  0  0  0  0  3  0  0  0  0  0  0
  -23.9890  -28.2670   18.7230 C   0  0  0  0  0  3  0  0  0  0  0  0
  -22.8570  -30.2310   19.9170 C   0  0  0  0  0  2  0  0  0  0  0  0
  -24.2490  -31.2200   21.7960 N   0  0  0  0  0  0  0  0  0  0  0  0
  -23.4330  -31.9630   23.7720 O   0  0  0  0  0  0  0  0  0  0  0  0
  -22.4460  -29.4900   22.2760 C   0  0  0  0  0  0  0  0  0  0  0  0
  -21.1330  -29.2090   22.2480 N   0  0  0  0  0  0  0  0  0  0  0  0
  -23.2580  -28.8250   22.9240 O   0  0  0  0  0  0  0  0  0  0  0  0
  -20.5330  -29.7970   21.6870 H   0  0  0  0  0  0  0  0  0  0  0  0
  -17.9590  -27.5620   22.7400 C   0  0  0  0  0  0  0  0  0  0  0  0
  -20.4730  -28.1180   22.9620 C   0  0  0  0  0  3  0  0  0  0  0  0
  -20.7360  -26.7630   22.2650 C   0  0  0  0  0  2  0  0  0  0  0  0
  -19.6450  -26.3840   21.2610 C   0  0  0  0  0  2  0  0  0  0  0  0
  -18.2790  -26.3040   21.9500 C   0  0  0  0  0  2  0  0  0  0  0  0
  -18.9890  -28.4220   23.2010 C   0  0  0  0  0  0  0  0  0  0  0  0
  -18.6390  -29.6010   23.8940 C   0  0  0  0  0  3  0  0  0  0  0  0
  -17.2880  -29.9200   24.1350 C   0  0  0  0  0  3  0  0  0  0  0  0
  -16.2720  -29.0540   23.6970 C   0  0  0  0  0  3  0  0  0  0  0  0
  -16.6100  -27.8770   23.0040 C   0  0  0  0  0  3  0  0  0  0  0  0
  -25.7770  -32.3810   23.4840 C   0  0  0  0  0  3  0  0  0  0  0  0
  -25.5430  -33.7170   24.0470 N   0  0  0  0  0  0  0  0  0  0  0  0
  -25.7960  -34.8680   23.4080 C   0  0  0  0  0  0  0  0  0  0  0  0
  -26.3250  -34.9110   22.2940 O   0  0  0  0  0  0  0  0  0  0  0  0
  -25.0680  -33.7530   24.9360 H   0  0  0  0  0  0  0  0  0  0  0  0
  -24.0870  -36.7040   23.5230 C   0  0  0  0  0  1  0  0  0  0  0  0
  -25.4030  -36.1770   24.1170 C   0  0  0  0  0  3  0  0  0  0  0  0
  -27.6440  -36.9090   24.8000 C   0  0  0  0  0  1  0  0  0  0  0  0
  -26.4400  -37.2280   24.0340 N   0  0  0  0  0  0  0  0  0  0  0  0
  -26.0840  -38.1180   24.3690 H   0  0  0  0  0  0  0  0  0  0  0  0
  -26.4960  -31.4470   24.5370 C   0  0  1  0  0  0  0  0  0  0  0  0
  -25.6030  -31.0520   25.7380 C   0  0  0  0  0  1  0  0  0  0  0  0
  -26.9780  -30.1440   23.8630 C   0  0  0  0  0  1  0  0  0  0  0  0
  -27.7560  -32.1520   25.0900 C   0  0  0  0  0  1  0  0  0  0  0  0
  1  5  2  0
  1  3  1  0
  2  4  2  0
  3  6  2  0
  5  2  1  0
  6  4  1  0
  7  5  1  0
  8  7  1  0
  9 11  1  0
  9 13  1  0
 10 12  1  0
 11 14  1  0
 13  8  1  0
 13 10  1  0
 14 23  1  0
 14 12  1  0
 15 21  1  0
 15 23  1  0
 16 21  1  0
 17 18  1  0
 17 16  1  0
 19 18  1  0
 19 28  1  0
 19 20  1  0
 21 20  1  0
 22 15  2  0
 23 24  1  0
 25 26  2  0
 26 45  1  0
 27 26  1  0
 27 30  1  0
 28 29  1  0
 28 25  1  0
 29 27  2  0
 30 31  1  0
 31 32  2  0
 33 36  1  0
 33 32  1  0
 34 33  2  0
 35 34  1  0
 35 30  2  0
 36 37  1  0
 37 38  1  0
 38 39  2  0
 40 39  1  0
 40 44  1  0
 41 40  2  0
 42 37  2  0
 42 41  1  0
 43 42  1  0
 45 46  1  0
 46 49  1  0
 46 48  1  0
 47 45  2  0
 50 25  1  0
 50 51  1  0
 52 50  1  0
 53  6  1  0
 54 53  1  0
 55 54  1  0
 56 55  1  0
 56 58  1  0
 57 68  2  0
 58 63  1  0
 59 67  1  0
 59 69  1  0
 60 66  1  0
 60 62  1  0
 61 67  1  0
 62 61  1  0
 63 62  2  0
 64 65  1  0
 64 58  2  0
 65 60  2  0
 66 59  1  0
 67 57  1  0
 69 71  2  0
 70 69  1  0
 72 70  1  0
 73 82  2  0
 73 78  1  0
 74 70  1  0
 74 78  1  0
 75 74  1  0
 76 77  1  0
 76 75  1  0
 77 73  1  0
 78 79  2  0
 79 80  1  0
 81 80  2  0
 82 81  1  0
 83 57  1  0
 83 84  1  0
 83 93  1  0
 84 87  1  0
 85 84  1  0
 85 89  1  0
 86 85  2  0
 89 88  1  0
 91 89  1  0
 91 92  1  0
 91 90  1  0
 93 96  1  1
 93 94  1  0
 95 93  1  0
M  ISO  4  15 100  23 100  55 101  56 101
M  END
>  <TORSDO>  (5) 
F 22

>  <SCORE>  (5) 
-10.148

>  <name>  (5) 
4

>  <ligand_id>  (5) 
4

>  <original_smiles>  (5) 
[H]c1c([H])c([H])c2c(c1[H])C([H])([H])C([H])([H])C([H])([H])C2([H])N([H])C(=O)C1([H])N(C(=O)C([H])(N([H])C(=O)C([H])(N([H])C([H])([H])[H])C([H])([H])[H])C(C([H])([H])[H])(C([H])([H])[H])C([H])([H])[H])C([H])([H])c2c([H])c(OC([H])([H])C([H])([H])C([H])([H])c3c([H])c([H])c(C([H])([H])C([H])([H])C4([H])C([H])([H])C([H])([H])C([H])(N([H])C(=O)N5C([H])([H])C([H])([H])C([H])([H])C([H])(n6nc(-c7c([H])c([H])c(Oc8c([H])c([H])c(F)c([H])c8F)c([H])c7[H])c(C(=O)N([H])[H])c6N([H])[H])C5([H])[H])C([H])([H])C4([H])[H])c([H])c3[H])c([H])c([H])c2C1([H])[H]

>  <smiles>  (5) 
[H]c1c([H])c([H])c2c(c1[H])C([H])([H])C([H])([H])C([H])([H])C2([H])N([H])C(=O)C1([H])N(C(=O)C([H])(N([H])C(=O)C([H])(N([H])C([H])([H])[H])C([H])([H])[H])C(C([H])([H])[H])(C([H])([H])[H])C([H])([H])[H])C([H])([H])c2c([H])c(OC([H])([H])C([H])([H])C([H])([H])c3c([H])c([H])c(C([H])([H])C([H])([H])C4([H])C([H])([H])C([H])([H])C([H])(N([H])C(=O)N5C([H])([H])C([H])([H])C([H])([H])C([H])(n6nc(-c7c([H])c([H])c(Oc8c([H])c([H])c(F)c([H])c8F)c([H])c7[H])c(C(=O)N([H])[H])c6N([H])[H])C5([H])[H])C([H])([H])C4([H])[H])c([H])c3[H])c([H])c([H])c2C1([H])[H]

$$$$
5:0:0
     RDKit          3D

101104  0  0  1  0  0  0  0  0999 V2000
  -20.1750  -25.2660   21.2450 C   0  0  0  0  0  2  0  0  0  0  0  0
  -19.8080  -24.2740   18.6450 C   0  0  0  0  0  2  0  0  0  0  0  0
  -20.1680  -27.2030   18.6810 C   0  0  0  0  0  0  0  0  0  0  0  0
  -20.0500  -23.9400   20.2410 C   0  0  0  0  0  3  0  0  0  0  0  0
  -20.4140  -27.3000   20.3060 C   0  0  0  0  0  1  0  0  0  0  0  0
  -19.8970  -25.7580   17.9290 C   0  0  0  0  0  0  0  0  0  0  0  0
  -19.5060  -26.9310   15.8280 C   0  0  0  0  0  0  0  0  0  0  0  0
  -20.0100  -28.4530   17.8340 C   0  0  0  0  0  2  0  0  0  0  0  0
  -19.1290  -28.2050   16.5940 C   0  0  0  0  0  2  0  0  0  0  0  0
  -19.7510  -25.8110   16.5230 N   0  0  0  0  0  0  0  0  0  0  0  0
  -19.5610  -26.9470   14.5970 O   0  0  0  0  0  0  0  0  0  0  0  0
  -19.8790  -24.9560   16.0010 H   0  0  0  0  0  0  0  0  0  0  0  0
  -21.3480  -29.0890   21.2750 C   0  0  0  0  0 15  0  0  0  0  0  0
  -23.2170  -28.9870   22.7680 C   0  0  0  0  0 15  0  0  0  0  0  0
  -24.9070  -27.8920   23.0100 O   0  0  0  0  0  1  0  0  0  0  0  0
  -24.7930  -31.4910   21.9180 C   0  0  0  0  0  0  0  0  0  0  0  0
  -26.0900  -27.1040   22.4080 C   0  0  0  0  0  3  0  0  0  0  0  0
  -24.1470  -29.3420   20.2630 C   0  0  0  0  0  3  0  0  0  0  0  0
  -26.0700  -27.8360   19.9930 C   0  0  0  0  0  3  0  0  0  0  0  0
  -26.5290  -30.0170   21.1080 C   0  0  0  0  0  2  0  0  0  0  0  0
  -26.7470  -28.5540   20.9980 C   0  0  0  0  0  3  0  0  0  0  0  0
  -27.1830  -27.8910   22.1380 C   0  0  0  0  0  2  0  0  0  0  0  0
  -26.0870  -25.9890   21.4610 C   0  0  0  0  0  2  0  0  0  0  0  0
  -25.9990  -26.4220   20.1150 C   0  0  0  0  0  2  0  0  0  0  0  0
  -25.0500  -28.6400   19.2450 C   0  0  0  0  0  2  0  0  0  0  0  0
  -25.0900  -30.3300   21.1660 N   0  0  0  0  0  0  0  0  0  0  0  0
  -23.6760  -32.0190   21.8510 O   0  0  0  0  0  0  0  0  0  0  0  0
  -23.2710  -27.9090   20.7360 C   0  0  0  0  0  0  0  0  0  0  0  0
  -22.6750  -27.3730   21.9740 N   0  0  0  0  0  2  0  0  0  0  0  0
  -23.6280  -26.8340   20.6030 O   0  0  0  0  0  0  0  0  0  0  0  0
  -22.7510  -26.3850   21.8060 H   0  0  0  0  0  0  0  0  0  0  0  0
  -18.4610  -27.1680   23.3080 C   0  0  0  0  0  3  0  0  0  0  0  0
  -21.8200  -27.6170   23.4250 C   0  0  0  0  0  1  0  0  0  0  0  0
  -22.5490  -26.0780   22.7780 C   0  0  0  0  0  2  0  0  0  0  0  0
  -21.4780  -25.2610   21.4730 C   0  0  0  0  0  2  0  0  0  0  0  0
  -18.5240  -25.8440   22.1650 C   0  0  0  0  0  1  0  0  0  0  0  0
  -19.7650  -28.0540   23.7570 C   0  0  0  0  0  2  0  0  0  0  0  0
  -19.1530  -29.3640   23.7980 C   0  0  0  0  0  3  0  0  0  0  0  0
  -17.7520  -29.6780   23.7130 C   0  0  0  0  0  3  0  0  0  0  0  0
  -16.7340  -28.7090   23.7290 C   0  0  0  0  0  3  0  0  0  0  0  0
  -17.1150  -27.3960   23.5870 C   0  0  0  0  0  3  0  0  0  0  0  0
  -25.7660  -32.1860   22.9990 C   0  0  0  0  0  3  0  0  0  0  0  0
  -26.0690  -31.4150   24.3720 C   0  0  1  0  0  0  0  0  0  0  0  0
  -24.8110  -30.8690   25.1010 C   0  0  0  0  0  1  0  0  0  0  0  0
  -27.1010  -30.2780   24.1800 C   0  0  0  0  0  1  0  0  0  0  0  0
  -26.7600  -32.3650   25.3890 C   0  0  0  0  0  1  0  0  0  0  0  0
  -25.2010  -33.5010   23.3340 N   0  0  0  0  0  0  0  0  0  0  0  0
  -25.7410  -34.6740   22.9760 C   0  0  0  0  0  0  0  0  0  0  0  0
  -26.8000  -34.7550   22.3440 O   0  0  0  0  0  0  0  0  0  0  0  0
  -24.3000  -33.5020   23.7940 H   0  0  0  0  0  0  0  0  0  0  0  0
  -24.1720  -36.4430   22.1370 C   0  0  0  0  0  1  0  0  0  0  0  0
  -24.9770  -35.9560   23.3520 C   0  0  0  0  0  3  0  0  0  0  0  0
  -26.4820  -36.7530   25.1250 C   0  0  0  0  0  1  0  0  0  0  0  0
  -25.8520  -37.0470   23.8390 N   0  0  0  0  0  0  0  0  0  0  0  0
  -25.3270  -37.9120   23.9380 H   0  0  0  0  0  0  0  0  0  0  0  0
  -21.0330  -22.5890   20.5420 C   0  0  0  0  0  2  0  0  0  0  0  0
  -22.6430  -22.2390   19.9660 C   0  0  0  0  0  3  0  0  0  0  0  0
  -23.2590  -21.1260   18.8140 C   0  0  0  0  0  3  0  0  0  0  0  0
  -24.7990  -21.1660   18.0390 C   0  0  0  0  0  2  0  0  0  0  0  0
  -25.7380  -19.8710   17.3920 C   0  0  0  0  0  2  0  0  0  0  0  0
  -27.4510  -19.6470   17.3820 C   0  0  0  0  0  2  0  0  0  0  0  0
  -28.3480  -18.2470   17.8410 C   0  0  0  0  0  2  0  0  0  0  0  0
  -30.0000  -18.0190   18.3220 C   0  0  0  0  0  2  0  0  0  0  0  0
  -31.7320  -16.3690   20.0060 C   0  0  0  0  0  0  0  0  0  0  0  0
  -32.3520  -14.0770   20.9560 C   0  0  0  0  0  2  0  0  0  0  0  0
  -31.7980  -13.0090   19.9740 C   0  0  0  0  0  2  0  0  0  0  0  0
  -30.2750  -12.8010   20.1540 C   0  0  0  0  0  2  0  0  0  0  0  0
  -29.5260  -14.1480   20.2870 C   0  0  0  0  0  3  0  0  0  0  0  0
  -30.1830  -15.0180   21.3700 C   0  0  0  0  0  2  0  0  0  0  0  0
  -31.5040  -15.2980   20.8470 N   0  0  0  0  0  0  0  0  0  0  0  0
  -32.9320  -16.6310   19.7840 O   0  0  0  0  0  0  0  0  0  0  0  0
  -30.5400  -16.9360   19.3870 N   0  0  0  0  0  0  0  0  0  0  0  0
  -29.7490  -16.4550   19.7850 H   0  0  0  0  0  0  0  0  0  0  0  0
  -27.1560  -15.0070   20.6430 C   0  0  0  0  0  0  0  0  0  0  0  0
  -25.9780  -14.3630   20.8700 C   0  0  0  0  0  0  0  0  0  0  0  0
  -26.3010  -12.9730   20.8970 C   0  0  0  0  0  0  0  0  0  0  0  0
  -28.1150  -14.0160   20.5490 N   0  0  0  0  0  0  0  0  0  0  0  0
  -27.6050  -12.7880   20.7720 N   0  0  0  0  0  0  0  0  0  0  0  0
  -25.4360  -11.8000   20.9600 C   0  0  0  0  0  0  0  0  0  0  0  0
  -25.6130  -10.8100   21.9510 C   0  0  0  0  0  3  0  0  0  0  0  0
  -24.7540   -9.6920   21.9940 C   0  0  0  0  0  3  0  0  0  0  0  0
  -23.7110   -9.5630   21.0470 C   0  0  0  0  0  0  0  0  0  0  0  0
  -23.5610  -10.5400   20.0470 C   0  0  0  0  0  3  0  0  0  0  0  0
  -24.4200  -11.6490   20.0000 C   0  0  0  0  0  3  0  0  0  0  0  0
  -22.8440   -8.5000   20.9990 O   0  0  0  0  0  0  0  0  0  0  0  0
  -22.5190   -7.7920   22.1270 C   0  0  0  0  0  0  0  0  0  0  0  0
  -21.8620   -8.3940   23.2230 C   0  0  0  0  0  3  0  0  0  0  0  0
  -21.4850   -7.6100   24.3320 C   0  0  0  0  0  3  0  0  0  0  0  0
  -21.7560   -6.2280   24.3430 C   0  0  0  0  0  0  0  0  0  0  0  0
  -22.4070   -5.6280   23.2500 C   0  0  0  0  0  3  0  0  0  0  0  0
  -22.7850   -6.4080   22.1450 C   0  0  0  0  0  0  0  0  0  0  0  0
  -23.3940   -5.8240   21.0840 F   0  0  0  0  0  0  0  0  0  0  0  0
  -21.3850   -5.4740   25.4040 F   0  0  0  0  0  0  0  0  0  0  0  0
  -24.6190  -14.9930   20.9380 C   0  0  0  0  0  0  0  0  0  0  0  0
  -23.7090  -14.3960   21.6970 N   0  0  0  0  0  0  0  0  0  0  0  0
  -24.3740  -16.0490   20.3540 O   0  0  0  0  0  0  0  0  0  0  0  0
  -23.9200  -13.5440   22.1940 H   0  0  0  0  0  0  0  0  0  0  0  0
  -22.7880  -14.8020   21.7870 H   0  0  0  0  0  0  0  0  0  0  0  0
  -27.4710  -16.3430   20.4730 N   0  0  0  0  0  0  0  0  0  0  0  0
  -26.7320  -17.0360   20.4410 H   0  0  0  0  0  0  0  0  0  0  0  0
  -28.3570  -16.6970   20.1420 H   0  0  0  0  0  0  0  0  0  0  0  0
  1 35  1  0
  3  5  1  0
  4  2  1  0
  4 56  1  0
  4  1  1  0
  6  2  1  0
  6  3  2  0
  7 10  1  0
  7  9  1  0
  8  3  1  0
  9  8  1  0
 10  6  1  0
 11  7  2  0
 12 10  1  0
 17 15  1  0
 18 28  1  0
 18 26  1  0
 19 25  1  0
 19 24  1  0
 19 21  1  0
 20 26  1  0
 21 20  1  0
 21 22  1  0
 22 17  1  0
 23 17  1  0
 24 23  1  0
 25 18  1  0
 26 16  1  0
 27 16  2  0
 28 29  1  0
 30 28  2  0
 31 29  1  0
 32 36  1  0
 32 41  1  0
 32 37  1  0
 34 33  1  0
 35 34  1  0
 37 38  1  0
 39 40  1  0
 39 38  2  0
 41 40  2  0
 42 16  1  0
 42 47  1  0
 42 43  1  0
 43 44  1  1
 43 46  1  0
 45 43  1  0
 47 50  1  0
 48 47  1  0
 48 52  1  0
 49 48  2  0
 52 51  1  0
 52 54  1  0
 54 55  1  0
 54 53  1  0
 57 56  1  0
 58 57  2  0
 59 58  1  0
 60 59  1  0
 61 60  1  0
 61 62  1  0
 62 63  1  0
 63 72  1  0
 64 70  1  0
 66 67  1  0
 66 65  1  0
 68 67  1  0
 68 77  1  0
 68 69  1  0
 70 65  1  0
 70 69  1  0
 71 64  2  0
 72 73  1  0
 72 64  1  0
 74 75  2  0
 75 76  1  0
 75 94  1  0
 76 79  1  0
 77 74  1  0
 77 78  1  0
 78 76  2  0
 79 80  1  0
 80 81  2  0
 82 81  1  0
 83 82  2  0
 84 83  1  0
 84 79  2  0
 85 82  1  0
 85 86  1  0
 86 91  2  0
 86 87  1  0
 87 88  2  0
 88 89  1  0
 89 93  1  0
 90 89  2  0
 91 90  1  0
 92 91  1  0
 94 95  1  0
 95 98  1  0
 95 97  1  0
 96 94  2  0
 99 74  1  0
100 99  1  0
101 99  1  0
M  ISO  4  14 101  15 101  64 100  72 100
M  END
>  <TORSDO>  (6) 
F 26

>  <SCORE>  (6) 
-3.728

>  <name>  (6) 
5

>  <ligand_id>  (6) 
5

>  <original_smiles>  (6) 
[H]c1c([H])c([H])c2c(c1[H])C([H])([H])C([H])([H])C([H])([H])C2([H])N([H])C(=O)C1([H])N(C(=O)C([H])(N([H])C(=O)C([H])(N([H])C([H])([H])[H])C([H])([H])[H])C(C([H])([H])[H])(C([H])([H])[H])C([H])([H])[H])C([H])([H])c2c([H])c(OC([H])([H])C([H])([H])c3c([H])c(C([H])([H])C([H])([H])C([H])([H])C([H])([H])C([H])([H])C([H])([H])C([H])([H])C([H])([H])N([H])C(=O)N4C([H])([H])C([H])([H])C([H])([H])C([H])(n5nc(-c6c([H])c([H])c(Oc7c([H])c([H])c(F)c([H])c7F)c([H])c6[H])c(C(=O)N([H])[H])c5N([H])[H])C4([H])[H])c([H])c4c3C([H])([H])C([H])([H])C(=O)N4[H])c([H])c([H])c2C1([H])[H]

>  <smiles>  (6) 
[H]c1c([H])c([H])c2c(c1[H])C([H])([H])C([H])([H])C([H])([H])C2([H])N([H])C(=O)C1([H])N(C(=O)C([H])(N([H])C(=O)C([H])(N([H])C([H])([H])[H])C([H])([H])[H])C(C([H])([H])[H])(C([H])([H])[H])C([H])([H])[H])C([H])([H])c2c([H])c(OC([H])([H])C([H])([H])c3c([H])c(C([H])([H])C([H])([H])C([H])([H])C([H])([H])C([H])([H])C([H])([H])C([H])([H])C([H])([H])N([H])C(=O)N4C([H])([H])C([H])([H])C([H])([H])C([H])(n5nc(-c6c([H])c([H])c(Oc7c([H])c([H])c(F)c([H])c7F)c([H])c6[H])c(C(=O)N([H])[H])c5N([H])[H])C4([H])[H])c([H])c4c3C([H])([H])C([H])([H])C(=O)N4[H])c([H])c([H])c2C1([H])[H]

$$$$
6:0:0
     RDKit          3D

 96101  0  0  1  0  0  0  0  0999 V2000
  -30.8580  -26.7720   12.5240 C   0  0  0  0  0  3  0  0  0  0  0  0
  -31.4160  -26.4210   11.2820 C   0  0  0  0  0  3  0  0  0  0  0  0
  -31.6810  -24.6560   13.3910 C   0  0  0  0  0  3  0  0  0  0  0  0
  -30.9600  -25.9180   13.6310 C   0  0  0  0  0  0  0  0  0  0  0  0
  -32.1100  -25.2060   11.0640 C   0  0  0  0  0  0  0  0  0  0  0  0
  -32.2770  -24.2450   12.1070 C   0  0  0  0  0  0  0  0  0  0  0  0
  -32.6640  -25.0150    9.6640 C   0  0  0  0  0  1  0  0  0  0  0  0
  -30.1030  -26.3160   14.9340 C   0  0  0  0  0  2  0  0  0  0  0  0
  -24.6460  -27.0040   17.7120 C   0  0  0  0  0  0  0  0  0  0  0  0
  -23.8310  -26.3220   19.9980 C   0  0  0  0  0  2  0  0  0  0  0  0
  -24.9810  -26.4820   21.0210 C   0  0  0  0  0  2  0  0  0  0  0  0
  -25.9380  -25.2720   20.9880 C   0  0  0  0  0  2  0  0  0  0  0  0
  -26.3220  -24.8690   19.5410 C   0  0  0  0  0  3  0  0  0  0  0  0
  -25.0640  -24.7350   18.6730 C   0  0  0  0  0  2  0  0  0  0  0  0
  -24.4250  -26.0440   18.6670 N   0  0  0  0  0  0  0  0  0  0  0  0
  -24.0220  -28.0790   17.8070 O   0  0  0  0  0  0  0  0  0  0  0  0
  -28.2110  -27.5660   16.3230 C   0  0  0  0  0  2  0  0  0  0  0  0
  -27.3940  -25.5200   15.2670 C   0  0  0  0  0  2  0  0  0  0  0  0
  -26.7130  -27.9850   16.6130 C   0  0  0  0  0  2  0  0  0  0  0  0
  -25.9130  -25.9950   15.6670 C   0  0  0  0  0  2  0  0  0  0  0  0
  -28.4910  -26.6430   15.0790 C   0  0  0  0  0  3  0  0  0  0  0  0
  -25.7900  -26.8570   16.8930 N   0  0  0  0  0  0  0  0  0  0  0  0
  -27.5120  -22.8220   20.5270 C   0  0  0  0  0  0  0  0  0  0  0  0
  -28.2020  -21.8000   19.9420 C   0  0  0  0  0  0  0  0  0  0  0  0
  -28.1640  -22.0560   18.5370 C   0  0  0  0  0  0  0  0  0  0  0  0
  -27.1080  -23.6480   19.4900 N   0  0  0  0  0  0  0  0  0  0  0  0
  -27.5560  -23.2070   18.2900 N   0  0  0  0  0  0  0  0  0  0  0  0
  -28.6100  -21.2390   17.4070 C   0  0  0  0  0  0  0  0  0  0  0  0
  -29.7100  -21.6200   16.6080 C   0  0  0  0  0  3  0  0  0  0  0  0
  -30.1310  -20.8050   15.5370 C   0  0  0  0  0  3  0  0  0  0  0  0
  -29.4520  -19.5950   15.2570 C   0  0  0  0  0  0  0  0  0  0  0  0
  -28.3430  -19.2330   16.0410 C   0  0  0  0  0  3  0  0  0  0  0  0
  -27.9210  -20.0480   17.1030 C   0  0  0  0  0  3  0  0  0  0  0  0
  -29.7730  -18.7540   14.2190 O   0  0  0  0  0  0  0  0  0  0  0  0
  -31.0020  -18.7960   13.6150 C   0  0  0  0  0  0  0  0  0  0  0  0
  -32.1240  -18.1350   14.1610 C   0  0  0  0  0  3  0  0  0  0  0  0
  -33.3510  -18.1430   13.4670 C   0  0  0  0  0  3  0  0  0  0  0  0
  -33.4560  -18.8050   12.2280 C   0  0  0  0  0  0  0  0  0  0  0  0
  -32.3380  -19.4600   11.6820 C   0  0  0  0  0  3  0  0  0  0  0  0
  -31.1130  -19.4520   12.3730 C   0  0  0  0  0  0  0  0  0  0  0  0
  -30.0340  -20.0650   11.8310 F   0  0  0  0  0  0  0  0  0  0  0  0
  -34.6330  -18.8090   11.5590 F   0  0  0  0  0  0  0  0  0  0  0  0
  -28.7670  -20.5940   20.6340 C   0  0  0  0  0  0  0  0  0  0  0  0
  -29.8070  -20.7810   21.4370 N   0  0  0  0  0  0  0  0  0  0  0  0
  -28.2550  -19.4820   20.5040 O   0  0  0  0  0  0  0  0  0  0  0  0
  -30.2140  -21.6960   21.5620 H   0  0  0  0  0  0  0  0  0  0  0  0
  -30.2000  -19.9980   21.9370 H   0  0  0  0  0  0  0  0  0  0  0  0
  -27.1670  -23.0880   21.8460 N   0  0  0  0  0  0  0  0  0  0  0  0
  -27.3790  -22.4300   22.5860 H   0  0  0  0  0  0  0  0  0  0  0  0
  -26.5670  -23.8470   22.1430 H   0  0  0  0  0  0  0  0  0  0  0  0
  -33.1840  -22.9070   11.8690 C   0  0  0  0  0  2  0  0  0  0  0  0
  -33.9810  -22.5250   10.4690 C   0  0  0  0  0  2  0  0  0  0  0  0
  -35.5880  -22.1110   10.1790 C   0  0  0  0  0  2  0  0  0  0  0  0
  -36.9190  -22.8660    9.3480 C   0  0  0  0  0  1  0  0  0  0  0  0
  -39.8560  -22.2130   10.1790 C   0  0  0  0  0 15  0  0  0  0  0  0
  -40.9860  -23.3880   11.4210 O   0  0  0  0  0  1  0  0  0  0  0  0
  -39.2470  -28.2870   12.3020 C   0  0  0  0  0  0  0  0  0  0  0  0
  -42.1290  -23.6700   12.4280 C   0  0  0  0  0  3  0  0  0  0  0  0
  -40.2490  -26.8280   10.6530 C   0  0  0  0  0  3  0  0  0  0  0  0
  -42.5300  -25.7140   11.1440 C   0  0  0  0  0  3  0  0  0  0  0  0
  -41.5200  -27.3270   12.7790 C   0  0  0  0  0  2  0  0  0  0  0  0
  -42.1910  -26.0010   12.4730 C   0  0  0  0  0  3  0  0  0  0  0  0
  -42.1200  -24.8520   13.2780 C   0  0  0  0  0  2  0  0  0  0  0  0
  -43.3690  -23.5470   11.8530 C   0  0  0  0  0  2  0  0  0  0  0  0
  -43.2840  -24.5330   10.8650 C   0  0  0  0  0  2  0  0  0  0  0  0
  -41.6730  -26.3910   10.1200 C   0  0  0  0  0  2  0  0  0  0  0  0
  -40.3340  -27.5610   11.9270 N   0  0  0  0  0  0  0  0  0  0  0  0
  -38.2600  -28.4140   11.5560 O   0  0  0  0  0  0  0  0  0  0  0  0
  -39.1960  -25.7250   10.9080 C   0  0  0  0  0  0  0  0  0  0  0  0
  -38.7780  -25.5620   12.1230 N   0  0  0  0  0  0  0  0  0  0  0  0
  -38.7470  -24.9780   10.0450 O   0  0  0  0  0  0  0  0  0  0  0  0
  -39.1940  -26.0770   12.8840 H   0  0  0  0  0  0  0  0  0  0  0  0
  -37.4030  -25.3430   15.2420 C   0  0  0  0  0  0  0  0  0  0  0  0
  -37.5160  -24.9020   12.3870 C   0  0  0  0  0  2  0  0  0  0  0  0
  -35.6190  -25.6060   11.6930 C   0  0  0  0  0 15  0  0  0  0  0  0
  -34.9200  -26.8320   13.5490 C   0  0  0  0  0  1  0  0  0  0  0  0
  -36.1540  -26.5790   15.0580 C   0  0  0  0  0  2  0  0  0  0  0  0
  -38.0400  -24.7150   14.0440 C   0  0  0  0  0  0  0  0  0  0  0  0
  -39.1330  -23.7990   14.3080 C   0  0  0  0  0  3  0  0  0  0  0  0
  -39.5370  -23.3410   15.5900 C   0  0  0  0  0  3  0  0  0  0  0  0
  -38.7810  -23.7330   16.7030 C   0  0  0  0  0  3  0  0  0  0  0  0
  -37.7340  -24.6900   16.5180 C   0  0  0  0  0  3  0  0  0  0  0  0
  -39.2100  -29.0050   13.6680 C   0  0  0  0  0  3  0  0  0  0  0  0
  -40.0860  -28.2230   14.5450 N   0  0  0  0  0  0  0  0  0  0  0  0
  -39.8060  -27.9360   15.8190 C   0  0  0  0  0  0  0  0  0  0  0  0
  -38.8260  -28.3980   16.4100 O   0  0  0  0  0  0  0  0  0  0  0  0
  -40.8760  -27.7710   14.1100 H   0  0  0  0  0  0  0  0  0  0  0  0
  -40.3650  -26.8870   18.0350 C   0  0  0  0  0  1  0  0  0  0  0  0
  -40.7760  -26.9990   16.5590 C   0  0  0  0  0  3  0  0  0  0  0  0
  -43.1290  -26.3150   16.4520 C   0  0  0  0  0  1  0  0  0  0  0  0
  -42.1870  -27.4310   16.4610 N   0  0  0  0  0  0  0  0  0  0  0  0
  -42.4290  -28.0440   17.2350 H   0  0  0  0  0  0  0  0  0  0  0  0
  -39.6820  -30.5050   13.6000 C   0  0  1  0  0  0  0  0  0  0  0  0
  -40.5690  -30.9470   14.7870 C   0  0  0  0  0  1  0  0  0  0  0  0
  -40.4690  -30.7810   12.2970 C   0  0  0  0  0  1  0  0  0  0  0  0
  -38.4360  -31.4190   13.5650 C   0  0  0  0  0  1  0  0  0  0  0  0
  1  4  1  0
  2  1  2  0
  3  4  2  0
  4  8  1  0
  5  2  1  0
  5  6  2  0
  6  3  1  0
  7  5  1  0
  9 16  2  0
  9 15  1  0
 10 11  1  0
 12 11  1  0
 13 14  1  0
 13 12  1  0
 15 14  1  0
 15 10  1  0
 17 19  1  0
 18 20  1  0
 19 22  1  0
 20 22  1  0
 21  8  1  0
 21 18  1  0
 21 17  1  0
 22  9  1  0
 23 48  1  0
 24 23  2  0
 24 43  1  0
 25 24  1  0
 26 13  1  0
 26 23  1  0
 27 25  2  0
 27 26  1  0
 28 25  1  0
 29 28  2  0
 30 29  1  0
 31 30  2  0
 31 32  1  0
 32 33  2  0
 33 28  1  0
 34 31  1  0
 35 36  1  0
 35 34  1  0
 37 36  2  0
 38 37  1  0
 39 38  2  0
 39 40  1  0
 40 35  2  0
 41 40  1  0
 42 38  1  0
 43 44  1  0
 44 46  1  0
 44 47  1  0
 45 43  2  0
 48 50  1  0
 48 49  1  0
 51  6  1  0
 52 51  1  0
 53 52  1  0
 54 53  1  0
 58 56  1  0
 58 63  1  0
 59 69  1  0
 59 67  1  0
 60 66  1  0
 60 62  1  0
 62 61  1  0
 62 63  1  0
 64 58  1  0
 65 60  1  0
 65 64  1  0
 66 59  1  0
 67 57  1  0
 67 61  1  0
 68 57  2  0
 69 70  1  0
 70 74  1  0
 70 72  1  0
 71 69  2  0
 73 82  1  0
 74 78  1  0
 76 77  1  0
 77 73  1  0
 78 79  1  0
 78 73  2  0
 79 80  2  0
 80 81  1  0
 82 81  2  0
 83 57  1  0
 83 84  1  0
 84 85  1  0
 85 86  2  0
 85 89  1  0
 87 84  1  0
 89 88  1  0
 90 91  1  0
 91 89  1  0
 91 92  1  0
 93 83  1  0
 93 94  1  1
 95 93  1  0
 96 93  1  0
M  ISO  4   9 100  22 100  55 101  56 101
M  END
>  <TORSDO>  (7) 
F 22

>  <SCORE>  (7) 
-3.153

>  <name>  (7) 
6

>  <ligand_id>  (7) 
6

>  <original_smiles>  (7) 
[H]c1c([H])c([H])c2c(c1[H])C([H])([H])C([H])([H])C([H])([H])C2([H])N([H])C(=O)C1([H])N(C(=O)C([H])(N([H])C(=O)C([H])(N([H])C([H])([H])[H])C([H])([H])[H])C(C([H])([H])[H])(C([H])([H])[H])C([H])([H])[H])C([H])([H])c2c([H])c(OC([H])([H])C([H])([H])C([H])([H])C([H])([H])C([H])([H])c3c([H])c(C([H])([H])C4([H])C([H])([H])C([H])([H])N(C(=O)N5C([H])([H])C([H])([H])C([H])([H])C([H])(n6nc(-c7c([H])c([H])c(Oc8c([H])c([H])c(F)c([H])c8F)c([H])c7[H])c(C(=O)N([H])[H])c6N([H])[H])C5([H])[H])C([H])([H])C4([H])[H])c([H])c([H])c3C([H])([H])[H])c([H])c([H])c2C1([H])[H]

>  <smiles>  (7) 
[H]c1c([H])c([H])c2c(c1[H])C([H])([H])C([H])([H])C([H])([H])C2([H])N([H])C(=O)C1([H])N(C(=O)C([H])(N([H])C(=O)C([H])(N([H])C([H])([H])[H])C([H])([H])[H])C(C([H])([H])[H])(C([H])([H])[H])C([H])([H])[H])C([H])([H])c2c([H])c(OC([H])([H])C([H])([H])C([H])([H])C([H])([H])C([H])([H])c3c([H])c(C([H])([H])C4([H])C([H])([H])C([H])([H])N(C(=O)N5C([H])([H])C([H])([H])C([H])([H])C([H])(n6nc(-c7c([H])c([H])c(Oc8c([H])c([H])c(F)c([H])c8F)c([H])c7[H])c(C(=O)N([H])[H])c6N([H])[H])C5([H])[H])C([H])([H])C4([H])[H])c([H])c([H])c3C([H])([H])[H])c([H])c([H])c2C1([H])[H]

$$$$
7:0:0
     RDKit          3D

 99107  0  0  1  0  0  0  0  0999 V2000
  -29.1400  -23.3840   22.4760 C   0  0  0  0  0  3  0  0  0  0  0  0
  -30.3910  -23.7230   21.9330 C   0  0  0  0  0  3  0  0  0  0  0  0
  -28.0090  -23.3280   21.6450 C   0  0  0  0  0  3  0  0  0  0  0  0
  -30.5330  -23.9710   20.5500 C   0  0  0  0  0  0  0  0  0  0  0  0
  -28.1200  -23.5990   20.2650 C   0  0  0  0  0  0  0  0  0  0  0  0
  -29.3930  -23.8960   19.7070 C   0  0  0  0  0  0  0  0  0  0  0  0
  -31.8710  -24.3560   20.0140 C   0  0  0  0  0  0  0  0  0  0  0  0
  -32.0690  -25.3530   19.3120 O   0  0  0  0  0  0  0  0  0  0  0  0
  -33.0480  -23.4230   20.3130 C   0  0  0  0  0  2  0  0  0  0  0  0
  -33.3030  -22.3960   19.1910 C   0  0  0  0  0  2  0  0  0  0  0  0
  -32.3440  -21.1910   19.1640 C   0  0  0  0  0  2  0  0  0  0  0  0
  -32.2540  -20.4160   20.4910 C   0  0  0  0  0  2  0  0  0  0  0  0
  -31.3780  -19.1630   20.3510 C   0  0  0  0  0  2  0  0  0  0  0  0
  -31.0720  -18.4680   21.6880 C   0  0  0  0  0  2  0  0  0  0  0  0
  -30.4510  -17.0730   21.5030 C   0  0  0  0  0  2  0  0  0  0  0  0
  -31.5090  -15.9610   21.3920 C   0  0  0  0  0  2  0  0  0  0  0  0
  -31.2270  -13.7910   20.1750 C   0  0  0  0  0  0  0  0  0  0  0  0
  -30.7970  -11.5320   19.2830 C   0  0  0  0  0  2  0  0  0  0  0  0
  -29.8400  -11.5530   18.0790 C   0  0  0  0  0  2  0  0  0  0  0  0
  -28.3690  -11.5350   18.5390 C   0  0  0  0  0  2  0  0  0  0  0  0
  -28.0770  -12.5970   19.6320 C   0  0  0  0  0  3  0  0  0  0  0  0
  -29.1290  -12.5240   20.7580 C   0  0  0  0  0  2  0  0  0  0  0  0
  -30.4730  -12.6640   20.1610 N   0  0  0  0  0  0  0  0  0  0  0  0
  -32.2030  -13.9720   19.4370 O   0  0  0  0  0  0  0  0  0  0  0  0
  -30.8830  -14.6720   21.1190 N   0  0  0  0  0  0  0  0  0  0  0  0
  -30.1250  -14.3900   21.7250 H   0  0  0  0  0  0  0  0  0  0  0  0
  -25.7660  -13.4350   20.4070 C   0  0  0  0  0  0  0  0  0  0  0  0
  -24.6480  -12.7680   20.8350 C   0  0  0  0  0  0  0  0  0  0  0  0
  -24.9890  -11.3810   20.8230 C   0  0  0  0  0  0  0  0  0  0  0  0
  -26.7200  -12.4590   20.1610 N   0  0  0  0  0  0  0  0  0  0  0  0
  -26.2570  -11.2200   20.4670 N   0  0  0  0  0  0  0  0  0  0  0  0
  -24.1660  -10.1910   21.0730 C   0  0  0  0  0  0  0  0  0  0  0  0
  -24.5450   -9.2120   22.0200 C   0  0  0  0  0  3  0  0  0  0  0  0
  -23.7230   -8.0890   22.2560 C   0  0  0  0  0  3  0  0  0  0  0  0
  -22.5110   -7.9340   21.5440 C   0  0  0  0  0  0  0  0  0  0  0  0
  -22.1500   -8.8990   20.5870 C   0  0  0  0  0  3  0  0  0  0  0  0
  -22.9700  -10.0140   20.3480 C   0  0  0  0  0  3  0  0  0  0  0  0
  -21.6650   -6.8610   21.6870 O   0  0  0  0  0  0  0  0  0  0  0  0
  -21.6120   -6.1330   22.8490 C   0  0  0  0  0  0  0  0  0  0  0  0
  -21.2240   -6.7170   24.0750 C   0  0  0  0  0  3  0  0  0  0  0  0
  -21.1180   -5.9200   25.2320 C   0  0  0  0  0  3  0  0  0  0  0  0
  -21.3880   -4.5400   25.1640 C   0  0  0  0  0  0  0  0  0  0  0  0
  -21.7690   -3.9560   23.9440 C   0  0  0  0  0  3  0  0  0  0  0  0
  -21.8780   -4.7500   22.7890 C   0  0  0  0  0  0  0  0  0  0  0  0
  -22.2240   -4.1790   21.6090 F   0  0  0  0  0  0  0  0  0  0  0  0
  -21.2800   -3.7700   26.2730 F   0  0  0  0  0  0  0  0  0  0  0  0
  -23.3080  -13.3730   21.1440 C   0  0  0  0  0  0  0  0  0  0  0  0
  -22.5510  -12.7500   22.0400 N   0  0  0  0  0  0  0  0  0  0  0  0
  -22.9450  -14.4280   20.6270 O   0  0  0  0  0  0  0  0  0  0  0  0
  -22.8570  -11.8940   22.4780 H   0  0  0  0  0  0  0  0  0  0  0  0
  -21.6500  -13.1330   22.2890 H   0  0  0  0  0  0  0  0  0  0  0  0
  -26.0480  -14.7810   20.1880 N   0  0  0  0  0  0  0  0  0  0  0  0
  -25.3630  -15.5180   20.3130 H   0  0  0  0  0  0  0  0  0  0  0  0
  -26.9360  -15.1240   19.8400 H   0  0  0  0  0  0  0  0  0  0  0  0
  -29.4500  -22.9770   17.5330 C   0  0  0  0  0  1  0  0  0  0  0  0
  -29.5300  -24.1340   18.3600 O   0  0  0  0  0  0  0  0  0  0  0  0
  -26.8430  -23.6150   19.4320 C   0  0  0  0  0  2  0  0  0  0  0  0
  -26.6220  -24.9360   18.6770 C   0  0  0  0  0  2  0  0  0  0  0  0
  -26.8150  -26.0590   19.5380 O   0  0  0  0  0  0  0  0  0  0  0  0
  -24.4670  -31.5570   23.3530 C   0  0  0  0  0  0  0  0  0  0  0  0
  -25.7660  -26.9200   19.7540 C   0  0  0  0  0  0  0  0  0  0  0  0
  -22.7990  -30.5120   21.8550 C   0  0  0  0  0  3  0  0  0  0  0  0
  -23.7160  -28.8140   20.1880 C   0  0  0  0  0  0  0  0  0  0  0  0
  -25.2930  -30.3990   21.3090 C   0  0  0  0  0  2  0  0  0  0  0  0
  -25.0180  -29.0770   20.6280 C   0  0  0  0  0  0  0  0  0  0  0  0
  -26.0400  -28.1280   20.4260 C   0  0  0  0  0  3  0  0  0  0  0  0
  -24.4440  -26.6550   19.3300 C   0  0  0  0  0  3  0  0  0  0  0  0
  -23.4190  -27.5970   19.5470 C   0  0  0  0  0  3  0  0  0  0  0  0
  -22.6800  -29.8860   20.4390 C   0  0  0  0  0  2  0  0  0  0  0  0
  -24.2140  -30.8290   22.2290 N   0  0  0  0  0  0  0  0  0  0  0  0
  -23.5460  -31.9970   24.0530 O   0  0  0  0  0  0  0  0  0  0  0  0
  -22.0960  -29.5750   22.8640 C   0  0  0  0  0  0  0  0  0  0  0  0
  -20.7690  -29.4350   22.7190 N   0  0  0  0  0  0  0  0  0  0  0  0
  -22.7410  -28.9780   23.7300 O   0  0  0  0  0  0  0  0  0  0  0  0
  -20.3130  -29.9680   21.9920 H   0  0  0  0  0  0  0  0  0  0  0  0
  -17.4020  -28.1610   23.0190 C   0  0  0  0  0  0  0  0  0  0  0  0
  -19.9020  -28.5780   23.5280 C   0  0  0  0  0  3  0  0  0  0  0  0
  -20.1160  -27.0860   23.1830 C   0  0  0  0  0  2  0  0  0  0  0  0
  -19.1480  -26.5690   22.1150 C   0  0  0  0  0  2  0  0  0  0  0  0
  -17.6980  -26.7380   22.5760 C   0  0  0  0  0  2  0  0  0  0  0  0
  -18.4390  -29.0300   23.4500 C   0  0  0  0  0  0  0  0  0  0  0  0
  -18.1150  -30.3550   23.8170 C   0  0  0  0  0  3  0  0  0  0  0  0
  -16.7850  -30.8110   23.7610 C   0  0  0  0  0  3  0  0  0  0  0  0
  -15.7590  -29.9420   23.3490 C   0  0  0  0  0  3  0  0  0  0  0  0
  -16.0680  -28.6200   22.9840 C   0  0  0  0  0  3  0  0  0  0  0  0
  -25.9260  -31.8890   23.8020 C   0  0  0  0  0  3  0  0  0  0  0  0
  -26.5010  -30.8670   24.8570 C   0  0  1  0  0  0  0  0  0  0  0  0
  -25.5670  -30.6300   26.0670 C   0  0  0  0  0  1  0  0  0  0  0  0
  -26.7700  -29.4960   24.1930 C   0  0  0  0  0  1  0  0  0  0  0  0
  -27.8600  -31.3750   25.3930 C   0  0  0  0  0  1  0  0  0  0  0  0
  -25.9190  -33.2540   24.3480 N   0  0  0  0  0  0  0  0  0  0  0  0
  -26.3300  -34.3400   23.6820 C   0  0  0  0  0  0  0  0  0  0  0  0
  -26.8290  -34.2870   22.5540 O   0  0  0  0  0  0  0  0  0  0  0  0
  -25.4700  -33.3780   25.2430 H   0  0  0  0  0  0  0  0  0  0  0  0
  -24.9140  -36.4140   23.8240 C   0  0  0  0  0  1  0  0  0  0  0  0
  -26.1610  -35.7040   24.3770 C   0  0  0  0  0  3  0  0  0  0  0  0
  -28.5090  -36.1100   24.9700 C   0  0  0  0  0  1  0  0  0  0  0  0
  -27.3380  -36.5870   24.2360 N   0  0  0  0  0  0  0  0  0  0  0  0
  -27.1250  -37.5270   24.5590 H   0  0  0  0  0  0  0  0  0  0  0  0
  2  1  1  0
  3  1  2  0
  4  2  2  0
  5  3  1  0
  6  5  2  0
  6  4  1  0
  7  9  1  0
  7  4  1  0
  8  7  2  0
 10  9  1  0
 11 10  1  0
 11 12  1  0
 13 12  1  0
 13 14  1  0
 15 14  1  0
 16 15  1  0
 17 25  1  0
 18 23  1  0
 19 20  1  0
 19 18  1  0
 21 20  1  0
 21 30  1  0
 21 22  1  0
 23 17  1  0
 23 22  1  0
 24 17  2  0
 25 16  1  0
 25 26  1  0
 27 28  2  0
 28 47  1  0
 29 28  1  0
 29 32  1  0
 30 27  1  0
 30 31  1  0
 31 29  2  0
 32 33  1  0
 33 34  2  0
 35 38  1  0
 35 34  1  0
 36 35  2  0
 37 36  1  0
 37 32  2  0
 38 39  1  0
 39 40  1  0
 40 41  2  0
 42 41  1  0
 42 46  1  0
 43 42  2  0
 44 39  2  0
 44 43  1  0
 45 44  1  0
 47 48  1  0
 48 51  1  0
 48 50  1  0
 49 47  2  0
 52 53  1  0
 52 27  1  0
 54 52  1  0
 55 56  1  0
 56  6  1  0
 57  5  1  0
 58 57  1  0
 58 59  1  0
 59 61  1  0
 60 71  2  0
 61 66  1  0
 62 70  1  0
 62 72  1  0
 63 69  1  0
 63 65  1  0
 64 70  1  0
 65 64  1  0
 66 65  2  0
 67 68  1  0
 67 61  2  0
 68 63  2  0
 69 62  1  0
 70 60  1  0
 72 74  2  0
 73 72  1  0
 75 73  1  0
 76 81  1  0
 77 73  1  0
 78 77  1  0
 79 80  1  0
 79 78  1  0
 80 76  1  0
 81 77  1  0
 81 82  2  0
 83 82  1  0
 84 83  2  0
 85 76  2  0
 85 84  1  0
 86 60  1  0
 86 91  1  0
 86 87  1  0
 87 90  1  1
 87 88  1  0
 89 87  1  0
 91 94  1  0
 92 91  1  0
 92 96  1  0
 93 92  2  0
 96 95  1  0
 98 96  1  0
 98 99  1  0
 98 97  1  0
M  ISO  4  17 100  25 100  58 101  59 101
M  END
>  <TORSDO>  (8) 
F 28

>  <SCORE>  (8) 
-9.670

>  <name>  (8) 
7

>  <ligand_id>  (8) 
7

>  <original_smiles>  (8) 
[H]c1c([H])c(C(=O)C([H])([H])C([H])([H])C([H])([H])C([H])([H])C([H])([H])C([H])([H])C([H])([H])C([H])([H])N([H])C(=O)N2C([H])([H])C([H])([H])C([H])([H])C([H])(n3nc(-c4c([H])c([H])c(Oc5c([H])c([H])c(F)c([H])c5F)c([H])c4[H])c(C(=O)N([H])[H])c3N([H])[H])C2([H])[H])c(OC([H])([H])[H])c(C([H])([H])C([H])([H])Oc2c([H])c([H])c3c(c2[H])C([H])([H])N(C(=O)C([H])(N([H])C(=O)C([H])(N([H])C([H])([H])[H])C([H])([H])[H])C(C([H])([H])[H])(C([H])([H])[H])C([H])([H])[H])C([H])(C(=O)N([H])C2([H])c4c([H])c([H])c([H])c([H])c4C([H])([H])C([H])([H])C2([H])[H])C3([H])[H])c1[H]

>  <smiles>  (8) 
[H]c1c([H])c(C(=O)C([H])([H])C([H])([H])C([H])([H])C([H])([H])C([H])([H])C([H])([H])C([H])([H])C([H])([H])N([H])C(=O)N2C([H])([H])C([H])([H])C([H])([H])C([H])(n3nc(-c4c([H])c([H])c(Oc5c([H])c([H])c(F)c([H])c5F)c([H])c4[H])c(C(=O)N([H])[H])c3N([H])[H])C2([H])[H])c(OC([H])([H])[H])c(C([H])([H])C([H])([H])Oc2c([H])c([H])c3c(c2[H])C([H])([H])N(C(=O)C([H])(N([H])C(=O)C([H])(N([H])C([H])([H])[H])C([H])([H])[H])C(C([H])([H])[H])(C([H])([H])[H])C([H])([H])[H])C([H])(C(=O)N([H])C2([H])c4c([H])c([H])c([H])c([H])c4C([H])([H])C([H])([H])C2([H])[H])C3([H])[H])c1[H]

$$$$
8:0:0
     RDKit          3D

 95104  0  0  1  0  0  0  0  0999 V2000
  -29.9880  -23.3040   17.9620 C   0  0  0  0  0  3  0  0  0  0  0  0
  -32.1190  -23.5180   19.1230 C   0  0  0  0  0  3  0  0  0  0  0  0
  -29.8530  -24.7050   17.9550 C   0  0  0  0  0  3  0  0  0  0  0  0
  -31.9870  -24.9230   19.1120 C   0  0  0  0  0  3  0  0  0  0  0  0
  -31.1360  -22.7030   18.5240 C   0  0  0  0  0  0  0  0  0  0  0  0
  -30.8610  -25.5230   18.5080 C   0  0  0  0  0  0  0  0  0  0  0  0
  -31.3430  -21.2020   18.3950 C   0  0  0  0  0  2  0  0  0  0  0  0
  -31.2970  -20.3970   19.7180 C   0  0  0  0  0  2  0  0  0  0  0  0
  -29.0920  -19.0510   19.8200 C   0  0  0  0  0  2  0  0  0  0  0  0
  -28.7060  -17.6070   20.1840 C   0  0  0  0  0  2  0  0  0  0  0  0
  -31.1060  -17.8170   20.3210 C   0  0  0  0  0  2  0  0  0  0  0  0
  -30.5980  -19.0280   19.5170 C   0  0  0  0  0  3  0  0  0  0  0  0
  -29.9930  -16.7850   20.0310 C   0  0  0  0  0  3  0  0  0  0  0  0
  -30.6940  -14.4740   20.4740 C   0  0  0  0  0  0  0  0  0  0  0  0
  -30.3490  -12.3170   19.3540 C   0  0  0  0  0  2  0  0  0  0  0  0
  -29.4310  -12.5730   18.1400 C   0  0  0  0  0  2  0  0  0  0  0  0
  -27.9520  -12.4450   18.5510 C   0  0  0  0  0  2  0  0  0  0  0  0
  -27.6110  -13.2690   19.8240 C   0  0  0  0  0  3  0  0  0  0  0  0
  -28.6610  -13.0460   20.9420 C   0  0  0  0  0  2  0  0  0  0  0  0
  -29.9990  -13.3050   20.3860 N   0  0  0  0  0  0  0  0  0  0  0  0
  -31.8290  -14.6190   20.0190 O   0  0  0  0  0  0  0  0  0  0  0  0
  -29.9630  -15.5440   20.8200 N   0  0  0  0  0  0  0  0  0  0  0  0
  -29.0760  -15.3240   21.2440 H   0  0  0  0  0  0  0  0  0  0  0  0
  -25.2030  -13.8860   20.4990 C   0  0  0  0  0  0  0  0  0  0  0  0
  -24.1290  -13.1170   20.8620 C   0  0  0  0  0  0  0  0  0  0  0  0
  -24.5880  -11.7650   20.8470 C   0  0  0  0  0  0  0  0  0  0  0  0
  -26.2500  -13.0000   20.2900 N   0  0  0  0  0  0  0  0  0  0  0  0
  -25.8820  -11.7190   20.5520 N   0  0  0  0  0  0  0  0  0  0  0  0
  -23.8540  -10.5060   21.0380 C   0  0  0  0  0  0  0  0  0  0  0  0
  -24.2750   -9.5410   21.9780 C   0  0  0  0  0  3  0  0  0  0  0  0
  -23.5420   -8.3480   22.1580 C   0  0  0  0  0  3  0  0  0  0  0  0
  -22.3740   -8.1110   21.3950 C   0  0  0  0  0  0  0  0  0  0  0  0
  -21.9720   -9.0650   20.4430 C   0  0  0  0  0  3  0  0  0  0  0  0
  -22.7050  -10.2490   20.2620 C   0  0  0  0  0  3  0  0  0  0  0  0
  -21.6130   -6.9710   21.4820 O   0  0  0  0  0  0  0  0  0  0  0  0
  -21.5560   -6.2290   22.6350 C   0  0  0  0  0  0  0  0  0  0  0  0
  -21.1300   -6.7880   23.8600 C   0  0  0  0  0  3  0  0  0  0  0  0
  -21.0190   -5.9740   25.0040 C   0  0  0  0  0  3  0  0  0  0  0  0
  -21.3260   -4.6030   24.9260 C   0  0  0  0  0  0  0  0  0  0  0  0
  -21.7460   -4.0440   23.7060 C   0  0  0  0  0  3  0  0  0  0  0  0
  -21.8580   -4.8550   22.5630 C   0  0  0  0  0  0  0  0  0  0  0  0
  -22.2430   -4.3050   21.3860 F   0  0  0  0  0  0  0  0  0  0  0  0
  -21.2120   -3.8190   26.0230 F   0  0  0  0  0  0  0  0  0  0  0  0
  -22.7320  -13.6010   21.1200 C   0  0  0  0  0  0  0  0  0  0  0  0
  -21.9930  -12.9110   21.9810 N   0  0  0  0  0  0  0  0  0  0  0  0
  -22.3040  -14.6280   20.5950 O   0  0  0  0  0  0  0  0  0  0  0  0
  -22.3510  -12.0760   22.4220 H   0  0  0  0  0  0  0  0  0  0  0  0
  -21.0560  -13.2180   22.2010 H   0  0  0  0  0  0  0  0  0  0  0  0
  -25.3670  -15.2540   20.3130 N   0  0  0  0  0  0  0  0  0  0  0  0
  -24.5840  -15.8950   20.3820 H   0  0  0  0  0  0  0  0  0  0  0  0
  -26.2180  -15.6980   19.9930 H   0  0  0  0  0  0  0  0  0  0  0  0
  -30.7380  -27.0410   18.4150 C   0  0  0  0  0  2  0  0  0  0  0  0
  -30.5030  -27.7700   19.7530 C   0  0  0  0  0  2  0  0  0  0  0  0
  -29.5580  -27.0520   20.7320 C   0  0  0  0  0  2  0  0  0  0  0  0
  -28.3430  -26.6720   20.0930 O   0  0  0  0  0  0  0  0  0  0  0  0
  -24.5590  -31.8700   23.2410 C   0  0  0  0  0  0  0  0  0  0  0  0
  -27.2230  -27.4680   20.1640 C   0  0  0  0  0  0  0  0  0  0  0  0
  -23.3460  -30.4600   21.6060 C   0  0  0  0  0  3  0  0  0  0  0  0
  -24.8010  -28.9260   20.1830 C   0  0  0  0  0  0  0  0  0  0  0  0
  -25.8600  -30.8510   21.3750 C   0  0  0  0  0  2  0  0  0  0  0  0
  -25.9560  -29.4760   20.7540 C   0  0  0  0  0  0  0  0  0  0  0  0
  -27.1720  -28.7580   20.7400 C   0  0  0  0  0  3  0  0  0  0  0  0
  -26.0490  -26.9230   19.6060 C   0  0  0  0  0  3  0  0  0  0  0  0
  -24.8400  -27.6430   19.6070 C   0  0  0  0  0  3  0  0  0  0  0  0
  -23.5480  -29.7670   20.2300 C   0  0  0  0  0  2  0  0  0  0  0  0
  -24.6080  -31.0710   22.1380 N   0  0  0  0  0  0  0  0  0  0  0  0
  -23.4800  -32.1410   23.7850 O   0  0  0  0  0  0  0  0  0  0  0  0
  -22.7000  -29.4440   22.5720 C   0  0  0  0  0  0  0  0  0  0  0  0
  -21.3740  -29.2650   22.4430 N   0  0  0  0  0  0  0  0  0  0  0  0
  -23.3830  -28.8180   23.3870 O   0  0  0  0  0  0  0  0  0  0  0  0
  -20.8880  -29.8230   21.7560 H   0  0  0  0  0  0  0  0  0  0  0  0
  -17.9940  -28.0970   22.9440 C   0  0  0  0  0  0  0  0  0  0  0  0
  -20.5530  -28.3290   23.2100 C   0  0  0  0  0  3  0  0  0  0  0  0
  -20.6430  -26.9010   22.6250 C   0  0  0  0  0  2  0  0  0  0  0  0
  -19.5370  -26.5940   21.6110 C   0  0  0  0  0  2  0  0  0  0  0  0
  -18.1570  -26.7500   22.2590 C   0  0  0  0  0  2  0  0  0  0  0  0
  -19.1200  -28.8450   23.3760 C   0  0  0  0  0  0  0  0  0  0  0  0
  -18.9170  -30.1060   23.9770 C   0  0  0  0  0  3  0  0  0  0  0  0
  -17.6190  -30.6220   24.1460 C   0  0  0  0  0  3  0  0  0  0  0  0
  -16.5050  -29.8690   23.7300 C   0  0  0  0  0  3  0  0  0  0  0  0
  -16.6940  -28.6080   23.1360 C   0  0  0  0  0  3  0  0  0  0  0  0
  -25.8470  -32.4990   23.8610 C   0  0  0  0  0  3  0  0  0  0  0  0
  -25.5430  -33.8980   24.1850 N   0  0  0  0  0  0  0  0  0  0  0  0
  -25.8890  -34.9460   23.4240 C   0  0  0  0  0  0  0  0  0  0  0  0
  -26.5670  -34.8340   22.4000 O   0  0  0  0  0  0  0  0  0  0  0  0
  -24.9440  -34.0600   24.9810 H   0  0  0  0  0  0  0  0  0  0  0  0
  -24.1770  -36.7460   23.0440 C   0  0  0  0  0  1  0  0  0  0  0  0
  -25.4040  -36.3380   23.8720 C   0  0  0  0  0  3  0  0  0  0  0  0
  -27.5350  -37.2060   24.7310 C   0  0  0  0  0  1  0  0  0  0  0  0
  -26.4450  -37.3830   23.7740 N   0  0  0  0  0  0  0  0  0  0  0  0
  -26.0440  -38.3040   23.9210 H   0  0  0  0  0  0  0  0  0  0  0  0
  -26.3670  -31.7270   25.1340 C   0  0  1  0  0  0  0  0  0  0  0  0
  -25.2800  -31.4920   26.2080 C   0  0  0  0  0  1  0  0  0  0  0  0
  -26.9390  -30.3470   24.7280 C   0  0  0  0  0  1  0  0  0  0  0  0
  -27.5200  -32.5190   25.7940 C   0  0  0  0  0  1  0  0  0  0  0  0
  1  5  1  0
  3  1  2  0
  3  6  1  0
  4  2  1  0
  5  2  2  0
  6  4  2  0
  7  5  1  0
  7  8  1  0
  9 10  1  0
 12  8  1  0
 12  9  1  0
 12 11  1  0
 13 10  1  0
 13 11  1  0
 13 22  1  0
 14 22  1  0
 15 20  1  0
 16 17  1  0
 16 15  1  0
 18 17  1  0
 18 27  1  0
 18 19  1  0
 20 14  1  0
 20 19  1  0
 21 14  2  0
 22 23  1  0
 24 25  2  0
 25 44  1  0
 26 25  1  0
 26 29  1  0
 27 24  1  0
 27 28  1  0
 28 26  2  0
 29 30  1  0
 30 31  2  0
 32 35  1  0
 32 31  1  0
 33 32  2  0
 34 33  1  0
 34 29  2  0
 35 36  1  0
 36 37  1  0
 37 38  2  0
 39 38  1  0
 39 43  1  0
 40 39  2  0
 41 36  2  0
 41 40  1  0
 42 41  1  0
 44 45  1  0
 45 48  1  0
 45 47  1  0
 46 44  2  0
 49 50  1  0
 49 24  1  0
 51 49  1  0
 52  6  1  0
 52 53  1  0
 53 54  1  0
 55 57  1  0
 55 54  1  0
 56 67  2  0
 57 62  1  0
 58 66  1  0
 58 68  1  0
 59 65  1  0
 59 61  1  0
 60 66  1  0
 61 60  1  0
 62 61  2  0
 63 64  1  0
 63 57  2  0
 64 59  2  0
 65 58  1  0
 66 56  1  0
 68 70  2  0
 69 68  1  0
 71 69  1  0
 72 81  2  0
 72 77  1  0
 73 69  1  0
 73 77  1  0
 74 73  1  0
 75 76  1  0
 75 74  1  0
 76 72  1  0
 77 78  2  0
 78 79  1  0
 80 79  2  0
 81 80  1  0
 82 56  1  0
 82 83  1  0
 82 92  1  0
 83 86  1  0
 84 88  1  0
 84 83  1  0
 85 84  2  0
 88 87  1  0
 90 88  1  0
 90 91  1  0
 90 89  1  0
 92 95  1  1
 92 93  1  0
 94 92  1  0
M  ISO  4  14 100  22 100  54 101  55 101
M  END
>  <TORSDO>  (9) 
F 22

>  <SCORE>  (9) 
-13.199

>  <name>  (9) 
8

>  <ligand_id>  (9) 
8

>  <original_smiles>  (9) 
[H]c1c([H])c([H])c2c(c1[H])C([H])([H])C([H])([H])C([H])([H])C2([H])N([H])C(=O)C1([H])N(C(=O)C([H])(N([H])C(=O)C([H])(N([H])C([H])([H])[H])C([H])([H])[H])C(C([H])([H])[H])(C([H])([H])[H])C([H])([H])[H])C([H])([H])c2c([H])c(OC([H])([H])C([H])([H])C([H])([H])c3c([H])c([H])c(C([H])([H])C([H])([H])C4([H])C([H])([H])C([H])([H])C([H])(N([H])C(=O)N5C([H])([H])C([H])([H])C([H])([H])C([H])(n6nc(-c7c([H])c([H])c(Oc8c([H])c([H])c(F)c([H])c8F)c([H])c7[H])c(C(=O)N([H])[H])c6N([H])[H])C5([H])[H])C4([H])[H])c([H])c3[H])c([H])c([H])c2C1([H])[H]

>  <smiles>  (9) 
[H]c1c([H])c([H])c2c(c1[H])C([H])([H])C([H])([H])C([H])([H])C2([H])N([H])C(=O)C1([H])N(C(=O)C([H])(N([H])C(=O)C([H])(N([H])C([H])([H])[H])C([H])([H])[H])C(C([H])([H])[H])(C([H])([H])[H])C([H])([H])[H])C([H])([H])c2c([H])c(OC([H])([H])C([H])([H])C([H])([H])c3c([H])c([H])c(C([H])([H])C([H])([H])C4([H])C([H])([H])C([H])([H])C([H])(N([H])C(=O)N5C([H])([H])C([H])([H])C([H])([H])C([H])(n6nc(-c7c([H])c([H])c(Oc8c([H])c([H])c(F)c([H])c8F)c([H])c7[H])c(C(=O)N([H])[H])c6N([H])[H])C5([H])[H])C4([H])[H])c([H])c3[H])c([H])c([H])c2C1([H])[H]

$$$$
9:0:0
     RDKit          3D

 97104  0  0  1  0  0  0  0  0999 V2000
  -20.3250  -25.8600   23.0430 C   0  0  0  0  0  1  0  0  0  0  0  0
  -20.3150  -26.9310   21.2200 C   0  0  0  0  0  3  0  0  0  0  0  0
  -21.5960  -24.7310   23.1040 C   0  0  0  0  0  3  0  0  0  0  0  0
  -22.7560  -25.4410   20.6720 C   0  0  0  0  0  3  0  0  0  0  0  0
  -21.5750  -26.4840   20.2170 C   0  0  0  0  0  3  0  0  0  0  0  0
  -22.7500  -24.5010   21.9510 C   0  0  0  0  0  0  0  0  0  0  0  0
  -24.2920  -25.9320   20.5770 C   0  0  0  0  0  0  0  0  0  0  0  0
  -24.7300  -26.6510   21.4790 O   0  0  0  0  0  0  0  0  0  0  0  0
  -25.4940  -25.5240   19.6320 C   0  0  0  0  0  2  0  0  0  0  0  0
  -27.0600  -25.7330   20.1880 C   0  0  0  0  0  2  0  0  0  0  0  0
  -27.9980  -26.9370   20.1880 O   0  0  0  0  0  0  0  0  0  0  0  0
  -24.5950  -32.1880   23.6170 C   0  0  0  0  0  0  0  0  0  0  0  0
  -27.3270  -28.1170   20.0950 C   0  0  0  0  0  0  0  0  0  0  0  0
  -23.5990  -31.1370   21.6630 C   0  0  0  0  0  3  0  0  0  0  0  0
  -25.1590  -29.8530   20.1010 C   0  0  0  0  0  0  0  0  0  0  0  0
  -26.1340  -31.3430   21.8320 C   0  0  0  0  0  2  0  0  0  0  0  0
  -26.2280  -30.0930   20.9770 C   0  0  0  0  0  0  0  0  0  0  0  0
  -27.3270  -29.1920   21.0210 C   0  0  0  0  0  3  0  0  0  0  0  0
  -26.4490  -28.1430   19.0240 C   0  0  0  0  0  3  0  0  0  0  0  0
  -25.3010  -28.9130   19.0810 C   0  0  0  0  0  3  0  0  0  0  0  0
  -23.9480  -30.7480   20.2100 C   0  0  0  0  0  2  0  0  0  0  0  0
  -24.7940  -31.5920   22.4120 N   0  0  0  0  0  0  0  0  0  0  0  0
  -23.4550  -32.3980   24.0600 O   0  0  0  0  0  0  0  0  0  0  0  0
  -22.9430  -29.9940   22.4440 C   0  0  0  0  0  0  0  0  0  0  0  0
  -21.6270  -29.9730   22.5410 N   0  0  0  0  0  0  0  0  0  0  0  0
  -23.6330  -29.1360   23.0040 O   0  0  0  0  0  0  0  0  0  0  0  0
  -21.0590  -30.7030   22.1350 H   0  0  0  0  0  0  0  0  0  0  0  0
  -17.9200  -29.1030   22.8900 C   0  0  0  0  0  0  0  0  0  0  0  0
  -20.9710  -28.8070   23.1180 C   0  0  0  0  0  3  0  0  0  0  0  0
  -21.4120  -27.3840   21.9050 C   0  0  0  0  0  2  0  0  0  0  0  0
  -18.5890  -26.7240   20.4940 C   0  0  0  0  0  1  0  0  0  0  0  0
  -17.3790  -27.9470   21.5570 C   0  0  0  0  0  1  0  0  0  0  0  0
  -19.3530  -29.4280   23.4860 C   0  0  0  0  0  0  0  0  0  0  0  0
  -19.4470  -30.4820   24.4440 C   0  0  0  0  0  3  0  0  0  0  0  0
  -18.3500  -31.1990   24.9510 C   0  0  0  0  0  3  0  0  0  0  0  0
  -17.0650  -30.8640   24.5060 C   0  0  0  0  0  3  0  0  0  0  0  0
  -16.8730  -29.8590   23.5200 C   0  0  0  0  0  3  0  0  0  0  0  0
  -25.7940  -32.6480   24.4800 C   0  0  0  0  0  3  0  0  0  0  0  0
  -25.5210  -34.0380   24.8570 N   0  0  0  0  0  0  0  0  0  0  0  0
  -26.0180  -35.1010   24.2140 C   0  0  0  0  0  0  0  0  0  0  0  0
  -26.8370  -35.0040   23.2960 O   0  0  0  0  0  0  0  0  0  0  0  0
  -24.8190  -34.1920   25.5640 H   0  0  0  0  0  0  0  0  0  0  0  0
  -24.4930  -37.0280   23.6880 C   0  0  0  0  0  1  0  0  0  0  0  0
  -25.5400  -36.4890   24.6760 C   0  0  0  0  0  3  0  0  0  0  0  0
  -27.5580  -37.1420   25.9080 C   0  0  0  0  0  1  0  0  0  0  0  0
  -26.6370  -37.4690   24.8230 N   0  0  0  0  0  0  0  0  0  0  0  0
  -26.2710  -38.4040   24.9890 H   0  0  0  0  0  0  0  0  0  0  0  0
  -26.0280  -31.7480   25.7510 C   0  0  1  0  0  0  0  0  0  0  0  0
  -24.7550  -31.5000   26.5920 C   0  0  0  0  0  1  0  0  0  0  0  0
  -26.6050  -30.3690   25.3520 C   0  0  0  0  0  1  0  0  0  0  0  0
  -27.0770  -32.4260   26.6600 C   0  0  0  0  0  1  0  0  0  0  0  0
  -21.5260  -26.9500   18.7670 C   0  0  0  0  0  2  0  0  0  0  0  0
  -20.1730  -26.7780   18.0600 C   0  0  0  0  0  0  0  0  0  0  0  0
  -19.3190  -28.0320   17.8570 C   0  0  0  0  0  1  0  0  0  0  0  0
  -19.7820  -25.6760   17.6670 O   0  0  0  0  0  0  0  0  0  0  0  0
  -24.2070  -23.4820   22.2150 C   0  0  0  0  0  2  0  0  0  0  0  0
  -25.6370  -22.7830   21.2820 C   0  0  0  0  0  3  0  0  0  0  0  0
  -27.3800  -22.2770   21.6510 C   0  0  0  0  0  3  0  0  0  0  0  0
  -28.8670  -21.6560   20.7370 C   0  0  0  0  0  2  0  0  0  0  0  0
  -30.6930  -21.4740   21.0120 C   0  0  0  0  0  3  0  0  0  0  0  0
  -32.1430  -21.0680   19.9500 C   0  0  0  0  0  3  0  0  0  0  0  0
  -33.9520  -21.0900   19.9110 C   0  0  0  0  0  0  0  0  0  0  0  0
  -36.1040  -22.4770   19.2850 C   0  0  0  0  0  2  0  0  0  0  0  0
  -36.0210  -23.8760   19.9620 C   0  0  0  0  0  2  0  0  0  0  0  0
  -35.0060  -24.8020   19.2470 C   0  0  0  0  0  2  0  0  0  0  0  0
  -33.7230  -24.0350   18.8430 C   0  0  0  0  0  3  0  0  0  0  0  0
  -34.0720  -22.7550   18.0760 C   0  0  0  0  0  2  0  0  0  0  0  0
  -34.7060  -21.9370   19.0770 N   0  0  0  0  0  0  0  0  0  0  0  0
  -34.7210  -20.3650   20.5880 O   0  0  0  0  0  0  0  0  0  0  0  0
  -31.5520  -25.3140   18.5040 C   0  0  0  0  0  0  0  0  0  0  0  0
  -31.0570  -25.9930   17.4290 C   0  0  0  0  0  0  0  0  0  0  0  0
  -32.0280  -25.8530   16.3910 C   0  0  0  0  0  0  0  0  0  0  0  0
  -32.7740  -24.8130   18.0900 N   0  0  0  0  0  0  0  0  0  0  0  0
  -33.0280  -25.0810   16.7900 N   0  0  0  0  0  0  0  0  0  0  0  0
  -32.1030  -26.4710   15.0690 C   0  0  0  0  0  0  0  0  0  0  0  0
  -32.2130  -25.6970   13.8910 C   0  0  0  0  0  3  0  0  0  0  0  0
  -32.2670  -26.3280   12.6290 C   0  0  0  0  0  3  0  0  0  0  0  0
  -32.2070  -27.7390   12.5380 C   0  0  0  0  0  0  0  0  0  0  0  0
  -32.1290  -28.5010   13.7170 C   0  0  0  0  0  3  0  0  0  0  0  0
  -32.0830  -27.8750   14.9710 C   0  0  0  0  0  3  0  0  0  0  0  0
  -32.2700  -28.4380   11.3570 O   0  0  0  0  0  0  0  0  0  0  0  0
  -31.7610  -27.9250   10.1930 C   0  0  0  0  0  0  0  0  0  0  0  0
  -30.3830  -27.6550   10.0370 C   0  0  0  0  0  3  0  0  0  0  0  0
  -29.8940  -27.1920    8.7990 C   0  0  0  0  0  3  0  0  0  0  0  0
  -30.7720  -27.0100    7.7150 C   0  0  0  0  0  0  0  0  0  0  0  0
  -32.1430  -27.2870    7.8680 C   0  0  0  0  0  3  0  0  0  0  0  0
  -32.6350  -27.7440    9.1020 C   0  0  0  0  0  0  0  0  0  0  0  0
  -33.9530  -28.0260    9.2400 F   0  0  0  0  0  0  0  0  0  0  0  0
  -30.3020  -26.5760    6.5230 F   0  0  0  0  0  0  0  0  0  0  0  0
  -29.8030  -26.8100   17.4040 C   0  0  0  0  0  0  0  0  0  0  0  0
  -29.1770  -26.9350   16.2400 N   0  0  0  0  0  0  0  0  0  0  0  0
  -29.3400  -27.3050   18.4340 O   0  0  0  0  0  0  0  0  0  0  0  0
  -29.5370  -26.5060   15.4000 H   0  0  0  0  0  0  0  0  0  0  0  0
  -28.3200  -27.4660   16.1900 H   0  0  0  0  0  0  0  0  0  0  0  0
  -31.0680  -25.1140   19.7930 N   0  0  0  0  0  0  0  0  0  0  0  0
  -30.1970  -25.5380   20.0920 H   0  0  0  0  0  0  0  0  0  0  0  0
  -31.5390  -24.6280   20.5420 H   0  0  0  0  0  0  0  0  0  0  0  0
  1  3  1  0
  2 31  1  0
  2 30  1  0
  4  6  1  0
  5 52  1  0
  5  4  1  0
  5  2  1  0
  6 56  1  0
  6  3  2  0
  7  4  1  0
  7  8  2  0
  9 10  1  0
  9  7  1  0
 11 10  1  0
 12 23  2  0
 13 11  1  0
 13 18  1  0
 14 21  1  0
 14 22  1  0
 14 24  1  0
 15 21  1  0
 15 17  1  0
 16 22  1  0
 17 18  2  0
 17 16  1  0
 19 20  1  0
 19 13  2  0
 20 15  2  0
 22 12  1  0
 24 25  1  0
 24 26  2  0
 25 29  1  0
 27 25  1  0
 28 33  2  0
 28 37  1  0
 29 33  1  0
 30 29  1  0
 32 28  1  0
 33 34  1  0
 34 35  2  0
 36 35  1  0
 37 36  2  0
 38 12  1  0
 38 39  1  0
 38 48  1  0
 39 42  1  0
 40 44  1  0
 40 39  1  0
 41 40  2  0
 44 43  1  0
 44 46  1  0
 46 47  1  0
 46 45  1  0
 48 49  1  1
 48 51  1  0
 50 48  1  0
 53 52  1  0
 54 53  1  0
 55 53  2  0
 57 58  2  0
 57 56  1  0
 59 60  1  0
 59 58  1  0
 61 60  2  0
 62 61  1  0
 62 69  2  0
 63 64  1  0
 65 64  1  0
 66 67  1  0
 66 65  1  0
 67 68  1  0
 68 63  1  0
 68 62  1  0
 70 95  1  0
 71 70  2  0
 72 74  2  0
 72 71  1  0
 73 70  1  0
 73 66  1  0
 74 73  1  0
 75 72  1  0
 76 75  2  0
 77 76  1  0
 78 77  2  0
 78 79  1  0
 79 80  2  0
 80 75  1  0
 81 78  1  0
 82 81  1  0
 83 82  1  0
 84 83  2  0
 85 86  2  0
 85 84  1  0
 86 87  1  0
 87 88  1  0
 87 82  2  0
 89 85  1  0
 90 71  1  0
 90 92  2  0
 91 90  1  0
 93 91  1  0
 94 91  1  0
 95 96  1  0
 95 97  1  0
M  ISO  4  10 101  11 101  61 100  62 100
M  END
>  <TORSDO>  (10) 
F 27

>  <SCORE>  (10) 
-2.704

>  <name>  (10) 
9

>  <ligand_id>  (10) 
9

>  <original_smiles>  (10) 
[H]c1c([H])c([H])c2c(c1[H])C([H])([H])C([H])([H])C([H])([H])C2([H])N([H])C(=O)C1([H])N(C(=O)C([H])(N([H])C(=O)C([H])(N([H])C([H])([H])[H])C([H])([H])[H])C(C([H])([H])[H])(C([H])([H])[H])C([H])([H])[H])C([H])([H])c2c([H])c(OC([H])([H])C([H])([H])C(=O)c3c(C([H])([H])C(=O)C([H])([H])[H])c([H])c([H])c([H])c3C([H])([H])C([H])([H])C([H])([H])C([H])([H])C([H])([H])C([H])([H])C(=O)N3C([H])([H])C([H])([H])C([H])([H])C([H])(n4nc(-c5c([H])c([H])c(Oc6c([H])c([H])c(F)c([H])c6F)c([H])c5[H])c(C(=O)N([H])[H])c4N([H])[H])C3([H])[H])c([H])c([H])c2C1([H])[H]

>  <smiles>  (10) 
[H]c1c([H])c([H])c2c(c1[H])C([H])([H])C([H])([H])C([H])([H])C2([H])N([H])C(=O)C1([H])N(C(=O)C([H])(N([H])C(=O)C([H])(N([H])C([H])([H])[H])C([H])([H])[H])C(C([H])([H])[H])(C([H])([H])[H])C([H])([H])[H])C([H])([H])c2c([H])c(OC([H])([H])C([H])([H])C(=O)c3c(C([H])([H])C(=O)C([H])([H])[H])c([H])c([H])c([H])c3C([H])([H])C([H])([H])C([H])([H])C([H])([H])C([H])([H])C([H])([H])C(=O)N3C([H])([H])C([H])([H])C([H])([H])C([H])(n4nc(-c5c([H])c([H])c(Oc6c([H])c([H])c(F)c([H])c6F)c([H])c5[H])c(C(=O)N([H])[H])c4N([H])[H])C3([H])[H])c([H])c([H])c2C1([H])[H]

$$$$
10:0:0
     RDKit          3D

 95 97  0  0  1  0  0  0  0  0999 V2000
  -26.4440  -13.9410   18.1110 C   0  0  0  0  0  3  0  0  0  0  0  0
  -24.9230  -14.9380   18.6990 C   0  0  0  0  0  3  0  0  0  0  0  0
  -28.2250  -15.4570   20.4150 C   0  0  0  0  0 15  0  0  0  0  0  0
  -28.1450  -14.2380   18.9690 C   0  0  0  0  0  3  0  0  0  0  0  0
  -26.8020  -16.5070   20.9070 C   0  0  0  0  0 15  0  0  0  0  0  0
  -25.1380  -16.2160   20.1100 C   0  0  0  0  0  3  0  0  0  0  0  0
  -32.3910  -12.6880   19.4220 C   0  0  0  0  0  0  0  0  0  0  0  0
  -30.8840  -11.4900   17.7930 C   0  0  0  0  0  3  0  0  0  0  0  0
  -29.2150  -11.1980   17.4830 C   0  0  0  0  0  3  0  0  0  0  0  0
  -27.9100  -11.3770   18.6300 C   0  0  0  0  0  2  0  0  0  0  0  0
  -28.0280  -12.1010   20.3020 C   0  0  0  0  0  3  0  0  0  0  0  0
  -29.6230  -12.5630   20.9210 C   0  0  0  0  0  1  0  0  0  0  0  0
  -31.2970  -12.1780   19.1810 N   0  0  0  0  0  0  0  0  0  0  0  0
  -33.1050  -13.3430   18.6770 O   0  0  0  0  0  0  0  0  0  0  0  0
  -29.9000  -10.6340   19.8730 C   0  0  0  0  0 15  0  0  0  0  0  0
  -31.4610  -11.0720   21.0180 C   0  0  0  0  0  1  0  0  0  0  0  0
  -30.8770  -14.2320   19.7780 C   0  0  0  0  0  2  0  0  0  0  0  0
  -29.4500  -13.3210   18.8180 C   0  0  0  0  0  2  0  0  0  0  0  0
  -31.8500  -12.8650   20.5340 N   0  0  1  0  0  4  0  0  0  0  0  0
  -26.3380  -14.2190   20.6090 C   0  0  0  0  0  2  0  0  0  0  0  0
  -25.1030  -13.5440   21.1440 C   0  0  0  0  0  0  0  0  0  0  0  0
  -25.0580  -12.0730   21.0060 C   0  0  0  0  0  0  0  0  0  0  0  0
  -26.8430  -12.7790   20.5710 N   0  0  0  0  0  0  0  0  0  0  0  0
  -26.1620  -11.6670   20.6510 N   0  0  0  0  0  2  0  0  0  0  0  0
  -24.1100  -10.9140   21.1520 C   0  0  0  0  0  0  0  0  0  0  0  0
  -24.3950   -9.7910   21.9860 C   0  0  0  0  0  3  0  0  0  0  0  0
  -23.4890   -8.7070   22.1120 C   0  0  0  0  0  3  0  0  0  0  0  0
  -22.2730   -8.7200   21.3910 C   0  0  0  0  0  0  0  0  0  0  0  0
  -22.0260   -9.7880   20.5090 C   0  0  0  0  0  3  0  0  0  0  0  0
  -22.9310  -10.8600   20.3830 C   0  0  0  0  0  3  0  0  0  0  0  0
  -21.3170   -7.7260   21.4480 O   0  0  0  0  0  0  0  0  0  0  0  0
  -21.0450   -7.0290   22.6010 C   0  0  0  0  0  0  0  0  0  0  0  0
  -20.6870   -7.6760   23.8040 C   0  0  0  0  0  3  0  0  0  0  0  0
  -20.3520   -6.9140   24.9430 C   0  0  0  0  0  3  0  0  0  0  0  0
  -20.3640   -5.5070   24.8800 C   0  0  0  0  0  0  0  0  0  0  0  0
  -20.7090   -4.8620   23.6800 C   0  0  0  0  0  3  0  0  0  0  0  0
  -21.0430   -5.6200   22.5440 C   0  0  0  0  0  0  0  0  0  0  0  0
  -21.3500   -4.9900   21.3850 F   0  0  0  0  0  0  0  0  0  0  0  0
  -20.0410   -4.7740   25.9720 F   0  0  0  0  0  0  0  0  0  0  0  0
  -23.7680  -14.0620   21.6350 C   0  0  0  0  0  0  0  0  0  0  0  0
  -23.2240  -13.4720   22.6950 N   0  0  0  0  0  0  0  0  0  0  0  0
  -23.1160  -14.9220   21.0730 O   0  0  0  0  0  0  0  0  0  0  0  0
  -23.7060  -12.7410   23.1970 H   0  0  0  0  0  0  0  0  0  0  0  0
  -22.3170  -13.7710   23.0210 H   0  0  0  0  0  0  0  0  0  0  0  0
  -27.1910  -16.3510   19.3650 N   0  0  0  0  0  2  0  0  0  0  0  0
  -27.0000  -17.1850   19.9040 H   0  0  0  0  0  0  0  0  0  0  0  0
  -28.1840  -16.2280   19.2090 H   0  0  0  0  0  0  0  0  0  0  0  0
  -24.1760  -17.1630   20.3160 O   0  0  0  0  0  0  0  0  0  0  0  0
  -23.3360  -16.7130   20.3930 H   0  0  0  0  0  0  0  0  0  0  0  0
  -27.2770  -18.1390   21.1010 C   0  0  0  0  0  1  0  0  0  0  0  0
  -27.7540  -19.3440   19.8990 C   0  0  0  0  0  3  0  0  0  0  0  0
  -28.0550  -21.0810   20.0250 C   0  0  0  0  0  3  0  0  0  0  0  0
  -28.2260  -22.3610   18.8170 C   0  0  0  0  0  3  0  0  0  0  0  0
  -28.3060  -24.1130   18.9930 C   0  0  0  0  0  3  0  0  0  0  0  0
  -28.4680  -25.4010   18.0110 O   0  0  0  0  0  0  0  0  0  0  0  0
  -25.7370  -30.3880   22.6970 C   0  0  0  0  0  0  0  0  0  0  0  0
  -27.6980  -26.6020   18.2590 C   0  0  0  0  0  0  0  0  0  0  0  0
  -24.3440  -29.4910   20.8840 C   0  0  0  0  0  3  0  0  0  0  0  0
  -25.5740  -28.4410   18.8950 C   0  0  0  0  0  0  0  0  0  0  0  0
  -26.8740  -29.8010   20.5120 C   0  0  0  0  0  2  0  0  0  0  0  0
  -26.8260  -28.6460   19.4890 C   0  0  0  0  0  0  0  0  0  0  0  0
  -27.9130  -27.7390   19.1560 C   0  0  0  0  0  3  0  0  0  0  0  0
  -26.4760  -26.6000   17.5810 C   0  0  0  0  0  3  0  0  0  0  0  0
  -25.4220  -27.4600   17.9100 C   0  0  0  0  0  3  0  0  0  0  0  0
  -24.3920  -29.2780   19.3500 C   0  0  0  0  0  2  0  0  0  0  0  0
  -25.6800  -29.9040   21.4180 N   0  0  0  0  0  0  0  0  0  0  0  0
  -24.7190  -30.4870   23.4000 O   0  0  0  0  0  0  0  0  0  0  0  0
  -23.7800  -28.2240   21.5760 C   0  0  0  0  0  0  0  0  0  0  0  0
  -22.4460  -28.0480   21.5460 N   0  0  0  0  0  0  0  0  0  0  0  0
  -24.5390  -27.4150   22.1160 O   0  0  0  0  0  0  0  0  0  0  0  0
  -21.8840  -28.7580   21.0980 H   0  0  0  0  0  0  0  0  0  0  0  0
  -19.1510  -26.6110   21.9980 C   0  0  0  0  0  0  0  0  0  0  0  0
  -21.7170  -26.9070   22.1090 C   0  0  0  0  0  3  0  0  0  0  0  0
  -21.7940  -25.6790   21.1710 C   0  0  0  0  0  2  0  0  0  0  0  0
  -20.6100  -25.5860   20.2030 C   0  0  0  0  0  2  0  0  0  0  0  0
  -19.2910  -25.4970   20.9760 C   0  0  0  0  0  2  0  0  0  0  0  0
  -20.2880  -27.2830   22.5190 C   0  0  0  0  0  0  0  0  0  0  0  0
  -20.0980  -28.3330   23.4440 C   0  0  0  0  0  3  0  0  0  0  0  0
  -18.8040  -28.7120   23.8480 C   0  0  0  0  0  3  0  0  0  0  0  0
  -17.6820  -28.0350   23.3380 C   0  0  0  0  0  3  0  0  0  0  0  0
  -17.8570  -26.9840   22.4200 C   0  0  0  0  0  3  0  0  0  0  0  0
  -27.0800  -30.8600   23.3270 C   0  0  0  0  0  3  0  0  0  0  0  0
  -26.7670  -31.9160   24.3050 N   0  0  0  0  0  0  0  0  0  0  0  0
  -26.9360  -33.2290   24.0950 C   0  0  0  0  0  0  0  0  0  0  0  0
  -27.4420  -33.6790   23.0640 O   0  0  0  0  0  0  0  0  0  0  0  0
  -26.2950  -31.6240   25.1480 H   0  0  0  0  0  0  0  0  0  0  0  0
  -25.1150  -34.8060   24.8280 C   0  0  0  0  0  1  0  0  0  0  0  0
  -26.4750  -34.1950   25.2050 C   0  0  0  0  0  3  0  0  0  0  0  0
  -28.6740  -34.8050   26.1130 C   0  0  0  0  0  1  0  0  0  0  0  0
  -27.4430  -35.2780   25.4850 N   0  0  0  0  0  0  0  0  0  0  0  0
  -27.0300  -35.9830   26.0890 H   0  0  0  0  0  0  0  0  0  0  0  0
  -27.8800  -29.6910   24.0240 C   0  0  1  0  0  0  0  0  0  0  0  0
  -27.0390  -28.8750   25.0350 C   0  0  0  0  0  1  0  0  0  0  0  0
  -28.4390  -28.7010   22.9780 C   0  0  0  0  0  1  0  0  0  0  0  0
  -29.1010  -30.2710   24.7760 C   0  0  0  0  0  1  0  0  0  0  0  0
  1  2  1  0
  1  4  2  0
  2  6  2  0
  6 48  1  0
  7 19  1  0
  8 13  1  0
  9  8  2  0
  9 10  1  0
 10 11  1  0
 11 23  1  0
 11 12  1  0
 13  7  1  0
 13 19  1  0
 14  7  2  0
 17 19  1  0
 18  4  1  0
 18 17  1  0
 19 16  1  1
 20 21  1  0
 21 40  1  0
 22 21  2  0
 22 25  1  0
 23 20  1  0
 23 24  1  0
 24 22  1  0
 25 26  1  0
 26 27  2  0
 28 31  1  0
 28 27  1  0
 29 28  2  0
 30 29  1  0
 30 25  2  0
 31 32  1  0
 32 33  1  0
 33 34  2  0
 35 34  1  0
 35 39  1  0
 36 35  2  0
 37 32  2  0
 37 36  1  0
 38 37  1  0
 40 41  1  0
 41 44  1  0
 41 43  1  0
 42 40  2  0
 45 46  1  0
 47 45  1  0
 48 49  1  0
 51 52  2  0
 51 50  1  0
 53 54  2  0
 53 52  1  0
 55 57  1  0
 55 54  1  0
 56 67  2  0
 57 62  1  0
 58 66  1  0
 58 68  1  0
 59 65  1  0
 59 61  1  0
 60 66  1  0
 61 60  1  0
 62 61  2  0
 63 64  1  0
 63 57  2  0
 64 59  2  0
 65 58  1  0
 66 56  1  0
 68 70  2  0
 69 68  1  0
 71 69  1  0
 72 81  2  0
 72 77  1  0
 73 69  1  0
 73 77  1  0
 74 73  1  0
 75 76  1  0
 75 74  1  0
 76 72  1  0
 77 78  2  0
 78 79  1  0
 80 79  2  0
 81 80  1  0
 82 56  1  0
 82 92  1  0
 82 83  1  0
 83 86  1  0
 84 83  1  0
 84 88  1  0
 85 84  2  0
 88 87  1  0
 88 90  1  0
 90 91  1  0
 90 89  1  0
 92 95  1  1
 92 93  1  0
 94 92  1  0
M  ISO  4   7 100  19 100  54 101  55 101
M  END
>  <TORSDO>  (11) 
F 22

>  <SCORE>  (11) 
0.017

>  <name>  (11) 
10

>  <ligand_id>  (11) 
10

>  <original_smiles>  (11) 
[H]Oc1c([H])c([H])c(C2([H])C([H])([H])N(C(=O)N3C([H])([H])C([H])([H])C([H])([H])C([H])(n4nc(-c5c([H])c([H])c(Oc6c([H])c([H])c(F)c([H])c6F)c([H])c5[H])c(C(=O)N([H])[H])c4N([H])[H])C3([H])[H])C([H])([H])C2([H])[H])c([H])c1C([H])([H])C([H])([H])C([H])([H])C([H])([H])C([H])([H])Oc1c([H])c([H])c2c(c1[H])C([H])([H])N(C(=O)C([H])(N([H])C(=O)C([H])(N([H])C([H])([H])[H])C([H])([H])[H])C(C([H])([H])[H])(C([H])([H])[H])C([H])([H])[H])C([H])(C(=O)N([H])C1([H])c3c([H])c([H])c([H])c([H])c3C([H])([H])C([H])([H])C1([H])[H])C2([H])[H]

>  <smiles>  (11) 
[H]Oc1c([H])c([H])c(C2([H])C([H])([H])N(C(=O)N3C([H])([H])C([H])([H])C([H])([H])C([H])(n4nc(-c5c([H])c([H])c(Oc6c([H])c([H])c(F)c([H])c6F)c([H])c5[H])c(C(=O)N([H])[H])c4N([H])[H])C3([H])[H])C([H])([H])C2([H])[H])c([H])c1C([H])([H])C([H])([H])C([H])([H])C([H])([H])C([H])([H])Oc1c([H])c([H])c2c(c1[H])C([H])([H])N(C(=O)C([H])(N([H])C(=O)C([H])(N([H])C([H])([H])[H])C([H])([H])[H])C(C([H])([H])[H])(C([H])([H])[H])C([H])([H])[H])C([H])(C(=O)N([H])C1([H])c3c([H])c([H])c([H])c([H])c3C([H])([H])C([H])([H])C1([H])[H])C2([H])[H]

$$$$
11:0:0
     RDKit          3D

 96105  0  0  1  0  0  0  0  0999 V2000
  -29.1960  -21.7520   18.2390 C   0  0  0  0  0  3  0  0  0  0  0  0
  -30.1120  -21.2480   16.0430 C   0  0  0  0  0  3  0  0  0  0  0  0
  -29.8120  -23.0150   18.2070 C   0  0  0  0  0  3  0  0  0  0  0  0
  -30.6650  -22.5450   15.9790 C   0  0  0  0  0  3  0  0  0  0  0  0
  -29.4570  -20.8190   17.2160 C   0  0  0  0  0  0  0  0  0  0  0  0
  -30.6130  -23.3900   17.1090 C   0  0  0  0  0  0  0  0  0  0  0  0
  -29.1690  -19.3410   17.4580 C   0  0  0  0  0  2  0  0  0  0  0  0
  -31.5990  -18.9360   20.5650 C   0  0  0  0  0  2  0  0  0  0  0  0
  -31.1670  -19.3230   19.1420 C   0  0  0  0  0  2  0  0  0  0  0  0
  -31.5400  -17.4190   20.7440 C   0  0  0  0  0  2  0  0  0  0  0  0
  -29.6840  -17.2940   19.0010 C   0  0  0  0  0  2  0  0  0  0  0  0
  -29.7290  -18.8300   18.8220 C   0  0  0  0  0  3  0  0  0  0  0  0
  -30.1100  -16.9050   20.4390 C   0  0  0  0  0  3  0  0  0  0  0  0
  -30.6520  -14.4300   20.4280 C   0  0  0  0  0  0  0  0  0  0  0  0
  -30.3350  -12.2690   19.3410 C   0  0  0  0  0  2  0  0  0  0  0  0
  -29.4100  -12.5220   18.1340 C   0  0  0  0  0  2  0  0  0  0  0  0
  -27.9360  -12.3890   18.5680 C   0  0  0  0  0  2  0  0  0  0  0  0
  -27.5980  -13.2290   19.8290 C   0  0  0  0  0  3  0  0  0  0  0  0
  -28.6490  -13.0030   20.9400 C   0  0  0  0  0  2  0  0  0  0  0  0
  -29.9800  -13.2560   20.3660 N   0  0  0  0  0  0  0  0  0  0  0  0
  -31.8100  -14.5660   20.0240 O   0  0  0  0  0  0  0  0  0  0  0  0
  -29.8810  -15.4820   20.7220 N   0  0  0  0  0  0  0  0  0  0  0  0
  -28.9430  -15.2520   21.0130 H   0  0  0  0  0  0  0  0  0  0  0  0
  -25.2030  -13.8440   20.5490 C   0  0  0  0  0  0  0  0  0  0  0  0
  -24.1320  -13.0750   20.9200 C   0  0  0  0  0  0  0  0  0  0  0  0
  -24.5890  -11.7220   20.8830 C   0  0  0  0  0  0  0  0  0  0  0  0
  -26.2420  -12.9610   20.3100 N   0  0  0  0  0  0  0  0  0  0  0  0
  -25.8770  -11.6800   20.5670 N   0  0  0  0  0  0  0  0  0  0  0  0
  -23.8600  -10.4610   21.0730 C   0  0  0  0  0  0  0  0  0  0  0  0
  -24.2960   -9.4880   22.0000 C   0  0  0  0  0  3  0  0  0  0  0  0
  -23.5670   -8.2920   22.1780 C   0  0  0  0  0  3  0  0  0  0  0  0
  -22.3900   -8.0600   21.4280 C   0  0  0  0  0  0  0  0  0  0  0  0
  -21.9740   -9.0190   20.4890 C   0  0  0  0  0  3  0  0  0  0  0  0
  -22.7040  -10.2050   20.3090 C   0  0  0  0  0  3  0  0  0  0  0  0
  -21.6340   -6.9130   21.5090 O   0  0  0  0  0  0  0  0  0  0  0  0
  -21.5890   -6.1630   22.6540 C   0  0  0  0  0  0  0  0  0  0  0  0
  -21.1730   -6.7070   23.8900 C   0  0  0  0  0  3  0  0  0  0  0  0
  -21.0780   -5.8810   25.0260 C   0  0  0  0  0  3  0  0  0  0  0  0
  -21.3940   -4.5120   24.9320 C   0  0  0  0  0  0  0  0  0  0  0  0
  -21.8070   -3.9690   23.7020 C   0  0  0  0  0  3  0  0  0  0  0  0
  -21.9030   -4.7910   22.5670 C   0  0  0  0  0  0  0  0  0  0  0  0
  -22.2820   -4.2600   21.3790 F   0  0  0  0  0  0  0  0  0  0  0  0
  -21.2950   -3.7170   26.0220 F   0  0  0  0  0  0  0  0  0  0  0  0
  -22.7370  -13.5560   21.1960 C   0  0  0  0  0  0  0  0  0  0  0  0
  -22.0070  -12.8600   22.0590 N   0  0  0  0  0  0  0  0  0  0  0  0
  -22.3040  -14.5890   20.6850 O   0  0  0  0  0  0  0  0  0  0  0  0
  -22.3720  -12.0280   22.4980 H   0  0  0  0  0  0  0  0  0  0  0  0
  -21.0700  -13.1650   22.2840 H   0  0  0  0  0  0  0  0  0  0  0  0
  -25.3780  -15.2140   20.3800 N   0  0  0  0  0  0  0  0  0  0  0  0
  -24.6230  -15.8800   20.4820 H   0  0  0  0  0  0  0  0  0  0  0  0
  -26.2330  -15.6390   20.0520 H   0  0  0  0  0  0  0  0  0  0  0  0
  -31.5140  -24.6200   17.1850 C   0  0  0  0  0  2  0  0  0  0  0  0
  -30.7720  -25.9600   17.2760 C   0  0  0  0  0  2  0  0  0  0  0  0
  -30.3340  -26.3350   18.7050 C   0  0  0  0  0  2  0  0  0  0  0  0
  -28.8740  -26.7770   18.7390 C   0  0  0  0  0  2  0  0  0  0  0  0
  -28.4280  -26.8420   20.0840 O   0  0  0  0  0  0  0  0  0  0  0  0
  -24.5670  -31.8890   23.2470 C   0  0  0  0  0  0  0  0  0  0  0  0
  -27.2330  -27.4970   20.1740 C   0  0  0  0  0  0  0  0  0  0  0  0
  -23.3580  -30.4760   21.6060 C   0  0  0  0  0  3  0  0  0  0  0  0
  -24.8190  -28.9300   20.2000 C   0  0  0  0  0  0  0  0  0  0  0  0
  -25.8720  -30.8630   21.3950 C   0  0  0  0  0  2  0  0  0  0  0  0
  -25.9680  -29.4860   20.7760 C   0  0  0  0  0  0  0  0  0  0  0  0
  -27.1820  -28.7650   20.7740 C   0  0  0  0  0  3  0  0  0  0  0  0
  -26.0610  -26.9270   19.6260 C   0  0  0  0  0  3  0  0  0  0  0  0
  -24.8530  -27.6420   19.6380 C   0  0  0  0  0  3  0  0  0  0  0  0
  -23.5620  -29.7690   20.2360 C   0  0  0  0  0  2  0  0  0  0  0  0
  -24.6160  -31.0930   22.1430 N   0  0  0  0  0  0  0  0  0  0  0  0
  -23.4880  -32.1630   23.7890 O   0  0  0  0  0  0  0  0  0  0  0  0
  -22.7190  -29.4590   22.5720 C   0  0  0  0  0  0  0  0  0  0  0  0
  -21.3970  -29.2680   22.4450 N   0  0  0  0  0  0  0  0  0  0  0  0
  -23.4070  -28.8380   23.3870 O   0  0  0  0  0  0  0  0  0  0  0  0
  -20.9120  -29.8150   21.7480 H   0  0  0  0  0  0  0  0  0  0  0  0
  -18.0220  -28.0860   22.9450 C   0  0  0  0  0  0  0  0  0  0  0  0
  -20.5810  -28.3310   23.2130 C   0  0  0  0  0  3  0  0  0  0  0  0
  -20.6770  -26.9020   22.6260 C   0  0  0  0  0  2  0  0  0  0  0  0
  -19.5680  -26.5870   21.6130 C   0  0  0  0  0  2  0  0  0  0  0  0
  -18.1890  -26.7390   22.2630 C   0  0  0  0  0  2  0  0  0  0  0  0
  -19.1450  -28.8400   23.3740 C   0  0  0  0  0  0  0  0  0  0  0  0
  -18.9360  -30.1030   23.9700 C   0  0  0  0  0  3  0  0  0  0  0  0
  -17.6350  -30.6090   24.1420 C   0  0  0  0  0  3  0  0  0  0  0  0
  -16.5250  -29.8510   23.7330 C   0  0  0  0  0  3  0  0  0  0  0  0
  -16.7210  -28.5890   23.1410 C   0  0  0  0  0  3  0  0  0  0  0  0
  -25.8580  -32.5150   23.8670 C   0  0  0  0  0  3  0  0  0  0  0  0
  -25.5550  -33.9150   24.1950 N   0  0  0  0  0  0  0  0  0  0  0  0
  -25.8920  -34.9590   23.4270 C   0  0  0  0  0  0  0  0  0  0  0  0
  -26.5630  -34.8520   22.3970 O   0  0  0  0  0  0  0  0  0  0  0  0
  -24.9790  -34.0720   25.0090 H   0  0  0  0  0  0  0  0  0  0  0  0
  -24.1740  -36.7500   23.0370 C   0  0  0  0  0  1  0  0  0  0  0  0
  -25.4020  -36.3500   23.8740 C   0  0  0  0  0  3  0  0  0  0  0  0
  -27.5260  -37.2250   24.7370 C   0  0  0  0  0  1  0  0  0  0  0  0
  -26.4400  -37.3990   23.7740 N   0  0  0  0  0  0  0  0  0  0  0  0
  -26.0350  -38.3200   23.9160 H   0  0  0  0  0  0  0  0  0  0  0  0
  -26.3790  -31.7470   25.1420 C   0  0  1  0  0  0  0  0  0  0  0  0
  -25.2900  -31.5080   26.2110 C   0  0  0  0  0  1  0  0  0  0  0  0
  -26.9630  -30.3730   24.7430 C   0  0  0  0  0  1  0  0  0  0  0  0
  -27.5310  -32.5420   25.8000 C   0  0  0  0  0  1  0  0  0  0  0  0
  2  5  1  0
  3  1  1  0
  4  2  2  0
  4  6  1  0
  5  7  1  0
  5  1  2  0
  6 52  1  0
  6  3  2  0
  8 10  1  0
  9  8  1  0
 11 13  1  0
 12  7  1  0
 12 11  1  0
 12  9  1  0
 13 22  1  0
 13 10  1  0
 14 22  1  0
 15 20  1  0
 16 17  1  0
 16 15  1  0
 18 17  1  0
 18 27  1  0
 18 19  1  0
 20 14  1  0
 20 19  1  0
 21 14  2  0
 22 23  1  0
 24 25  2  0
 25 44  1  0
 26 25  1  0
 26 29  1  0
 27 24  1  0
 27 28  1  0
 28 26  2  0
 29 30  1  0
 30 31  2  0
 32 35  1  0
 32 31  1  0
 33 32  2  0
 34 33  1  0
 34 29  2  0
 35 36  1  0
 36 37  1  0
 37 38  2  0
 39 38  1  0
 39 43  1  0
 40 39  2  0
 41 36  2  0
 41 40  1  0
 42 41  1  0
 44 45  1  0
 45 48  1  0
 45 47  1  0
 46 44  2  0
 49 50  1  0
 49 24  1  0
 51 49  1  0
 52 53  1  0
 53 54  1  0
 54 55  1  0
 55 56  1  0
 56 58  1  0
 57 68  2  0
 58 63  1  0
 59 67  1  0
 59 69  1  0
 60 66  1  0
 60 62  1  0
 61 67  1  0
 62 61  1  0
 63 62  2  0
 64 65  1  0
 64 58  2  0
 65 60  2  0
 66 59  1  0
 67 57  1  0
 69 71  2  0
 70 69  1  0
 72 70  1  0
 73 82  2  0
 73 78  1  0
 74 70  1  0
 74 78  1  0
 75 74  1  0
 76 77  1  0
 76 75  1  0
 77 73  1  0
 78 79  2  0
 79 80  1  0
 81 80  2  0
 82 81  1  0
 83 57  1  0
 83 84  1  0
 83 93  1  0
 84 87  1  0
 85 89  1  0
 85 84  1  0
 86 85  2  0
 89 88  1  0
 91 89  1  0
 91 92  1  0
 91 90  1  0
 93 96  1  1
 93 94  1  0
 95 93  1  0
M  ISO  4  14 100  22 100  55 101  56 101
M  END
>  <TORSDO>  (12) 
F 22

>  <SCORE>  (12) 
-13.259

>  <name>  (12) 
11

>  <ligand_id>  (12) 
11

>  <original_smiles>  (12) 
[H]c1c([H])c([H])c2c(c1[H])C([H])([H])C([H])([H])C([H])([H])C2([H])N([H])C(=O)C1([H])N(C(=O)C([H])(N([H])C(=O)C([H])(N([H])C([H])([H])[H])C([H])([H])[H])C(C([H])([H])[H])(C([H])([H])[H])C([H])([H])[H])C([H])([H])c2c([H])c(OC([H])([H])C([H])([H])C([H])([H])C([H])([H])c3c([H])c([H])c(C([H])([H])C4([H])C([H])([H])C([H])([H])C([H])([H])C([H])(N([H])C(=O)N5C([H])([H])C([H])([H])C([H])([H])C([H])(n6nc(-c7c([H])c([H])c(Oc8c([H])c([H])c(F)c([H])c8F)c([H])c7[H])c(C(=O)N([H])[H])c6N([H])[H])C5([H])[H])C4([H])[H])c([H])c3[H])c([H])c([H])c2C1([H])[H]

>  <smiles>  (12) 
[H]c1c([H])c([H])c2c(c1[H])C([H])([H])C([H])([H])C([H])([H])C2([H])N([H])C(=O)C1([H])N(C(=O)C([H])(N([H])C(=O)C([H])(N([H])C([H])([H])[H])C([H])([H])[H])C(C([H])([H])[H])(C([H])([H])[H])C([H])([H])[H])C([H])([H])c2c([H])c(OC([H])([H])C([H])([H])C([H])([H])C([H])([H])c3c([H])c([H])c(C([H])([H])C4([H])C([H])([H])C([H])([H])C([H])([H])C([H])(N([H])C(=O)N5C([H])([H])C([H])([H])C([H])([H])C([H])(n6nc(-c7c([H])c([H])c(Oc8c([H])c([H])c(F)c([H])c8F)c([H])c7[H])c(C(=O)N([H])[H])c6N([H])[H])C5([H])[H])C4([H])[H])c([H])c3[H])c([H])c([H])c2C1([H])[H]

$$$$
12:0:0
     RDKit          3D

 96104  0  0  1  0  0  0  0  0999 V2000
  -29.3120  -23.8360   19.3180 C   0  0  0  0  0  1  0  0  0  0  0  0
  -28.5880  -23.1940   20.5320 C   0  0  1  0  0  0  0  0  0  0  0  0
  -31.2530  -21.1020   23.3190 C   0  0  0  0  0  3  0  0  0  0  0  0
  -31.7540  -21.5520   22.0850 C   0  0  0  0  0  3  0  0  0  0  0  0
  -29.9080  -21.3330   23.6510 C   0  0  0  0  0  3  0  0  0  0  0  0
  -30.9120  -22.2310   21.1820 C   0  0  0  0  0  3  0  0  0  0  0  0
  -29.0660  -22.0090   22.7480 C   0  0  0  0  0  3  0  0  0  0  0  0
  -29.5510  -22.4730   21.5010 C   0  0  0  0  0  0  0  0  0  0  0  0
  -27.8110  -24.3130   21.2870 C   0  0  0  0  0  2  0  0  0  0  0  0
  -28.5560  -25.6540   21.4480 C   0  0  0  0  0  2  0  0  0  0  0  0
  -28.4110  -26.4310   20.2580 O   0  0  0  0  0  0  0  0  0  0  0  0
  -24.6570  -31.6260   23.2950 C   0  0  0  0  0  0  0  0  0  0  0  0
  -27.2720  -27.1930   20.2320 C   0  0  0  0  0  0  0  0  0  0  0  0
  -23.4620  -30.2960   21.5820 C   0  0  0  0  0  3  0  0  0  0  0  0
  -24.9170  -28.7350   20.1830 C   0  0  0  0  0  0  0  0  0  0  0  0
  -25.9970  -30.5870   21.4750 C   0  0  0  0  0  2  0  0  0  0  0  0
  -26.0630  -29.2260   20.8210 C   0  0  0  0  0  0  0  0  0  0  0  0
  -27.2430  -28.4590   20.8510 C   0  0  0  0  0  3  0  0  0  0  0  0
  -26.1210  -26.7090   19.5810 C   0  0  0  0  0  3  0  0  0  0  0  0
  -24.9350  -27.4720   19.5660 C   0  0  0  0  0  3  0  0  0  0  0  0
  -23.6960  -29.6270   20.2000 C   0  0  0  0  0  2  0  0  0  0  0  0
  -24.7220  -30.8490   22.1770 N   0  0  0  0  0  0  0  0  0  0  0  0
  -23.5690  -31.9250   23.8050 O   0  0  0  0  0  0  0  0  0  0  0  0
  -22.7430  -29.2810   22.4990 C   0  0  0  0  0  0  0  0  0  0  0  0
  -21.4130  -29.1750   22.3460 N   0  0  0  0  0  0  0  0  0  0  0  0
  -23.3800  -28.5940   23.3030 O   0  0  0  0  0  0  0  0  0  0  0  0
  -20.9640  -29.7750   21.6680 H   0  0  0  0  0  0  0  0  0  0  0  0
  -17.9650  -28.2140   22.8220 C   0  0  0  0  0  0  0  0  0  0  0  0
  -20.5370  -28.2590   23.0760 C   0  0  0  0  0  3  0  0  0  0  0  0
  -20.5240  -26.8600   22.4200 C   0  0  0  0  0  2  0  0  0  0  0  0
  -19.3930  -26.6790   21.4030 C   0  0  0  0  0  2  0  0  0  0  0  0
  -18.0310  -26.8940   22.0710 C   0  0  0  0  0  2  0  0  0  0  0  0
  -19.1420  -28.8610   23.2800 C   0  0  0  0  0  0  0  0  0  0  0  0
  -19.0290  -30.1010   23.9440 C   0  0  0  0  0  3  0  0  0  0  0  0
  -17.7700  -30.6940   24.1500 C   0  0  0  0  0  3  0  0  0  0  0  0
  -16.6050  -30.0420   23.7110 C   0  0  0  0  0  3  0  0  0  0  0  0
  -16.7030  -28.8020   23.0550 C   0  0  0  0  0  3  0  0  0  0  0  0
  -25.9460  -32.1970   23.9700 C   0  0  0  0  0  3  0  0  0  0  0  0
  -26.4060  -31.3710   25.2340 C   0  0  1  0  0  0  0  0  0  0  0  0
  -25.2760  -31.1290   26.2610 C   0  0  0  0  0  1  0  0  0  0  0  0
  -26.9590  -29.9900   24.8110 C   0  0  0  0  0  1  0  0  0  0  0  0
  -27.5620  -32.1120   25.9500 C   0  0  0  0  0  1  0  0  0  0  0  0
  -25.6720  -33.5940   24.3290 N   0  0  0  0  0  0  0  0  0  0  0  0
  -26.0450  -34.6530   23.5990 C   0  0  0  0  0  0  0  0  0  0  0  0
  -26.7280  -34.5540   22.5760 O   0  0  0  0  0  0  0  0  0  0  0  0
  -25.0660  -33.7500   25.1210 H   0  0  0  0  0  0  0  0  0  0  0  0
  -24.3700  -36.4970   23.2580 C   0  0  0  0  0  1  0  0  0  0  0  0
  -25.5870  -36.0430   24.0790 C   0  0  0  0  0  3  0  0  0  0  0  0
  -27.7290  -36.8490   24.9600 C   0  0  0  0  0  1  0  0  0  0  0  0
  -26.6460  -37.0710   24.0050 N   0  0  0  0  0  0  0  0  0  0  0  0
  -26.2630  -37.9970   24.1730 H   0  0  0  0  0  0  0  0  0  0  0  0
  -27.5460  -22.1790   19.9790 C   0  0  0  0  0  2  0  0  0  0  0  0
  -28.1500  -20.8930   19.3720 C   0  0  0  0  0  2  0  0  0  0  0  0
  -28.3190  -19.7360   20.3670 C   0  0  0  0  0  2  0  0  0  0  0  0
  -29.6210  -18.9770   20.0940 C   0  0  0  0  0  2  0  0  0  0  0  0
  -29.8860  -17.8270   21.0690 C   0  0  0  0  0  2  0  0  0  0  0  0
  -31.3290  -17.3240   20.9280 C   0  0  0  0  0  2  0  0  0  0  0  0
  -31.5810  -15.9620   21.5940 C   0  0  0  0  0  2  0  0  0  0  0  0
  -30.7900  -14.2110   20.0080 C   0  0  0  0  0  0  0  0  0  0  0  0
  -30.4030  -11.9670   19.0740 C   0  0  0  0  0  2  0  0  0  0  0  0
  -29.3890  -11.9270   17.9200 C   0  0  0  0  0  2  0  0  0  0  0  0
  -27.9600  -11.7870   18.4690 C   0  0  0  0  0  2  0  0  0  0  0  0
  -27.6440  -12.8320   19.5710 C   0  0  0  0  0  3  0  0  0  0  0  0
  -28.7570  -12.8660   20.6420 C   0  0  0  0  0  2  0  0  0  0  0  0
  -30.0580  -13.0720   19.9790 N   0  0  0  0  0  0  0  0  0  0  0  0
  -31.6510  -14.4880   19.1680 O   0  0  0  0  0  0  0  0  0  0  0  0
  -30.6600  -14.9210   21.1350 N   0  0  0  0  0  0  0  0  0  0  0  0
  -29.9640  -14.5970   21.7910 H   0  0  0  0  0  0  0  0  0  0  0  0
  -25.3490  -13.4970   20.5360 C   0  0  0  0  0  0  0  0  0  0  0  0
  -24.2900  -12.7470   20.9770 C   0  0  0  0  0  0  0  0  0  0  0  0
  -24.6890  -11.3830   20.8430 C   0  0  0  0  0  0  0  0  0  0  0  0
  -26.3310  -12.5890   20.1680 N   0  0  0  0  0  0  0  0  0  0  0  0
  -25.9400  -11.3100   20.4070 N   0  0  0  0  0  0  0  0  0  0  0  0
  -23.9340  -10.1410   21.0510 C   0  0  0  0  0  0  0  0  0  0  0  0
  -24.3650   -9.1580   21.9680 C   0  0  0  0  0  3  0  0  0  0  0  0
  -23.6130   -7.9800   22.1630 C   0  0  0  0  0  3  0  0  0  0  0  0
  -22.4130   -7.7760   21.4400 C   0  0  0  0  0  0  0  0  0  0  0  0
  -21.9990   -8.7460   20.5110 C   0  0  0  0  0  3  0  0  0  0  0  0
  -22.7520   -9.9170   20.3150 C   0  0  0  0  0  3  0  0  0  0  0  0
  -21.6310   -6.6510   21.5450 O   0  0  0  0  0  0  0  0  0  0  0  0
  -21.5810   -5.9140   22.7010 C   0  0  0  0  0  0  0  0  0  0  0  0
  -21.1270   -6.4690   23.9180 C   0  0  0  0  0  3  0  0  0  0  0  0
  -21.0260   -5.6580   25.0670 C   0  0  0  0  0  3  0  0  0  0  0  0
  -21.3680   -4.2940   24.9980 C   0  0  0  0  0  0  0  0  0  0  0  0
  -21.8140   -3.7390   23.7860 C   0  0  0  0  0  3  0  0  0  0  0  0
  -21.9170   -4.5480   22.6400 C   0  0  0  0  0  0  0  0  0  0  0  0
  -22.3280   -4.0040   21.4700 F   0  0  0  0  0  0  0  0  0  0  0  0
  -21.2640   -3.5130   26.0990 F   0  0  0  0  0  0  0  0  0  0  0  0
  -22.9460  -13.2630   21.4070 C   0  0  0  0  0  0  0  0  0  0  0  0
  -22.2720  -12.5470   22.3020 N   0  0  0  0  0  0  0  0  0  0  0  0
  -22.5070  -14.3320   20.9870 O   0  0  0  0  0  0  0  0  0  0  0  0
  -22.6410  -11.6800   22.6640 H   0  0  0  0  0  0  0  0  0  0  0  0
  -21.3720  -12.8710   22.6270 H   0  0  0  0  0  0  0  0  0  0  0  0
  -25.5530  -14.8660   20.4020 N   0  0  0  0  0  0  0  0  0  0  0  0
  -24.8350  -15.5480   20.6180 H   0  0  0  0  0  0  0  0  0  0  0  0
  -26.3970  -15.2840   20.0310 H   0  0  0  0  0  0  0  0  0  0  0  0
  2  1  1  6
  2  9  1  0
  2  8  1  0
  3  5  1  0
  4  3  2  0
  6  8  2  0
  6  4  1  0
  7  5  2  0
  8  7  1  0
  9 10  1  0
 11 10  1  0
 12 23  2  0
 13 11  1  0
 13 18  1  0
 14 22  1  0
 14 24  1  0
 15 21  1  0
 15 17  1  0
 16 22  1  0
 17 18  2  0
 17 16  1  0
 19 13  2  0
 20 19  1  0
 20 15  2  0
 21 14  1  0
 22 12  1  0
 24 26  2  0
 25 24  1  0
 27 25  1  0
 28 37  2  0
 28 33  1  0
 29 25  1  0
 29 33  1  0
 30 29  1  0
 31 32  1  0
 31 30  1  0
 32 28  1  0
 33 34  2  0
 34 35  1  0
 36 35  2  0
 37 36  1  0
 38 12  1  0
 38 43  1  0
 38 39  1  0
 39 42  1  1
 39 40  1  0
 41 39  1  0
 43 46  1  0
 44 48  1  0
 44 43  1  0
 45 44  2  0
 48 47  1  0
 50 48  1  0
 50 51  1  0
 50 49  1  0
 52  2  1  0
 53 52  1  0
 53 54  1  0
 55 54  1  0
 55 56  1  0
 57 56  1  0
 57 58  1  0
 59 67  1  0
 60 65  1  0
 61 62  1  0
 61 60  1  0
 63 62  1  0
 63 72  1  0
 63 64  1  0
 65 59  1  0
 65 64  1  0
 66 59  2  0
 67 58  1  0
 67 68  1  0
 69 70  2  0
 70 89  1  0
 71 70  1  0
 71 74  1  0
 72 73  1  0
 72 69  1  0
 73 71  2  0
 74 75  1  0
 75 76  2  0
 77 80  1  0
 77 76  1  0
 78 77  2  0
 79 78  1  0
 79 74  2  0
 80 81  1  0
 81 82  1  0
 82 83  2  0
 84 83  1  0
 84 88  1  0
 85 84  2  0
 86 81  2  0
 86 85  1  0
 87 86  1  0
 89 90  1  0
 90 93  1  0
 90 92  1  0
 91 89  2  0
 94 69  1  0
 94 95  1  0
 96 94  1  0
M  ISO  4  10 101  11 101  59 100  67 100
M  END
>  <TORSDO>  (13) 
F 26

>  <SCORE>  (13) 
-11.461

>  <name>  (13) 
12

>  <ligand_id>  (13) 
12

>  <original_smiles>  (13) 
[H]c1c([H])c([H])c(C(C([H])([H])[H])(C([H])([H])C([H])([H])Oc2c([H])c([H])c3c(c2[H])C([H])([H])N(C(=O)C([H])(N([H])C(=O)C([H])(N([H])C([H])([H])[H])C([H])([H])[H])C(C([H])([H])[H])(C([H])([H])[H])C([H])([H])[H])C([H])(C(=O)N([H])C2([H])c4c([H])c([H])c([H])c([H])c4C([H])([H])C([H])([H])C2([H])[H])C3([H])[H])C([H])([H])C([H])([H])C([H])([H])C([H])([H])C([H])([H])C([H])([H])C([H])([H])N([H])C(=O)N2C([H])([H])C([H])([H])C([H])([H])C([H])(n3nc(-c4c([H])c([H])c(Oc5c([H])c([H])c(F)c([H])c5F)c([H])c4[H])c(C(=O)N([H])[H])c3N([H])[H])C2([H])[H])c([H])c1[H]

>  <smiles>  (13) 
[H]c1c([H])c([H])c(C(C([H])([H])[H])(C([H])([H])C([H])([H])Oc2c([H])c([H])c3c(c2[H])C([H])([H])N(C(=O)C([H])(N([H])C(=O)C([H])(N([H])C([H])([H])[H])C([H])([H])[H])C(C([H])([H])[H])(C([H])([H])[H])C([H])([H])[H])C([H])(C(=O)N([H])C2([H])c4c([H])c([H])c([H])c([H])c4C([H])([H])C([H])([H])C2([H])[H])C3([H])[H])C([H])([H])C([H])([H])C([H])([H])C([H])([H])C([H])([H])C([H])([H])C([H])([H])N([H])C(=O)N2C([H])([H])C([H])([H])C([H])([H])C([H])(n3nc(-c4c([H])c([H])c(Oc5c([H])c([H])c(F)c([H])c5F)c([H])c4[H])c(C(=O)N([H])[H])c3N([H])[H])C2([H])[H])c([H])c1[H]

$$$$
13:0:0
     RDKit          3D

 93102  0  0  1  0  0  0  0  0999 V2000
  -30.6900  -20.4660   21.6110 C   0  0  0  0  0  3  0  0  0  0  0  0
  -30.8920  -21.8410   21.8430 C   0  0  0  0  0  3  0  0  0  0  0  0
  -28.7530  -22.3270   20.8010 C   0  0  0  0  0  3  0  0  0  0  0  0
  -29.5130  -19.9980   20.9830 C   0  0  0  0  0  0  0  0  0  0  0  0
  -29.9150  -22.7800   21.4550 C   0  0  0  0  0  0  0  0  0  0  0  0
  -28.5480  -20.9510   20.5530 C   0  0  0  0  0  0  0  0  0  0  0  0
  -27.2810  -20.5370   19.8210 C   0  0  0  0  0  1  0  0  0  0  0  0
  -31.0560  -14.5980   19.9820 C   0  0  0  0  0  0  0  0  0  0  0  0
  -30.6920  -12.3980   18.9360 C   0  0  0  0  0  2  0  0  0  0  0  0
  -29.6850  -12.5540   17.7790 C   0  0  0  0  0  2  0  0  0  0  0  0
  -28.2400  -12.4130   18.2980 C   0  0  0  0  0  2  0  0  0  0  0  0
  -27.9630  -13.3000   19.5400 C   0  0  0  0  0  3  0  0  0  0  0  0
  -29.0820  -13.1550   20.5960 C   0  0  0  0  0  2  0  0  0  0  0  0
  -30.3680  -13.4260   19.9360 N   0  0  0  0  0  0  0  0  0  0  0  0
  -32.1920  -14.7260   19.5110 O   0  0  0  0  0  0  0  0  0  0  0  0
  -29.9200  -18.0300   19.4260 C   0  0  0  0  0  2  0  0  0  0  0  0
  -29.8830  -17.6160   21.9330 C   0  0  0  0  0  2  0  0  0  0  0  0
  -29.7660  -16.5060   19.2530 C   0  0  0  0  0  2  0  0  0  0  0  0
  -30.8500  -16.4890   21.4890 C   0  0  0  0  0  2  0  0  0  0  0  0
  -29.3370  -18.4850   20.7710 C   0  0  0  0  0  3  0  0  0  0  0  0
  -30.3470  -15.6940   20.3520 N   0  0  0  0  0  0  0  0  0  0  0  0
  -25.6490  -13.9500   20.4530 C   0  0  0  0  0  0  0  0  0  0  0  0
  -24.5850  -13.1930   20.8630 C   0  0  0  0  0  0  0  0  0  0  0  0
  -24.9990  -11.8330   20.7390 C   0  0  0  0  0  0  0  0  0  0  0  0
  -26.6430  -13.0470   20.1060 N   0  0  0  0  0  0  0  0  0  0  0  0
  -26.2610  -11.7680   20.3370 N   0  0  0  0  0  0  0  0  0  0  0  0
  -24.2480  -10.5850   20.9210 C   0  0  0  0  0  0  0  0  0  0  0  0
  -24.6650   -9.6020   21.8470 C   0  0  0  0  0  3  0  0  0  0  0  0
  -23.9180   -8.4180   22.0170 C   0  0  0  0  0  3  0  0  0  0  0  0
  -22.7410   -8.2070   21.2610 C   0  0  0  0  0  0  0  0  0  0  0  0
  -22.3440   -9.1770   20.3240 C   0  0  0  0  0  3  0  0  0  0  0  0
  -23.0920  -10.3530   20.1510 C   0  0  0  0  0  3  0  0  0  0  0  0
  -21.9650   -7.0760   21.3430 O   0  0  0  0  0  0  0  0  0  0  0  0
  -21.8040   -6.3980   22.5240 C   0  0  0  0  0  0  0  0  0  0  0  0
  -21.2610   -7.0160   23.6710 C   0  0  0  0  0  3  0  0  0  0  0  0
  -21.0480   -6.2630   24.8420 C   0  0  0  0  0  3  0  0  0  0  0  0
  -21.3690   -4.8920   24.8670 C   0  0  0  0  0  0  0  0  0  0  0  0
  -21.9050   -4.2730   23.7240 C   0  0  0  0  0  3  0  0  0  0  0  0
  -22.1200   -5.0240   22.5550 C   0  0  0  0  0  0  0  0  0  0  0  0
  -22.6170   -4.4180   21.4490 F   0  0  0  0  0  0  0  0  0  0  0  0
  -21.1570   -4.1670   25.9890 F   0  0  0  0  0  0  0  0  0  0  0  0
  -23.2260  -13.6980   21.2550 C   0  0  0  0  0  0  0  0  0  0  0  0
  -22.5500  -13.0020   22.1620 N   0  0  0  0  0  0  0  0  0  0  0  0
  -22.7740  -14.7430   20.7920 O   0  0  0  0  0  0  0  0  0  0  0  0
  -22.9280  -12.1560   22.5600 H   0  0  0  0  0  0  0  0  0  0  0  0
  -21.6410  -13.3220   22.4650 H   0  0  0  0  0  0  0  0  0  0  0  0
  -25.8450  -15.3230   20.3260 N   0  0  0  0  0  0  0  0  0  0  0  0
  -25.1130  -15.9940   20.5290 H   0  0  0  0  0  0  0  0  0  0  0  0
  -26.6940  -15.7520   19.9800 H   0  0  0  0  0  0  0  0  0  0  0  0
  -30.0850  -24.2520   21.8100 C   0  0  0  0  0  2  0  0  0  0  0  0
  -30.0410  -25.2390   20.6250 C   0  0  0  0  0  2  0  0  0  0  0  0
  -28.6260  -25.6160   20.1500 C   0  0  0  0  0  2  0  0  0  0  0  0
  -28.6550  -26.9430   19.6240 O   0  0  0  0  0  0  0  0  0  0  0  0
  -24.6940  -31.6930   23.1130 C   0  0  0  0  0  0  0  0  0  0  0  0
  -27.4560  -27.6100   19.6900 C   0  0  0  0  0  0  0  0  0  0  0  0
  -23.5140  -30.3670   21.3880 C   0  0  0  0  0  3  0  0  0  0  0  0
  -25.0010  -28.9930   19.8390 C   0  0  0  0  0  0  0  0  0  0  0  0
  -26.0160  -30.8440   21.1790 C   0  0  0  0  0  2  0  0  0  0  0  0
  -26.1450  -29.5280   20.4440 C   0  0  0  0  0  0  0  0  0  0  0  0
  -27.3780  -28.8470   20.3610 C   0  0  0  0  0  3  0  0  0  0  0  0
  -26.2980  -27.0750   19.0860 C   0  0  0  0  0  3  0  0  0  0  0  0
  -25.0720  -27.7650   19.1550 C   0  0  0  0  0  3  0  0  0  0  0  0
  -23.7240  -29.7910   19.9620 C   0  0  0  0  0  2  0  0  0  0  0  0
  -24.7600  -30.9790   21.9530 N   0  0  0  0  0  0  0  0  0  0  0  0
  -23.6120  -31.8820   23.6860 O   0  0  0  0  0  0  0  0  0  0  0  0
  -22.9170  -29.2570   22.2810 C   0  0  0  0  0  0  0  0  0  0  0  0
  -21.5950  -29.0430   22.1650 N   0  0  0  0  0  0  0  0  0  0  0  0
  -23.6370  -28.5930   23.0320 O   0  0  0  0  0  0  0  0  0  0  0  0
  -21.0740  -29.6340   21.5340 H   0  0  0  0  0  0  0  0  0  0  0  0
  -18.2750  -27.6910   22.6020 C   0  0  0  0  0  0  0  0  0  0  0  0
  -20.8240  -28.0240   22.8750 C   0  0  0  0  0  3  0  0  0  0  0  0
  -20.9730  -26.6400   22.2000 C   0  0  0  0  0  2  0  0  0  0  0  0
  -19.8750  -26.3480   21.1730 C   0  0  0  0  0  2  0  0  0  0  0  0
  -18.4950  -26.3980   21.8360 C   0  0  0  0  0  2  0  0  0  0  0  0
  -19.3690  -28.4620   23.0770 C   0  0  0  0  0  0  0  0  0  0  0  0
  -19.1100  -29.6750   23.7530 C   0  0  0  0  0  3  0  0  0  0  0  0
  -17.7900  -30.1160   23.9590 C   0  0  0  0  0  3  0  0  0  0  0  0
  -16.7110  -29.3410   23.5040 C   0  0  0  0  0  3  0  0  0  0  0  0
  -16.9540  -28.1300   22.8310 C   0  0  0  0  0  3  0  0  0  0  0  0
  -25.9670  -32.3220   23.7600 C   0  0  0  0  0  3  0  0  0  0  0  0
  -26.4990  -31.5110   25.0050 C   0  0  1  0  0  0  0  0  0  0  0  0
  -25.4150  -31.2250   26.0700 C   0  0  0  0  0  1  0  0  0  0  0  0
  -27.0900  -30.1540   24.5570 C   0  0  0  0  0  1  0  0  0  0  0  0
  -27.6460  -32.2900   25.6900 C   0  0  0  0  0  1  0  0  0  0  0  0
  -25.6300  -33.7000   24.1440 N   0  0  0  0  0  0  0  0  0  0  0  0
  -25.9400  -34.7870   23.4230 C   0  0  0  0  0  0  0  0  0  0  0  0
  -26.6100  -34.7360   22.3880 O   0  0  0  0  0  0  0  0  0  0  0  0
  -25.0310  -33.8130   24.9480 H   0  0  0  0  0  0  0  0  0  0  0  0
  -24.1660  -36.5480   23.1470 C   0  0  0  0  0  1  0  0  0  0  0  0
  -25.4250  -36.1470   23.9320 C   0  0  0  0  0  3  0  0  0  0  0  0
  -27.5420  -37.0600   24.7780 C   0  0  0  0  0  1  0  0  0  0  0  0
  -26.4310  -37.2270   23.8430 N   0  0  0  0  0  0  0  0  0  0  0  0
  -26.0040  -38.1330   24.0180 H   0  0  0  0  0  0  0  0  0  0  0  0
  1  2  1  0
  3  5  1  0
  4  1  2  0
  5 50  1  0
  5  2  2  0
  6  3  2  0
  6  4  1  0
  7  6  1  0
  8 21  1  0
  9 14  1  0
 10 11  1  0
 10  9  1  0
 12 11  1  0
 12 25  1  0
 12 13  1  0
 14  8  1  0
 14 13  1  0
 15  8  2  0
 16 20  1  0
 18 16  1  0
 18 21  1  0
 19 17  1  0
 20  4  1  0
 20 17  1  0
 21 19  1  0
 22 23  2  0
 23 42  1  0
 24 23  1  0
 24 27  1  0
 25 26  1  0
 25 22  1  0
 26 24  2  0
 27 28  1  0
 28 29  2  0
 30 33  1  0
 30 29  1  0
 31 30  2  0
 32 31  1  0
 32 27  2  0
 33 34  1  0
 34 39  2  0
 34 35  1  0
 35 36  2  0
 36 37  1  0
 37 41  1  0
 38 37  2  0
 39 38  1  0
 40 39  1  0
 42 43  1  0
 43 46  1  0
 43 45  1  0
 44 42  2  0
 47 22  1  0
 47 48  1  0
 49 47  1  0
 51 50  1  0
 52 51  1  0
 53 55  1  0
 53 52  1  0
 54 65  2  0
 55 60  1  0
 56 64  1  0
 56 66  1  0
 57 63  1  0
 57 59  1  0
 58 64  1  0
 59 58  1  0
 60 59  2  0
 61 62  1  0
 61 55  2  0
 62 57  2  0
 63 56  1  0
 64 54  1  0
 66 68  2  0
 67 66  1  0
 69 67  1  0
 70 79  2  0
 70 75  1  0
 71 67  1  0
 71 75  1  0
 72 71  1  0
 73 74  1  0
 73 72  1  0
 74 70  1  0
 75 76  2  0
 76 77  1  0
 78 77  2  0
 79 78  1  0
 80 54  1  0
 80 85  1  0
 80 81  1  0
 81 84  1  1
 81 82  1  0
 83 81  1  0
 85 88  1  0
 86 90  1  0
 86 85  1  0
 87 86  2  0
 90 89  1  0
 92 90  1  0
 92 93  1  0
 92 91  1  0
M  ISO  4   8 100  21 100  52 101  53 101
M  END
>  <TORSDO>  (14) 
F 19

>  <SCORE>  (14) 
-13.230

>  <name>  (14) 
13

>  <ligand_id>  (14) 
13

>  <original_smiles>  (14) 
[H]c1c([H])c([H])c2c(c1[H])C([H])([H])C([H])([H])C([H])([H])C2([H])N([H])C(=O)C1([H])N(C(=O)C([H])(N([H])C(=O)C([H])(N([H])C([H])([H])[H])C([H])([H])[H])C(C([H])([H])[H])(C([H])([H])[H])C([H])([H])[H])C([H])([H])c2c([H])c(OC([H])([H])C([H])([H])C([H])([H])c3c([H])c([H])c(C4([H])C([H])([H])C([H])([H])N(C(=O)N5C([H])([H])C([H])([H])C([H])([H])C([H])(n6nc(-c7c([H])c([H])c(Oc8c([H])c([H])c(F)c([H])c8F)c([H])c7[H])c(C(=O)N([H])[H])c6N([H])[H])C5([H])[H])C([H])([H])C4([H])[H])c(C([H])([H])[H])c3[H])c([H])c([H])c2C1([H])[H]

>  <smiles>  (14) 
[H]c1c([H])c([H])c2c(c1[H])C([H])([H])C([H])([H])C([H])([H])C2([H])N([H])C(=O)C1([H])N(C(=O)C([H])(N([H])C(=O)C([H])(N([H])C([H])([H])[H])C([H])([H])[H])C(C([H])([H])[H])(C([H])([H])[H])C([H])([H])[H])C([H])([H])c2c([H])c(OC([H])([H])C([H])([H])C([H])([H])c3c([H])c([H])c(C4([H])C([H])([H])C([H])([H])N(C(=O)N5C([H])([H])C([H])([H])C([H])([H])C([H])(n6nc(-c7c([H])c([H])c(Oc8c([H])c([H])c(F)c([H])c8F)c([H])c7[H])c(C(=O)N([H])[H])c6N([H])[H])C5([H])[H])C([H])([H])C4([H])[H])c(C([H])([H])[H])c3[H])c([H])c([H])c2C1([H])[H]

$$$$
14:0:0
     RDKit          3D

 95103  0  0  1  0  0  0  0  0999 V2000
  -27.4380  -19.4750   20.1420 C   0  0  0  0  0  2  0  0  0  0  0  0
  -29.2870  -18.3410   18.7240 C   0  0  0  0  0  2  0  0  0  0  0  0
  -28.6240  -18.5530   19.8730 C   0  0  0  0  0  3  0  0  0  0  0  0
  -29.0940  -17.6400   20.9770 C   0  0  0  0  0  2  0  0  0  0  0  0
  -30.2080  -17.1420   18.8120 C   0  0  0  0  0  3  0  0  0  0  0  0
  -30.2530  -16.8180   20.3450 C   0  0  0  0  0  3  0  0  0  0  0  0
  -30.8210  -14.3970   20.1510 C   0  0  0  0  0  0  0  0  0  0  0  0
  -30.4790  -12.3060   18.9250 C   0  0  0  0  0  2  0  0  0  0  0  0
  -29.4870  -12.5760   17.7760 C   0  0  0  0  0  2  0  0  0  0  0  0
  -28.0310  -12.4080   18.2540 C   0  0  0  0  0  2  0  0  0  0  0  0
  -27.7450  -13.2210   19.5410 C   0  0  0  0  0  3  0  0  0  0  0  0
  -28.8250  -12.9410   20.6070 C   0  0  0  0  0  2  0  0  0  0  0  0
  -30.1410  -13.2340   20.0150 N   0  0  0  0  0  0  0  0  0  0  0  0
  -31.9470  -14.5930   19.6950 O   0  0  0  0  0  0  0  0  0  0  0  0
  -30.0620  -15.3970   20.6190 N   0  0  0  0  0  0  0  0  0  0  0  0
  -29.1560  -15.1220   20.9630 H   0  0  0  0  0  0  0  0  0  0  0  0
  -25.3760  -13.8740   20.3080 C   0  0  0  0  0  0  0  0  0  0  0  0
  -24.3070  -13.1220   20.7130 C   0  0  0  0  0  0  0  0  0  0  0  0
  -24.7470  -11.7590   20.6760 C   0  0  0  0  0  0  0  0  0  0  0  0
  -26.4010  -12.9760   20.0490 N   0  0  0  0  0  0  0  0  0  0  0  0
  -26.0230  -11.7020   20.3220 N   0  0  0  0  0  0  0  0  0  0  0  0
  -24.0130  -10.5080   20.8980 C   0  0  0  0  0  0  0  0  0  0  0  0
  -24.4480   -9.5530   21.8450 C   0  0  0  0  0  3  0  0  0  0  0  0
  -23.7130   -8.3640   22.0510 C   0  0  0  0  0  3  0  0  0  0  0  0
  -22.5320   -8.1220   21.3090 C   0  0  0  0  0  0  0  0  0  0  0  0
  -22.1160   -9.0660   20.3550 C   0  0  0  0  0  3  0  0  0  0  0  0
  -22.8490  -10.2450   20.1470 C   0  0  0  0  0  3  0  0  0  0  0  0
  -21.7720   -6.9840   21.4210 O   0  0  0  0  0  0  0  0  0  0  0  0
  -21.7050   -6.2790   22.5970 C   0  0  0  0  0  0  0  0  0  0  0  0
  -21.2530   -6.8700   23.7980 C   0  0  0  0  0  3  0  0  0  0  0  0
  -21.1320   -6.0890   24.9650 C   0  0  0  0  0  3  0  0  0  0  0  0
  -21.4530   -4.7180   24.9310 C   0  0  0  0  0  0  0  0  0  0  0  0
  -21.8960   -4.1260   23.7350 C   0  0  0  0  0  3  0  0  0  0  0  0
  -22.0160   -4.9040   22.5710 C   0  0  0  0  0  0  0  0  0  0  0  0
  -22.4220   -4.3240   21.4140 F   0  0  0  0  0  0  0  0  0  0  0  0
  -21.3280   -3.9630   26.0510 F   0  0  0  0  0  0  0  0  0  0  0  0
  -22.9270  -13.6190   21.0450 C   0  0  0  0  0  0  0  0  0  0  0  0
  -22.2270  -12.9210   21.9330 N   0  0  0  0  0  0  0  0  0  0  0  0
  -22.4850  -14.6560   20.5480 O   0  0  0  0  0  0  0  0  0  0  0  0
  -22.6030  -12.0760   22.3360 H   0  0  0  0  0  0  0  0  0  0  0  0
  -21.3050  -13.2260   22.2180 H   0  0  0  0  0  0  0  0  0  0  0  0
  -25.5650  -15.2390   20.1150 N   0  0  0  0  0  0  0  0  0  0  0  0
  -24.8060  -15.9050   20.1990 H   0  0  0  0  0  0  0  0  0  0  0  0
  -26.4100  -15.6380   19.7180 H   0  0  0  0  0  0  0  0  0  0  0  0
  -31.5020  -17.3560   18.2360 O   0  0  0  0  0  0  0  0  0  0  0  0
  -31.8240  -16.4930   17.1270 C   0  0  0  0  0  2  0  0  0  0  0  0
  -33.8510  -15.5090   15.8440 C   0  0  0  0  0  1  0  0  0  0  0  0
  -33.3440  -16.5620   16.8470 C   0  0  0  0  0  2  0  0  0  0  0  0
  -27.7660  -20.6760   21.0560 C   0  0  0  0  0  2  0  0  0  0  0  0
  -28.0750  -22.0130   20.3480 C   0  0  0  0  0  2  0  0  0  0  0  0
  -28.5460  -23.0730   21.3700 C   0  0  0  0  0  2  0  0  0  0  0  0
  -29.2650  -24.2840   20.7500 C   0  0  0  0  0  2  0  0  0  0  0  0
  -29.1450  -25.5610   21.6110 C   0  0  0  0  0  2  0  0  0  0  0  0
  -29.3960  -26.8530   20.8140 C   0  0  0  0  0  2  0  0  0  0  0  0
  -28.4710  -26.8510   19.7280 O   0  0  0  0  0  0  0  0  0  0  0  0
  -24.5140  -31.7960   23.0370 C   0  0  0  0  0  0  0  0  0  0  0  0
  -27.2860  -27.5290   19.8770 C   0  0  0  0  0  0  0  0  0  0  0  0
  -23.3380  -30.3900   21.3720 C   0  0  0  0  0  3  0  0  0  0  0  0
  -24.8270  -28.9130   19.9280 C   0  0  0  0  0  0  0  0  0  0  0  0
  -25.8400  -30.8430   21.1590 C   0  0  0  0  0  2  0  0  0  0  0  0
  -25.9670  -29.4820   20.5110 C   0  0  0  0  0  0  0  0  0  0  0  0
  -27.1990  -28.8000   20.4820 C   0  0  0  0  0  3  0  0  0  0  0  0
  -26.1320  -26.9590   19.3020 C   0  0  0  0  0  3  0  0  0  0  0  0
  -24.9000  -27.6430   19.3220 C   0  0  0  0  0  3  0  0  0  0  0  0
  -23.5560  -29.7290   19.9830 C   0  0  0  0  0  2  0  0  0  0  0  0
  -24.5840  -31.0220   21.9160 N   0  0  0  0  0  0  0  0  0  0  0  0
  -23.4290  -32.0290   23.5830 O   0  0  0  0  0  0  0  0  0  0  0  0
  -22.7170  -29.3380   22.3150 C   0  0  0  0  0  0  0  0  0  0  0  0
  -21.3940  -29.1450   22.2000 N   0  0  0  0  0  0  0  0  0  0  0  0
  -23.4220  -28.7010   23.1060 O   0  0  0  0  0  0  0  0  0  0  0  0
  -20.8900  -29.7220   21.5400 H   0  0  0  0  0  0  0  0  0  0  0  0
  -18.0320  -27.9370   22.7260 C   0  0  0  0  0  0  0  0  0  0  0  0
  -20.5900  -28.1820   22.9520 C   0  0  0  0  0  3  0  0  0  0  0  0
  -20.6760  -26.7670   22.3280 C   0  0  0  0  0  2  0  0  0  0  0  0
  -19.5560  -26.4870   21.3220 C   0  0  0  0  0  2  0  0  0  0  0  0
  -18.1860  -26.6150   21.9920 C   0  0  0  0  0  2  0  0  0  0  0  0
  -19.1590  -28.6830   23.1590 C   0  0  0  0  0  0  0  0  0  0  0  0
  -18.9540  -29.9260   23.7960 C   0  0  0  0  0  3  0  0  0  0  0  0
  -17.6500  -30.4200   24.0050 C   0  0  0  0  0  3  0  0  0  0  0  0
  -16.5380  -29.6640   23.5910 C   0  0  0  0  0  3  0  0  0  0  0  0
  -16.7300  -28.4250   22.9600 C   0  0  0  0  0  3  0  0  0  0  0  0
  -25.7880  -32.4400   23.6730 C   0  0  0  0  0  3  0  0  0  0  0  0
  -26.3450  -31.6380   24.9120 C   0  0  1  0  0  0  0  0  0  0  0  0
  -25.2750  -31.3310   25.9860 C   0  0  0  0  0  1  0  0  0  0  0  0
  -26.9510  -30.2900   24.4550 C   0  0  0  0  0  1  0  0  0  0  0  0
  -27.4830  -32.4410   25.5840 C   0  0  0  0  0  1  0  0  0  0  0  0
  -25.4360  -33.8150   24.0540 N   0  0  0  0  0  0  0  0  0  0  0  0
  -25.7370  -34.9050   23.3350 C   0  0  0  0  0  0  0  0  0  0  0  0
  -26.4050  -34.8620   22.2980 O   0  0  0  0  0  0  0  0  0  0  0  0
  -24.8410  -33.9230   24.8620 H   0  0  0  0  0  0  0  0  0  0  0  0
  -23.9490  -36.6470   23.0490 C   0  0  0  0  0  1  0  0  0  0  0  0
  -25.2060  -36.2550   23.8430 C   0  0  0  0  0  3  0  0  0  0  0  0
  -27.3180  -37.1680   24.6990 C   0  0  0  0  0  1  0  0  0  0  0  0
  -26.2040  -37.3450   23.7710 N   0  0  0  0  0  0  0  0  0  0  0  0
  -25.7720  -38.2450   23.9650 H   0  0  0  0  0  0  0  0  0  0  0  0
  1 49  1  0
  2  5  1  0
  2  3  1  0
  3  1  1  0
  3  4  1  0
  5 45  1  0
  5  6  1  0
  6 15  1  0
  6  4  1  0
  7 15  1  0
  8 13  1  0
  9 10  1  0
  9  8  1  0
 11 10  1  0
 11 20  1  0
 11 12  1  0
 13  7  1  0
 13 12  1  0
 14  7  2  0
 15 16  1  0
 17 18  2  0
 18 37  1  0
 19 18  1  0
 19 22  1  0
 20 17  1  0
 20 21  1  0
 21 19  2  0
 22 23  1  0
 23 24  2  0
 25 28  1  0
 25 24  1  0
 26 25  2  0
 27 26  1  0
 27 22  2  0
 28 29  1  0
 29 30  1  0
 30 31  2  0
 32 31  1  0
 32 36  1  0
 33 32  2  0
 34 29  2  0
 34 33  1  0
 35 34  1  0
 37 38  1  0
 38 41  1  0
 38 40  1  0
 39 37  2  0
 42 43  1  0
 42 17  1  0
 44 42  1  0
 46 45  1  0
 47 48  1  0
 48 46  1  0
 50 49  1  0
 50 51  1  0
 52 51  1  0
 52 53  1  0
 54 53  1  0
 55 57  1  0
 55 54  1  0
 56 67  2  0
 57 62  1  0
 58 66  1  0
 58 68  1  0
 59 65  1  0
 59 61  1  0
 60 66  1  0
 61 60  1  0
 62 61  2  0
 63 64  1  0
 63 57  2  0
 64 59  2  0
 65 58  1  0
 66 56  1  0
 68 70  2  0
 69 68  1  0
 71 69  1  0
 72 81  2  0
 72 77  1  0
 73 69  1  0
 73 77  1  0
 74 73  1  0
 75 76  1  0
 75 74  1  0
 76 72  1  0
 77 78  2  0
 78 79  1  0
 80 79  2  0
 81 80  1  0
 82 56  1  0
 82 87  1  0
 82 83  1  0
 83 86  1  1
 83 84  1  0
 85 83  1  0
 87 90  1  0
 88 92  1  0
 88 87  1  0
 89 88  2  0
 92 91  1  0
 94 92  1  0
 94 95  1  0
 94 93  1  0
M  ISO  4   7 100  15 100  54 101  55 101
M  END
>  <TORSDO>  (15) 
F 26

>  <SCORE>  (15) 
-11.154

>  <name>  (15) 
14

>  <ligand_id>  (15) 
14

>  <original_smiles>  (15) 
[H]C1=C(C([H])([H])C([H])([H])C([H])([H])C([H])([H])C([H])([H])C([H])([H])C([H])([H])Oc2c([H])c([H])c3c(c2[H])C([H])([H])N(C(=O)C([H])(N([H])C(=O)C([H])(N([H])C([H])([H])[H])C([H])([H])[H])C(C([H])([H])[H])(C([H])([H])[H])C([H])([H])[H])C([H])(C(=O)N([H])C2([H])c4c([H])c([H])c([H])c([H])c4C([H])([H])C([H])([H])C2([H])[H])C3([H])[H])C([H])([H])C([H])(N([H])C(=O)N2C([H])([H])C([H])([H])C([H])([H])C([H])(n3nc(-c4c([H])c([H])c(Oc5c([H])c([H])c(F)c([H])c5F)c([H])c4[H])c(C(=O)N([H])[H])c3N([H])[H])C2([H])[H])C1([H])OC([H])([H])C([H])([H])C([H])([H])[H]

>  <smiles>  (15) 
[H]C1=C(C([H])([H])C([H])([H])C([H])([H])C([H])([H])C([H])([H])C([H])([H])C([H])([H])Oc2c([H])c([H])c3c(c2[H])C([H])([H])N(C(=O)C([H])(N([H])C(=O)C([H])(N([H])C([H])([H])[H])C([H])([H])[H])C(C([H])([H])[H])(C([H])([H])[H])C([H])([H])[H])C([H])(C(=O)N([H])C2([H])c4c([H])c([H])c([H])c([H])c4C([H])([H])C([H])([H])C2([H])[H])C3([H])[H])C([H])([H])C([H])(N([H])C(=O)N2C([H])([H])C([H])([H])C([H])([H])C([H])(n3nc(-c4c([H])c([H])c(Oc5c([H])c([H])c(F)c([H])c5F)c([H])c4[H])c(C(=O)N([H])[H])c3N([H])[H])C2([H])[H])C1([H])OC([H])([H])C([H])([H])C([H])([H])[H]

$$$$
15:0:0
     RDKit          3D

 92 99  0  0  1  0  0  0  0  0999 V2000
  -27.6830  -24.7650   20.1200 C   0  0  0  0  0  3  0  0  0  0  0  0
  -27.1910  -24.0320   21.1440 C   0  0  0  0  0  0  0  0  0  0  0  0
  -24.6630  -23.8710   21.1160 C   0  0  0  0  0  1  0  0  0  0  0  0
  -25.9910  -23.1270   20.9080 C   0  0  0  0  0  2  0  0  0  0  0  0
  -28.7530  -25.8530   20.1420 C   0  0  0  0  0  2  0  0  0  0  0  0
  -28.4880  -26.9170   19.2170 O   0  0  0  0  0  0  0  0  0  0  0  0
  -24.7240  -31.5250   23.1420 C   0  0  0  0  0  0  0  0  0  0  0  0
  -27.3040  -27.5940   19.4020 C   0  0  0  0  0  0  0  0  0  0  0  0
  -23.4630  -30.2720   21.4250 C   0  0  0  0  0  3  0  0  0  0  0  0
  -24.8680  -28.9790   19.7430 C   0  0  0  0  0  0  0  0  0  0  0  0
  -25.9560  -30.7550   21.1200 C   0  0  0  0  0  2  0  0  0  0  0  0
  -26.0440  -29.4750   20.3200 C   0  0  0  0  0  0  0  0  0  0  0  0
  -27.2670  -28.7860   20.1540 C   0  0  0  0  0  3  0  0  0  0  0  0
  -26.1160  -27.1280   18.7960 C   0  0  0  0  0  3  0  0  0  0  0  0
  -24.8970  -27.8000   18.9820 C   0  0  0  0  0  3  0  0  0  0  0  0
  -23.6020  -29.7720   19.9640 C   0  0  0  0  0  2  0  0  0  0  0  0
  -24.7360  -30.8580   21.9530 N   0  0  0  0  0  0  0  0  0  0  0  0
  -23.6710  -31.6890   23.7710 O   0  0  0  0  0  0  0  0  0  0  0  0
  -22.9120  -29.1170   22.2890 C   0  0  0  0  0  0  0  0  0  0  0  0
  -21.5970  -28.8640   22.1780 N   0  0  0  0  0  0  0  0  0  0  0  0
  -23.6590  -28.4590   23.0160 O   0  0  0  0  0  0  0  0  0  0  0  0
  -21.0530  -29.4530   21.5630 H   0  0  0  0  0  0  0  0  0  0  0  0
  -18.3370  -27.3630   22.5860 C   0  0  0  0  0  0  0  0  0  0  0  0
  -20.8650  -27.8070   22.8760 C   0  0  0  0  0  3  0  0  0  0  0  0
  -21.0790  -26.4360   22.1910 C   0  0  0  0  0  2  0  0  0  0  0  0
  -20.0000  -26.1010   21.1570 C   0  0  0  0  0  2  0  0  0  0  0  0
  -18.6170  -26.0860   21.8130 C   0  0  0  0  0  2  0  0  0  0  0  0
  -19.3910  -28.1790   23.0720 C   0  0  0  0  0  0  0  0  0  0  0  0
  -19.0760  -29.3710   23.7580 C   0  0  0  0  0  3  0  0  0  0  0  0
  -17.7350  -29.7530   23.9630 C   0  0  0  0  0  3  0  0  0  0  0  0
  -16.6940  -28.9340   23.4930 C   0  0  0  0  0  3  0  0  0  0  0  0
  -16.9950  -27.7410   22.8120 C   0  0  0  0  0  3  0  0  0  0  0  0
  -26.0270  -32.1310   23.7500 C   0  0  0  0  0  3  0  0  0  0  0  0
  -26.6710  -31.2220   24.8660 C   0  0  1  0  0  0  0  0  0  0  0  0
  -25.6740  -30.7940   25.9680 C   0  0  0  0  0  1  0  0  0  0  0  0
  -27.2690  -29.9390   24.2450 C   0  0  0  0  0  1  0  0  0  0  0  0
  -27.8430  -31.9770   25.5410 C   0  0  0  0  0  1  0  0  0  0  0  0
  -25.6880  -33.4550   24.2870 N   0  0  0  0  0  0  0  0  0  0  0  0
  -25.9550  -34.6150   23.6700 C   0  0  0  0  0  0  0  0  0  0  0  0
  -26.5820  -34.6810   22.6100 O   0  0  0  0  0  0  0  0  0  0  0  0
  -25.1290  -33.4750   25.1270 H   0  0  0  0  0  0  0  0  0  0  0  0
  -24.1700  -36.3830   23.6140 C   0  0  0  0  0  1  0  0  0  0  0  0
  -25.4400  -35.9050   24.3360 C   0  0  0  0  0  3  0  0  0  0  0  0
  -27.5690  -36.7190   25.2460 C   0  0  0  0  0  1  0  0  0  0  0  0
  -26.4410  -36.9940   24.3590 N   0  0  0  0  0  0  0  0  0  0  0  0
  -26.0140  -37.8700   24.6500 H   0  0  0  0  0  0  0  0  0  0  0  0
  -27.7480  -24.0360   22.5680 C   0  0  0  0  0  2  0  0  0  0  0  0
  -28.5130  -22.7400   22.9410 C   0  0  0  0  0  2  0  0  0  0  0  0
  -29.3070  -22.1100   21.7760 C   0  0  0  0  0  2  0  0  0  0  0  0
  -30.3070  -21.0190   22.2010 C   0  0  0  0  0  2  0  0  0  0  0  0
  -30.5950  -20.0430   21.0440 C   0  0  0  0  0  2  0  0  0  0  0  0
  -31.3320  -18.7560   21.4630 C   0  0  0  0  0  2  0  0  0  0  0  0
  -31.4870  -17.7690   20.2880 C   0  0  0  0  0  2  0  0  0  0  0  0
  -32.2140  -16.4550   20.6470 C   0  0  0  0  0  2  0  0  0  0  0  0
  -31.6300  -14.3320   19.4480 C   0  0  0  0  0  0  0  0  0  0  0  0
  -31.1650  -11.9990   18.7760 C   0  0  0  0  0  2  0  0  0  0  0  0
  -30.1350  -11.8910   17.6390 C   0  0  0  0  0  2  0  0  0  0  0  0
  -28.7030  -11.8750   18.2030 C   0  0  0  0  0  2  0  0  0  0  0  0
  -28.4550  -13.0280   19.2090 C   0  0  0  0  0  3  0  0  0  0  0  0
  -29.5830  -13.1060   20.2610 C   0  0  0  0  0  2  0  0  0  0  0  0
  -30.8800  -13.2060   19.5640 N   0  0  0  0  0  0  0  0  0  0  0  0
  -32.5380  -14.4600   18.6180 O   0  0  0  0  0  0  0  0  0  0  0  0
  -31.4040  -15.2600   20.3910 N   0  0  0  0  0  0  0  0  0  0  0  0
  -30.6710  -15.0490   21.0530 H   0  0  0  0  0  0  0  0  0  0  0  0
  -26.2820  -13.9130   20.2760 C   0  0  0  0  0  0  0  0  0  0  0  0
  -25.1620  -13.2740   20.7340 C   0  0  0  0  0  0  0  0  0  0  0  0
  -25.4010  -11.8770   20.5520 C   0  0  0  0  0  0  0  0  0  0  0  0
  -27.1430  -12.9140   19.8450 N   0  0  0  0  0  0  0  0  0  0  0  0
  -26.6200  -11.6800   20.0650 N   0  0  0  0  0  0  0  0  0  0  0  0
  -24.5220  -10.7180   20.7560 C   0  0  0  0  0  0  0  0  0  0  0  0
  -24.8680   -9.6720   21.6400 C   0  0  0  0  0  3  0  0  0  0  0  0
  -23.9960   -8.5790   21.8330 C   0  0  0  0  0  3  0  0  0  0  0  0
  -22.7620   -8.5260   21.1410 C   0  0  0  0  0  0  0  0  0  0  0  0
  -22.4320   -9.5600   20.2470 C   0  0  0  0  0  3  0  0  0  0  0  0
  -23.3050  -10.6430   20.0520 C   0  0  0  0  0  3  0  0  0  0  0  0
  -21.8660   -7.4890   21.2460 O   0  0  0  0  0  0  0  0  0  0  0  0
  -21.7020   -6.7930   22.4150 C   0  0  0  0  0  0  0  0  0  0  0  0
  -21.3390   -7.4340   23.6210 C   0  0  0  0  0  3  0  0  0  0  0  0
  -21.1120   -6.6710   24.7840 C   0  0  0  0  0  3  0  0  0  0  0  0
  -21.2370   -5.2690   24.7420 C   0  0  0  0  0  0  0  0  0  0  0  0
  -21.5980   -4.6290   23.5440 C   0  0  0  0  0  3  0  0  0  0  0  0
  -21.8230   -5.3890   22.3830 C   0  0  0  0  0  0  0  0  0  0  0  0
  -22.1460   -4.7640   21.2250 F   0  0  0  0  0  0  0  0  0  0  0  0
  -21.0120   -4.5360   25.8580 F   0  0  0  0  0  0  0  0  0  0  0  0
  -23.8980  -13.9210   21.2230 C   0  0  0  0  0  0  0  0  0  0  0  0
  -23.1990  -13.2880   22.1580 N   0  0  0  0  0  0  0  0  0  0  0  0
  -23.5440  -15.0250   20.8070 O   0  0  0  0  0  0  0  0  0  0  0  0
  -23.4980  -12.3960   22.5230 H   0  0  0  0  0  0  0  0  0  0  0  0
  -22.3550  -13.7090   22.5160 H   0  0  0  0  0  0  0  0  0  0  0  0
  -26.6360  -15.2560   20.1690 N   0  0  0  0  0  0  0  0  0  0  0  0
  -26.0100  -16.0100   20.4310 H   0  0  0  0  0  0  0  0  0  0  0  0
  -27.5100  -15.5860   19.7790 H   0  0  0  0  0  0  0  0  0  0  0  0
  1  5  1  0
  1  2  2  0
  2 47  1  0
  4  3  1  0
  4  2  1  0
  6  8  1  0
  6  5  1  0
  7 18  2  0
  8 13  1  0
  9 17  1  0
  9 19  1  0
 10 16  1  0
 10 12  1  0
 11 17  1  0
 12 11  1  0
 13 12  2  0
 14 15  1  0
 14  8  2  0
 15 10  2  0
 16  9  1  0
 17  7  1  0
 19 21  2  0
 20 19  1  0
 22 20  1  0
 23 32  2  0
 23 28  1  0
 24 20  1  0
 24 28  1  0
 25 24  1  0
 26 27  1  0
 26 25  1  0
 27 23  1  0
 28 29  2  0
 29 30  1  0
 31 30  2  0
 32 31  1  0
 33  7  1  0
 33 38  1  0
 33 34  1  0
 34 37  1  1
 34 35  1  0
 36 34  1  0
 38 41  1  0
 39 38  1  0
 39 43  1  0
 40 39  2  0
 43 42  1  0
 43 45  1  0
 45 46  1  0
 45 44  1  0
 47 48  1  0
 49 50  1  0
 49 48  1  0
 51 52  1  0
 51 50  1  0
 53 54  1  0
 53 52  1  0
 55 61  1  0
 55 63  1  0
 56 61  1  0
 57 58  1  0
 57 56  1  0
 59 58  1  0
 59 68  1  0
 59 60  1  0
 61 60  1  0
 62 55  2  0
 63 54  1  0
 63 64  1  0
 65 66  2  0
 66 85  1  0
 67 66  1  0
 67 70  1  0
 68 69  1  0
 68 65  1  0
 69 67  2  0
 70 71  1  0
 71 72  2  0
 73 76  1  0
 73 72  1  0
 74 73  2  0
 75 74  1  0
 75 70  2  0
 76 77  1  0
 77 78  1  0
 78 79  2  0
 80 79  1  0
 80 84  1  0
 81 80  2  0
 82 77  2  0
 82 81  1  0
 83 82  1  0
 85 86  1  0
 86 89  1  0
 86 88  1  0
 87 85  2  0
 90 65  1  0
 90 91  1  0
 92 90  1  0
M  ISO  4   5 101   6 101  55 100  63 100
M  END
>  <TORSDO>  (16) 
F 26

>  <SCORE>  (16) 
-9.111

>  <name>  (16) 
15

>  <ligand_id>  (16) 
15

>  <original_smiles>  (16) 
[H]C(=C(C([H])([H])C([H])([H])[H])C([H])([H])C([H])([H])C([H])([H])C([H])([H])C([H])([H])C([H])([H])C([H])([H])C([H])([H])N([H])C(=O)N1C([H])([H])C([H])([H])C([H])([H])C([H])(n2nc(-c3c([H])c([H])c(Oc4c([H])c([H])c(F)c([H])c4F)c([H])c3[H])c(C(=O)N([H])[H])c2N([H])[H])C1([H])[H])C([H])([H])Oc1c([H])c([H])c2c(c1[H])C([H])([H])N(C(=O)C([H])(N([H])C(=O)C([H])(N([H])C([H])([H])[H])C([H])([H])[H])C(C([H])([H])[H])(C([H])([H])[H])C([H])([H])[H])C([H])(C(=O)N([H])C1([H])c3c([H])c([H])c([H])c([H])c3C([H])([H])C([H])([H])C1([H])[H])C2([H])[H]

>  <smiles>  (16) 
[H]C(=C(C([H])([H])C([H])([H])[H])C([H])([H])C([H])([H])C([H])([H])C([H])([H])C([H])([H])C([H])([H])C([H])([H])C([H])([H])N([H])C(=O)N1C([H])([H])C([H])([H])C([H])([H])C([H])(n2nc(-c3c([H])c([H])c(Oc4c([H])c([H])c(F)c([H])c4F)c([H])c3[H])c(C(=O)N([H])[H])c2N([H])[H])C1([H])[H])C([H])([H])Oc1c([H])c([H])c2c(c1[H])C([H])([H])N(C(=O)C([H])(N([H])C(=O)C([H])(N([H])C([H])([H])[H])C([H])([H])[H])C(C([H])([H])[H])(C([H])([H])[H])C([H])([H])[H])C([H])(C(=O)N([H])C1([H])c3c([H])c([H])c([H])c([H])c3C([H])([H])C([H])([H])C1([H])[H])C2([H])[H]

$$$$
16:0:0
     RDKit          3D

 91 98  0  0  1  0  0  0  0  0999 V2000
  -28.7530  -21.4620   21.2650 C   0  0  0  0  0  2  0  0  0  0  0  0
  -29.6660  -22.6990   21.1570 C   0  0  0  0  0  2  0  0  0  0  0  0
  -28.9280  -24.0380   21.3440 C   0  0  0  0  0  2  0  0  0  0  0  0
  -29.8710  -25.2490   21.1830 C   0  0  0  0  0  2  0  0  0  0  0  0
  -29.1570  -26.6100   21.2690 C   0  0  0  0  0  2  0  0  0  0  0  0
  -28.3830  -26.7390   20.0870 O   0  0  0  0  0  0  0  0  0  0  0  0
  -24.5660  -31.9000   23.2420 C   0  0  0  0  0  0  0  0  0  0  0  0
  -27.2440  -27.4980   20.1640 C   0  0  0  0  0  0  0  0  0  0  0  0
  -23.3710  -30.4920   21.5960 C   0  0  0  0  0  3  0  0  0  0  0  0
  -24.8380  -28.9660   20.1750 C   0  0  0  0  0  0  0  0  0  0  0  0
  -25.8930  -30.8690   21.4060 C   0  0  0  0  0  2  0  0  0  0  0  0
  -25.9880  -29.4980   20.7740 C   0  0  0  0  0  0  0  0  0  0  0  0
  -27.1950  -28.7670   20.7800 C   0  0  0  0  0  3  0  0  0  0  0  0
  -26.0870  -26.9770   19.5560 C   0  0  0  0  0  3  0  0  0  0  0  0
  -24.8780  -27.6990   19.5680 C   0  0  0  0  0  3  0  0  0  0  0  0
  -23.5870  -29.8130   20.2170 C   0  0  0  0  0  2  0  0  0  0  0  0
  -24.6270  -31.1020   22.1390 N   0  0  0  0  0  0  0  0  0  0  0  0
  -23.4830  -32.1660   23.7800 O   0  0  0  0  0  0  0  0  0  0  0  0
  -22.7250  -29.4650   22.5530 C   0  0  0  0  0  0  0  0  0  0  0  0
  -21.4030  -29.2760   22.4220 N   0  0  0  0  0  0  0  0  0  0  0  0
  -23.4090  -28.8400   23.3670 O   0  0  0  0  0  0  0  0  0  0  0  0
  -20.9110  -29.8320   21.7370 H   0  0  0  0  0  0  0  0  0  0  0  0
  -18.0300  -28.0730   22.9130 C   0  0  0  0  0  0  0  0  0  0  0  0
  -20.5870  -28.3340   23.1880 C   0  0  0  0  0  3  0  0  0  0  0  0
  -20.6920  -26.9040   22.6060 C   0  0  0  0  0  2  0  0  0  0  0  0
  -19.5910  -26.5850   21.5900 C   0  0  0  0  0  2  0  0  0  0  0  0
  -18.2100  -26.7260   22.2340 C   0  0  0  0  0  2  0  0  0  0  0  0
  -19.1470  -28.8360   23.3470 C   0  0  0  0  0  0  0  0  0  0  0  0
  -18.9260  -30.0990   23.9390 C   0  0  0  0  0  3  0  0  0  0  0  0
  -17.6200  -30.5980   24.1040 C   0  0  0  0  0  3  0  0  0  0  0  0
  -16.5180  -29.8320   23.6860 C   0  0  0  0  0  3  0  0  0  0  0  0
  -16.7230  -28.5720   23.0980 C   0  0  0  0  0  3  0  0  0  0  0  0
  -25.8510  -32.5340   23.8640 C   0  0  0  0  0  3  0  0  0  0  0  0
  -26.3660  -31.7650   25.1420 C   0  0  1  0  0  0  0  0  0  0  0  0
  -25.2700  -31.5250   26.2080 C   0  0  0  0  0  1  0  0  0  0  0  0
  -26.9510  -30.3880   24.7510 C   0  0  0  0  0  1  0  0  0  0  0  0
  -27.5130  -32.5620   25.8070 C   0  0  0  0  0  1  0  0  0  0  0  0
  -25.5400  -33.9320   24.1880 N   0  0  0  0  0  0  0  0  0  0  0  0
  -25.8760  -34.9800   23.4250 C   0  0  0  0  0  0  0  0  0  0  0  0
  -26.5520  -34.8730   22.3980 O   0  0  0  0  0  0  0  0  0  0  0  0
  -24.9400  -34.0900   24.9830 H   0  0  0  0  0  0  0  0  0  0  0  0
  -24.1480  -36.7660   23.0430 C   0  0  0  0  0  1  0  0  0  0  0  0
  -25.3810  -36.3690   23.8700 C   0  0  0  0  0  3  0  0  0  0  0  0
  -27.5080  -37.2560   24.7160 C   0  0  0  0  0  1  0  0  0  0  0  0
  -26.4140  -37.4240   23.7630 N   0  0  0  0  0  0  0  0  0  0  0  0
  -26.0060  -38.3440   23.9060 H   0  0  0  0  0  0  0  0  0  0  0  0
  -29.4770  -20.1570   20.8710 C   0  0  0  0  0  2  0  0  0  0  0  0
  -28.5520  -18.9960   20.8400 N   0  0  0  0  0  4  0  0  0  0  0  0
  -27.6690  -19.3430   20.5030 H   0  0  0  0  0  0  0  0  0  0  0  0
  -28.3890  -18.6570   21.7760 H   0  0  0  0  0  0  0  0  0  0  0  0
  -27.7070  -17.4970   19.0930 C   0  0  0  0  0  1  0  0  0  0  0  0
  -28.9370  -17.8820   19.9360 C   0  0  0  0  0  3  0  0  0  0  0  0
  -29.5700  -16.6740   20.7040 C   0  0  0  0  0  2  0  0  0  0  0  0
  -30.7660  -14.5390   20.4410 C   0  0  0  0  0  0  0  0  0  0  0  0
  -30.4660  -12.3180   19.4750 C   0  0  0  0  0  2  0  0  0  0  0  0
  -29.5760  -12.4790   18.2260 C   0  0  0  0  0  2  0  0  0  0  0  0
  -28.0840  -12.3930   18.6070 C   0  0  0  0  0  2  0  0  0  0  0  0
  -27.7020  -13.2750   19.8310 C   0  0  0  0  0  3  0  0  0  0  0  0
  -28.7340  -13.1450   20.9760 C   0  0  0  0  0  2  0  0  0  0  0  0
  -30.0670  -13.3760   20.4070 N   0  0  0  0  0  0  0  0  0  0  0  0
  -31.9980  -14.5660   20.3810 O   0  0  0  0  0  0  0  0  0  0  0  0
  -30.6920  -16.0290   18.5740 C   0  0  0  0  0  1  0  0  0  0  0  0
  -30.1100  -15.5780   19.8600 N   0  0  0  0  0  0  0  0  0  0  0  0
  -25.2870  -13.8880   20.4680 C   0  0  0  0  0  0  0  0  0  0  0  0
  -24.2080  -13.1250   20.8180 C   0  0  0  0  0  0  0  0  0  0  0  0
  -24.6710  -11.7760   20.8300 C   0  0  0  0  0  0  0  0  0  0  0  0
  -26.3400  -13.0050   20.2850 N   0  0  0  0  0  0  0  0  0  0  0  0
  -25.9710  -11.7290   20.5670 N   0  0  0  0  0  0  0  0  0  0  0  0
  -23.9350  -10.5200   21.0200 C   0  0  0  0  0  0  0  0  0  0  0  0
  -24.3410   -9.5620   21.9740 C   0  0  0  0  0  3  0  0  0  0  0  0
  -23.6020   -8.3730   22.1520 C   0  0  0  0  0  3  0  0  0  0  0  0
  -22.4460   -8.1310   21.3730 C   0  0  0  0  0  0  0  0  0  0  0  0
  -22.0600   -9.0780   20.4060 C   0  0  0  0  0  3  0  0  0  0  0  0
  -22.8000  -10.2590   20.2270 C   0  0  0  0  0  3  0  0  0  0  0  0
  -21.6850   -6.9920   21.4580 O   0  0  0  0  0  0  0  0  0  0  0  0
  -21.6140   -6.2570   22.6150 C   0  0  0  0  0  0  0  0  0  0  0  0
  -21.1840   -6.8270   23.8330 C   0  0  0  0  0  3  0  0  0  0  0  0
  -21.0590   -6.0210   24.9810 C   0  0  0  0  0  3  0  0  0  0  0  0
  -21.3570   -4.6460   24.9140 C   0  0  0  0  0  0  0  0  0  0  0  0
  -21.7800   -4.0760   23.7000 C   0  0  0  0  0  3  0  0  0  0  0  0
  -21.9050   -4.8800   22.5530 C   0  0  0  0  0  0  0  0  0  0  0  0
  -22.2940   -4.3210   21.3810 F   0  0  0  0  0  0  0  0  0  0  0  0
  -21.2300   -3.8690   26.0150 F   0  0  0  0  0  0  0  0  0  0  0  0
  -22.8030  -13.6130   21.0290 C   0  0  0  0  0  0  0  0  0  0  0  0
  -22.0420  -12.9390   21.8860 N   0  0  0  0  0  0  0  0  0  0  0  0
  -22.3890  -14.6290   20.4720 O   0  0  0  0  0  0  0  0  0  0  0  0
  -22.3870  -12.1150   22.3550 H   0  0  0  0  0  0  0  0  0  0  0  0
  -21.1000  -13.2530   22.0730 H   0  0  0  0  0  0  0  0  0  0  0  0
  -25.4500  -15.2510   20.2670 N   0  0  0  0  0  0  0  0  0  0  0  0
  -24.6650  -15.8910   20.3120 H   0  0  0  0  0  0  0  0  0  0  0  0
  -26.2960  -15.6750   19.9170 H   0  0  0  0  0  0  0  0  0  0  0  0
  2  1  1  0
  2  3  1  0
  4  5  1  0
  4  3  1  0
  6  8  1  0
  6  5  1  0
  7 18  2  0
  8 13  1  0
  9 17  1  0
  9 19  1  0
 10 16  1  0
 10 12  1  0
 11 17  1  0
 12 13  2  0
 12 11  1  0
 14 15  1  0
 14  8  2  0
 15 10  2  0
 16  9  1  0
 17  7  1  0
 19 21  2  0
 20 19  1  0
 22 20  1  0
 23 32  2  0
 23 28  1  0
 24 20  1  0
 24 28  1  0
 25 24  1  0
 26 27  1  0
 26 25  1  0
 27 23  1  0
 28 29  2  0
 29 30  1  0
 31 30  2  0
 32 31  1  0
 33  7  1  0
 33 38  1  0
 33 34  1  0
 34 37  1  1
 34 35  1  0
 36 34  1  0
 38 41  1  0
 39 43  1  0
 39 38  1  0
 40 39  2  0
 43 42  1  0
 45 43  1  0
 45 46  1  0
 45 44  1  0
 47  1  1  0
 48 47  1  0
 48 50  1  0
 49 48  1  0
 52 51  1  0
 52 53  1  0
 52 48  1  0
 55 60  1  0
 56 57  1  0
 56 55  1  0
 58 57  1  0
 58 67  1  0
 58 59  1  0
 60 54  1  0
 60 59  1  0
 61 54  2  0
 62 63  1  0
 63 54  1  0
 63 53  1  0
 64 65  2  0
 65 66  1  0
 65 84  1  0
 66 69  1  0
 67 64  1  0
 67 68  1  0
 68 66  2  0
 69 70  1  0
 70 71  2  0
 72 75  1  0
 72 71  1  0
 73 72  2  0
 74 73  1  0
 74 69  2  0
 75 76  1  0
 76 77  1  0
 77 78  2  0
 79 78  1  0
 79 83  1  0
 80 79  2  0
 81 76  2  0
 81 80  1  0
 82 81  1  0
 84 85  1  0
 85 88  1  0
 85 87  1  0
 86 84  2  0
 89 90  1  0
 89 64  1  0
 91 89  1  0
M  ISO  4   5 101   6 101  54 100  63 100
M  END
>  <TORSDO>  (17) 
F 24

>  <SCORE>  (17) 
-12.625

>  <name>  (17) 
16

>  <ligand_id>  (17) 
16

>  <original_smiles>  (17) 
[H]c1c([H])c([H])c2c(c1[H])C([H])([H])C([H])([H])C([H])([H])C2([H])N([H])C(=O)C1([H])N(C(=O)C([H])(N([H])C(=O)C([H])(N([H])C([H])([H])[H])C([H])([H])[H])C(C([H])([H])[H])(C([H])([H])[H])C([H])([H])[H])C([H])([H])c2c([H])c(OC([H])([H])C([H])([H])C([H])([H])C([H])([H])C([H])([H])C([H])([H])[N+]([H])([H])C([H])(C([H])([H])[H])C([H])([H])N(C(=O)N3C([H])([H])C([H])([H])C([H])([H])C([H])(n4nc(-c5c([H])c([H])c(Oc6c([H])c([H])c(F)c([H])c6F)c([H])c5[H])c(C(=O)N([H])[H])c4N([H])[H])C3([H])[H])C([H])([H])[H])c([H])c([H])c2C1([H])[H]

>  <smiles>  (17) 
[H]c1c([H])c([H])c2c(c1[H])C([H])([H])C([H])([H])C([H])([H])C2([H])N([H])C(=O)C1([H])N(C(=O)C([H])(N([H])C(=O)C([H])(N([H])C([H])([H])[H])C([H])([H])[H])C(C([H])([H])[H])(C([H])([H])[H])C([H])([H])[H])C([H])([H])c2c([H])c(OC([H])([H])C([H])([H])C([H])([H])C([H])([H])C([H])([H])C([H])([H])[N+]([H])([H])C([H])(C([H])([H])[H])C([H])([H])N(C(=O)N3C([H])([H])C([H])([H])C([H])([H])C([H])(n4nc(-c5c([H])c([H])c(Oc6c([H])c([H])c(F)c([H])c6F)c([H])c5[H])c(C(=O)N([H])[H])c4N([H])[H])C3([H])[H])C([H])([H])[H])c([H])c([H])c2C1([H])[H]

$$$$
17:0:0
     RDKit          3D

 90 97  0  0  1  0  0  0  0  0999 V2000
  -29.1920  -23.1740   21.1990 C   0  0  0  0  0  2  0  0  0  0  0  0
  -29.4270  -24.5510   20.5170 C   0  0  0  0  0  3  0  0  0  0  0  0
  -30.7880  -25.1550   20.8850 C   0  0  0  0  0  3  0  0  0  0  0  0
  -31.8380  -24.7010   20.4240 O   0  0  0  0  0  0  0  0  0  0  0  0
  -28.2930  -25.5370   20.8720 C   0  0  0  0  0  2  0  0  0  0  0  0
  -28.3710  -26.7490   20.1140 O   0  0  0  0  0  0  0  0  0  0  0  0
  -24.5860  -31.8920   23.2370 C   0  0  0  0  0  0  0  0  0  0  0  0
  -27.2090  -27.4800   20.1260 C   0  0  0  0  0  0  0  0  0  0  0  0
  -23.3660  -30.4930   21.6020 C   0  0  0  0  0  3  0  0  0  0  0  0
  -24.8110  -28.9640   20.1590 C   0  0  0  0  0  0  0  0  0  0  0  0
  -25.8890  -30.8610   21.3830 C   0  0  0  0  0  2  0  0  0  0  0  0
  -25.9720  -29.4940   20.7380 C   0  0  0  0  0  0  0  0  0  0  0  0
  -27.1770  -28.7600   20.7150 C   0  0  0  0  0  3  0  0  0  0  0  0
  -26.0370  -26.9590   19.5370 C   0  0  0  0  0  3  0  0  0  0  0  0
  -24.8360  -27.6940   19.5560 C   0  0  0  0  0  3  0  0  0  0  0  0
  -23.5650  -29.8180   20.2180 C   0  0  0  0  0  2  0  0  0  0  0  0
  -24.6320  -31.0950   22.1330 N   0  0  0  0  0  0  0  0  0  0  0  0
  -23.5090  -32.1630   23.7870 O   0  0  0  0  0  0  0  0  0  0  0  0
  -22.7250  -29.4670   22.5630 C   0  0  0  0  0  0  0  0  0  0  0  0
  -21.4000  -29.2810   22.4400 N   0  0  0  0  0  0  0  0  0  0  0  0
  -23.4150  -28.8430   23.3730 O   0  0  0  0  0  0  0  0  0  0  0  0
  -20.9060  -29.8380   21.7580 H   0  0  0  0  0  0  0  0  0  0  0  0
  -18.0330  -28.0740   22.9450 C   0  0  0  0  0  0  0  0  0  0  0  0
  -20.5910  -28.3390   23.2140 C   0  0  0  0  0  3  0  0  0  0  0  0
  -20.6950  -26.9080   22.6370 C   0  0  0  0  0  2  0  0  0  0  0  0
  -19.5930  -26.5840   21.6230 C   0  0  0  0  0  2  0  0  0  0  0  0
  -18.2120  -26.7260   22.2690 C   0  0  0  0  0  2  0  0  0  0  0  0
  -19.1500  -28.8390   23.3740 C   0  0  0  0  0  0  0  0  0  0  0  0
  -18.9300  -30.1030   23.9640 C   0  0  0  0  0  3  0  0  0  0  0  0
  -17.6240  -30.6030   24.1300 C   0  0  0  0  0  3  0  0  0  0  0  0
  -16.5220  -29.8350   23.7180 C   0  0  0  0  0  3  0  0  0  0  0  0
  -16.7270  -28.5720   23.1320 C   0  0  0  0  0  3  0  0  0  0  0  0
  -25.8790  -32.5200   23.8480 C   0  0  0  0  0  3  0  0  0  0  0  0
  -26.4040  -31.7470   25.1200 C   0  0  1  0  0  0  0  0  0  0  0  0
  -25.3190  -31.5130   26.1960 C   0  0  0  0  0  1  0  0  0  0  0  0
  -26.9810  -30.3680   24.7220 C   0  0  0  0  0  1  0  0  0  0  0  0
  -27.5610  -32.5390   25.7740 C   0  0  0  0  0  1  0  0  0  0  0  0
  -25.5750  -33.9180   24.1780 N   0  0  0  0  0  0  0  0  0  0  0  0
  -25.9090  -34.9690   23.4160 C   0  0  0  0  0  0  0  0  0  0  0  0
  -26.5790  -34.8630   22.3860 O   0  0  0  0  0  0  0  0  0  0  0  0
  -24.9850  -34.0740   24.9810 H   0  0  0  0  0  0  0  0  0  0  0  0
  -24.1920  -36.7680   23.0520 C   0  0  0  0  0  1  0  0  0  0  0  0
  -25.4250  -36.3580   23.8730 C   0  0  0  0  0  3  0  0  0  0  0  0
  -27.5560  -37.2300   24.7230 C   0  0  0  0  0  1  0  0  0  0  0  0
  -26.4630  -37.4060   23.7700 N   0  0  0  0  0  0  0  0  0  0  0  0
  -26.0610  -38.3270   23.9170 H   0  0  0  0  0  0  0  0  0  0  0  0
  -30.0720  -22.0080   20.6930 C   0  0  0  0  0  2  0  0  0  0  0  0
  -29.6400  -20.6530   21.2860 C   0  0  0  0  0  2  0  0  0  0  0  0
  -30.5310  -19.4720   20.8510 C   0  0  0  0  0  2  0  0  0  0  0  0
  -30.0580  -18.1870   21.4170 N   0  0  0  0  0  4  0  0  0  0  0  0
  -30.1290  -18.2290   22.4220 H   0  0  0  0  0  0  0  0  0  0  0  0
  -29.0850  -18.0860   21.1820 H   0  0  0  0  0  0  0  0  0  0  0  0
  -30.7950  -16.9980   20.9270 C   0  0  0  0  0  2  0  0  0  0  0  0
  -30.1300  -15.6480   21.3120 C   0  0  0  0  0  2  0  0  0  0  0  0
  -30.7250  -14.4610   20.5240 C   0  0  0  0  0  0  0  0  0  0  0  0
  -30.3730  -12.3440   19.3060 C   0  0  0  0  0  2  0  0  0  0  0  0
  -29.4380  -12.5800   18.1030 C   0  0  0  0  0  2  0  0  0  0  0  0
  -27.9620  -12.4530   18.5250 C   0  0  0  0  0  2  0  0  0  0  0  0
  -27.6300  -13.2780   19.7960 C   0  0  0  0  0  3  0  0  0  0  0  0
  -28.6800  -13.0400   20.9060 C   0  0  0  0  0  2  0  0  0  0  0  0
  -30.0130  -13.3160   20.3500 N   0  0  0  0  0  0  0  0  0  0  0  0
  -31.8240  -14.6290   19.9900 O   0  0  0  0  0  0  0  0  0  0  0  0
  -25.2230  -13.8930   20.4780 C   0  0  0  0  0  0  0  0  0  0  0  0
  -24.1520  -13.1230   20.8440 C   0  0  0  0  0  0  0  0  0  0  0  0
  -24.6130  -11.7710   20.8280 C   0  0  0  0  0  0  0  0  0  0  0  0
  -26.2720  -13.0090   20.2660 N   0  0  0  0  0  0  0  0  0  0  0  0
  -25.9060  -11.7290   20.5330 N   0  0  0  0  0  0  0  0  0  0  0  0
  -23.8840  -10.5100   21.0210 C   0  0  0  0  0  0  0  0  0  0  0  0
  -24.3120   -9.5480   21.9630 C   0  0  0  0  0  3  0  0  0  0  0  0
  -23.5850   -8.3530   22.1450 C   0  0  0  0  0  3  0  0  0  0  0  0
  -22.4150   -8.1090   21.3860 C   0  0  0  0  0  0  0  0  0  0  0  0
  -22.0070   -9.0610   20.4340 C   0  0  0  0  0  3  0  0  0  0  0  0
  -22.7340  -10.2490   20.2510 C   0  0  0  0  0  3  0  0  0  0  0  0
  -21.6600   -6.9650   21.4760 O   0  0  0  0  0  0  0  0  0  0  0  0
  -21.6110   -6.2250   22.6300 C   0  0  0  0  0  0  0  0  0  0  0  0
  -21.1860   -6.7830   23.8550 C   0  0  0  0  0  3  0  0  0  0  0  0
  -21.0850   -5.9690   25.0020 C   0  0  0  0  0  3  0  0  0  0  0  0
  -21.3970   -4.5990   24.9230 C   0  0  0  0  0  0  0  0  0  0  0  0
  -21.8160   -4.0410   23.7010 C   0  0  0  0  0  3  0  0  0  0  0  0
  -21.9190   -4.8520   22.5580 C   0  0  0  0  0  0  0  0  0  0  0  0
  -22.3010   -4.3040   21.3780 F   0  0  0  0  0  0  0  0  0  0  0  0
  -21.2920   -3.8140   26.0220 F   0  0  0  0  0  0  0  0  0  0  0  0
  -22.7520  -13.6020   21.0990 C   0  0  0  0  0  0  0  0  0  0  0  0
  -22.0180  -12.9110   21.9650 N   0  0  0  0  0  0  0  0  0  0  0  0
  -22.3180  -14.6230   20.5680 O   0  0  0  0  0  0  0  0  0  0  0  0
  -22.3840  -12.0850   22.4150 H   0  0  0  0  0  0  0  0  0  0  0  0
  -21.0780  -13.2120   22.1790 H   0  0  0  0  0  0  0  0  0  0  0  0
  -25.3910  -15.2610   20.2890 N   0  0  0  0  0  0  0  0  0  0  0  0
  -24.6210  -15.9170   20.3790 H   0  0  0  0  0  0  0  0  0  0  0  0
  -26.2400  -15.6940   19.9500 H   0  0  0  0  0  0  0  0  0  0  0  0
  2  5  1  0
  2  3  1  0
  2  1  1  0
  4  3  2  0
  6  8  1  0
  6  5  1  0
  7 18  2  0
  8 13  1  0
  9 17  1  0
  9 19  1  0
 10 16  1  0
 10 12  1  0
 11 17  1  0
 12 11  1  0
 13 12  2  0
 14 15  1  0
 14  8  2  0
 15 10  2  0
 16  9  1  0
 17  7  1  0
 19 21  2  0
 20 19  1  0
 22 20  1  0
 23 32  2  0
 23 28  1  0
 24 20  1  0
 24 28  1  0
 25 24  1  0
 26 27  1  0
 26 25  1  0
 27 23  1  0
 28 29  2  0
 29 30  1  0
 31 30  2  0
 32 31  1  0
 33  7  1  0
 33 38  1  0
 33 34  1  0
 34 37  1  1
 34 35  1  0
 36 34  1  0
 38 41  1  0
 39 43  1  0
 39 38  1  0
 40 39  2  0
 43 42  1  0
 45 43  1  0
 45 46  1  0
 45 44  1  0
 47  1  1  0
 47 48  1  0
 49 48  1  0
 49 50  1  0
 50 51  1  0
 52 50  1  0
 53 54  1  0
 53 50  1  0
 55 54  1  0
 56 61  1  0
 57 58  1  0
 57 56  1  0
 59 58  1  0
 59 66  1  0
 59 60  1  0
 61 55  1  0
 61 60  1  0
 62 55  2  0
 63 64  2  0
 64 83  1  0
 65 64  1  0
 65 68  1  0
 66 63  1  0
 66 67  1  0
 67 65  2  0
 68 69  1  0
 69 70  2  0
 71 74  1  0
 71 70  1  0
 72 71  2  0
 73 72  1  0
 73 68  2  0
 74 75  1  0
 75 76  1  0
 76 77  2  0
 78 77  1  0
 78 82  1  0
 79 78  2  0
 80 75  2  0
 80 79  1  0
 81 80  1  0
 83 84  1  0
 84 87  1  0
 84 86  1  0
 85 83  2  0
 88 89  1  0
 88 63  1  0
 90 88  1  0
M  ISO  4   5 101   6 101  54 100  55 100
M  END
>  <TORSDO>  (18) 
F 25

>  <SCORE>  (18) 
-12.230

>  <name>  (18) 
17

>  <ligand_id>  (18) 
17

>  <original_smiles>  (18) 
[H]C(=O)C([H])(C([H])([H])Oc1c([H])c([H])c2c(c1[H])C([H])([H])N(C(=O)C([H])(N([H])C(=O)C([H])(N([H])C([H])([H])[H])C([H])([H])[H])C(C([H])([H])[H])(C([H])([H])[H])C([H])([H])[H])C([H])(C(=O)N([H])C1([H])c3c([H])c([H])c([H])c([H])c3C([H])([H])C([H])([H])C1([H])[H])C2([H])[H])C([H])([H])C([H])([H])C([H])([H])C([H])([H])[N+]([H])([H])C([H])([H])C([H])([H])C(=O)N1C([H])([H])C([H])([H])C([H])([H])C([H])(n2nc(-c3c([H])c([H])c(Oc4c([H])c([H])c(F)c([H])c4F)c([H])c3[H])c(C(=O)N([H])[H])c2N([H])[H])C1([H])[H]

>  <smiles>  (18) 
[H]C(=O)C([H])(C([H])([H])Oc1c([H])c([H])c2c(c1[H])C([H])([H])N(C(=O)C([H])(N([H])C(=O)C([H])(N([H])C([H])([H])[H])C([H])([H])[H])C(C([H])([H])[H])(C([H])([H])[H])C([H])([H])[H])C([H])(C(=O)N([H])C1([H])c3c([H])c([H])c([H])c([H])c3C([H])([H])C([H])([H])C1([H])[H])C2([H])[H])C([H])([H])C([H])([H])C([H])([H])C([H])([H])[N+]([H])([H])C([H])([H])C([H])([H])C(=O)N1C([H])([H])C([H])([H])C([H])([H])C([H])(n2nc(-c3c([H])c([H])c(Oc4c([H])c([H])c(F)c([H])c4F)c([H])c3[H])c(C(=O)N([H])[H])c2N([H])[H])C1([H])[H]

$$$$
18:0:0
     RDKit          3D

 97106  0  0  1  0  0  0  0  0999 V2000
  -27.9430  -19.3390   19.3780 C   0  0  0  0  0  3  0  0  0  0  0  0
  -26.7390  -20.0550   19.2770 C   0  0  0  0  0  3  0  0  0  0  0  0
  -29.1680  -21.4290   19.4790 C   0  0  0  0  0  3  0  0  0  0  0  0
  -29.1760  -20.0190   19.4980 C   0  0  0  0  0  0  0  0  0  0  0  0
  -26.7350  -21.4640   19.2680 C   0  0  0  0  0  0  0  0  0  0  0  0
  -27.9670  -22.1620   19.3740 C   0  0  0  0  0  0  0  0  0  0  0  0
  -31.9320  -15.2950   20.4820 C   0  0  0  0  0  0  0  0  0  0  0  0
  -31.5810  -12.9110   20.0340 C   0  0  0  0  0  2  0  0  0  0  0  0
  -30.8380  -12.7520   18.6920 C   0  0  0  0  0  2  0  0  0  0  0  0
  -29.3140  -12.8120   18.9010 C   0  0  0  0  0  2  0  0  0  0  0  0
  -28.8710  -14.0220   19.7690 C   0  0  0  0  0  3  0  0  0  0  0  0
  -29.7420  -14.1220   21.0400 C   0  0  0  0  0  2  0  0  0  0  0  0
  -31.1500  -14.1880   20.6190 N   0  0  0  0  0  0  0  0  0  0  0  0
  -33.1390  -15.2170   20.2350 O   0  0  0  0  0  0  0  0  0  0  0  0
  -30.7770  -18.7190   21.0220 C   0  0  0  0  0  2  0  0  0  0  0  0
  -30.7880  -18.2290   18.5220 C   0  0  0  0  0  2  0  0  0  0  0  0
  -30.4890  -17.2110   21.1130 C   0  0  0  0  0  2  0  0  0  0  0  0
  -31.8070  -17.1900   18.9920 C   0  0  0  0  0  2  0  0  0  0  0  0
  -30.5240  -19.3010   19.6080 C   0  0  0  0  0  3  0  0  0  0  0  0
  -31.2840  -16.4340   20.1470 N   0  0  0  0  0  0  0  0  0  0  0  0
  -26.5050  -14.9670   20.1380 C   0  0  0  0  0  0  0  0  0  0  0  0
  -25.3070  -14.3600   20.4030 C   0  0  0  0  0  0  0  0  0  0  0  0
  -25.5860  -12.9610   20.4940 C   0  0  0  0  0  0  0  0  0  0  0  0
  -27.4460  -13.9510   20.0860 N   0  0  0  0  0  0  0  0  0  0  0  0
  -26.8870  -12.7420   20.3550 N   0  0  0  0  0  0  0  0  0  0  0  0
  -24.6830  -11.8120   20.6460 C   0  0  0  0  0  0  0  0  0  0  0  0
  -24.9660  -10.7640   21.5490 C   0  0  0  0  0  3  0  0  0  0  0  0
  -24.0730   -9.6800   21.6900 C   0  0  0  0  0  3  0  0  0  0  0  0
  -22.8820   -9.6370   20.9270 C   0  0  0  0  0  0  0  0  0  0  0  0
  -22.6150  -10.6730   20.0140 C   0  0  0  0  0  3  0  0  0  0  0  0
  -23.5080  -11.7480   19.8720 C   0  0  0  0  0  3  0  0  0  0  0  0
  -21.9700   -8.6110   20.9800 O   0  0  0  0  0  0  0  0  0  0  0  0
  -21.9280   -7.7390   22.0390 C   0  0  0  0  0  0  0  0  0  0  0  0
  -21.7040   -8.1820   23.3610 C   0  0  0  0  0  3  0  0  0  0  0  0
  -21.5970   -7.2430   24.4080 C   0  0  0  0  0  3  0  0  0  0  0  0
  -21.7070   -5.8660   24.1350 C   0  0  0  0  0  0  0  0  0  0  0  0
  -21.9270   -5.4250   22.8200 C   0  0  0  0  0  3  0  0  0  0  0  0
  -22.0340   -6.3590   21.7740 C   0  0  0  0  0  0  0  0  0  0  0  0
  -22.2230   -5.9250   20.5040 F   0  0  0  0  0  0  0  0  0  0  0  0
  -21.5980   -4.9660   25.1390 F   0  0  0  0  0  0  0  0  0  0  0  0
  -23.9640  -15.0270   20.4810 C   0  0  0  0  0  0  0  0  0  0  0  0
  -23.0650  -14.5020   21.3050 N   0  0  0  0  0  0  0  0  0  0  0  0
  -23.7210  -16.0530   19.8450 O   0  0  0  0  0  0  0  0  0  0  0  0
  -23.2710  -13.6720   21.8410 H   0  0  0  0  0  0  0  0  0  0  0  0
  -22.1560  -14.9330   21.4040 H   0  0  0  0  0  0  0  0  0  0  0  0
  -26.8730  -16.2910   19.9220 N   0  0  0  0  0  0  0  0  0  0  0  0
  -26.2020  -17.0520   19.9200 H   0  0  0  0  0  0  0  0  0  0  0  0
  -27.8210  -16.5990   19.7520 H   0  0  0  0  0  0  0  0  0  0  0  0
  -24.8840  -22.6630   20.4910 C   0  0  0  0  0  1  0  0  0  0  0  0
  -25.3910  -22.1640   19.1350 C   0  0  0  0  0  2  0  0  0  0  0  0
  -28.0820  -23.6810   19.3010 C   0  0  0  0  0  2  0  0  0  0  0  0
  -29.1450  -24.1320   18.2790 C   0  0  0  0  0  2  0  0  0  0  0  0
  -28.7280  -23.8790   16.8230 C   0  0  0  0  0  2  0  0  0  0  0  0
  -29.6280  -24.5720   15.7980 C   0  0  0  0  0  2  0  0  0  0  0  0
  -28.9110  -24.6590   14.4500 C   0  0  0  0  0  2  0  0  0  0  0  0
  -29.5410  -25.6450   13.4540 C   0  0  0  0  0  2  0  0  0  0  0  0
  -28.6560  -25.8170   12.3480 O   0  0  0  0  0  0  0  0  0  0  0  0
  -24.1890  -27.4480   17.6220 C   0  0  0  0  0  0  0  0  0  0  0  0
  -27.4090  -26.2540   12.7070 C   0  0  0  0  0  0  0  0  0  0  0  0
  -23.1700  -27.2230   15.3770 C   0  0  0  0  0  3  0  0  0  0  0  0
  -24.8140  -27.0760   13.4290 C   0  0  0  0  0  0  0  0  0  0  0  0
  -25.6080  -27.9340   15.6400 C   0  0  0  0  0  2  0  0  0  0  0  0
  -25.8840  -27.2710   14.3110 C   0  0  0  0  0  0  0  0  0  0  0  0
  -27.1830  -26.8560   13.9610 C   0  0  0  0  0  3  0  0  0  0  0  0
  -26.3320  -26.0770   11.8140 C   0  0  0  0  0  3  0  0  0  0  0  0
  -25.0300  -26.4680   12.1780 C   0  0  0  0  0  3  0  0  0  0  0  0
  -23.4590  -27.5610   13.8880 C   0  0  0  0  0  2  0  0  0  0  0  0
  -24.3390  -27.5100   16.2690 N   0  0  0  0  0  0  0  0  0  0  0  0
  -23.0880  -27.1990   18.1310 O   0  0  0  0  0  0  0  0  0  0  0  0
  -22.6820  -25.7610   15.4600 C   0  0  0  0  0  0  0  0  0  0  0  0
  -21.5440  -25.4730   14.8070 N   0  0  0  0  0  0  0  0  0  0  0  0
  -23.3330  -24.9100   16.0720 O   0  0  0  0  0  0  0  0  0  0  0  0
  -21.0660  -26.2270   14.3310 H   0  0  0  0  0  0  0  0  0  0  0  0
  -18.9870  -23.5830   13.1000 C   0  0  0  0  0  0  0  0  0  0  0  0
  -20.9200  -24.1550   14.7160 C   0  0  0  0  0  3  0  0  0  0  0  0
  -21.7790  -23.1880   13.8700 C   0  0  0  0  0  2  0  0  0  0  0  0
  -21.3810  -23.1640   12.3910 C   0  0  0  0  0  2  0  0  0  0  0  0
  -19.9160  -22.7450   12.2370 C   0  0  0  0  0  2  0  0  0  0  0  0
  -19.4630  -24.2570   14.2560 C   0  0  0  0  0  0  0  0  0  0  0  0
  -18.5670  -25.0500   15.0060 C   0  0  0  0  0  3  0  0  0  0  0  0
  -17.2220  -25.1800   14.6180 C   0  0  0  0  0  3  0  0  0  0  0  0
  -16.7510  -24.4980   13.4830 C   0  0  0  0  0  3  0  0  0  0  0  0
  -17.6300  -23.6990   12.7300 C   0  0  0  0  0  3  0  0  0  0  0  0
  -25.3840  -27.7120   18.5910 C   0  0  0  0  0  3  0  0  0  0  0  0
  -24.8270  -28.2520   19.8380 N   0  0  0  0  0  0  0  0  0  0  0  0
  -24.9730  -29.5190   20.2480 C   0  0  0  0  0  0  0  0  0  0  0  0
  -25.6610  -30.3440   19.6400 O   0  0  0  0  0  0  0  0  0  0  0  0
  -24.2100  -27.6460   20.3580 H   0  0  0  0  0  0  0  0  0  0  0  0
  -23.0050  -30.7800   21.1740 C   0  0  0  0  0  1  0  0  0  0  0  0
  -24.2390  -29.9380   21.5360 C   0  0  0  0  0  3  0  0  0  0  0  0
  -26.1410  -29.8680   23.0870 C   0  0  0  0  0  1  0  0  0  0  0  0
  -25.0930  -30.6870   22.4820 N   0  0  0  0  0  0  0  0  0  0  0  0
  -24.5350  -31.0920   23.2290 H   0  0  0  0  0  0  0  0  0  0  0  0
  -26.2490  -26.4240   18.8760 C   0  0  1  0  0  0  0  0  0  0  0  0
  -25.4160  -25.2030   19.3340 C   0  0  0  0  0  1  0  0  0  0  0  0
  -27.0400  -26.0070   17.6150 C   0  0  0  0  0  1  0  0  0  0  0  0
  -27.2910  -26.7230   19.9800 C   0  0  0  0  0  1  0  0  0  0  0  0
  1  4  1  0
  2  1  2  0
  3  4  2  0
  5  2  1  0
  5  6  2  0
  6  3  1  0
  7 13  1  0
  8 13  1  0
  9 10  1  0
  9  8  1  0
 11 10  1  0
 11 24  1  0
 11 12  1  0
 13 12  1  0
 14  7  2  0
 15 17  1  0
 16 18  1  0
 16 19  1  0
 18 20  1  0
 19  4  1  0
 19 15  1  0
 20  7  1  0
 20 17  1  0
 21 22  2  0
 22 41  1  0
 22 23  1  0
 23 26  1  0
 24 21  1  0
 24 25  1  0
 25 23  2  0
 26 27  1  0
 27 28  2  0
 29 32  1  0
 29 28  1  0
 30 29  2  0
 31 30  1  0
 31 26  2  0
 32 33  1  0
 33 34  1  0
 34 35  2  0
 36 35  1  0
 36 40  1  0
 37 36  2  0
 38 33  2  0
 38 37  1  0
 39 38  1  0
 41 42  1  0
 42 45  1  0
 42 44  1  0
 43 41  2  0
 46 21  1  0
 47 46  1  0
 48 46  1  0
 50  5  1  0
 50 49  1  0
 51  6  1  0
 52 51  1  0
 53 52  1  0
 54 53  1  0
 55 54  1  0
 56 55  1  0
 57 59  1  0
 57 56  1  0
 58 69  2  0
 59 64  1  0
 60 70  1  0
 60 68  1  0
 61 67  1  0
 61 63  1  0
 62 68  1  0
 63 62  1  0
 64 63  2  0
 65 66  1  0
 65 59  2  0
 66 61  2  0
 67 60  1  0
 68 58  1  0
 70 72  2  0
 71 70  1  0
 73 71  1  0
 74 79  1  0
 75 71  1  0
 76 75  1  0
 77 76  1  0
 78 77  1  0
 78 74  1  0
 79 75  1  0
 79 80  2  0
 81 80  1  0
 82 81  2  0
 83 74  2  0
 83 82  1  0
 84 58  1  0
 84 94  1  0
 84 85  1  0
 85 86  1  0
 85 88  1  0
 86 90  1  0
 87 86  2  0
 90 89  1  0
 90 92  1  0
 92 91  1  0
 92 93  1  0
 94 95  1  1
 94 97  1  0
 96 94  1  0
M  ISO  4   7 100  20 100  56 101  57 101
M  END
>  <TORSDO>  (19) 
F 23

>  <SCORE>  (19) 
-6.585

>  <name>  (19) 
18

>  <ligand_id>  (19) 
18

>  <original_smiles>  (19) 
[H]c1c([H])c([H])c2c(c1[H])C([H])([H])C([H])([H])C([H])([H])C2([H])N([H])C(=O)C1([H])N(C(=O)C([H])(N([H])C(=O)C([H])(N([H])C([H])([H])[H])C([H])([H])[H])C(C([H])([H])[H])(C([H])([H])[H])C([H])([H])[H])C([H])([H])c2c([H])c(OC([H])([H])C([H])([H])C([H])([H])C([H])([H])C([H])([H])C([H])([H])c3c([H])c(C4([H])C([H])([H])C([H])([H])N(C(=O)N5C([H])([H])C([H])([H])C([H])([H])C([H])(n6nc(-c7c([H])c([H])c(Oc8c([H])c([H])c(F)c([H])c8F)c([H])c7[H])c(C(=O)N([H])[H])c6N([H])[H])C5([H])[H])C([H])([H])C4([H])[H])c([H])c([H])c3C([H])([H])C([H])([H])[H])c([H])c([H])c2C1([H])[H]

>  <smiles>  (19) 
[H]c1c([H])c([H])c2c(c1[H])C([H])([H])C([H])([H])C([H])([H])C2([H])N([H])C(=O)C1([H])N(C(=O)C([H])(N([H])C(=O)C([H])(N([H])C([H])([H])[H])C([H])([H])[H])C(C([H])([H])[H])(C([H])([H])[H])C([H])([H])[H])C([H])([H])c2c([H])c(OC([H])([H])C([H])([H])C([H])([H])C([H])([H])C([H])([H])C([H])([H])c3c([H])c(C4([H])C([H])([H])C([H])([H])N(C(=O)N5C([H])([H])C([H])([H])C([H])([H])C([H])(n6nc(-c7c([H])c([H])c(Oc8c([H])c([H])c(F)c([H])c8F)c([H])c7[H])c(C(=O)N([H])[H])c6N([H])[H])C5([H])[H])C([H])([H])C4([H])[H])c([H])c([H])c3C([H])([H])C([H])([H])[H])c([H])c([H])c2C1([H])[H]

$$$$
19:0:0
     RDKit          3D

 98107  0  0  1  0  0  0  0  0999 V2000
  -25.9060  -20.5580   18.6540 C   0  0  0  0  0  3  0  0  0  0  0  0
  -26.9550  -19.7890   18.1110 C   0  0  0  0  0  3  0  0  0  0  0  0
  -28.5900  -21.5200   18.7300 C   0  0  0  0  0  3  0  0  0  0  0  0
  -27.5290  -22.2890   19.2620 C   0  0  0  0  0  0  0  0  0  0  0  0
  -26.2190  -21.8080   19.2060 C   0  0  0  0  0  0  0  0  0  0  0  0
  -28.2930  -20.2660   18.1170 C   0  0  0  0  0  0  0  0  0  0  0  0
  -26.2100  -23.8990   20.1960 C   0  0  0  0  0  3  0  0  0  0  0  0
  -27.4940  -23.6240   19.8960 C   0  0  0  0  0  0  0  0  0  0  0  0
  -25.2490  -22.8010   19.7940 C   0  0  0  0  0  3  0  0  0  0  0  0
  -30.2810  -20.3080   16.5130 C   0  0  0  0  0  1  0  0  0  0  0  0
  -29.3530  -19.4390   17.3740 C   0  0  0  0  0  3  0  0  0  0  0  0
  -30.1240  -18.5250   18.2490 N   0  0  0  0  0  4  0  0  0  0  0  0
  -30.8380  -18.1210   17.6650 H   0  0  0  0  0  0  0  0  0  0  0  0
  -30.5880  -19.0390   18.9790 H   0  0  0  0  0  0  0  0  0  0  0  0
  -29.3790  -17.3800   18.8210 C   0  0  0  0  0  2  0  0  0  0  0  0
  -29.0730  -17.5730   20.3210 C   0  0  0  0  0  2  0  0  0  0  0  0
  -30.1660  -17.0110   21.2670 C   0  0  0  0  0  2  0  0  0  0  0  0
  -30.8210  -14.6720   20.6000 C   0  0  0  0  0  0  0  0  0  0  0  0
  -30.5630  -12.5990   19.2960 C   0  0  0  0  0  2  0  0  0  0  0  0
  -29.6240  -12.8830   18.1060 C   0  0  0  0  0  2  0  0  0  0  0  0
  -28.1390  -12.7530   18.5080 C   0  0  0  0  0  2  0  0  0  0  0  0
  -27.8050  -13.4830   19.8390 C   0  0  0  0  0  3  0  0  0  0  0  0
  -28.8500  -13.1380   20.9230 C   0  0  0  0  0  2  0  0  0  0  0  0
  -30.1860  -13.4920   20.3980 N   0  0  0  0  0  0  0  0  0  0  0  0
  -31.8800  -14.9840   20.0440 O   0  0  0  0  0  0  0  0  0  0  0  0
  -30.1130  -15.5480   21.3240 N   0  0  0  0  0  0  0  0  0  0  0  0
  -29.3300  -15.1530   21.8260 H   0  0  0  0  0  0  0  0  0  0  0  0
  -25.3820  -14.0550   20.5020 C   0  0  0  0  0  0  0  0  0  0  0  0
  -24.3220  -13.2650   20.8600 C   0  0  0  0  0  0  0  0  0  0  0  0
  -24.8030  -11.9200   20.8280 C   0  0  0  0  0  0  0  0  0  0  0  0
  -26.4440  -13.1900   20.2870 N   0  0  0  0  0  0  0  0  0  0  0  0
  -26.0970  -11.9000   20.5350 N   0  0  0  0  0  0  0  0  0  0  0  0
  -24.0920  -10.6470   21.0100 C   0  0  0  0  0  0  0  0  0  0  0  0
  -24.5100   -9.7010   21.9730 C   0  0  0  0  0  3  0  0  0  0  0  0
  -23.8020   -8.4900   22.1400 C   0  0  0  0  0  3  0  0  0  0  0  0
  -22.6660   -8.2160   21.3420 C   0  0  0  0  0  0  0  0  0  0  0  0
  -22.2690   -9.1510   20.3690 C   0  0  0  0  0  3  0  0  0  0  0  0
  -22.9770  -10.3530   20.2010 C   0  0  0  0  0  3  0  0  0  0  0  0
  -21.9330   -7.0570   21.4140 O   0  0  0  0  0  0  0  0  0  0  0  0
  -21.8200   -6.3480   22.5830 C   0  0  0  0  0  0  0  0  0  0  0  0
  -21.2620   -6.9170   23.7500 C   0  0  0  0  0  3  0  0  0  0  0  0
  -21.1030   -6.1320   24.9090 C   0  0  0  0  0  3  0  0  0  0  0  0
  -21.4910   -4.7780   24.9030 C   0  0  0  0  0  0  0  0  0  0  0  0
  -22.0420   -4.2090   23.7410 C   0  0  0  0  0  3  0  0  0  0  0  0
  -22.2040   -4.9910   22.5850 C   0  0  0  0  0  0  0  0  0  0  0  0
  -22.7150   -4.4320   21.4610 F   0  0  0  0  0  0  0  0  0  0  0  0
  -21.3280   -4.0210   26.0140 F   0  0  0  0  0  0  0  0  0  0  0  0
  -22.9150  -13.7180   21.1210 C   0  0  0  0  0  0  0  0  0  0  0  0
  -22.1900  -13.0060   21.9760 N   0  0  0  0  0  0  0  0  0  0  0  0
  -22.4660  -14.7390   20.6020 O   0  0  0  0  0  0  0  0  0  0  0  0
  -22.5640  -12.1820   22.4200 H   0  0  0  0  0  0  0  0  0  0  0  0
  -21.2440  -13.2930   22.1880 H   0  0  0  0  0  0  0  0  0  0  0  0
  -25.5280  -15.4280   20.3250 N   0  0  0  0  0  0  0  0  0  0  0  0
  -24.7440  -16.0690   20.4070 H   0  0  0  0  0  0  0  0  0  0  0  0
  -26.3760  -15.8770   20.0070 H   0  0  0  0  0  0  0  0  0  0  0  0
  -28.7380  -24.4600   20.1980 C   0  0  0  0  0  3  0  0  0  0  0  0
  -28.5220  -25.8610   20.8430 C   0  0  0  0  0  2  0  0  0  0  0  0
  -28.4130  -26.9350   19.8950 O   0  0  0  0  0  0  0  0  0  0  0  0
  -24.5570  -31.9390   23.2220 C   0  0  0  0  0  0  0  0  0  0  0  0
  -27.2480  -27.6600   19.9620 C   0  0  0  0  0  0  0  0  0  0  0  0
  -23.3660  -30.5900   21.5230 C   0  0  0  0  0  3  0  0  0  0  0  0
  -24.8380  -29.1320   20.0320 C   0  0  0  0  0  0  0  0  0  0  0  0
  -25.8850  -30.9900   21.3400 C   0  0  0  0  0  2  0  0  0  0  0  0
  -25.9860  -29.6470   20.6450 C   0  0  0  0  0  0  0  0  0  0  0  0
  -27.1980  -28.9170   20.6110 C   0  0  0  0  0  3  0  0  0  0  0  0
  -26.0890  -27.1610   19.3400 C   0  0  0  0  0  3  0  0  0  0  0  0
  -24.8840  -27.8880   19.3750 C   0  0  0  0  0  3  0  0  0  0  0  0
  -23.5830  -29.9710   20.1150 C   0  0  0  0  0  2  0  0  0  0  0  0
  -24.6200  -31.1860   22.0860 N   0  0  0  0  0  0  0  0  0  0  0  0
  -23.4750  -32.1700   23.7790 O   0  0  0  0  0  0  0  0  0  0  0  0
  -22.7320  -29.5220   22.4410 C   0  0  0  0  0  0  0  0  0  0  0  0
  -21.4170  -29.3010   22.2910 N   0  0  0  0  0  0  0  0  0  0  0  0
  -23.4230  -28.8930   23.2490 O   0  0  0  0  0  0  0  0  0  0  0  0
  -20.9190  -29.8580   21.6090 H   0  0  0  0  0  0  0  0  0  0  0  0
  -18.0790  -27.9730   22.6850 C   0  0  0  0  0  0  0  0  0  0  0  0
  -20.6180  -28.3150   23.0210 C   0  0  0  0  0  3  0  0  0  0  0  0
  -20.7860  -26.9040   22.4140 C   0  0  0  0  0  2  0  0  0  0  0  0
  -19.7200  -26.5690   21.3670 C   0  0  0  0  0  2  0  0  0  0  0  0
  -18.3190  -26.6480   21.9810 C   0  0  0  0  0  2  0  0  0  0  0  0
  -19.1580  -28.7630   23.1600 C   0  0  0  0  0  0  0  0  0  0  0  0
  -18.8820  -30.0040   23.7760 C   0  0  0  0  0  3  0  0  0  0  0  0
  -17.5570  -30.4550   23.9210 C   0  0  0  0  0  3  0  0  0  0  0  0
  -16.4900  -29.6600   23.4660 C   0  0  0  0  0  3  0  0  0  0  0  0
  -16.7530  -28.4220   22.8530 C   0  0  0  0  0  3  0  0  0  0  0  0
  -25.8390  -32.5630   23.8610 C   0  0  0  0  0  3  0  0  0  0  0  0
  -25.5370  -33.9650   24.1790 N   0  0  0  0  0  0  0  0  0  0  0  0
  -25.8980  -35.0120   23.4240 C   0  0  0  0  0  0  0  0  0  0  0  0
  -26.5940  -34.8980   22.4120 O   0  0  0  0  0  0  0  0  0  0  0  0
  -24.9260  -34.1290   24.9660 H   0  0  0  0  0  0  0  0  0  0  0  0
  -24.2100  -36.8250   22.9930 C   0  0  0  0  0  1  0  0  0  0  0  0
  -25.4090  -36.4070   23.8600 C   0  0  0  0  0  3  0  0  0  0  0  0
  -27.5150  -37.2630   24.7870 C   0  0  0  0  0  1  0  0  0  0  0  0
  -26.4590  -37.4480   23.7940 N   0  0  0  0  0  0  0  0  0  0  0  0
  -26.0590  -38.3730   23.9230 H   0  0  0  0  0  0  0  0  0  0  0  0
  -26.3240  -31.7910   25.1480 C   0  0  1  0  0  0  0  0  0  0  0  0
  -25.2100  -31.5610   26.1950 C   0  0  0  0  0  1  0  0  0  0  0  0
  -26.9010  -30.4070   24.7720 C   0  0  0  0  0  1  0  0  0  0  0  0
  -27.4710  -32.5750   25.8270 C   0  0  0  0  0  1  0  0  0  0  0  0
  1  5  1  0
  2  6  1  0
  2  1  2  0
  3  4  1  0
  4  8  1  0
  5  4  2  0
  5  9  1  0
  6  3  2  0
  8  7  1  0
  8 56  2  0
  9  7  2  0
 11 10  1  0
 11  6  1  0
 11 12  1  0
 12 15  1  0
 12 14  1  0
 13 12  1  0
 15 16  1  0
 16 17  1  0
 17 26  1  0
 18 26  1  0
 19 24  1  0
 20 21  1  0
 20 19  1  0
 22 21  1  0
 22 31  1  0
 22 23  1  0
 24 18  1  0
 24 23  1  0
 25 18  2  0
 26 27  1  0
 28 29  2  0
 29 48  1  0
 30 29  1  0
 30 33  1  0
 31 28  1  0
 31 32  1  0
 32 30  2  0
 33 34  1  0
 34 35  2  0
 36 39  1  0
 36 35  1  0
 37 36  2  0
 38 37  1  0
 38 33  2  0
 39 40  1  0
 40 45  2  0
 40 41  1  0
 41 42  2  0
 43 42  1  0
 43 47  1  0
 44 43  2  0
 45 44  1  0
 46 45  1  0
 48 49  1  0
 49 52  1  0
 49 51  1  0
 50 48  2  0
 53 54  1  0
 53 28  1  0
 55 53  1  0
 56 57  1  0
 58 60  1  0
 58 57  1  0
 59 70  2  0
 60 65  1  0
 61 69  1  0
 61 71  1  0
 62 68  1  0
 62 64  1  0
 63 69  1  0
 64 63  1  0
 65 64  2  0
 66 67  1  0
 66 60  2  0
 67 62  2  0
 68 61  1  0
 69 59  1  0
 71 73  2  0
 72 71  1  0
 74 72  1  0
 75 84  2  0
 75 80  1  0
 76 72  1  0
 76 80  1  0
 77 76  1  0
 78 79  1  0
 78 77  1  0
 79 75  1  0
 80 81  2  0
 81 82  1  0
 83 82  2  0
 84 83  1  0
 85 59  1  0
 85 86  1  0
 85 95  1  0
 86 89  1  0
 87 91  1  0
 87 86  1  0
 88 87  2  0
 91 90  1  0
 93 91  1  0
 93 94  1  0
 93 92  1  0
 95 98  1  1
 95 96  1  0
 97 95  1  0
M  ISO  4  18 100  26 100  57 101  58 101
M  END
>  <TORSDO>  (20) 
F 23

>  <SCORE>  (20) 
-12.694

>  <name>  (20) 
19

>  <ligand_id>  (20) 
19

>  <original_smiles>  (20) 
[H]C1=C(C([H])([H])C([H])([H])Oc2c([H])c([H])c3c(c2[H])C([H])([H])N(C(=O)C([H])(N([H])C(=O)C([H])(N([H])C([H])([H])[H])C([H])([H])[H])C(C([H])([H])[H])(C([H])([H])[H])C([H])([H])[H])C([H])(C(=O)N([H])C2([H])c4c([H])c([H])c([H])c([H])c4C([H])([H])C([H])([H])C2([H])[H])C3([H])[H])c2c([H])c(C([H])(C([H])([H])[H])[N+]([H])([H])C([H])([H])C([H])([H])C([H])([H])N([H])C(=O)N3C([H])([H])C([H])([H])C([H])([H])C([H])(n4nc(-c5c([H])c([H])c(Oc6c([H])c([H])c(F)c([H])c6F)c([H])c5[H])c(C(=O)N([H])[H])c4N([H])[H])C3([H])[H])c([H])c([H])c2C1([H])[H]

>  <smiles>  (20) 
[H]C1=C(C([H])([H])C([H])([H])Oc2c([H])c([H])c3c(c2[H])C([H])([H])N(C(=O)C([H])(N([H])C(=O)C([H])(N([H])C([H])([H])[H])C([H])([H])[H])C(C([H])([H])[H])(C([H])([H])[H])C([H])([H])[H])C([H])(C(=O)N([H])C2([H])c4c([H])c([H])c([H])c([H])c4C([H])([H])C([H])([H])C2([H])[H])C3([H])[H])c2c([H])c(C([H])(C([H])([H])[H])[N+]([H])([H])C([H])([H])C([H])([H])C([H])([H])N([H])C(=O)N3C([H])([H])C([H])([H])C([H])([H])C([H])(n4nc(-c5c([H])c([H])c(Oc6c([H])c([H])c(F)c([H])c6F)c([H])c5[H])c(C(=O)N([H])[H])c4N([H])[H])C3([H])[H])c([H])c([H])c2C1([H])[H]

$$$$
20:0:0
     RDKit          3D

 99107  0  0  1  0  0  0  0  0999 V2000
  -30.7990  -26.4960   16.5380 C   0  0  0  0  0  3  0  0  0  0  0  0
  -31.6840  -25.4070   16.4450 C   0  0  0  0  0  3  0  0  0  0  0  0
  -29.8340  -26.5320   17.5610 C   0  0  0  0  0  3  0  0  0  0  0  0
  -31.6270  -24.3570   17.3860 C   0  0  0  0  0  0  0  0  0  0  0  0
  -29.7350  -25.4700   18.4860 C   0  0  0  0  0  0  0  0  0  0  0  0
  -30.6210  -24.3670   18.3870 C   0  0  0  0  0  0  0  0  0  0  0  0
  -32.6060  -23.2480   17.2570 C   0  0  0  0  0  0  0  0  0  0  0  0
  -32.6880  -22.5290   16.2580 O   0  0  0  0  0  0  0  0  0  0  0  0
  -33.6080  -23.0840   18.4050 C   0  0  0  0  0  2  0  0  0  0  0  0
  -33.3310  -21.8740   19.3210 C   0  0  0  0  0  2  0  0  0  0  0  0
  -33.4260  -22.2480   20.8100 C   0  0  0  0  0  2  0  0  0  0  0  0
  -33.1290  -21.0870   21.7770 C   0  0  0  0  0  2  0  0  0  0  0  0
  -31.6600  -20.6180   21.7430 C   0  0  0  0  0  2  0  0  0  0  0  0
  -31.2180  -19.8550   23.0070 C   0  0  0  0  0  2  0  0  0  0  0  0
  -31.7190  -18.4040   23.1110 C   0  0  0  0  0  2  0  0  0  0  0  0
  -30.8860  -17.3850   22.3090 C   0  0  0  0  0  2  0  0  0  0  0  0
  -31.3800  -15.9450   22.5420 C   0  0  0  0  0  2  0  0  0  0  0  0
  -30.8180  -14.3250   20.7270 C   0  0  0  0  0  0  0  0  0  0  0  0
  -30.4140  -12.2870   19.3960 C   0  0  0  0  0  2  0  0  0  0  0  0
  -29.4850  -12.5280   18.1950 C   0  0  0  0  0  2  0  0  0  0  0  0
  -28.0110  -12.3810   18.6100 C   0  0  0  0  0  2  0  0  0  0  0  0
  -27.6680  -13.2080   19.8770 C   0  0  0  0  0  3  0  0  0  0  0  0
  -28.7040  -12.9700   20.9980 C   0  0  0  0  0  2  0  0  0  0  0  0
  -30.0570  -13.2310   20.4660 N   0  0  0  0  0  0  0  0  0  0  0  0
  -31.7800  -14.6670   20.0320 O   0  0  0  0  0  0  0  0  0  0  0  0
  -30.5480  -14.9330   21.8880 N   0  0  0  0  0  0  0  0  0  0  0  0
  -29.7750  -14.5550   22.4160 H   0  0  0  0  0  0  0  0  0  0  0  0
  -25.2600  -13.8190   20.5660 C   0  0  0  0  0  0  0  0  0  0  0  0
  -24.1850  -13.0450   20.9140 C   0  0  0  0  0  0  0  0  0  0  0  0
  -24.6390  -11.6920   20.8700 C   0  0  0  0  0  0  0  0  0  0  0  0
  -26.3050  -12.9360   20.3350 N   0  0  0  0  0  0  0  0  0  0  0  0
  -25.9320  -11.6510   20.5730 N   0  0  0  0  0  0  0  0  0  0  0  0
  -23.9050  -10.4300   21.0390 C   0  0  0  0  0  0  0  0  0  0  0  0
  -24.3610   -9.4220   21.9170 C   0  0  0  0  0  3  0  0  0  0  0  0
  -23.6280   -8.2260   22.0750 C   0  0  0  0  0  3  0  0  0  0  0  0
  -22.4260   -8.0290   21.3550 C   0  0  0  0  0  0  0  0  0  0  0  0
  -21.9900   -9.0260   20.4650 C   0  0  0  0  0  3  0  0  0  0  0  0
  -22.7230  -10.2130   20.3050 C   0  0  0  0  0  3  0  0  0  0  0  0
  -21.6640   -6.8870   21.4240 O   0  0  0  0  0  0  0  0  0  0  0  0
  -21.6860   -6.0710   22.5270 C   0  0  0  0  0  0  0  0  0  0  0  0
  -21.4030   -6.5620   23.8200 C   0  0  0  0  0  3  0  0  0  0  0  0
  -21.3660   -5.6780   24.9170 C   0  0  0  0  0  3  0  0  0  0  0  0
  -21.6050   -4.3040   24.7230 C   0  0  0  0  0  0  0  0  0  0  0  0
  -21.8820   -3.8120   23.4360 C   0  0  0  0  0  3  0  0  0  0  0  0
  -21.9190   -4.6940   22.3410 C   0  0  0  0  0  0  0  0  0  0  0  0
  -22.1660   -4.2110   21.0990 F   0  0  0  0  0  0  0  0  0  0  0  0
  -21.5630   -3.4540   25.7750 F   0  0  0  0  0  0  0  0  0  0  0  0
  -22.7870  -13.5250   21.1810 C   0  0  0  0  0  0  0  0  0  0  0  0
  -22.0510  -12.8250   22.0390 N   0  0  0  0  0  0  0  0  0  0  0  0
  -22.3540  -14.5550   20.6660 O   0  0  0  0  0  0  0  0  0  0  0  0
  -22.4110  -11.9910   22.4800 H   0  0  0  0  0  0  0  0  0  0  0  0
  -21.1130  -13.1290   22.2600 H   0  0  0  0  0  0  0  0  0  0  0  0
  -25.4320  -15.1900   20.4100 N   0  0  0  0  0  0  0  0  0  0  0  0
  -24.6740  -15.8520   20.5340 H   0  0  0  0  0  0  0  0  0  0  0  0
  -26.2950  -15.6290   20.1100 H   0  0  0  0  0  0  0  0  0  0  0  0
  -29.5950  -22.3180   18.8300 C   0  0  0  0  0  1  0  0  0  0  0  0
  -30.5010  -23.3220   19.2660 O   0  0  0  0  0  0  0  0  0  0  0  0
  -28.6520  -25.5090   19.5560 C   0  0  0  0  0  2  0  0  0  0  0  0
  -28.4660  -26.8220   20.0830 O   0  0  0  0  0  0  0  0  0  0  0  0
  -24.6130  -31.8710   23.2120 C   0  0  0  0  0  0  0  0  0  0  0  0
  -27.2420  -27.4590   20.0750 C   0  0  0  0  0  0  0  0  0  0  0  0
  -23.4010  -30.4970   21.5510 C   0  0  0  0  0  3  0  0  0  0  0  0
  -24.8430  -28.9620   20.1170 C   0  0  0  0  0  0  0  0  0  0  0  0
  -25.9290  -30.8380   21.3660 C   0  0  0  0  0  2  0  0  0  0  0  0
  -26.0010  -29.4750   20.7110 C   0  0  0  0  0  0  0  0  0  0  0  0
  -27.1960  -28.7290   20.6890 C   0  0  0  0  0  3  0  0  0  0  0  0
  -26.0570  -26.9480   19.4870 C   0  0  0  0  0  3  0  0  0  0  0  0
  -24.8650  -27.6960   19.5060 C   0  0  0  0  0  3  0  0  0  0  0  0
  -23.6070  -29.8290   20.1660 C   0  0  0  0  0  2  0  0  0  0  0  0
  -24.6650  -31.0830   22.1010 N   0  0  0  0  0  0  0  0  0  0  0  0
  -23.5320  -32.1450   23.7520 O   0  0  0  0  0  0  0  0  0  0  0  0
  -22.7400  -29.4680   22.4980 C   0  0  0  0  0  0  0  0  0  0  0  0
  -21.4140  -29.3050   22.3710 N   0  0  0  0  0  0  0  0  0  0  0  0
  -23.4190  -28.8230   23.3010 O   0  0  0  0  0  0  0  0  0  0  0  0
  -20.9280  -29.8810   21.6980 H   0  0  0  0  0  0  0  0  0  0  0  0
  -18.0280  -28.1380   22.8500 C   0  0  0  0  0  0  0  0  0  0  0  0
  -20.5870  -28.3660   23.1310 C   0  0  0  0  0  3  0  0  0  0  0  0
  -20.6750  -26.9390   22.5410 C   0  0  0  0  0  2  0  0  0  0  0  0
  -19.5730  -26.6390   21.5200 C   0  0  0  0  0  2  0  0  0  0  0  0
  -18.1920  -26.7930   22.1640 C   0  0  0  0  0  2  0  0  0  0  0  0
  -19.1530  -28.8830   23.2920 C   0  0  0  0  0  0  0  0  0  0  0  0
  -18.9450  -30.1440   23.8920 C   0  0  0  0  0  3  0  0  0  0  0  0
  -17.6450  -30.6580   24.0570 C   0  0  0  0  0  3  0  0  0  0  0  0
  -16.5350  -29.9080   23.6320 C   0  0  0  0  0  3  0  0  0  0  0  0
  -16.7280  -28.6500   23.0350 C   0  0  0  0  0  3  0  0  0  0  0  0
  -25.9020  -32.4840   23.8420 C   0  0  0  0  0  3  0  0  0  0  0  0
  -26.4450  -31.6630   25.0750 C   0  0  1  0  0  0  0  0  0  0  0  0
  -25.3710  -31.3730   26.1490 C   0  0  0  0  0  1  0  0  0  0  0  0
  -27.0250  -30.3070   24.6130 C   0  0  0  0  0  1  0  0  0  0  0  0
  -27.6050  -32.4330   25.7500 C   0  0  0  0  0  1  0  0  0  0  0  0
  -25.5870  -33.8640   24.2340 N   0  0  0  0  0  0  0  0  0  0  0  0
  -25.9020  -34.9500   23.5150 C   0  0  0  0  0  0  0  0  0  0  0  0
  -26.5590  -34.8930   22.4720 O   0  0  0  0  0  0  0  0  0  0  0  0
  -25.0030  -33.9810   25.0490 H   0  0  0  0  0  0  0  0  0  0  0  0
  -24.1480  -36.7330   23.2650 C   0  0  0  0  0  1  0  0  0  0  0  0
  -25.4100  -36.3140   24.0360 C   0  0  0  0  0  3  0  0  0  0  0  0
  -27.5590  -37.1820   24.8470 C   0  0  0  0  0  1  0  0  0  0  0  0
  -26.4300  -37.3810   23.9420 N   0  0  0  0  0  0  0  0  0  0  0  0
  -26.0220  -38.2920   24.1380 H   0  0  0  0  0  0  0  0  0  0  0  0
  1  3  1  0
  2  1  2  0
  2  4  1  0
  3  5  2  0
  4  6  2  0
  5 58  1  0
  6  5  1  0
  6 57  1  0
  7  4  1  0
  7  9  1  0
  8  7  2  0
  9 10  1  0
 10 11  1  0
 11 12  1  0
 13 12  1  0
 13 14  1  0
 14 15  1  0
 16 17  1  0
 16 15  1  0
 18 26  1  0
 19 24  1  0
 20 21  1  0
 20 19  1  0
 22 21  1  0
 22 31  1  0
 22 23  1  0
 24 18  1  0
 24 23  1  0
 25 18  2  0
 26 27  1  0
 26 17  1  0
 28 29  2  0
 29 48  1  0
 30 29  1  0
 30 33  1  0
 31 28  1  0
 31 32  1  0
 32 30  2  0
 33 34  1  0
 34 35  2  0
 36 39  1  0
 36 35  1  0
 37 36  2  0
 38 37  1  0
 38 33  2  0
 39 40  1  0
 40 41  1  0
 41 42  2  0
 43 42  1  0
 43 47  1  0
 44 43  2  0
 45 40  2  0
 45 44  1  0
 46 45  1  0
 48 49  1  0
 49 52  1  0
 49 51  1  0
 50 48  2  0
 53 54  1  0
 53 28  1  0
 55 53  1  0
 56 57  1  0
 58 59  1  0
 60 71  2  0
 61 59  1  0
 61 66  1  0
 62 70  1  0
 62 72  1  0
 63 69  1  0
 63 65  1  0
 64 70  1  0
 65 64  1  0
 66 65  2  0
 67 68  1  0
 67 61  2  0
 68 63  2  0
 69 62  1  0
 70 60  1  0
 72 74  2  0
 73 72  1  0
 75 73  1  0
 76 85  2  0
 76 81  1  0
 77 73  1  0
 77 81  1  0
 78 77  1  0
 79 80  1  0
 79 78  1  0
 80 76  1  0
 81 82  2  0
 82 83  1  0
 84 83  2  0
 85 84  1  0
 86 60  1  0
 86 91  1  0
 86 87  1  0
 87 90  1  1
 87 88  1  0
 89 87  1  0
 91 94  1  0
 92 96  1  0
 92 91  1  0
 93 92  2  0
 96 95  1  0
 98 96  1  0
 98 99  1  0
 98 97  1  0
M  ISO  4  18 100  26 100  58 101  59 101
M  END
>  <TORSDO>  (21) 
F 28

>  <SCORE>  (21) 
-9.597

>  <name>  (21) 
20

>  <ligand_id>  (21) 
20

>  <original_smiles>  (21) 
[H]c1c([H])c(C(=O)C([H])([H])C([H])([H])C([H])([H])C([H])([H])C([H])([H])C([H])([H])C([H])([H])C([H])([H])C([H])([H])N([H])C(=O)N2C([H])([H])C([H])([H])C([H])([H])C([H])(n3nc(-c4c([H])c([H])c(Oc5c([H])c([H])c(F)c([H])c5F)c([H])c4[H])c(C(=O)N([H])[H])c3N([H])[H])C2([H])[H])c(OC([H])([H])[H])c(C([H])([H])Oc2c([H])c([H])c3c(c2[H])C([H])([H])N(C(=O)C([H])(N([H])C(=O)C([H])(N([H])C([H])([H])[H])C([H])([H])[H])C(C([H])([H])[H])(C([H])([H])[H])C([H])([H])[H])C([H])(C(=O)N([H])C2([H])c4c([H])c([H])c([H])c([H])c4C([H])([H])C([H])([H])C2([H])[H])C3([H])[H])c1[H]

>  <smiles>  (21) 
[H]c1c([H])c(C(=O)C([H])([H])C([H])([H])C([H])([H])C([H])([H])C([H])([H])C([H])([H])C([H])([H])C([H])([H])C([H])([H])N([H])C(=O)N2C([H])([H])C([H])([H])C([H])([H])C([H])(n3nc(-c4c([H])c([H])c(Oc5c([H])c([H])c(F)c([H])c5F)c([H])c4[H])c(C(=O)N([H])[H])c3N([H])[H])C2([H])[H])c(OC([H])([H])[H])c(C([H])([H])Oc2c([H])c([H])c3c(c2[H])C([H])([H])N(C(=O)C([H])(N([H])C(=O)C([H])(N([H])C([H])([H])[H])C([H])([H])[H])C(C([H])([H])[H])(C([H])([H])[H])C([H])([H])[H])C([H])(C(=O)N([H])C2([H])c4c([H])c([H])c([H])c([H])c4C([H])([H])C([H])([H])C2([H])[H])C3([H])[H])c1[H]

$$$$
21:0:0
     RDKit          3D

 99107  0  0  1  0  0  0  0  0999 V2000
  -27.0040  -26.4570   24.4160 C   0  0  0  0  0  3  0  0  0  0  0  0
  -27.6340  -25.8880   25.5360 C   0  0  0  0  0  3  0  0  0  0  0  0
  -27.4120  -26.0850   23.1340 C   0  0  0  0  0  3  0  0  0  0  0  0
  -28.5720  -24.8350   25.4050 C   0  0  0  0  0  0  0  0  0  0  0  0
  -28.4480  -25.1480   22.9380 C   0  0  0  0  0  0  0  0  0  0  0  0
  -28.9160  -24.4260   24.0760 C   0  0  0  0  0  0  0  0  0  0  0  0
  -29.7320  -23.1810   23.8270 C   0  0  0  0  0  1  0  0  0  0  0  0
  -29.2140  -24.3510   26.6960 C   0  0  0  0  0  0  0  0  0  0  0  0
  -29.6480  -25.1500   27.5310 O   0  0  0  0  0  0  0  0  0  0  0  0
  -29.2210  -22.8550   27.0900 C   0  0  0  0  0  2  0  0  0  0  0  0
  -30.6110  -22.2180   27.4240 C   0  0  0  0  0  2  0  0  0  0  0  0
  -31.4840  -21.7990   26.2190 C   0  0  0  0  0  2  0  0  0  0  0  0
  -32.5560  -20.7500   26.5560 C   0  0  0  0  0  2  0  0  0  0  0  0
  -33.1280  -20.0050   25.3240 C   0  0  0  0  0  2  0  0  0  0  0  0
  -32.1570  -18.9200   24.8190 C   0  0  0  0  0  2  0  0  0  0  0  0
  -32.5470  -18.1300   23.5540 C   0  0  0  0  0  2  0  0  0  0  0  0
  -31.3770  -17.1870   23.2180 C   0  0  0  0  0  2  0  0  0  0  0  0
  -31.5490  -16.3790   21.9390 C   0  0  0  0  0  2  0  0  0  0  0  0
  -30.4420  -15.3130   21.7600 C   0  0  0  0  0  2  0  0  0  0  0  0
  -30.7940  -14.3240   20.6450 C   0  0  0  0  0  0  0  0  0  0  0  0
  -30.3920  -12.2410   19.4030 C   0  0  0  0  0  2  0  0  0  0  0  0
  -29.4740  -12.5000   18.1980 C   0  0  0  0  0  2  0  0  0  0  0  0
  -27.9990  -12.3660   18.6160 C   0  0  0  0  0  2  0  0  0  0  0  0
  -27.6620  -13.2020   19.8800 C   0  0  0  0  0  3  0  0  0  0  0  0
  -28.7020  -12.9740   21.0030 C   0  0  0  0  0  2  0  0  0  0  0  0
  -30.0460  -13.2110   20.4490 N   0  0  0  0  0  0  0  0  0  0  0  0
  -31.7890  -14.5700   19.9570 O   0  0  0  0  0  0  0  0  0  0  0  0
  -25.2580  -13.8150   20.5690 C   0  0  0  0  0  0  0  0  0  0  0  0
  -24.1860  -13.0490   20.9170 C   0  0  0  0  0  0  0  0  0  0  0  0
  -24.6370  -11.6910   20.8750 C   0  0  0  0  0  0  0  0  0  0  0  0
  -26.3030  -12.9330   20.3400 N   0  0  0  0  0  0  0  0  0  0  0  0
  -25.9300  -11.6500   20.5800 N   0  0  0  0  0  0  0  0  0  0  0  0
  -23.9080  -10.4310   21.0440 C   0  0  0  0  0  0  0  0  0  0  0  0
  -24.3620   -9.4210   21.9210 C   0  0  0  0  0  3  0  0  0  0  0  0
  -23.6310   -8.2250   22.0760 C   0  0  0  0  0  3  0  0  0  0  0  0
  -22.4290   -8.0290   21.3540 C   0  0  0  0  0  0  0  0  0  0  0  0
  -21.9930   -9.0270   20.4650 C   0  0  0  0  0  3  0  0  0  0  0  0
  -22.7260  -10.2150   20.3070 C   0  0  0  0  0  3  0  0  0  0  0  0
  -21.6640   -6.8890   21.4250 O   0  0  0  0  0  0  0  0  0  0  0  0
  -21.6870   -6.0760   22.5280 C   0  0  0  0  0  0  0  0  0  0  0  0
  -21.4010   -6.5660   23.8220 C   0  0  0  0  0  3  0  0  0  0  0  0
  -21.3660   -5.6800   24.9180 C   0  0  0  0  0  3  0  0  0  0  0  0
  -21.6040   -4.3070   24.7210 C   0  0  0  0  0  0  0  0  0  0  0  0
  -21.8820   -3.8170   23.4330 C   0  0  0  0  0  3  0  0  0  0  0  0
  -21.9190   -4.6990   22.3400 C   0  0  0  0  0  0  0  0  0  0  0  0
  -22.1660   -4.2180   21.0980 F   0  0  0  0  0  0  0  0  0  0  0  0
  -21.5620   -3.4540   25.7730 F   0  0  0  0  0  0  0  0  0  0  0  0
  -22.7860  -13.5250   21.1880 C   0  0  0  0  0  0  0  0  0  0  0  0
  -22.0500  -12.8230   22.0400 N   0  0  0  0  0  0  0  0  0  0  0  0
  -22.3540  -14.5570   20.6750 O   0  0  0  0  0  0  0  0  0  0  0  0
  -22.4120  -11.9860   22.4740 H   0  0  0  0  0  0  0  0  0  0  0  0
  -21.1120  -13.1240   22.2660 H   0  0  0  0  0  0  0  0  0  0  0  0
  -25.4360  -15.1890   20.4100 N   0  0  0  0  0  0  0  0  0  0  0  0
  -24.6790  -15.8530   20.5320 H   0  0  0  0  0  0  0  0  0  0  0  0
  -26.3040  -15.6230   20.1260 H   0  0  0  0  0  0  0  0  0  0  0  0
  -29.0660  -25.0180   21.5620 C   0  0  0  0  0  0  0  0  0  0  0  0
  -30.2530  -24.7380   21.3640 O   0  0  0  0  0  0  0  0  0  0  0  0
  -28.1790  -25.3360   20.3600 C   0  0  0  0  0  2  0  0  0  0  0  0
  -28.3710  -26.7140   20.0370 O   0  0  0  0  0  0  0  0  0  0  0  0
  -24.6050  -31.8590   23.2080 C   0  0  0  0  0  0  0  0  0  0  0  0
  -27.2230  -27.4570   20.0270 C   0  0  0  0  0  0  0  0  0  0  0  0
  -23.3980  -30.4730   21.5470 C   0  0  0  0  0  3  0  0  0  0  0  0
  -24.8440  -28.9530   20.1100 C   0  0  0  0  0  0  0  0  0  0  0  0
  -25.9300  -30.8230   21.3660 C   0  0  0  0  0  2  0  0  0  0  0  0
  -26.0060  -29.4590   20.7060 C   0  0  0  0  0  0  0  0  0  0  0  0
  -27.2070  -28.7180   20.6550 C   0  0  0  0  0  3  0  0  0  0  0  0
  -26.0430  -26.9580   19.4270 C   0  0  0  0  0  3  0  0  0  0  0  0
  -24.8550  -27.7050   19.4650 C   0  0  0  0  0  3  0  0  0  0  0  0
  -23.6110  -29.8200   20.1570 C   0  0  0  0  0  2  0  0  0  0  0  0
  -24.6630  -31.0650   22.1000 N   0  0  0  0  0  0  0  0  0  0  0  0
  -23.5210  -32.1330   23.7400 O   0  0  0  0  0  0  0  0  0  0  0  0
  -22.7420  -29.4450   22.4990 C   0  0  0  0  0  0  0  0  0  0  0  0
  -21.4110  -29.3050   22.3960 N   0  0  0  0  0  0  0  0  0  0  0  0
  -23.4220  -28.7920   23.2930 O   0  0  0  0  0  0  0  0  0  0  0  0
  -20.9270  -29.9210   21.7600 H   0  0  0  0  0  0  0  0  0  0  0  0
  -18.0220  -28.1410   22.8480 C   0  0  0  0  0  0  0  0  0  0  0  0
  -20.5810  -28.3630   23.1460 C   0  0  0  0  0  3  0  0  0  0  0  0
  -20.6730  -26.9390   22.5480 C   0  0  0  0  0  2  0  0  0  0  0  0
  -19.5750  -26.6400   21.5230 C   0  0  0  0  0  2  0  0  0  0  0  0
  -18.1880  -26.7950   22.1550 C   0  0  0  0  0  2  0  0  0  0  0  0
  -19.1470  -28.8810   23.2950 C   0  0  0  0  0  0  0  0  0  0  0  0
  -18.9420  -30.1420   23.8980 C   0  0  0  0  0  3  0  0  0  0  0  0
  -17.6450  -30.6620   24.0610 C   0  0  0  0  0  3  0  0  0  0  0  0
  -16.5330  -29.9170   23.6320 C   0  0  0  0  0  3  0  0  0  0  0  0
  -16.7220  -28.6570   23.0360 C   0  0  0  0  0  3  0  0  0  0  0  0
  -25.8910  -32.4810   23.8450 C   0  0  0  0  0  3  0  0  0  0  0  0
  -25.5690  -33.8620   24.2350 N   0  0  0  0  0  0  0  0  0  0  0  0
  -25.8940  -34.9500   23.5220 C   0  0  0  0  0  0  0  0  0  0  0  0
  -26.5600  -34.8930   22.4820 O   0  0  0  0  0  0  0  0  0  0  0  0
  -24.9590  -33.9730   25.0300 H   0  0  0  0  0  0  0  0  0  0  0  0
  -24.1390  -36.7510   23.2700 C   0  0  0  0  0  1  0  0  0  0  0  0
  -25.3980  -36.3190   24.0370 C   0  0  0  0  0  3  0  0  0  0  0  0
  -27.5530  -37.1880   24.8420 C   0  0  0  0  0  1  0  0  0  0  0  0
  -26.4200  -37.3860   23.9430 N   0  0  0  0  0  0  0  0  0  0  0  0
  -26.0110  -38.2960   24.1460 H   0  0  0  0  0  0  0  0  0  0  0  0
  -26.4240  -31.6630   25.0870 C   0  0  1  0  0  0  0  0  0  0  0  0
  -25.3450  -31.3740   26.1590 C   0  0  0  0  0  1  0  0  0  0  0  0
  -27.0210  -30.3090   24.6360 C   0  0  0  0  0  1  0  0  0  0  0  0
  -27.5730  -32.4350   25.7710 C   0  0  0  0  0  1  0  0  0  0  0  0
  1  2  1  0
  3  1  2  0
  4  2  2  0
  4  8  1  0
  5  3  1  0
  5  6  2  0
  6  4  1  0
  7  6  1  0
  8 10  1  0
  8  9  2  0
 10 11  1  0
 12 13  1  0
 12 11  1  0
 14 13  1  0
 15 14  1  0
 16 15  1  0
 17 16  1  0
 18 17  1  0
 19 18  1  0
 20 19  1  0
 21 26  1  0
 22 23  1  0
 22 21  1  0
 24 23  1  0
 24 31  1  0
 24 25  1  0
 26 20  1  0
 26 25  1  0
 27 20  2  0
 28 29  2  0
 29 48  1  0
 30 29  1  0
 30 33  1  0
 31 28  1  0
 31 32  1  0
 32 30  2  0
 33 34  1  0
 34 35  2  0
 36 39  1  0
 36 35  1  0
 37 36  2  0
 38 37  1  0
 38 33  2  0
 39 40  1  0
 40 41  1  0
 41 42  2  0
 43 42  1  0
 43 47  1  0
 44 43  2  0
 45 40  2  0
 45 44  1  0
 46 45  1  0
 48 49  1  0
 49 52  1  0
 49 51  1  0
 50 48  2  0
 53 54  1  0
 53 28  1  0
 55 53  1  0
 56  5  1  0
 57 56  2  0
 58 56  1  0
 59 58  1  0
 60 71  2  0
 61 59  1  0
 61 66  1  0
 62 70  1  0
 62 72  1  0
 63 69  1  0
 63 65  1  0
 64 70  1  0
 65 64  1  0
 66 65  2  0
 67 68  1  0
 67 61  2  0
 68 63  2  0
 69 62  1  0
 70 60  1  0
 72 74  2  0
 73 72  1  0
 75 73  1  0
 76 85  2  0
 76 81  1  0
 77 73  1  0
 77 81  1  0
 78 77  1  0
 79 80  1  0
 79 78  1  0
 80 76  1  0
 81 82  2  0
 82 83  1  0
 84 83  2  0
 85 84  1  0
 86 60  1  0
 86 87  1  0
 86 96  1  0
 87 90  1  0
 88 92  1  0
 88 87  1  0
 89 88  2  0
 92 91  1  0
 94 92  1  0
 94 95  1  0
 94 93  1  0
 96 99  1  1
 96 97  1  0
 98 96  1  0
M  ISO  4  19 100  20 100  58 101  59 101
M  END
>  <TORSDO>  (22) 
F 29

>  <SCORE>  (22) 
27.254

>  <name>  (22) 
21

>  <ligand_id>  (22) 
21

>  <original_smiles>  (22) 
[H]c1c([H])c(C(=O)C([H])([H])Oc2c([H])c([H])c3c(c2[H])C([H])([H])N(C(=O)C([H])(N([H])C(=O)C([H])(N([H])C([H])([H])[H])C([H])([H])[H])C(C([H])([H])[H])(C([H])([H])[H])C([H])([H])[H])C([H])(C(=O)N([H])C2([H])c4c([H])c([H])c([H])c([H])c4C([H])([H])C([H])([H])C2([H])[H])C3([H])[H])c(C([H])([H])[H])c(C(=O)C([H])([H])C([H])([H])C([H])([H])C([H])([H])C([H])([H])C([H])([H])C([H])([H])C([H])([H])C([H])([H])C([H])([H])C(=O)N2C([H])([H])C([H])([H])C([H])([H])C([H])(n3nc(-c4c([H])c([H])c(Oc5c([H])c([H])c(F)c([H])c5F)c([H])c4[H])c(C(=O)N([H])[H])c3N([H])[H])C2([H])[H])c1[H]

>  <smiles>  (22) 
[H]c1c([H])c(C(=O)C([H])([H])Oc2c([H])c([H])c3c(c2[H])C([H])([H])N(C(=O)C([H])(N([H])C(=O)C([H])(N([H])C([H])([H])[H])C([H])([H])[H])C(C([H])([H])[H])(C([H])([H])[H])C([H])([H])[H])C([H])(C(=O)N([H])C2([H])c4c([H])c([H])c([H])c([H])c4C([H])([H])C([H])([H])C2([H])[H])C3([H])[H])c(C([H])([H])[H])c(C(=O)C([H])([H])C([H])([H])C([H])([H])C([H])([H])C([H])([H])C([H])([H])C([H])([H])C([H])([H])C([H])([H])C([H])([H])C(=O)N2C([H])([H])C([H])([H])C([H])([H])C([H])(n3nc(-c4c([H])c([H])c(Oc5c([H])c([H])c(F)c([H])c5F)c([H])c4[H])c(C(=O)N([H])[H])c3N([H])[H])C2([H])[H])c1[H]

$$$$
22:0:0
     RDKit          3D

 92 99  0  0  1  0  0  0  0  0999 V2000
  -31.0740  -25.9190   21.3360 C   0  0  0  0  0  0  0  0  0  0  0  0
  -31.9650  -25.4850   20.5470 N   0  0  0  0  0  0  0  0  0  0  0  0
  -32.2850  -24.5620   20.8200 H   0  0  0  0  0  0  0  0  0  0  0  0
  -30.4430  -27.2940   21.1490 C   0  0  0  0  0  2  0  0  0  0  0  0
  -29.6280  -27.4190   19.8500 C   0  0  0  0  0  2  0  0  0  0  0  0
  -28.3770  -26.7380   19.9510 O   0  0  0  0  0  0  0  0  0  0  0  0
  -24.5700  -31.8750   23.1800 C   0  0  0  0  0  0  0  0  0  0  0  0
  -27.2310  -27.4950   20.0510 C   0  0  0  0  0  0  0  0  0  0  0  0
  -23.3580  -30.4800   21.5320 C   0  0  0  0  0  3  0  0  0  0  0  0
  -24.8130  -28.9540   20.1000 C   0  0  0  0  0  0  0  0  0  0  0  0
  -25.8770  -30.8560   21.3250 C   0  0  0  0  0  2  0  0  0  0  0  0
  -25.9670  -29.4890   20.6840 C   0  0  0  0  0  0  0  0  0  0  0  0
  -27.1770  -28.7660   20.6690 C   0  0  0  0  0  3  0  0  0  0  0  0
  -26.0560  -26.9550   19.4920 C   0  0  0  0  0  3  0  0  0  0  0  0
  -24.8480  -27.6790   19.5060 C   0  0  0  0  0  3  0  0  0  0  0  0
  -23.5650  -29.8050   20.1490 C   0  0  0  0  0  2  0  0  0  0  0  0
  -24.6200  -31.0840   22.0720 N   0  0  0  0  0  0  0  0  0  0  0  0
  -23.4920  -32.1430   23.7270 O   0  0  0  0  0  0  0  0  0  0  0  0
  -22.7130  -29.4530   22.4890 C   0  0  0  0  0  0  0  0  0  0  0  0
  -21.3880  -29.2760   22.3710 N   0  0  0  0  0  0  0  0  0  0  0  0
  -23.4010  -28.8170   23.2920 O   0  0  0  0  0  0  0  0  0  0  0  0
  -20.8950  -29.8410   21.6920 H   0  0  0  0  0  0  0  0  0  0  0  0
  -18.0120  -28.0910   22.8730 C   0  0  0  0  0  0  0  0  0  0  0  0
  -20.5720  -28.3360   23.1370 C   0  0  0  0  0  3  0  0  0  0  0  0
  -20.6660  -26.9090   22.5500 C   0  0  0  0  0  2  0  0  0  0  0  0
  -19.5590  -26.5980   21.5380 C   0  0  0  0  0  2  0  0  0  0  0  0
  -18.1810  -26.7450   22.1880 C   0  0  0  0  0  2  0  0  0  0  0  0
  -19.1360  -28.8450   23.3050 C   0  0  0  0  0  0  0  0  0  0  0  0
  -18.9250  -30.1060   23.9040 C   0  0  0  0  0  3  0  0  0  0  0  0
  -17.6230  -30.6130   24.0770 C   0  0  0  0  0  3  0  0  0  0  0  0
  -16.5140  -29.8550   23.6630 C   0  0  0  0  0  3  0  0  0  0  0  0
  -16.7090  -28.5970   23.0670 C   0  0  0  0  0  3  0  0  0  0  0  0
  -25.8600  -32.5010   23.7990 C   0  0  0  0  0  3  0  0  0  0  0  0
  -26.3970  -31.7070   25.0530 C   0  0  1  0  0  0  0  0  0  0  0  0
  -25.3170  -31.4460   26.1290 C   0  0  0  0  0  1  0  0  0  0  0  0
  -26.9780  -30.3390   24.6250 C   0  0  0  0  0  1  0  0  0  0  0  0
  -27.5520  -32.4920   25.7170 C   0  0  0  0  0  1  0  0  0  0  0  0
  -25.5500  -33.8910   24.1530 N   0  0  0  0  0  0  0  0  0  0  0  0
  -25.8760  -34.9560   23.4080 C   0  0  0  0  0  0  0  0  0  0  0  0
  -26.5420  -34.8700   22.3730 O   0  0  0  0  0  0  0  0  0  0  0  0
  -24.9610  -34.0320   24.9610 H   0  0  0  0  0  0  0  0  0  0  0  0
  -24.1390  -36.7450   23.0870 C   0  0  0  0  0  1  0  0  0  0  0  0
  -25.3850  -36.3350   23.8880 C   0  0  0  0  0  3  0  0  0  0  0  0
  -27.5220  -37.2120   24.7210 C   0  0  0  0  0  1  0  0  0  0  0  0
  -26.4130  -37.3930   23.7870 N   0  0  0  0  0  0  0  0  0  0  0  0
  -26.0050  -38.3090   23.9560 H   0  0  0  0  0  0  0  0  0  0  0  0
  -30.6250  -25.1110   22.5460 C   0  0  0  0  0  2  0  0  0  0  0  0
  -29.7360  -23.8950   22.2110 C   0  0  0  0  0  2  0  0  0  0  0  0
  -30.4550  -22.7460   21.4700 C   0  0  0  0  0  2  0  0  0  0  0  0
  -29.9560  -21.3610   21.9100 C   0  0  0  0  0  2  0  0  0  0  0  0
  -30.5360  -20.2020   21.0790 C   0  0  0  0  0  2  0  0  0  0  0  0
  -30.5060  -18.8800   21.8620 C   0  0  0  0  0  2  0  0  0  0  0  0
  -30.6900  -17.6210   21.0010 C   0  0  0  0  0  2  0  0  0  0  0  0
  -30.9850  -16.3870   21.8760 C   0  0  0  0  0  2  0  0  0  0  0  0
  -30.9030  -14.3680   20.3830 C   0  0  0  0  0  0  0  0  0  0  0  0
  -30.5000  -12.3040   19.0900 C   0  0  0  0  0  2  0  0  0  0  0  0
  -29.5450  -12.5660   17.9110 C   0  0  0  0  0  2  0  0  0  0  0  0
  -28.0730  -12.4610   18.3580 C   0  0  0  0  0  2  0  0  0  0  0  0
  -27.7790  -13.2790   19.6420 C   0  0  0  0  0  3  0  0  0  0  0  0
  -28.8310  -12.9700   20.7260 C   0  0  0  0  0  2  0  0  0  0  0  0
  -30.1690  -13.2460   20.1650 N   0  0  0  0  0  0  0  0  0  0  0  0
  -31.9390  -14.6440   19.7720 O   0  0  0  0  0  0  0  0  0  0  0  0
  -30.4100  -15.1590   21.3410 N   0  0  0  0  0  0  0  0  0  0  0  0
  -29.5550  -14.8380   21.7700 H   0  0  0  0  0  0  0  0  0  0  0  0
  -25.3960  -13.9530   20.3510 C   0  0  0  0  0  0  0  0  0  0  0  0
  -24.3120  -13.2080   20.7360 C   0  0  0  0  0  0  0  0  0  0  0  0
  -24.7430  -11.8460   20.7190 C   0  0  0  0  0  0  0  0  0  0  0  0
  -26.4200  -13.0450   20.1270 N   0  0  0  0  0  0  0  0  0  0  0  0
  -26.0300  -11.7740   20.4020 N   0  0  0  0  0  0  0  0  0  0  0  0
  -23.9930  -10.6010   20.9290 C   0  0  0  0  0  0  0  0  0  0  0  0
  -24.4150   -9.6360   21.8680 C   0  0  0  0  0  3  0  0  0  0  0  0
  -23.6690   -8.4530   22.0640 C   0  0  0  0  0  3  0  0  0  0  0  0
  -22.4840   -8.2320   21.3200 C   0  0  0  0  0  0  0  0  0  0  0  0
  -22.0820   -9.1860   20.3700 C   0  0  0  0  0  3  0  0  0  0  0  0
  -22.8290  -10.3590   20.1720 C   0  0  0  0  0  3  0  0  0  0  0  0
  -21.7090   -7.1030   21.4250 O   0  0  0  0  0  0  0  0  0  0  0  0
  -21.6520   -6.3730   22.5850 C   0  0  0  0  0  0  0  0  0  0  0  0
  -21.2700   -6.9560   23.8150 C   0  0  0  0  0  3  0  0  0  0  0  0
  -21.1590   -6.1540   24.9680 C   0  0  0  0  0  3  0  0  0  0  0  0
  -21.4180   -4.7720   24.8940 C   0  0  0  0  0  0  0  0  0  0  0  0
  -21.7940   -4.1910   23.6710 C   0  0  0  0  0  3  0  0  0  0  0  0
  -21.9070   -4.9890   22.5190 C   0  0  0  0  0  0  0  0  0  0  0  0
  -22.2480   -4.4200   21.3380 F   0  0  0  0  0  0  0  0  0  0  0  0
  -21.3050   -4.0000   26.0000 F   0  0  0  0  0  0  0  0  0  0  0  0
  -22.9270  -13.7180   21.0140 C   0  0  0  0  0  0  0  0  0  0  0  0
  -22.1930  -13.0470   21.8960 N   0  0  0  0  0  0  0  0  0  0  0  0
  -22.5040  -14.7440   20.4850 O   0  0  0  0  0  0  0  0  0  0  0  0
  -22.5500  -12.2200   22.3500 H   0  0  0  0  0  0  0  0  0  0  0  0
  -21.2620  -13.3690   22.1230 H   0  0  0  0  0  0  0  0  0  0  0  0
  -25.5880  -15.3160   20.1580 N   0  0  0  0  0  0  0  0  0  0  0  0
  -24.8410  -15.9940   20.2630 H   0  0  0  0  0  0  0  0  0  0  0  0
  -26.4570  -15.7310   19.8400 H   0  0  0  0  0  0  0  0  0  0  0  0
  1 47  1  0
  2  3  1  0
  2  1  2  0
  4  1  1  0
  5  6  1  0
  5  4  1  0
  6  8  1  0
  7 18  2  0
  8 13  1  0
  9 17  1  0
  9 19  1  0
 10 16  1  0
 10 12  1  0
 11 17  1  0
 12 11  1  0
 13 12  2  0
 14 15  1  0
 14  8  2  0
 15 10  2  0
 16  9  1  0
 17  7  1  0
 19 21  2  0
 20 19  1  0
 22 20  1  0
 23 32  2  0
 23 28  1  0
 24 20  1  0
 24 28  1  0
 25 24  1  0
 26 27  1  0
 26 25  1  0
 27 23  1  0
 28 29  2  0
 29 30  1  0
 31 30  2  0
 32 31  1  0
 33  7  1  0
 33 38  1  0
 33 34  1  0
 34 37  1  1
 34 35  1  0
 36 34  1  0
 38 41  1  0
 39 43  1  0
 39 38  1  0
 40 39  2  0
 43 42  1  0
 45 43  1  0
 45 46  1  0
 45 44  1  0
 48 47  1  0
 49 50  1  0
 49 48  1  0
 51 52  1  0
 51 50  1  0
 53 52  1  0
 53 54  1  0
 55 63  1  0
 56 61  1  0
 57 58  1  0
 57 56  1  0
 59 58  1  0
 59 68  1  0
 59 60  1  0
 61 55  1  0
 61 60  1  0
 62 55  2  0
 63 64  1  0
 63 54  1  0
 65 66  2  0
 66 85  1  0
 67 66  1  0
 67 70  1  0
 68 65  1  0
 68 69  1  0
 69 67  2  0
 70 71  1  0
 71 72  2  0
 73 76  1  0
 73 72  1  0
 74 73  2  0
 75 74  1  0
 75 70  2  0
 76 77  1  0
 77 78  1  0
 78 79  2  0
 80 79  1  0
 80 84  1  0
 81 80  2  0
 82 77  2  0
 82 81  1  0
 83 82  1  0
 85 86  1  0
 86 89  1  0
 86 88  1  0
 87 85  2  0
 90 91  1  0
 90 65  1  0
 92 90  1  0
M  ISO  4   5 101   6 101  55 100  63 100
M  END
>  <TORSDO>  (23) 
F 26

>  <SCORE>  (23) 
-11.521

>  <name>  (23) 
22

>  <ligand_id>  (23) 
22

>  <original_smiles>  (23) 
[H]N=C(C([H])([H])C([H])([H])Oc1c([H])c([H])c2c(c1[H])C([H])([H])N(C(=O)C([H])(N([H])C(=O)C([H])(N([H])C([H])([H])[H])C([H])([H])[H])C(C([H])([H])[H])(C([H])([H])[H])C([H])([H])[H])C([H])(C(=O)N([H])C1([H])c3c([H])c([H])c([H])c([H])c3C([H])([H])C([H])([H])C1([H])[H])C2([H])[H])C([H])([H])C([H])([H])C([H])([H])C([H])([H])C([H])([H])C([H])([H])C([H])([H])C([H])([H])N([H])C(=O)N1C([H])([H])C([H])([H])C([H])([H])C([H])(n2nc(-c3c([H])c([H])c(Oc4c([H])c([H])c(F)c([H])c4F)c([H])c3[H])c(C(=O)N([H])[H])c2N([H])[H])C1([H])[H]

>  <smiles>  (23) 
[H]N=C(C([H])([H])C([H])([H])Oc1c([H])c([H])c2c(c1[H])C([H])([H])N(C(=O)C([H])(N([H])C(=O)C([H])(N([H])C([H])([H])[H])C([H])([H])[H])C(C([H])([H])[H])(C([H])([H])[H])C([H])([H])[H])C([H])(C(=O)N([H])C1([H])c3c([H])c([H])c([H])c([H])c3C([H])([H])C([H])([H])C1([H])[H])C2([H])[H])C([H])([H])C([H])([H])C([H])([H])C([H])([H])C([H])([H])C([H])([H])C([H])([H])C([H])([H])N([H])C(=O)N1C([H])([H])C([H])([H])C([H])([H])C([H])(n2nc(-c3c([H])c([H])c(Oc4c([H])c([H])c(F)c([H])c4F)c([H])c3[H])c(C(=O)N([H])[H])c2N([H])[H])C1([H])[H]

$$$$
23:0:0
     RDKit          3D

100109  0  0  1  0  0  0  0  0999 V2000
  -26.8200  -22.3640   24.7880 C   0  0  0  0  0  3  0  0  0  0  0  0
  -25.6390  -22.7170   24.1200 C   0  0  0  0  0  3  0  0  0  0  0  0
  -28.0190  -24.0420   23.5000 C   0  0  0  0  0  3  0  0  0  0  0  0
  -26.8400  -24.4180   22.8050 C   0  0  0  0  0  0  0  0  0  0  0  0
  -28.0190  -23.0220   24.4700 C   0  0  0  0  0  0  0  0  0  0  0  0
  -25.6290  -23.7230   23.1290 C   0  0  0  0  0  0  0  0  0  0  0  0
  -24.2750  -24.0090   22.4880 C   0  0  0  0  0  1  0  0  0  0  0  0
  -27.1000  -25.4510   19.2690 C   0  0  0  0  0  2  0  0  0  0  0  0
  -26.1610  -25.1690   20.4490 C   0  0  0  0  0  2  0  0  0  0  0  0
  -28.3230  -25.9090   21.2120 C   0  0  0  0  0  2  0  0  0  0  0  0
  -28.0530  -26.5030   19.8280 C   0  0  0  0  0  3  0  0  0  0  0  0
  -26.8940  -25.5730   21.7650 C   0  0  2  0  0  0  0  0  0  0  0  0
  -26.8790  -27.3090   23.7400 C   0  0  0  0  0  1  0  0  0  0  0  0
  -26.2870  -26.8830   22.3840 C   0  0  0  0  0  2  0  0  0  0  0  0
  -29.2310  -26.9230   18.9050 C   0  0  0  0  0  2  0  0  0  0  0  0
  -29.0550  -28.2190   18.2830 O   0  0  0  0  0  0  0  0  0  0  0  0
  -24.6300  -31.5180   22.7680 C   0  0  0  0  0  0  0  0  0  0  0  0
  -27.8110  -28.7770   18.4760 C   0  0  0  0  0  0  0  0  0  0  0  0
  -23.5860  -30.4070   20.8230 C   0  0  0  0  0  3  0  0  0  0  0  0
  -25.1870  -29.6860   18.9730 C   0  0  0  0  0  0  0  0  0  0  0  0
  -25.9730  -31.3260   20.6840 C   0  0  0  0  0  2  0  0  0  0  0  0
  -26.2670  -30.2430   19.6710 C   0  0  0  0  0  0  0  0  0  0  0  0
  -27.5850  -29.7850   19.4360 C   0  0  0  0  0  3  0  0  0  0  0  0
  -26.7210  -28.2930   17.7230 C   0  0  0  0  0  3  0  0  0  0  0  0
  -25.4070  -28.7060   17.9940 C   0  0  0  0  0  3  0  0  0  0  0  0
  -23.8060  -30.2030   19.3010 C   0  0  0  0  0  2  0  0  0  0  0  0
  -24.7490  -31.0850   21.4830 N   0  0  0  0  0  0  0  0  0  0  0  0
  -23.5660  -31.3970   23.3890 O   0  0  0  0  0  0  0  0  0  0  0  0
  -23.2320  -29.0440   21.4600 C   0  0  0  0  0  0  0  0  0  0  0  0
  -21.9570  -28.6370   21.3260 N   0  0  0  0  0  0  0  0  0  0  0  0
  -24.0910  -28.3720   22.0330 O   0  0  0  0  0  0  0  0  0  0  0  0
  -21.3120  -29.2540   20.8540 H   0  0  0  0  0  0  0  0  0  0  0  0
  -18.8790  -26.8150   21.8440 C   0  0  0  0  0  0  0  0  0  0  0  0
  -21.4030  -27.3760   21.8160 C   0  0  0  0  0  3  0  0  0  0  0  0
  -21.5360  -26.2570   20.7550 C   0  0  0  0  0  2  0  0  0  0  0  0
  -20.2960  -26.1270   19.8640 C   0  0  0  0  0  2  0  0  0  0  0  0
  -19.0600  -25.8170   20.7130 C   0  0  0  0  0  2  0  0  0  0  0  0
  -19.9770  -27.5590   22.3520 C   0  0  0  0  0  0  0  0  0  0  0  0
  -19.7490  -28.5020   23.3770 C   0  0  0  0  0  3  0  0  0  0  0  0
  -18.4570  -28.7020   23.8970 C   0  0  0  0  0  3  0  0  0  0  0  0
  -17.3770  -27.9490   23.4040 C   0  0  0  0  0  3  0  0  0  0  0  0
  -17.5890  -27.0070   22.3820 C   0  0  0  0  0  3  0  0  0  0  0  0
  -25.8180  -32.2070   23.5110 C   0  0  0  0  0  3  0  0  0  0  0  0
  -26.2560  -31.4470   24.8220 C   0  0  1  0  0  0  0  0  0  0  0  0
  -25.0700  -31.0270   25.7200 C   0  0  0  0  0  1  0  0  0  0  0  0
  -27.0570  -30.1710   24.4730 C   0  0  0  0  0  1  0  0  0  0  0  0
  -27.1970  -32.3480   25.6570 C   0  0  0  0  0  1  0  0  0  0  0  0
  -25.4060  -33.5830   23.8160 N   0  0  0  0  0  0  0  0  0  0  0  0
  -25.6830  -34.6470   23.0500 C   0  0  0  0  0  0  0  0  0  0  0  0
  -26.3820  -34.5780   22.0340 O   0  0  0  0  0  0  0  0  0  0  0  0
  -24.7830  -33.7050   24.6010 H   0  0  0  0  0  0  0  0  0  0  0  0
  -23.8440  -36.3110   22.6340 C   0  0  0  0  0  1  0  0  0  0  0  0
  -25.0910  -36.0030   23.4790 C   0  0  0  0  0  3  0  0  0  0  0  0
  -27.1470  -37.0360   24.3360 C   0  0  0  0  0  1  0  0  0  0  0  0
  -26.0500  -37.1250   23.3760 N   0  0  0  0  0  0  0  0  0  0  0  0
  -25.5780  -38.0150   23.5100 H   0  0  0  0  0  0  0  0  0  0  0  0
  -29.3130  -22.6230   25.1600 C   0  0  0  0  0  2  0  0  0  0  0  0
  -30.4330  -22.2680   24.1660 C   0  0  0  0  0  2  0  0  0  0  0  0
  -31.3590  -23.4580   23.8450 C   0  0  0  0  0  2  0  0  0  0  0  0
  -32.1550  -23.2980   22.5430 C   0  0  0  0  0  2  0  0  0  0  0  0
  -31.3690  -22.5790   21.4400 C   0  0  0  0  0  2  0  0  0  0  0  0
  -32.0950  -22.6250   20.0880 C   0  0  0  0  0  2  0  0  0  0  0  0
  -32.3500  -21.0870   18.1570 C   0  0  0  0  0  0  0  0  0  0  0  0
  -32.2670  -19.4300   16.3340 C   0  0  0  0  0  2  0  0  0  0  0  0
  -30.9830  -19.5990   15.5020 C   0  0  0  0  0  2  0  0  0  0  0  0
  -29.7950  -18.8490   16.1380 C   0  0  0  0  0  2  0  0  0  0  0  0
  -29.6500  -19.1260   17.6580 C   0  0  0  0  0  3  0  0  0  0  0  0
  -31.0130  -18.9600   18.3630 C   0  0  0  0  0  2  0  0  0  0  0  0
  -31.9820  -19.8610   17.7070 N   0  0  0  0  0  0  0  0  0  0  0  0
  -33.0120  -21.8950   17.4960 O   0  0  0  0  0  0  0  0  0  0  0  0
  -31.9320  -21.3590   19.3940 N   0  0  0  0  0  0  0  0  0  0  0  0
  -31.4260  -20.6260   19.8680 H   0  0  0  0  0  0  0  0  0  0  0  0
  -27.3690  -18.6210   18.7470 C   0  0  0  0  0  0  0  0  0  0  0  0
  -26.7870  -17.4460   19.1450 C   0  0  0  0  0  0  0  0  0  0  0  0
  -27.7380  -16.4190   18.8590 C   0  0  0  0  0  0  0  0  0  0  0  0
  -28.6220  -18.2780   18.2610 N   0  0  0  0  0  0  0  0  0  0  0  0
  -28.8550  -16.9460   18.3780 N   0  0  0  0  0  0  0  0  0  0  0  0
  -27.6280  -14.9580   18.9660 C   0  0  0  0  0  0  0  0  0  0  0  0
  -28.3930  -14.2280   19.9030 C   0  0  0  0  0  3  0  0  0  0  0  0
  -28.2590  -12.8260   19.9990 C   0  0  0  0  0  3  0  0  0  0  0  0
  -27.3520  -12.1410   19.1570 C   0  0  0  0  0  0  0  0  0  0  0  0
  -26.6080  -12.8700   18.2110 C   0  0  0  0  0  3  0  0  0  0  0  0
  -26.7460  -14.2650   18.1120 C   0  0  0  0  0  3  0  0  0  0  0  0
  -27.1730  -10.7790   19.1620 O   0  0  0  0  0  0  0  0  0  0  0  0
  -26.9520  -10.0870   20.3240 C   0  0  0  0  0  0  0  0  0  0  0  0
  -25.8690  -10.3900   21.1810 C   0  0  0  0  0  3  0  0  0  0  0  0
  -25.6400   -9.6080   22.3300 C   0  0  0  0  0  3  0  0  0  0  0  0
  -26.4830   -8.5180   22.6200 C   0  0  0  0  0  0  0  0  0  0  0  0
  -27.5560   -8.2100   21.7660 C   0  0  0  0  0  3  0  0  0  0  0  0
  -27.7880   -8.9900   20.6210 C   0  0  0  0  0  0  0  0  0  0  0  0
  -28.8120   -8.6770   19.7910 F   0  0  0  0  0  0  0  0  0  0  0  0
  -26.2580   -7.7610   23.7200 F   0  0  0  0  0  0  0  0  0  0  0  0
  -25.3900  -17.2710   19.6690 C   0  0  0  0  0  0  0  0  0  0  0  0
  -25.1880  -16.3110   20.5650 N   0  0  0  0  0  0  0  0  0  0  0  0
  -24.4750  -18.0170   19.3200 O   0  0  0  0  0  0  0  0  0  0  0  0
  -25.9420  -15.7130   20.8720 H   0  0  0  0  0  0  0  0  0  0  0  0
  -24.2660  -16.1700   20.9510 H   0  0  0  0  0  0  0  0  0  0  0  0
  -26.9340  -19.9420   18.7450 N   0  0  0  0  0  0  0  0  0  0  0  0
  -26.0050  -20.2080   19.0540 H   0  0  0  0  0  0  0  0  0  0  0  0
  -27.4760  -20.7230   18.3950 H   0  0  0  0  0  0  0  0  0  0  0  0
  2  1  2  0
  3  5  2  0
  4  6  2  0
  4  3  1  0
  5  1  1  0
  5 57  1  0
  6  2  1  0
  7  6  1  0
  8 11  1  0
  8  9  1  0
  9 12  1  0
 10 12  1  0
 11 15  1  0
 11 10  1  0
 12 14  1  1
 12  4  1  0
 14 13  1  0
 16 18  1  0
 16 15  1  0
 17 28  2  0
 18 23  1  0
 19 29  1  0
 19 27  1  0
 20 26  1  0
 20 22  1  0
 21 27  1  0
 22 21  1  0
 23 22  2  0
 24 25  1  0
 24 18  2  0
 25 20  2  0
 26 19  1  0
 27 17  1  0
 29 31  2  0
 30 29  1  0
 32 30  1  0
 33 38  2  0
 33 42  1  0
 34 30  1  0
 34 38  1  0
 35 34  1  0
 36 37  1  0
 36 35  1  0
 37 33  1  0
 38 39  1  0
 39 40  2  0
 41 40  1  0
 42 41  2  0
 43 17  1  0
 43 48  1  0
 43 44  1  0
 44 47  1  1
 44 45  1  0
 46 44  1  0
 48 51  1  0
 49 53  1  0
 49 48  1  0
 50 49  2  0
 53 52  1  0
 55 53  1  0
 55 56  1  0
 55 54  1  0
 58 57  1  0
 59 58  1  0
 60 59  1  0
 61 60  1  0
 62 61  1  0
 63 71  1  0
 64 69  1  0
 65 66  1  0
 65 64  1  0
 67 66  1  0
 67 76  1  0
 67 68  1  0
 69 63  1  0
 69 68  1  0
 70 63  2  0
 71 72  1  0
 71 62  1  0
 73 74  2  0
 74 93  1  0
 75 78  1  0
 75 74  1  0
 76 77  1  0
 76 73  1  0
 77 75  2  0
 78 79  1  0
 79 80  2  0
 81 84  1  0
 81 80  1  0
 82 81  2  0
 83 82  1  0
 83 78  2  0
 84 85  1  0
 85 90  2  0
 85 86  1  0
 86 87  2  0
 87 88  1  0
 88 92  1  0
 89 88  2  0
 90 89  1  0
 91 90  1  0
 93 94  1  0
 94 96  1  0
 94 97  1  0
 95 93  2  0
 98 73  1  0
 98 99  1  0
100 98  1  0
M  ISO  4  15 101  16 101  63 100  71 100
M  END
>  <TORSDO>  (24) 
F 25

>  <SCORE>  (24) 
28.856

>  <name>  (24) 
23

>  <ligand_id>  (24) 
23

>  <original_smiles>  (24) 
[H]c1c([H])c([H])c2c(c1[H])C([H])([H])C([H])([H])C([H])([H])C2([H])N([H])C(=O)C1([H])N(C(=O)C([H])(N([H])C(=O)C([H])(N([H])C([H])([H])[H])C([H])([H])[H])C(C([H])([H])[H])(C([H])([H])[H])C([H])([H])[H])C([H])([H])c2c([H])c(OC([H])([H])C3([H])C([H])([H])C([H])([H])C(c4c([H])c(C([H])([H])C([H])([H])C([H])([H])C([H])([H])C([H])([H])C([H])([H])N([H])C(=O)N5C([H])([H])C([H])([H])C([H])([H])C([H])(n6nc(-c7c([H])c([H])c(Oc8c([H])c([H])c(F)c([H])c8F)c([H])c7[H])c(C(=O)N([H])[H])c6N([H])[H])C5([H])[H])c([H])c([H])c4C([H])([H])[H])(C([H])([H])C([H])([H])[H])C3([H])[H])c([H])c([H])c2C1([H])[H]

>  <smiles>  (24) 
[H]c1c([H])c([H])c2c(c1[H])C([H])([H])C([H])([H])C([H])([H])C2([H])N([H])C(=O)C1([H])N(C(=O)C([H])(N([H])C(=O)C([H])(N([H])C([H])([H])[H])C([H])([H])[H])C(C([H])([H])[H])(C([H])([H])[H])C([H])([H])[H])C([H])([H])c2c([H])c(OC([H])([H])C3([H])C([H])([H])C([H])([H])C(c4c([H])c(C([H])([H])C([H])([H])C([H])([H])C([H])([H])C([H])([H])C([H])([H])N([H])C(=O)N5C([H])([H])C([H])([H])C([H])([H])C([H])(n6nc(-c7c([H])c([H])c(Oc8c([H])c([H])c(F)c([H])c8F)c([H])c7[H])c(C(=O)N([H])[H])c6N([H])[H])C5([H])[H])c([H])c([H])c4C([H])([H])[H])(C([H])([H])C([H])([H])[H])C3([H])[H])c([H])c([H])c2C1([H])[H]

$$$$
24:0:0
     RDKit          3D

 93 92  0  0  1  0  0  0  0  0999 V2000
  -19.0940  -28.8100   24.7900 C   0  0  0  0  0  1  0  0  0  0  0  0
  -20.8630  -28.6300   25.4170 C   0  0  0  0  0  0  0  0  0  0  0  0
  -21.1640  -29.5490   26.1820 O   0  0  0  0  0  0  0  0  0  0  0  0
  -22.2620  -27.4770   25.2030 C   0  0  0  0  0  2  0  0  0  0  0  0
  -23.9940  -27.2320   24.3930 C   0  0  0  0  0  3  0  0  0  0  0  0
  -24.8370  -26.8930   22.7550 C   0  0  0  0  0  3  0  0  0  0  0  0
  -26.3810  -26.7810   22.0360 O   0  0  0  0  0  0  0  0  0  0  0  0
  -24.6320  -31.9420   23.1580 C   0  0  0  0  0  0  0  0  0  0  0  0
  -26.7130  -27.3350   20.7860 C   0  0  0  0  0  3  0  0  0  0  0  0
  -23.4380  -30.6460   21.3770 C   0  0  0  0  0  3  0  0  0  0  0  0
  -24.8700  -29.1110   19.9600 C   0  0  0  0  0  0  0  0  0  0  0  0
  -25.9590  -30.9340   21.3020 C   0  0  0  0  0  2  0  0  0  0  0  0
  -25.9970  -29.5660   20.6600 C   0  0  0  0  0  0  0  0  0  0  0  0
  -27.0600  -28.6860   20.9130 C   0  0  0  0  0  2  0  0  0  0  0  0
  -25.8860  -26.9320   19.7230 C   0  0  0  0  0  3  0  0  0  0  0  0
  -24.8580  -27.8250   19.3850 C   0  0  0  0  0  3  0  0  0  0  0  0
  -23.6900  -30.0470   19.9620 C   0  0  0  0  0  2  0  0  0  0  0  0
  -24.6890  -31.1990   22.0070 N   0  0  0  0  0  0  0  0  0  0  0  0
  -23.5490  -32.2210   23.6940 O   0  0  0  0  0  0  0  0  0  0  0  0
  -22.8540  -29.5520   22.2450 C   0  0  0  0  0  0  0  0  0  0  0  0
  -21.9240  -28.7230   21.7400 N   0  0  0  0  0  0  0  0  0  0  0  0
  -23.2690  -29.4340   23.3780 O   0  0  0  0  0  0  0  0  0  0  0  0
  -21.5910  -28.8490   20.7950 H   0  0  0  0  0  0  0  0  0  0  0  0
  -18.6370  -27.2860   23.1500 C   0  0  0  0  0  0  0  0  0  0  0  0
  -21.2710  -27.7090   22.5420 C   0  0  0  0  0  3  0  0  0  0  0  0
  -21.0490  -26.1880   22.5670 C   0  0  0  0  0  2  0  0  0  0  0  0
  -19.7300  -25.4710   22.1100 C   0  0  0  0  0  2  0  0  0  0  0  0
  -18.3980  -26.0250   22.4820 C   0  0  0  0  0  2  0  0  0  0  0  0
  -20.1160  -28.2260   22.9400 C   0  0  0  0  0  0  0  0  0  0  0  0
  -19.8590  -29.9410   22.9580 C   0  0  0  0  0  3  0  0  0  0  0  0
  -18.3850  -30.5010   23.1760 C   0  0  0  0  0  3  0  0  0  0  0  0
  -17.1620  -29.6010   23.3480 C   0  0  0  0  0  3  0  0  0  0  0  0
  -17.2560  -28.0780   23.3310 C   0  0  0  0  0  3  0  0  0  0  0  0
  -25.9210  -32.5050   23.8320 C   0  0  0  0  0  3  0  0  0  0  0  0
  -26.4400  -31.6610   25.0620 C   0  0  1  0  0  0  0  0  0  0  0  0
  -25.3560  -31.3720   26.1250 C   0  0  0  0  0  1  0  0  0  0  0  0
  -27.0130  -30.3060   24.5860 C   0  0  0  0  0  1  0  0  0  0  0  0
  -27.6000  -32.4150   25.7530 C   0  0  0  0  0  1  0  0  0  0  0  0
  -25.6130  -33.8790   24.2430 N   0  0  0  0  0  0  0  0  0  0  0  0
  -25.9080  -34.9610   23.5130 C   0  0  0  0  0  0  0  0  0  0  0  0
  -26.5530  -34.9030   22.4620 O   0  0  0  0  0  0  0  0  0  0  0  0
  -25.0400  -33.9930   25.0660 H   0  0  0  0  0  0  0  0  0  0  0  0
  -24.1510  -36.7380   23.2630 C   0  0  0  0  0  1  0  0  0  0  0  0
  -25.4120  -36.3210   24.0350 C   0  0  0  0  0  3  0  0  0  0  0  0
  -27.5600  -37.1860   24.8460 C   0  0  0  0  0  1  0  0  0  0  0  0
  -26.4300  -37.3890   23.9440 N   0  0  0  0  0  0  0  0  0  0  0  0
  -26.0200  -38.2960   24.1480 H   0  0  0  0  0  0  0  0  0  0  0  0
  -18.6490  -28.6970   21.3950 C   0  0  0  0  0 15  0  0  0  0  0  0
  -19.7860  -27.3460   20.2520 C   0  0  0  0  0 15  0  0  0  0  0  0
  -21.4340  -26.0580   19.9800 C   0  0  0  0  0 15  0  0  0  0  0  0
  -22.2050  -24.1480   20.0760 C   0  0  0  0  0 15  0  0  0  0  0  0
  -23.8800  -22.9720   20.2260 C   0  0  0  0  0 15  0  0  0  0  0  0
  -24.7630  -21.1550   19.8670 C   0  0  0  0  0 15  0  0  0  0  0  0
  -26.1500  -19.7610   20.4420 C   0  0  0  0  0 15  0  0  0  0  0  0
  -27.4430  -18.2790   19.8670 C   0  0  0  0  0  1  0  0  0  0  0  0
  -29.5220  -15.6460   20.2650 C   0  0  0  0  0  0  0  0  0  0  0  0
  -30.2990  -13.1430   19.5910 C   0  0  0  0  0  2  0  0  0  0  0  0
  -29.5090  -12.6570   18.3390 C   0  0  0  0  0  2  0  0  0  0  0  0
  -28.0710  -12.2570   18.7270 C   0  0  0  0  0  2  0  0  0  0  0  0
  -27.5020  -13.2270   19.7870 C   0  0  0  0  0  3  0  0  0  0  0  0
  -28.4310  -13.4380   20.9720 C   0  0  0  0  0  2  0  0  0  0  0  0
  -29.4790  -14.1980   20.3480 N   0  0  0  0  0  0  0  0  0  0  0  0
  -30.7450  -15.8770   20.0290 O   0  0  0  0  0  0  0  0  0  0  0  0
  -28.2700  -16.6710   20.3200 N   0  0  0  0  0  0  0  0  0  0  0  0
  -27.4990  -16.0640   20.5780 H   0  0  0  0  0  0  0  0  0  0  0  0
  -25.1980  -13.8060   20.5710 C   0  0  0  0  0  0  0  0  0  0  0  0
  -24.1370  -13.0290   20.9260 C   0  0  0  0  0  0  0  0  0  0  0  0
  -24.5990  -11.6780   20.8750 C   0  0  0  0  0  0  0  0  0  0  0  0
  -26.2020  -12.9100   20.2760 N   0  0  0  0  0  0  0  0  0  0  0  0
  -25.8780  -11.6300   20.5480 N   0  0  0  0  0  0  0  0  0  0  0  0
  -23.8800  -10.4180   21.0450 C   0  0  0  0  0  0  0  0  0  0  0  0
  -24.3470   -9.4140   21.9200 C   0  0  0  0  0  3  0  0  0  0  0  0
  -23.6210   -8.2150   22.0740 C   0  0  0  0  0  3  0  0  0  0  0  0
  -22.4190   -8.0170   21.3530 C   0  0  0  0  0  0  0  0  0  0  0  0
  -21.9770   -9.0110   20.4640 C   0  0  0  0  0  3  0  0  0  0  0  0
  -22.7030  -10.2010   20.3070 C   0  0  0  0  0  3  0  0  0  0  0  0
  -21.6590   -6.8760   21.4230 O   0  0  0  0  0  0  0  0  0  0  0  0
  -21.6820   -6.0680   22.5290 C   0  0  0  0  0  0  0  0  0  0  0  0
  -21.3990   -6.5610   23.8220 C   0  0  0  0  0  3  0  0  0  0  0  0
  -21.3660   -5.6770   24.9190 C   0  0  0  0  0  3  0  0  0  0  0  0
  -21.6060   -4.3030   24.7240 C   0  0  0  0  0  0  0  0  0  0  0  0
  -21.8810   -3.8110   23.4360 C   0  0  0  0  0  3  0  0  0  0  0  0
  -21.9180   -4.6920   22.3420 C   0  0  0  0  0  0  0  0  0  0  0  0
  -22.1660   -4.2110   21.1000 F   0  0  0  0  0  0  0  0  0  0  0  0
  -21.5640   -3.4520   25.7760 F   0  0  0  0  0  0  0  0  0  0  0  0
  -22.7490  -13.5140   21.1980 C   0  0  0  0  0  0  0  0  0  0  0  0
  -22.0170  -12.8160   22.0560 N   0  0  0  0  0  0  0  0  0  0  0  0
  -22.3320  -14.5500   20.6850 O   0  0  0  0  0  0  0  0  0  0  0  0
  -22.3760  -11.9800   22.4900 H   0  0  0  0  0  0  0  0  0  0  0  0
  -21.0830  -13.1230   22.2840 H   0  0  0  0  0  0  0  0  0  0  0  0
  -25.3940  -15.1800   20.4420 N   0  0  0  0  0  0  0  0  0  0  0  0
  -24.5160  -15.5780   20.1220 H   0  0  0  0  0  0  0  0  0  0  0  0
  -25.4810  -15.5700   21.3750 H   0  0  0  0  0  0  0  0  0  0  0  0
  1  2  1  0
  2  3  2  0
  4  2  1  0
  5  4  1  0
  6  5  2  0
  7  6  1  0
  8 19  2  0
  9 14  1  0
  9  7  1  0
 10 18  1  0
 10 20  1  0
 11 17  1  0
 11 13  2  0
 12 18  1  0
 13 14  1  0
 13 12  1  0
 15  9  1  0
 16 15  2  0
 16 11  1  0
 17 10  1  0
 18  8  1  0
 20 22  2  0
 21 20  1  0
 23 21  1  0
 24 33  1  0
 25 21  1  0
 25 26  1  0
 25 29  1  0
 27 28  1  0
 27 26  1  0
 28 24  1  0
 29 30  1  0
 29 24  2  0
 30 31  2  0
 31 32  1  0
 33 32  2  0
 34  8  1  0
 34 39  1  0
 34 35  1  0
 35 38  1  1
 35 36  1  0
 37 35  1  0
 39 42  1  0
 40 44  1  0
 40 39  1  0
 41 40  2  0
 44 43  1  0
 46 44  1  0
 46 47  1  0
 46 45  1  0
 55 64  1  0
 56 64  1  0
 56 62  1  0
 57 62  1  0
 58 59  1  0
 58 57  1  0
 60 59  1  0
 60 69  1  0
 60 61  1  0
 62 61  1  0
 63 56  2  0
 64 65  1  0
 66 67  2  0
 67 86  1  0
 68 67  1  0
 68 71  1  0
 69 70  1  0
 69 66  1  0
 70 68  2  0
 71 72  1  0
 72 73  2  0
 74 77  1  0
 74 73  1  0
 75 74  2  0
 76 75  1  0
 76 71  2  0
 77 78  1  0
 78 79  1  0
 79 80  2  0
 81 80  1  0
 81 85  1  0
 82 81  2  0
 83 78  2  0
 83 82  1  0
 84 83  1  0
 86 87  1  0
 87 90  1  0
 87 89  1  0
 88 86  2  0
 91 66  1  0
 91 93  1  0
 92 91  1  0
M  ISO  4   6 101   7 101  56 100  64 100
M  END
>  <TORSDO>  (25) 
F 28

>  <SCORE>  (25) 
7.258

>  <name>  (25) 
24

>  <ligand_id>  (25) 
24

>  <original_smiles>  (25) 
[H]c1c([H])c([H])c2c(c1[H])C([H])([H])C([H])([H])C([H])([H])C2([H])N([H])C(=O)C1([H])N(C(=O)C([H])(N([H])C(=O)C([H])(N([H])C([H])([H])[H])C([H])([H])[H])C(C([H])([H])[H])(C([H])([H])[H])C([H])([H])[H])C([H])([H])c2c([H])c(OC([H])([H])C([H])([H])C([H])([H])C(=O)C([H])([H])C([H])([H])C([H])([H])C([H])([H])C([H])([H])C([H])([H])C([H])([H])C([H])([H])C([H])([H])N([H])C(=O)N3C([H])([H])C([H])([H])C([H])([H])C([H])(n4nc(-c5c([H])c([H])c(Oc6c([H])c([H])c(F)c([H])c6F)c([H])c5[H])c(C(=O)N([H])[H])c4N([H])[H])C3([H])[H])c([H])c([H])c2C1([H])[H]

>  <smiles>  (25) 
[H]c1c([H])c([H])c2c(c1[H])C([H])([H])C([H])([H])C([H])([H])C2([H])N([H])C(=O)C1([H])N(C(=O)C([H])(N([H])C(=O)C([H])(N([H])C([H])([H])[H])C([H])([H])[H])C(C([H])([H])[H])(C([H])([H])[H])C([H])([H])[H])C([H])([H])c2c([H])c(OC([H])([H])C([H])([H])C([H])([H])C(=O)C([H])([H])C([H])([H])C([H])([H])C([H])([H])C([H])([H])C([H])([H])C([H])([H])C([H])([H])C([H])([H])N([H])C(=O)N3C([H])([H])C([H])([H])C([H])([H])C([H])(n4nc(-c5c([H])c([H])c(Oc6c([H])c([H])c(F)c([H])c6F)c([H])c5[H])c(C(=O)N([H])[H])c4N([H])[H])C3([H])[H])c([H])c([H])c2C1([H])[H]

$$$$
25:0:0
     RDKit          3D

100108  0  0  1  0  0  0  0  0999 V2000
  -23.7480  -21.5970   18.9120 C   0  0  0  0  0  3  0  0  0  0  0  0
  -25.5790  -22.4830   17.5900 C   0  0  0  0  0  3  0  0  0  0  0  0
  -24.2780  -22.2050   20.0700 C   0  0  0  0  0  3  0  0  0  0  0  0
  -26.1110  -23.0980   18.7500 C   0  0  0  0  0  3  0  0  0  0  0  0
  -24.3730  -21.7480   17.6550 C   0  0  0  0  0  0  0  0  0  0  0  0
  -25.4510  -22.9970   19.9980 C   0  0  0  0  0  0  0  0  0  0  0  0
  -23.5940  -21.3490   16.4380 C   0  0  0  0  0  0  0  0  0  0  0  0
  -22.5260  -21.9140   16.1840 O   0  0  0  0  0  0  0  0  0  0  0  0
  -23.9970  -20.1930   15.4930 C   0  0  0  0  0  2  0  0  0  0  0  0
  -25.4430  -19.6780   15.5120 C   0  0  0  0  0  2  0  0  0  0  0  0
  -25.8370  -18.9800   16.8190 C   0  0  0  0  0  2  0  0  0  0  0  0
  -27.2480  -19.3650   17.2810 C   0  0  0  0  0  2  0  0  0  0  0  0
  -27.6830  -18.4590   18.4320 C   0  0  0  0  0  2  0  0  0  0  0  0
  -29.1590  -18.5270   18.8490 C   0  0  0  0  0  2  0  0  0  0  0  0
  -29.3570  -17.9680   20.2730 C   0  0  0  0  0  2  0  0  0  0  0  0
  -30.7700  -17.4360   20.5750 C   0  0  0  0  0  2  0  0  0  0  0  0
  -30.8490  -16.5710   21.8520 C   0  0  0  0  0  2  0  0  0  0  0  0
  -31.0100  -14.2830   20.8840 C   0  0  0  0  0  0  0  0  0  0  0  0
  -30.5880  -12.4170   19.3390 C   0  0  0  0  0  2  0  0  0  0  0  0
  -29.7030  -12.9330   18.1880 C   0  0  0  0  0  2  0  0  0  0  0  0
  -28.2100  -12.8480   18.5520 C   0  0  0  0  0  2  0  0  0  0  0  0
  -27.8930  -13.4070   19.9660 C   0  0  0  0  0  3  0  0  0  0  0  0
  -28.9020  -12.9050   21.0180 C   0  0  0  0  0  2  0  0  0  0  0  0
  -30.2620  -13.2020   20.5360 N   0  0  0  0  0  0  0  0  0  0  0  0
  -32.1390  -14.4990   20.4450 O   0  0  0  0  0  0  0  0  0  0  0  0
  -30.3770  -15.2050   21.6210 N   0  0  0  0  0  0  0  0  0  0  0  0
  -29.4450  -14.9820   21.9290 H   0  0  0  0  0  0  0  0  0  0  0  0
  -25.4670  -13.9730   20.6230 C   0  0  0  0  0  0  0  0  0  0  0  0
  -24.3770  -13.1960   20.8730 C   0  0  0  0  0  0  0  0  0  0  0  0
  -24.8320  -11.8470   20.7800 C   0  0  0  0  0  0  0  0  0  0  0  0
  -26.5170  -13.1090   20.3630 N   0  0  0  0  0  0  0  0  0  0  0  0
  -26.1350  -11.8140   20.5170 N   0  0  0  0  0  0  0  0  0  0  0  0
  -24.0890  -10.5850   20.8650 C   0  0  0  0  0  0  0  0  0  0  0  0
  -24.4470   -9.5770   21.7860 C   0  0  0  0  0  3  0  0  0  0  0  0
  -23.7030   -8.3810   21.8600 C   0  0  0  0  0  3  0  0  0  0  0  0
  -22.5880   -8.1880   21.0140 C   0  0  0  0  0  0  0  0  0  0  0  0
  -22.2470   -9.1870   20.0830 C   0  0  0  0  0  3  0  0  0  0  0  0
  -22.9900  -10.3760   20.0090 C   0  0  0  0  0  3  0  0  0  0  0  0
  -21.8200   -7.0480   20.9970 O   0  0  0  0  0  0  0  0  0  0  0  0
  -21.5210   -6.3660   22.1480 C   0  0  0  0  0  0  0  0  0  0  0  0
  -20.9110   -6.9990   23.2520 C   0  0  0  0  0  3  0  0  0  0  0  0
  -20.5610   -6.2480   24.3910 C   0  0  0  0  0  3  0  0  0  0  0  0
  -20.8070   -4.8590   24.4220 C   0  0  0  0  0  0  0  0  0  0  0  0
  -21.4050   -4.2260   23.3180 C   0  0  0  0  0  3  0  0  0  0  0  0
  -21.7610   -4.9770   22.1850 C   0  0  0  0  0  0  0  0  0  0  0  0
  -22.3220   -4.3580   21.1170 F   0  0  0  0  0  0  0  0  0  0  0  0
  -20.4670   -4.1340   25.5100 F   0  0  0  0  0  0  0  0  0  0  0  0
  -22.9700  -13.6750   21.1030 C   0  0  0  0  0  0  0  0  0  0  0  0
  -22.1960  -12.9320   21.8850 N   0  0  0  0  0  0  0  0  0  0  0  0
  -22.5720  -14.7390   20.6260 O   0  0  0  0  0  0  0  0  0  0  0  0
  -22.5360  -12.0670   22.2770 H   0  0  0  0  0  0  0  0  0  0  0  0
  -21.2480  -13.2160   22.0790 H   0  0  0  0  0  0  0  0  0  0  0  0
  -25.6440  -15.3460   20.5890 N   0  0  0  0  0  0  0  0  0  0  0  0
  -24.8600  -15.9820   20.6740 H   0  0  0  0  0  0  0  0  0  0  0  0
  -26.4920  -15.8070   20.2940 H   0  0  0  0  0  0  0  0  0  0  0  0
  -25.9150  -23.7820   21.2400 C   0  0  0  0  0  2  0  0  0  0  0  0
  -27.3780  -24.3220   21.2790 C   0  0  0  0  0  3  0  0  0  0  0  0
  -27.7620  -25.3790   20.1950 C   0  0  0  0  0  3  0  0  0  0  0  0
  -29.0650  -26.2450   20.4430 C   0  0  0  0  0  2  0  0  0  0  0  0
  -29.1430  -27.6740   20.1070 O   0  0  0  0  0  0  0  0  0  0  0  0
  -24.9150  -32.0230   23.8940 C   0  0  0  0  0  0  0  0  0  0  0  0
  -27.9730  -28.3900   20.1970 C   0  0  0  0  0  0  0  0  0  0  0  0
  -23.8570  -30.7010   22.0960 C   0  0  0  0  0  3  0  0  0  0  0  0
  -25.4440  -29.6120   20.4400 C   0  0  0  0  0  0  0  0  0  0  0  0
  -26.3120  -31.4130   21.9280 C   0  0  0  0  0  2  0  0  0  0  0  0
  -26.5500  -30.1640   21.1030 C   0  0  0  0  0  0  0  0  0  0  0  0
  -27.8250  -29.5500   20.9980 C   0  0  0  0  0  3  0  0  0  0  0  0
  -26.8730  -27.9480   19.4430 C   0  0  0  0  0  3  0  0  0  0  0  0
  -25.6020  -28.4990   19.6060 C   0  0  0  0  0  3  0  0  0  0  0  0
  -24.1050  -30.2760   20.6280 C   0  0  0  0  0  2  0  0  0  0  0  0
  -25.0450  -31.3910   22.6940 N   0  0  0  0  0  0  0  0  0  0  0  0
  -23.8230  -32.0640   24.4760 O   0  0  0  0  0  0  0  0  0  0  0  0
  -23.3920  -29.4660   22.9010 C   0  0  0  0  0  0  0  0  0  0  0  0
  -22.3300  -28.8010   22.4200 N   0  0  0  0  0  0  0  0  0  0  0  0
  -23.9880  -29.1210   23.9240 O   0  0  0  0  0  0  0  0  0  0  0  0
  -21.9000  -29.1480   21.5750 H   0  0  0  0  0  0  0  0  0  0  0  0
  -19.7520  -26.3030   21.9390 C   0  0  0  0  0  0  0  0  0  0  0  0
  -21.7310  -27.5940   22.9910 C   0  0  0  0  0  3  0  0  0  0  0  0
  -22.5840  -26.3490   22.6630 C   0  0  0  0  0  2  0  0  0  0  0  0
  -22.1160  -25.6240   21.4020 C   0  0  0  0  0  2  0  0  0  0  0  0
  -20.6730  -25.1490   21.5820 C   0  0  0  0  0  2  0  0  0  0  0  0
  -20.2540  -27.4600   22.5960 C   0  0  0  0  0  0  0  0  0  0  0  0
  -19.3680  -28.5090   22.9090 C   0  0  0  0  0  3  0  0  0  0  0  0
  -18.0080  -28.4300   22.5610 C   0  0  0  0  0  3  0  0  0  0  0  0
  -17.5090  -27.2830   21.9200 C   0  0  0  0  0  3  0  0  0  0  0  0
  -18.3790  -26.2200   21.6160 C   0  0  0  0  0  3  0  0  0  0  0  0
  -26.1180  -32.7440   24.5760 C   0  0  0  0  0  3  0  0  0  0  0  0
  -25.6560  -34.0710   24.9970 N   0  0  0  0  0  0  0  0  0  0  0  0
  -25.8520  -35.1990   24.3020 C   0  0  0  0  0  0  0  0  0  0  0  0
  -26.5150  -35.2400   23.2630 O   0  0  0  0  0  0  0  0  0  0  0  0
  -25.0600  -34.1060   25.8100 H   0  0  0  0  0  0  0  0  0  0  0  0
  -23.9110  -36.7840   24.0860 C   0  0  0  0  0  1  0  0  0  0  0  0
  -25.2140  -36.4910   24.8460 C   0  0  0  0  0  3  0  0  0  0  0  0
  -27.2630  -37.5670   25.6610 C   0  0  0  0  0  1  0  0  0  0  0  0
  -26.1090  -37.6660   24.7720 N   0  0  0  0  0  0  0  0  0  0  0  0
  -25.6060  -38.5200   25.0000 H   0  0  0  0  0  0  0  0  0  0  0  0
  -26.7110  -31.9410   25.8000 C   0  0  1  0  0  0  0  0  0  0  0  0
  -25.6310  -31.3920   26.7630 C   0  0  0  0  0  1  0  0  0  0  0  0
  -27.5510  -30.7390   25.3100 C   0  0  0  0  0  1  0  0  0  0  0  0
  -27.6700  -32.8490   26.6060 C   0  0  0  0  0  1  0  0  0  0  0  0
  1  3  1  0
  2  5  1  0
  2  4  2  0
  4  6  1  0
  5  1  2  0
  6  3  2  0
  6 56  1  0
  7  5  1  0
  8  7  2  0
  9 10  1  0
  9  7  1  0
 10 11  1  0
 11 12  1  0
 12 13  1  0
 13 14  1  0
 14 15  1  0
 15 16  1  0
 16 17  1  0
 18 26  1  0
 19 24  1  0
 20 21  1  0
 20 19  1  0
 22 21  1  0
 22 31  1  0
 22 23  1  0
 24 18  1  0
 24 23  1  0
 25 18  2  0
 26 17  1  0
 26 27  1  0
 28 29  2  0
 29 48  1  0
 30 33  1  0
 30 29  1  0
 31 32  1  0
 31 28  1  0
 32 30  2  0
 33 34  1  0
 34 35  2  0
 36 35  1  0
 37 36  2  0
 38 37  1  0
 38 33  2  0
 39 36  1  0
 39 40  1  0
 40 45  2  0
 40 41  1  0
 41 42  2  0
 42 43  1  0
 43 47  1  0
 44 43  2  0
 45 44  1  0
 46 45  1  0
 48 49  1  0
 49 52  1  0
 49 51  1  0
 50 48  2  0
 53 28  1  0
 53 54  1  0
 55 53  1  0
 56 57  1  0
 58 59  1  0
 58 57  2  0
 60 62  1  0
 60 59  1  0
 61 72  2  0
 62 67  1  0
 63 71  1  0
 63 73  1  0
 64 70  1  0
 64 66  1  0
 65 71  1  0
 66 65  1  0
 67 66  2  0
 68 69  1  0
 68 62  2  0
 69 64  2  0
 70 63  1  0
 71 61  1  0
 73 75  2  0
 74 73  1  0
 76 74  1  0
 77 82  1  0
 78 74  1  0
 79 78  1  0
 80 81  1  0
 80 79  1  0
 81 77  1  0
 82 83  2  0
 82 78  1  0
 84 83  1  0
 85 84  2  0
 86 85  1  0
 86 77  2  0
 87 61  1  0
 87 88  1  0
 87 97  1  0
 88 91  1  0
 89 93  1  0
 89 88  1  0
 90 89  2  0
 93 92  1  0
 95 93  1  0
 95 96  1  0
 95 94  1  0
 97100  1  1
 97 98  1  0
 99 97  1  0
M  ISO  4  18 100  26 100  59 101  60 101
M  END
>  <TORSDO>  (26) 
F 30

>  <SCORE>  (26) 
-4.452

>  <name>  (26) 
25

>  <ligand_id>  (26) 
25

>  <original_smiles>  (26) 
[H]c1c([H])c([H])c2c(c1[H])C([H])([H])C([H])([H])C([H])([H])C2([H])N([H])C(=O)C1([H])N(C(=O)C([H])(N([H])C(=O)C([H])(N([H])C([H])([H])[H])C([H])([H])[H])C(C([H])([H])[H])(C([H])([H])[H])C([H])([H])[H])C([H])([H])c2c([H])c(OC([H])([H])C([H])([H])C([H])([H])C([H])([H])c3c([H])c([H])c(C(=O)C([H])([H])C([H])([H])C([H])([H])C([H])([H])C([H])([H])C([H])([H])C([H])([H])C([H])([H])C([H])([H])N([H])C(=O)N4C([H])([H])C([H])([H])C([H])([H])C([H])(n5nc(-c6c([H])c([H])c(Oc7c([H])c([H])c(F)c([H])c7F)c([H])c6[H])c(C(=O)N([H])[H])c5N([H])[H])C4([H])[H])c([H])c3[H])c([H])c([H])c2C1([H])[H]

>  <smiles>  (26) 
[H]c1c([H])c([H])c2c(c1[H])C([H])([H])C([H])([H])C([H])([H])C2([H])N([H])C(=O)C1([H])N(C(=O)C([H])(N([H])C(=O)C([H])(N([H])C([H])([H])[H])C([H])([H])[H])C(C([H])([H])[H])(C([H])([H])[H])C([H])([H])[H])C([H])([H])c2c([H])c(OC([H])([H])C([H])([H])C([H])([H])C([H])([H])c3c([H])c([H])c(C(=O)C([H])([H])C([H])([H])C([H])([H])C([H])([H])C([H])([H])C([H])([H])C([H])([H])C([H])([H])C([H])([H])N([H])C(=O)N4C([H])([H])C([H])([H])C([H])([H])C([H])(n5nc(-c6c([H])c([H])c(Oc7c([H])c([H])c(F)c([H])c7F)c([H])c6[H])c(C(=O)N([H])[H])c5N([H])[H])C4([H])[H])c([H])c3[H])c([H])c([H])c2C1([H])[H]

$$$$
26:0:0
     RDKit          3D

101109  0  0  1  0  0  0  0  0999 V2000
  -28.3800  -19.8110   19.4200 C   0  0  0  0  0  3  0  0  0  0  0  0
  -27.5660  -18.7510   19.9110 C   0  0  0  0  0  3  0  0  0  0  0  0
  -29.5630  -18.2710   17.9940 C   0  0  0  0  0  3  0  0  0  0  0  0
  -29.3650  -19.6280   18.4030 C   0  0  0  0  0  0  0  0  0  0  0  0
  -27.7300  -17.4230   19.4540 C   0  0  0  0  0  0  0  0  0  0  0  0
  -28.7890  -17.1880   18.5340 C   0  0  0  0  0  0  0  0  0  0  0  0
  -29.0620  -15.7520   18.1170 C   0  0  0  0  0  1  0  0  0  0  0  0
  -30.0660  -20.8760   17.8010 C   0  0  0  0  0  0  0  0  0  0  0  0
  -30.0450  -21.9460   18.4290 O   0  0  0  0  0  0  0  0  0  0  0  0
  -30.8610  -20.8540   16.4280 C   0  0  0  0  0  2  0  0  0  0  0  0
  -31.6730  -22.0720   16.0700 O   0  0  0  0  0  0  0  0  0  0  0  0
  -32.7610  -28.3490   19.6770 C   0  0  0  0  0  0  0  0  0  0  0  0
  -31.2520  -23.3580   16.4530 C   0  0  0  0  0  0  0  0  0  0  0  0
  -30.4660  -27.8380   18.9300 C   0  0  0  0  0  3  0  0  0  0  0  0
  -30.2400  -25.9000   17.2920 C   0  0  0  0  0  0  0  0  0  0  0  0
  -32.5010  -26.8820   17.6590 C   0  0  0  0  0  2  0  0  0  0  0  0
  -31.6240  -25.7080   17.2180 C   0  0  0  0  0  0  0  0  0  0  0  0
  -32.1350  -24.4440   16.7740 C   0  0  0  0  0  3  0  0  0  0  0  0
  -29.8690  -23.6150   16.5560 C   0  0  0  0  0  3  0  0  0  0  0  0
  -29.3680  -24.8520   16.9850 C   0  0  0  0  0  3  0  0  0  0  0  0
  -29.7330  -27.2680   17.6990 C   0  0  0  0  0  2  0  0  0  0  0  0
  -31.9530  -27.6960   18.7900 N   0  0  0  0  0  0  0  0  0  0  0  0
  -32.2930  -29.0790   20.5630 O   0  0  0  0  0  0  0  0  0  0  0  0
  -29.9040  -27.1840   20.2150 C   0  0  0  0  0  0  0  0  0  0  0  0
  -28.7380  -26.5210   20.1010 N   0  0  0  0  0  0  0  0  0  0  0  0
  -30.5230  -27.2690   21.2780 O   0  0  0  0  0  0  0  0  0  0  0  0
  -28.2870  -26.4930   19.1940 H   0  0  0  0  0  0  0  0  0  0  0  0
  -26.3550  -23.8940   20.7970 C   0  0  0  0  0  0  0  0  0  0  0  0
  -28.0440  -25.8160   21.1810 C   0  0  0  0  0  3  0  0  0  0  0  0
  -28.9560  -24.7440   21.8200 C   0  0  0  0  0  2  0  0  0  0  0  0
  -28.7890  -23.3570   21.1880 C   0  0  0  0  0  2  0  0  0  0  0  0
  -27.3440  -22.8680   21.3150 C   0  0  0  0  0  2  0  0  0  0  0  0
  -26.6850  -25.2720   20.7170 C   0  0  0  0  0  0  0  0  0  0  0  0
  -25.7390  -26.1710   20.1820 C   0  0  0  0  0  3  0  0  0  0  0  0
  -24.4820  -25.7150   19.7450 C   0  0  0  0  0  3  0  0  0  0  0  0
  -24.1520  -24.3520   19.8400 C   0  0  0  0  0  3  0  0  0  0  0  0
  -25.0910  -23.4430   20.3630 C   0  0  0  0  0  3  0  0  0  0  0  0
  -34.3110  -28.2330   19.6000 C   0  0  0  0  0  3  0  0  0  0  0  0
  -34.8660  -29.5780   19.7950 N   0  0  0  0  0  0  0  0  0  0  0  0
  -35.2990  -30.3790   18.8100 C   0  0  0  0  0  0  0  0  0  0  0  0
  -35.3440  -30.0240   17.6300 O   0  0  0  0  0  0  0  0  0  0  0  0
  -34.8210  -29.9480   20.7330 H   0  0  0  0  0  0  0  0  0  0  0  0
  -34.6350  -32.8010   18.8740 C   0  0  0  0  0  1  0  0  0  0  0  0
  -35.7530  -31.7980   19.1990 C   0  0  0  0  0  3  0  0  0  0  0  0
  -38.1690  -31.4410   18.9460 C   0  0  0  0  0  1  0  0  0  0  0  0
  -37.0050  -32.2220   18.5340 N   0  0  0  0  0  0  0  0  0  0  0  0
  -37.1990  -33.2030   18.7220 H   0  0  0  0  0  0  0  0  0  0  0  0
  -34.9170  -27.2220   20.6520 C   0  0  1  0  0  0  0  0  0  0  0  0
  -34.5310  -27.5290   22.1170 C   0  0  0  0  0  1  0  0  0  0  0  0
  -34.4710  -25.7700   20.3550 C   0  0  0  0  0  1  0  0  0  0  0  0
  -36.4610  -27.2450   20.5580 C   0  0  0  0  0  1  0  0  0  0  0  0
  -26.6690  -16.3270   19.8180 C   0  0  0  0  0  2  0  0  0  0  0  0
  -26.8630  -15.4370   21.1130 C   0  0  0  0  0  2  0  0  0  0  0  0
  -25.6050  -14.7280   21.7430 C   0  0  0  0  0  0  0  0  0  0  0  0
  -24.9390  -13.9120   21.1000 O   0  0  0  0  0  0  0  0  0  0  0  0
  -25.2420  -15.0640   23.2260 C   0  0  0  0  0  2  0  0  0  0  0  0
  -23.8340  -14.6280   23.8600 C   0  0  0  0  0  2  0  0  0  0  0  0
  -23.2260  -15.4370   25.1150 C   0  0  0  0  0  2  0  0  0  0  0  0
  -21.6610  -15.8340   25.1790 C   0  0  0  0  0  3  0  0  0  0  0  0
  -21.1380  -17.1940   25.8980 C   0  0  0  0  0  3  0  0  0  0  0  0
  -19.5730  -17.5530   26.1920 C   0  0  0  0  0  3  0  0  0  0  0  0
  -18.5550  -18.4970   25.3340 C   0  0  0  0  0  3  0  0  0  0  0  0
  -19.0310  -19.4840   24.1640 C   0  0  0  0  0  2  0  0  0  0  0  0
  -16.9070  -20.7990   23.4940 C   0  0  0  0  0  0  0  0  0  0  0  0
  -16.0670  -18.8100   23.7670 C   0  0  0  0  0  2  0  0  0  0  0  0
  -16.3130  -17.7370   24.6870 C   0  0  0  0  0  2  0  0  0  0  0  0
  -15.6720  -17.9190   26.0610 C   0  0  0  0  0  2  0  0  0  0  0  0
  -14.8390  -19.2040   26.1330 C   0  0  0  0  0  3  0  0  0  0  0  0
  -15.6870  -20.4150   25.6940 C   0  0  0  0  0  2  0  0  0  0  0  0
  -16.2450  -20.0900   24.3650 N   0  0  0  0  0  0  0  0  0  0  0  0
  -16.5320  -20.9130   22.3060 O   0  0  0  0  0  0  0  0  0  0  0  0
  -18.2280  -20.7470   23.8710 N   0  0  0  0  0  0  0  0  0  0  0  0
  -18.8040  -21.4500   23.4290 H   0  0  0  0  0  0  0  0  0  0  0  0
  -12.9050  -19.2470   27.7930 C   0  0  0  0  0  0  0  0  0  0  0  0
  -12.8830  -19.2830   29.1540 C   0  0  0  0  0  0  0  0  0  0  0  0
  -14.2440  -19.3530   29.5800 C   0  0  0  0  0  0  0  0  0  0  0  0
  -14.2400  -19.3250   27.4420 N   0  0  0  0  0  0  0  0  0  0  0  0
  -15.0480  -19.4260   28.5270 N   0  0  0  0  0  0  0  0  0  0  0  0
  -14.8310  -19.3080   30.9230 C   0  0  0  0  0  0  0  0  0  0  0  0
  -15.6100  -20.3800   31.4130 C   0  0  0  0  0  3  0  0  0  0  0  0
  -16.1480  -20.3350   32.7160 C   0  0  0  0  0  3  0  0  0  0  0  0
  -15.9090  -19.2080   33.5400 C   0  0  0  0  0  0  0  0  0  0  0  0
  -15.1550  -18.1380   33.0370 C   0  0  0  0  0  3  0  0  0  0  0  0
  -14.6140  -18.1840   31.7480 C   0  0  0  0  0  3  0  0  0  0  0  0
  -16.4120  -19.0550   34.8050 O   0  0  0  0  0  0  0  0  0  0  0  0
  -16.5770  -20.1220   35.6500 C   0  0  0  0  0  0  0  0  0  0  0  0
  -15.5060  -20.9680   36.0160 C   0  0  0  0  0  3  0  0  0  0  0  0
  -15.7190  -22.0190   36.9260 C   0  0  0  0  0  3  0  0  0  0  0  0
  -17.0020  -22.2270   37.4720 C   0  0  0  0  0  0  0  0  0  0  0  0
  -18.0670  -21.3880   37.1130 C   0  0  0  0  0  3  0  0  0  0  0  0
  -17.8550  -20.3330   36.2010 C   0  0  0  0  0  0  0  0  0  0  0  0
  -18.8800  -19.5120   35.8710 F   0  0  0  0  0  0  0  0  0  0  0  0
  -17.2100  -23.2340   38.3530 F   0  0  0  0  0  0  0  0  0  0  0  0
  -11.6670  -19.1920   30.0280 C   0  0  0  0  0  0  0  0  0  0  0  0
  -11.6480  -19.9290   31.1310 N   0  0  0  0  0  0  0  0  0  0  0  0
  -10.6870  -18.5270   29.6940 O   0  0  0  0  0  0  0  0  0  0  0  0
  -12.4330  -20.5100   31.3970 H   0  0  0  0  0  0  0  0  0  0  0  0
  -10.8250  -19.9090   31.7170 H   0  0  0  0  0  0  0  0  0  0  0  0
  -11.9060  -19.1420   26.8240 N   0  0  0  0  0  0  0  0  0  0  0  0
  -10.9190  -19.1040   27.0680 H   0  0  0  0  0  0  0  0  0  0  0  0
  -12.0710  -19.2650   25.8360 H   0  0  0  0  0  0  0  0  0  0  0  0
  1  2  1  0
  3  4  1  0
  3  6  2  0
  4  1  2  0
  5 52  1  0
  5  2  2  0
  6  5  1  0
  7  6  1  0
  8  4  1  0
  8  9  2  0
 10  8  1  0
 11 10  1  0
 11 13  1  0
 12 23  2  0
 13 19  2  0
 13 18  1  0
 14 24  1  0
 15 21  1  0
 16 22  1  0
 17 15  1  0
 17 16  1  0
 18 17  2  0
 19 20  1  0
 20 15  2  0
 21 14  1  0
 22 14  1  0
 22 12  1  0
 24 26  2  0
 25 24  1  0
 27 25  1  0
 28 32  1  0
 29 25  1  0
 29 30  1  0
 31 32  1  0
 31 30  1  0
 33 28  1  0
 33 29  1  0
 34 33  2  0
 35 36  2  0
 35 34  1  0
 36 37  1  0
 37 28  2  0
 38 12  1  0
 38 39  1  0
 38 48  1  0
 39 42  1  0
 40 44  1  0
 40 39  1  0
 41 40  2  0
 44 43  1  0
 46 47  1  0
 46 45  1  0
 46 44  1  0
 48 49  1  1
 50 48  1  0
 51 48  1  0
 52 53  1  0
 53 54  1  0
 54 56  1  0
 55 54  2  0
 56 57  1  0
 57 58  1  0
 58 59  1  0
 59 60  2  0
 60 61  1  0
 62 61  2  0
 63 62  1  0
 64 72  1  0
 64 70  1  0
 65 70  1  0
 65 66  1  0
 66 67  1  0
 67 68  1  0
 68 69  1  0
 68 77  1  0
 70 69  1  0
 71 64  2  0
 72 63  1  0
 73 72  1  0
 74 75  2  0
 75 76  1  0
 75 94  1  0
 76 79  1  0
 77 74  1  0
 77 78  1  0
 78 76  2  0
 79 80  2  0
 79 84  1  0
 80 81  1  0
 81 82  2  0
 82 85  1  0
 83 82  1  0
 84 83  2  0
 85 86  1  0
 86 87  2  0
 86 91  1  0
 87 88  1  0
 88 89  2  0
 89 93  1  0
 90 89  1  0
 91 90  2  0
 92 91  1  0
 94 95  1  0
 95 97  1  0
 95 98  1  0
 96 94  2  0
 99100  1  0
 99 74  1  0
101 99  1  0
M  ISO  4  10 101  11 101  64 100  72 100
M  END
>  <TORSDO>  (27) 
F 29

>  <SCORE>  (27) 
18.697

>  <name>  (27) 
26

>  <ligand_id>  (27) 
26

>  <original_smiles>  (27) 
[H]c1c([H])c([H])c2c(c1[H])C([H])([H])C([H])([H])C([H])([H])C2([H])N([H])C(=O)C1([H])N(C(=O)C([H])(N([H])C(=O)C([H])(N([H])C([H])([H])[H])C([H])([H])[H])C(C([H])([H])[H])(C([H])([H])[H])C([H])([H])[H])C([H])([H])c2c([H])c(OC([H])([H])C(=O)c3c([H])c([H])c(C([H])([H])C([H])([H])C(=O)C([H])([H])C([H])([H])C([H])([H])C([H])([H])C([H])([H])C([H])([H])C([H])([H])C([H])([H])N([H])C(=O)N4C([H])([H])C([H])([H])C([H])([H])C([H])(n5nc(-c6c([H])c([H])c(Oc7c([H])c([H])c(F)c([H])c7F)c([H])c6[H])c(C(=O)N([H])[H])c5N([H])[H])C4([H])[H])c(C([H])([H])[H])c3[H])c([H])c([H])c2C1([H])[H]

>  <smiles>  (27) 
[H]c1c([H])c([H])c2c(c1[H])C([H])([H])C([H])([H])C([H])([H])C2([H])N([H])C(=O)C1([H])N(C(=O)C([H])(N([H])C(=O)C([H])(N([H])C([H])([H])[H])C([H])([H])[H])C(C([H])([H])[H])(C([H])([H])[H])C([H])([H])[H])C([H])([H])c2c([H])c(OC([H])([H])C(=O)c3c([H])c([H])c(C([H])([H])C([H])([H])C(=O)C([H])([H])C([H])([H])C([H])([H])C([H])([H])C([H])([H])C([H])([H])C([H])([H])C([H])([H])N([H])C(=O)N4C([H])([H])C([H])([H])C([H])([H])C([H])(n5nc(-c6c([H])c([H])c(Oc7c([H])c([H])c(F)c([H])c7F)c([H])c6[H])c(C(=O)N([H])[H])c5N([H])[H])C4([H])[H])c(C([H])([H])[H])c3[H])c([H])c([H])c2C1([H])[H]

$$$$
27:0:0
     RDKit          3D

 95102  0  0  1  0  0  0  0  0999 V2000
  -32.6850  -24.6220   23.4680 C   0  0  0  0  0  2  0  0  0  0  0  0
  -33.5890  -23.4760   23.9490 C   0  0  0  0  0  0  0  0  0  0  0  0
  -33.0340  -22.2680   24.1370 N   0  0  0  0  0  0  0  0  0  0  0  0
  -34.7750  -23.7040   24.2000 O   0  0  0  0  0  0  0  0  0  0  0  0
  -32.0560  -22.1600   23.9030 H   0  0  0  0  0  0  0  0  0  0  0  0
  -33.6970  -21.1240   24.7670 C   0  0  0  0  0  2  0  0  0  0  0  0
  -33.9780  -19.9660   23.7900 C   0  0  0  0  0  2  0  0  0  0  0  0
  -32.7540  -19.0970   23.4210 C   0  0  0  0  0  2  0  0  0  0  0  0
  -33.1770  -17.7920   22.7120 C   0  0  0  0  0  2  0  0  0  0  0  0
  -32.1550  -16.6370   22.7520 C   0  0  0  0  0  2  0  0  0  0  0  0
  -30.9440  -16.7770   21.8110 C   0  0  0  0  0  2  0  0  0  0  0  0
  -30.1420  -15.4590   21.6540 C   0  0  0  0  0  2  0  0  0  0  0  0
  -30.7270  -14.4090   20.6800 C   0  0  0  0  0  0  0  0  0  0  0  0
  -30.4270  -12.3040   19.4130 C   0  0  0  0  0  2  0  0  0  0  0  0
  -29.4950  -12.5300   18.2070 C   0  0  0  0  0  2  0  0  0  0  0  0
  -28.0190  -12.3750   18.6200 C   0  0  0  0  0  2  0  0  0  0  0  0
  -27.6680  -13.2020   19.8850 C   0  0  0  0  0  3  0  0  0  0  0  0
  -28.7050  -12.9540   21.0040 C   0  0  0  0  0  2  0  0  0  0  0  0
  -30.0420  -13.2550   20.4650 N   0  0  0  0  0  0  0  0  0  0  0  0
  -31.7850  -14.6610   20.0920 O   0  0  0  0  0  0  0  0  0  0  0  0
  -25.2610  -13.8150   20.5700 C   0  0  0  0  0  0  0  0  0  0  0  0
  -24.1860  -13.0440   20.9180 C   0  0  0  0  0  0  0  0  0  0  0  0
  -24.6410  -11.6900   20.8740 C   0  0  0  0  0  0  0  0  0  0  0  0
  -26.3050  -12.9320   20.3400 N   0  0  0  0  0  0  0  0  0  0  0  0
  -25.9330  -11.6480   20.5780 N   0  0  0  0  0  0  0  0  0  0  0  0
  -23.9070  -10.4300   21.0410 C   0  0  0  0  0  0  0  0  0  0  0  0
  -24.3620   -9.4210   21.9190 C   0  0  0  0  0  3  0  0  0  0  0  0
  -23.6300   -8.2250   22.0750 C   0  0  0  0  0  3  0  0  0  0  0  0
  -22.4280   -8.0280   21.3540 C   0  0  0  0  0  0  0  0  0  0  0  0
  -21.9930   -9.0250   20.4640 C   0  0  0  0  0  3  0  0  0  0  0  0
  -22.7250  -10.2130   20.3060 C   0  0  0  0  0  3  0  0  0  0  0  0
  -21.6640   -6.8890   21.4250 O   0  0  0  0  0  0  0  0  0  0  0  0
  -21.6850   -6.0740   22.5290 C   0  0  0  0  0  0  0  0  0  0  0  0
  -21.4010   -6.5640   23.8220 C   0  0  0  0  0  3  0  0  0  0  0  0
  -21.3660   -5.6790   24.9180 C   0  0  0  0  0  3  0  0  0  0  0  0
  -21.6050   -4.3060   24.7230 C   0  0  0  0  0  0  0  0  0  0  0  0
  -21.8810   -3.8150   23.4350 C   0  0  0  0  0  3  0  0  0  0  0  0
  -21.9190   -4.6970   22.3410 C   0  0  0  0  0  0  0  0  0  0  0  0
  -22.1660   -4.2160   21.0980 F   0  0  0  0  0  0  0  0  0  0  0  0
  -21.5640   -3.4540   25.7740 F   0  0  0  0  0  0  0  0  0  0  0  0
  -22.7880  -13.5230   21.1850 C   0  0  0  0  0  0  0  0  0  0  0  0
  -22.0520  -12.8210   22.0390 N   0  0  0  0  0  0  0  0  0  0  0  0
  -22.3570  -14.5560   20.6730 O   0  0  0  0  0  0  0  0  0  0  0  0
  -22.4110  -11.9840   22.4750 H   0  0  0  0  0  0  0  0  0  0  0  0
  -21.1130  -13.1230   22.2620 H   0  0  0  0  0  0  0  0  0  0  0  0
  -25.4320  -15.1880   20.4110 N   0  0  0  0  0  0  0  0  0  0  0  0
  -24.6680  -15.8440   20.5290 H   0  0  0  0  0  0  0  0  0  0  0  0
  -26.2900  -15.6300   20.1050 H   0  0  0  0  0  0  0  0  0  0  0  0
  -34.0950  -25.0880   21.3680 C   0  0  0  0  0  1  0  0  0  0  0  0
  -32.6720  -24.8720   21.9310 C   0  0  0  0  0  3  0  0  0  0  0  0
  -31.7880  -26.0920   21.5470 C   0  0  0  0  0  2  0  0  0  0  0  0
  -29.5210  -25.2890   22.4760 C   0  0  0  0  0  1  0  0  0  0  0  0
  -30.2950  -25.8100   21.2500 C   0  0  0  0  0  3  0  0  0  0  0  0
  -29.6010  -27.0750   20.7030 C   0  0  0  0  0  2  0  0  0  0  0  0
  -28.3910  -26.6870   20.0470 O   0  0  0  0  0  0  0  0  0  0  0  0
  -24.6120  -31.8710   23.2150 C   0  0  0  0  0  0  0  0  0  0  0  0
  -27.2670  -27.4850   20.1040 C   0  0  0  0  0  0  0  0  0  0  0  0
  -23.3980  -30.4920   21.5500 C   0  0  0  0  0  3  0  0  0  0  0  0
  -24.8500  -28.9610   20.1150 C   0  0  0  0  0  0  0  0  0  0  0  0
  -25.9160  -30.8580   21.3500 C   0  0  0  0  0  2  0  0  0  0  0  0
  -26.0020  -29.4920   20.7070 C   0  0  0  0  0  0  0  0  0  0  0  0
  -27.2100  -28.7680   20.6990 C   0  0  0  0  0  3  0  0  0  0  0  0
  -26.0960  -26.9640   19.5130 C   0  0  0  0  0  3  0  0  0  0  0  0
  -24.8900  -27.6910   19.5130 C   0  0  0  0  0  3  0  0  0  0  0  0
  -23.6070  -29.8190   20.1640 C   0  0  0  0  0  2  0  0  0  0  0  0
  -24.6590  -31.0850   22.1010 N   0  0  0  0  0  0  0  0  0  0  0  0
  -23.5330  -32.1420   23.7580 O   0  0  0  0  0  0  0  0  0  0  0  0
  -22.7400  -29.4650   22.5000 C   0  0  0  0  0  0  0  0  0  0  0  0
  -21.4130  -29.3000   22.3720 N   0  0  0  0  0  0  0  0  0  0  0  0
  -23.4190  -28.8180   23.3010 O   0  0  0  0  0  0  0  0  0  0  0  0
  -20.9260  -29.8770   21.7000 H   0  0  0  0  0  0  0  0  0  0  0  0
  -18.0270  -28.1320   22.8460 C   0  0  0  0  0  0  0  0  0  0  0  0
  -20.5870  -28.3610   23.1280 C   0  0  0  0  0  3  0  0  0  0  0  0
  -20.6770  -26.9360   22.5370 C   0  0  0  0  0  2  0  0  0  0  0  0
  -19.5780  -26.6350   21.5140 C   0  0  0  0  0  2  0  0  0  0  0  0
  -18.1950  -26.7860   22.1570 C   0  0  0  0  0  2  0  0  0  0  0  0
  -19.1520  -28.8790   23.2870 C   0  0  0  0  0  0  0  0  0  0  0  0
  -18.9450  -30.1400   23.8880 C   0  0  0  0  0  3  0  0  0  0  0  0
  -17.6460  -30.6540   24.0530 C   0  0  0  0  0  3  0  0  0  0  0  0
  -16.5350  -29.9040   23.6300 C   0  0  0  0  0  3  0  0  0  0  0  0
  -16.7260  -28.6450   23.0310 C   0  0  0  0  0  3  0  0  0  0  0  0
  -25.9040  -32.4830   23.8440 C   0  0  0  0  0  3  0  0  0  0  0  0
  -26.4490  -31.6560   25.0720 C   0  0  1  0  0  0  0  0  0  0  0  0
  -25.3780  -31.3570   26.1480 C   0  0  0  0  0  1  0  0  0  0  0  0
  -27.0310  -30.3060   24.5960 C   0  0  0  0  0  1  0  0  0  0  0  0
  -27.6120  -32.4210   25.7480 C   0  0  0  0  0  1  0  0  0  0  0  0
  -25.5920  -33.8620   24.2430 N   0  0  0  0  0  0  0  0  0  0  0  0
  -25.9010  -34.9470   23.5200 C   0  0  0  0  0  0  0  0  0  0  0  0
  -26.5550  -34.8920   22.4740 O   0  0  0  0  0  0  0  0  0  0  0  0
  -25.0240  -33.9810   25.0700 H   0  0  0  0  0  0  0  0  0  0  0  0
  -24.1490  -36.7290   23.2630 C   0  0  0  0  0  1  0  0  0  0  0  0
  -25.4090  -36.3130   24.0370 C   0  0  0  0  0  3  0  0  0  0  0  0
  -27.5590  -37.1830   24.8490 C   0  0  0  0  0  1  0  0  0  0  0  0
  -26.4290  -37.3790   23.9420 N   0  0  0  0  0  0  0  0  0  0  0  0
  -26.0190  -38.2860   24.1450 H   0  0  0  0  0  0  0  0  0  0  0  0
  1  2  1  0
  2  3  1  0
  2  4  2  0
  3  6  1  0
  5  3  1  0
  7  6  1  0
  8  7  1  0
  9 10  1  0
  9  8  1  0
 11 10  1  0
 12 11  1  0
 13 12  1  0
 14 19  1  0
 15 16  1  0
 15 14  1  0
 17 16  1  0
 17 24  1  0
 17 18  1  0
 19 13  1  0
 19 18  1  0
 20 13  2  0
 21 22  2  0
 22 41  1  0
 23 22  1  0
 23 26  1  0
 24 21  1  0
 24 25  1  0
 25 23  2  0
 26 27  1  0
 27 28  2  0
 29 32  1  0
 29 28  1  0
 30 29  2  0
 31 30  1  0
 31 26  2  0
 32 33  1  0
 33 34  1  0
 34 35  2  0
 36 35  1  0
 36 40  1  0
 37 36  2  0
 38 33  2  0
 38 37  1  0
 39 38  1  0
 41 42  1  0
 42 45  1  0
 42 44  1  0
 43 41  2  0
 46 47  1  0
 46 21  1  0
 48 46  1  0
 50 49  1  0
 50  1  1  0
 51 50  1  0
 53 51  1  0
 53 52  1  0
 54 53  1  0
 55 57  1  0
 55 54  1  0
 56 67  2  0
 57 62  1  0
 58 66  1  0
 58 68  1  0
 59 65  1  0
 59 61  1  0
 60 66  1  0
 61 60  1  0
 62 61  2  0
 63 57  2  0
 64 63  1  0
 64 59  2  0
 65 58  1  0
 66 56  1  0
 68 70  2  0
 69 68  1  0
 71 69  1  0
 72 81  2  0
 72 77  1  0
 73 69  1  0
 73 77  1  0
 74 73  1  0
 75 76  1  0
 75 74  1  0
 76 72  1  0
 77 78  2  0
 78 79  1  0
 80 79  2  0
 81 80  1  0
 82 56  1  0
 82 87  1  0
 82 83  1  0
 83 86  1  1
 83 84  1  0
 85 83  1  0
 87 90  1  0
 88 92  1  0
 88 87  1  0
 89 88  2  0
 92 91  1  0
 94 92  1  0
 94 95  1  0
 94 93  1  0
M  ISO  4  12 100  13 100  54 101  55 101
M  END
>  <TORSDO>  (28) 
F 28

>  <SCORE>  (28) 
22.321

>  <name>  (28) 
27

>  <ligand_id>  (28) 
27

>  <original_smiles>  (28) 
[H]c1c([H])c([H])c2c(c1[H])C([H])([H])C([H])([H])C([H])([H])C2([H])N([H])C(=O)C1([H])N(C(=O)C([H])(N([H])C(=O)C([H])(N([H])C([H])([H])[H])C([H])([H])[H])C(C([H])([H])[H])(C([H])([H])[H])C([H])([H])[H])C([H])([H])c2c([H])c(OC([H])([H])C([H])(C([H])([H])[H])C([H])([H])C([H])(C([H])([H])[H])C([H])([H])C(=O)N([H])C([H])([H])C([H])([H])C([H])([H])C([H])([H])C([H])([H])C([H])([H])C([H])([H])C(=O)N3C([H])([H])C([H])([H])C([H])([H])C([H])(n4nc(-c5c([H])c([H])c(Oc6c([H])c([H])c(F)c([H])c6F)c([H])c5[H])c(C(=O)N([H])[H])c4N([H])[H])C3([H])[H])c([H])c([H])c2C1([H])[H]

>  <smiles>  (28) 
[H]c1c([H])c([H])c2c(c1[H])C([H])([H])C([H])([H])C([H])([H])C2([H])N([H])C(=O)C1([H])N(C(=O)C([H])(N([H])C(=O)C([H])(N([H])C([H])([H])[H])C([H])([H])[H])C(C([H])([H])[H])(C([H])([H])[H])C([H])([H])[H])C([H])([H])c2c([H])c(OC([H])([H])C([H])(C([H])([H])[H])C([H])([H])C([H])(C([H])([H])[H])C([H])([H])C(=O)N([H])C([H])([H])C([H])([H])C([H])([H])C([H])([H])C([H])([H])C([H])([H])C([H])([H])C(=O)N3C([H])([H])C([H])([H])C([H])([H])C([H])(n4nc(-c5c([H])c([H])c(Oc6c([H])c([H])c(F)c([H])c6F)c([H])c5[H])c(C(=O)N([H])[H])c4N([H])[H])C3([H])[H])c([H])c([H])c2C1([H])[H]

$$$$
28:0:0
     RDKit          3D

 98107  0  0  1  0  0  0  0  0999 V2000
  -30.3130  -22.6960   20.3780 C   0  0  0  0  0  0  0  0  0  0  0  0
  -29.7150  -22.0440   19.3750 N   0  0  0  0  0  0  0  0  0  0  0  0
  -31.3080  -22.2620   20.9600 O   0  0  0  0  0  0  0  0  0  0  0  0
  -28.7840  -22.3920   19.2120 H   0  0  0  0  0  0  0  0  0  0  0  0
  -30.3510  -25.2380   21.0770 C   0  0  0  0  0  3  0  0  0  0  0  0
  -28.3860  -24.2650   20.6040 C   0  0  0  0  0  3  0  0  0  0  0  0
  -29.7300  -24.0160   20.6930 C   0  0  0  0  0  0  0  0  0  0  0  0
  -29.3750  -26.1900   21.1850 C   0  0  0  0  0  0  0  0  0  0  0  0
  -26.8390  -26.2140   20.8620 C   0  0  0  0  0  1  0  0  0  0  0  0
  -28.1570  -25.5950   20.8800 N   0  0  0  0  0  0  0  0  0  0  0  0
  -29.4730  -27.6050   21.6300 C   0  0  0  0  0  2  0  0  0  0  0  0
  -30.0730  -27.4740   22.9080 O   0  0  0  0  0  0  0  0  0  0  0  0
  -28.2320  -31.3920   28.5150 C   0  0  0  0  0  0  0  0  0  0  0  0
  -30.4040  -28.5630   23.6720 C   0  0  0  0  0  0  0  0  0  0  0  0
  -30.1750  -32.2190   27.2300 C   0  0  0  0  0  3  0  0  0  0  0  0
  -31.0820  -30.6420   25.4510 C   0  0  0  0  0  0  0  0  0  0  0  0
  -29.5860  -29.7340   27.2370 C   0  0  0  0  0  2  0  0  0  0  0  0
  -30.1690  -29.6590   25.8430 C   0  0  0  0  0  0  0  0  0  0  0  0
  -29.8270  -28.6240   24.9540 C   0  0  0  0  0  3  0  0  0  0  0  0
  -31.3090  -29.5780   23.2770 C   0  0  0  0  0  3  0  0  0  0  0  0
  -31.6420  -30.6160   24.1640 C   0  0  0  0  0  3  0  0  0  0  0  0
  -31.4270  -31.6970   26.4750 C   0  0  0  0  0  2  0  0  0  0  0  0
  -29.2700  -31.1120   27.6780 N   0  0  0  0  0  0  0  0  0  0  0  0
  -28.0480  -32.5380   28.9500 O   0  0  0  0  0  0  0  0  0  0  0  0
  -29.4710  -33.2680   26.3390 C   0  0  0  0  0  0  0  0  0  0  0  0
  -29.1510  -32.8720   25.0970 N   0  0  0  0  0  0  0  0  0  0  0  0
  -29.2020  -34.3900   26.7740 O   0  0  0  0  0  0  0  0  0  0  0  0
  -29.4230  -31.9420   24.8130 H   0  0  0  0  0  0  0  0  0  0  0  0
  -25.9080  -33.5310   23.6610 C   0  0  0  0  0  0  0  0  0  0  0  0
  -28.4500  -33.6720   24.0920 C   0  0  0  0  0  3  0  0  0  0  0  0
  -28.1840  -35.1060   24.6060 C   0  0  0  0  0  2  0  0  0  0  0  0
  -26.8120  -35.2610   25.2700 C   0  0  0  0  0  2  0  0  0  0  0  0
  -25.6950  -34.8960   24.2880 C   0  0  0  0  0  2  0  0  0  0  0  0
  -27.2000  -32.9500   23.5800 C   0  0  0  0  0  0  0  0  0  0  0  0
  -27.3360  -31.6620   23.0170 C   0  0  0  0  0  3  0  0  0  0  0  0
  -26.2100  -30.9610   22.5420 C   0  0  0  0  0  3  0  0  0  0  0  0
  -24.9360  -31.5520   22.6030 C   0  0  0  0  0  3  0  0  0  0  0  0
  -24.7890  -32.8360   23.1570 C   0  0  0  0  0  3  0  0  0  0  0  0
  -27.2370  -30.2830   28.9880 C   0  0  0  0  0  3  0  0  0  0  0  0
  -26.5780  -30.7790   30.2030 N   0  0  0  0  0  0  0  0  0  0  0  0
  -26.7080  -30.2230   31.4150 C   0  0  0  0  0  0  0  0  0  0  0  0
  -27.3490  -29.1870   31.6130 O   0  0  0  0  0  0  0  0  0  0  0  0
  -26.0860  -31.6560   30.1240 H   0  0  0  0  0  0  0  0  0  0  0  0
  -27.0750  -31.3940   33.6080 C   0  0  0  0  0  1  0  0  0  0  0  0
  -26.0170  -30.9290   32.5960 C   0  0  0  0  0  3  0  0  0  0  0  0
  -23.7980  -29.8780   32.4960 C   0  0  0  0  0  1  0  0  0  0  0  0
  -25.0140  -30.0830   33.2780 N   0  0  0  0  0  0  0  0  0  0  0  0
  -24.7500  -30.4900   34.1700 H   0  0  0  0  0  0  0  0  0  0  0  0
  -26.1710  -29.8950   27.8940 C   0  0  1  0  0  0  0  0  0  0  0  0
  -25.7190  -31.0800   27.0110 C   0  0  0  0  0  1  0  0  0  0  0  0
  -26.7370  -28.7980   26.9650 C   0  0  0  0  0  1  0  0  0  0  0  0
  -24.9090  -29.3010   28.5630 C   0  0  0  0  0  1  0  0  0  0  0  0
  -32.2760  -22.0170   16.6900 C   0  0  0  0  0  3  0  0  0  0  0  0
  -30.3050  -20.8240   15.9070 C   0  0  0  0  0  3  0  0  0  0  0  0
  -31.6740  -22.2080   17.9370 C   0  0  0  0  0  3  0  0  0  0  0  0
  -29.6920  -21.0130   17.1630 C   0  0  0  0  0  3  0  0  0  0  0  0
  -31.5920  -21.3500   15.6540 C   0  0  0  0  0  0  0  0  0  0  0  0
  -30.3730  -21.7110   18.1780 C   0  0  0  0  0  0  0  0  0  0  0  0
  -32.2260  -21.2060   14.2780 C   0  0  0  0  0  2  0  0  0  0  0  0
  -33.3210  -22.2560   13.9760 C   0  0  0  0  0  2  0  0  0  0  0  0
  -34.7250  -21.8810   14.4910 C   0  0  0  0  0  2  0  0  0  0  0  0
  -35.6690  -23.0810   14.7040 C   0  0  0  0  0  2  0  0  0  0  0  0
  -37.1050  -22.6360   15.0280 C   0  0  0  0  0  0  0  0  0  0  0  0
  -39.4930  -23.2270   15.2210 C   0  0  0  0  0  2  0  0  0  0  0  0
  -39.9580  -23.3200   16.6820 C   0  0  0  0  0  2  0  0  0  0  0  0
  -39.6900  -24.7270   17.2460 C   0  0  0  0  0  2  0  0  0  0  0  0
  -38.2310  -25.1940   17.0010 C   0  0  0  0  0  3  0  0  0  0  0  0
  -37.8270  -24.9870   15.5240 C   0  0  0  0  0  2  0  0  0  0  0  0
  -38.0680  -23.5780   15.1680 N   0  0  0  0  0  0  0  0  0  0  0  0
  -37.3570  -21.4260   15.0580 O   0  0  0  0  0  0  0  0  0  0  0  0
  -37.1450  -27.1000   18.3510 C   0  0  0  0  0  0  0  0  0  0  0  0
  -37.4230  -28.4390   18.4270 C   0  0  0  0  0  0  0  0  0  0  0  0
  -38.5040  -28.6700   17.5220 C   0  0  0  0  0  0  0  0  0  0  0  0
  -38.0360  -26.5790   17.4260 N   0  0  0  0  0  0  0  0  0  0  0  0
  -38.8230  -27.5480   16.8910 N   0  0  0  0  0  0  0  0  0  0  0  0
  -39.2930  -29.8810   17.2620 C   0  0  0  0  0  0  0  0  0  0  0  0
  -39.3830  -30.4400   15.9680 C   0  0  0  0  0  3  0  0  0  0  0  0
  -40.1310  -31.6160   15.7470 C   0  0  0  0  0  3  0  0  0  0  0  0
  -40.7970  -32.2470   16.8250 C   0  0  0  0  0  0  0  0  0  0  0  0
  -40.7210  -31.6750   18.1060 C   0  0  0  0  0  3  0  0  0  0  0  0
  -39.9800  -30.5010   18.3240 C   0  0  0  0  0  3  0  0  0  0  0  0
  -41.5660  -33.3780   16.6990 O   0  0  0  0  0  0  0  0  0  0  0  0
  -41.3490  -34.2910   15.6990 C   0  0  0  0  0  0  0  0  0  0  0  0
  -40.1560  -35.0440   15.6230 C   0  0  0  0  0  3  0  0  0  0  0  0
  -40.0030  -36.0210   14.6190 C   0  0  0  0  0  3  0  0  0  0  0  0
  -41.0420  -36.2520   13.6980 C   0  0  0  0  0  0  0  0  0  0  0  0
  -42.2310  -35.5070   13.7740 C   0  0  0  0  0  3  0  0  0  0  0  0
  -42.3850  -34.5310   14.7740 C   0  0  0  0  0  0  0  0  0  0  0  0
  -43.5410  -33.8300   14.8570 F   0  0  0  0  0  0  0  0  0  0  0  0
  -40.8990  -37.1960   12.7370 F   0  0  0  0  0  0  0  0  0  0  0  0
  -36.7860  -29.4360   19.3530 C   0  0  0  0  0  0  0  0  0  0  0  0
  -36.5110  -30.6400   18.8640 N   0  0  0  0  0  0  0  0  0  0  0  0
  -36.4830  -29.1350   20.5070 O   0  0  0  0  0  0  0  0  0  0  0  0
  -36.7380  -30.8830   17.9100 H   0  0  0  0  0  0  0  0  0  0  0  0
  -36.0670  -31.3310   19.4510 H   0  0  0  0  0  0  0  0  0  0  0  0
  -36.2300  -26.2800   19.0060 N   0  0  0  0  0  0  0  0  0  0  0  0
  -35.6080  -26.6250   19.7300 H   0  0  0  0  0  0  0  0  0  0  0  0
  -36.1610  -25.2800   18.8680 H   0  0  0  0  0  0  0  0  0  0  0  0
  1  7  1  0
  1  3  2  0
  2  1  1  0
  4  2  1  0
  5  8  2  0
  6  7  2  0
  6 10  1  0
  7  5  1  0
  8 11  1  0
  9 10  1  0
 10  8  1  0
 11 12  1  0
 12 14  1  0
 13 24  2  0
 14 19  1  0
 15 25  1  0
 15 23  1  0
 16 18  1  0
 16 22  1  0
 17 23  1  0
 18 17  1  0
 19 18  2  0
 20 14  2  0
 20 21  1  0
 21 16  2  0
 22 15  1  0
 23 13  1  0
 25 27  2  0
 26 25  1  0
 28 26  1  0
 29 33  1  0
 30 31  1  0
 30 26  1  0
 31 32  1  0
 33 32  1  0
 34 29  1  0
 34 30  1  0
 35 34  2  0
 36 37  2  0
 36 35  1  0
 37 38  1  0
 38 29  2  0
 39 13  1  0
 39 40  1  0
 40 41  1  0
 41 42  2  0
 41 45  1  0
 43 40  1  0
 45 47  1  0
 45 44  1  0
 46 47  1  0
 47 48  1  0
 49 52  1  1
 49 39  1  0
 50 49  1  0
 51 49  1  0
 53 55  1  0
 54 56  2  0
 55 58  2  0
 56 58  1  0
 57 54  1  0
 57 53  2  0
 58  2  1  0
 59 57  1  0
 60 59  1  0
 60 61  1  0
 61 62  1  0
 62 63  1  0
 63 70  2  0
 63 69  1  0
 64 65  1  0
 65 66  1  0
 67 68  1  0
 67 66  1  0
 67 74  1  0
 69 64  1  0
 69 68  1  0
 71 72  2  0
 71 96  1  0
 72 91  1  0
 73 72  1  0
 74 71  1  0
 75 74  1  0
 75 73  2  0
 76 73  1  0
 76 81  1  0
 77 76  2  0
 78 77  1  0
 78 79  2  0
 79 80  1  0
 80 81  2  0
 82 79  1  0
 83 82  1  0
 84 83  1  0
 85 84  2  0
 86 87  2  0
 86 85  1  0
 87 88  1  0
 88 89  1  0
 88 83  2  0
 90 86  1  0
 91 93  2  0
 92 91  1  0
 92 95  1  0
 94 92  1  0
 96 97  1  0
 98 96  1  0
M  ISO  4  11 101  12 101  62 100  63 100
M  END
>  <TORSDO>  (29) 
F 23

>  <SCORE>  (29) 
-3.800

>  <name>  (29) 
28

>  <ligand_id>  (29) 
28

>  <original_smiles>  (29) 
[H]c1c([H])c([H])c2c(c1[H])C([H])([H])C([H])([H])C([H])([H])C2([H])N([H])C(=O)C1([H])N(C(=O)C([H])(N([H])C(=O)C([H])(N([H])C([H])([H])[H])C([H])([H])[H])C(C([H])([H])[H])(C([H])([H])[H])C([H])([H])[H])C([H])([H])c2c([H])c(OC([H])([H])c3c([H])c(C(=O)N([H])c4c([H])c([H])c(C([H])([H])C([H])([H])C([H])([H])C([H])([H])C(=O)N5C([H])([H])C([H])([H])C([H])([H])C([H])(n6nc(-c7c([H])c([H])c(Oc8c([H])c([H])c(F)c([H])c8F)c([H])c7[H])c(C(=O)N([H])[H])c6N([H])[H])C5([H])[H])c([H])c4[H])c([H])n3C([H])([H])[H])c([H])c([H])c2C1([H])[H]

>  <smiles>  (29) 
[H]c1c([H])c([H])c2c(c1[H])C([H])([H])C([H])([H])C([H])([H])C2([H])N([H])C(=O)C1([H])N(C(=O)C([H])(N([H])C(=O)C([H])(N([H])C([H])([H])[H])C([H])([H])[H])C(C([H])([H])[H])(C([H])([H])[H])C([H])([H])[H])C([H])([H])c2c([H])c(OC([H])([H])c3c([H])c(C(=O)N([H])c4c([H])c([H])c(C([H])([H])C([H])([H])C([H])([H])C([H])([H])C(=O)N5C([H])([H])C([H])([H])C([H])([H])C([H])(n6nc(-c7c([H])c([H])c(Oc8c([H])c([H])c(F)c([H])c8F)c([H])c7[H])c(C(=O)N([H])[H])c6N([H])[H])C5([H])[H])c([H])c4[H])c([H])n3C([H])([H])[H])c([H])c([H])c2C1([H])[H]

$$$$
29:0:0
     RDKit          3D

 94103  0  0  1  0  0  0  0  0999 V2000
  -28.5650  -21.1470   17.6270 C   0  0  0  0  0  3  0  0  0  0  0  0
  -28.8630  -19.8720   18.1230 C   0  0  0  0  0  3  0  0  0  0  0  0
  -29.9630  -22.0680   19.3490 C   0  0  0  0  0  3  0  0  0  0  0  0
  -29.0590  -22.2940   18.2840 C   0  0  0  0  0  0  0  0  0  0  0  0
  -29.6970  -19.7630   19.2430 C   0  0  0  0  0  0  0  0  0  0  0  0
  -30.2950  -20.8370   19.8030 N   0  0  0  0  0  0  0  0  0  0  0  0
  -28.5810  -23.6170   17.8110 C   0  0  0  0  0  3  0  0  0  0  0  0
  -28.4050  -24.8080   18.4370 C   0  0  0  0  0  3  0  0  0  0  0  0
  -28.5760  -25.1870   19.9000 C   0  0  0  0  0  2  0  0  0  0  0  0
  -28.4680  -26.6080   20.1240 O   0  0  0  0  0  0  0  0  0  0  0  0
  -24.6630  -31.8610   23.1020 C   0  0  0  0  0  0  0  0  0  0  0  0
  -27.2540  -27.2830   20.1180 C   0  0  0  0  0  0  0  0  0  0  0  0
  -23.4200  -30.4100   21.5350 C   0  0  0  0  0  3  0  0  0  0  0  0
  -24.8420  -28.7930   20.1450 C   0  0  0  0  0  0  0  0  0  0  0  0
  -25.9450  -30.7310   21.2830 C   0  0  0  0  0  2  0  0  0  0  0  0
  -26.0120  -29.3360   20.6890 C   0  0  0  0  0  0  0  0  0  0  0  0
  -27.2100  -28.5830   20.6780 C   0  0  0  0  0  3  0  0  0  0  0  0
  -26.0650  -26.7570   19.5630 C   0  0  0  0  0  3  0  0  0  0  0  0
  -24.8640  -27.5010   19.5840 C   0  0  0  0  0  3  0  0  0  0  0  0
  -23.5960  -29.6530   20.1860 C   0  0  0  0  0  2  0  0  0  0  0  0
  -24.6940  -31.0210   22.0270 N   0  0  0  0  0  0  0  0  0  0  0  0
  -23.5980  -32.1600   23.6570 O   0  0  0  0  0  0  0  0  0  0  0  0
  -22.7780  -29.4380   22.5480 C   0  0  0  0  0  0  0  0  0  0  0  0
  -21.4440  -29.2820   22.4750 N   0  0  0  0  0  0  0  0  0  0  0  0
  -23.4780  -28.8160   23.3520 O   0  0  0  0  0  0  0  0  0  0  0  0
  -20.9180  -29.8750   21.8480 H   0  0  0  0  0  0  0  0  0  0  0  0
  -18.1070  -28.0500   23.0520 C   0  0  0  0  0  0  0  0  0  0  0  0
  -20.6640  -28.3390   23.2740 C   0  0  0  0  0  3  0  0  0  0  0  0
  -20.7830  -26.8970   22.7240 C   0  0  0  0  0  2  0  0  0  0  0  0
  -19.6520  -26.5060   21.7660 C   0  0  0  0  0  2  0  0  0  0  0  0
  -18.2750  -26.6870   22.4130 C   0  0  0  0  0  2  0  0  0  0  0  0
  -19.2220  -28.8300   23.4440 C   0  0  0  0  0  0  0  0  0  0  0  0
  -19.0040  -30.1200   23.9850 C   0  0  0  0  0  3  0  0  0  0  0  0
  -17.7000  -30.6120   24.1690 C   0  0  0  0  0  3  0  0  0  0  0  0
  -16.5970  -29.8260   23.7930 C   0  0  0  0  0  3  0  0  0  0  0  0
  -16.8010  -28.5540   23.2300 C   0  0  0  0  0  3  0  0  0  0  0  0
  -25.9670  -32.5110   23.6670 C   0  0  0  0  0  3  0  0  0  0  0  0
  -26.5650  -31.7260   24.8990 C   0  0  1  0  0  0  0  0  0  0  0  0
  -25.5360  -31.4340   26.0150 C   0  0  0  0  0  1  0  0  0  0  0  0
  -27.1720  -30.3740   24.4580 C   0  0  0  0  0  1  0  0  0  0  0  0
  -27.7210  -32.5390   25.5260 C   0  0  0  0  0  1  0  0  0  0  0  0
  -25.6430  -33.8940   24.0500 N   0  0  0  0  0  0  0  0  0  0  0  0
  -25.9000  -34.9680   23.2930 C   0  0  0  0  0  0  0  0  0  0  0  0
  -26.5020  -34.9000   22.2190 O   0  0  0  0  0  0  0  0  0  0  0  0
  -25.0880  -34.0140   24.8830 H   0  0  0  0  0  0  0  0  0  0  0  0
  -24.1190  -36.7320   23.0710 C   0  0  0  0  0  1  0  0  0  0  0  0
  -25.4070  -36.3340   23.8100 C   0  0  0  0  0  3  0  0  0  0  0  0
  -27.5510  -37.2540   24.5670 C   0  0  0  0  0  1  0  0  0  0  0  0
  -26.4090  -37.4110   23.6720 N   0  0  0  0  0  0  0  0  0  0  0  0
  -25.9890  -38.3200   23.8480 H   0  0  0  0  0  0  0  0  0  0  0  0
  -29.9900  -18.3920   19.8260 C   0  0  0  0  0  2  0  0  0  0  0  0
  -31.8550  -18.3200   21.5760 C   0  0  0  0  0  2  0  0  0  0  0  0
  -32.2530  -16.8440   21.4300 C   0  0  0  0  0  2  0  0  0  0  0  0
  -29.8480  -17.0520   21.9500 C   0  0  0  0  0  2  0  0  0  0  0  0
  -30.3380  -18.3610   21.3290 C   0  0  0  0  0  3  0  0  0  0  0  0
  -30.9860  -16.0280   21.7660 C   0  0  0  0  0  3  0  0  0  0  0  0
  -30.9790  -14.2900   19.7620 C   0  0  0  0  0  0  0  0  0  0  0  0
  -30.4580  -12.2890   18.3740 C   0  0  0  0  0  2  0  0  0  0  0  0
  -29.3570  -12.5740   17.3330 C   0  0  0  0  0  2  0  0  0  0  0  0
  -27.9470  -12.4260   17.9450 C   0  0  0  0  0  2  0  0  0  0  0  0
  -27.8020  -13.2240   19.2610 C   0  0  0  0  0  3  0  0  0  0  0  0
  -28.9600  -12.8550   20.2020 C   0  0  0  0  0  2  0  0  0  0  0  0
  -30.2380  -13.1800   19.5240 N   0  0  0  0  0  0  0  0  0  0  0  0
  -31.9390  -14.6290   19.0530 O   0  0  0  0  0  0  0  0  0  0  0  0
  -30.5640  -14.9320   20.8740 N   0  0  0  0  0  0  0  0  0  0  0  0
  -29.7400  -14.4700   21.2320 H   0  0  0  0  0  0  0  0  0  0  0  0
  -25.5400  -13.9070   20.2970 C   0  0  0  0  0  0  0  0  0  0  0  0
  -24.5010  -13.1630   20.7760 C   0  0  0  0  0  0  0  0  0  0  0  0
  -24.8880  -11.7960   20.6250 C   0  0  0  0  0  0  0  0  0  0  0  0
  -26.5070  -12.9960   19.8970 N   0  0  0  0  0  0  0  0  0  0  0  0
  -26.1240  -11.7200   20.1490 N   0  0  0  0  0  0  0  0  0  0  0  0
  -24.1400  -10.5590   20.8590 C   0  0  0  0  0  0  0  0  0  0  0  0
  -24.5990   -9.5710   21.7570 C   0  0  0  0  0  3  0  0  0  0  0  0
  -23.8470   -8.3970   21.9730 C   0  0  0  0  0  3  0  0  0  0  0  0
  -22.6220   -8.2000   21.2920 C   0  0  0  0  0  0  0  0  0  0  0  0
  -22.1850   -9.1750   20.3780 C   0  0  0  0  0  3  0  0  0  0  0  0
  -22.9370  -10.3400   20.1590 C   0  0  0  0  0  3  0  0  0  0  0  0
  -21.8380   -7.0790   21.4190 O   0  0  0  0  0  0  0  0  0  0  0  0
  -21.7560   -6.3870   22.6010 C   0  0  0  0  0  0  0  0  0  0  0  0
  -21.3240   -7.0000   23.7950 C   0  0  0  0  0  3  0  0  0  0  0  0
  -21.1880   -6.2340   24.9690 C   0  0  0  0  0  3  0  0  0  0  0  0
  -21.4820   -4.8590   24.9530 C   0  0  0  0  0  0  0  0  0  0  0  0
  -21.9090   -4.2450   23.7630 C   0  0  0  0  0  3  0  0  0  0  0  0
  -22.0440   -5.0080   22.5880 C   0  0  0  0  0  0  0  0  0  0  0  0
  -22.4370   -4.4050   21.4390 F   0  0  0  0  0  0  0  0  0  0  0  0
  -21.3450   -4.1220   26.0810 F   0  0  0  0  0  0  0  0  0  0  0  0
  -23.1740  -13.6760   21.2610 C   0  0  0  0  0  0  0  0  0  0  0  0
  -22.5520  -12.9780   22.2040 N   0  0  0  0  0  0  0  0  0  0  0  0
  -22.7100  -14.7350   20.8360 O   0  0  0  0  0  0  0  0  0  0  0  0
  -22.9510  -12.1250   22.5720 H   0  0  0  0  0  0  0  0  0  0  0  0
  -21.6720  -13.3030   22.5750 H   0  0  0  0  0  0  0  0  0  0  0  0
  -25.7430  -15.2810   20.1590 N   0  0  0  0  0  0  0  0  0  0  0  0
  -25.0020  -15.9490   20.3500 H   0  0  0  0  0  0  0  0  0  0  0  0
  -26.5820  -15.7160   19.7990 H   0  0  0  0  0  0  0  0  0  0  0  0
  1  2  2  0
  1  4  1  0
  2  5  1  0
  3  6  1  0
  4  3  2  0
  5  6  2  0
  5 51  1  0
  7  4  1  0
  7  8  2  0
  8  9  1  0
  9 10  1  0
 11 22  2  0
 12 10  1  0
 12 17  1  0
 13 21  1  0
 13 23  1  0
 14 20  1  0
 14 16  1  0
 15 21  1  0
 16 15  1  0
 17 16  2  0
 18 19  1  0
 18 12  2  0
 19 14  2  0
 20 13  1  0
 21 11  1  0
 23 25  2  0
 24 23  1  0
 26 24  1  0
 27 36  2  0
 27 32  1  0
 28 24  1  0
 28 32  1  0
 29 28  1  0
 30 31  1  0
 30 29  1  0
 31 27  1  0
 32 33  2  0
 33 34  1  0
 35 34  2  0
 36 35  1  0
 37 11  1  0
 37 42  1  0
 37 38  1  0
 38 41  1  1
 38 39  1  0
 40 38  1  0
 42 45  1  0
 43 47  1  0
 43 42  1  0
 44 43  2  0
 47 46  1  0
 49 47  1  0
 49 50  1  0
 49 48  1  0
 53 52  1  0
 53 56  1  0
 55 51  1  0
 55 52  1  0
 55 54  1  0
 56 65  1  0
 56 54  1  0
 57 65  1  0
 58 63  1  0
 59 60  1  0
 59 58  1  0
 61 60  1  0
 61 70  1  0
 61 62  1  0
 63 57  1  0
 63 62  1  0
 64 57  2  0
 65 66  1  0
 67 68  2  0
 68 87  1  0
 69 68  1  0
 69 72  1  0
 70 71  1  0
 70 67  1  0
 71 69  2  0
 72 73  1  0
 73 74  2  0
 75 78  1  0
 75 74  1  0
 76 75  2  0
 77 76  1  0
 77 72  2  0
 78 79  1  0
 79 80  1  0
 80 81  2  0
 82 81  1  0
 82 86  1  0
 83 82  2  0
 84 79  2  0
 84 83  1  0
 85 84  1  0
 87 88  1  0
 88 90  1  0
 88 91  1  0
 89 87  2  0
 92 67  1  0
 92 93  1  0
 94 92  1  0
M  ISO  4   9 101  10 101  57 100  65 100
M  END
>  <TORSDO>  (30) 
F 20

>  <SCORE>  (30) 
-12.052

>  <name>  (30) 
29

>  <ligand_id>  (30) 
29

>  <original_smiles>  (30) 
[H]C(=C([H])C([H])([H])Oc1c([H])c([H])c2c(c1[H])C([H])([H])N(C(=O)C([H])(N([H])C(=O)C([H])(N([H])C([H])([H])[H])C([H])([H])[H])C(C([H])([H])[H])(C([H])([H])[H])C([H])([H])[H])C([H])(C(=O)N([H])C1([H])c3c([H])c([H])c([H])c([H])c3C([H])([H])C([H])([H])C1([H])[H])C2([H])[H])c1c([H])nc(C([H])([H])C2([H])C([H])([H])C([H])([H])C([H])(N([H])C(=O)N3C([H])([H])C([H])([H])C([H])([H])C([H])(n4nc(-c5c([H])c([H])c(Oc6c([H])c([H])c(F)c([H])c6F)c([H])c5[H])c(C(=O)N([H])[H])c4N([H])[H])C3([H])[H])C2([H])[H])c([H])c1[H]

>  <smiles>  (30) 
[H]C(=C([H])C([H])([H])Oc1c([H])c([H])c2c(c1[H])C([H])([H])N(C(=O)C([H])(N([H])C(=O)C([H])(N([H])C([H])([H])[H])C([H])([H])[H])C(C([H])([H])[H])(C([H])([H])[H])C([H])([H])[H])C([H])(C(=O)N([H])C1([H])c3c([H])c([H])c([H])c([H])c3C([H])([H])C([H])([H])C1([H])[H])C2([H])[H])c1c([H])nc(C([H])([H])C2([H])C([H])([H])C([H])([H])C([H])(N([H])C(=O)N3C([H])([H])C([H])([H])C([H])([H])C([H])(n4nc(-c5c([H])c([H])c(Oc6c([H])c([H])c(F)c([H])c6F)c([H])c5[H])c(C(=O)N([H])[H])c4N([H])[H])C3([H])[H])C2([H])[H])c([H])c1[H]

$$$$
30:0:0
     RDKit          3D

 98105  0  0  1  0  0  0  0  0999 V2000
  -24.9910  -22.2970   19.7500 C   0  0  0  0  0  2  0  0  0  0  0  0
  -25.0580  -23.7280   20.3120 C   0  0  0  0  0  2  0  0  0  0  0  0
  -26.0780  -23.9050   21.4570 C   0  0  0  0  0  2  0  0  0  0  0  0
  -28.0020  -22.3890   21.1110 C   0  0  0  0  0  1  0  0  0  0  0  0
  -27.4820  -23.7710   20.9780 N   0  0  2  0  0  4  0  0  0  0  0  0
  -27.4360  -23.9670   19.9890 H   0  0  0  0  0  0  0  0  0  0  0  0
  -28.4040  -24.7900   21.5460 C   0  0  0  0  0  2  0  0  0  0  0  0
  -29.7940  -24.7870   20.8650 C   0  0  0  0  0  2  0  0  0  0  0  0
  -30.5070  -26.1520   20.8370 C   0  0  0  0  0  2  0  0  0  0  0  0
  -30.0010  -26.9420   19.7600 O   0  0  0  0  0  0  0  0  0  0  0  0
  -25.3100  -29.4480   24.4820 C   0  0  0  0  0  0  0  0  0  0  0  0
  -28.7770  -27.5130   19.9860 C   0  0  0  0  0  0  0  0  0  0  0  0
  -24.4540  -29.0810   22.1870 C   0  0  0  0  0  3  0  0  0  0  0  0
  -26.2240  -28.6220   20.4050 C   0  0  0  0  0  0  0  0  0  0  0  0
  -26.9170  -29.6230   22.5920 C   0  0  0  0  0  2  0  0  0  0  0  0
  -27.2330  -28.8110   21.3560 C   0  0  0  0  0  0  0  0  0  0  0  0
  -28.5120  -28.2520   21.1580 C   0  0  0  0  0  3  0  0  0  0  0  0
  -27.7660  -27.3520   19.0190 C   0  0  0  0  0  3  0  0  0  0  0  0
  -26.4810  -27.8860   19.2320 C   0  0  0  0  0  3  0  0  0  0  0  0
  -24.8820  -29.2500   20.7030 C   0  0  0  0  0  2  0  0  0  0  0  0
  -25.5700  -29.3650   23.1460 N   0  0  0  0  0  0  0  0  0  0  0  0
  -24.1550  -29.3390   24.9160 O   0  0  0  0  0  0  0  0  0  0  0  0
  -23.8410  -27.6730   22.3630 C   0  0  0  0  0  0  0  0  0  0  0  0
  -22.6520  -27.4670   21.7760 N   0  0  0  0  0  0  0  0  0  0  0  0
  -24.4420  -26.7950   22.9870 O   0  0  0  0  0  0  0  0  0  0  0  0
  -22.2240  -28.2440   21.2910 H   0  0  0  0  0  0  0  0  0  0  0  0
  -19.7230  -25.8360   20.4310 C   0  0  0  0  0  0  0  0  0  0  0  0
  -21.9010  -26.2130   21.7710 C   0  0  0  0  0  3  0  0  0  0  0  0
  -22.5460  -25.1830   20.8160 C   0  0  0  0  0  2  0  0  0  0  0  0
  -21.9500  -25.2080   19.4060 C   0  0  0  0  0  2  0  0  0  0  0  0
  -20.4450  -24.9240   19.4540 C   0  0  0  0  0  2  0  0  0  0  0  0
  -20.4100  -26.4540   21.5100 C   0  0  0  0  0  0  0  0  0  0  0  0
  -19.7020  -27.3210   22.3690 C   0  0  0  0  0  3  0  0  0  0  0  0
  -18.3310  -27.5690   22.1700 C   0  0  0  0  0  3  0  0  0  0  0  0
  -17.6500  -26.9410   21.1120 C   0  0  0  0  0  3  0  0  0  0  0  0
  -18.3450  -26.0750   20.2490 C   0  0  0  0  0  3  0  0  0  0  0  0
  -26.4460  -29.7090   25.5220 C   0  0  0  0  0  3  0  0  0  0  0  0
  -26.5770  -28.5660   26.6030 C   0  0  1  0  0  0  0  0  0  0  0  0
  -25.2410  -28.2180   27.2990 C   0  0  0  0  0  1  0  0  0  0  0  0
  -27.1300  -27.2700   25.9650 C   0  0  0  0  0  1  0  0  0  0  0  0
  -27.5880  -28.9890   27.6960 C   0  0  0  0  0  1  0  0  0  0  0  0
  -26.1710  -31.0020   26.1600 N   0  0  0  0  0  0  0  0  0  0  0  0
  -26.8190  -32.1400   25.8780 C   0  0  0  0  0  0  0  0  0  0  0  0
  -27.7710  -32.1940   25.0950 O   0  0  0  0  0  0  0  0  0  0  0  0
  -25.3690  -31.0440   26.7720 H   0  0  0  0  0  0  0  0  0  0  0  0
  -25.5090  -34.2660   25.5860 C   0  0  0  0  0  1  0  0  0  0  0  0
  -26.3320  -33.4240   26.5740 C   0  0  0  0  0  3  0  0  0  0  0  0
  -28.0930  -33.6150   28.2740 C   0  0  0  0  0  1  0  0  0  0  0  0
  -27.4290  -34.2420   27.1330 N   0  0  0  0  0  0  0  0  0  0  0  0
  -27.0850  -35.1520   27.4270 H   0  0  0  0  0  0  0  0  0  0  0  0
  -24.6940  -22.2490   18.2420 C   0  0  0  0  0  2  0  0  0  0  0  0
  -24.7520  -20.8280   17.6440 C   0  0  0  0  0  2  0  0  0  0  0  0
  -26.0270  -20.0320   17.9740 C   0  0  0  0  0  2  0  0  0  0  0  0
  -27.3050  -20.6040   17.3320 C   0  0  0  0  0  2  0  0  0  0  0  0
  -28.5670  -19.7990   17.6790 C   0  0  0  0  0  2  0  0  0  0  0  0
  -29.0810  -20.1010   19.1000 C   0  0  0  0  0  2  0  0  0  0  0  0
  -30.3330  -19.3050   19.4910 C   0  0  0  0  0  2  0  0  0  0  0  0
  -30.0300  -17.9240   20.0990 C   0  0  0  0  0  2  0  0  0  0  0  0
  -31.3100  -17.2410   20.6040 C   0  0  0  0  0  2  0  0  0  0  0  0
  -31.0780  -16.2010   21.7180 C   0  0  0  0  0  2  0  0  0  0  0  0
  -30.8380  -14.2520   20.1870 C   0  0  0  0  0  0  0  0  0  0  0  0
  -30.3090  -12.3530   18.7050 C   0  0  0  0  0  2  0  0  0  0  0  0
  -29.2880  -12.7700   17.6310 C   0  0  0  0  0  2  0  0  0  0  0  0
  -27.8480  -12.6220   18.1570 C   0  0  0  0  0  2  0  0  0  0  0  0
  -27.6500  -13.2810   19.5480 C   0  0  0  0  0  3  0  0  0  0  0  0
  -28.7680  -12.8490   20.5210 C   0  0  0  0  0  2  0  0  0  0  0  0
  -30.0690  -13.1690   19.9040 N   0  0  0  0  0  0  0  0  0  0  0  0
  -31.8410  -14.5600   19.5350 O   0  0  0  0  0  0  0  0  0  0  0  0
  -30.4330  -14.9850   21.2300 N   0  0  0  0  0  0  0  0  0  0  0  0
  -29.6170  -14.6600   21.7250 H   0  0  0  0  0  0  0  0  0  0  0  0
  -25.2710  -13.8590   20.3510 C   0  0  0  0  0  0  0  0  0  0  0  0
  -24.2350  -13.0740   20.7790 C   0  0  0  0  0  0  0  0  0  0  0  0
  -24.7190  -11.7300   20.7480 C   0  0  0  0  0  0  0  0  0  0  0  0
  -26.3220  -12.9930   20.0880 N   0  0  0  0  0  0  0  0  0  0  0  0
  -25.9940  -11.7070   20.3800 N   0  0  0  0  0  0  0  0  0  0  0  0
  -24.0270  -10.4580   20.9920 C   0  0  0  0  0  0  0  0  0  0  0  0
  -24.4950   -9.5350   21.9530 C   0  0  0  0  0  3  0  0  0  0  0  0
  -23.8020   -8.3270   22.1820 C   0  0  0  0  0  3  0  0  0  0  0  0
  -22.6270   -8.0330   21.4500 C   0  0  0  0  0  0  0  0  0  0  0  0
  -22.1780   -8.9460   20.4790 C   0  0  0  0  0  3  0  0  0  0  0  0
  -22.8720  -10.1450   20.2480 C   0  0  0  0  0  3  0  0  0  0  0  0
  -21.9030   -6.8740   21.5870 O   0  0  0  0  0  0  0  0  0  0  0  0
  -21.7410   -6.2660   22.8060 C   0  0  0  0  0  0  0  0  0  0  0  0
  -21.1750   -6.9430   23.9070 C   0  0  0  0  0  3  0  0  0  0  0  0
  -20.9630   -6.2600   25.1220 C   0  0  0  0  0  3  0  0  0  0  0  0
  -21.3070   -4.9000   25.2340 C   0  0  0  0  0  0  0  0  0  0  0  0
  -21.8650   -4.2210   24.1360 C   0  0  0  0  0  3  0  0  0  0  0  0
  -22.0790   -4.9010   22.9240 C   0  0  0  0  0  0  0  0  0  0  0  0
  -22.5970   -4.2380   21.8630 F   0  0  0  0  0  0  0  0  0  0  0  0
  -21.0960   -4.2400   26.3970 F   0  0  0  0  0  0  0  0  0  0  0  0
  -22.8440  -13.5300   21.1100 C   0  0  0  0  0  0  0  0  0  0  0  0
  -22.1800  -12.8520   22.0390 N   0  0  0  0  0  0  0  0  0  0  0  0
  -22.3530  -14.5250   20.5780 O   0  0  0  0  0  0  0  0  0  0  0  0
  -22.5900  -12.0470   22.4910 H   0  0  0  0  0  0  0  0  0  0  0  0
  -21.2500  -13.1410   22.3040 H   0  0  0  0  0  0  0  0  0  0  0  0
  -25.4040  -15.2280   20.1470 N   0  0  0  0  0  0  0  0  0  0  0  0
  -24.6300  -15.8680   20.2800 H   0  0  0  0  0  0  0  0  0  0  0  0
  -26.2390  -15.6770   19.7940 H   0  0  0  0  0  0  0  0  0  0  0  0
  1  2  1  0
  2  3  1  0
  5  4  1  0
  5  3  1  0
  5  7  1  0
  5  6  1  6
  8  7  1  0
  9  8  1  0
 10 12  1  0
 10  9  1  0
 11 22  2  0
 12 17  1  0
 13 23  1  0
 13 21  1  0
 14 20  1  0
 14 16  1  0
 15 21  1  0
 16 15  1  0
 17 16  2  0
 18 19  1  0
 18 12  2  0
 19 14  2  0
 20 13  1  0
 21 11  1  0
 23 25  2  0
 24 23  1  0
 26 24  1  0
 27 32  1  0
 28 24  1  0
 29 28  1  0
 30 31  1  0
 30 29  1  0
 31 27  1  0
 32 28  1  0
 32 33  2  0
 34 33  1  0
 35 34  2  0
 36 27  2  0
 36 35  1  0
 37 11  1  0
 37 42  1  0
 37 38  1  0
 38 39  1  1
 38 41  1  0
 40 38  1  0
 42 45  1  0
 43 42  1  0
 43 47  1  0
 44 43  2  0
 47 46  1  0
 47 49  1  0
 49 50  1  0
 49 48  1  0
 51  1  1  0
 52 53  1  0
 52 51  1  0
 54 55  1  0
 54 53  1  0
 55 56  1  0
 56 57  1  0
 57 58  1  0
 58 59  1  0
 59 60  1  0
 61 69  1  0
 62 67  1  0
 63 64  1  0
 63 62  1  0
 65 64  1  0
 65 74  1  0
 65 66  1  0
 67 61  1  0
 67 66  1  0
 68 61  2  0
 69 60  1  0
 69 70  1  0
 71 72  2  0
 72 91  1  0
 73 72  1  0
 73 76  1  0
 74 71  1  0
 74 75  1  0
 75 73  2  0
 76 77  1  0
 77 78  2  0
 79 82  1  0
 79 78  1  0
 80 79  2  0
 81 80  1  0
 81 76  2  0
 82 83  1  0
 83 88  2  0
 83 84  1  0
 84 85  2  0
 85 86  1  0
 86 90  1  0
 87 86  2  0
 88 87  1  0
 89 88  1  0
 91 92  1  0
 92 95  1  0
 92 94  1  0
 93 91  2  0
 96 97  1  0
 96 71  1  0
 98 96  1  0
M  ISO  4   9 101  10 101  61 100  69 100
M  END
>  <TORSDO>  (31) 
F 32

>  <SCORE>  (31) 
-7.233

>  <name>  (31) 
30

>  <ligand_id>  (31) 
30

>  <original_smiles>  (31) 
[H]c1c([H])c([H])c2c(c1[H])C([H])([H])C([H])([H])C([H])([H])C2([H])N([H])C(=O)C1([H])N(C(=O)C([H])(N([H])C(=O)C([H])(N([H])C([H])([H])[H])C([H])([H])[H])C(C([H])([H])[H])(C([H])([H])[H])C([H])([H])[H])C([H])([H])c2c([H])c(OC([H])([H])C([H])([H])C([H])([H])[N+]([H])(C([H])([H])[H])C([H])([H])C([H])([H])C([H])([H])C([H])([H])C([H])([H])C([H])([H])C([H])([H])C([H])([H])C([H])([H])C([H])([H])C([H])([H])C([H])([H])C([H])([H])N([H])C(=O)N3C([H])([H])C([H])([H])C([H])([H])C([H])(n4nc(-c5c([H])c([H])c(Oc6c([H])c([H])c(F)c([H])c6F)c([H])c5[H])c(C(=O)N([H])[H])c4N([H])[H])C3([H])[H])c([H])c([H])c2C1([H])[H]

>  <smiles>  (31) 
[H]c1c([H])c([H])c2c(c1[H])C([H])([H])C([H])([H])C([H])([H])C2([H])N([H])C(=O)C1([H])N(C(=O)C([H])(N([H])C(=O)C([H])(N([H])C([H])([H])[H])C([H])([H])[H])C(C([H])([H])[H])(C([H])([H])[H])C([H])([H])[H])C([H])([H])c2c([H])c(OC([H])([H])C([H])([H])C([H])([H])[N+]([H])(C([H])([H])[H])C([H])([H])C([H])([H])C([H])([H])C([H])([H])C([H])([H])C([H])([H])C([H])([H])C([H])([H])C([H])([H])C([H])([H])C([H])([H])C([H])([H])C([H])([H])N([H])C(=O)N3C([H])([H])C([H])([H])C([H])([H])C([H])(n4nc(-c5c([H])c([H])c(Oc6c([H])c([H])c(F)c([H])c6F)c([H])c5[H])c(C(=O)N([H])[H])c4N([H])[H])C3([H])[H])c([H])c([H])c2C1([H])[H]

$$$$
31:0:0
     RDKit          3D

 92 99  0  0  1  0  0  0  0  0999 V2000
  -29.1560  -20.6830   20.6720 C   0  0  0  0  0  3  0  0  0  0  0  0
  -29.0330  -21.8640   21.3200 C   0  0  0  0  0  3  0  0  0  0  0  0
  -29.8410  -19.4980   21.2550 C   0  0  0  0  0  0  0  0  0  0  0  0
  -29.7610  -19.2110   22.4520 O   0  0  0  0  0  0  0  0  0  0  0  0
  -30.7180  -18.6190   20.3360 C   0  0  0  0  0  2  0  0  0  0  0  0
  -30.1170  -17.3170   19.7060 C   0  0  0  0  0  3  0  0  0  0  0  0
  -28.7800  -17.5550   18.9720 C   0  0  0  0  0  2  0  0  0  0  0  0
  -28.6660  -18.7740   18.0450 C   0  0  0  0  0  2  0  0  0  0  0  0
  -27.2550  -19.3800   18.1360 C   0  0  0  0  0  2  0  0  0  0  0  0
  -25.7700  -21.4120   17.7750 C   0  0  0  0  0  1  0  0  0  0  0  0
  -27.1580  -20.7960   17.5560 C   0  0  0  0  0  2  0  0  0  0  0  0
  -30.0180  -16.0620   20.6620 C   0  0  0  0  0  2  0  0  0  0  0  0
  -30.6680  -14.7650   20.0940 C   0  0  0  0  0  0  0  0  0  0  0  0
  -30.3740  -12.5680   19.0130 C   0  0  0  0  0  2  0  0  0  0  0  0
  -29.3900  -12.7310   17.8350 C   0  0  0  0  0  2  0  0  0  0  0  0
  -27.9390  -12.5420   18.3190 C   0  0  0  0  0  2  0  0  0  0  0  0
  -27.6170  -13.3780   19.5850 C   0  0  0  0  0  3  0  0  0  0  0  0
  -28.7220  -13.2350   20.6540 C   0  0  0  0  0  2  0  0  0  0  0  0
  -30.0120  -13.5690   20.0290 N   0  0  0  0  0  0  0  0  0  0  0  0
  -31.7860  -14.9040   19.5930 O   0  0  0  0  0  0  0  0  0  0  0  0
  -25.2430  -13.9690   20.3730 C   0  0  0  0  0  0  0  0  0  0  0  0
  -24.1980  -13.1840   20.7820 C   0  0  0  0  0  0  0  0  0  0  0  0
  -24.6790  -11.8410   20.7400 C   0  0  0  0  0  0  0  0  0  0  0  0
  -26.2880  -13.0980   20.1090 N   0  0  0  0  0  0  0  0  0  0  0  0
  -25.9540  -11.8130   20.3830 N   0  0  0  0  0  0  0  0  0  0  0  0
  -23.9830  -10.5660   20.9540 C   0  0  0  0  0  0  0  0  0  0  0  0
  -24.4220   -9.6440   21.9290 C   0  0  0  0  0  3  0  0  0  0  0  0
  -23.7280   -8.4320   22.1280 C   0  0  0  0  0  3  0  0  0  0  0  0
  -22.5810   -8.1350   21.3520 C   0  0  0  0  0  0  0  0  0  0  0  0
  -22.1640   -9.0480   20.3690 C   0  0  0  0  0  3  0  0  0  0  0  0
  -22.8590  -10.2520   20.1670 C   0  0  0  0  0  3  0  0  0  0  0  0
  -21.8560   -6.9730   21.4600 O   0  0  0  0  0  0  0  0  0  0  0  0
  -21.7520   -6.3010   22.6510 C   0  0  0  0  0  0  0  0  0  0  0  0
  -21.2310   -6.9110   23.8110 C   0  0  0  0  0  3  0  0  0  0  0  0
  -21.0810   -6.1620   24.9950 C   0  0  0  0  0  3  0  0  0  0  0  0
  -21.4380   -4.7990   25.0160 C   0  0  0  0  0  0  0  0  0  0  0  0
  -21.9540   -4.1880   23.8600 C   0  0  0  0  0  3  0  0  0  0  0  0
  -22.1090   -4.9370   22.6800 C   0  0  0  0  0  0  0  0  0  0  0  0
  -22.5850   -4.3380   21.5610 F   0  0  0  0  0  0  0  0  0  0  0  0
  -21.2870   -4.0760   26.1500 F   0  0  0  0  0  0  0  0  0  0  0  0
  -22.8040  -13.6430   21.1020 C   0  0  0  0  0  0  0  0  0  0  0  0
  -22.1180  -12.9470   22.0030 N   0  0  0  0  0  0  0  0  0  0  0  0
  -22.3330  -14.6580   20.5910 O   0  0  0  0  0  0  0  0  0  0  0  0
  -22.5130  -12.1280   22.4410 H   0  0  0  0  0  0  0  0  0  0  0  0
  -21.1840  -13.2380   22.2540 H   0  0  0  0  0  0  0  0  0  0  0  0
  -25.3780  -15.3400   20.1850 N   0  0  0  0  0  0  0  0  0  0  0  0
  -24.5950  -15.9760   20.2850 H   0  0  0  0  0  0  0  0  0  0  0  0
  -26.2020  -15.7880   19.8050 H   0  0  0  0  0  0  0  0  0  0  0  0
  -28.2620  -23.0700   20.7840 C   0  0  0  0  0  2  0  0  0  0  0  0
  -29.0570  -24.4070   20.6740 C   0  0  0  0  0  2  0  0  0  0  0  0
  -28.2330  -25.6680   21.0570 C   0  0  0  0  0  2  0  0  0  0  0  0
  -28.3800  -26.7810   20.1510 O   0  0  0  0  0  0  0  0  0  0  0  0
  -24.6060  -31.9520   23.2320 C   0  0  0  0  0  0  0  0  0  0  0  0
  -27.2490  -27.5600   20.1030 C   0  0  0  0  0  0  0  0  0  0  0  0
  -23.3920  -30.5510   21.5930 C   0  0  0  0  0  3  0  0  0  0  0  0
  -24.8440  -29.0440   20.1350 C   0  0  0  0  0  0  0  0  0  0  0  0
  -25.9110  -30.9370   21.3690 C   0  0  0  0  0  2  0  0  0  0  0  0
  -26.0030  -29.5730   20.7180 C   0  0  0  0  0  0  0  0  0  0  0  0
  -27.2090  -28.8370   20.7010 C   0  0  0  0  0  3  0  0  0  0  0  0
  -26.0810  -27.0510   19.4930 C   0  0  0  0  0  3  0  0  0  0  0  0
  -24.8790  -27.7820   19.5170 C   0  0  0  0  0  3  0  0  0  0  0  0
  -23.5900  -29.8820   20.2070 C   0  0  0  0  0  2  0  0  0  0  0  0
  -24.6550  -31.1610   22.1220 N   0  0  0  0  0  0  0  0  0  0  0  0
  -23.5270  -32.2120   23.7840 O   0  0  0  0  0  0  0  0  0  0  0  0
  -22.7630  -29.5180   22.5540 C   0  0  0  0  0  0  0  0  0  0  0  0
  -21.4400  -29.3240   22.4340 N   0  0  0  0  0  0  0  0  0  0  0  0
  -23.4590  -28.8930   23.3580 O   0  0  0  0  0  0  0  0  0  0  0  0
  -20.9350  -29.8850   21.7610 H   0  0  0  0  0  0  0  0  0  0  0  0
  -18.0950  -28.0610   22.9320 C   0  0  0  0  0  0  0  0  0  0  0  0
  -20.6440  -28.3710   23.2030 C   0  0  0  0  0  3  0  0  0  0  0  0
  -20.7710  -26.9420   22.6240 C   0  0  0  0  0  2  0  0  0  0  0  0
  -19.6800  -26.5990   21.6060 C   0  0  0  0  0  2  0  0  0  0  0  0
  -18.2970  -26.7190   22.2460 C   0  0  0  0  0  2  0  0  0  0  0  0
  -19.1960  -28.8450   23.3620 C   0  0  0  0  0  0  0  0  0  0  0  0
  -18.9510  -30.1040   23.9550 C   0  0  0  0  0  3  0  0  0  0  0  0
  -17.6360  -30.5790   24.1160 C   0  0  0  0  0  3  0  0  0  0  0  0
  -16.5480  -29.7910   23.7010 C   0  0  0  0  0  3  0  0  0  0  0  0
  -16.7790  -28.5310   23.1200 C   0  0  0  0  0  3  0  0  0  0  0  0
  -25.8940  -32.5870   23.8430 C   0  0  0  0  0  3  0  0  0  0  0  0
  -26.4340  -31.8150   25.1090 C   0  0  1  0  0  0  0  0  0  0  0  0
  -25.3530  -31.5660   26.1860 C   0  0  0  0  0  1  0  0  0  0  0  0
  -27.0260  -30.4440   24.7010 C   0  0  0  0  0  1  0  0  0  0  0  0
  -27.5850  -32.6190   25.7650 C   0  0  0  0  0  1  0  0  0  0  0  0
  -25.5810  -33.9820   24.1780 N   0  0  0  0  0  0  0  0  0  0  0  0
  -25.9140  -35.0380   23.4250 C   0  0  0  0  0  0  0  0  0  0  0  0
  -26.5890  -34.9430   22.3950 O   0  0  0  0  0  0  0  0  0  0  0  0
  -24.9850  -34.1350   24.9790 H   0  0  0  0  0  0  0  0  0  0  0  0
  -24.1890  -36.8330   23.0590 C   0  0  0  0  0  1  0  0  0  0  0  0
  -25.4190  -36.4230   23.8860 C   0  0  0  0  0  3  0  0  0  0  0  0
  -27.5410  -37.3020   24.7550 C   0  0  0  0  0  1  0  0  0  0  0  0
  -26.4520  -37.4770   23.7960 N   0  0  0  0  0  0  0  0  0  0  0  0
  -26.0410  -38.3950   23.9460 H   0  0  0  0  0  0  0  0  0  0  0  0
  1  3  1  0
  1  2  2  0
  3  4  2  0
  5  3  1  0
  6  7  1  0
  6  5  1  0
  6 12  1  0
  8  9  1  0
  8  7  1  0
 11 10  1  0
 11  9  1  0
 13 12  1  0
 14 19  1  0
 15 16  1  0
 15 14  1  0
 17 16  1  0
 17 24  1  0
 17 18  1  0
 19 13  1  0
 19 18  1  0
 20 13  2  0
 21 22  2  0
 22 41  1  0
 23 22  1  0
 23 26  1  0
 24 21  1  0
 24 25  1  0
 25 23  2  0
 26 27  1  0
 27 28  2  0
 29 32  1  0
 29 28  1  0
 30 29  2  0
 31 30  1  0
 31 26  2  0
 32 33  1  0
 33 38  2  0
 33 34  1  0
 34 35  2  0
 35 36  1  0
 36 40  1  0
 37 36  2  0
 38 37  1  0
 39 38  1  0
 41 42  1  0
 42 45  1  0
 42 44  1  0
 43 41  2  0
 46 47  1  0
 46 21  1  0
 48 46  1  0
 49  2  1  0
 50 49  1  0
 50 51  1  0
 52 51  1  0
 53 64  2  0
 54 52  1  0
 54 59  1  0
 55 63  1  0
 55 65  1  0
 56 62  1  0
 56 58  1  0
 57 63  1  0
 58 57  1  0
 59 58  2  0
 60 61  1  0
 60 54  2  0
 61 56  2  0
 62 55  1  0
 63 53  1  0
 65 67  2  0
 66 65  1  0
 68 66  1  0
 69 78  2  0
 69 74  1  0
 70 66  1  0
 70 74  1  0
 71 70  1  0
 72 73  1  0
 72 71  1  0
 73 69  1  0
 74 75  2  0
 75 76  1  0
 77 76  2  0
 78 77  1  0
 79 53  1  0
 79 84  1  0
 79 80  1  0
 80 83  1  1
 80 81  1  0
 82 80  1  0
 84 87  1  0
 85 89  1  0
 85 84  1  0
 86 85  2  0
 89 88  1  0
 91 89  1  0
 91 92  1  0
 91 90  1  0
M  ISO  4  12 100  13 100  51 101  52 101
M  END
>  <TORSDO>  (32) 
F 27

>  <SCORE>  (32) 
-11.089

>  <name>  (32) 
31

>  <ligand_id>  (32) 
31

>  <original_smiles>  (32) 
[H]C(C(=O)C([H])([H])C([H])(C([H])([H])C(=O)N1C([H])([H])C([H])([H])C([H])([H])C([H])(n2nc(-c3c([H])c([H])c(Oc4c([H])c([H])c(F)c([H])c4F)c([H])c3[H])c(C(=O)N([H])[H])c2N([H])[H])C1([H])[H])C([H])([H])C([H])([H])C([H])([H])C([H])([H])C([H])([H])[H])=C([H])C([H])([H])C([H])([H])C([H])([H])Oc1c([H])c([H])c2c(c1[H])C([H])([H])N(C(=O)C([H])(N([H])C(=O)C([H])(N([H])C([H])([H])[H])C([H])([H])[H])C(C([H])([H])[H])(C([H])([H])[H])C([H])([H])[H])C([H])(C(=O)N([H])C1([H])c3c([H])c([H])c([H])c([H])c3C([H])([H])C([H])([H])C1([H])[H])C2([H])[H]

>  <smiles>  (32) 
[H]C(C(=O)C([H])([H])C([H])(C([H])([H])C(=O)N1C([H])([H])C([H])([H])C([H])([H])C([H])(n2nc(-c3c([H])c([H])c(Oc4c([H])c([H])c(F)c([H])c4F)c([H])c3[H])c(C(=O)N([H])[H])c2N([H])[H])C1([H])[H])C([H])([H])C([H])([H])C([H])([H])C([H])([H])C([H])([H])[H])=C([H])C([H])([H])C([H])([H])C([H])([H])Oc1c([H])c([H])c2c(c1[H])C([H])([H])N(C(=O)C([H])(N([H])C(=O)C([H])(N([H])C([H])([H])[H])C([H])([H])[H])C(C([H])([H])[H])(C([H])([H])[H])C([H])([H])[H])C([H])(C(=O)N([H])C1([H])c3c([H])c([H])c([H])c([H])c3C([H])([H])C([H])([H])C1([H])[H])C2([H])[H]

$$$$
32:0:0
     RDKit          3D

 95102  0  0  1  0  0  0  0  0999 V2000
  -24.3970  -20.4900   18.8470 C   0  0  0  0  0  2  0  0  0  0  0  0
  -23.6870  -19.8110   17.6660 C   0  0  0  0  0  2  0  0  0  0  0  0
  -24.4220  -18.5110   17.3030 C   0  0  0  0  0  2  0  0  0  0  0  0
  -24.6100  -18.2040   15.8020 C   0  0  0  0  0  2  0  0  0  0  0  0
  -25.2980  -19.3040   14.9670 C   0  0  0  0  0  2  0  0  0  0  0  0
  -26.5140  -20.0020   15.6110 C   0  0  0  0  0  2  0  0  0  0  0  0
  -27.5850  -19.0740   16.2160 C   0  0  0  0  0  2  0  0  0  0  0  0
  -28.3790  -19.7900   17.3270 C   0  0  0  0  0  2  0  0  0  0  0  0
  -29.3420  -18.8980   18.1350 C   0  0  0  0  0  2  0  0  0  0  0  0
  -28.6200  -17.8780   19.0420 C   0  0  0  0  0  2  0  0  0  0  0  0
  -29.4670  -17.3920   20.2420 C   0  0  0  0  0  2  0  0  0  0  0  0
  -28.9770  -16.0850   20.9420 C   0  0  0  0  0  2  0  0  0  0  0  0
  -29.8250  -14.8630   20.5340 C   0  0  0  0  0  0  0  0  0  0  0  0
  -29.6230  -12.7920   19.2640 C   0  0  0  0  0  2  0  0  0  0  0  0
  -28.5660  -13.0750   18.1770 C   0  0  0  0  0  2  0  0  0  0  0  0
  -27.1570  -12.7190   18.7050 C   0  0  0  0  0  2  0  0  0  0  0  0
  -26.8610  -13.3500   20.0960 C   0  0  0  0  0  3  0  0  0  0  0  0
  -28.0420  -13.1640   21.0720 C   0  0  0  0  0  2  0  0  0  0  0  0
  -29.2710  -13.6300   20.4160 N   0  0  0  0  0  0  0  0  0  0  0  0
  -30.9560  -15.1150   20.1130 O   0  0  0  0  0  0  0  0  0  0  0  0
  -24.4620  -13.6010   20.9790 C   0  0  0  0  0  0  0  0  0  0  0  0
  -23.5350  -12.6840   21.3800 C   0  0  0  0  0  0  0  0  0  0  0  0
  -24.1770  -11.4090   21.2770 C   0  0  0  0  0  0  0  0  0  0  0  0
  -25.6010  -12.8780   20.6530 N   0  0  0  0  0  0  0  0  0  0  0  0
  -25.4370  -11.5550   20.8870 N   0  0  0  0  0  0  0  0  0  0  0  0
  -23.6470  -10.0580   21.4740 C   0  0  0  0  0  0  0  0  0  0  0  0
  -24.2180   -9.1740   22.4170 C   0  0  0  0  0  3  0  0  0  0  0  0
  -23.6830   -7.8800   22.5960 C   0  0  0  0  0  3  0  0  0  0  0  0
  -22.5630   -7.4630   21.8380 C   0  0  0  0  0  0  0  0  0  0  0  0
  -22.0150   -8.3410   20.8870 C   0  0  0  0  0  3  0  0  0  0  0  0
  -22.5520   -9.6240   20.7040 C   0  0  0  0  0  3  0  0  0  0  0  0
  -21.9830   -6.2200   21.9340 O   0  0  0  0  0  0  0  0  0  0  0  0
  -21.9020   -5.5560   23.1310 C   0  0  0  0  0  0  0  0  0  0  0  0
  -21.3130   -6.1430   24.2710 C   0  0  0  0  0  3  0  0  0  0  0  0
  -21.1930   -5.3980   25.4620 C   0  0  0  0  0  3  0  0  0  0  0  0
  -21.6440   -4.0660   25.5090 C   0  0  0  0  0  0  0  0  0  0  0  0
  -22.2260   -3.4790   24.3720 C   0  0  0  0  0  3  0  0  0  0  0  0
  -22.3550   -4.2220   23.1850 C   0  0  0  0  0  0  0  0  0  0  0  0
  -22.9000   -3.6480   22.0860 F   0  0  0  0  0  0  0  0  0  0  0  0
  -21.5160   -3.3450   26.6490 F   0  0  0  0  0  0  0  0  0  0  0  0
  -22.1050  -12.9540   21.7500 C   0  0  0  0  0  0  0  0  0  0  0  0
  -21.5400  -12.1590   22.6530 N   0  0  0  0  0  0  0  0  0  0  0  0
  -21.4910  -13.9100   21.2730 O   0  0  0  0  0  0  0  0  0  0  0  0
  -22.0420  -11.3900   23.0730 H   0  0  0  0  0  0  0  0  0  0  0  0
  -20.5840  -12.3290   22.9320 H   0  0  0  0  0  0  0  0  0  0  0  0
  -24.4340  -14.9840   20.8480 N   0  0  0  0  0  0  0  0  0  0  0  0
  -23.6030  -15.5280   21.0410 H   0  0  0  0  0  0  0  0  0  0  0  0
  -25.2010  -15.5400   20.4930 H   0  0  0  0  0  0  0  0  0  0  0  0
  -24.2970  -22.0150   18.8510 C   0  0  0  0  0  2  0  0  0  0  0  0
  -26.4880  -23.1480   19.3910 C   0  0  0  0  0  3  0  0  0  0  0  0
  -25.3250  -22.6090   19.7890 C   0  0  0  0  0  3  0  0  0  0  0  0
  -27.4200  -23.7560   20.3130 C   0  0  0  0  0  3  0  0  0  0  0  0
  -28.5530  -24.3520   19.9030 C   0  0  0  0  0  3  0  0  0  0  0  0
  -29.4820  -25.1270   20.8140 C   0  0  0  0  0  2  0  0  0  0  0  0
  -29.5910  -26.4960   20.4320 O   0  0  0  0  0  0  0  0  0  0  0  0
  -25.7060  -31.4080   23.7870 C   0  0  0  0  0  0  0  0  0  0  0  0
  -28.4220  -27.2190   20.4600 C   0  0  0  0  0  0  0  0  0  0  0  0
  -24.5590  -30.2020   21.9550 C   0  0  0  0  0  3  0  0  0  0  0  0
  -26.0540  -28.7540   20.4870 C   0  0  0  0  0  0  0  0  0  0  0  0
  -27.0960  -30.5090   21.9270 C   0  0  0  0  0  2  0  0  0  0  0  0
  -27.1870  -29.1960   21.1830 C   0  0  0  0  0  0  0  0  0  0  0  0
  -28.3740  -28.4340   21.1760 C   0  0  0  0  0  3  0  0  0  0  0  0
  -27.2790  -26.7950   19.7470 C   0  0  0  0  0  3  0  0  0  0  0  0
  -26.0920  -27.5480   19.7700 C   0  0  0  0  0  3  0  0  0  0  0  0
  -24.8290  -29.6360   20.5360 C   0  0  0  0  0  2  0  0  0  0  0  0
  -25.8020  -30.7120   22.6200 N   0  0  0  0  0  0  0  0  0  0  0  0
  -24.6040  -31.6630   24.2900 O   0  0  0  0  0  0  0  0  0  0  0  0
  -23.8300  -29.1170   22.7780 C   0  0  0  0  0  0  0  0  0  0  0  0
  -22.5330  -28.9190   22.4900 N   0  0  0  0  0  0  0  0  0  0  0  0
  -24.4290  -28.4590   23.6320 O   0  0  0  0  0  0  0  0  0  0  0  0
  -22.1110  -29.5040   21.7820 H   0  0  0  0  0  0  0  0  0  0  0  0
  -19.1660  -27.6170   22.4860 C   0  0  0  0  0  0  0  0  0  0  0  0
  -21.6570  -27.9250   23.1060 C   0  0  0  0  0  3  0  0  0  0  0  0
  -21.8800  -26.5260   22.4900 C   0  0  0  0  0  2  0  0  0  0  0  0
  -20.9320  -26.2210   21.3260 C   0  0  0  0  0  2  0  0  0  0  0  0
  -19.4720  -26.3020   21.7860 C   0  0  0  0  0  2  0  0  0  0  0  0
  -20.1940  -28.3860   23.0910 C   0  0  0  0  0  0  0  0  0  0  0  0
  -19.8640  -29.6200   23.6940 C   0  0  0  0  0  3  0  0  0  0  0  0
  -18.5360  -30.0840   23.7000 C   0  0  0  0  0  3  0  0  0  0  0  0
  -17.5190  -29.3090   23.1170 C   0  0  0  0  0  3  0  0  0  0  0  0
  -17.8330  -28.0760   22.5150 C   0  0  0  0  0  3  0  0  0  0  0  0
  -26.9710  -31.9370   24.5340 C   0  0  0  0  0  3  0  0  0  0  0  0
  -26.7210  -33.3370   24.8950 N   0  0  0  0  0  0  0  0  0  0  0  0
  -27.1690  -34.3940   24.2060 C   0  0  0  0  0  0  0  0  0  0  0  0
  -27.9120  -34.2910   23.2250 O   0  0  0  0  0  0  0  0  0  0  0  0
  -26.0840  -33.5000   25.6610 H   0  0  0  0  0  0  0  0  0  0  0  0
  -25.5810  -36.2970   23.7830 C   0  0  0  0  0  1  0  0  0  0  0  0
  -26.7220  -35.7900   24.6790 C   0  0  0  0  0  3  0  0  0  0  0  0
  -28.8230  -36.5100   25.7250 C   0  0  0  0  0  1  0  0  0  0  0  0
  -27.8160  -36.7840   24.7030 N   0  0  0  0  0  0  0  0  0  0  0  0
  -27.4510  -37.7190   24.8630 H   0  0  0  0  0  0  0  0  0  0  0  0
  -27.3400  -31.0890   25.8110 C   0  0  1  0  0  0  0  0  0  0  0  0
  -26.1490  -30.8590   26.7690 C   0  0  0  0  0  1  0  0  0  0  0  0
  -27.8960  -29.7080   25.3980 C   0  0  0  0  0  1  0  0  0  0  0  0
  -28.4560  -31.7990   26.6120 C   0  0  0  0  0  1  0  0  0  0  0  0
  1 49  1  0
  2  1  1  0
  3  2  1  0
  4  3  1  0
  5  6  1  0
  5  4  1  0
  6  7  1  0
  7  8  1  0
  8  9  1  0
  9 10  1  0
 10 11  1  0
 11 12  1  0
 13 12  1  0
 14 19  1  0
 15 16  1  0
 15 14  1  0
 17 16  1  0
 17 24  1  0
 17 18  1  0
 19 13  1  0
 19 18  1  0
 20 13  2  0
 21 22  2  0
 22 41  1  0
 23 22  1  0
 23 26  1  0
 24 25  1  0
 24 21  1  0
 25 23  2  0
 26 27  1  0
 27 28  2  0
 29 32  1  0
 29 28  1  0
 30 29  2  0
 31 30  1  0
 31 26  2  0
 32 33  1  0
 33 38  2  0
 33 34  1  0
 34 35  2  0
 35 36  1  0
 36 40  1  0
 37 36  2  0
 38 37  1  0
 39 38  1  0
 41 42  1  0
 42 45  1  0
 42 44  1  0
 43 41  2  0
 46 21  1  0
 46 47  1  0
 48 46  1  0
 49 51  1  0
 50 51  2  0
 50 52  1  0
 53 52  2  0
 53 54  1  0
 55 57  1  0
 55 54  1  0
 56 67  2  0
 57 62  1  0
 58 66  1  0
 58 68  1  0
 59 65  1  0
 59 61  1  0
 60 66  1  0
 61 60  1  0
 62 61  2  0
 63 64  1  0
 63 57  2  0
 64 59  2  0
 65 58  1  0
 66 56  1  0
 68 70  2  0
 69 68  1  0
 71 69  1  0
 72 81  2  0
 72 77  1  0
 73 69  1  0
 74 73  1  0
 75 76  1  0
 75 74  1  0
 76 72  1  0
 77 73  1  0
 77 78  2  0
 78 79  1  0
 80 79  2  0
 81 80  1  0
 82 56  1  0
 82 83  1  0
 82 92  1  0
 83 86  1  0
 84 88  1  0
 84 83  1  0
 85 84  2  0
 88 87  1  0
 88 90  1  0
 90 91  1  0
 90 89  1  0
 92 95  1  1
 92 93  1  0
 94 92  1  0
M  ISO  4  12 100  13 100  54 101  55 101
M  END
>  <TORSDO>  (33) 
F 31

>  <SCORE>  (33) 
1.413

>  <name>  (33) 
32

>  <ligand_id>  (33) 
32

>  <original_smiles>  (33) 
[H]C(C([H])=C([H])C([H])([H])C([H])([H])C([H])([H])C([H])([H])C([H])([H])C([H])([H])C([H])([H])C([H])([H])C([H])([H])C([H])([H])C([H])([H])C([H])([H])C([H])([H])C(=O)N1C([H])([H])C([H])([H])C([H])([H])C([H])(n2nc(-c3c([H])c([H])c(Oc4c([H])c([H])c(F)c([H])c4F)c([H])c3[H])c(C(=O)N([H])[H])c2N([H])[H])C1([H])[H])=C([H])C([H])([H])Oc1c([H])c([H])c2c(c1[H])C([H])([H])N(C(=O)C([H])(N([H])C(=O)C([H])(N([H])C([H])([H])[H])C([H])([H])[H])C(C([H])([H])[H])(C([H])([H])[H])C([H])([H])[H])C([H])(C(=O)N([H])C1([H])c3c([H])c([H])c([H])c([H])c3C([H])([H])C([H])([H])C1([H])[H])C2([H])[H]

>  <smiles>  (33) 
[H]C(C([H])=C([H])C([H])([H])C([H])([H])C([H])([H])C([H])([H])C([H])([H])C([H])([H])C([H])([H])C([H])([H])C([H])([H])C([H])([H])C([H])([H])C([H])([H])C([H])([H])C(=O)N1C([H])([H])C([H])([H])C([H])([H])C([H])(n2nc(-c3c([H])c([H])c(Oc4c([H])c([H])c(F)c([H])c4F)c([H])c3[H])c(C(=O)N([H])[H])c2N([H])[H])C1([H])[H])=C([H])C([H])([H])Oc1c([H])c([H])c2c(c1[H])C([H])([H])N(C(=O)C([H])(N([H])C(=O)C([H])(N([H])C([H])([H])[H])C([H])([H])[H])C(C([H])([H])[H])(C([H])([H])[H])C([H])([H])[H])C([H])(C(=O)N([H])C1([H])c3c([H])c([H])c([H])c([H])c3C([H])([H])C([H])([H])C1([H])[H])C2([H])[H]

$$$$
33:0:0
     RDKit          3D

 96104  0  0  1  0  0  0  0  0999 V2000
  -27.9670  -20.6670   20.4650 C   0  0  0  0  0  3  0  0  0  0  0  0
  -29.8290  -20.5780   18.9020 C   0  0  0  0  0  3  0  0  0  0  0  0
  -28.5730  -21.7550   21.1240 C   0  0  0  0  0  3  0  0  0  0  0  0
  -30.4430  -21.6530   19.5740 C   0  0  0  0  0  3  0  0  0  0  0  0
  -28.5960  -20.0590   19.3570 C   0  0  0  0  0  0  0  0  0  0  0  0
  -29.8160  -22.2630   20.6860 C   0  0  0  0  0  0  0  0  0  0  0  0
  -27.9530  -18.9260   18.6350 C   0  0  0  0  0  0  0  0  0  0  0  0
  -27.8820  -18.8650   17.4060 O   0  0  0  0  0  0  0  0  0  0  0  0
  -27.4010  -17.7730   19.4860 C   0  0  0  0  0  2  0  0  0  0  0  0
  -28.1910  -16.4580   19.3590 C   0  0  0  0  0  2  0  0  0  0  0  0
  -29.7110  -16.5970   19.5950 C   0  0  0  0  0  2  0  0  0  0  0  0
  -30.1610  -15.8450   20.8550 C   0  0  0  0  0  2  0  0  0  0  0  0
  -31.6440  -15.3910   20.8800 C   0  0  0  0  0  2  0  0  0  0  0  0
  -32.5410  -13.1070   20.5470 C   0  0  0  0  0  0  0  0  0  0  0  0
  -32.2480  -10.9110   21.6490 C   0  0  0  0  0  2  0  0  0  0  0  0
  -31.5250   -9.9260   20.7080 C   0  0  0  0  0  2  0  0  0  0  0  0
  -29.9920  -10.0890   20.7880 C   0  0  0  0  0  2  0  0  0  0  0  0
  -29.5470  -11.5680   20.6760 C   0  0  0  0  0  3  0  0  0  0  0  0
  -30.3740  -12.4240   21.6530 C   0  0  0  0  0  2  0  0  0  0  0  0
  -31.7970  -12.2710   21.3220 N   0  0  0  0  0  0  0  0  0  0  0  0
  -33.6790  -12.8330   20.1580 O   0  0  0  0  0  0  0  0  0  0  0  0
  -31.9190  -14.1990   20.0720 N   0  0  0  0  0  0  0  0  0  0  0  0
  -32.3080  -14.4560   19.1780 H   0  0  0  0  0  0  0  0  0  0  0  0
  -27.3330  -12.8670   20.9220 C   0  0  0  0  0  0  0  0  0  0  0  0
  -26.0450  -12.4500   21.1160 C   0  0  0  0  0  0  0  0  0  0  0  0
  -26.1000  -11.0240   21.1970 C   0  0  0  0  0  0  0  0  0  0  0  0
  -28.1100  -11.7180   20.9070 N   0  0  0  0  0  0  0  0  0  0  0  0
  -27.3600  -10.6080   21.1180 N   0  0  0  0  0  0  0  0  0  0  0  0
  -25.0280  -10.0250   21.2830 C   0  0  0  0  0  0  0  0  0  0  0  0
  -24.9660   -9.0970   22.3460 C   0  0  0  0  0  3  0  0  0  0  0  0
  -23.9190   -8.1510   22.4140 C   0  0  0  0  0  3  0  0  0  0  0  0
  -22.9150   -8.1360   21.4170 C   0  0  0  0  0  0  0  0  0  0  0  0
  -22.9920   -9.0490   20.3500 C   0  0  0  0  0  3  0  0  0  0  0  0
  -24.0400   -9.9810   20.2790 C   0  0  0  0  0  3  0  0  0  0  0  0
  -21.8730   -7.2420   21.3880 O   0  0  0  0  0  0  0  0  0  0  0  0
  -21.3530   -6.7090   22.5400 C   0  0  0  0  0  0  0  0  0  0  0  0
  -20.7910   -7.5180   23.5520 C   0  0  0  0  0  3  0  0  0  0  0  0
  -20.2060   -6.9230   24.6870 C   0  0  0  0  0  3  0  0  0  0  0  0
  -20.1710   -5.5210   24.8070 C   0  0  0  0  0  0  0  0  0  0  0  0
  -20.7260   -4.7120   23.7990 C   0  0  0  0  0  3  0  0  0  0  0  0
  -21.3130   -5.3050   22.6670 C   0  0  0  0  0  0  0  0  0  0  0  0
  -21.8280   -4.5240   21.6880 F   0  0  0  0  0  0  0  0  0  0  0  0
  -19.6020   -4.9440   25.8910 F   0  0  0  0  0  0  0  0  0  0  0  0
  -24.8140  -13.3120   21.1220 C   0  0  0  0  0  0  0  0  0  0  0  0
  -23.7890  -12.9140   21.8670 N   0  0  0  0  0  0  0  0  0  0  0  0
  -24.7680  -14.3710   20.4960 O   0  0  0  0  0  0  0  0  0  0  0  0
  -23.8310  -12.0580   22.4010 H   0  0  0  0  0  0  0  0  0  0  0  0
  -22.9420  -13.4650   21.8890 H   0  0  0  0  0  0  0  0  0  0  0  0
  -27.9120  -14.1180   20.7390 N   0  0  0  0  0  0  0  0  0  0  0  0
  -27.3910  -14.9890   20.7700 H   0  0  0  0  0  0  0  0  0  0  0  0
  -28.9020  -14.2710   20.5980 H   0  0  0  0  0  0  0  0  0  0  0  0
  -30.4810  -23.4000   21.3840 C   0  0  0  0  0  0  0  0  0  0  0  0
  -31.6450  -23.7380   21.1390 O   0  0  0  0  0  0  0  0  0  0  0  0
  -29.6420  -24.1720   22.4170 C   0  0  0  0  0  2  0  0  0  0  0  0
  -30.1150  -25.6110   22.6920 C   0  0  0  0  0  2  0  0  0  0  0  0
  -29.9830  -26.4120   21.5230 O   0  0  0  0  0  0  0  0  0  0  0  0
  -25.2190  -31.3760   23.4260 C   0  0  0  0  0  0  0  0  0  0  0  0
  -28.7600  -27.0030   21.3370 C   0  0  0  0  0  0  0  0  0  0  0  0
  -24.4540  -29.7070   21.7630 C   0  0  0  0  0  3  0  0  0  0  0  0
  -26.2680  -28.2020   20.7920 C   0  0  0  0  0  0  0  0  0  0  0  0
  -26.9280  -30.3170   21.9570 C   0  0  0  0  0  2  0  0  0  0  0  0
  -27.2460  -28.9070   21.5070 C   0  0  0  0  0  0  0  0  0  0  0  0
  -28.4920  -28.3120   21.7880 C   0  0  0  0  0  3  0  0  0  0  0  0
  -27.7740  -26.3000   20.6170 C   0  0  0  0  0  3  0  0  0  0  0  0
  -26.5250  -26.8910   20.3490 C   0  0  0  0  0  3  0  0  0  0  0  0
  -24.9670  -28.9210   20.5260 C   0  0  0  0  0  2  0  0  0  0  0  0
  -25.5400  -30.4880   22.4410 N   0  0  0  0  0  0  0  0  0  0  0  0
  -24.0400  -31.5820   23.7400 O   0  0  0  0  0  0  0  0  0  0  0  0
  -23.7310  -28.7180   22.7040 C   0  0  0  0  0  0  0  0  0  0  0  0
  -22.5030  -28.3260   22.3280 N   0  0  0  0  0  0  0  0  0  0  0  0
  -24.2820  -28.2980   23.7250 O   0  0  0  0  0  0  0  0  0  0  0  0
  -22.1170  -28.7270   21.4850 H   0  0  0  0  0  0  0  0  0  0  0  0
  -19.2200  -26.8200   22.3470 C   0  0  0  0  0  0  0  0  0  0  0  0
  -21.6500  -27.3720   23.0340 C   0  0  0  0  0  3  0  0  0  0  0  0
  -21.9870  -25.9170   22.6290 C   0  0  0  0  0  2  0  0  0  0  0  0
  -21.1230  -25.3970   21.4750 C   0  0  0  0  0  2  0  0  0  0  0  0
  -19.6400  -25.4460   21.8500 C   0  0  0  0  0  2  0  0  0  0  0  0
  -20.1670  -27.7300   22.8860 C   0  0  0  0  0  0  0  0  0  0  0  0
  -19.7320  -29.0090   23.2960 C   0  0  0  0  0  3  0  0  0  0  0  0
  -18.3780  -29.3780   23.1810 C   0  0  0  0  0  3  0  0  0  0  0  0
  -17.4420  -28.4670   22.6610 C   0  0  0  0  0  3  0  0  0  0  0  0
  -17.8650  -27.1910   22.2470 C   0  0  0  0  0  3  0  0  0  0  0  0
  -26.3160  -32.1860   24.1860 C   0  0  0  0  0  3  0  0  0  0  0  0
  -26.7110  -31.5500   25.5760 C   0  0  1  0  0  0  0  0  0  0  0  0
  -25.4990  -31.0800   26.4140 C   0  0  0  0  0  1  0  0  0  0  0  0
  -27.6450  -30.3340   25.3720 C   0  0  0  0  0  1  0  0  0  0  0  0
  -27.4990  -32.5800   26.4200 C   0  0  0  0  0  1  0  0  0  0  0  0
  -25.8120  -33.5520   24.3650 N   0  0  0  0  0  0  0  0  0  0  0  0
  -26.1320  -34.5880   23.5770 C   0  0  0  0  0  0  0  0  0  0  0  0
  -26.9520  -34.5040   22.6580 O   0  0  0  0  0  0  0  0  0  0  0  0
  -25.1030  -33.6840   25.0710 H   0  0  0  0  0  0  0  0  0  0  0  0
  -24.2610  -36.1110   22.8710 C   0  0  0  0  0  1  0  0  0  0  0  0
  -25.4290  -35.9320   23.8530 C   0  0  0  0  0  3  0  0  0  0  0  0
  -27.3570  -37.1110   24.8140 C   0  0  0  0  0  1  0  0  0  0  0  0
  -26.3360  -37.0980   23.7700 N   0  0  0  0  0  0  0  0  0  0  0  0
  -25.8110  -37.9670   23.8300 H   0  0  0  0  0  0  0  0  0  0  0  0
  1  3  1  0
  2  5  1  0
  2  4  2  0
  4  6  1  0
  5  1  2  0
  6  3  2  0
  6 52  1  0
  7  5  1  0
  7  9  1  0
  8  7  2  0
 10  9  1  0
 10 11  1  0
 11 12  1  0
 12 13  1  0
 14 20  1  0
 16 17  1  0
 16 15  1  0
 18 17  1  0
 18 27  1  0
 18 19  1  0
 20 15  1  0
 20 19  1  0
 21 14  2  0
 22 14  1  0
 22 13  1  0
 23 22  1  0
 24 25  2  0
 25 44  1  0
 25 26  1  0
 26 29  1  0
 27 24  1  0
 27 28  1  0
 28 26  2  0
 29 30  1  0
 30 31  2  0
 32 31  1  0
 33 32  2  0
 34 33  1  0
 34 29  2  0
 35 32  1  0
 35 36  1  0
 36 41  2  0
 36 37  1  0
 37 38  2  0
 38 39  1  0
 39 43  1  0
 40 39  2  0
 41 40  1  0
 42 41  1  0
 44 45  1  0
 45 48  1  0
 45 47  1  0
 46 44  2  0
 49 50  1  0
 49 24  1  0
 51 49  1  0
 52 54  1  0
 53 52  2  0
 54 55  1  0
 56 55  1  0
 57 68  2  0
 58 56  1  0
 58 63  1  0
 59 67  1  0
 59 69  1  0
 60 62  1  0
 61 67  1  0
 62 63  2  0
 62 61  1  0
 64 58  2  0
 65 64  1  0
 65 60  2  0
 66 60  1  0
 66 59  1  0
 67 57  1  0
 69 71  2  0
 70 69  1  0
 72 70  1  0
 73 78  1  0
 74 70  1  0
 75 74  1  0
 76 77  1  0
 76 75  1  0
 77 73  1  0
 78 74  1  0
 78 79  2  0
 80 79  1  0
 81 80  2  0
 82 73  2  0
 82 81  1  0
 83 57  1  0
 83 88  1  0
 83 84  1  0
 84 85  1  1
 84 87  1  0
 86 84  1  0
 88 91  1  0
 89 93  1  0
 89 88  1  0
 90 89  2  0
 93 92  1  0
 95 96  1  0
 95 93  1  0
 95 94  1  0
M  ISO  4  14 100  22 100  55 101  56 101
M  END
>  <TORSDO>  (34) 
F 25

>  <SCORE>  (34) 
-9.639

>  <name>  (34) 
33

>  <ligand_id>  (34) 
33

>  <original_smiles>  (34) 
[H]c1c([H])c([H])c2c(c1[H])C([H])([H])C([H])([H])C([H])([H])C2([H])N([H])C(=O)C1([H])N(C(=O)C([H])(N([H])C(=O)C([H])(N([H])C([H])([H])[H])C([H])([H])[H])C(C([H])([H])[H])(C([H])([H])[H])C([H])([H])[H])C([H])([H])c2c([H])c(OC([H])([H])C([H])([H])C(=O)c3c([H])c([H])c(C(=O)C([H])([H])C([H])([H])C([H])([H])C([H])([H])C([H])([H])N([H])C(=O)N4C([H])([H])C([H])([H])C([H])([H])C([H])(n5nc(-c6c([H])c([H])c(Oc7c([H])c([H])c(F)c([H])c7F)c([H])c6[H])c(C(=O)N([H])[H])c5N([H])[H])C4([H])[H])c([H])c3[H])c([H])c([H])c2C1([H])[H]

>  <smiles>  (34) 
[H]c1c([H])c([H])c2c(c1[H])C([H])([H])C([H])([H])C([H])([H])C2([H])N([H])C(=O)C1([H])N(C(=O)C([H])(N([H])C(=O)C([H])(N([H])C([H])([H])[H])C([H])([H])[H])C(C([H])([H])[H])(C([H])([H])[H])C([H])([H])[H])C([H])([H])c2c([H])c(OC([H])([H])C([H])([H])C(=O)c3c([H])c([H])c(C(=O)C([H])([H])C([H])([H])C([H])([H])C([H])([H])C([H])([H])N([H])C(=O)N4C([H])([H])C([H])([H])C([H])([H])C([H])(n5nc(-c6c([H])c([H])c(Oc7c([H])c([H])c(F)c([H])c7F)c([H])c6[H])c(C(=O)N([H])[H])c5N([H])[H])C4([H])[H])c([H])c3[H])c([H])c([H])c2C1([H])[H]

$$$$
34:0:0
     RDKit          3D

 99108  0  0  1  0  0  0  0  0999 V2000
  -26.9410  -21.8790   22.1850 C   0  0  0  0  0  3  0  0  0  0  0  0
  -26.0590  -22.9750   22.1380 C   0  0  0  0  0  3  0  0  0  0  0  0
  -28.1130  -22.7360   20.2500 C   0  0  0  0  0  3  0  0  0  0  0  0
  -27.9720  -21.7470   21.2440 C   0  0  0  0  0  0  0  0  0  0  0  0
  -26.1980  -23.9800   21.1460 C   0  0  0  0  0  0  0  0  0  0  0  0
  -27.2650  -23.8660   20.2060 C   0  0  0  0  0  0  0  0  0  0  0  0
  -28.8600  -20.5050   21.3060 C   0  0  0  0  0  2  0  0  0  0  0  0
  -30.2790  -20.6160   20.6990 C   0  0  0  0  0  2  0  0  0  0  0  0
  -31.6980  -15.2310   19.2860 C   0  0  0  0  0  0  0  0  0  0  0  0
  -31.2610  -12.8920   18.6750 C   0  0  0  0  0  2  0  0  0  0  0  0
  -30.2380  -12.8340   17.5250 C   0  0  0  0  0  2  0  0  0  0  0  0
  -28.8050  -12.8040   18.0880 C   0  0  0  0  0  2  0  0  0  0  0  0
  -28.5490  -13.9090   19.1490 C   0  0  0  0  0  3  0  0  0  0  0  0
  -29.6920  -13.9710   20.1900 C   0  0  0  0  0  2  0  0  0  0  0  0
  -30.9700  -14.0960   19.4680 N   0  0  0  0  0  0  0  0  0  0  0  0
  -32.7490  -15.2500   18.6390 O   0  0  0  0  0  0  0  0  0  0  0  0
  -30.2490  -18.6440   19.0340 C   0  0  0  0  0  2  0  0  0  0  0  0
  -30.9610  -18.2190   21.4000 C   0  0  0  0  0  2  0  0  0  0  0  0
  -31.0290  -17.4000   18.5980 C   0  0  0  0  0  2  0  0  0  0  0  0
  -31.7110  -16.9620   20.9150 C   0  0  0  0  0  2  0  0  0  0  0  0
  -30.9060  -19.2710   20.2800 C   0  0  0  0  0  3  0  0  0  0  0  0
  -31.1440  -16.3960   19.6780 N   0  0  0  0  0  0  0  0  0  0  0  0
  -26.3180  -14.6980   20.1700 C   0  0  0  0  0  0  0  0  0  0  0  0
  -25.2290  -14.0100   20.6350 C   0  0  0  0  0  0  0  0  0  0  0  0
  -25.5490  -12.6230   20.4970 C   0  0  0  0  0  0  0  0  0  0  0  0
  -27.2390  -13.7370   19.7830 N   0  0  0  0  0  0  0  0  0  0  0  0
  -26.7850  -12.4820   20.0340 N   0  0  0  0  0  0  0  0  0  0  0  0
  -24.7290  -11.4260   20.7280 C   0  0  0  0  0  0  0  0  0  0  0  0
  -25.0960  -10.4510   21.6810 C   0  0  0  0  0  3  0  0  0  0  0  0
  -24.2810   -9.3200   21.8990 C   0  0  0  0  0  3  0  0  0  0  0  0
  -23.0830   -9.1550   21.1630 C   0  0  0  0  0  0  0  0  0  0  0  0
  -22.7330  -10.1170   20.1990 C   0  0  0  0  0  3  0  0  0  0  0  0
  -23.5480  -11.2410   19.9800 C   0  0  0  0  0  3  0  0  0  0  0  0
  -22.2430   -8.0740   21.2870 O   0  0  0  0  0  0  0  0  0  0  0  0
  -22.0220   -7.4710   22.4990 C   0  0  0  0  0  0  0  0  0  0  0  0
  -21.5070   -8.1830   23.6050 C   0  0  0  0  0  3  0  0  0  0  0  0
  -21.2300   -7.5080   24.8100 C   0  0  0  0  0  3  0  0  0  0  0  0
  -21.4590   -6.1230   24.9110 C   0  0  0  0  0  0  0  0  0  0  0  0
  -21.9670   -5.4110   23.8100 C   0  0  0  0  0  3  0  0  0  0  0  0
  -22.2450   -6.0830   22.6070 C   0  0  0  0  0  0  0  0  0  0  0  0
  -22.7150   -5.3890   21.5420 F   0  0  0  0  0  0  0  0  0  0  0  0
  -21.1840   -5.4720   26.0660 F   0  0  0  0  0  0  0  0  0  0  0  0
  -23.9280  -14.6020   21.0930 C   0  0  0  0  0  0  0  0  0  0  0  0
  -23.2680  -13.9650   22.0520 N   0  0  0  0  0  0  0  0  0  0  0  0
  -23.5100  -15.6650   20.6320 O   0  0  0  0  0  0  0  0  0  0  0  0
  -23.6200  -13.1050   22.4480 H   0  0  0  0  0  0  0  0  0  0  0  0
  -22.3990  -14.3440   22.4020 H   0  0  0  0  0  0  0  0  0  0  0  0
  -26.5970  -16.0530   20.0240 N   0  0  0  0  0  0  0  0  0  0  0  0
  -25.9220  -16.7740   20.2540 H   0  0  0  0  0  0  0  0  0  0  0  0
  -27.4610  -16.4190   19.6430 H   0  0  0  0  0  0  0  0  0  0  0  0
  -27.5800  -24.9160   19.1410 C   0  0  0  0  0  2  0  0  0  0  0  0
  -28.5570  -25.9950   19.6480 C   0  0  0  0  0  2  0  0  0  0  0  0
  -28.9620  -27.0120   18.5520 C   0  0  0  0  0  2  0  0  0  0  0  0
  -28.7290  -28.3700   18.9400 O   0  0  0  0  0  0  0  0  0  0  0  0
  -24.4170  -31.7950   23.4080 C   0  0  0  0  0  0  0  0  0  0  0  0
  -27.4340  -28.7930   19.1640 C   0  0  0  0  0  0  0  0  0  0  0  0
  -23.2970  -30.5700   21.5760 C   0  0  0  0  0  3  0  0  0  0  0  0
  -24.8180  -29.7220   19.7150 C   0  0  0  0  0  0  0  0  0  0  0  0
  -25.6690  -31.4830   21.2750 C   0  0  0  0  0  2  0  0  0  0  0  0
  -25.9220  -30.3330   20.3250 C   0  0  0  0  0  0  0  0  0  0  0  0
  -27.2260  -29.8720   20.0490 C   0  0  0  0  0  3  0  0  0  0  0  0
  -26.3070  -28.1970   18.5490 C   0  0  0  0  0  3  0  0  0  0  0  0
  -25.0070  -28.6550   18.8200 C   0  0  0  0  0  3  0  0  0  0  0  0
  -23.4500  -30.2610   20.0630 C   0  0  0  0  0  2  0  0  0  0  0  0
  -24.4860  -31.2880   22.1450 N   0  0  0  0  0  0  0  0  0  0  0  0
  -23.3780  -31.7090   24.0760 O   0  0  0  0  0  0  0  0  0  0  0  0
  -22.9720  -29.2510   22.3130 C   0  0  0  0  0  0  0  0  0  0  0  0
  -21.7820  -28.6940   22.0420 N   0  0  0  0  0  0  0  0  0  0  0  0
  -23.7870  -28.7350   23.0820 O   0  0  0  0  0  0  0  0  0  0  0  0
  -21.1700  -29.1750   21.3970 H   0  0  0  0  0  0  0  0  0  0  0  0
  -19.0810  -26.2990   21.8390 C   0  0  0  0  0  0  0  0  0  0  0  0
  -21.2820  -27.4290   22.5820 C   0  0  0  0  0  3  0  0  0  0  0  0
  -22.0040  -26.2250   21.9290 C   0  0  0  0  0  2  0  0  0  0  0  0
  -21.2540  -25.6540   20.7220 C   0  0  0  0  0  2  0  0  0  0  0  0
  -19.8480  -25.1990   21.1260 C   0  0  0  0  0  2  0  0  0  0  0  0
  -19.7540  -27.3520   22.5130 C   0  0  0  0  0  0  0  0  0  0  0  0
  -18.9930  -28.3660   23.1310 C   0  0  0  0  0  3  0  0  0  0  0  0
  -17.5850  -28.3380   23.0900 C   0  0  0  0  0  3  0  0  0  0  0  0
  -16.9240  -27.2840   22.4340 C   0  0  0  0  0  3  0  0  0  0  0  0
  -17.6700  -26.2650   21.8160 C   0  0  0  0  0  3  0  0  0  0  0  0
  -25.6290  -32.5300   24.0610 C   0  0  0  0  0  3  0  0  0  0  0  0
  -26.1690  -31.8060   25.3550 C   0  0  1  0  0  0  0  0  0  0  0  0
  -25.0630  -31.4400   26.3720 C   0  0  0  0  0  1  0  0  0  0  0  0
  -26.9130  -30.5040   24.9780 C   0  0  0  0  0  1  0  0  0  0  0  0
  -27.2000  -32.7120   26.0670 C   0  0  0  0  0  1  0  0  0  0  0  0
  -25.1970  -33.9000   24.3740 N   0  0  0  0  0  0  0  0  0  0  0  0
  -25.5010  -34.9780   23.6380 C   0  0  0  0  0  0  0  0  0  0  0  0
  -26.2440  -34.9280   22.6530 O   0  0  0  0  0  0  0  0  0  0  0  0
  -24.5430  -34.0050   25.1350 H   0  0  0  0  0  0  0  0  0  0  0  0
  -23.7000  -36.6590   23.1440 C   0  0  0  0  0  1  0  0  0  0  0  0
  -24.8860  -36.3250   24.0620 C   0  0  0  0  0  3  0  0  0  0  0  0
  -26.8810  -37.3250   25.0860 C   0  0  0  0  0  1  0  0  0  0  0  0
  -25.8560  -37.4430   24.0520 N   0  0  0  0  0  0  0  0  0  0  0  0
  -25.3820  -38.3340   24.1780 H   0  0  0  0  0  0  0  0  0  0  0  0
  -25.2200  -25.1660   21.1240 C   0  0  0  0  0  2  0  0  0  0  0  0
  -23.9410  -24.9110   21.8120 N   0  0  0  0  0  4  0  0  0  0  0  0
  -23.4830  -24.1130   21.4110 H   0  0  0  0  0  0  0  0  0  0  0  0
  -23.3340  -25.7050   21.7160 H   0  0  0  0  0  0  0  0  0  0  0  0
  -24.0920  -24.7500   22.7900 H   0  0  0  0  0  0  0  0  0  0  0  0
  2  1  1  0
  3  4  1  0
  4  7  1  0
  4  1  2  0
  5  2  2  0
  6  3  2  0
  6  5  1  0
  8  7  1  0
  9 15  1  0
  9 22  1  0
 10 15  1  0
 11 12  1  0
 11 10  1  0
 13 12  1  0
 13 26  1  0
 13 14  1  0
 15 14  1  0
 16  9  2  0
 17 21  1  0
 19 17  1  0
 19 22  1  0
 20 18  1  0
 21  8  1  0
 21 18  1  0
 22 20  1  0
 23 24  2  0
 24 43  1  0
 25 24  1  0
 25 28  1  0
 26 27  1  0
 26 23  1  0
 27 25  2  0
 28 29  1  0
 29 30  2  0
 31 34  1  0
 31 30  1  0
 32 31  2  0
 33 32  1  0
 33 28  2  0
 34 35  1  0
 35 40  2  0
 35 36  1  0
 36 37  2  0
 37 38  1  0
 38 42  1  0
 39 38  2  0
 40 39  1  0
 41 40  1  0
 43 44  1  0
 44 47  1  0
 44 46  1  0
 45 43  2  0
 48 23  1  0
 48 49  1  0
 50 48  1  0
 51 52  1  0
 51  6  1  0
 53 54  1  0
 53 52  1  0
 54 56  1  0
 55 66  2  0
 56 61  1  0
 57 65  1  0
 57 67  1  0
 58 64  1  0
 58 60  1  0
 59 65  1  0
 60 59  1  0
 61 60  2  0
 62 63  1  0
 62 56  2  0
 63 58  2  0
 64 57  1  0
 65 55  1  0
 67 69  2  0
 68 67  1  0
 70 68  1  0
 71 76  1  0
 72 68  1  0
 73 72  1  0
 74 75  1  0
 74 73  1  0
 75 71  1  0
 76 72  1  0
 76 77  2  0
 78 77  1  0
 79 78  2  0
 80 71  2  0
 80 79  1  0
 81 55  1  0
 81 86  1  0
 81 82  1  0
 82 85  1  1
 82 83  1  0
 84 82  1  0
 86 89  1  0
 87 91  1  0
 87 86  1  0
 88 87  2  0
 91 90  1  0
 93 91  1  0
 93 94  1  0
 93 92  1  0
 95  5  1  0
 95 96  1  0
 96 99  1  0
 97 96  1  0
 98 96  1  0
M  ISO  4   9 100  22 100  53 101  54 101
M  END
>  <TORSDO>  (35) 
F 23

>  <SCORE>  (35) 
-4.537

>  <name>  (35) 
34

>  <ligand_id>  (35) 
34

>  <original_smiles>  (35) 
[H]c1c([H])c([H])c2c(c1[H])C([H])([H])C([H])([H])C([H])([H])C2([H])N([H])C(=O)C1([H])N(C(=O)C([H])(N([H])C(=O)C([H])(N([H])C([H])([H])[H])C([H])([H])[H])C(C([H])([H])[H])(C([H])([H])[H])C([H])([H])[H])C([H])([H])c2c([H])c(OC([H])([H])C([H])([H])C([H])([H])c3c([H])c(C([H])([H])C([H])([H])C4([H])C([H])([H])C([H])([H])N(C(=O)N5C([H])([H])C([H])([H])C([H])([H])C([H])(n6nc(-c7c([H])c([H])c(Oc8c([H])c([H])c(F)c([H])c8F)c([H])c7[H])c(C(=O)N([H])[H])c6N([H])[H])C5([H])[H])C([H])([H])C4([H])[H])c([H])c([H])c3C([H])([H])[N+]([H])([H])[H])c([H])c([H])c2C1([H])[H]

>  <smiles>  (35) 
[H]c1c([H])c([H])c2c(c1[H])C([H])([H])C([H])([H])C([H])([H])C2([H])N([H])C(=O)C1([H])N(C(=O)C([H])(N([H])C(=O)C([H])(N([H])C([H])([H])[H])C([H])([H])[H])C(C([H])([H])[H])(C([H])([H])[H])C([H])([H])[H])C([H])([H])c2c([H])c(OC([H])([H])C([H])([H])C([H])([H])c3c([H])c(C([H])([H])C([H])([H])C4([H])C([H])([H])C([H])([H])N(C(=O)N5C([H])([H])C([H])([H])C([H])([H])C([H])(n6nc(-c7c([H])c([H])c(Oc8c([H])c([H])c(F)c([H])c8F)c([H])c7[H])c(C(=O)N([H])[H])c6N([H])[H])C5([H])[H])C([H])([H])C4([H])[H])c([H])c([H])c3C([H])([H])[N+]([H])([H])[H])c([H])c([H])c2C1([H])[H]

$$$$
35:0:0
     RDKit          3D

 97105  0  0  1  0  0  0  0  0999 V2000
  -26.6730  -19.0910   23.0440 C   0  0  0  0  0  3  0  0  0  0  0  0
  -25.8400  -20.0620   23.6220 C   0  0  0  0  0  3  0  0  0  0  0  0
  -26.2720  -20.0650   20.8480 C   0  0  0  0  0  3  0  0  0  0  0  0
  -26.8790  -19.0800   21.6530 C   0  0  0  0  0  0  0  0  0  0  0  0
  -25.4370  -21.0530   21.4220 C   0  0  0  0  0  0  0  0  0  0  0  0
  -25.2050  -21.0380   22.8210 C   0  0  0  0  0  0  0  0  0  0  0  0
  -24.2260  -22.0320   24.8410 C   0  0  0  0  0  1  0  0  0  0  0  0
  -24.3550  -21.9980   23.3910 N   0  0  0  0  0  0  0  0  0  0  0  0
  -23.4990  -22.1820   22.8740 H   0  0  0  0  0  0  0  0  0  0  0  0
  -27.7400  -18.0050   21.0280 C   0  0  0  0  0  2  0  0  0  0  0  0
  -29.2280  -18.3800   20.9840 C   0  0  0  0  0  2  0  0  0  0  0  0
  -29.9700  -17.4680   20.0060 C   0  0  0  0  0  2  0  0  0  0  0  0
  -31.2610  -16.8440   20.5640 C   0  0  0  0  0  2  0  0  0  0  0  0
  -32.5590  -14.9070   19.6060 C   0  0  0  0  0  0  0  0  0  0  0  0
  -32.4550  -12.4530   19.6990 C   0  0  0  0  0  2  0  0  0  0  0  0
  -31.5390  -11.8960   18.5930 C   0  0  0  0  0  2  0  0  0  0  0  0
  -30.0750  -11.8370   19.0760 C   0  0  0  0  0  2  0  0  0  0  0  0
  -29.6060  -13.1660   19.7280 C   0  0  0  0  0  3  0  0  0  0  0  0
  -30.6480  -13.6600   20.7560 C   0  0  0  0  0  2  0  0  0  0  0  0
  -31.9510  -13.7820   20.0790 N   0  0  0  0  0  0  0  0  0  0  0  0
  -33.6290  -14.8870   18.9990 O   0  0  0  0  0  0  0  0  0  0  0  0
  -31.8490  -16.0280   19.5130 N   0  0  0  0  0  0  0  0  0  0  0  0
  -32.2410  -16.6140   18.7890 H   0  0  0  0  0  0  0  0  0  0  0  0
  -27.3640  -14.0020   20.6880 C   0  0  0  0  0  0  0  0  0  0  0  0
  -26.2520  -13.3340   21.1290 C   0  0  0  0  0  0  0  0  0  0  0  0
  -26.5500  -11.9450   20.9930 C   0  0  0  0  0  0  0  0  0  0  0  0
  -28.2770  -13.0230   20.3240 N   0  0  0  0  0  0  0  0  0  0  0  0
  -27.7920  -11.7780   20.5580 N   0  0  0  0  0  0  0  0  0  0  0  0
  -25.7000  -10.7630   21.1910 C   0  0  0  0  0  0  0  0  0  0  0  0
  -25.5380  -10.1770   22.4650 C   0  0  0  0  0  3  0  0  0  0  0  0
  -24.6990   -9.0530   22.6330 C   0  0  0  0  0  3  0  0  0  0  0  0
  -24.0110   -8.5060   21.5240 C   0  0  0  0  0  0  0  0  0  0  0  0
  -24.1990   -9.0770   20.2530 C   0  0  0  0  0  3  0  0  0  0  0  0
  -25.0380  -10.1920   20.0870 C   0  0  0  0  0  3  0  0  0  0  0  0
  -23.1970   -7.4030   21.5890 O   0  0  0  0  0  0  0  0  0  0  0  0
  -22.0810   -7.3780   22.3860 C   0  0  0  0  0  0  0  0  0  0  0  0
  -20.9890   -8.2460   22.1680 C   0  0  0  0  0  3  0  0  0  0  0  0
  -19.8340   -8.1360   22.9660 C   0  0  0  0  0  3  0  0  0  0  0  0
  -19.7650   -7.1610   23.9780 C   0  0  0  0  0  0  0  0  0  0  0  0
  -20.8500   -6.2930   24.1940 C   0  0  0  0  0  3  0  0  0  0  0  0
  -22.0040   -6.4000   23.3990 C   0  0  0  0  0  0  0  0  0  0  0  0
  -23.0380   -5.5480   23.5940 F   0  0  0  0  0  0  0  0  0  0  0  0
  -18.6520   -7.0530   24.7410 F   0  0  0  0  0  0  0  0  0  0  0  0
  -24.9510  -13.9470   21.5570 C   0  0  0  0  0  0  0  0  0  0  0  0
  -24.2680  -13.3310   22.5160 N   0  0  0  0  0  0  0  0  0  0  0  0
  -24.5540  -15.0070   21.0750 O   0  0  0  0  0  0  0  0  0  0  0  0
  -24.5970  -12.4720   22.9290 H   0  0  0  0  0  0  0  0  0  0  0  0
  -23.3980  -13.7280   22.8400 H   0  0  0  0  0  0  0  0  0  0  0  0
  -27.6650  -15.3530   20.5470 N   0  0  0  0  0  0  0  0  0  0  0  0
  -26.9980  -16.0830   20.7650 H   0  0  0  0  0  0  0  0  0  0  0  0
  -28.5340  -15.7070   20.1670 H   0  0  0  0  0  0  0  0  0  0  0  0
  -24.7920  -22.1490   20.5680 C   0  0  0  0  0  2  0  0  0  0  0  0
  -25.0520  -22.0900   19.0560 C   0  0  0  0  0  2  0  0  0  0  0  0
  -25.3130  -23.4910   18.4980 C   0  0  0  0  0  2  0  0  0  0  0  0
  -25.5260  -23.4580   16.9880 C   0  0  0  0  0  2  0  0  0  0  0  0
  -26.1970  -24.7330   16.4630 C   0  0  0  0  0  2  0  0  0  0  0  0
  -25.1900  -25.5420   15.8820 O   0  0  0  0  0  0  0  0  0  0  0  0
  -24.0180  -28.1390   22.4120 C   0  0  0  0  0  0  0  0  0  0  0  0
  -24.3160  -26.0910   16.7830 C   0  0  0  0  0  0  0  0  0  0  0  0
  -22.0210  -27.8780   20.9700 C   0  0  0  0  0  3  0  0  0  0  0  0
  -22.4880  -27.3290   18.5280 C   0  0  0  0  0  0  0  0  0  0  0  0
  -24.3300  -28.2600   19.9470 C   0  0  0  0  0  2  0  0  0  0  0  0
  -23.8650  -27.4480   18.7580 C   0  0  0  0  0  0  0  0  0  0  0  0
  -24.7840  -26.8300   17.8890 C   0  0  0  0  0  3  0  0  0  0  0  0
  -22.9300  -25.9630   16.5650 C   0  0  0  0  0  3  0  0  0  0  0  0
  -22.0120  -26.5780   17.4380 C   0  0  0  0  0  3  0  0  0  0  0  0
  -21.5720  -28.0430   19.4920 C   0  0  0  0  0  2  0  0  0  0  0  0
  -23.4970  -28.0700   21.1540 N   0  0  0  0  0  0  0  0  0  0  0  0
  -23.2850  -28.0930   23.4100 O   0  0  0  0  0  0  0  0  0  0  0  0
  -21.5140  -26.5120   21.4810 C   0  0  0  0  0  0  0  0  0  0  0  0
  -20.1850  -26.3240   21.4520 N   0  0  0  0  0  0  0  0  0  0  0  0
  -22.3040  -25.6450   21.8610 O   0  0  0  0  0  0  0  0  0  0  0  0
  -19.6080  -27.0870   21.1290 H   0  0  0  0  0  0  0  0  0  0  0  0
  -16.9670  -24.6860   21.4060 C   0  0  0  0  0  0  0  0  0  0  0  0
  -19.4790  -25.1050   21.8450 C   0  0  0  0  0  3  0  0  0  0  0  0
  -19.7430  -23.9620   20.8380 C   0  0  0  0  0  2  0  0  0  0  0  0
  -18.6840  -23.8760   19.7340 C   0  0  0  0  0  2  0  0  0  0  0  0
  -17.2950  -23.6560   20.3380 C   0  0  0  0  0  2  0  0  0  0  0  0
  -17.9930  -25.3790   22.1020 C   0  0  0  0  0  0  0  0  0  0  0  0
  -17.6340  -26.3520   23.0590 C   0  0  0  0  0  3  0  0  0  0  0  0
  -16.2810  -26.6330   23.3290 C   0  0  0  0  0  3  0  0  0  0  0  0
  -15.2700  -25.9300   22.6490 C   0  0  0  0  0  3  0  0  0  0  0  0
  -15.6130  -24.9590   21.6930 C   0  0  0  0  0  3  0  0  0  0  0  0
  -25.5510  -28.3040   22.6570 C   0  0  0  0  0  3  0  0  0  0  0  0
  -26.2030  -27.0570   23.3710 C   0  0  1  0  0  0  0  0  0  0  0  0
  -25.4530  -26.6100   24.6470 C   0  0  0  0  0  1  0  0  0  0  0  0
  -26.2640  -25.8490   22.4070 C   0  0  0  0  0  1  0  0  0  0  0  0
  -27.6610  -27.3830   23.7690 C   0  0  0  0  0  1  0  0  0  0  0  0
  -25.7410  -29.5200   23.4550 N   0  0  0  0  0  0  0  0  0  0  0  0
  -26.2040  -30.6810   22.9740 C   0  0  0  0  0  0  0  0  0  0  0  0
  -26.5870  -30.8190   21.8100 O   0  0  0  0  0  0  0  0  0  0  0  0
  -25.3960  -29.4970   24.4040 H   0  0  0  0  0  0  0  0  0  0  0  0
  -25.0910  -32.8410   23.6250 C   0  0  0  0  0  1  0  0  0  0  0  0
  -26.2470  -31.8800   23.9410 C   0  0  0  0  0  3  0  0  0  0  0  0
  -28.6430  -31.8650   24.4720 C   0  0  0  0  0  1  0  0  0  0  0  0
  -27.5280  -32.6190   23.9060 N   0  0  0  0  0  0  0  0  0  0  0  0
  -27.4510  -33.4970   24.4120 H   0  0  0  0  0  0  0  0  0  0  0  0
  1  2  1  0
  3  5  2  0
  3  4  1  0
  4  1  2  0
  5  6  1  0
  6  8  1  0
  6  2  2  0
  8  7  1  0
  9  8  1  0
 10  4  1  0
 11 10  1  0
 12 13  1  0
 12 11  1  0
 14 20  1  0
 15 20  1  0
 16 17  1  0
 16 15  1  0
 18 17  1  0
 18 27  1  0
 18 19  1  0
 20 19  1  0
 21 14  2  0
 22 14  1  0
 22 13  1  0
 23 22  1  0
 24 25  2  0
 25 44  1  0
 26 25  1  0
 26 29  1  0
 27 28  1  0
 27 24  1  0
 28 26  2  0
 29 30  1  0
 30 31  2  0
 32 35  1  0
 32 31  1  0
 33 32  2  0
 34 33  1  0
 34 29  2  0
 35 36  1  0
 36 41  1  0
 37 36  2  0
 37 38  1  0
 38 39  2  0
 39 40  1  0
 39 43  1  0
 41 42  1  0
 41 40  2  0
 44 45  1  0
 45 48  1  0
 45 47  1  0
 46 44  2  0
 49 24  1  0
 49 50  1  0
 51 49  1  0
 52  5  1  0
 53 52  1  0
 54 53  1  0
 55 54  1  0
 56 55  1  0
 57 56  1  0
 57 59  1  0
 58 69  2  0
 59 64  1  0
 60 68  1  0
 60 70  1  0
 61 63  1  0
 61 67  1  0
 62 68  1  0
 63 62  1  0
 64 63  2  0
 65 59  2  0
 65 66  1  0
 66 61  2  0
 67 60  1  0
 68 58  1  0
 70 72  2  0
 71 70  1  0
 73 71  1  0
 74 83  2  0
 74 79  1  0
 75 71  1  0
 75 79  1  0
 76 75  1  0
 77 78  1  0
 77 76  1  0
 78 74  1  0
 79 80  2  0
 80 81  1  0
 82 81  2  0
 83 82  1  0
 84 58  1  0
 84 85  1  0
 84 89  1  0
 85 88  1  1
 85 86  1  0
 87 85  1  0
 89 92  1  0
 90 89  1  0
 90 94  1  0
 91 90  2  0
 94 93  1  0
 96 94  1  0
 96 97  1  0
 96 95  1  0
M  ISO  4  14 100  22 100  56 101  57 101
M  END
>  <TORSDO>  (36) 
F 26

>  <SCORE>  (36) 
45.921

>  <name>  (36) 
35

>  <ligand_id>  (36) 
35

>  <original_smiles>  (36) 
[H]c1c([H])c([H])c2c(c1[H])C([H])([H])C([H])([H])C([H])([H])C2([H])N([H])C(=O)C1([H])N(C(=O)C([H])(N([H])C(=O)C([H])(N([H])C([H])([H])[H])C([H])([H])[H])C(C([H])([H])[H])(C([H])([H])[H])C([H])([H])[H])C([H])([H])c2c([H])c(OC([H])([H])C([H])([H])C([H])([H])C([H])([H])C([H])([H])c3c([H])c(C([H])([H])C([H])([H])C([H])([H])C([H])([H])N([H])C(=O)N4C([H])([H])C([H])([H])C([H])([H])C([H])(n5nc(-c6c([H])c([H])c(Oc7c([H])c([H])c(F)c([H])c7F)c([H])c6[H])c(C(=O)N([H])[H])c5N([H])[H])C4([H])[H])c([H])c([H])c3N([H])C([H])([H])[H])c([H])c([H])c2C1([H])[H]

>  <smiles>  (36) 
[H]c1c([H])c([H])c2c(c1[H])C([H])([H])C([H])([H])C([H])([H])C2([H])N([H])C(=O)C1([H])N(C(=O)C([H])(N([H])C(=O)C([H])(N([H])C([H])([H])[H])C([H])([H])[H])C(C([H])([H])[H])(C([H])([H])[H])C([H])([H])[H])C([H])([H])c2c([H])c(OC([H])([H])C([H])([H])C([H])([H])C([H])([H])C([H])([H])c3c([H])c(C([H])([H])C([H])([H])C([H])([H])C([H])([H])N([H])C(=O)N4C([H])([H])C([H])([H])C([H])([H])C([H])(n5nc(-c6c([H])c([H])c(Oc7c([H])c([H])c(F)c([H])c7F)c([H])c6[H])c(C(=O)N([H])[H])c5N([H])[H])C4([H])[H])c([H])c([H])c3N([H])C([H])([H])[H])c([H])c([H])c2C1([H])[H]

$$$$
36:0:0
     RDKit          3D

 94102  0  0  1  0  0  0  0  0999 V2000
  -31.7400  -22.9540   15.2900 C   0  0  0  0  0  3  0  0  0  0  0  0
  -30.9860  -21.8550   15.7460 C   0  0  0  0  0  3  0  0  0  0  0  0
  -32.1150  -23.9780   16.1800 C   0  0  0  0  0  3  0  0  0  0  0  0
  -30.9710  -22.8050   17.9840 C   0  0  0  0  0  3  0  0  0  0  0  0
  -30.6050  -21.7700   17.1030 C   0  0  0  0  0  0  0  0  0  0  0  0
  -31.7310  -23.9020   17.5330 C   0  0  0  0  0  0  0  0  0  0  0  0
  -29.7990  -20.5860   17.6180 C   0  0  0  0  0  2  0  0  0  0  0  0
  -30.5400  -19.7950   18.7150 C   0  0  0  0  0  2  0  0  0  0  0  0
  -29.6500  -18.7370   19.3870 C   0  0  0  0  0  2  0  0  0  0  0  0
  -30.4420  -17.5840   20.0350 C   0  0  0  0  0  2  0  0  0  0  0  0
  -29.4910  -16.6260   20.7830 C   0  0  0  0  0  2  0  0  0  0  0  0
  -30.6820  -14.4490   20.5210 C   0  0  0  0  0  0  0  0  0  0  0  0
  -30.3750  -12.3360   19.2950 C   0  0  0  0  0  2  0  0  0  0  0  0
  -29.4270  -12.6070   18.1050 C   0  0  0  0  0  2  0  0  0  0  0  0
  -27.9550  -12.4610   18.5330 C   0  0  0  0  0  2  0  0  0  0  0  0
  -27.6320  -13.2530   19.8260 C   0  0  0  0  0  3  0  0  0  0  0  0
  -28.6860  -12.9610   20.9220 C   0  0  0  0  0  2  0  0  0  0  0  0
  -30.0260  -13.2650   20.3800 N   0  0  0  0  0  0  0  0  0  0  0  0
  -31.7330  -14.7190   19.9320 O   0  0  0  0  0  0  0  0  0  0  0  0
  -30.0410  -15.3540   21.2740 N   0  0  0  0  0  0  0  0  0  0  0  0
  -29.4380  -14.9150   21.9550 H   0  0  0  0  0  0  0  0  0  0  0  0
  -25.2230  -13.8720   20.5030 C   0  0  0  0  0  0  0  0  0  0  0  0
  -24.1540  -13.0990   20.8740 C   0  0  0  0  0  0  0  0  0  0  0  0
  -24.6170  -11.7480   20.8580 C   0  0  0  0  0  0  0  0  0  0  0  0
  -26.2720  -12.9880   20.2930 N   0  0  0  0  0  0  0  0  0  0  0  0
  -25.9090  -11.7080   20.5590 N   0  0  0  0  0  0  0  0  0  0  0  0
  -23.8930  -10.4860   21.0540 C   0  0  0  0  0  0  0  0  0  0  0  0
  -24.3310   -9.5190   21.9850 C   0  0  0  0  0  3  0  0  0  0  0  0
  -23.6080   -8.3210   22.1690 C   0  0  0  0  0  3  0  0  0  0  0  0
  -22.4310   -8.0820   21.4210 C   0  0  0  0  0  0  0  0  0  0  0  0
  -22.0120   -9.0380   20.4760 C   0  0  0  0  0  3  0  0  0  0  0  0
  -22.7390  -10.2250   20.2900 C   0  0  0  0  0  3  0  0  0  0  0  0
  -21.6780   -6.9370   21.5130 O   0  0  0  0  0  0  0  0  0  0  0  0
  -21.6490   -6.1860   22.6600 C   0  0  0  0  0  0  0  0  0  0  0  0
  -21.2500   -6.7320   23.8990 C   0  0  0  0  0  3  0  0  0  0  0  0
  -21.1660   -5.9080   25.0400 C   0  0  0  0  0  3  0  0  0  0  0  0
  -21.4760   -4.5370   24.9420 C   0  0  0  0  0  0  0  0  0  0  0  0
  -21.8700   -3.9900   23.7080 C   0  0  0  0  0  3  0  0  0  0  0  0
  -21.9520   -4.8120   22.5700 C   0  0  0  0  0  0  0  0  0  0  0  0
  -22.3110   -4.2720   21.3800 F   0  0  0  0  0  0  0  0  0  0  0  0
  -21.3890   -3.7430   26.0350 F   0  0  0  0  0  0  0  0  0  0  0  0
  -22.7530  -13.5750   21.1400 C   0  0  0  0  0  0  0  0  0  0  0  0
  -22.0260  -12.8810   22.0090 N   0  0  0  0  0  0  0  0  0  0  0  0
  -22.3130  -14.5950   20.6120 O   0  0  0  0  0  0  0  0  0  0  0  0
  -22.3970  -12.0510   22.4490 H   0  0  0  0  0  0  0  0  0  0  0  0
  -21.0880  -13.1790   22.2340 H   0  0  0  0  0  0  0  0  0  0  0  0
  -25.3940  -15.2380   20.3110 N   0  0  0  0  0  0  0  0  0  0  0  0
  -24.6380  -15.9110   20.3850 H   0  0  0  0  0  0  0  0  0  0  0  0
  -26.2620  -15.6540   19.9930 H   0  0  0  0  0  0  0  0  0  0  0  0
  -32.0890  -25.0010   18.5150 C   0  0  0  0  0  2  0  0  0  0  0  0
  -30.8960  -25.9350   18.7490 C   0  0  0  0  0  2  0  0  0  0  0  0
  -30.8800  -26.5500   20.1540 C   0  0  0  0  0  2  0  0  0  0  0  0
  -29.6780  -27.4730   20.3660 C   0  0  0  0  0  2  0  0  0  0  0  0
  -28.4600  -26.7750   20.0880 O   0  0  0  0  0  0  0  0  0  0  0  0
  -24.5890  -31.8700   23.2240 C   0  0  0  0  0  0  0  0  0  0  0  0
  -27.2900  -27.5020   20.1440 C   0  0  0  0  0  0  0  0  0  0  0  0
  -23.3830  -30.4580   21.5780 C   0  0  0  0  0  3  0  0  0  0  0  0
  -24.8500  -28.9260   20.1610 C   0  0  0  0  0  0  0  0  0  0  0  0
  -25.8970  -30.8530   21.3720 C   0  0  0  0  0  2  0  0  0  0  0  0
  -25.9940  -29.4850   20.7410 C   0  0  0  0  0  0  0  0  0  0  0  0
  -27.2070  -28.7820   20.7370 C   0  0  0  0  0  3  0  0  0  0  0  0
  -26.1290  -26.9400   19.5720 C   0  0  0  0  0  3  0  0  0  0  0  0
  -24.9080  -27.6470   19.5750 C   0  0  0  0  0  3  0  0  0  0  0  0
  -23.5960  -29.7650   20.2010 C   0  0  0  0  0  2  0  0  0  0  0  0
  -24.6400  -31.0760   22.1160 N   0  0  0  0  0  0  0  0  0  0  0  0
  -23.5100  -32.1370   23.7680 O   0  0  0  0  0  0  0  0  0  0  0  0
  -22.7400  -29.4380   22.5430 C   0  0  0  0  0  0  0  0  0  0  0  0
  -21.4160  -29.2560   22.4200 N   0  0  0  0  0  0  0  0  0  0  0  0
  -23.4280  -28.8120   23.3530 O   0  0  0  0  0  0  0  0  0  0  0  0
  -20.9230  -29.8110   21.7330 H   0  0  0  0  0  0  0  0  0  0  0  0
  -18.0400  -28.0860   22.9380 C   0  0  0  0  0  0  0  0  0  0  0  0
  -20.6010  -28.3190   23.1910 C   0  0  0  0  0  3  0  0  0  0  0  0
  -20.6860  -26.8930   22.5990 C   0  0  0  0  0  2  0  0  0  0  0  0
  -19.5730  -26.5910   21.5910 C   0  0  0  0  0  2  0  0  0  0  0  0
  -18.1990  -26.7430   22.2490 C   0  0  0  0  0  2  0  0  0  0  0  0
  -19.1690  -28.8350   23.3650 C   0  0  0  0  0  0  0  0  0  0  0  0
  -18.9670  -30.0950   23.9650 C   0  0  0  0  0  3  0  0  0  0  0  0
  -17.6690  -30.6090   24.1460 C   0  0  0  0  0  3  0  0  0  0  0  0
  -16.5530  -29.8550   23.7400 C   0  0  0  0  0  3  0  0  0  0  0  0
  -16.7400  -28.5970   23.1410 C   0  0  0  0  0  3  0  0  0  0  0  0
  -25.8790  -32.5010   23.8420 C   0  0  0  0  0  3  0  0  0  0  0  0
  -26.4060  -31.7270   25.1130 C   0  0  1  0  0  0  0  0  0  0  0  0
  -25.3230  -31.4920   26.1920 C   0  0  0  0  0  1  0  0  0  0  0  0
  -26.9820  -30.3490   24.7130 C   0  0  0  0  0  1  0  0  0  0  0  0
  -27.5680  -32.5170   25.7640 C   0  0  0  0  0  1  0  0  0  0  0  0
  -25.5740  -33.8980   24.1710 N   0  0  0  0  0  0  0  0  0  0  0  0
  -25.9090  -34.9500   23.4100 C   0  0  0  0  0  0  0  0  0  0  0  0
  -26.5810  -34.8480   22.3810 O   0  0  0  0  0  0  0  0  0  0  0  0
  -24.9810  -34.0560   24.9730 H   0  0  0  0  0  0  0  0  0  0  0  0
  -24.1790  -36.7360   23.0410 C   0  0  0  0  0  1  0  0  0  0  0  0
  -25.4140  -36.3360   23.8640 C   0  0  0  0  0  3  0  0  0  0  0  0
  -27.5550  -37.2010   24.6990 C   0  0  0  0  0  1  0  0  0  0  0  0
  -26.4400  -37.3970   23.7750 N   0  0  0  0  0  0  0  0  0  0  0  0
  -26.0300  -38.3060   23.9690 H   0  0  0  0  0  0  0  0  0  0  0  0
  1  2  2  0
  1  3  1  0
  2  5  1  0
  3  6  2  0
  5  7  1  0
  5  4  2  0
  6  4  1  0
  6 50  1  0
  7  8  1  0
  8  9  1  0
  9 10  1  0
 10 11  1  0
 11 20  1  0
 12 20  1  0
 13 18  1  0
 14 15  1  0
 14 13  1  0
 16 15  1  0
 16 25  1  0
 16 17  1  0
 18 12  1  0
 18 17  1  0
 19 12  2  0
 20 21  1  0
 22 23  2  0
 23 42  1  0
 24 23  1  0
 24 27  1  0
 25 22  1  0
 25 26  1  0
 26 24  2  0
 27 28  1  0
 28 29  2  0
 30 33  1  0
 30 29  1  0
 31 30  2  0
 32 31  1  0
 32 27  2  0
 33 34  1  0
 34 35  1  0
 35 36  2  0
 37 36  1  0
 37 41  1  0
 38 37  2  0
 39 34  2  0
 39 38  1  0
 40 39  1  0
 42 43  1  0
 43 46  1  0
 43 45  1  0
 44 42  2  0
 47 48  1  0
 47 22  1  0
 49 47  1  0
 50 51  1  0
 51 52  1  0
 52 53  1  0
 54 56  1  0
 54 53  1  0
 55 66  2  0
 56 61  1  0
 57 65  1  0
 57 67  1  0
 58 64  1  0
 58 60  1  0
 59 65  1  0
 60 59  1  0
 61 60  2  0
 62 63  1  0
 62 56  2  0
 63 58  2  0
 64 57  1  0
 65 55  1  0
 67 69  2  0
 68 67  1  0
 70 68  1  0
 71 80  2  0
 71 76  1  0
 72 68  1  0
 72 76  1  0
 73 72  1  0
 74 75  1  0
 74 73  1  0
 75 71  1  0
 76 77  2  0
 77 78  1  0
 79 78  2  0
 80 79  1  0
 81 55  1  0
 81 86  1  0
 81 82  1  0
 82 85  1  1
 82 83  1  0
 84 82  1  0
 86 89  1  0
 87 91  1  0
 87 86  1  0
 88 87  2  0
 91 90  1  0
 93 91  1  0
 93 94  1  0
 93 92  1  0
M  ISO  4  12 100  20 100  53 101  54 101
M  END
>  <TORSDO>  (37) 
F 25

>  <SCORE>  (37) 
-12.043

>  <name>  (37) 
36

>  <ligand_id>  (37) 
36

>  <original_smiles>  (37) 
[H]c1c([H])c([H])c2c(c1[H])C([H])([H])C([H])([H])C([H])([H])C2([H])N([H])C(=O)C1([H])N(C(=O)C([H])(N([H])C(=O)C([H])(N([H])C([H])([H])[H])C([H])([H])[H])C(C([H])([H])[H])(C([H])([H])[H])C([H])([H])[H])C([H])([H])c2c([H])c(OC([H])([H])C([H])([H])C([H])([H])C([H])([H])c3c([H])c([H])c([H])c(C([H])([H])C([H])([H])C([H])([H])C([H])([H])C([H])([H])N([H])C(=O)N4C([H])([H])C([H])([H])C([H])([H])C([H])(n5nc(-c6c([H])c([H])c(Oc7c([H])c([H])c(F)c([H])c7F)c([H])c6[H])c(C(=O)N([H])[H])c5N([H])[H])C4([H])[H])c3[H])c([H])c([H])c2C1([H])[H]

>  <smiles>  (37) 
[H]c1c([H])c([H])c2c(c1[H])C([H])([H])C([H])([H])C([H])([H])C2([H])N([H])C(=O)C1([H])N(C(=O)C([H])(N([H])C(=O)C([H])(N([H])C([H])([H])[H])C([H])([H])[H])C(C([H])([H])[H])(C([H])([H])[H])C([H])([H])[H])C([H])([H])c2c([H])c(OC([H])([H])C([H])([H])C([H])([H])C([H])([H])c3c([H])c([H])c([H])c(C([H])([H])C([H])([H])C([H])([H])C([H])([H])C([H])([H])N([H])C(=O)N4C([H])([H])C([H])([H])C([H])([H])C([H])(n5nc(-c6c([H])c([H])c(Oc7c([H])c([H])c(F)c([H])c7F)c([H])c6[H])c(C(=O)N([H])[H])c5N([H])[H])C4([H])[H])c3[H])c([H])c([H])c2C1([H])[H]

$$$$
37:0:0
     RDKit          3D

100107  0  0  1  0  0  0  0  0999 V2000
  -26.5210  -24.1410   24.0390 C   0  0  0  0  0  2  0  0  0  0  0  0
  -27.1620  -25.5610   24.2030 C   0  0  0  0  0  3  0  0  0  0  0  0
  -28.4620  -25.8000   23.5030 N   0  0  0  0  0  4  0  0  0  0  0  0
  -28.5060  -26.7820   23.2700 H   0  0  0  0  0  0  0  0  0  0  0  0
  -29.1710  -25.6490   24.2070 H   0  0  0  0  0  0  0  0  0  0  0  0
  -28.8870  -25.0200   22.3060 C   0  0  0  0  0  2  0  0  0  0  0  0
  -28.1180  -25.3000   20.9760 C   0  0  0  0  0  2  0  0  0  0  0  0
  -28.3420  -26.5980   20.3550 O   0  0  0  0  0  0  0  0  0  0  0  0
  -24.6200  -31.8630   23.2080 C   0  0  0  0  0  0  0  0  0  0  0  0
  -27.2140  -27.3820   20.2030 C   0  0  0  0  0  0  0  0  0  0  0  0
  -23.4090  -30.4970   21.5400 C   0  0  0  0  0  3  0  0  0  0  0  0
  -24.8560  -28.9510   20.1100 C   0  0  0  0  0  0  0  0  0  0  0  0
  -25.9360  -30.8260   21.3580 C   0  0  0  0  0  2  0  0  0  0  0  0
  -26.0140  -29.4560   20.7180 C   0  0  0  0  0  0  0  0  0  0  0  0
  -27.1970  -28.6850   20.7510 C   0  0  0  0  0  3  0  0  0  0  0  0
  -26.0470  -26.8950   19.5720 C   0  0  0  0  0  3  0  0  0  0  0  0
  -24.8700  -27.6720   19.5220 C   0  0  0  0  0  3  0  0  0  0  0  0
  -23.6250  -29.8340   20.1510 C   0  0  0  0  0  2  0  0  0  0  0  0
  -24.6740  -31.0750   22.0950 N   0  0  0  0  0  0  0  0  0  0  0  0
  -23.5400  -32.1340   23.7510 O   0  0  0  0  0  0  0  0  0  0  0  0
  -22.7470  -29.4650   22.4840 C   0  0  0  0  0  0  0  0  0  0  0  0
  -21.4160  -29.3180   22.3790 N   0  0  0  0  0  0  0  0  0  0  0  0
  -23.4310  -28.8000   23.2690 O   0  0  0  0  0  0  0  0  0  0  0  0
  -20.9130  -29.9560   21.7720 H   0  0  0  0  0  0  0  0  0  0  0  0
  -18.0350  -28.1470   22.8610 C   0  0  0  0  0  0  0  0  0  0  0  0
  -20.5950  -28.3680   23.1290 C   0  0  0  0  0  3  0  0  0  0  0  0
  -20.6890  -26.9470   22.5280 C   0  0  0  0  0  2  0  0  0  0  0  0
  -19.5610  -26.6250   21.5390 C   0  0  0  0  0  2  0  0  0  0  0  0
  -18.1920  -26.7910   22.1960 C   0  0  0  0  0  2  0  0  0  0  0  0
  -19.1630  -28.8850   23.2960 C   0  0  0  0  0  0  0  0  0  0  0  0
  -18.9660  -30.1430   23.9020 C   0  0  0  0  0  3  0  0  0  0  0  0
  -17.6700  -30.6640   24.0810 C   0  0  0  0  0  3  0  0  0  0  0  0
  -16.5540  -29.9270   23.6520 C   0  0  0  0  0  3  0  0  0  0  0  0
  -16.7360  -28.6710   23.0480 C   0  0  0  0  0  3  0  0  0  0  0  0
  -25.9080  -32.4770   23.8390 C   0  0  0  0  0  3  0  0  0  0  0  0
  -25.6010  -33.8590   24.2300 N   0  0  0  0  0  0  0  0  0  0  0  0
  -25.9070  -34.9440   23.5070 C   0  0  0  0  0  0  0  0  0  0  0  0
  -26.5530  -34.8910   22.4580 O   0  0  0  0  0  0  0  0  0  0  0  0
  -25.0510  -33.9790   25.0700 H   0  0  0  0  0  0  0  0  0  0  0  0
  -24.1510  -36.7320   23.2620 C   0  0  0  0  0  1  0  0  0  0  0  0
  -25.4110  -36.3060   24.0350 C   0  0  0  0  0  3  0  0  0  0  0  0
  -27.5580  -37.1840   24.8450 C   0  0  0  0  0  1  0  0  0  0  0  0
  -26.4280  -37.3760   23.9420 N   0  0  0  0  0  0  0  0  0  0  0  0
  -26.0130  -38.2850   24.1370 H   0  0  0  0  0  0  0  0  0  0  0  0
  -26.4530  -31.6560   25.0720 C   0  0  1  0  0  0  0  0  0  0  0  0
  -25.3830  -31.3720   26.1510 C   0  0  0  0  0  1  0  0  0  0  0  0
  -27.0300  -30.2950   24.6110 C   0  0  0  0  0  1  0  0  0  0  0  0
  -27.6070  -32.4310   25.7520 C   0  0  0  0  0  1  0  0  0  0  0  0
  -27.3000  -26.0020   25.6900 C   0  0  0  0  0  2  0  0  0  0  0  0
  -26.0550  -26.1450   26.3510 O   0  0  0  0  0  0  0  0  0  0  0  0
  -25.6420  -26.9390   26.0320 H   0  0  0  0  0  0  0  0  0  0  0  0
  -27.0250  -23.0210   24.9920 C   0  0  0  0  0  2  0  0  0  0  0  0
  -25.9910  -22.6600   26.1010 C   0  0  0  0  0  2  0  0  0  0  0  0
  -26.5580  -22.2050   27.4590 C   0  0  0  0  0  2  0  0  0  0  0  0
  -27.3370  -20.8810   27.4080 C   0  0  0  0  0  2  0  0  0  0  0  0
  -28.2720  -20.6640   28.6180 C   0  0  0  0  0  2  0  0  0  0  0  0
  -29.5370  -19.8600   28.2490 C   0  0  0  0  0  2  0  0  0  0  0  0
  -30.5490  -20.6620   27.3930 C   0  0  0  0  0  2  0  0  0  0  0  0
  -31.3780  -19.8080   26.4040 C   0  0  0  0  0  2  0  0  0  0  0  0
  -30.5690  -19.3300   25.1730 C   0  0  0  0  0  2  0  0  0  0  0  0
  -31.3260  -18.3710   24.2190 C   0  0  0  0  0  2  0  0  0  0  0  0
  -30.3810  -17.6290   23.2300 C   0  0  0  0  0  2  0  0  0  0  0  0
  -31.0670  -16.6230   22.2560 C   0  0  0  0  0  2  0  0  0  0  0  0
  -30.1240  -15.4840   21.7510 C   0  0  0  0  0  2  0  0  0  0  0  0
  -30.7090  -14.4550   20.7370 C   0  0  0  0  0  0  0  0  0  0  0  0
  -30.4420  -12.3600   19.4230 C   0  0  0  0  0  2  0  0  0  0  0  0
  -29.5030  -12.5320   18.2130 C   0  0  0  0  0  2  0  0  0  0  0  0
  -28.0260  -12.3670   18.6190 C   0  0  0  0  0  2  0  0  0  0  0  0
  -27.6630  -13.1990   19.8750 C   0  0  0  0  0  3  0  0  0  0  0  0
  -28.6940  -12.9630   20.9980 C   0  0  0  0  0  2  0  0  0  0  0  0
  -30.0310  -13.3030   20.4790 N   0  0  0  0  0  0  0  0  0  0  0  0
  -31.7720  -14.7190   20.1610 O   0  0  0  0  0  0  0  0  0  0  0  0
  -25.2600  -13.8150   20.5660 C   0  0  0  0  0  0  0  0  0  0  0  0
  -24.1810  -13.0450   20.9190 C   0  0  0  0  0  0  0  0  0  0  0  0
  -24.6350  -11.6940   20.8730 C   0  0  0  0  0  0  0  0  0  0  0  0
  -26.2990  -12.9280   20.3290 N   0  0  0  0  0  0  0  0  0  0  0  0
  -25.9260  -11.6450   20.5690 N   0  0  0  0  0  0  0  0  0  0  0  0
  -23.9000  -10.4330   21.0440 C   0  0  0  0  0  0  0  0  0  0  0  0
  -24.3580   -9.4250   21.9210 C   0  0  0  0  0  3  0  0  0  0  0  0
  -23.6290   -8.2260   22.0760 C   0  0  0  0  0  3  0  0  0  0  0  0
  -22.4260   -8.0290   21.3560 C   0  0  0  0  0  0  0  0  0  0  0  0
  -21.9890   -9.0260   20.4640 C   0  0  0  0  0  3  0  0  0  0  0  0
  -22.7190  -10.2160   20.3070 C   0  0  0  0  0  3  0  0  0  0  0  0
  -21.6650   -6.8880   21.4240 O   0  0  0  0  0  0  0  0  0  0  0  0
  -21.6840   -6.0740   22.5300 C   0  0  0  0  0  0  0  0  0  0  0  0
  -21.3990   -6.5640   23.8220 C   0  0  0  0  0  3  0  0  0  0  0  0
  -21.3680   -5.6770   24.9190 C   0  0  0  0  0  3  0  0  0  0  0  0
  -21.6040   -4.3040   24.7210 C   0  0  0  0  0  0  0  0  0  0  0  0
  -21.8830   -3.8150   23.4330 C   0  0  0  0  0  3  0  0  0  0  0  0
  -21.9190   -4.6980   22.3400 C   0  0  0  0  0  0  0  0  0  0  0  0
  -22.1660   -4.2160   21.0970 F   0  0  0  0  0  0  0  0  0  0  0  0
  -21.5660   -3.4530   25.7740 F   0  0  0  0  0  0  0  0  0  0  0  0
  -22.7850  -13.5320   21.1830 C   0  0  0  0  0  0  0  0  0  0  0  0
  -22.0410  -12.8370   22.0370 N   0  0  0  0  0  0  0  0  0  0  0  0
  -22.3590  -14.5660   20.6710 O   0  0  0  0  0  0  0  0  0  0  0  0
  -22.3940  -12.0030   22.4820 H   0  0  0  0  0  0  0  0  0  0  0  0
  -21.1010  -13.1440   22.2470 H   0  0  0  0  0  0  0  0  0  0  0  0
  -25.4350  -15.1860   20.4090 N   0  0  0  0  0  0  0  0  0  0  0  0
  -24.6770  -15.8480   20.5310 H   0  0  0  0  0  0  0  0  0  0  0  0
  -26.3000  -15.6190   20.1080 H   0  0  0  0  0  0  0  0  0  0  0  0
  1 52  1  0
  2  1  1  0
  2 49  1  0
  3  2  1  0
  3  5  1  0
  4  3  1  0
  6  3  1  0
  7  6  1  0
  8  7  1  0
  9 20  2  0
 10  8  1  0
 10 15  1  0
 11 19  1  0
 11 21  1  0
 12 18  1  0
 12 14  1  0
 13 19  1  0
 14 15  2  0
 14 13  1  0
 16 10  2  0
 17 16  1  0
 17 12  2  0
 18 11  1  0
 19  9  1  0
 21 23  2  0
 22 21  1  0
 24 22  1  0
 25 34  2  0
 25 30  1  0
 26 22  1  0
 26 30  1  0
 27 26  1  0
 28 29  1  0
 28 27  1  0
 29 25  1  0
 30 31  2  0
 31 32  1  0
 33 32  2  0
 34 33  1  0
 35  9  1  0
 35 36  1  0
 35 45  1  0
 36 39  1  0
 37 41  1  0
 37 36  1  0
 38 37  2  0
 41 40  1  0
 43 41  1  0
 43 44  1  0
 43 42  1  0
 45 48  1  1
 45 46  1  0
 47 45  1  0
 49 50  1  0
 51 50  1  0
 52 53  1  0
 53 54  1  0
 55 54  1  0
 55 56  1  0
 57 56  1  0
 58 57  1  0
 59 58  1  0
 60 59  1  0
 61 60  1  0
 62 61  1  0
 63 62  1  0
 64 63  1  0
 65 64  1  0
 66 71  1  0
 67 68  1  0
 67 66  1  0
 69 68  1  0
 69 76  1  0
 69 70  1  0
 71 65  1  0
 71 70  1  0
 72 65  2  0
 73 74  2  0
 74 93  1  0
 75 74  1  0
 75 78  1  0
 76 73  1  0
 76 77  1  0
 77 75  2  0
 78 79  1  0
 79 80  2  0
 81 84  1  0
 81 80  1  0
 82 81  2  0
 83 82  1  0
 83 78  2  0
 84 85  1  0
 85 86  1  0
 86 87  2  0
 88 87  1  0
 88 92  1  0
 89 88  2  0
 90 85  2  0
 90 89  1  0
 91 90  1  0
 93 94  1  0
 94 97  1  0
 94 96  1  0
 95 93  2  0
 98 99  1  0
 98 73  1  0
100 98  1  0
M  ISO  4   7 101   8 101  64 100  65 100
M  END
>  <TORSDO>  (38) 
F 35

>  <SCORE>  (38) 
40.538

>  <name>  (38) 
37

>  <ligand_id>  (38) 
37

>  <original_smiles>  (38) 
[H]OC([H])([H])C([H])(C([H])([H])C([H])([H])C([H])([H])C([H])([H])C([H])([H])C([H])([H])C([H])([H])C([H])([H])C([H])([H])C([H])([H])C([H])([H])C([H])([H])C([H])([H])C([H])([H])C(=O)N1C([H])([H])C([H])([H])C([H])([H])C([H])(n2nc(-c3c([H])c([H])c(Oc4c([H])c([H])c(F)c([H])c4F)c([H])c3[H])c(C(=O)N([H])[H])c2N([H])[H])C1([H])[H])[N+]([H])([H])C([H])([H])C([H])([H])Oc1c([H])c([H])c2c(c1[H])C([H])([H])N(C(=O)C([H])(N([H])C(=O)C([H])(N([H])C([H])([H])[H])C([H])([H])[H])C(C([H])([H])[H])(C([H])([H])[H])C([H])([H])[H])C([H])(C(=O)N([H])C1([H])c3c([H])c([H])c([H])c([H])c3C([H])([H])C([H])([H])C1([H])[H])C2([H])[H]

>  <smiles>  (38) 
[H]OC([H])([H])C([H])(C([H])([H])C([H])([H])C([H])([H])C([H])([H])C([H])([H])C([H])([H])C([H])([H])C([H])([H])C([H])([H])C([H])([H])C([H])([H])C([H])([H])C([H])([H])C([H])([H])C(=O)N1C([H])([H])C([H])([H])C([H])([H])C([H])(n2nc(-c3c([H])c([H])c(Oc4c([H])c([H])c(F)c([H])c4F)c([H])c3[H])c(C(=O)N([H])[H])c2N([H])[H])C1([H])[H])[N+]([H])([H])C([H])([H])C([H])([H])Oc1c([H])c([H])c2c(c1[H])C([H])([H])N(C(=O)C([H])(N([H])C(=O)C([H])(N([H])C([H])([H])[H])C([H])([H])[H])C(C([H])([H])[H])(C([H])([H])[H])C([H])([H])[H])C([H])(C(=O)N([H])C1([H])c3c([H])c([H])c([H])c([H])c3C([H])([H])C([H])([H])C1([H])[H])C2([H])[H]

$$$$
38:0:0
     RDKit          3D

 97106  0  0  1  0  0  0  0  0999 V2000
  -33.2960  -26.1870   15.6640 C   0  0  0  0  0  3  0  0  0  0  0  0
  -33.1880  -25.3250   14.5570 C   0  0  0  0  0  3  0  0  0  0  0  0
  -34.7140  -24.5500   16.7710 C   0  0  0  0  0  3  0  0  0  0  0  0
  -34.0600  -25.7970   16.7800 C   0  0  0  0  0  0  0  0  0  0  0  0
  -33.8240  -24.0620   14.5520 C   0  0  0  0  0  0  0  0  0  0  0  0
  -34.5900  -23.6660   15.6810 C   0  0  0  0  0  0  0  0  0  0  0  0
  -34.7550  -23.3460   12.2900 C   0  0  0  0  0  1  0  0  0  0  0  0
  -33.6380  -23.1710   13.3280 C   0  0  0  0  0  2  0  0  0  0  0  0
  -34.1730  -26.6830   18.0090 C   0  0  0  0  0  2  0  0  0  0  0  0
  -35.5910  -26.6370   18.6140 C   0  0  0  0  0  2  0  0  0  0  0  0
  -40.2190  -29.8460   17.9740 C   0  0  0  0  0  0  0  0  0  0  0  0
  -42.2030  -30.4390   19.3110 C   0  0  0  0  0  2  0  0  0  0  0  0
  -42.9620  -29.1620   19.7220 C   0  0  0  0  0  2  0  0  0  0  0  0
  -42.3890  -28.5840   21.0310 C   0  0  0  0  0  2  0  0  0  0  0  0
  -40.8440  -28.4510   20.9980 C   0  0  0  0  0  3  0  0  0  0  0  0
  -40.1970  -29.7630   20.5020 C   0  0  0  0  0  2  0  0  0  0  0  0
  -40.7780  -30.0980   19.1880 N   0  0  0  0  0  0  0  0  0  0  0  0
  -40.8190  -30.0300   16.9070 O   0  0  0  0  0  0  0  0  0  0  0  0
  -37.9510  -26.9930   17.7610 C   0  0  0  0  0  2  0  0  0  0  0  0
  -36.7260  -28.9360   18.8040 C   0  0  0  0  0  2  0  0  0  0  0  0
  -38.9180  -27.9960   17.1220 C   0  0  0  0  0  2  0  0  0  0  0  0
  -37.7810  -29.8750   18.1820 C   0  0  0  0  0  2  0  0  0  0  0  0
  -36.5740  -27.6400   17.9830 C   0  0  0  0  0  3  0  0  0  0  0  0
  -39.0550  -29.1650   17.9950 N   0  0  0  0  0  0  0  0  0  0  0  0
  -39.7650  -26.8410   22.6960 C   0  0  0  0  0  0  0  0  0  0  0  0
  -39.4950  -26.9690   24.0320 C   0  0  0  0  0  0  0  0  0  0  0  0
  -39.9140  -28.2850   24.3950 C   0  0  0  0  0  0  0  0  0  0  0  0
  -40.3160  -28.0520   22.3020 N   0  0  0  0  0  0  0  0  0  0  0  0
  -40.3560  -28.9380   23.3290 N   0  0  0  0  0  0  0  0  0  0  0  0
  -39.9750  -28.9420   25.7080 C   0  0  0  0  0  0  0  0  0  0  0  0
  -38.8170  -29.4680   26.3240 C   0  0  0  0  0  3  0  0  0  0  0  0
  -38.8980  -30.0800   27.5940 C   0  0  0  0  0  3  0  0  0  0  0  0
  -40.1430  -30.1670   28.2610 C   0  0  0  0  0  0  0  0  0  0  0  0
  -41.2950  -29.6620   27.6340 C   0  0  0  0  0  3  0  0  0  0  0  0
  -41.2140  -29.0590   26.3670 C   0  0  0  0  0  3  0  0  0  0  0  0
  -40.3210  -30.7660   29.4850 O   0  0  0  0  0  0  0  0  0  0  0  0
  -39.6680  -30.3210   30.6060 C   0  0  0  0  0  0  0  0  0  0  0  0
  -39.9230  -29.0490   31.1620 C   0  0  0  0  0  3  0  0  0  0  0  0
  -39.2790  -28.6590   32.3550 C   0  0  0  0  0  3  0  0  0  0  0  0
  -38.3910  -29.5420   32.9970 C   0  0  0  0  0  0  0  0  0  0  0  0
  -38.1400  -30.8120   32.4470 C   0  0  0  0  0  3  0  0  0  0  0  0
  -38.7790  -31.2010   31.2570 C   0  0  0  0  0  0  0  0  0  0  0  0
  -38.5500  -32.4340   30.7430 F   0  0  0  0  0  0  0  0  0  0  0  0
  -37.7790  -29.1720   34.1460 F   0  0  0  0  0  0  0  0  0  0  0  0
  -38.9630  -25.9010   24.9450 C   0  0  0  0  0  0  0  0  0  0  0  0
  -37.6600  -25.9090   25.2040 N   0  0  0  0  0  0  0  0  0  0  0  0
  -39.6970  -25.0230   25.3970 O   0  0  0  0  0  0  0  0  0  0  0  0
  -37.0550  -26.6170   24.8160 H   0  0  0  0  0  0  0  0  0  0  0  0
  -37.2620  -25.1940   25.7960 H   0  0  0  0  0  0  0  0  0  0  0  0
  -39.6070  -25.7980   21.7910 N   0  0  0  0  0  0  0  0  0  0  0  0
  -39.2460  -24.8900   22.0640 H   0  0  0  0  0  0  0  0  0  0  0  0
  -39.8750  -25.8420   20.8160 H   0  0  0  0  0  0  0  0  0  0  0  0
  -35.2110  -22.2810   15.8220 C   0  0  0  0  0  2  0  0  0  0  0  0
  -36.3770  -22.1800   16.8300 C   0  0  0  0  0  2  0  0  0  0  0  0
  -37.5860  -21.5370   16.1390 C   0  0  0  0  0  2  0  0  0  0  0  0
  -37.2920  -20.4070   15.1250 C   0  0  0  0  0  2  0  0  0  0  0  0
  -37.4500  -19.1040   15.7080 O   0  0  0  0  0  0  0  0  0  0  0  0
  -33.5550  -14.8250   11.5930 C   0  0  0  0  0  0  0  0  0  0  0  0
  -36.3280  -18.3210   15.6030 C   0  0  0  0  0  0  0  0  0  0  0  0
  -32.4220  -15.7370   13.5960 C   0  0  0  0  0  3  0  0  0  0  0  0
  -33.9410  -16.8580   15.3120 C   0  0  0  0  0  0  0  0  0  0  0  0
  -34.9520  -15.3700   13.5760 C   0  0  0  0  0  2  0  0  0  0  0  0
  -35.0650  -16.5230   14.5470 C   0  0  0  0  0  0  0  0  0  0  0  0
  -36.2630  -17.2570   14.6810 C   0  0  0  0  0  3  0  0  0  0  0  0
  -35.2030  -18.6270   16.3970 C   0  0  0  0  0  3  0  0  0  0  0  0
  -34.0020  -17.9130   16.2390 C   0  0  0  0  0  3  0  0  0  0  0  0
  -32.6930  -16.0330   15.0950 C   0  0  0  0  0  2  0  0  0  0  0  0
  -33.6570  -15.3120   12.8610 N   0  0  0  0  0  0  0  0  0  0  0  0
  -32.4500  -14.6870   11.0490 O   0  0  0  0  0  0  0  0  0  0  0  0
  -31.7270  -16.9660   12.9650 C   0  0  0  0  0  0  0  0  0  0  0  0
  -32.4620  -17.6890   12.1050 N   0  0  0  0  0  0  0  0  0  0  0  0
  -30.5530  -17.2340   13.2310 O   0  0  0  0  0  0  0  0  0  0  0  0
  -33.4190  -17.4050   11.9480 H   0  0  0  0  0  0  0  0  0  0  0  0
  -29.5300  -19.3810   10.8460 C   0  0  0  0  0  0  0  0  0  0  0  0
  -32.0090  -18.8670   11.3670 C   0  0  0  0  0  3  0  0  0  0  0  0
  -31.9700  -20.1140   12.2810 C   0  0  0  0  0  2  0  0  0  0  0  0
  -30.6010  -20.3450   12.9270 C   0  0  0  0  0  2  0  0  0  0  0  0
  -29.5210  -20.5180   11.8540 C   0  0  0  0  0  2  0  0  0  0  0  0
  -30.6930  -18.5950   10.6290 C   0  0  0  0  0  0  0  0  0  0  0  0
  -30.6370  -17.5290    9.7070 C   0  0  0  0  0  3  0  0  0  0  0  0
  -29.4490  -17.2430    9.0070 C   0  0  0  0  0  3  0  0  0  0  0  0
  -28.3050  -18.0350    9.2130 C   0  0  0  0  0  3  0  0  0  0  0  0
  -28.3490  -19.1020   10.1270 C   0  0  0  0  0  3  0  0  0  0  0  0
  -34.8150  -14.3980   10.7760 C   0  0  0  0  0  3  0  0  0  0  0  0
  -34.4910  -13.1430   10.0870 N   0  0  0  0  0  0  0  0  0  0  0  0
  -34.6500  -11.9230   10.6180 C   0  0  0  0  0  0  0  0  0  0  0  0
  -35.1590  -11.7350   11.7260 O   0  0  0  0  0  0  0  0  0  0  0  0
  -34.0180  -13.2230    9.1990 H   0  0  0  0  0  0  0  0  0  0  0  0
  -32.8170  -11.0580    9.1300 C   0  0  0  0  0  1  0  0  0  0  0  0
  -34.1660  -10.7200    9.7870 C   0  0  0  0  0  3  0  0  0  0  0  0
  -35.0660   -8.4840   10.2500 C   0  0  0  0  0  1  0  0  0  0  0  0
  -34.0410   -9.4740   10.5720 N   0  0  0  0  0  0  0  0  0  0  0  0
  -33.1310   -9.0450   10.4240 H   0  0  0  0  0  0  0  0  0  0  0  0
  -35.2920  -15.4950    9.7460 C   0  0  1  0  0  0  0  0  0  0  0  0
  -34.2620  -15.7830    8.6290 C   0  0  0  0  0  1  0  0  0  0  0  0
  -35.5920  -16.8290   10.4700 C   0  0  0  0  0  1  0  0  0  0  0  0
  -36.6130  -15.0480    9.0770 C   0  0  0  0  0  1  0  0  0  0  0  0
  1  4  1  0
  2  1  2  0
  3  4  2  0
  4  9  1  0
  5  2  1  0
  5  6  2  0
  6 53  1  0
  6  3  1  0
  7  8  1  0
  8  5  1  0
  9 10  1  0
 11 24  1  0
 11 17  1  0
 12 13  1  0
 13 14  1  0
 15 16  1  0
 15 14  1  0
 15 28  1  0
 17 12  1  0
 17 16  1  0
 18 11  2  0
 19 23  1  0
 21 19  1  0
 21 24  1  0
 22 20  1  0
 23 10  1  0
 23 20  1  0
 24 22  1  0
 25 26  2  0
 26 27  1  0
 26 45  1  0
 27 30  1  0
 28 25  1  0
 28 29  1  0
 29 27  2  0
 30 31  2  0
 30 35  1  0
 31 32  1  0
 32 33  2  0
 33 36  1  0
 34 33  1  0
 35 34  2  0
 36 37  1  0
 37 38  2  0
 37 42  1  0
 38 39  1  0
 39 40  2  0
 40 44  1  0
 41 40  1  0
 42 41  2  0
 43 42  1  0
 45 46  1  0
 45 47  2  0
 46 49  1  0
 48 46  1  0
 50 51  1  0
 50 25  1  0
 52 50  1  0
 53 54  1  0
 55 54  1  0
 56 57  1  0
 56 55  1  0
 58 68  1  0
 59 57  1  0
 59 65  1  0
 60 70  1  0
 60 67  1  0
 61 66  1  0
 62 63  1  0
 63 64  1  0
 63 61  2  0
 64 59  2  0
 66 65  2  0
 67 61  1  0
 68 62  1  0
 68 60  1  0
 69 58  2  0
 70 72  2  0
 71 70  1  0
 73 71  1  0
 74 78  1  0
 75 71  1  0
 75 76  1  0
 76 77  1  0
 78 77  1  0
 79 74  1  0
 79 75  1  0
 80 79  2  0
 81 82  2  0
 81 80  1  0
 82 83  1  0
 83 74  2  0
 84 58  1  0
 85 86  1  0
 85 84  1  0
 86 87  2  0
 88 85  1  0
 90 89  1  0
 90 92  1  0
 90 86  1  0
 91 92  1  0
 93 92  1  0
 94 96  1  1
 94 84  1  0
 95 94  1  0
 97 94  1  0
M  ISO  4  11 100  24 100  56 101  57 101
M  END
>  <TORSDO>  (39) 
F 23

>  <SCORE>  (39) 
-3.606

>  <name>  (39) 
38

>  <ligand_id>  (39) 
38

>  <original_smiles>  (39) 
[H]c1c([H])c([H])c2c(c1[H])C([H])([H])C([H])([H])C([H])([H])C2([H])N([H])C(=O)C1([H])N(C(=O)C([H])(N([H])C(=O)C([H])(N([H])C([H])([H])[H])C([H])([H])[H])C(C([H])([H])[H])(C([H])([H])[H])C([H])([H])[H])C([H])([H])c2c([H])c(OC([H])([H])C([H])([H])C([H])([H])C([H])([H])c3c([H])c(C([H])([H])C([H])([H])C4([H])C([H])([H])C([H])([H])N(C(=O)N5C([H])([H])C([H])([H])C([H])([H])C([H])(n6nc(-c7c([H])c([H])c(Oc8c([H])c([H])c(F)c([H])c8F)c([H])c7[H])c(C(=O)N([H])[H])c6N([H])[H])C5([H])[H])C([H])([H])C4([H])[H])c([H])c([H])c3C([H])([H])C([H])([H])[H])c([H])c([H])c2C1([H])[H]

>  <smiles>  (39) 
[H]c1c([H])c([H])c2c(c1[H])C([H])([H])C([H])([H])C([H])([H])C2([H])N([H])C(=O)C1([H])N(C(=O)C([H])(N([H])C(=O)C([H])(N([H])C([H])([H])[H])C([H])([H])[H])C(C([H])([H])[H])(C([H])([H])[H])C([H])([H])[H])C([H])([H])c2c([H])c(OC([H])([H])C([H])([H])C([H])([H])C([H])([H])c3c([H])c(C([H])([H])C([H])([H])C4([H])C([H])([H])C([H])([H])N(C(=O)N5C([H])([H])C([H])([H])C([H])([H])C([H])(n6nc(-c7c([H])c([H])c(Oc8c([H])c([H])c(F)c([H])c8F)c([H])c7[H])c(C(=O)N([H])[H])c6N([H])[H])C5([H])[H])C([H])([H])C4([H])[H])c([H])c([H])c3C([H])([H])C([H])([H])[H])c([H])c([H])c2C1([H])[H]

$$$$
39:0:0
     RDKit          3D

 92 99  0  0  1  0  0  0  0  0999 V2000
  -28.7710  -23.5470   22.1020 C   0  0  0  0  0  2  0  0  0  0  0  0
  -26.6540  -24.9160   22.1540 C   0  0  0  0  0  1  0  0  0  0  0  0
  -28.1500  -24.9360   21.7830 C   0  0  1  0  0  0  0  0  0  0  0  0
  -28.7760  -25.8940   22.6150 O   0  0  0  0  0  0  0  0  0  0  0  0
  -28.5310  -26.7440   22.2590 H   0  0  0  0  0  0  0  0  0  0  0  0
  -28.3950  -25.3590   20.3010 C   0  0  0  0  0  2  0  0  0  0  0  0
  -28.3650  -26.7820   20.1100 O   0  0  0  0  0  0  0  0  0  0  0  0
  -24.5650  -31.8810   23.2190 C   0  0  0  0  0  0  0  0  0  0  0  0
  -27.1670  -27.4550   20.1010 C   0  0  0  0  0  0  0  0  0  0  0  0
  -23.3370  -30.4880   21.5840 C   0  0  0  0  0  3  0  0  0  0  0  0
  -24.7700  -28.9470   20.1380 C   0  0  0  0  0  0  0  0  0  0  0  0
  -25.8570  -30.8400   21.3630 C   0  0  0  0  0  2  0  0  0  0  0  0
  -25.9290  -29.4710   20.7220 C   0  0  0  0  0  0  0  0  0  0  0  0
  -27.1270  -28.7300   20.7030 C   0  0  0  0  0  3  0  0  0  0  0  0
  -25.9970  -26.9430   19.4950 C   0  0  0  0  0  3  0  0  0  0  0  0
  -24.7980  -27.6830   19.5230 C   0  0  0  0  0  3  0  0  0  0  0  0
  -23.5270  -29.8050   20.2010 C   0  0  0  0  0  2  0  0  0  0  0  0
  -24.6050  -31.0840   22.1140 N   0  0  0  0  0  0  0  0  0  0  0  0
  -23.4900  -32.1560   23.7700 O   0  0  0  0  0  0  0  0  0  0  0  0
  -22.6930  -29.4670   22.5470 C   0  0  0  0  0  0  0  0  0  0  0  0
  -21.3670  -29.2900   22.4300 N   0  0  0  0  0  0  0  0  0  0  0  0
  -23.3820  -28.8370   23.3530 O   0  0  0  0  0  0  0  0  0  0  0  0
  -20.8730  -29.8510   21.7490 H   0  0  0  0  0  0  0  0  0  0  0  0
  -17.9960  -28.1030   22.9410 C   0  0  0  0  0  0  0  0  0  0  0  0
  -20.5540  -28.3540   23.2040 C   0  0  0  0  0  3  0  0  0  0  0  0
  -20.6530  -26.9230   22.6250 C   0  0  0  0  0  2  0  0  0  0  0  0
  -19.5460  -26.6040   21.6140 C   0  0  0  0  0  2  0  0  0  0  0  0
  -18.1670  -26.7530   22.2640 C   0  0  0  0  0  2  0  0  0  0  0  0
  -19.1180  -28.8620   23.3670 C   0  0  0  0  0  0  0  0  0  0  0  0
  -18.9060  -30.1260   23.9570 C   0  0  0  0  0  3  0  0  0  0  0  0
  -17.6030  -30.6320   24.1270 C   0  0  0  0  0  3  0  0  0  0  0  0
  -16.4950  -29.8690   23.7170 C   0  0  0  0  0  3  0  0  0  0  0  0
  -16.6930  -28.6070   23.1290 C   0  0  0  0  0  3  0  0  0  0  0  0
  -25.8610  -32.5020   23.8290 C   0  0  0  0  0  3  0  0  0  0  0  0
  -26.3960  -31.7170   25.0900 C   0  0  1  0  0  0  0  0  0  0  0  0
  -25.3180  -31.4700   26.1700 C   0  0  0  0  0  1  0  0  0  0  0  0
  -26.9690  -30.3420   24.6710 C   0  0  0  0  0  1  0  0  0  0  0  0
  -27.5580  -32.5010   25.7420 C   0  0  0  0  0  1  0  0  0  0  0  0
  -25.5600  -33.8980   24.1750 N   0  0  0  0  0  0  0  0  0  0  0  0
  -25.8900  -34.9560   23.4250 C   0  0  0  0  0  0  0  0  0  0  0  0
  -26.5510  -34.8620   22.3860 O   0  0  0  0  0  0  0  0  0  0  0  0
  -24.9710  -34.0460   24.9820 H   0  0  0  0  0  0  0  0  0  0  0  0
  -24.1600  -36.7540   23.1050 C   0  0  0  0  0  1  0  0  0  0  0  0
  -25.4090  -36.3410   23.9000 C   0  0  0  0  0  3  0  0  0  0  0  0
  -27.5570  -37.2120   24.7110 C   0  0  0  0  0  1  0  0  0  0  0  0
  -26.4430  -37.3930   23.7850 N   0  0  0  0  0  0  0  0  0  0  0  0
  -26.0400  -38.3120   23.9490 H   0  0  0  0  0  0  0  0  0  0  0  0
  -30.3120  -23.5020   22.2490 C   0  0  0  0  0  2  0  0  0  0  0  0
  -30.8870  -22.0720   22.2850 C   0  0  0  0  0  2  0  0  0  0  0  0
  -30.9100  -21.3890   20.9070 C   0  0  0  0  0  2  0  0  0  0  0  0
  -30.1900  -20.0300   20.8520 C   0  0  0  0  0  2  0  0  0  0  0  0
  -30.9050  -18.8890   21.6010 C   0  0  0  0  0  2  0  0  0  0  0  0
  -30.3540  -17.5180   21.1800 C   0  0  0  0  0  2  0  0  0  0  0  0
  -31.0120  -16.3240   21.8940 C   0  0  0  0  0  2  0  0  0  0  0  0
  -30.7670  -14.3780   20.3380 C   0  0  0  0  0  0  0  0  0  0  0  0
  -30.3220  -12.3520   19.0020 C   0  0  0  0  0  2  0  0  0  0  0  0
  -29.3280  -12.6090   17.8540 C   0  0  0  0  0  2  0  0  0  0  0  0
  -27.8780  -12.4610   18.3470 C   0  0  0  0  0  2  0  0  0  0  0  0
  -27.6060  -13.2900   19.6280 C   0  0  0  0  0  3  0  0  0  0  0  0
  -28.6870  -13.0040   20.6940 C   0  0  0  0  0  2  0  0  0  0  0  0
  -30.0150  -13.2740   20.1060 N   0  0  0  0  0  0  0  0  0  0  0  0
  -31.7330  -14.7050   19.6430 O   0  0  0  0  0  0  0  0  0  0  0  0
  -30.4220  -15.0700   21.4310 N   0  0  0  0  0  0  0  0  0  0  0  0
  -29.6480  -14.7010   21.9600 H   0  0  0  0  0  0  0  0  0  0  0  0
  -25.2360  -13.9380   20.4110 C   0  0  0  0  0  0  0  0  0  0  0  0
  -24.1700  -13.1770   20.8120 C   0  0  0  0  0  0  0  0  0  0  0  0
  -24.6120  -11.8210   20.7650 C   0  0  0  0  0  0  0  0  0  0  0  0
  -26.2610  -13.0420   20.1480 N   0  0  0  0  0  0  0  0  0  0  0  0
  -25.8900  -11.7640   20.4160 N   0  0  0  0  0  0  0  0  0  0  0  0
  -23.8760  -10.5680   20.9770 C   0  0  0  0  0  0  0  0  0  0  0  0
  -24.3320   -9.5920   21.8900 C   0  0  0  0  0  3  0  0  0  0  0  0
  -23.6000   -8.4010   22.0880 C   0  0  0  0  0  3  0  0  0  0  0  0
  -22.3990   -8.1780   21.3720 C   0  0  0  0  0  0  0  0  0  0  0  0
  -21.9620   -9.1440   20.4490 C   0  0  0  0  0  3  0  0  0  0  0  0
  -22.6930  -10.3260   20.2500 C   0  0  0  0  0  3  0  0  0  0  0  0
  -21.6360   -7.0400   21.4810 O   0  0  0  0  0  0  0  0  0  0  0  0
  -21.6230   -6.2890   22.6290 C   0  0  0  0  0  0  0  0  0  0  0  0
  -21.2750   -6.8460   23.8790 C   0  0  0  0  0  3  0  0  0  0  0  0
  -21.2090   -6.0230   25.0210 C   0  0  0  0  0  3  0  0  0  0  0  0
  -21.4780   -4.6460   24.9140 C   0  0  0  0  0  0  0  0  0  0  0  0
  -21.8150   -4.0880   23.6690 C   0  0  0  0  0  3  0  0  0  0  0  0
  -21.8860   -4.9070   22.5290 C   0  0  0  0  0  0  0  0  0  0  0  0
  -22.1930   -4.3620   21.3270 F   0  0  0  0  0  0  0  0  0  0  0  0
  -21.4030   -3.8540   26.0090 F   0  0  0  0  0  0  0  0  0  0  0  0
  -22.7880  -13.6720   21.1290 C   0  0  0  0  0  0  0  0  0  0  0  0
  -22.0810  -12.9830   22.0190 N   0  0  0  0  0  0  0  0  0  0  0  0
  -22.3460  -14.7030   20.6260 O   0  0  0  0  0  0  0  0  0  0  0  0
  -22.4530  -12.1480   22.4440 H   0  0  0  0  0  0  0  0  0  0  0  0
  -21.1570  -13.2970   22.2770 H   0  0  0  0  0  0  0  0  0  0  0  0
  -25.4190  -15.3050   20.2320 N   0  0  0  0  0  0  0  0  0  0  0  0
  -24.6760  -15.9790   20.3810 H   0  0  0  0  0  0  0  0  0  0  0  0
  -26.2780  -15.7270   19.8990 H   0  0  0  0  0  0  0  0  0  0  0  0
  1 48  1  0
  3  1  1  0
  3  2  1  1
  3  4  1  0
  5  4  1  0
  6  3  1  0
  7  6  1  0
  8 19  2  0
  9  7  1  0
  9 14  1  0
 10 18  1  0
 10 20  1  0
 11 17  1  0
 11 13  1  0
 12 18  1  0
 13 12  1  0
 14 13  2  0
 15 16  1  0
 15  9  2  0
 16 11  2  0
 17 10  1  0
 18  8  1  0
 20 22  2  0
 21 20  1  0
 23 21  1  0
 24 33  2  0
 24 29  1  0
 25 21  1  0
 25 29  1  0
 26 25  1  0
 27 28  1  0
 27 26  1  0
 28 24  1  0
 29 30  2  0
 30 31  1  0
 32 31  2  0
 33 32  1  0
 34  8  1  0
 34 39  1  0
 34 35  1  0
 35 38  1  1
 35 36  1  0
 37 35  1  0
 39 42  1  0
 40 44  1  0
 40 39  1  0
 41 40  2  0
 44 43  1  0
 46 44  1  0
 46 47  1  0
 46 45  1  0
 48 49  1  0
 50 49  1  0
 51 50  1  0
 51 52  1  0
 53 52  1  0
 53 54  1  0
 55 63  1  0
 56 61  1  0
 57 58  1  0
 57 56  1  0
 59 58  1  0
 59 68  1  0
 59 60  1  0
 61 55  1  0
 61 60  1  0
 62 55  2  0
 63 54  1  0
 63 64  1  0
 65 66  2  0
 66 85  1  0
 67 66  1  0
 67 70  1  0
 68 65  1  0
 68 69  1  0
 69 67  2  0
 70 71  1  0
 71 72  2  0
 73 76  1  0
 73 72  1  0
 74 73  2  0
 75 74  1  0
 75 70  2  0
 76 77  1  0
 77 78  1  0
 78 79  2  0
 80 79  1  0
 80 84  1  0
 81 80  2  0
 82 77  2  0
 82 81  1  0
 83 82  1  0
 85 86  1  0
 86 89  1  0
 86 88  1  0
 87 85  2  0
 90 91  1  0
 90 65  1  0
 92 90  1  0
M  ISO  4   6 101   7 101  55 100  63 100
M  END
>  <TORSDO>  (40) 
F 26

>  <SCORE>  (40) 
-12.104

>  <name>  (40) 
39

>  <ligand_id>  (40) 
39

>  <original_smiles>  (40) 
[H]OC(C([H])([H])[H])(C([H])([H])Oc1c([H])c([H])c2c(c1[H])C([H])([H])N(C(=O)C([H])(N([H])C(=O)C([H])(N([H])C([H])([H])[H])C([H])([H])[H])C(C([H])([H])[H])(C([H])([H])[H])C([H])([H])[H])C([H])(C(=O)N([H])C1([H])c3c([H])c([H])c([H])c([H])c3C([H])([H])C([H])([H])C1([H])[H])C2([H])[H])C([H])([H])C([H])([H])C([H])([H])C([H])([H])C([H])([H])C([H])([H])C([H])([H])C([H])([H])N([H])C(=O)N1C([H])([H])C([H])([H])C([H])([H])C([H])(n2nc(-c3c([H])c([H])c(Oc4c([H])c([H])c(F)c([H])c4F)c([H])c3[H])c(C(=O)N([H])[H])c2N([H])[H])C1([H])[H]

>  <smiles>  (40) 
[H]OC(C([H])([H])[H])(C([H])([H])Oc1c([H])c([H])c2c(c1[H])C([H])([H])N(C(=O)C([H])(N([H])C(=O)C([H])(N([H])C([H])([H])[H])C([H])([H])[H])C(C([H])([H])[H])(C([H])([H])[H])C([H])([H])[H])C([H])(C(=O)N([H])C1([H])c3c([H])c([H])c([H])c([H])c3C([H])([H])C([H])([H])C1([H])[H])C2([H])[H])C([H])([H])C([H])([H])C([H])([H])C([H])([H])C([H])([H])C([H])([H])C([H])([H])C([H])([H])N([H])C(=O)N1C([H])([H])C([H])([H])C([H])([H])C([H])(n2nc(-c3c([H])c([H])c(Oc4c([H])c([H])c(F)c([H])c4F)c([H])c3[H])c(C(=O)N([H])[H])c2N([H])[H])C1([H])[H]

$$$$
40:0:0
     RDKit          3D

 99107  0  0  1  0  0  0  0  0999 V2000
  -32.6560  -24.4310   19.8260 C   0  0  0  0  0  3  0  0  0  0  0  0
  -31.9950  -25.0230   20.9160 C   0  0  0  0  0  3  0  0  0  0  0  0
  -30.6210  -24.6250   18.4970 C   0  0  0  0  0  3  0  0  0  0  0  0
  -31.9670  -24.2020   18.6180 C   0  0  0  0  0  0  0  0  0  0  0  0
  -29.9500  -25.2420   19.5790 C   0  0  0  0  0  0  0  0  0  0  0  0
  -30.6490  -25.4220   20.8050 C   0  0  0  0  0  0  0  0  0  0  0  0
  -30.0440  -26.0000   21.9190 N   0  0  0  0  0  0  0  0  0  0  0  0
  -30.6570  -26.4110   22.6170 H   0  0  0  0  0  0  0  0  0  0  0  0
  -29.2490  -26.5970   21.7080 H   0  0  0  0  0  0  0  0  0  0  0  0
  -32.6860  -23.5590   17.4890 C   0  0  0  0  0  0  0  0  0  0  0  0
  -33.8620  -23.8050   17.2050 O   0  0  0  0  0  0  0  0  0  0  0  0
  -31.9380  -22.4580   16.7290 C   0  0  0  0  0  2  0  0  0  0  0  0
  -32.1450  -21.0540   17.3360 C   0  0  0  0  0  2  0  0  0  0  0  0
  -31.8340  -20.9610   18.8430 C   0  0  0  0  0  2  0  0  0  0  0  0
  -32.1040  -19.5640   19.4150 C   0  0  0  0  0  2  0  0  0  0  0  0
  -32.0060  -19.5350   20.9510 C   0  0  0  0  0  2  0  0  0  0  0  0
  -32.0420  -18.1150   21.5530 C   0  0  0  0  0  2  0  0  0  0  0  0
  -30.6980  -17.6620   22.1540 C   0  0  0  0  0  2  0  0  0  0  0  0
  -29.6330  -17.2550   21.1150 C   0  0  0  0  0  2  0  0  0  0  0  0
  -30.1160  -15.0070   20.0740 C   0  0  0  0  0  0  0  0  0  0  0  0
  -30.0380  -12.7580   19.0550 C   0  0  0  0  0  2  0  0  0  0  0  0
  -29.0000  -12.6980   17.9160 C   0  0  0  0  0  2  0  0  0  0  0  0
  -27.5810  -12.4320   18.4590 C   0  0  0  0  0  2  0  0  0  0  0  0
  -27.2120  -13.3510   19.6510 C   0  0  0  0  0  3  0  0  0  0  0  0
  -28.3440  -13.3310   20.7000 C   0  0  0  0  0  2  0  0  0  0  0  0
  -29.5960  -13.7540   20.0390 N   0  0  0  0  0  0  0  0  0  0  0  0
  -31.0490  -15.3820   19.3560 O   0  0  0  0  0  0  0  0  0  0  0  0
  -29.5070  -15.8130   20.9540 N   0  0  0  0  0  0  0  0  0  0  0  0
  -28.7780  -15.3710   21.4940 H   0  0  0  0  0  0  0  0  0  0  0  0
  -24.8670  -13.7780   20.6340 C   0  0  0  0  0  0  0  0  0  0  0  0
  -23.8830  -12.9230   21.0500 C   0  0  0  0  0  0  0  0  0  0  0  0
  -24.4030  -11.6050   20.8720 C   0  0  0  0  0  0  0  0  0  0  0  0
  -25.9260  -12.9760   20.2360 N   0  0  0  0  0  0  0  0  0  0  0  0
  -25.6520  -11.6590   20.4290 N   0  0  0  0  0  0  0  0  0  0  0  0
  -23.7650  -10.2940   21.0400 C   0  0  0  0  0  0  0  0  0  0  0  0
  -24.2270   -9.3670   22.0010 C   0  0  0  0  0  3  0  0  0  0  0  0
  -23.5880   -8.1190   22.1550 C   0  0  0  0  0  3  0  0  0  0  0  0
  -22.4730   -7.7870   21.3480 C   0  0  0  0  0  0  0  0  0  0  0  0
  -22.0330   -8.7040   20.3760 C   0  0  0  0  0  3  0  0  0  0  0  0
  -22.6750   -9.9440   20.2200 C   0  0  0  0  0  3  0  0  0  0  0  0
  -21.8060   -6.5880   21.4090 O   0  0  0  0  0  0  0  0  0  0  0  0
  -21.6570   -5.9080   22.5910 C   0  0  0  0  0  0  0  0  0  0  0  0
  -20.9780   -6.4700   23.6930 C   0  0  0  0  0  3  0  0  0  0  0  0
  -20.7850   -5.7090   24.8640 C   0  0  0  0  0  3  0  0  0  0  0  0
  -21.2640   -4.3870   24.9320 C   0  0  0  0  0  0  0  0  0  0  0  0
  -21.9370   -3.8250   23.8330 C   0  0  0  0  0  3  0  0  0  0  0  0
  -22.1300   -4.5830   22.6650 C   0  0  0  0  0  0  0  0  0  0  0  0
  -22.7600   -4.0270   21.6000 F   0  0  0  0  0  0  0  0  0  0  0  0
  -21.0710   -3.6530   26.0520 F   0  0  0  0  0  0  0  0  0  0  0  0
  -22.5000  -13.2980   21.5060 C   0  0  0  0  0  0  0  0  0  0  0  0
  -21.9180  -12.5160   22.4060 N   0  0  0  0  0  0  0  0  0  0  0  0
  -21.9500  -14.3190   21.0970 O   0  0  0  0  0  0  0  0  0  0  0  0
  -22.3790  -11.6890   22.7570 H   0  0  0  0  0  0  0  0  0  0  0  0
  -20.9960  -12.7450   22.7510 H   0  0  0  0  0  0  0  0  0  0  0  0
  -24.9450  -15.1650   20.5470 N   0  0  0  0  0  0  0  0  0  0  0  0
  -24.1640  -15.7640   20.7940 H   0  0  0  0  0  0  0  0  0  0  0  0
  -25.7380  -15.6760   20.1810 H   0  0  0  0  0  0  0  0  0  0  0  0
  -28.4930  -25.6820   19.3980 C   0  0  0  0  0  2  0  0  0  0  0  0
  -28.3180  -27.0340   19.7990 O   0  0  0  0  0  0  0  0  0  0  0  0
  -24.3120  -31.7940   23.1660 C   0  0  0  0  0  0  0  0  0  0  0  0
  -27.0670  -27.6040   19.8590 C   0  0  0  0  0  0  0  0  0  0  0  0
  -23.1220  -30.4210   21.4830 C   0  0  0  0  0  3  0  0  0  0  0  0
  -24.6030  -28.9810   19.9840 C   0  0  0  0  0  0  0  0  0  0  0  0
  -25.6250  -30.8780   21.2590 C   0  0  0  0  0  2  0  0  0  0  0  0
  -25.7450  -29.5360   20.5690 C   0  0  0  0  0  0  0  0  0  0  0  0
  -26.9750  -28.8530   20.5040 C   0  0  0  0  0  3  0  0  0  0  0  0
  -25.9050  -27.0380   19.2850 C   0  0  0  0  0  3  0  0  0  0  0  0
  -24.6750  -27.7280   19.3430 C   0  0  0  0  0  3  0  0  0  0  0  0
  -23.3310  -29.7930   20.0760 C   0  0  0  0  0  2  0  0  0  0  0  0
  -24.3720  -31.0440   22.0290 N   0  0  0  0  0  0  0  0  0  0  0  0
  -23.2330  -32.0100   23.7350 O   0  0  0  0  0  0  0  0  0  0  0  0
  -22.5190  -29.3440   22.4120 C   0  0  0  0  0  0  0  0  0  0  0  0
  -21.2060  -29.1050   22.2720 N   0  0  0  0  0  0  0  0  0  0  0  0
  -23.2280  -28.7300   23.2120 O   0  0  0  0  0  0  0  0  0  0  0  0
  -20.6930  -29.6590   21.6010 H   0  0  0  0  0  0  0  0  0  0  0  0
  -17.8940  -27.7280   22.6920 C   0  0  0  0  0  0  0  0  0  0  0  0
  -20.4300  -28.1070   23.0090 C   0  0  0  0  0  3  0  0  0  0  0  0
  -20.6140  -26.6990   22.3960 C   0  0  0  0  0  2  0  0  0  0  0  0
  -19.5430  -26.3470   21.3590 C   0  0  0  0  0  2  0  0  0  0  0  0
  -18.1480  -26.4070   21.9870 C   0  0  0  0  0  2  0  0  0  0  0  0
  -18.9670  -28.5340   23.1580 C   0  0  0  0  0  0  0  0  0  0  0  0
  -18.6770  -29.7700   23.7740 C   0  0  0  0  0  3  0  0  0  0  0  0
  -17.3470  -30.2030   23.9320 C   0  0  0  0  0  3  0  0  0  0  0  0
  -16.2880  -29.3930   23.4860 C   0  0  0  0  0  3  0  0  0  0  0  0
  -16.5620  -28.1570   22.8720 C   0  0  0  0  0  3  0  0  0  0  0  0
  -25.5900  -32.4360   23.7940 C   0  0  0  0  0  3  0  0  0  0  0  0
  -25.2630  -33.8240   24.1430 N   0  0  0  0  0  0  0  0  0  0  0  0
  -25.5870  -34.8920   23.4010 C   0  0  0  0  0  0  0  0  0  0  0  0
  -26.2650  -34.8120   22.3730 O   0  0  0  0  0  0  0  0  0  0  0  0
  -24.6630  -33.9590   24.9420 H   0  0  0  0  0  0  0  0  0  0  0  0
  -23.8550  -36.6770   23.0370 C   0  0  0  0  0  1  0  0  0  0  0  0
  -25.0760  -36.2660   23.8740 C   0  0  0  0  0  3  0  0  0  0  0  0
  -27.1780  -37.1490   24.7860 C   0  0  0  0  0  1  0  0  0  0  0  0
  -26.1020  -37.3300   23.8150 N   0  0  0  0  0  0  0  0  0  0  0  0
  -25.6820  -38.2420   23.9760 H   0  0  0  0  0  0  0  0  0  0  0  0
  -26.1250  -31.6530   25.0560 C   0  0  1  0  0  0  0  0  0  0  0  0
  -25.0390  -31.3760   26.1230 C   0  0  0  0  0  1  0  0  0  0  0  0
  -26.7330  -30.2950   24.6350 C   0  0  0  0  0  1  0  0  0  0  0  0
  -27.2610  -32.4590   25.7310 C   0  0  0  0  0  1  0  0  0  0  0  0
  1  2  1  0
  3  4  1  0
  3  5  2  0
  4  1  2  0
  5  6  1  0
  6  2  2  0
  6  7  1  0
  7  8  1  0
  9  7  1  0
 10  4  1  0
 11 10  2  0
 12 13  1  0
 12 10  1  0
 13 14  1  0
 14 15  1  0
 15 16  1  0
 16 17  1  0
 17 18  1  0
 19 18  1  0
 20 28  1  0
 21 26  1  0
 22 23  1  0
 22 21  1  0
 24 23  1  0
 24 33  1  0
 24 25  1  0
 26 20  1  0
 26 25  1  0
 27 20  2  0
 28 19  1  0
 28 29  1  0
 30 31  2  0
 31 50  1  0
 32 35  1  0
 32 31  1  0
 33 34  1  0
 33 30  1  0
 34 32  2  0
 35 36  1  0
 36 37  2  0
 38 41  1  0
 38 37  1  0
 39 38  2  0
 40 39  1  0
 40 35  2  0
 41 42  1  0
 42 47  2  0
 42 43  1  0
 43 44  2  0
 44 45  1  0
 45 49  1  0
 46 45  2  0
 47 46  1  0
 48 47  1  0
 50 51  1  0
 51 54  1  0
 51 53  1  0
 52 50  2  0
 55 30  1  0
 55 56  1  0
 57 55  1  0
 58  5  1  0
 58 59  1  0
 59 61  1  0
 60 71  2  0
 61 66  1  0
 62 70  1  0
 62 72  1  0
 63 69  1  0
 63 65  1  0
 64 70  1  0
 65 64  1  0
 66 65  2  0
 67 68  1  0
 67 61  2  0
 68 63  2  0
 69 62  1  0
 70 60  1  0
 72 74  2  0
 73 72  1  0
 75 73  1  0
 76 85  2  0
 76 81  1  0
 77 73  1  0
 77 81  1  0
 78 77  1  0
 79 80  1  0
 79 78  1  0
 80 76  1  0
 81 82  2  0
 82 83  1  0
 84 83  2  0
 85 84  1  0
 86 60  1  0
 86 87  1  0
 86 96  1  0
 87 90  1  0
 88 92  1  0
 88 87  1  0
 89 88  2  0
 92 91  1  0
 94 92  1  0
 94 95  1  0
 94 93  1  0
 96 99  1  1
 96 97  1  0
 98 96  1  0
M  ISO  4  20 100  28 100  58 101  59 101
M  END
>  <TORSDO>  (41) 
F 27

>  <SCORE>  (41) 
-10.860

>  <name>  (41) 
40

>  <ligand_id>  (41) 
40

>  <original_smiles>  (41) 
[H]c1c([H])c([H])c2c(c1[H])C([H])([H])C([H])([H])C([H])([H])C2([H])N([H])C(=O)C1([H])N(C(=O)C([H])(N([H])C(=O)C([H])(N([H])C([H])([H])[H])C([H])([H])[H])C(C([H])([H])[H])(C([H])([H])[H])C([H])([H])[H])C([H])([H])c2c([H])c(OC([H])([H])c3c([H])c(C(=O)C([H])([H])C([H])([H])C([H])([H])C([H])([H])C([H])([H])C([H])([H])C([H])([H])C([H])([H])N([H])C(=O)N4C([H])([H])C([H])([H])C([H])([H])C([H])(n5nc(-c6c([H])c([H])c(Oc7c([H])c([H])c(F)c([H])c7F)c([H])c6[H])c(C(=O)N([H])[H])c5N([H])[H])C4([H])[H])c([H])c([H])c3N([H])[H])c([H])c([H])c2C1([H])[H]

>  <smiles>  (41) 
[H]c1c([H])c([H])c2c(c1[H])C([H])([H])C([H])([H])C([H])([H])C2([H])N([H])C(=O)C1([H])N(C(=O)C([H])(N([H])C(=O)C([H])(N([H])C([H])([H])[H])C([H])([H])[H])C(C([H])([H])[H])(C([H])([H])[H])C([H])([H])[H])C([H])([H])c2c([H])c(OC([H])([H])c3c([H])c(C(=O)C([H])([H])C([H])([H])C([H])([H])C([H])([H])C([H])([H])C([H])([H])C([H])([H])C([H])([H])N([H])C(=O)N4C([H])([H])C([H])([H])C([H])([H])C([H])(n5nc(-c6c([H])c([H])c(Oc7c([H])c([H])c(F)c([H])c7F)c([H])c6[H])c(C(=O)N([H])[H])c5N([H])[H])C4([H])[H])c([H])c([H])c3N([H])[H])c([H])c([H])c2C1([H])[H]

$$$$
41:0:0
     RDKit          3D

 99107  0  0  1  0  0  0  0  0999 V2000
  -38.6390  -21.0340   14.4280 C   0  0  0  0  0  3  0  0  0  0  0  0
  -37.0080  -20.2920   12.7830 C   0  0  0  0  0  3  0  0  0  0  0  0
  -39.6810  -20.7110   13.5420 C   0  0  0  0  0  3  0  0  0  0  0  0
  -38.0530  -19.9600   11.8970 C   0  0  0  0  0  3  0  0  0  0  0  0
  -37.2860  -20.8660   14.0470 C   0  0  0  0  0  0  0  0  0  0  0  0
  -39.3940  -20.1890   12.2680 C   0  0  0  0  0  0  0  0  0  0  0  0
  -36.1590  -21.2810   14.9410 C   0  0  0  0  0  0  0  0  0  0  0  0
  -35.0580  -20.7230   14.9340 O   0  0  0  0  0  0  0  0  0  0  0  0
  -36.4050  -22.4870   15.8640 C   0  0  0  0  0  2  0  0  0  0  0  0
  -35.9430  -22.3240   17.3280 C   0  0  0  0  0  2  0  0  0  0  0  0
  -34.4250  -22.2620   17.5780 C   0  0  0  0  0  2  0  0  0  0  0  0
  -33.5680  -22.3100   16.2950 C   0  0  0  0  0  2  0  0  0  0  0  0
  -34.4010  -22.5130   15.0140 C   0  0  0  0  0  2  0  0  0  0  0  0
  -34.3990  -23.9550   14.4860 C   0  0  0  0  0  2  0  0  0  0  0  0
  -35.6130  -24.7360   15.0050 C   0  0  0  0  0  2  0  0  0  0  0  0
  -35.6230  -26.2040   14.5580 C   0  0  0  0  0  2  0  0  0  0  0  0
  -35.0580  -27.1430   15.6340 C   0  0  0  0  0  2  0  0  0  0  0  0
  -33.1230  -26.0490   16.7500 C   0  0  0  0  0  0  0  0  0  0  0  0
  -31.1010  -24.7950   17.3760 C   0  0  0  0  0  2  0  0  0  0  0  0
  -30.8100  -23.7200   16.3110 C   0  0  0  0  0  2  0  0  0  0  0  0
  -29.9670  -24.3030   15.1620 C   0  0  0  0  0  2  0  0  0  0  0  0
  -30.5420  -25.6360   14.6120 C   0  0  0  0  0  3  0  0  0  0  0  0
  -30.8660  -26.6060   15.7710 C   0  0  0  0  0  2  0  0  0  0  0  0
  -31.7740  -25.9160   16.7060 N   0  0  0  0  0  0  0  0  0  0  0  0
  -33.8500  -25.3880   17.4970 O   0  0  0  0  0  0  0  0  0  0  0  0
  -33.6360  -26.9050   15.8600 N   0  0  0  0  0  0  0  0  0  0  0  0
  -32.9810  -27.3940   15.2680 H   0  0  0  0  0  0  0  0  0  0  0  0
  -28.2950  -26.5570   13.7520 C   0  0  0  0  0  0  0  0  0  0  0  0
  -27.9480  -27.1700   12.5780 C   0  0  0  0  0  0  0  0  0  0  0  0
  -29.1370  -27.2070   11.7870 C   0  0  0  0  0  0  0  0  0  0  0  0
  -29.6410  -26.2430   13.6340 N   0  0  0  0  0  0  0  0  0  0  0  0
  -30.1310  -26.5960   12.4180 N   0  0  0  0  0  0  0  0  0  0  0  0
  -29.4020  -27.8390   10.4880 C   0  0  0  0  0  0  0  0  0  0  0  0
  -30.4100  -28.8150   10.3320 C   0  0  0  0  0  3  0  0  0  0  0  0
  -30.6570  -29.3940    9.0700 C   0  0  0  0  0  3  0  0  0  0  0  0
  -29.8960  -28.9990    7.9460 C   0  0  0  0  0  0  0  0  0  0  0  0
  -28.8760  -28.0430    8.1090 C   0  0  0  0  0  3  0  0  0  0  0  0
  -28.6280  -27.4710    9.3680 C   0  0  0  0  0  3  0  0  0  0  0  0
  -30.0470  -29.5250    6.6860 O   0  0  0  0  0  0  0  0  0  0  0  0
  -28.9790  -30.0120    5.9760 C   0  0  0  0  0  0  0  0  0  0  0  0
  -27.7310  -30.2680    6.5870 C   0  0  0  0  0  3  0  0  0  0  0  0
  -26.6820  -30.8320    5.8340 C   0  0  0  0  0  3  0  0  0  0  0  0
  -26.8790  -31.1500    4.4770 C   0  0  0  0  0  0  0  0  0  0  0  0
  -28.1220  -30.8990    3.8680 C   0  0  0  0  0  3  0  0  0  0  0  0
  -29.1690  -30.3330    4.6170 C   0  0  0  0  0  0  0  0  0  0  0  0
  -30.3700  -30.1150    4.0300 F   0  0  0  0  0  0  0  0  0  0  0  0
  -25.8730  -31.6980    3.7560 F   0  0  0  0  0  0  0  0  0  0  0  0
  -26.6150  -27.7760   12.2430 C   0  0  0  0  0  0  0  0  0  0  0  0
  -25.8170  -27.0900   11.4310 N   0  0  0  0  0  0  0  0  0  0  0  0
  -26.2520  -28.8400   12.7430 O   0  0  0  0  0  0  0  0  0  0  0  0
  -26.1060  -26.2070   11.0370 H   0  0  0  0  0  0  0  0  0  0  0  0
  -24.9030  -27.4540   11.2010 H   0  0  0  0  0  0  0  0  0  0  0  0
  -27.5870  -26.2570   14.9110 N   0  0  0  0  0  0  0  0  0  0  0  0
  -26.6160  -26.5220   15.0370 H   0  0  0  0  0  0  0  0  0  0  0  0
  -27.9890  -25.8240   15.7350 H   0  0  0  0  0  0  0  0  0  0  0  0
  -40.5280  -19.8920   11.3090 C   0  0  0  0  0  2  0  0  0  0  0  0
  -40.2460  -20.3280    9.8660 C   0  0  0  0  0  2  0  0  0  0  0  0
  -39.0330  -21.2620    9.8180 C   0  0  0  0  0  2  0  0  0  0  0  0
  -38.8160  -21.7150    8.4870 O   0  0  0  0  0  0  0  0  0  0  0  0
  -32.1790  -22.2820    5.9310 C   0  0  0  0  0  0  0  0  0  0  0  0
  -37.7560  -21.1540    7.8170 C   0  0  0  0  0  0  0  0  0  0  0  0
  -33.1690  -20.0130    5.9040 C   0  0  0  0  0  3  0  0  0  0  0  0
  -35.6640  -19.8890    6.4090 C   0  0  0  0  0  0  0  0  0  0  0  0
  -34.6540  -22.0840    5.7610 C   0  0  0  0  0  2  0  0  0  0  0  0
  -35.7240  -21.2860    6.4690 C   0  0  0  0  0  0  0  0  0  0  0  0
  -36.7660  -21.9230    7.1670 C   0  0  0  0  0  3  0  0  0  0  0  0
  -37.6950  -19.7480    7.7380 C   0  0  0  0  0  3  0  0  0  0  0  0
  -36.6450  -19.1110    7.0470 C   0  0  0  0  0  3  0  0  0  0  0  0
  -34.5160  -19.2920    5.6280 C   0  0  0  0  0  2  0  0  0  0  0  0
  -33.2980  -21.5060    5.8910 N   0  0  0  0  0  0  0  0  0  0  0  0
  -31.0500  -21.7710    5.9300 O   0  0  0  0  0  0  0  0  0  0  0  0
  -32.5790  -19.4590    7.2200 C   0  0  0  0  0  0  0  0  0  0  0  0
  -33.3400  -18.5820    7.8920 N   0  0  0  0  0  0  0  0  0  0  0  0
  -31.4800  -19.8440    7.6310 O   0  0  0  0  0  0  0  0  0  0  0  0
  -34.2290  -18.3210    7.4890 H   0  0  0  0  0  0  0  0  0  0  0  0
  -34.5360  -16.2800   10.4000 C   0  0  0  0  0  0  0  0  0  0  0  0
  -33.0060  -17.9580    9.1700 C   0  0  0  0  0  3  0  0  0  0  0  0
  -33.2860  -18.9220   10.3460 C   0  0  0  0  0  2  0  0  0  0  0  0
  -34.6820  -18.7450   10.9500 C   0  0  0  0  0  2  0  0  0  0  0  0
  -34.8720  -17.3130   11.4600 C   0  0  0  0  0  2  0  0  0  0  0  0
  -33.6730  -16.5870    9.3150 C   0  0  0  0  0  0  0  0  0  0  0  0
  -33.4270  -15.6020    8.3350 C   0  0  0  0  0  3  0  0  0  0  0  0
  -34.0190  -14.3270    8.4300 C   0  0  0  0  0  3  0  0  0  0  0  0
  -34.8620  -14.0240    9.5120 C   0  0  0  0  0  3  0  0  0  0  0  0
  -35.1170  -14.9960   10.4960 C   0  0  0  0  0  3  0  0  0  0  0  0
  -32.2610  -23.8400    5.9550 C   0  0  0  0  0  3  0  0  0  0  0  0
  -32.8090  -24.2720    4.6630 N   0  0  0  0  0  0  0  0  0  0  0  0
  -32.8660  -23.5040    3.5660 C   0  0  0  0  0  0  0  0  0  0  0  0
  -32.5250  -22.3180    3.5600 O   0  0  0  0  0  0  0  0  0  0  0  0
  -33.0530  -25.2470    4.5790 H   0  0  0  0  0  0  0  0  0  0  0  0
  -34.7790  -23.5940    1.9370 C   0  0  0  0  0  1  0  0  0  0  0  0
  -33.3880  -24.1560    2.2710 C   0  0  0  0  0  3  0  0  0  0  0  0
  -32.1330  -26.2650    2.3160 C   0  0  0  0  0  1  0  0  0  0  0  0
  -33.4500  -25.6330    2.3390 N   0  0  0  0  0  0  0  0  0  0  0  0
  -33.9970  -26.0080    1.5690 H   0  0  0  0  0  0  0  0  0  0  0  0
  -30.8710  -24.5350    6.2340 C   0  0  1  0  0  0  0  0  0  0  0  0
  -29.6690  -23.7780    5.6230 C   0  0  0  0  0  1  0  0  0  0  0  0
  -30.6240  -24.6670    7.7540 C   0  0  0  0  0  1  0  0  0  0  0  0
  -30.8750  -25.9720    5.6590 C   0  0  0  0  0  1  0  0  0  0  0  0
  2  5  2  0
  3  1  2  0
  4  6  2  0
  4  2  1  0
  5  1  1  0
  5  7  1  0
  6  3  1  0
  7  9  1  0
  8  7  2  0
  9 10  1  0
 10 11  1  0
 12 11  1  0
 13 12  1  0
 14 15  1  0
 14 13  1  0
 16 15  1  0
 16 17  1  0
 17 26  1  0
 18 25  2  0
 20 19  1  0
 21 20  1  0
 22 31  1  0
 22 21  1  0
 22 23  1  0
 23 24  1  0
 24 18  1  0
 24 19  1  0
 26 18  1  0
 27 26  1  0
 28 53  1  0
 29 28  2  0
 30 32  2  0
 30 29  1  0
 31 28  1  0
 32 31  1  0
 33 30  1  0
 34 33  1  0
 35 34  2  0
 36 37  2  0
 36 35  1  0
 37 38  1  0
 38 33  2  0
 39 36  1  0
 40 41  1  0
 40 39  1  0
 42 41  2  0
 43 42  1  0
 44 43  2  0
 44 45  1  0
 45 40  2  0
 46 45  1  0
 47 43  1  0
 48 29  1  0
 48 50  2  0
 49 48  1  0
 51 49  1  0
 52 49  1  0
 53 54  1  0
 53 55  1  0
 56  6  1  0
 57 56  1  0
 58 57  1  0
 59 58  1  0
 61 59  1  0
 62 72  1  0
 63 65  2  0
 63 68  1  0
 64 70  1  0
 64 65  1  0
 65 66  1  0
 66 61  2  0
 67 61  1  0
 68 67  2  0
 69 62  1  0
 69 63  1  0
 70 62  1  0
 70 60  1  0
 71 60  2  0
 72 74  2  0
 72 73  1  0
 75 73  1  0
 76 85  1  0
 76 80  1  0
 77 73  1  0
 77 81  1  0
 77 78  1  0
 78 79  1  0
 79 80  1  0
 81 76  2  0
 82 83  2  0
 82 81  1  0
 83 84  1  0
 84 85  2  0
 86 60  1  0
 86 96  1  0
 87 86  1  0
 88 87  1  0
 89 88  2  0
 90 87  1  0
 92 91  1  0
 92 94  1  0
 92 88  1  0
 93 94  1  0
 95 94  1  0
 96 98  1  1
 97 96  1  0
 99 96  1  0
M  ISO  4  18 100  26 100  58 101  59 101
M  END
>  <TORSDO>  (42) 
F 29

>  <SCORE>  (42) 
-1.301

>  <name>  (42) 
41

>  <ligand_id>  (42) 
41

>  <original_smiles>  (42) 
[H]c1c([H])c([H])c2c(c1[H])C([H])([H])C([H])([H])C([H])([H])C2([H])N([H])C(=O)C1([H])N(C(=O)C([H])(N([H])C(=O)C([H])(N([H])C([H])([H])[H])C([H])([H])[H])C(C([H])([H])[H])(C([H])([H])[H])C([H])([H])[H])C([H])([H])c2c([H])c(OC([H])([H])C([H])([H])C([H])([H])c3c([H])c([H])c(C(=O)C([H])([H])C([H])([H])C([H])([H])C([H])([H])C([H])([H])C([H])([H])C([H])([H])C([H])([H])C([H])([H])N([H])C(=O)N4C([H])([H])C([H])([H])C([H])([H])C([H])(n5nc(-c6c([H])c([H])c(Oc7c([H])c([H])c(F)c([H])c7F)c([H])c6[H])c(C(=O)N([H])[H])c5N([H])[H])C4([H])[H])c([H])c3[H])c([H])c([H])c2C1([H])[H]

>  <smiles>  (42) 
[H]c1c([H])c([H])c2c(c1[H])C([H])([H])C([H])([H])C([H])([H])C2([H])N([H])C(=O)C1([H])N(C(=O)C([H])(N([H])C(=O)C([H])(N([H])C([H])([H])[H])C([H])([H])[H])C(C([H])([H])[H])(C([H])([H])[H])C([H])([H])[H])C([H])([H])c2c([H])c(OC([H])([H])C([H])([H])C([H])([H])c3c([H])c([H])c(C(=O)C([H])([H])C([H])([H])C([H])([H])C([H])([H])C([H])([H])C([H])([H])C([H])([H])C([H])([H])C([H])([H])N([H])C(=O)N4C([H])([H])C([H])([H])C([H])([H])C([H])(n5nc(-c6c([H])c([H])c(Oc7c([H])c([H])c(F)c([H])c7F)c([H])c6[H])c(C(=O)N([H])[H])c5N([H])[H])C4([H])[H])c([H])c3[H])c([H])c([H])c2C1([H])[H]

$$$$
42:0:0
     RDKit          3D

 95104  0  0  1  0  0  0  0  0999 V2000
  -30.3040  -18.9750   19.8710 C   0  0  0  0  0  3  0  0  0  0  0  0
  -29.9680  -20.3360   19.7610 C   0  0  0  0  0  3  0  0  0  0  0  0
  -31.3230  -19.4150   22.0310 C   0  0  0  0  0  3  0  0  0  0  0  0
  -30.9620  -20.7790   21.9420 C   0  0  0  0  0  0  0  0  0  0  0  0
  -30.9450  -18.4880   21.0330 C   0  0  0  0  0  0  0  0  0  0  0  0
  -30.2470  -21.2410   20.8070 C   0  0  0  0  0  0  0  0  0  0  0  0
  -31.3050  -13.7920   19.2370 C   0  0  0  0  0  0  0  0  0  0  0  0
  -30.4980  -11.8050   18.0140 C   0  0  0  0  0  2  0  0  0  0  0  0
  -29.3680  -12.1560   17.0270 C   0  0  0  0  0  2  0  0  0  0  0  0
  -28.0000  -12.1130   17.7300 C   0  0  0  0  0  2  0  0  0  0  0  0
  -27.9900  -12.9120   19.0590 C   0  0  0  0  0  3  0  0  0  0  0  0
  -29.2070  -12.5480   19.9370 C   0  0  0  0  0  2  0  0  0  0  0  0
  -30.4420  -12.7390   19.1510 N   0  0  0  0  0  0  0  0  0  0  0  0
  -32.1550  -14.0210   18.3710 O   0  0  0  0  0  0  0  0  0  0  0  0
  -30.5290  -14.9600   22.6680 C   0  0  0  0  0  2  0  0  0  0  0  0
  -30.1780  -16.4080   22.2750 C   0  0  0  0  0  2  0  0  0  0  0  0
  -31.4410  -14.2550   21.6410 C   0  0  0  0  0  2  0  0  0  0  0  0
  -31.2040  -16.1080   19.9990 C   0  0  0  0  0  2  0  0  0  0  0  0
  -31.1970  -16.9930   21.2760 C   0  0  0  0  0  3  0  0  0  0  0  0
  -31.1200  -14.6560   20.2640 N   0  0  0  0  0  0  0  0  0  0  0  0
  -25.8570  -13.6860   20.2790 C   0  0  0  0  0  0  0  0  0  0  0  0
  -24.7990  -12.9930   20.8010 C   0  0  0  0  0  0  0  0  0  0  0  0
  -25.0850  -11.6100   20.5860 C   0  0  0  0  0  0  0  0  0  0  0  0
  -26.7290  -12.7300   19.7800 N   0  0  0  0  0  0  0  0  0  0  0  0
  -26.2770  -11.4720   20.0180 N   0  0  0  0  0  0  0  0  0  0  0  0
  -24.2730  -10.4130   20.8360 C   0  0  0  0  0  0  0  0  0  0  0  0
  -24.7480   -9.3510   21.6350 C   0  0  0  0  0  3  0  0  0  0  0  0
  -23.9420   -8.2170   21.8750 C   0  0  0  0  0  3  0  0  0  0  0  0
  -22.6450   -8.1380   21.3140 C   0  0  0  0  0  0  0  0  0  0  0  0
  -22.1830   -9.1880   20.5000 C   0  0  0  0  0  3  0  0  0  0  0  0
  -22.9900  -10.3130   20.2590 C   0  0  0  0  0  3  0  0  0  0  0  0
  -21.8010   -7.0640   21.4690 O   0  0  0  0  0  0  0  0  0  0  0  0
  -21.7350   -6.3670   22.6490 C   0  0  0  0  0  0  0  0  0  0  0  0
  -21.3220   -6.9790   23.8520 C   0  0  0  0  0  3  0  0  0  0  0  0
  -21.2000   -6.2100   25.0280 C   0  0  0  0  0  3  0  0  0  0  0  0
  -21.4830   -4.8310   24.9980 C   0  0  0  0  0  0  0  0  0  0  0  0
  -21.8910   -4.2200   23.8000 C   0  0  0  0  0  3  0  0  0  0  0  0
  -22.0120   -4.9860   22.6280 C   0  0  0  0  0  0  0  0  0  0  0  0
  -22.3840   -4.3880   21.4700 F   0  0  0  0  0  0  0  0  0  0  0  0
  -21.3580   -4.0900   26.1240 F   0  0  0  0  0  0  0  0  0  0  0  0
  -23.5460  -13.5800   21.3860 C   0  0  0  0  0  0  0  0  0  0  0  0
  -23.0100  -12.9570   22.4290 N   0  0  0  0  0  0  0  0  0  0  0  0
  -23.0620  -14.6240   20.9510 O   0  0  0  0  0  0  0  0  0  0  0  0
  -23.4200  -12.1110   22.7960 H   0  0  0  0  0  0  0  0  0  0  0  0
  -22.1810  -13.3320   22.8660 H   0  0  0  0  0  0  0  0  0  0  0  0
  -26.1440  -15.0430   20.1710 N   0  0  0  0  0  0  0  0  0  0  0  0
  -25.5200  -15.7690   20.5060 H   0  0  0  0  0  0  0  0  0  0  0  0
  -26.9840  -15.4110   19.7420 H   0  0  0  0  0  0  0  0  0  0  0  0
  -31.3400  -21.6680   23.0680 C   0  0  0  0  0  0  0  0  0  0  0  0
  -30.2120  -22.4800   23.6940 C   0  0  0  0  0  1  0  0  0  0  0  0
  -32.4830  -21.7460   23.5230 O   0  0  0  0  0  0  0  0  0  0  0  0
  -29.6030  -22.6210   20.7320 C   0  0  0  0  0  2  0  0  0  0  0  0
  -30.4910  -23.8320   20.3570 C   0  0  0  0  0  2  0  0  0  0  0  0
  -29.5480  -25.0350   20.1520 C   0  0  0  0  0  2  0  0  0  0  0  0
  -29.7820  -26.2470   20.8960 O   0  0  0  0  0  0  0  0  0  0  0  0
  -27.2870  -30.8380   25.7090 C   0  0  0  0  0  0  0  0  0  0  0  0
  -28.6540  -26.7120   21.5560 C   0  0  0  0  0  0  0  0  0  0  0  0
  -25.8100  -28.9320   25.1690 C   0  0  0  0  0  3  0  0  0  0  0  0
  -26.4510  -27.5870   23.1040 C   0  0  0  0  0  0  0  0  0  0  0  0
  -27.4470  -29.8520   23.4270 C   0  0  0  0  0  2  0  0  0  0  0  0
  -27.5170  -28.4590   22.8400 C   0  0  0  0  0  0  0  0  0  0  0  0
  -28.6190  -28.0300   22.0650 C   0  0  0  0  0  3  0  0  0  0  0  0
  -27.5350  -25.8710   21.7850 C   0  0  0  0  0  3  0  0  0  0  0  0
  -26.4530  -26.2900   22.5720 C   0  0  0  0  0  3  0  0  0  0  0  0
  -25.3160  -28.1110   23.9500 C   0  0  0  0  0  2  0  0  0  0  0  0
  -26.8920  -29.9020   24.8010 N   0  0  0  0  0  0  0  0  0  0  0  0
  -26.7430  -30.9270   26.8180 O   0  0  0  0  0  0  0  0  0  0  0  0
  -26.2190  -27.9560   26.2950 C   0  0  0  0  0  0  0  0  0  0  0  0
  -25.7620  -28.2370   27.5260 N   0  0  0  0  0  0  0  0  0  0  0  0
  -26.9090  -26.9620   26.0510 O   0  0  0  0  0  0  0  0  0  0  0  0
  -25.2080  -29.0740   27.6450 H   0  0  0  0  0  0  0  0  0  0  0  0
  -26.4310  -28.4540   31.0720 C   0  0  0  0  0  0  0  0  0  0  0  0
  -25.9950  -27.4440   28.7320 C   0  0  0  0  0  3  0  0  0  0  0  0
  -24.6650  -26.9190   29.3190 C   0  0  0  0  0  2  0  0  0  0  0  0
  -24.0720  -27.8410   30.3890 C   0  0  0  0  0  2  0  0  0  0  0  0
  -25.0560  -28.0190   31.5490 C   0  0  0  0  0  2  0  0  0  0  0  0
  -26.8650  -28.1960   29.7440 C   0  0  0  0  0  0  0  0  0  0  0  0
  -28.1400  -28.6520   29.3400 C   0  0  0  0  0  3  0  0  0  0  0  0
  -28.9720  -29.3490   30.2360 C   0  0  0  0  0  3  0  0  0  0  0  0
  -28.5430  -29.5890   31.5530 C   0  0  0  0  0  3  0  0  0  0  0  0
  -27.2780  -29.1380   31.9690 C   0  0  0  0  0  3  0  0  0  0  0  0
  -28.4250  -31.8560   25.3860 C   0  0  0  0  0  3  0  0  0  0  0  0
  -29.5750  -31.8670   26.4660 C   0  0  1  0  0  0  0  0  0  0  0  0
  -29.0680  -31.6810   27.9150 C   0  0  0  0  0  1  0  0  0  0  0  0
  -30.6050  -30.7490   26.1810 C   0  0  0  0  0  1  0  0  0  0  0  0
  -30.3440  -33.2070   26.3990 C   0  0  0  0  0  1  0  0  0  0  0  0
  -27.8060  -33.1840   25.2700 N   0  0  0  0  0  0  0  0  0  0  0  0
  -27.6550  -33.8540   24.1200 C   0  0  0  0  0  0  0  0  0  0  0  0
  -28.0920  -33.4420   23.0420 O   0  0  0  0  0  0  0  0  0  0  0  0
  -27.3780  -33.5560   26.1050 H   0  0  0  0  0  0  0  0  0  0  0  0
  -25.5330  -35.0440   23.4790 C   0  0  0  0  0  1  0  0  0  0  0  0
  -26.8950  -35.1940   24.1740 C   0  0  0  0  0  3  0  0  0  0  0  0
  -28.7960  -36.7380   24.3590 C   0  0  0  0  0  1  0  0  0  0  0  0
  -27.6430  -36.3170   23.5680 N   0  0  0  0  0  0  0  0  0  0  0  0
  -27.0370  -37.1230   23.4360 H   0  0  0  0  0  0  0  0  0  0  0  0
  1  5  1  0
  2  1  2  0
  2  6  1  0
  4  3  1  0
  4 49  1  0
  5  3  2  0
  6  4  2  0
  7 20  1  0
  8 13  1  0
  9 10  1  0
  9  8  1  0
 11 10  1  0
 11 24  1  0
 11 12  1  0
 13  7  1  0
 13 12  1  0
 14  7  2  0
 16 15  1  0
 17 15  1  0
 18 20  1  0
 18 19  1  0
 19  5  1  0
 19 16  1  0
 20 17  1  0
 21 22  2  0
 22 41  1  0
 23 22  1  0
 23 26  1  0
 24 25  1  0
 24 21  1  0
 25 23  2  0
 26 27  1  0
 27 28  2  0
 29 32  1  0
 29 28  1  0
 30 29  2  0
 31 30  1  0
 31 26  2  0
 32 33  1  0
 33 34  1  0
 34 35  2  0
 36 35  1  0
 36 40  1  0
 37 36  2  0
 38 33  2  0
 38 37  1  0
 39 38  1  0
 41 42  1  0
 42 44  1  0
 42 45  1  0
 43 41  2  0
 46 21  1  0
 46 47  1  0
 48 46  1  0
 49 51  2  0
 49 50  1  0
 52  6  1  0
 53 52  1  0
 54 53  1  0
 54 55  1  0
 55 57  1  0
 56 67  2  0
 57 63  2  0
 57 62  1  0
 58 68  1  0
 59 65  1  0
 60 66  1  0
 61 59  1  0
 61 60  1  0
 62 61  2  0
 63 64  1  0
 64 59  2  0
 65 58  1  0
 66 58  1  0
 66 56  1  0
 68 69  1  0
 69 71  1  0
 70 68  2  0
 72 76  1  0
 72 81  1  0
 73 69  1  0
 73 74  1  0
 73 77  1  0
 74 75  1  0
 75 76  1  0
 77 72  2  0
 78 77  1  0
 78 79  2  0
 79 80  1  0
 80 81  2  0
 82 56  1  0
 82 83  1  0
 83 84  1  1
 85 83  1  0
 86 83  1  0
 87 82  1  0
 87 90  1  0
 88 92  1  0
 88 87  1  0
 89 88  2  0
 92 91  1  0
 94 92  1  0
 94 93  1  0
 95 94  1  0
M  ISO  4   7 100  20 100  54 101  55 101
M  END
>  <TORSDO>  (43) 
F 20

>  <SCORE>  (43) 
-7.290

>  <name>  (43) 
42

>  <ligand_id>  (43) 
42

>  <original_smiles>  (43) 
[H]c1c([H])c([H])c2c(c1[H])C([H])([H])C([H])([H])C([H])([H])C2([H])N([H])C(=O)C1([H])N(C(=O)C([H])(N([H])C(=O)C([H])(N([H])C([H])([H])[H])C([H])([H])[H])C(C([H])([H])[H])(C([H])([H])[H])C([H])([H])[H])C([H])([H])c2c([H])c(OC([H])([H])C([H])([H])C([H])([H])c3c([H])c([H])c(C4([H])C([H])([H])N(C(=O)N5C([H])([H])C([H])([H])C([H])([H])C([H])(n6nc(-c7c([H])c([H])c(Oc8c([H])c([H])c(F)c([H])c8F)c([H])c7[H])c(C(=O)N([H])[H])c6N([H])[H])C5([H])[H])C([H])([H])C([H])([H])C4([H])[H])c([H])c3C(=O)C([H])([H])[H])c([H])c([H])c2C1([H])[H]

>  <smiles>  (43) 
[H]c1c([H])c([H])c2c(c1[H])C([H])([H])C([H])([H])C([H])([H])C2([H])N([H])C(=O)C1([H])N(C(=O)C([H])(N([H])C(=O)C([H])(N([H])C([H])([H])[H])C([H])([H])[H])C(C([H])([H])[H])(C([H])([H])[H])C([H])([H])[H])C([H])([H])c2c([H])c(OC([H])([H])C([H])([H])C([H])([H])c3c([H])c([H])c(C4([H])C([H])([H])N(C(=O)N5C([H])([H])C([H])([H])C([H])([H])C([H])(n6nc(-c7c([H])c([H])c(Oc8c([H])c([H])c(F)c([H])c8F)c([H])c7[H])c(C(=O)N([H])[H])c6N([H])[H])C5([H])[H])C([H])([H])C([H])([H])C4([H])[H])c([H])c3C(=O)C([H])([H])[H])c([H])c([H])c2C1([H])[H]

$$$$
43:0:0
     RDKit          3D

 95104  0  0  1  0  0  0  0  0999 V2000
  -28.9930  -20.4820   21.6930 C   0  0  0  0  0  3  0  0  0  0  0  0
  -30.1420  -20.1560   19.5640 C   0  0  0  0  0  3  0  0  0  0  0  0
  -29.3700  -21.8380   21.6870 C   0  0  0  0  0  3  0  0  0  0  0  0
  -30.5220  -21.5090   19.5600 C   0  0  0  0  0  3  0  0  0  0  0  0
  -29.3660  -19.6420   20.6230 C   0  0  0  0  0  0  0  0  0  0  0  0
  -30.1280  -22.3560   20.6150 C   0  0  0  0  0  0  0  0  0  0  0  0
  -28.9260  -18.1900   20.5980 C   0  0  0  0  0  2  0  0  0  0  0  0
  -31.3150  -16.8280   23.2830 C   0  0  0  0  0  2  0  0  0  0  0  0
  -30.5240  -17.9800   22.6710 C   0  0  0  0  0  2  0  0  0  0  0  0
  -31.5860  -15.8810   22.1110 C   0  0  0  0  0  2  0  0  0  0  0  0
  -29.6250  -17.2880   21.6400 C   0  0  0  0  0  3  0  0  0  0  0  0
  -30.5490  -16.2220   21.0240 C   0  0  0  0  0  3  0  0  0  0  0  0
  -29.8960  -14.4470   19.4130 C   0  0  0  0  0  0  0  0  0  0  0  0
  -29.4150  -12.3810   18.1630 C   0  0  0  0  0  2  0  0  0  0  0  0
  -28.2150  -12.5360   17.2120 C   0  0  0  0  0  2  0  0  0  0  0  0
  -26.8980  -12.2380   17.9520 C   0  0  0  0  0  2  0  0  0  0  0  0
  -26.7760  -13.0260   19.2810 C   0  0  0  0  0  3  0  0  0  0  0  0
  -28.0600  -12.8760   20.1280 C   0  0  0  0  0  2  0  0  0  0  0  0
  -29.2210  -13.2760   19.3110 N   0  0  0  0  0  0  0  0  0  0  0  0
  -30.6370  -14.8850   18.5280 O   0  0  0  0  0  0  0  0  0  0  0  0
  -29.8030  -15.0390   20.6080 N   0  0  0  0  0  0  0  0  0  0  0  0
  -29.2180  -14.5830   21.2930 H   0  0  0  0  0  0  0  0  0  0  0  0
  -24.5780  -13.4040   20.5750 C   0  0  0  0  0  0  0  0  0  0  0  0
  -23.6720  -12.5300   21.1110 C   0  0  0  0  0  0  0  0  0  0  0  0
  -24.1860  -11.2220   20.8560 C   0  0  0  0  0  0  0  0  0  0  0  0
  -25.5880  -12.6230   20.0330 N   0  0  0  0  0  0  0  0  0  0  0  0
  -25.3660  -11.3000   20.2540 N   0  0  0  0  0  0  0  0  0  0  0  0
  -23.5960   -9.8990   21.0970 C   0  0  0  0  0  0  0  0  0  0  0  0
  -24.1660   -8.9930   22.0180 C   0  0  0  0  0  3  0  0  0  0  0  0
  -23.5720   -7.7330   22.2460 C   0  0  0  0  0  3  0  0  0  0  0  0
  -22.3920   -7.3700   21.5540 C   0  0  0  0  0  0  0  0  0  0  0  0
  -21.8420   -8.2670   20.6210 C   0  0  0  0  0  3  0  0  0  0  0  0
  -22.4380   -9.5170   20.3910 C   0  0  0  0  0  3  0  0  0  0  0  0
  -21.7580   -6.1590   21.6920 O   0  0  0  0  0  0  0  0  0  0  0  0
  -21.7160   -5.5020   22.8950 C   0  0  0  0  0  0  0  0  0  0  0  0
  -21.1210   -6.0770   24.0390 C   0  0  0  0  0  3  0  0  0  0  0  0
  -21.0380   -5.3390   25.2360 C   0  0  0  0  0  3  0  0  0  0  0  0
  -21.5410   -4.0240   25.2900 C   0  0  0  0  0  0  0  0  0  0  0  0
  -22.1280   -3.4480   24.1510 C   0  0  0  0  0  3  0  0  0  0  0  0
  -22.2130   -4.1840   22.9560 C   0  0  0  0  0  0  0  0  0  0  0  0
  -22.7610   -3.6170   21.8540 F   0  0  0  0  0  0  0  0  0  0  0  0
  -21.4540   -3.3110   26.4370 F   0  0  0  0  0  0  0  0  0  0  0  0
  -22.3540  -12.8820   21.7410 C   0  0  0  0  0  0  0  0  0  0  0  0
  -21.9080  -12.0930   22.7150 N   0  0  0  0  0  0  0  0  0  0  0  0
  -21.7330  -13.8880   21.4050 O   0  0  0  0  0  0  0  0  0  0  0  0
  -22.4260  -11.2790   23.0090 H   0  0  0  0  0  0  0  0  0  0  0  0
  -21.0350  -12.3110   23.1720 H   0  0  0  0  0  0  0  0  0  0  0  0
  -24.6220  -14.7930   20.4850 N   0  0  0  0  0  0  0  0  0  0  0  0
  -23.8710  -15.3860   20.8200 H   0  0  0  0  0  0  0  0  0  0  0  0
  -25.3650  -15.3140   20.0360 H   0  0  0  0  0  0  0  0  0  0  0  0
  -30.4860  -23.8280   20.5780 C   0  0  0  0  0  2  0  0  0  0  0  0
  -29.3570  -24.6770   19.9740 C   0  0  0  0  0  2  0  0  0  0  0  0
  -29.2310  -24.5460   18.4440 C   0  0  0  0  0  2  0  0  0  0  0  0
  -27.9760  -25.2380   17.9140 C   0  0  0  0  0  2  0  0  0  0  0  0
  -28.0550  -26.6410   18.1900 O   0  0  0  0  0  0  0  0  0  0  0  0
  -24.8980  -31.0600   22.7580 C   0  0  0  0  0  0  0  0  0  0  0  0
  -26.9000  -27.3320   18.4840 C   0  0  0  0  0  0  0  0  0  0  0  0
  -23.4160  -30.0370   21.0630 C   0  0  0  0  0  3  0  0  0  0  0  0
  -24.5900  -28.8160   19.1570 C   0  0  0  0  0  0  0  0  0  0  0  0
  -25.8990  -30.4030   20.5750 C   0  0  0  0  0  2  0  0  0  0  0  0
  -25.8360  -29.1900   19.6700 C   0  0  0  0  0  0  0  0  0  0  0  0
  -26.9910  -28.4490   19.3430 C   0  0  0  0  0  3  0  0  0  0  0  0
  -25.6340  -26.9820   17.9540 C   0  0  0  0  0  3  0  0  0  0  0  0
  -24.4820  -27.7080   18.3020 C   0  0  0  0  0  3  0  0  0  0  0  0
  -23.4010  -29.6580   19.5590 C   0  0  0  0  0  2  0  0  0  0  0  0
  -24.7640  -30.5040   21.5210 N   0  0  0  0  0  0  0  0  0  0  0  0
  -23.9150  -31.2250   23.4950 O   0  0  0  0  0  0  0  0  0  0  0  0
  -22.8720  -28.8430   21.8790 C   0  0  0  0  0  0  0  0  0  0  0  0
  -21.5470  -28.6320   21.8190 N   0  0  0  0  0  0  0  0  0  0  0  0
  -23.6340  -28.1170   22.5240 O   0  0  0  0  0  0  0  0  0  0  0  0
  -20.9890  -29.2740   21.2710 H   0  0  0  0  0  0  0  0  0  0  0  0
  -18.2800  -27.1480   22.2250 C   0  0  0  0  0  0  0  0  0  0  0  0
  -20.8200  -27.5470   22.4770 C   0  0  0  0  0  3  0  0  0  0  0  0
  -21.0050  -26.2130   21.7190 C   0  0  0  0  0  2  0  0  0  0  0  0
  -19.8990  -25.9470   20.6930 C   0  0  0  0  0  2  0  0  0  0  0  0
  -18.5290  -25.9130   21.3750 C   0  0  0  0  0  2  0  0  0  0  0  0
  -19.3580  -27.9230   22.7290 C   0  0  0  0  0  0  0  0  0  0  0  0
  -19.0760  -29.0810   23.4870 C   0  0  0  0  0  3  0  0  0  0  0  0
  -17.7470  -29.4650   23.7450 C   0  0  0  0  0  3  0  0  0  0  0  0
  -16.6830  -28.6880   23.2550 C   0  0  0  0  0  3  0  0  0  0  0  0
  -16.9500  -27.5310   22.5020 C   0  0  0  0  0  3  0  0  0  0  0  0
  -26.2840  -31.5410   23.2910 C   0  0  0  0  0  3  0  0  0  0  0  0
  -26.0780  -32.8510   23.9240 N   0  0  0  0  0  0  0  0  0  0  0  0
  -26.3730  -34.0260   23.3550 C   0  0  0  0  0  0  0  0  0  0  0  0
  -26.9230  -34.1180   22.2540 O   0  0  0  0  0  0  0  0  0  0  0  0
  -25.5760  -32.8560   24.7990 H   0  0  0  0  0  0  0  0  0  0  0  0
  -24.7130  -35.9070   23.5560 C   0  0  0  0  0  1  0  0  0  0  0  0
  -26.0020  -35.3030   24.1330 C   0  0  0  0  0  3  0  0  0  0  0  0
  -28.2420  -35.9390   24.9080 C   0  0  0  0  0  1  0  0  0  0  0  0
  -27.0700  -36.3270   24.1300 N   0  0  0  0  0  0  0  0  0  0  0  0
  -26.7240  -37.2100   24.4960 H   0  0  0  0  0  0  0  0  0  0  0  0
  -26.9430  -30.5280   24.3090 C   0  0  1  0  0  0  0  0  0  0  0  0
  -25.9890  -30.0840   25.4420 C   0  0  0  0  0  1  0  0  0  0  0  0
  -27.4370  -29.2550   23.5800 C   0  0  0  0  0  1  0  0  0  0  0  0
  -28.1900  -31.1730   24.9590 C   0  0  0  0  0  1  0  0  0  0  0  0
  2  5  1  0
  3  1  1  0
  4  2  2  0
  4  6  1  0
  5  1  2  0
  6  3  2  0
  7  5  1  0
  9  8  1  0
 10  8  1  0
 11  7  1  0
 11  9  1  0
 12 21  1  0
 12 11  1  0
 12 10  1  0
 13 21  1  0
 14 19  1  0
 15 16  1  0
 15 14  1  0
 17 16  1  0
 17 26  1  0
 17 18  1  0
 19 13  1  0
 19 18  1  0
 20 13  2  0
 21 22  1  0
 23 24  2  0
 24 43  1  0
 25 28  1  0
 25 24  1  0
 26 27  1  0
 26 23  1  0
 27 25  2  0
 28 29  1  0
 29 30  2  0
 31 34  1  0
 31 30  1  0
 32 31  2  0
 33 32  1  0
 33 28  2  0
 34 35  1  0
 35 40  2  0
 35 36  1  0
 36 37  2  0
 37 38  1  0
 38 42  1  0
 39 38  2  0
 40 39  1  0
 41 40  1  0
 43 44  1  0
 44 46  1  0
 44 47  1  0
 45 43  2  0
 48 23  1  0
 48 49  1  0
 50 48  1  0
 51  6  1  0
 52 51  1  0
 53 52  1  0
 54 55  1  0
 54 53  1  0
 55 57  1  0
 56 67  2  0
 57 62  1  0
 58 66  1  0
 58 68  1  0
 59 65  1  0
 59 61  1  0
 60 66  1  0
 61 60  1  0
 62 61  2  0
 63 64  1  0
 63 57  2  0
 64 59  2  0
 65 58  1  0
 66 56  1  0
 68 70  2  0
 69 68  1  0
 71 69  1  0
 72 81  2  0
 72 77  1  0
 73 69  1  0
 73 77  1  0
 74 73  1  0
 75 76  1  0
 75 74  1  0
 76 72  1  0
 77 78  2  0
 78 79  1  0
 80 79  2  0
 81 80  1  0
 82 56  1  0
 82 83  1  0
 82 92  1  0
 83 86  1  0
 84 83  1  0
 84 88  1  0
 85 84  2  0
 88 87  1  0
 90 88  1  0
 90 91  1  0
 90 89  1  0
 92 95  1  1
 92 93  1  0
 94 92  1  0
M  ISO  4  13 100  21 100  54 101  55 101
M  END
>  <TORSDO>  (44) 
F 22

>  <SCORE>  (44) 
-6.557

>  <name>  (44) 
43

>  <ligand_id>  (44) 
43

>  <original_smiles>  (44) 
[H]c1c([H])c([H])c2c(c1[H])C([H])([H])C([H])([H])C([H])([H])C2([H])N([H])C(=O)C1([H])N(C(=O)C([H])(N([H])C(=O)C([H])(N([H])C([H])([H])[H])C([H])([H])[H])C(C([H])([H])[H])(C([H])([H])[H])C([H])([H])[H])C([H])([H])c2c([H])c(OC([H])([H])C([H])([H])C([H])([H])C([H])([H])c3c([H])c([H])c(C([H])([H])C4([H])C([H])([H])C([H])([H])C([H])([H])C4([H])N([H])C(=O)N4C([H])([H])C([H])([H])C([H])([H])C([H])(n5nc(-c6c([H])c([H])c(Oc7c([H])c([H])c(F)c([H])c7F)c([H])c6[H])c(C(=O)N([H])[H])c5N([H])[H])C4([H])[H])c([H])c3[H])c([H])c([H])c2C1([H])[H]

>  <smiles>  (44) 
[H]c1c([H])c([H])c2c(c1[H])C([H])([H])C([H])([H])C([H])([H])C2([H])N([H])C(=O)C1([H])N(C(=O)C([H])(N([H])C(=O)C([H])(N([H])C([H])([H])[H])C([H])([H])[H])C(C([H])([H])[H])(C([H])([H])[H])C([H])([H])[H])C([H])([H])c2c([H])c(OC([H])([H])C([H])([H])C([H])([H])C([H])([H])c3c([H])c([H])c(C([H])([H])C4([H])C([H])([H])C([H])([H])C([H])([H])C4([H])N([H])C(=O)N4C([H])([H])C([H])([H])C([H])([H])C([H])(n5nc(-c6c([H])c([H])c(Oc7c([H])c([H])c(F)c([H])c7F)c([H])c6[H])c(C(=O)N([H])[H])c5N([H])[H])C4([H])[H])c([H])c3[H])c([H])c([H])c2C1([H])[H]

$$$$
44:0:0
     RDKit          3D

 91 98  0  0  1  0  0  0  0  0999 V2000
  -28.4190  -24.0160   20.3960 C   0  0  0  0  0  3  0  0  0  0  0  0
  -29.0450  -22.7350   19.8290 N   0  0  0  0  0  4  0  0  0  0  0  0
  -28.7130  -22.6220   18.8840 H   0  0  0  0  0  0  0  0  0  0  0  0
  -30.0400  -22.8840   19.7670 H   0  0  0  0  0  0  0  0  0  0  0  0
  -28.8430  -21.3940   20.5270 C   0  0  0  0  0  3  0  0  0  0  0  0
  -29.5950  -20.1250   19.9140 C   0  0  0  0  0  3  0  0  0  0  0  0
  -29.4140  -18.7120   20.6350 C   0  0  0  0  0  2  0  0  0  0  0  0
  -30.2610  -17.4550   20.1310 C   0  0  0  0  0  3  0  0  0  0  0  0
  -29.9600  -16.0280   20.7890 C   0  0  0  0  0  3  0  0  0  0  0  0
  -30.7380  -14.7430   20.2690 C   0  0  0  0  0  0  0  0  0  0  0  0
  -30.5260  -12.5080   19.1840 C   0  0  0  0  0  2  0  0  0  0  0  0
  -29.5750  -12.6460   17.9740 C   0  0  0  0  0  2  0  0  0  0  0  0
  -28.1040  -12.4810   18.4090 C   0  0  0  0  0  2  0  0  0  0  0  0
  -27.7550  -13.3350   19.6550 C   0  0  0  0  0  3  0  0  0  0  0  0
  -28.8190  -13.1780   20.7640 C   0  0  0  0  0  2  0  0  0  0  0  0
  -30.1250  -13.5170   20.1850 N   0  0  0  0  0  0  0  0  0  0  0  0
  -31.8850  -14.8920   19.8360 O   0  0  0  0  0  0  0  0  0  0  0  0
  -25.3640  -13.9450   20.3710 C   0  0  0  0  0  0  0  0  0  0  0  0
  -24.2970  -13.1770   20.7550 C   0  0  0  0  0  0  0  0  0  0  0  0
  -24.7600  -11.8270   20.7440 C   0  0  0  0  0  0  0  0  0  0  0  0
  -26.4080  -13.0600   20.1470 N   0  0  0  0  0  0  0  0  0  0  0  0
  -26.0510  -11.7820   20.4310 N   0  0  0  0  0  0  0  0  0  0  0  0
  -24.0360  -10.5660   20.9560 C   0  0  0  0  0  0  0  0  0  0  0  0
  -24.4690   -9.6210   21.9110 C   0  0  0  0  0  3  0  0  0  0  0  0
  -23.7470   -8.4240   22.1120 C   0  0  0  0  0  3  0  0  0  0  0  0
  -22.5800   -8.1650   21.3560 C   0  0  0  0  0  0  0  0  0  0  0  0
  -22.1660   -9.1000   20.3900 C   0  0  0  0  0  3  0  0  0  0  0  0
  -22.8870  -10.2890   20.1890 C   0  0  0  0  0  3  0  0  0  0  0  0
  -21.8320   -7.0170   21.4610 O   0  0  0  0  0  0  0  0  0  0  0  0
  -21.7730   -6.3030   22.6310 C   0  0  0  0  0  0  0  0  0  0  0  0
  -21.3360   -6.8870   23.8390 C   0  0  0  0  0  3  0  0  0  0  0  0
  -21.2220   -6.0970   25.0020 C   0  0  0  0  0  3  0  0  0  0  0  0
  -21.5370   -4.7260   24.9550 C   0  0  0  0  0  0  0  0  0  0  0  0
  -21.9660   -4.1420   23.7500 C   0  0  0  0  0  3  0  0  0  0  0  0
  -22.0800   -4.9280   22.5910 C   0  0  0  0  0  0  0  0  0  0  0  0
  -22.4730   -4.3570   21.4270 F   0  0  0  0  0  0  0  0  0  0  0  0
  -21.4210   -3.9650   26.0680 F   0  0  0  0  0  0  0  0  0  0  0  0
  -22.9010  -13.6590   21.0220 C   0  0  0  0  0  0  0  0  0  0  0  0
  -22.1770  -12.9770   21.9040 N   0  0  0  0  0  0  0  0  0  0  0  0
  -22.4570  -14.6710   20.4840 O   0  0  0  0  0  0  0  0  0  0  0  0
  -22.5510  -12.1600   22.3640 H   0  0  0  0  0  0  0  0  0  0  0  0
  -21.2370  -13.2790   22.1200 H   0  0  0  0  0  0  0  0  0  0  0  0
  -25.5260  -15.3120   20.1730 N   0  0  0  0  0  0  0  0  0  0  0  0
  -24.7610  -15.9680   20.2850 H   0  0  0  0  0  0  0  0  0  0  0  0
  -26.3780  -15.7480   19.8410 H   0  0  0  0  0  0  0  0  0  0  0  0
  -28.4190  -25.2420   19.3640 C   0  0  0  0  0  2  0  0  0  0  0  0
  -28.2960  -26.6340   19.8400 O   0  0  0  0  0  0  0  0  0  0  0  0
  -24.5530  -31.8150   23.0920 C   0  0  0  0  0  0  0  0  0  0  0  0
  -27.1150  -27.3830   19.8370 C   0  0  0  0  0  0  0  0  0  0  0  0
  -23.3010  -30.4360   21.4630 C   0  0  0  0  0  3  0  0  0  0  0  0
  -24.7150  -28.9310   19.9510 C   0  0  0  0  0  0  0  0  0  0  0  0
  -25.8200  -30.8040   21.1850 C   0  0  0  0  0  2  0  0  0  0  0  0
  -25.8930  -29.4380   20.5110 C   0  0  0  0  0  0  0  0  0  0  0  0
  -27.0910  -28.6720   20.4460 C   0  0  0  0  0  3  0  0  0  0  0  0
  -25.9110  -26.9120   19.2670 C   0  0  0  0  0  3  0  0  0  0  0  0
  -24.7240  -27.6730   19.3240 C   0  0  0  0  0  3  0  0  0  0  0  0
  -23.4680  -29.7840   20.0620 C   0  0  0  0  0  2  0  0  0  0  0  0
  -24.5790  -31.0340   21.9710 N   0  0  0  0  0  0  0  0  0  0  0  0
  -23.4890  -32.0690   23.6730 O   0  0  0  0  0  0  0  0  0  0  0  0
  -22.6850  -29.3960   22.4280 C   0  0  0  0  0  0  0  0  0  0  0  0
  -21.3650  -29.1720   22.3120 N   0  0  0  0  0  0  0  0  0  0  0  0
  -23.3910  -28.7930   23.2400 O   0  0  0  0  0  0  0  0  0  0  0  0
  -20.8510  -29.7140   21.6320 H   0  0  0  0  0  0  0  0  0  0  0  0
  -18.0510  -27.8000   22.7660 C   0  0  0  0  0  0  0  0  0  0  0  0
  -20.5840  -28.2040   23.0850 C   0  0  0  0  0  3  0  0  0  0  0  0
  -20.7770  -26.7710   22.5370 C   0  0  0  0  0  2  0  0  0  0  0  0
  -19.7160  -26.3720   21.5060 C   0  0  0  0  0  2  0  0  0  0  0  0
  -18.3150  -26.4510   22.1200 C   0  0  0  0  0  2  0  0  0  0  0  0
  -19.1170  -28.6300   23.2050 C   0  0  0  0  0  0  0  0  0  0  0  0
  -18.8160  -29.8890   23.7700 C   0  0  0  0  0  3  0  0  0  0  0  0
  -17.4820  -30.3200   23.9010 C   0  0  0  0  0  3  0  0  0  0  0  0
  -16.4320  -29.4880   23.4790 C   0  0  0  0  0  3  0  0  0  0  0  0
  -16.7160  -28.2300   22.9180 C   0  0  0  0  0  3  0  0  0  0  0  0
  -25.8530  -32.4440   23.6830 C   0  0  0  0  0  3  0  0  0  0  0  0
  -26.4350  -31.6360   24.9070 C   0  0  1  0  0  0  0  0  0  0  0  0
  -25.3930  -31.3460   26.0120 C   0  0  0  0  0  1  0  0  0  0  0  0
  -27.0120  -30.2800   24.4380 C   0  0  0  0  0  1  0  0  0  0  0  0
  -27.6080  -32.4190   25.5430 C   0  0  0  0  0  1  0  0  0  0  0  0
  -25.5390  -33.8240   24.0760 N   0  0  0  0  0  0  0  0  0  0  0  0
  -25.8360  -34.9110   23.3490 C   0  0  0  0  0  0  0  0  0  0  0  0
  -26.4730  -34.8550   22.2930 O   0  0  0  0  0  0  0  0  0  0  0  0
  -24.9670  -33.9400   24.9000 H   0  0  0  0  0  0  0  0  0  0  0  0
  -24.0720  -36.6910   23.1290 C   0  0  0  0  0  1  0  0  0  0  0  0
  -25.3490  -36.2740   23.8770 C   0  0  0  0  0  3  0  0  0  0  0  0
  -27.5040  -37.1550   24.6560 C   0  0  0  0  0  1  0  0  0  0  0  0
  -26.3640  -37.3450   23.7640 N   0  0  0  0  0  0  0  0  0  0  0  0
  -25.9530  -38.2530   23.9630 H   0  0  0  0  0  0  0  0  0  0  0  0
  -29.1230  -24.4430   21.7080 C   0  0  0  0  0  2  0  0  0  0  0  0
  -29.4430  -23.9620   24.0280 C   0  0  0  0  0  1  0  0  0  0  0  0
  -28.7350  -23.5760   22.8150 N   0  0  0  0  0  0  0  0  0  0  0  0
  -27.7330  -23.6550   22.9830 H   0  0  0  0  0  0  0  0  0  0  0  0
  1 46  1  0
  1 88  1  0
  2  1  1  0
  2  5  1  0
  3  2  1  0
  4  2  1  0
  6  5  2  0
  6  7  1  0
  8  7  1  0
  8  9  2  0
 10  9  1  0
 11 16  1  0
 12 13  1  0
 12 11  1  0
 14 13  1  0
 14 21  1  0
 14 15  1  0
 16 10  1  0
 16 15  1  0
 17 10  2  0
 18 19  2  0
 19 38  1  0
 20 19  1  0
 20 23  1  0
 21 18  1  0
 21 22  1  0
 22 20  2  0
 23 24  1  0
 24 25  2  0
 26 29  1  0
 26 25  1  0
 27 26  2  0
 28 27  1  0
 28 23  2  0
 29 30  1  0
 30 31  1  0
 31 32  2  0
 33 32  1  0
 33 37  1  0
 34 33  2  0
 35 30  2  0
 35 34  1  0
 36 35  1  0
 38 39  1  0
 39 42  1  0
 39 41  1  0
 40 38  2  0
 43 44  1  0
 43 18  1  0
 45 43  1  0
 46 47  1  0
 48 59  2  0
 49 47  1  0
 49 54  1  0
 50 58  1  0
 50 60  1  0
 51 57  1  0
 51 53  1  0
 52 58  1  0
 53 52  1  0
 54 53  2  0
 55 56  1  0
 55 49  2  0
 56 51  2  0
 57 50  1  0
 58 48  1  0
 60 62  2  0
 61 60  1  0
 63 61  1  0
 64 73  2  0
 64 69  1  0
 65 61  1  0
 65 69  1  0
 66 65  1  0
 67 68  1  0
 67 66  1  0
 68 64  1  0
 69 70  2  0
 70 71  1  0
 72 71  2  0
 73 72  1  0
 74 48  1  0
 74 79  1  0
 74 75  1  0
 75 78  1  1
 75 76  1  0
 77 75  1  0
 79 82  1  0
 80 84  1  0
 80 79  1  0
 81 80  2  0
 84 83  1  0
 86 84  1  0
 86 87  1  0
 86 85  1  0
 88 90  1  0
 90 91  1  0
 90 89  1  0
M  ISO  4   9 100  10 100  46 101  47 101
M  END
>  <TORSDO>  (45) 
F 25

>  <SCORE>  (45) 
-11.535

>  <name>  (45) 
44

>  <ligand_id>  (45) 
44

>  <original_smiles>  (45) 
[H]c1c([H])c([H])c2c(c1[H])C([H])([H])C([H])([H])C([H])([H])C2([H])N([H])C(=O)C1([H])N(C(=O)C([H])(N([H])C(=O)C([H])(N([H])C([H])([H])[H])C([H])([H])[H])C(C([H])([H])[H])(C([H])([H])[H])C([H])([H])[H])C([H])([H])c2c([H])c(OC([H])([H])C([H])(C([H])([H])N([H])C([H])([H])[H])[N+]([H])([H])C([H])([H])C([H])([H])C([H])([H])C([H])([H])C([H])([H])C(=O)N3C([H])([H])C([H])([H])C([H])([H])C([H])(n4nc(-c5c([H])c([H])c(Oc6c([H])c([H])c(F)c([H])c6F)c([H])c5[H])c(C(=O)N([H])[H])c4N([H])[H])C3([H])[H])c([H])c([H])c2C1([H])[H]

>  <smiles>  (45) 
[H]c1c([H])c([H])c2c(c1[H])C([H])([H])C([H])([H])C([H])([H])C2([H])N([H])C(=O)C1([H])N(C(=O)C([H])(N([H])C(=O)C([H])(N([H])C([H])([H])[H])C([H])([H])[H])C(C([H])([H])[H])(C([H])([H])[H])C([H])([H])[H])C([H])([H])c2c([H])c(OC([H])([H])C([H])(C([H])([H])N([H])C([H])([H])[H])[N+]([H])([H])C([H])([H])C([H])([H])C([H])([H])C([H])([H])C([H])([H])C(=O)N3C([H])([H])C([H])([H])C([H])([H])C([H])(n4nc(-c5c([H])c([H])c(Oc6c([H])c([H])c(F)c([H])c6F)c([H])c5[H])c(C(=O)N([H])[H])c4N([H])[H])C3([H])[H])c([H])c([H])c2C1([H])[H]

$$$$
45:0:0
     RDKit          3D

100104  0  0  1  0  0  0  0  0999 V2000
  -20.2790  -27.2190   21.1730 C   0  0  0  0  0  1  0  0  0  0  0  0
  -20.1430  -25.6810   22.7480 C   0  0  0  0  0  1  0  0  0  0  0  0
  -20.1640  -25.1400   19.5350 C   0  0  0  0  0  3  0  0  0  0  0  0
  -20.4130  -26.6490   19.6800 C   0  0  0  0  0  3  0  0  0  0  0  0
  -20.3410  -24.0490   22.1170 C   0  0  0  0  0  3  0  0  0  0  0  0
  -20.1040  -24.0090   20.5880 C   0  0  0  0  0  0  0  0  0  0  0  0
  -20.0680  -22.6290   19.9500 C   0  0  0  0  0  1  0  0  0  0  0  0
  -21.4650  -27.2330   18.5910 C   0  0  0  0  0  0  0  0  0  0  0  0
  -22.8380  -26.8320   18.5610 N   0  0  0  0  0  0  0  0  0  0  0  0
  -21.0350  -27.9970   17.7280 O   0  0  0  0  0  0  0  0  0  0  0  0
  -23.0130  -26.2860   19.3910 H   0  0  0  0  0  0  0  0  0  0  0  0
  -24.1640  -26.8120   17.6670 C   0  0  0  0  0  2  0  0  0  0  0  0
  -25.8030  -27.3720   17.8820 C   0  0  0  0  0  2  0  0  0  0  0  0
  -27.0880  -27.0130   18.7660 O   0  0  0  0  0  0  0  0  0  0  0  0
  -24.6730  -31.9650   23.2090 C   0  0  0  0  0  0  0  0  0  0  0  0
  -26.9990  -27.4160   20.0590 C   0  0  0  0  0  3  0  0  0  0  0  0
  -23.4210  -30.6260   21.6190 C   0  0  0  0  0  3  0  0  0  0  0  0
  -24.7930  -28.9980   20.3700 C   0  0  0  0  0  3  0  0  0  0  0  0
  -25.9700  -30.9470   21.2910 C   0  0  0  0  0  2  0  0  0  0  0  0
  -26.0220  -29.5590   20.6770 C   0  0  0  0  0  0  0  0  0  0  0  0
  -27.1840  -28.7750   20.4530 C   0  0  0  0  0  3  0  0  0  0  0  0
  -25.8250  -26.7970   20.4010 C   0  0  0  0  0  3  0  0  0  0  0  0
  -24.7050  -27.6190   20.4300 C   0  0  0  0  0  3  0  0  0  0  0  0
  -23.5850  -29.8830   20.2950 C   0  0  0  0  0  2  0  0  0  0  0  0
  -24.7180  -31.2070   22.0810 N   0  0  0  0  0  0  0  0  0  0  0  0
  -23.5950  -32.2500   23.7590 O   0  0  0  0  0  0  0  0  0  0  0  0
  -22.8540  -29.6670   22.6780 C   0  0  0  0  0  0  0  0  0  0  0  0
  -21.5540  -29.3950   22.6710 N   0  0  0  0  0  0  0  0  0  0  0  0
  -23.6070  -29.1410   23.4980 O   0  0  0  0  0  0  0  0  0  0  0  0
  -20.9420  -29.8960   22.0440 H   0  0  0  0  0  0  0  0  0  0  0  0
  -18.2010  -27.4840   22.5200 C   0  0  0  0  0  0  0  0  0  0  0  0
  -21.0320  -28.1890   23.3240 C   0  0  0  0  0  3  0  0  0  0  0  0
  -22.1840  -26.9220   22.6700 C   0  0  0  0  0  2  0  0  0  0  0  0
  -21.8150  -25.7020   21.3560 C   0  0  0  0  0  1  0  0  0  0  0  0
  -18.5200  -25.9620   21.3400 C   0  0  0  0  0  1  0  0  0  0  0  0
  -19.3030  -28.3460   23.2600 C   0  0  0  0  0  0  0  0  0  0  0  0
  -18.9600  -29.6260   23.8560 C   0  0  0  0  0  3  0  0  0  0  0  0
  -17.6710  -30.1740   23.9010 C   0  0  0  0  0  3  0  0  0  0  0  0
  -16.6430  -29.3990   23.3500 C   0  0  0  0  0  3  0  0  0  0  0  0
  -16.9060  -28.1380   22.7000 C   0  0  0  0  0  3  0  0  0  0  0  0
  -25.9620  -32.5220   23.8540 C   0  0  0  0  0  3  0  0  0  0  0  0
  -25.6480  -33.8930   24.2610 N   0  0  0  0  0  0  0  0  0  0  0  0
  -25.9170  -34.9690   23.5150 C   0  0  0  0  0  0  0  0  0  0  0  0
  -26.5500  -34.9100   22.4570 O   0  0  0  0  0  0  0  0  0  0  0  0
  -25.0800  -34.0050   25.0870 H   0  0  0  0  0  0  0  0  0  0  0  0
  -24.1510  -36.7390   23.2600 C   0  0  0  0  0  1  0  0  0  0  0  0
  -25.4130  -36.3260   24.0340 C   0  0  0  0  0  3  0  0  0  0  0  0
  -27.5610  -37.1910   24.8470 C   0  0  0  0  0  1  0  0  0  0  0  0
  -26.4300  -37.3950   23.9450 N   0  0  0  0  0  0  0  0  0  0  0  0
  -26.0190  -38.3020   24.1510 H   0  0  0  0  0  0  0  0  0  0  0  0
  -26.4630  -31.6660   25.0760 C   0  0  1  0  0  0  0  0  0  0  0  0
  -25.3760  -31.3750   26.1370 C   0  0  0  0  0  1  0  0  0  0  0  0
  -27.0300  -30.3120   24.5880 C   0  0  0  0  0  1  0  0  0  0  0  0
  -27.6230  -32.4140   25.7710 C   0  0  0  0  0  1  0  0  0  0  0  0
  -21.5410  -22.6000   22.4690 C   0  0  0  0  0  1  0  0  0  0  0  0
  -23.3000  -21.8240   21.9260 C   0  0  0  0  0  1  0  0  0  0  0  0
  -24.3120  -20.2450   21.4940 C   0  0  0  0  0  3  0  0  0  0  0  0
  -25.7100  -19.5220   21.5970 C   0  0  0  0  0  0  0  0  0  0  0  0
  -26.7280  -18.0780   20.8530 C   0  0  0  0  0  1  0  0  0  0  0  0
  -28.1660  -16.7380   21.2670 C   0  0  0  0  0  1  0  0  0  0  0  0
  -29.5000  -15.4760   20.6300 C   0  0  0  0  0  0  0  0  0  0  0  0
  -30.3110  -13.0720   19.6660 C   0  0  0  0  0  2  0  0  0  0  0  0
  -29.5170  -12.6770   18.3810 C   0  0  0  0  0  2  0  0  0  0  0  0
  -28.0700  -12.2690   18.7230 C   0  0  0  0  0  2  0  0  0  0  0  0
  -27.5090  -13.1990   19.8210 C   0  0  0  0  0  3  0  0  0  0  0  0
  -28.4100  -13.2660   21.0430 C   0  0  0  0  0  2  0  0  0  0  0  0
  -29.4910  -14.0400   20.5370 N   0  0  0  0  0  0  0  0  0  0  0  0
  -30.6850  -15.7650   20.2850 O   0  0  0  0  0  0  0  0  0  0  0  0
  -25.1830  -13.7850   20.5490 C   0  0  0  0  0  0  0  0  0  0  0  0
  -24.1290  -13.0200   20.9240 C   0  0  0  0  0  0  0  0  0  0  0  0
  -24.5920  -11.6680   20.8780 C   0  0  0  0  0  0  0  0  0  0  0  0
  -26.1950  -12.8950   20.2680 N   0  0  0  0  0  0  0  0  0  0  0  0
  -25.8710  -11.6180   20.5470 N   0  0  0  0  0  0  0  0  0  0  0  0
  -23.8760  -10.4140   21.0500 C   0  0  0  0  0  0  0  0  0  0  0  0
  -24.3440   -9.4100   21.9250 C   0  0  0  0  0  3  0  0  0  0  0  0
  -23.6190   -8.2120   22.0770 C   0  0  0  0  0  3  0  0  0  0  0  0
  -22.4180   -8.0150   21.3550 C   0  0  0  0  0  0  0  0  0  0  0  0
  -21.9740   -9.0090   20.4650 C   0  0  0  0  0  3  0  0  0  0  0  0
  -22.6990  -10.1990   20.3090 C   0  0  0  0  0  3  0  0  0  0  0  0
  -21.6570   -6.8760   21.4240 O   0  0  0  0  0  0  0  0  0  0  0  0
  -21.6800   -6.0670   22.5300 C   0  0  0  0  0  0  0  0  0  0  0  0
  -21.3980   -6.5600   23.8220 C   0  0  0  0  0  3  0  0  0  0  0  0
  -21.3650   -5.6770   24.9190 C   0  0  0  0  0  3  0  0  0  0  0  0
  -21.6050   -4.3030   24.7250 C   0  0  0  0  0  0  0  0  0  0  0  0
  -21.8820   -3.8110   23.4380 C   0  0  0  0  0  3  0  0  0  0  0  0
  -21.9180   -4.6910   22.3430 C   0  0  0  0  0  0  0  0  0  0  0  0
  -22.1660   -4.2100   21.1000 F   0  0  0  0  0  0  0  0  0  0  0  0
  -21.5630   -3.4530   25.7770 F   0  0  0  0  0  0  0  0  0  0  0  0
  -22.7420  -13.5100   21.2000 C   0  0  0  0  0  0  0  0  0  0  0  0
  -22.0100  -12.8170   22.0590 N   0  0  0  0  0  0  0  0  0  0  0  0
  -22.3210  -14.5460   20.6840 O   0  0  0  0  0  0  0  0  0  0  0  0
  -22.3680  -11.9780   22.4930 H   0  0  0  0  0  0  0  0  0  0  0  0
  -21.0760  -13.1260   22.2880 H   0  0  0  0  0  0  0  0  0  0  0  0
  -25.3580  -15.1520   20.3950 N   0  0  0  0  0  0  0  0  0  0  0  0
  -24.5950  -15.8040   20.5370 H   0  0  0  0  0  0  0  0  0  0  0  0
  -26.1960  -15.5900   20.0390 H   0  0  0  0  0  0  0  0  0  0  0  0
  -26.7560  -20.1820   22.5040 C   0  0  0  0  0  2  0  0  0  0  0  0
  -26.7670  -21.7150   22.6330 C   0  0  0  0  0  2  0  0  0  0  0  0
  -26.9010  -22.3340   21.3660 O   0  0  0  0  0  0  0  0  0  0  0  0
  -26.1300  -22.1090   20.8540 H   0  0  0  0  0  0  0  0  0  0  0  0
  3  4  1  0
  3  6  2  0
  4  1  1  0
  5 55  1  0
  5  2  1  0
  6  5  1  0
  7  6  1  0
  8  4  1  0
  9  8  1  0
  9 11  1  0
 10  8  2  0
 12 13  1  0
 12  9  1  0
 13 14  1  0
 15 26  2  0
 16 14  1  0
 16 22  1  0
 16 21  1  0
 17 25  1  0
 17 27  1  0
 18 24  1  0
 18 23  1  0
 18 20  1  0
 19 25  1  0
 20 19  1  0
 21 20  2  0
 22 23  2  0
 24 17  1  0
 25 15  1  0
 27 29  2  0
 28 27  1  0
 28 32  1  0
 30 28  1  0
 31 40  2  0
 31 36  1  0
 32 33  1  0
 34 33  1  0
 35 31  1  0
 36 32  1  0
 36 37  2  0
 37 38  1  0
 39 38  2  0
 40 39  1  0
 41 15  1  0
 41 42  1  0
 41 51  1  0
 42 45  1  0
 43 47  1  0
 43 42  1  0
 44 43  2  0
 47 46  1  0
 49 47  1  0
 49 50  1  0
 49 48  1  0
 51 54  1  1
 51 52  1  0
 53 51  1  0
 57 58  2  0
 57 56  1  0
 58 97  1  0
 59 58  1  0
 61 60  1  0
 62 67  1  0
 63 64  1  0
 63 62  1  0
 65 64  1  0
 65 72  1  0
 65 66  1  0
 67 61  1  0
 67 66  1  0
 68 61  2  0
 69 70  2  0
 70 89  1  0
 71 70  1  0
 71 74  1  0
 72 73  1  0
 72 69  1  0
 73 71  2  0
 74 75  1  0
 75 76  2  0
 77 80  1  0
 77 76  1  0
 78 77  2  0
 79 78  1  0
 79 74  2  0
 80 81  1  0
 81 82  1  0
 82 83  2  0
 84 83  1  0
 84 88  1  0
 85 84  2  0
 86 81  2  0
 86 85  1  0
 87 86  1  0
 89 90  1  0
 90 93  1  0
 90 92  1  0
 91 89  2  0
 94 95  1  0
 94 69  1  0
 96 94  1  0
 97 98  1  0
 99 98  1  0
100 99  1  0
M  ISO  4  13 101  14 101  60 100  61 100
M  END
>  <TORSDO>  (46) 
F 27

>  <SCORE>  (46) 
26.987

>  <name>  (46) 
45

>  <ligand_id>  (46) 
45

>  <original_smiles>  (46) 
[H]OC([H])([H])C([H])([H])C(=C([H])C([H])([H])C([H])([H])c1c([H])c([H])c(C(=O)N([H])C([H])([H])C([H])([H])Oc2c([H])c([H])c3c(c2[H])C([H])([H])N(C(=O)C([H])(N([H])C(=O)C([H])(N([H])C([H])([H])[H])C([H])([H])[H])C(C([H])([H])[H])(C([H])([H])[H])C([H])([H])[H])C([H])(C(=O)N([H])C2([H])c4c([H])c([H])c([H])c([H])c4C([H])([H])C([H])([H])C2([H])[H])C3([H])[H])c([H])c1C([H])([H])[H])C([H])([H])C([H])([H])C(=O)N1C([H])([H])C([H])([H])C([H])([H])C([H])(n2nc(-c3c([H])c([H])c(Oc4c([H])c([H])c(F)c([H])c4F)c([H])c3[H])c(C(=O)N([H])[H])c2N([H])[H])C1([H])[H]

>  <smiles>  (46) 
[H]OC([H])([H])C([H])([H])C(=C([H])C([H])([H])C([H])([H])c1c([H])c([H])c(C(=O)N([H])C([H])([H])C([H])([H])Oc2c([H])c([H])c3c(c2[H])C([H])([H])N(C(=O)C([H])(N([H])C(=O)C([H])(N([H])C([H])([H])[H])C([H])([H])[H])C(C([H])([H])[H])(C([H])([H])[H])C([H])([H])[H])C([H])(C(=O)N([H])C2([H])c4c([H])c([H])c([H])c([H])c4C([H])([H])C([H])([H])C2([H])[H])C3([H])[H])c([H])c1C([H])([H])[H])C([H])([H])C([H])([H])C(=O)N1C([H])([H])C([H])([H])C([H])([H])C([H])(n2nc(-c3c([H])c([H])c(Oc4c([H])c([H])c(F)c([H])c4F)c([H])c3[H])c(C(=O)N([H])[H])c2N([H])[H])C1([H])[H]

$$$$
46:0:0
     RDKit          3D

 94102  0  0  1  0  0  0  0  0999 V2000
  -32.4530  -20.8070   21.8810 C   0  0  0  0  0  3  0  0  0  0  0  0
  -32.7340  -21.4390   20.6550 C   0  0  0  0  0  3  0  0  0  0  0  0
  -30.6860  -22.4320   22.3060 C   0  0  0  0  0  3  0  0  0  0  0  0
  -31.4230  -21.2990   22.7080 C   0  0  0  0  0  0  0  0  0  0  0  0
  -30.9770  -23.0850   21.0900 C   0  0  0  0  0  0  0  0  0  0  0  0
  -32.0010  -22.5750   20.2570 C   0  0  0  0  0  0  0  0  0  0  0  0
  -32.2980  -23.1750   19.0670 O   0  0  0  0  0  0  0  0  0  0  0  0
  -32.9840  -22.7210   18.5880 H   0  0  0  0  0  0  0  0  0  0  0  0
  -30.1990  -24.3420   20.7280 C   0  0  0  0  0  2  0  0  0  0  0  0
  -28.7770  -24.0490   20.2270 C   0  0  0  0  0  2  0  0  0  0  0  0
  -28.1280  -25.2900   19.6030 C   0  0  0  0  0  2  0  0  0  0  0  0
  -26.7470  -25.0330   19.3740 O   0  0  0  0  0  0  0  0  0  0  0  0
  -24.9730  -30.7160   23.3010 C   0  0  0  0  0  0  0  0  0  0  0  0
  -25.8870  -26.0790   19.6100 C   0  0  0  0  0  0  0  0  0  0  0  0
  -23.2310  -29.8730   21.7550 C   0  0  0  0  0  3  0  0  0  0  0  0
  -24.0130  -28.1470   20.0470 C   0  0  0  0  0  0  0  0  0  0  0  0
  -25.7100  -29.5560   21.2290 C   0  0  0  0  0  2  0  0  0  0  0  0
  -25.3290  -28.2860   20.5030 C   0  0  0  0  0  0  0  0  0  0  0  0
  -26.2690  -27.2590   20.2880 C   0  0  0  0  0  3  0  0  0  0  0  0
  -24.5620  -25.9540   19.1460 C   0  0  0  0  0  3  0  0  0  0  0  0
  -23.6210  -26.9800   19.3680 C   0  0  0  0  0  3  0  0  0  0  0  0
  -23.0760  -29.3020   20.3200 C   0  0  0  0  0  2  0  0  0  0  0  0
  -24.6650  -30.0510   22.1530 N   0  0  0  0  0  0  0  0  0  0  0  0
  -24.0860  -31.2190   24.0060 O   0  0  0  0  0  0  0  0  0  0  0  0
  -22.4340  -28.9780   22.7310 C   0  0  0  0  0  0  0  0  0  0  0  0
  -21.1040  -28.9350   22.5500 N   0  0  0  0  0  0  0  0  0  0  0  0
  -23.0090  -28.3230   23.6040 O   0  0  0  0  0  0  0  0  0  0  0  0
  -20.7090  -29.5120   21.8210 H   0  0  0  0  0  0  0  0  0  0  0  0
  -17.6050  -28.1070   22.8980 C   0  0  0  0  0  0  0  0  0  0  0  0
  -20.1550  -28.1340   23.3210 C   0  0  0  0  0  3  0  0  0  0  0  0
  -20.1470  -26.6640   22.8410 C   0  0  0  0  0  2  0  0  0  0  0  0
  -19.0800  -26.3830   21.7770 C   0  0  0  0  0  2  0  0  0  0  0  0
  -17.6850  -26.7030   22.3200 C   0  0  0  0  0  2  0  0  0  0  0  0
  -18.7680  -28.7840   23.3530 C   0  0  0  0  0  0  0  0  0  0  0  0
  -18.6450  -30.0990   23.8500 C   0  0  0  0  0  3  0  0  0  0  0  0
  -17.3910  -30.7360   23.8970 C   0  0  0  0  0  3  0  0  0  0  0  0
  -16.2410  -30.0560   23.4610 C   0  0  0  0  0  3  0  0  0  0  0  0
  -16.3480  -28.7430   22.9670 C   0  0  0  0  0  3  0  0  0  0  0  0
  -26.4500  -30.8990   23.7740 C   0  0  0  0  0  3  0  0  0  0  0  0
  -26.9870  -29.6820   24.6220 C   0  0  1  0  0  0  0  0  0  0  0  0
  -26.0640  -29.2870   25.7980 C   0  0  0  0  0  1  0  0  0  0  0  0
  -27.1770  -28.4330   23.7290 C   0  0  0  0  0  1  0  0  0  0  0  0
  -28.3790  -30.0250   25.2050 C   0  0  0  0  0  1  0  0  0  0  0  0
  -26.5160  -32.1440   24.5470 N   0  0  0  0  0  0  0  0  0  0  0  0
  -27.2800  -33.1970   24.2260 C   0  0  0  0  0  0  0  0  0  0  0  0
  -28.0670  -33.1890   23.2770 O   0  0  0  0  0  0  0  0  0  0  0  0
  -25.8550  -32.2420   25.3020 H   0  0  0  0  0  0  0  0  0  0  0  0
  -26.3450  -35.5300   24.3400 C   0  0  0  0  0  1  0  0  0  0  0  0
  -27.1490  -34.4610   25.0990 C   0  0  0  0  0  3  0  0  0  0  0  0
  -29.1570  -34.1820   26.4810 C   0  0  0  0  0  1  0  0  0  0  0  0
  -28.4510  -35.0230   25.5190 N   0  0  0  0  0  0  0  0  0  0  0  0
  -28.3290  -35.9430   25.9310 H   0  0  0  0  0  0  0  0  0  0  0  0
  -31.1290  -20.6400   24.0430 C   0  0  0  0  0  2  0  0  0  0  0  0
  -30.5650  -19.2150   23.9180 C   0  0  0  0  0  2  0  0  0  0  0  0
  -31.3380  -18.3160   22.9330 C   0  0  0  0  0  2  0  0  0  0  0  0
  -30.5290  -17.0770   22.5270 C   0  0  0  0  0  2  0  0  0  0  0  0
  -31.2710  -16.1210   21.5710 C   0  0  0  0  0  2  0  0  0  0  0  0
  -30.4850  -14.8040   21.4050 C   0  0  0  0  0  2  0  0  0  0  0  0
  -30.9830  -13.8300   20.3190 C   0  0  0  0  0  0  0  0  0  0  0  0
  -30.4120  -11.9520   18.8090 C   0  0  0  0  0  2  0  0  0  0  0  0
  -29.4120  -12.4170   17.7310 C   0  0  0  0  0  2  0  0  0  0  0  0
  -27.9600  -12.3510   18.2490 C   0  0  0  0  0  2  0  0  0  0  0  0
  -27.7920  -13.0180   19.6380 C   0  0  0  0  0  3  0  0  0  0  0  0
  -28.8750  -12.5040   20.6100 C   0  0  0  0  0  2  0  0  0  0  0  0
  -30.1930  -12.7690   20.0090 N   0  0  0  0  0  0  0  0  0  0  0  0
  -32.0410  -14.0670   19.7240 O   0  0  0  0  0  0  0  0  0  0  0  0
  -25.4600  -13.7550   20.4540 C   0  0  0  0  0  0  0  0  0  0  0  0
  -24.3690  -13.0390   20.8650 C   0  0  0  0  0  0  0  0  0  0  0  0
  -24.7520  -11.6640   20.8010 C   0  0  0  0  0  0  0  0  0  0  0  0
  -26.4460  -12.8200   20.1710 N   0  0  0  0  0  0  0  0  0  0  0  0
  -26.0220  -11.5570   20.4330 N   0  0  0  0  0  0  0  0  0  0  0  0
  -23.9690  -10.4410   21.0140 C   0  0  0  0  0  0  0  0  0  0  0  0
  -24.3820   -9.4490   21.9290 C   0  0  0  0  0  3  0  0  0  0  0  0
  -23.6030   -8.2890   22.1280 C   0  0  0  0  0  3  0  0  0  0  0  0
  -22.3960   -8.1130   21.4120 C   0  0  0  0  0  0  0  0  0  0  0  0
  -21.9990   -9.0940   20.4850 C   0  0  0  0  0  3  0  0  0  0  0  0
  -22.7790  -10.2460   20.2840 C   0  0  0  0  0  3  0  0  0  0  0  0
  -21.5870   -7.0080   21.5210 O   0  0  0  0  0  0  0  0  0  0  0  0
  -21.5340   -6.2660   22.6750 C   0  0  0  0  0  0  0  0  0  0  0  0
  -21.0620   -6.8110   23.8890 C   0  0  0  0  0  3  0  0  0  0  0  0
  -20.9580   -5.9950   25.0330 C   0  0  0  0  0  3  0  0  0  0  0  0
  -21.3160   -4.6360   24.9640 C   0  0  0  0  0  0  0  0  0  0  0  0
  -21.7810   -4.0910   23.7550 C   0  0  0  0  0  3  0  0  0  0  0  0
  -21.8870   -4.9030   22.6130 C   0  0  0  0  0  0  0  0  0  0  0  0
  -22.3150   -4.3680   21.4440 F   0  0  0  0  0  0  0  0  0  0  0  0
  -21.2090   -3.8490   26.0610 F   0  0  0  0  0  0  0  0  0  0  0  0
  -23.0120  -13.5870   21.2050 C   0  0  0  0  0  0  0  0  0  0  0  0
  -22.2910  -12.9260   22.1050 N   0  0  0  0  0  0  0  0  0  0  0  0
  -22.6020  -14.6360   20.7080 O   0  0  0  0  0  0  0  0  0  0  0  0
  -22.6360  -12.0780   22.5290 H   0  0  0  0  0  0  0  0  0  0  0  0
  -21.3820  -13.2750   22.3740 H   0  0  0  0  0  0  0  0  0  0  0  0
  -25.6920  -15.1170   20.2820 N   0  0  0  0  0  0  0  0  0  0  0  0
  -24.9690  -15.8120   20.4360 H   0  0  0  0  0  0  0  0  0  0  0  0
  -26.5550  -15.5140   19.9350 H   0  0  0  0  0  0  0  0  0  0  0  0
  1  4  1  0
  2  1  2  0
  3  4  2  0
  4 53  1  0
  5  3  1  0
  6  2  1  0
  6  5  2  0
  7  6  1  0
  8  7  1  0
  9  5  1  0
 10  9  1  0
 11 10  1  0
 12 11  1  0
 12 14  1  0
 13 24  2  0
 14 19  1  0
 15 23  1  0
 15 25  1  0
 16 22  1  0
 16 18  1  0
 17 23  1  0
 18 17  1  0
 19 18  2  0
 20 21  1  0
 20 14  2  0
 21 16  2  0
 22 15  1  0
 23 13  1  0
 25 27  2  0
 26 25  1  0
 28 26  1  0
 29 38  2  0
 29 34  1  0
 30 26  1  0
 30 34  1  0
 31 30  1  0
 32 33  1  0
 32 31  1  0
 33 29  1  0
 34 35  2  0
 35 36  1  0
 37 36  2  0
 38 37  1  0
 39 13  1  0
 39 44  1  0
 39 40  1  0
 40 43  1  1
 40 41  1  0
 42 40  1  0
 44 47  1  0
 45 44  1  0
 45 49  1  0
 46 45  2  0
 49 48  1  0
 49 51  1  0
 51 52  1  0
 51 50  1  0
 54 53  1  0
 55 54  1  0
 56 55  1  0
 57 56  1  0
 58 57  1  0
 59 58  1  0
 60 65  1  0
 61 62  1  0
 61 60  1  0
 63 62  1  0
 63 70  1  0
 63 64  1  0
 65 59  1  0
 65 64  1  0
 66 59  2  0
 67 68  2  0
 68 87  1  0
 69 68  1  0
 69 72  1  0
 70 71  1  0
 70 67  1  0
 71 69  2  0
 72 73  1  0
 73 74  2  0
 75 78  1  0
 75 74  1  0
 76 75  2  0
 77 76  1  0
 77 72  2  0
 78 79  1  0
 79 80  1  0
 80 81  2  0
 82 81  1  0
 82 86  1  0
 83 82  2  0
 84 79  2  0
 84 83  1  0
 85 84  1  0
 87 88  1  0
 88 91  1  0
 88 90  1  0
 89 87  2  0
 92 93  1  0
 92 67  1  0
 94 92  1  0
M  ISO  4  11 101  12 101  58 100  59 100
M  END
>  <TORSDO>  (47) 
F 26

>  <SCORE>  (47) 
-9.874

>  <name>  (47) 
46

>  <ligand_id>  (47) 
46

>  <original_smiles>  (47) 
[H]Oc1c([H])c([H])c(C([H])([H])C([H])([H])C([H])([H])C([H])([H])C([H])([H])C([H])([H])C(=O)N2C([H])([H])C([H])([H])C([H])([H])C([H])(n3nc(-c4c([H])c([H])c(Oc5c([H])c([H])c(F)c([H])c5F)c([H])c4[H])c(C(=O)N([H])[H])c3N([H])[H])C2([H])[H])c([H])c1C([H])([H])C([H])([H])C([H])([H])Oc1c([H])c([H])c2c(c1[H])C([H])([H])N(C(=O)C([H])(N([H])C(=O)C([H])(N([H])C([H])([H])[H])C([H])([H])[H])C(C([H])([H])[H])(C([H])([H])[H])C([H])([H])[H])C([H])(C(=O)N([H])C1([H])c3c([H])c([H])c([H])c([H])c3C([H])([H])C([H])([H])C1([H])[H])C2([H])[H]

>  <smiles>  (47) 
[H]Oc1c([H])c([H])c(C([H])([H])C([H])([H])C([H])([H])C([H])([H])C([H])([H])C([H])([H])C(=O)N2C([H])([H])C([H])([H])C([H])([H])C([H])(n3nc(-c4c([H])c([H])c(Oc5c([H])c([H])c(F)c([H])c5F)c([H])c4[H])c(C(=O)N([H])[H])c3N([H])[H])C2([H])[H])c([H])c1C([H])([H])C([H])([H])C([H])([H])Oc1c([H])c([H])c2c(c1[H])C([H])([H])N(C(=O)C([H])(N([H])C(=O)C([H])(N([H])C([H])([H])[H])C([H])([H])[H])C(C([H])([H])[H])(C([H])([H])[H])C([H])([H])[H])C([H])(C(=O)N([H])C1([H])c3c([H])c([H])c([H])c([H])c3C([H])([H])C([H])([H])C1([H])[H])C2([H])[H]

$$$$
47:0:0
     RDKit          3D

 90 97  0  0  1  0  0  0  0  0999 V2000
  -31.5730  -21.3730   20.2620 C   0  0  0  0  0  2  0  0  0  0  0  0
  -31.3710  -22.8650   20.5660 C   0  0  0  0  0  2  0  0  0  0  0  0
  -29.9530  -23.3560   20.2200 C   0  0  0  0  0  2  0  0  0  0  0  0
  -29.7770  -24.8630   20.4400 C   0  0  0  0  0  2  0  0  0  0  0  0
  -28.3990  -25.3780   20.0050 C   0  0  0  0  0  2  0  0  0  0  0  0
  -28.3970  -26.7850   20.2050 O   0  0  0  0  0  0  0  0  0  0  0  0
  -24.5690  -31.8880   23.2640 C   0  0  0  0  0  0  0  0  0  0  0  0
  -27.1960  -27.4530   20.1890 C   0  0  0  0  0  0  0  0  0  0  0  0
  -23.3500  -30.4890   21.6260 C   0  0  0  0  0  3  0  0  0  0  0  0
  -24.7940  -28.9420   20.2030 C   0  0  0  0  0  0  0  0  0  0  0  0
  -25.8740  -30.8440   21.4190 C   0  0  0  0  0  2  0  0  0  0  0  0
  -25.9510  -29.4720   20.7850 C   0  0  0  0  0  0  0  0  0  0  0  0
  -27.1530  -28.7360   20.7720 C   0  0  0  0  0  3  0  0  0  0  0  0
  -26.0190  -26.9250   19.6060 C   0  0  0  0  0  3  0  0  0  0  0  0
  -24.8220  -27.6670   19.6100 C   0  0  0  0  0  3  0  0  0  0  0  0
  -23.5510  -29.7990   20.2490 C   0  0  0  0  0  2  0  0  0  0  0  0
  -24.6160  -31.0880   22.1620 N   0  0  0  0  0  0  0  0  0  0  0  0
  -23.4910  -32.1660   23.8070 O   0  0  0  0  0  0  0  0  0  0  0  0
  -22.6980  -29.4730   22.5900 C   0  0  0  0  0  0  0  0  0  0  0  0
  -21.3750  -29.2910   22.4580 N   0  0  0  0  0  0  0  0  0  0  0  0
  -23.3800  -28.8490   23.4070 O   0  0  0  0  0  0  0  0  0  0  0  0
  -20.8890  -29.8430   21.7660 H   0  0  0  0  0  0  0  0  0  0  0  0
  -17.9990  -28.0990   22.9360 C   0  0  0  0  0  0  0  0  0  0  0  0
  -20.5530  -28.3580   23.2280 C   0  0  0  0  0  3  0  0  0  0  0  0
  -20.6620  -26.9240   22.6620 C   0  0  0  0  0  2  0  0  0  0  0  0
  -19.5690  -26.5950   21.6410 C   0  0  0  0  0  2  0  0  0  0  0  0
  -18.1820  -26.7450   22.2740 C   0  0  0  0  0  2  0  0  0  0  0  0
  -19.1140  -28.8640   23.3710 C   0  0  0  0  0  0  0  0  0  0  0  0
  -18.8930  -30.1320   23.9490 C   0  0  0  0  0  3  0  0  0  0  0  0
  -17.5880  -30.6370   24.1010 C   0  0  0  0  0  3  0  0  0  0  0  0
  -16.4860  -29.8700   23.6840 C   0  0  0  0  0  3  0  0  0  0  0  0
  -16.6930  -28.6030   23.1080 C   0  0  0  0  0  3  0  0  0  0  0  0
  -25.8620  -32.5100   23.8800 C   0  0  0  0  0  3  0  0  0  0  0  0
  -26.3770  -31.7370   25.1560 C   0  0  1  0  0  0  0  0  0  0  0  0
  -25.2850  -31.5110   26.2260 C   0  0  0  0  0  1  0  0  0  0  0  0
  -26.9490  -30.3550   24.7620 C   0  0  0  0  0  1  0  0  0  0  0  0
  -27.5360  -32.5240   25.8140 C   0  0  0  0  0  1  0  0  0  0  0  0
  -25.5640  -33.9100   24.2060 N   0  0  0  0  0  0  0  0  0  0  0  0
  -25.9050  -34.9570   23.4420 C   0  0  0  0  0  0  0  0  0  0  0  0
  -26.5740  -34.8460   22.4090 O   0  0  0  0  0  0  0  0  0  0  0  0
  -24.9720  -34.0730   25.0070 H   0  0  0  0  0  0  0  0  0  0  0  0
  -24.1830  -36.7530   23.0850 C   0  0  0  0  0  1  0  0  0  0  0  0
  -25.4260  -36.3490   23.8940 C   0  0  0  0  0  3  0  0  0  0  0  0
  -27.5680  -37.2250   24.7110 C   0  0  0  0  0  1  0  0  0  0  0  0
  -26.4630  -37.3960   23.7710 N   0  0  0  0  0  0  0  0  0  0  0  0
  -26.0620  -38.3180   23.9200 H   0  0  0  0  0  0  0  0  0  0  0  0
  -31.8410  -21.0940   18.7710 C   0  0  0  0  0  2  0  0  0  0  0  0
  -31.7320  -19.6070   18.3750 C   0  0  0  0  0  2  0  0  0  0  0  0
  -30.3290  -19.1980   17.9130 C   0  0  0  0  0  0  0  0  0  0  0  0
  -30.1190  -18.9360   16.7260 O   0  0  0  0  0  0  0  0  0  0  0  0
  -29.1870  -19.1340   18.9370 C   0  0  0  0  0  2  0  0  0  0  0  0
  -29.4450  -18.2120   20.1490 C   0  0  0  0  0  2  0  0  0  0  0  0
  -29.6200  -16.7290   19.7780 C   0  0  0  0  0  2  0  0  0  0  0  0
  -29.9150  -15.8100   20.9890 C   0  0  0  0  0  2  0  0  0  0  0  0
  -30.6590  -14.5420   20.5300 C   0  0  0  0  0  0  0  0  0  0  0  0
  -30.4030  -12.3790   19.4010 C   0  0  0  0  0  2  0  0  0  0  0  0
  -29.4780  -12.5940   18.1830 C   0  0  0  0  0  2  0  0  0  0  0  0
  -27.9970  -12.4620   18.5900 C   0  0  0  0  0  2  0  0  0  0  0  0
  -27.6390  -13.2930   19.8510 C   0  0  0  0  0  3  0  0  0  0  0  0
  -28.6790  -13.0540   20.9690 C   0  0  0  0  0  2  0  0  0  0  0  0
  -30.0100  -13.3550   20.4280 N   0  0  0  0  0  0  0  0  0  0  0  0
  -31.8060  -14.7060   20.1030 O   0  0  0  0  0  0  0  0  0  0  0  0
  -25.2210  -13.8920   20.5120 C   0  0  0  0  0  0  0  0  0  0  0  0
  -24.1510  -13.1150   20.8730 C   0  0  0  0  0  0  0  0  0  0  0  0
  -24.6240  -11.7670   20.8620 C   0  0  0  0  0  0  0  0  0  0  0  0
  -26.2780  -13.0170   20.3090 N   0  0  0  0  0  0  0  0  0  0  0  0
  -25.9190  -11.7350   20.5760 N   0  0  0  0  0  0  0  0  0  0  0  0
  -23.9060  -10.5010   21.0550 C   0  0  0  0  0  0  0  0  0  0  0  0
  -24.3420   -9.5390   21.9910 C   0  0  0  0  0  3  0  0  0  0  0  0
  -23.6270   -8.3360   22.1690 C   0  0  0  0  0  3  0  0  0  0  0  0
  -22.4590   -8.0860   21.4110 C   0  0  0  0  0  0  0  0  0  0  0  0
  -22.0400   -9.0370   20.4620 C   0  0  0  0  0  3  0  0  0  0  0  0
  -22.7570  -10.2320   20.2840 C   0  0  0  0  0  3  0  0  0  0  0  0
  -21.7130   -6.9350   21.4970 O   0  0  0  0  0  0  0  0  0  0  0  0
  -21.6780   -6.1860   22.6460 C   0  0  0  0  0  0  0  0  0  0  0  0
  -21.2700   -6.7350   23.8800 C   0  0  0  0  0  3  0  0  0  0  0  0
  -21.1830   -5.9110   25.0210 C   0  0  0  0  0  3  0  0  0  0  0  0
  -21.4910   -4.5420   24.9270 C   0  0  0  0  0  0  0  0  0  0  0  0
  -21.8890   -3.9930   23.6960 C   0  0  0  0  0  3  0  0  0  0  0  0
  -21.9790   -4.8120   22.5570 C   0  0  0  0  0  0  0  0  0  0  0  0
  -22.3460   -4.2730   21.3690 F   0  0  0  0  0  0  0  0  0  0  0  0
  -21.4000   -3.7490   26.0200 F   0  0  0  0  0  0  0  0  0  0  0  0
  -22.7450  -13.5840   21.1160 C   0  0  0  0  0  0  0  0  0  0  0  0
  -22.0060  -12.8900   21.9760 N   0  0  0  0  0  0  0  0  0  0  0  0
  -22.3070  -14.5990   20.5780 O   0  0  0  0  0  0  0  0  0  0  0  0
  -22.3690  -12.0710   22.4390 H   0  0  0  0  0  0  0  0  0  0  0  0
  -21.0610  -13.1860   22.1770 H   0  0  0  0  0  0  0  0  0  0  0  0
  -25.3760  -15.2620   20.3270 N   0  0  0  0  0  0  0  0  0  0  0  0
  -24.6020  -15.9100   20.4230 H   0  0  0  0  0  0  0  0  0  0  0  0
  -26.2360  -15.7110   20.0340 H   0  0  0  0  0  0  0  0  0  0  0  0
  1  2  1  0
  3  4  1  0
  3  2  1  0
  5  6  1  0
  5  4  1  0
  7 18  2  0
  8  6  1  0
  8 13  1  0
  9 17  1  0
  9 19  1  0
 10 16  1  0
 10 12  1  0
 11 17  1  0
 12 11  1  0
 13 12  2  0
 14 15  1  0
 14  8  2  0
 15 10  2  0
 16  9  1  0
 17  7  1  0
 19 21  2  0
 20 19  1  0
 22 20  1  0
 23 32  2  0
 23 28  1  0
 24 20  1  0
 24 28  1  0
 25 24  1  0
 26 27  1  0
 26 25  1  0
 27 23  1  0
 28 29  2  0
 29 30  1  0
 31 30  2  0
 32 31  1  0
 33  7  1  0
 33 38  1  0
 33 34  1  0
 34 37  1  1
 34 35  1  0
 36 34  1  0
 38 41  1  0
 39 43  1  0
 39 38  1  0
 40 39  2  0
 43 42  1  0
 45 43  1  0
 45 46  1  0
 45 44  1  0
 47  1  1  0
 48 47  1  0
 49 48  1  0
 49 51  1  0
 50 49  2  0
 51 52  1  0
 53 52  1  0
 53 54  1  0
 55 54  1  0
 56 61  1  0
 57 58  1  0
 57 56  1  0
 59 58  1  0
 59 66  1  0
 59 60  1  0
 61 55  1  0
 61 60  1  0
 62 55  2  0
 63 64  2  0
 64 83  1  0
 65 64  1  0
 65 68  1  0
 66 63  1  0
 66 67  1  0
 67 65  2  0
 68 69  1  0
 69 70  2  0
 71 74  1  0
 71 70  1  0
 72 71  2  0
 73 72  1  0
 73 68  2  0
 74 75  1  0
 75 76  1  0
 76 77  2  0
 78 77  1  0
 78 82  1  0
 79 78  2  0
 80 75  2  0
 80 79  1  0
 81 80  1  0
 83 84  1  0
 84 87  1  0
 84 86  1  0
 85 83  2  0
 88 89  1  0
 88 63  1  0
 90 88  1  0
M  ISO  4   5 101   6 101  54 100  55 100
M  END
>  <TORSDO>  (48) 
F 27

>  <SCORE>  (48) 
-11.627

>  <name>  (48) 
47

>  <ligand_id>  (48) 
47

>  <original_smiles>  (48) 
[H]c1c([H])c([H])c2c(c1[H])C([H])([H])C([H])([H])C([H])([H])C2([H])N([H])C(=O)C1([H])N(C(=O)C([H])(N([H])C(=O)C([H])(N([H])C([H])([H])[H])C([H])([H])[H])C(C([H])([H])[H])(C([H])([H])[H])C([H])([H])[H])C([H])([H])c2c([H])c(OC([H])([H])C([H])([H])C([H])([H])C([H])([H])C([H])([H])C([H])([H])C([H])([H])C(=O)C([H])([H])C([H])([H])C([H])([H])C([H])([H])C(=O)N3C([H])([H])C([H])([H])C([H])([H])C([H])(n4nc(-c5c([H])c([H])c(Oc6c([H])c([H])c(F)c([H])c6F)c([H])c5[H])c(C(=O)N([H])[H])c4N([H])[H])C3([H])[H])c([H])c([H])c2C1([H])[H]

>  <smiles>  (48) 
[H]c1c([H])c([H])c2c(c1[H])C([H])([H])C([H])([H])C([H])([H])C2([H])N([H])C(=O)C1([H])N(C(=O)C([H])(N([H])C(=O)C([H])(N([H])C([H])([H])[H])C([H])([H])[H])C(C([H])([H])[H])(C([H])([H])[H])C([H])([H])[H])C([H])([H])c2c([H])c(OC([H])([H])C([H])([H])C([H])([H])C([H])([H])C([H])([H])C([H])([H])C([H])([H])C(=O)C([H])([H])C([H])([H])C([H])([H])C([H])([H])C(=O)N3C([H])([H])C([H])([H])C([H])([H])C([H])(n4nc(-c5c([H])c([H])c(Oc6c([H])c([H])c(F)c([H])c6F)c([H])c5[H])c(C(=O)N([H])[H])c4N([H])[H])C3([H])[H])c([H])c([H])c2C1([H])[H]

$$$$
48:0:0
     RDKit          3D

 98107  0  0  1  0  0  0  0  0999 V2000
  -28.7530  -25.6320   26.0750 C   0  0  0  0  0  3  0  0  0  0  0  0
  -28.2180  -26.8050   25.5080 C   0  0  0  0  0  3  0  0  0  0  0  0
  -28.9030  -24.4730   25.2880 C   0  0  0  0  0  3  0  0  0  0  0  0
  -28.0280  -25.6670   23.3560 C   0  0  0  0  0  3  0  0  0  0  0  0
  -27.8450  -26.8200   24.1460 C   0  0  0  0  0  0  0  0  0  0  0  0
  -28.5380  -24.4750   23.9230 C   0  0  0  0  0  0  0  0  0  0  0  0
  -27.1510  -28.0290   23.5460 C   0  0  0  0  0  3  0  0  0  0  0  0
  -28.0940  -29.1340   22.9970 C   0  0  0  0  0  3  0  0  0  0  0  0
  -27.4610  -30.2580   22.3530 O   0  0  0  0  0  0  0  0  0  0  0  0
  -22.2010  -29.6560   27.0690 C   0  0  0  0  0  0  0  0  0  0  0  0
  -26.1200  -30.4080   22.5980 C   0  0  0  0  0  0  0  0  0  0  0  0
  -21.5160  -29.8140   24.6950 C   0  0  0  0  0  3  0  0  0  0  0  0
  -23.3440  -30.5120   23.0590 C   0  0  0  0  0  0  0  0  0  0  0  0
  -23.6660  -30.9260   25.5070 C   0  0  0  0  0  2  0  0  0  0  0  0
  -24.2350  -30.6960   24.1230 C   0  0  0  0  0  0  0  0  0  0  0  0
  -25.6260  -30.6550   23.8980 C   0  0  0  0  0  3  0  0  0  0  0  0
  -25.2190  -30.2450   21.5290 C   0  0  0  0  0  3  0  0  0  0  0  0
  -23.8280  -30.2880   21.7560 C   0  0  0  0  0  3  0  0  0  0  0  0
  -21.8720  -30.5790   23.3910 C   0  0  0  0  0  2  0  0  0  0  0  0
  -22.4760  -30.0960   25.8090 N   0  0  0  0  0  0  0  0  0  0  0  0
  -21.1450  -29.0610   27.3230 O   0  0  0  0  0  0  0  0  0  0  0  0
  -21.3860  -28.3100   24.3650 C   0  0  0  0  0  0  0  0  0  0  0  0
  -20.2240  -27.9190   23.8190 N   0  0  0  0  0  0  0  0  0  0  0  0
  -22.3210  -27.5330   24.5740 O   0  0  0  0  0  0  0  0  0  0  0  0
  -19.5100  -28.6200   23.6800 H   0  0  0  0  0  0  0  0  0  0  0  0
  -17.5950  -25.8890   22.3940 C   0  0  0  0  0  0  0  0  0  0  0  0
  -19.8840  -26.5610   23.3920 C   0  0  0  0  0  3  0  0  0  0  0  0
  -20.4700  -26.2580   21.9920 C   0  0  0  0  0  2  0  0  0  0  0  0
  -19.4900  -26.5550   20.8530 C   0  0  0  0  0  2  0  0  0  0  0  0
  -18.2100  -25.7260   21.0160 C   0  0  0  0  0  2  0  0  0  0  0  0
  -18.3780  -26.2970   23.5070 C   0  0  0  0  0  0  0  0  0  0  0  0
  -17.7510  -26.4690   24.7600 C   0  0  0  0  0  3  0  0  0  0  0  0
  -16.3730  -26.2330   24.9140 C   0  0  0  0  0  3  0  0  0  0  0  0
  -15.6050  -25.8120   23.8150 C   0  0  0  0  0  3  0  0  0  0  0  0
  -16.2160  -25.6400   22.5580 C   0  0  0  0  0  3  0  0  0  0  0  0
  -23.1870  -29.8990   28.2550 C   0  0  0  0  0  3  0  0  0  0  0  0
  -22.3870  -30.2420   29.4380 N   0  0  0  0  0  0  0  0  0  0  0  0
  -22.1890  -31.4920   29.8820 C   0  0  0  0  0  0  0  0  0  0  0  0
  -22.7330  -32.4770   29.3740 O   0  0  0  0  0  0  0  0  0  0  0  0
  -21.8690  -29.4890   29.8640 H   0  0  0  0  0  0  0  0  0  0  0  0
  -19.8580  -32.1360   30.5710 C   0  0  0  0  0  1  0  0  0  0  0  0
  -21.2360  -31.6790   31.0770 C   0  0  0  0  0  3  0  0  0  0  0  0
  -22.9160  -32.1480   32.8040 C   0  0  0  0  0  1  0  0  0  0  0  0
  -21.7390  -32.6350   32.0890 N   0  0  0  0  0  0  0  0  0  0  0  0
  -21.0210  -32.8490   32.7740 H   0  0  0  0  0  0  0  0  0  0  0  0
  -24.1160  -28.6570   28.5490 C   0  0  1  0  0  0  0  0  0  0  0  0
  -23.3410  -27.3270   28.7060 C   0  0  0  0  0  1  0  0  0  0  0  0
  -25.1480  -28.4710   27.4130 C   0  0  0  0  0  1  0  0  0  0  0  0
  -24.9290  -28.9000   29.8400 C   0  0  0  0  0  1  0  0  0  0  0  0
  -28.7080  -23.1830   23.1190 C   0  0  0  0  0  2  0  0  0  0  0  0
  -27.8330  -23.0220   21.8430 C   0  0  0  0  0  3  0  0  0  0  0  0
  -25.4210  -22.4270   21.1600 C   0  0  0  0  0  1  0  0  0  0  0  0
  -26.5870  -22.1550   22.1230 C   0  0  0  0  0  2  0  0  0  0  0  0
  -28.6590  -22.4630   20.6610 C   0  0  0  0  0  2  0  0  0  0  0  0
  -29.3960  -23.5640   19.8770 C   0  0  0  0  0  2  0  0  0  0  0  0
  -30.2000  -23.0170   18.6850 C   0  0  0  0  0  2  0  0  0  0  0  0
  -31.8490  -26.2930   14.3720 C   0  0  0  0  0  0  0  0  0  0  0  0
  -31.5850  -26.2970   11.9130 C   0  0  0  0  0  2  0  0  0  0  0  0
  -30.1170  -26.5450   11.5170 C   0  0  0  0  0  2  0  0  0  0  0  0
  -29.3240  -25.2230   11.4850 C   0  0  0  0  0  2  0  0  0  0  0  0
  -29.5280  -24.3850   12.7720 C   0  0  0  0  0  3  0  0  0  0  0  0
  -31.0260  -24.2610   13.1020 C   0  0  0  0  0  2  0  0  0  0  0  0
  -31.6020  -25.6140   13.2170 N   0  0  0  0  0  0  0  0  0  0  0  0
  -32.0990  -27.5060   14.3850 O   0  0  0  0  0  0  0  0  0  0  0  0
  -30.1810  -25.2750   17.4610 C   0  0  0  0  0  2  0  0  0  0  0  0
  -31.8030  -23.4690   16.7620 C   0  0  0  0  0  2  0  0  0  0  0  0
  -31.0350  -26.2800   16.6710 C   0  0  0  0  0  2  0  0  0  0  0  0
  -32.5700  -24.5410   15.9550 C   0  0  0  0  0  2  0  0  0  0  0  0
  -31.0330  -24.0860   17.9490 C   0  0  0  0  0  3  0  0  0  0  0  0
  -31.6540  -25.6090   15.5230 N   0  0  0  0  0  0  0  0  0  0  0  0
  -27.9450  -22.4820   13.4870 C   0  0  0  0  0  0  0  0  0  0  0  0
  -27.6430  -21.2800   12.9070 C   0  0  0  0  0  0  0  0  0  0  0  0
  -28.4410  -21.1990   11.7250 C   0  0  0  0  0  0  0  0  0  0  0  0
  -28.8930  -23.0730   12.6650 N   0  0  0  0  0  0  0  0  0  0  0  0
  -29.2270  -22.2640   11.6270 N   0  0  0  0  0  0  0  0  0  0  0  0
  -28.4640  -20.1970   10.6520 C   0  0  0  0  0  0  0  0  0  0  0  0
  -29.6740  -19.6170   10.2090 C   0  0  0  0  0  3  0  0  0  0  0  0
  -29.6660  -18.6420    9.1860 C   0  0  0  0  0  3  0  0  0  0  0  0
  -28.4440  -18.2360    8.6010 C   0  0  0  0  0  0  0  0  0  0  0  0
  -27.2460  -18.8350    9.0310 C   0  0  0  0  0  3  0  0  0  0  0  0
  -27.2550  -19.8070   10.0440 C   0  0  0  0  0  3  0  0  0  0  0  0
  -28.3430  -17.3170    7.5860 O   0  0  0  0  0  0  0  0  0  0  0  0
  -29.3000  -16.3540    7.3900 C   0  0  0  0  0  0  0  0  0  0  0  0
  -29.6770  -15.4590    8.4140 C   0  0  0  0  0  3  0  0  0  0  0  0
  -30.6140  -14.4390    8.1490 C   0  0  0  0  0  3  0  0  0  0  0  0
  -31.1660  -14.3080    6.8610 C   0  0  0  0  0  0  0  0  0  0  0  0
  -30.7870  -15.1950    5.8380 C   0  0  0  0  0  3  0  0  0  0  0  0
  -29.8540  -16.2130    6.1000 C   0  0  0  0  0  0  0  0  0  0  0  0
  -29.4760  -17.0510    5.1060 F   0  0  0  0  0  0  0  0  0  0  0  0
  -32.0600  -13.3240    6.6030 F   0  0  0  0  0  0  0  0  0  0  0  0
  -26.6040  -20.2980   13.3670 C   0  0  0  0  0  0  0  0  0  0  0  0
  -26.8180  -19.0130   13.1110 N   0  0  0  0  0  0  0  0  0  0  0  0
  -25.6150  -20.6650   14.0030 O   0  0  0  0  0  0  0  0  0  0  0  0
  -27.6390  -18.7110   12.6070 H   0  0  0  0  0  0  0  0  0  0  0  0
  -26.1510  -18.3200   13.4230 H   0  0  0  0  0  0  0  0  0  0  0  0
  -27.4810  -23.1300   14.6290 N   0  0  0  0  0  0  0  0  0  0  0  0
  -26.7570  -22.7360   15.2190 H   0  0  0  0  0  0  0  0  0  0  0  0
  -27.7920  -24.0420   14.9360 H   0  0  0  0  0  0  0  0  0  0  0  0
  2  1  1  0
  3  1  2  0
  4  6  2  0
  4  5  1  0
  5  2  2  0
  6  3  1  0
  7  5  1  0
  8  7  2  0
  9 11  1  0
  9  8  1  0
 10 21  2  0
 11 16  1  0
 12 22  1  0
 12 20  1  0
 13 19  1  0
 13 15  1  0
 14 20  1  0
 15 14  1  0
 16 15  2  0
 17 18  1  0
 17 11  2  0
 18 13  2  0
 19 12  1  0
 20 10  1  0
 22 24  2  0
 23 22  1  0
 25 23  1  0
 26 35  2  0
 26 31  1  0
 27 31  1  0
 27 23  1  0
 28 27  1  0
 29 30  1  0
 29 28  1  0
 30 26  1  0
 31 32  2  0
 32 33  1  0
 34 33  2  0
 35 34  1  0
 36 10  1  0
 36 46  1  0
 36 37  1  0
 37 40  1  0
 37 38  1  0
 38 42  1  0
 39 38  2  0
 42 41  1  0
 42 44  1  0
 44 45  1  0
 44 43  1  0
 46 47  1  1
 46 49  1  0
 48 46  1  0
 50  6  1  0
 51 54  1  0
 51 53  1  0
 51 50  1  0
 52 53  1  0
 55 54  1  0
 56 55  1  0
 57 64  2  0
 57 70  1  0
 58 63  1  0
 59 58  1  0
 60 59  1  0
 61 60  1  0
 61 62  1  0
 62 63  1  0
 63 57  1  0
 65 69  1  0
 66 69  1  0
 67 65  1  0
 68 66  1  0
 69 56  1  0
 70 68  1  0
 70 67  1  0
 71 96  1  0
 72 91  1  0
 72 71  2  0
 73 72  1  0
 74 61  1  0
 74 71  1  0
 75 73  2  0
 75 74  1  0
 76 73  1  0
 77 76  1  0
 78 77  2  0
 79 80  2  0
 79 78  1  0
 80 81  1  0
 81 76  2  0
 82 79  1  0
 83 82  1  0
 83 84  1  0
 85 84  2  0
 86 85  1  0
 87 88  1  0
 87 86  2  0
 88 83  2  0
 89 88  1  0
 90 86  1  0
 91 93  2  0
 92 91  1  0
 92 95  1  0
 94 92  1  0
 96 98  1  0
 96 97  1  0
M  ISO  4   8 101   9 101  57 100  70 100
M  END
>  <TORSDO>  (49) 
F 24

>  <SCORE>  (49) 
52.866

>  <name>  (49) 
48

>  <ligand_id>  (49) 
48

>  <original_smiles>  (49) 
[H]c1c([H])c([H])c2c(c1[H])C([H])([H])C([H])([H])C([H])([H])C2([H])N([H])C(=O)C1([H])N(C(=O)C([H])(N([H])C(=O)C([H])(N([H])C([H])([H])[H])C([H])([H])[H])C(C([H])([H])[H])(C([H])([H])[H])C([H])([H])[H])C([H])([H])c2c([H])c(OC([H])([H])C([H])([H])c3c([H])c([H])c([H])c(C([H])([H])C([H])(C([H])([H])C([H])([H])[H])C([H])([H])C([H])([H])C([H])([H])C4([H])C([H])([H])C([H])([H])N(C(=O)N5C([H])([H])C([H])([H])C([H])([H])C([H])(n6nc(-c7c([H])c([H])c(Oc8c([H])c([H])c(F)c([H])c8F)c([H])c7[H])c(C(=O)N([H])[H])c6N([H])[H])C5([H])[H])C([H])([H])C4([H])[H])c3[H])c([H])c([H])c2C1([H])[H]

>  <smiles>  (49) 
[H]c1c([H])c([H])c2c(c1[H])C([H])([H])C([H])([H])C([H])([H])C2([H])N([H])C(=O)C1([H])N(C(=O)C([H])(N([H])C(=O)C([H])(N([H])C([H])([H])[H])C([H])([H])[H])C(C([H])([H])[H])(C([H])([H])[H])C([H])([H])[H])C([H])([H])c2c([H])c(OC([H])([H])C([H])([H])c3c([H])c([H])c([H])c(C([H])([H])C([H])(C([H])([H])C([H])([H])[H])C([H])([H])C([H])([H])C([H])([H])C4([H])C([H])([H])C([H])([H])N(C(=O)N5C([H])([H])C([H])([H])C([H])([H])C([H])(n6nc(-c7c([H])c([H])c(Oc8c([H])c([H])c(F)c([H])c8F)c([H])c7[H])c(C(=O)N([H])[H])c6N([H])[H])C5([H])[H])C([H])([H])C4([H])[H])c3[H])c([H])c([H])c2C1([H])[H]

$$$$
49:0:0
     RDKit          3D

 91 98  0  0  1  0  0  0  0  0999 V2000
  -31.5100  -25.4250   21.6220 C   0  0  0  0  0  3  0  0  0  0  0  0
  -31.1910  -25.5540   22.9960 O   0  0  0  0  0  0  0  0  0  0  0  0
  -32.0030  -25.4670   23.4890 H   0  0  0  0  0  0  0  0  0  0  0  0
  -32.0450  -24.0060   21.3460 C   0  0  0  0  0  2  0  0  0  0  0  0
  -33.2430  -23.5140   22.1840 C   0  0  0  0  0  2  0  0  0  0  0  0
  -33.6240  -22.0610   21.8320 C   0  0  0  0  0  2  0  0  0  0  0  0
  -32.5940  -21.0460   22.3590 C   0  0  0  0  0  2  0  0  0  0  0  0
  -32.7970  -19.6110   21.8600 C   0  0  0  0  0  2  0  0  0  0  0  0
  -31.5840  -18.7450   22.2310 C   0  0  0  0  0  2  0  0  0  0  0  0
  -31.7460  -17.2710   21.8520 C   0  0  0  0  0  2  0  0  0  0  0  0
  -30.4830  -16.4530   22.1770 C   0  0  0  0  0  2  0  0  0  0  0  0
  -30.7010  -14.9290   22.1840 C   0  0  0  0  0  2  0  0  0  0  0  0
  -30.8260  -14.2840   20.7890 C   0  0  0  0  0  0  0  0  0  0  0  0
  -30.4080  -12.3090   19.3720 C   0  0  0  0  0  2  0  0  0  0  0  0
  -29.4700  -12.5540   18.1800 C   0  0  0  0  0  2  0  0  0  0  0  0
  -28.0030  -12.3740   18.6050 C   0  0  0  0  0  2  0  0  0  0  0  0
  -27.6610  -13.1980   19.8690 C   0  0  0  0  0  3  0  0  0  0  0  0
  -28.6940  -12.9500   20.9880 C   0  0  0  0  0  2  0  0  0  0  0  0
  -30.0430  -13.2240   20.4620 N   0  0  0  0  0  0  0  0  0  0  0  0
  -31.7520  -14.6630   20.0630 O   0  0  0  0  0  0  0  0  0  0  0  0
  -25.2580  -13.8150   20.5660 C   0  0  0  0  0  0  0  0  0  0  0  0
  -24.1830  -13.0440   20.9160 C   0  0  0  0  0  0  0  0  0  0  0  0
  -24.6370  -11.6900   20.8720 C   0  0  0  0  0  0  0  0  0  0  0  0
  -26.3000  -12.9310   20.3310 N   0  0  0  0  0  0  0  0  0  0  0  0
  -25.9280  -11.6460   20.5710 N   0  0  0  0  0  0  0  0  0  0  0  0
  -23.9040  -10.4290   21.0400 C   0  0  0  0  0  0  0  0  0  0  0  0
  -24.3600   -9.4210   21.9190 C   0  0  0  0  0  3  0  0  0  0  0  0
  -23.6280   -8.2240   22.0750 C   0  0  0  0  0  3  0  0  0  0  0  0
  -22.4260   -8.0270   21.3540 C   0  0  0  0  0  0  0  0  0  0  0  0
  -21.9890   -9.0250   20.4640 C   0  0  0  0  0  3  0  0  0  0  0  0
  -22.7210  -10.2130   20.3050 C   0  0  0  0  0  3  0  0  0  0  0  0
  -21.6630   -6.8870   21.4230 O   0  0  0  0  0  0  0  0  0  0  0  0
  -21.6850   -6.0740   22.5280 C   0  0  0  0  0  0  0  0  0  0  0  0
  -21.4010   -6.5640   23.8210 C   0  0  0  0  0  3  0  0  0  0  0  0
  -21.3660   -5.6790   24.9180 C   0  0  0  0  0  3  0  0  0  0  0  0
  -21.6050   -4.3050   24.7230 C   0  0  0  0  0  0  0  0  0  0  0  0
  -21.8820   -3.8140   23.4340 C   0  0  0  0  0  3  0  0  0  0  0  0
  -21.9190   -4.6970   22.3400 C   0  0  0  0  0  0  0  0  0  0  0  0
  -22.1660   -4.2150   21.0980 F   0  0  0  0  0  0  0  0  0  0  0  0
  -21.5630   -3.4530   25.7740 F   0  0  0  0  0  0  0  0  0  0  0  0
  -22.7860  -13.5240   21.1850 C   0  0  0  0  0  0  0  0  0  0  0  0
  -22.0490  -12.8240   22.0410 N   0  0  0  0  0  0  0  0  0  0  0  0
  -22.3540  -14.5560   20.6710 O   0  0  0  0  0  0  0  0  0  0  0  0
  -22.4070  -11.9880   22.4790 H   0  0  0  0  0  0  0  0  0  0  0  0
  -21.1110  -13.1280   22.2610 H   0  0  0  0  0  0  0  0  0  0  0  0
  -25.4330  -15.1870   20.4070 N   0  0  0  0  0  0  0  0  0  0  0  0
  -24.6710  -15.8480   20.5120 H   0  0  0  0  0  0  0  0  0  0  0  0
  -26.2990  -15.6210   20.1130 H   0  0  0  0  0  0  0  0  0  0  0  0
  -30.2320  -25.5950   20.7790 C   0  0  0  0  0  2  0  0  0  0  0  0
  -29.4910  -26.9360   20.8350 C   0  0  0  0  0  2  0  0  0  0  0  0
  -28.3750  -26.7090   19.9830 O   0  0  0  0  0  0  0  0  0  0  0  0
  -24.6090  -31.8730   23.2120 C   0  0  0  0  0  0  0  0  0  0  0  0
  -27.2500  -27.4880   20.0880 C   0  0  0  0  0  0  0  0  0  0  0  0
  -23.3950  -30.4940   21.5530 C   0  0  0  0  0  3  0  0  0  0  0  0
  -24.8460  -28.9660   20.1200 C   0  0  0  0  0  0  0  0  0  0  0  0
  -25.9170  -30.8560   21.3550 C   0  0  0  0  0  2  0  0  0  0  0  0
  -26.0010  -29.4880   20.7160 C   0  0  0  0  0  0  0  0  0  0  0  0
  -27.2070  -28.7550   20.7090 C   0  0  0  0  0  3  0  0  0  0  0  0
  -26.0800  -26.9710   19.4960 C   0  0  0  0  0  3  0  0  0  0  0  0
  -24.8770  -27.6990   19.5120 C   0  0  0  0  0  3  0  0  0  0  0  0
  -23.6030  -29.8250   20.1680 C   0  0  0  0  0  2  0  0  0  0  0  0
  -24.6590  -31.0860   22.1010 N   0  0  0  0  0  0  0  0  0  0  0  0
  -23.5300  -32.1460   23.7550 O   0  0  0  0  0  0  0  0  0  0  0  0
  -22.7390  -29.4660   22.5020 C   0  0  0  0  0  0  0  0  0  0  0  0
  -21.4130  -29.3020   22.3760 N   0  0  0  0  0  0  0  0  0  0  0  0
  -23.4180  -28.8210   23.3050 O   0  0  0  0  0  0  0  0  0  0  0  0
  -20.9280  -29.8770   21.7010 H   0  0  0  0  0  0  0  0  0  0  0  0
  -18.0270  -28.1380   22.8490 C   0  0  0  0  0  0  0  0  0  0  0  0
  -20.5860  -28.3650   23.1330 C   0  0  0  0  0  3  0  0  0  0  0  0
  -20.6750  -26.9390   22.5420 C   0  0  0  0  0  2  0  0  0  0  0  0
  -19.5730  -26.6390   21.5200 C   0  0  0  0  0  2  0  0  0  0  0  0
  -18.1910  -26.7930   22.1600 C   0  0  0  0  0  2  0  0  0  0  0  0
  -19.1520  -28.8830   23.2900 C   0  0  0  0  0  0  0  0  0  0  0  0
  -18.9460  -30.1430   23.8910 C   0  0  0  0  0  3  0  0  0  0  0  0
  -17.6480  -30.6590   24.0560 C   0  0  0  0  0  3  0  0  0  0  0  0
  -16.5360  -29.9100   23.6320 C   0  0  0  0  0  3  0  0  0  0  0  0
  -16.7260  -28.6520   23.0330 C   0  0  0  0  0  3  0  0  0  0  0  0
  -25.9010  -32.4860   23.8400 C   0  0  0  0  0  3  0  0  0  0  0  0
  -26.4450  -31.6630   25.0700 C   0  0  1  0  0  0  0  0  0  0  0  0
  -25.3720  -31.3750   26.1460 C   0  0  0  0  0  1  0  0  0  0  0  0
  -27.0250  -30.3070   24.6020 C   0  0  0  0  0  1  0  0  0  0  0  0
  -27.6030  -32.4340   25.7470 C   0  0  0  0  0  1  0  0  0  0  0  0
  -25.5880  -33.8650   24.2330 N   0  0  0  0  0  0  0  0  0  0  0  0
  -25.9040  -34.9500   23.5130 C   0  0  0  0  0  0  0  0  0  0  0  0
  -26.5600  -34.8930   22.4680 O   0  0  0  0  0  0  0  0  0  0  0  0
  -25.0020  -33.9810   25.0460 H   0  0  0  0  0  0  0  0  0  0  0  0
  -24.1490  -36.7330   23.2630 C   0  0  0  0  0  1  0  0  0  0  0  0
  -25.4100  -36.3130   24.0340 C   0  0  0  0  0  3  0  0  0  0  0  0
  -27.5590  -37.1820   24.8460 C   0  0  0  0  0  1  0  0  0  0  0  0
  -26.4290  -37.3810   23.9420 N   0  0  0  0  0  0  0  0  0  0  0  0
  -26.0170  -38.2890   24.1420 H   0  0  0  0  0  0  0  0  0  0  0  0
  1 49  1  0
  1  2  1  0
  2  3  1  0
  4  1  1  0
  4  5  1  0
  6  5  1  0
  6  7  1  0
  8  9  1  0
  8  7  1  0
 10 11  1  0
 10  9  1  0
 11 12  1  0
 13 12  1  0
 14 19  1  0
 15 16  1  0
 15 14  1  0
 17 16  1  0
 17 24  1  0
 17 18  1  0
 19 13  1  0
 19 18  1  0
 20 13  2  0
 21 22  2  0
 22 41  1  0
 23 22  1  0
 23 26  1  0
 24 21  1  0
 24 25  1  0
 25 23  2  0
 26 27  1  0
 27 28  2  0
 29 32  1  0
 29 28  1  0
 30 29  2  0
 31 30  1  0
 31 26  2  0
 32 33  1  0
 33 34  1  0
 34 35  2  0
 36 35  1  0
 36 40  1  0
 37 36  2  0
 38 33  2  0
 38 37  1  0
 39 38  1  0
 41 42  1  0
 42 45  1  0
 42 44  1  0
 43 41  2  0
 46 47  1  0
 46 21  1  0
 48 46  1  0
 49 50  1  0
 51 53  1  0
 51 50  1  0
 52 63  2  0
 53 58  1  0
 54 62  1  0
 54 64  1  0
 55 61  1  0
 55 57  1  0
 56 62  1  0
 57 56  1  0
 58 57  2  0
 59 60  1  0
 59 53  2  0
 60 55  2  0
 61 54  1  0
 62 52  1  0
 64 66  2  0
 65 64  1  0
 67 65  1  0
 68 77  2  0
 68 73  1  0
 69 65  1  0
 69 73  1  0
 70 69  1  0
 71 72  1  0
 71 70  1  0
 72 68  1  0
 73 74  2  0
 74 75  1  0
 76 75  2  0
 77 76  1  0
 78 52  1  0
 78 83  1  0
 78 79  1  0
 79 82  1  1
 79 80  1  0
 81 79  1  0
 83 86  1  0
 84 88  1  0
 84 83  1  0
 85 84  2  0
 88 87  1  0
 90 88  1  0
 90 91  1  0
 90 89  1  0
M  ISO  4  12 100  13 100  50 101  51 101
M  END
>  <TORSDO>  (50) 
F 28

>  <SCORE>  (50) 
-4.218

>  <name>  (50) 
49

>  <ligand_id>  (50) 
49

>  <original_smiles>  (50) 
[H]OC([H])(C([H])([H])C([H])([H])Oc1c([H])c([H])c2c(c1[H])C([H])([H])N(C(=O)C([H])(N([H])C(=O)C([H])(N([H])C([H])([H])[H])C([H])([H])[H])C(C([H])([H])[H])(C([H])([H])[H])C([H])([H])[H])C([H])(C(=O)N([H])C1([H])c3c([H])c([H])c([H])c([H])c3C([H])([H])C([H])([H])C1([H])[H])C2([H])[H])C([H])([H])C([H])([H])C([H])([H])C([H])([H])C([H])([H])C([H])([H])C([H])([H])C([H])([H])C([H])([H])C(=O)N1C([H])([H])C([H])([H])C([H])([H])C([H])(n2nc(-c3c([H])c([H])c(Oc4c([H])c([H])c(F)c([H])c4F)c([H])c3[H])c(C(=O)N([H])[H])c2N([H])[H])C1([H])[H]

>  <smiles>  (50) 
[H]OC([H])(C([H])([H])C([H])([H])Oc1c([H])c([H])c2c(c1[H])C([H])([H])N(C(=O)C([H])(N([H])C(=O)C([H])(N([H])C([H])([H])[H])C([H])([H])[H])C(C([H])([H])[H])(C([H])([H])[H])C([H])([H])[H])C([H])(C(=O)N([H])C1([H])c3c([H])c([H])c([H])c([H])c3C([H])([H])C([H])([H])C1([H])[H])C2([H])[H])C([H])([H])C([H])([H])C([H])([H])C([H])([H])C([H])([H])C([H])([H])C([H])([H])C([H])([H])C([H])([H])C(=O)N1C([H])([H])C([H])([H])C([H])([H])C([H])(n2nc(-c3c([H])c([H])c(Oc4c([H])c([H])c(F)c([H])c4F)c([H])c3[H])c(C(=O)N([H])[H])c2N([H])[H])C1([H])[H]

$$$$
50:0:0
     RDKit          3D

 90 97  0  0  1  0  0  0  0  0999 V2000
  -29.3290  -23.3200   21.1010 N   0  0  0  0  0  4  0  0  0  0  0  0
  -29.4590  -23.1770   22.0920 H   0  0  0  0  0  0  0  0  0  0  0  0
  -28.3670  -23.1050   20.9030 H   0  0  0  0  0  0  0  0  0  0  0  0
  -30.1670  -22.3330   20.3850 C   0  0  0  0  0  2  0  0  0  0  0  0
  -29.3810  -21.0380   20.0790 C   0  0  0  0  0  2  0  0  0  0  0  0
  -29.0720  -20.1340   21.2970 C   0  0  0  0  0  2  0  0  0  0  0  0
  -30.1360  -19.0590   21.5940 C   0  0  0  0  0  2  0  0  0  0  0  0
  -29.8630  -17.7070   20.9020 C   0  0  0  0  0  2  0  0  0  0  0  0
  -30.9370  -16.6490   21.2180 C   0  0  0  0  0  2  0  0  0  0  0  0
  -31.0100  -14.3820   20.1160 C   0  0  0  0  0  0  0  0  0  0  0  0
  -30.6300  -12.2350   18.9580 C   0  0  0  0  0  2  0  0  0  0  0  0
  -29.6590  -12.4560   17.7810 C   0  0  0  0  0  2  0  0  0  0  0  0
  -28.2000  -12.3210   18.2530 C   0  0  0  0  0  2  0  0  0  0  0  0
  -27.9050  -13.2000   19.4980 C   0  0  0  0  0  3  0  0  0  0  0  0
  -28.9720  -12.9750   20.5890 C   0  0  0  0  0  2  0  0  0  0  0  0
  -30.3010  -13.2290   19.9940 N   0  0  0  0  0  0  0  0  0  0  0  0
  -32.0610  -14.5990   19.5040 O   0  0  0  0  0  0  0  0  0  0  0  0
  -30.4580  -15.2970   20.9230 N   0  0  0  0  0  0  0  0  0  0  0  0
  -29.6070  -15.0150   21.3810 H   0  0  0  0  0  0  0  0  0  0  0  0
  -25.5340  -13.8880   20.2380 C   0  0  0  0  0  0  0  0  0  0  0  0
  -24.4540  -13.1520   20.6450 C   0  0  0  0  0  0  0  0  0  0  0  0
  -24.8810  -11.7890   20.6340 C   0  0  0  0  0  0  0  0  0  0  0  0
  -26.5550  -12.9750   20.0070 N   0  0  0  0  0  0  0  0  0  0  0  0
  -26.1630  -11.7070   20.3020 N   0  0  0  0  0  0  0  0  0  0  0  0
  -24.1290  -10.5490   20.8690 C   0  0  0  0  0  0  0  0  0  0  0  0
  -24.5520   -9.5970   21.8240 C   0  0  0  0  0  3  0  0  0  0  0  0
  -23.8030   -8.4190   22.0400 C   0  0  0  0  0  3  0  0  0  0  0  0
  -22.6210   -8.1850   21.3000 C   0  0  0  0  0  0  0  0  0  0  0  0
  -22.2180   -9.1230   20.3340 C   0  0  0  0  0  3  0  0  0  0  0  0
  -22.9650  -10.2900   20.1160 C   0  0  0  0  0  3  0  0  0  0  0  0
  -21.8430   -7.0580   21.4250 O   0  0  0  0  0  0  0  0  0  0  0  0
  -21.7760   -6.3590   22.6040 C   0  0  0  0  0  0  0  0  0  0  0  0
  -21.3680   -6.9690   23.8100 C   0  0  0  0  0  3  0  0  0  0  0  0
  -21.2430   -6.1970   24.9830 C   0  0  0  0  0  3  0  0  0  0  0  0
  -21.5190   -4.8160   24.9500 C   0  0  0  0  0  0  0  0  0  0  0  0
  -21.9180   -4.2060   23.7490 C   0  0  0  0  0  3  0  0  0  0  0  0
  -22.0430   -4.9750   22.5790 C   0  0  0  0  0  0  0  0  0  0  0  0
  -22.4110   -4.3770   21.4190 F   0  0  0  0  0  0  0  0  0  0  0  0
  -21.3910   -4.0740   26.0750 F   0  0  0  0  0  0  0  0  0  0  0  0
  -23.0770  -13.6680   20.9430 C   0  0  0  0  0  0  0  0  0  0  0  0
  -22.3570  -13.0080   21.8430 N   0  0  0  0  0  0  0  0  0  0  0  0
  -22.6490  -14.6910   20.4110 O   0  0  0  0  0  0  0  0  0  0  0  0
  -22.7170  -12.1790   22.2930 H   0  0  0  0  0  0  0  0  0  0  0  0
  -21.4320  -13.3330   22.0900 H   0  0  0  0  0  0  0  0  0  0  0  0
  -25.7350  -15.2500   20.0290 N   0  0  0  0  0  0  0  0  0  0  0  0
  -24.9960  -15.9380   20.1220 H   0  0  0  0  0  0  0  0  0  0  0  0
  -26.6060  -15.6480   19.6980 H   0  0  0  0  0  0  0  0  0  0  0  0
  -29.5590  -24.7530   20.7800 C   0  0  0  0  0  2  0  0  0  0  0  0
  -28.2890  -25.3970   20.2060 C   0  0  0  0  0  2  0  0  0  0  0  0
  -28.4080  -26.8210   20.1940 O   0  0  0  0  0  0  0  0  0  0  0  0
  -24.5540  -31.9390   23.2550 C   0  0  0  0  0  0  0  0  0  0  0  0
  -27.2200  -27.5190   20.1750 C   0  0  0  0  0  0  0  0  0  0  0  0
  -23.3510  -30.5250   21.6200 C   0  0  0  0  0  3  0  0  0  0  0  0
  -24.8120  -28.9950   20.1960 C   0  0  0  0  0  0  0  0  0  0  0  0
  -25.8740  -30.9000   21.4190 C   0  0  0  0  0  2  0  0  0  0  0  0
  -25.9660  -29.5320   20.7780 C   0  0  0  0  0  0  0  0  0  0  0  0
  -27.1700  -28.8000   20.7650 C   0  0  0  0  0  3  0  0  0  0  0  0
  -26.0440  -26.9950   19.5830 C   0  0  0  0  0  3  0  0  0  0  0  0
  -24.8410  -27.7270   19.5960 C   0  0  0  0  0  3  0  0  0  0  0  0
  -23.5630  -29.8460   20.2420 C   0  0  0  0  0  2  0  0  0  0  0  0
  -24.6110  -31.1350   22.1570 N   0  0  0  0  0  0  0  0  0  0  0  0
  -23.4710  -32.2100   23.7930 O   0  0  0  0  0  0  0  0  0  0  0  0
  -22.7100  -29.5000   22.5830 C   0  0  0  0  0  0  0  0  0  0  0  0
  -21.3860  -29.3120   22.4610 N   0  0  0  0  0  0  0  0  0  0  0  0
  -23.3990  -28.8790   23.3970 O   0  0  0  0  0  0  0  0  0  0  0  0
  -20.8910  -29.8650   21.7750 H   0  0  0  0  0  0  0  0  0  0  0  0
  -18.0200  -28.1080   22.9550 C   0  0  0  0  0  0  0  0  0  0  0  0
  -20.5760  -28.3770   23.2360 C   0  0  0  0  0  3  0  0  0  0  0  0
  -20.6860  -26.9430   22.6710 C   0  0  0  0  0  2  0  0  0  0  0  0
  -19.5920  -26.6120   21.6510 C   0  0  0  0  0  2  0  0  0  0  0  0
  -18.2040  -26.7580   22.2830 C   0  0  0  0  0  2  0  0  0  0  0  0
  -19.1350  -28.8740   23.3880 C   0  0  0  0  0  0  0  0  0  0  0  0
  -18.9110  -30.1400   23.9750 C   0  0  0  0  0  3  0  0  0  0  0  0
  -17.6050  -30.6380   24.1320 C   0  0  0  0  0  3  0  0  0  0  0  0
  -16.5050  -29.8700   23.7170 C   0  0  0  0  0  3  0  0  0  0  0  0
  -16.7130  -28.6060   23.1340 C   0  0  0  0  0  3  0  0  0  0  0  0
  -25.8380  -32.5780   23.8690 C   0  0  0  0  0  3  0  0  0  0  0  0
  -26.3680  -31.8110   25.1430 C   0  0  1  0  0  0  0  0  0  0  0  0
  -25.2810  -31.5690   26.2150 C   0  0  0  0  0  1  0  0  0  0  0  0
  -26.9580  -30.4370   24.7480 C   0  0  0  0  0  1  0  0  0  0  0  0
  -27.5160  -32.6150   25.7970 C   0  0  0  0  0  1  0  0  0  0  0  0
  -25.5230  -33.9760   24.1940 N   0  0  0  0  0  0  0  0  0  0  0  0
  -25.8600  -35.0270   23.4360 C   0  0  0  0  0  0  0  0  0  0  0  0
  -26.5360  -34.9220   22.4090 O   0  0  0  0  0  0  0  0  0  0  0  0
  -24.9210  -34.1310   24.9900 H   0  0  0  0  0  0  0  0  0  0  0  0
  -24.1300  -36.8150   23.0590 C   0  0  0  0  0  1  0  0  0  0  0  0
  -25.3620  -36.4120   23.8860 C   0  0  0  0  0  3  0  0  0  0  0  0
  -27.4860  -37.3020   24.7400 C   0  0  0  0  0  1  0  0  0  0  0  0
  -26.3930  -37.4690   23.7860 N   0  0  0  0  0  0  0  0  0  0  0  0
  -25.9850  -38.3880   23.9260 H   0  0  0  0  0  0  0  0  0  0  0  0
  1  2  1  0
  3  1  1  0
  4  1  1  0
  5  4  1  0
  5  6  1  0
  6  7  1  0
  8  9  1  0
  8  7  1  0
 10 18  1  0
 11 16  1  0
 12 13  1  0
 12 11  1  0
 14 13  1  0
 14 23  1  0
 14 15  1  0
 16 10  1  0
 16 15  1  0
 17 10  2  0
 18  9  1  0
 18 19  1  0
 20 21  2  0
 21 40  1  0
 22 21  1  0
 22 25  1  0
 23 20  1  0
 23 24  1  0
 24 22  2  0
 25 26  1  0
 26 27  2  0
 28 31  1  0
 28 27  1  0
 29 28  2  0
 30 29  1  0
 30 25  2  0
 31 32  1  0
 32 33  1  0
 33 34  2  0
 35 34  1  0
 35 39  1  0
 36 35  2  0
 37 32  2  0
 37 36  1  0
 38 37  1  0
 40 41  1  0
 41 44  1  0
 41 43  1  0
 42 40  2  0
 45 46  1  0
 45 20  1  0
 47 45  1  0
 48  1  1  0
 49 48  1  0
 50 49  1  0
 51 62  2  0
 52 50  1  0
 52 57  1  0
 53 61  1  0
 53 63  1  0
 54 60  1  0
 54 56  1  0
 55 61  1  0
 56 55  1  0
 57 56  2  0
 58 59  1  0
 58 52  2  0
 59 54  2  0
 60 53  1  0
 61 51  1  0
 63 65  2  0
 64 63  1  0
 66 64  1  0
 67 76  2  0
 67 72  1  0
 68 64  1  0
 68 72  1  0
 69 68  1  0
 70 71  1  0
 70 69  1  0
 71 67  1  0
 72 73  2  0
 73 74  1  0
 75 74  2  0
 76 75  1  0
 77 51  1  0
 77 82  1  0
 77 78  1  0
 78 81  1  1
 78 79  1  0
 80 78  1  0
 82 85  1  0
 83 87  1  0
 83 82  1  0
 84 83  2  0
 87 86  1  0
 89 87  1  0
 89 90  1  0
 89 88  1  0
M  ISO  4  10 100  18 100  49 101  50 101
M  END
>  <TORSDO>  (51) 
F 24

>  <SCORE>  (51) 
-11.828

>  <name>  (51) 
50

>  <ligand_id>  (51) 
50

>  <original_smiles>  (51) 
[H]c1c([H])c([H])c2c(c1[H])C([H])([H])C([H])([H])C([H])([H])C2([H])N([H])C(=O)C1([H])N(C(=O)C([H])(N([H])C(=O)C([H])(N([H])C([H])([H])[H])C([H])([H])[H])C(C([H])([H])[H])(C([H])([H])[H])C([H])([H])[H])C([H])([H])c2c([H])c(OC([H])([H])C([H])([H])[N+]([H])([H])C([H])([H])C([H])([H])C([H])([H])C([H])([H])C([H])([H])C([H])([H])N([H])C(=O)N3C([H])([H])C([H])([H])C([H])([H])C([H])(n4nc(-c5c([H])c([H])c(Oc6c([H])c([H])c(F)c([H])c6F)c([H])c5[H])c(C(=O)N([H])[H])c4N([H])[H])C3([H])[H])c([H])c([H])c2C1([H])[H]

>  <smiles>  (51) 
[H]c1c([H])c([H])c2c(c1[H])C([H])([H])C([H])([H])C([H])([H])C2([H])N([H])C(=O)C1([H])N(C(=O)C([H])(N([H])C(=O)C([H])(N([H])C([H])([H])[H])C([H])([H])[H])C(C([H])([H])[H])(C([H])([H])[H])C([H])([H])[H])C([H])([H])c2c([H])c(OC([H])([H])C([H])([H])[N+]([H])([H])C([H])([H])C([H])([H])C([H])([H])C([H])([H])C([H])([H])C([H])([H])N([H])C(=O)N3C([H])([H])C([H])([H])C([H])([H])C([H])(n4nc(-c5c([H])c([H])c(Oc6c([H])c([H])c(F)c([H])c6F)c([H])c5[H])c(C(=O)N([H])[H])c4N([H])[H])C3([H])[H])c([H])c([H])c2C1([H])[H]

$$$$
51:0:0
     RDKit          3D

 93101  0  0  1  0  0  0  0  0999 V2000
  -29.1510  -22.6840   18.1700 N   0  0  0  0  0  4  0  0  0  0  0  0
  -28.2230  -22.3940   17.9130 H   0  0  0  0  0  0  0  0  0  0  0  0
  -29.7950  -22.1090   17.6550 H   0  0  0  0  0  0  0  0  0  0  0  0
  -29.5060  -24.2610   16.2720 C   0  0  0  0  0  1  0  0  0  0  0  0
  -29.3980  -24.0980   17.8000 C   0  0  0  0  0  3  0  0  0  0  0  0
  -28.3150  -25.0230   18.3890 C   0  0  0  0  0  2  0  0  0  0  0  0
  -28.8090  -26.4400   18.7180 C   0  0  0  0  0  2  0  0  0  0  0  0
  -28.4100  -26.8210   20.0340 O   0  0  0  0  0  0  0  0  0  0  0  0
  -24.5870  -31.8820   23.2290 C   0  0  0  0  0  0  0  0  0  0  0  0
  -27.2100  -27.4790   20.1080 C   0  0  0  0  0  0  0  0  0  0  0  0
  -23.3690  -30.4840   21.5920 C   0  0  0  0  0  3  0  0  0  0  0  0
  -24.8090  -28.9500   20.1640 C   0  0  0  0  0  0  0  0  0  0  0  0
  -25.8900  -30.8450   21.3800 C   0  0  0  0  0  2  0  0  0  0  0  0
  -25.9670  -29.4740   20.7500 C   0  0  0  0  0  0  0  0  0  0  0  0
  -27.1700  -28.7380   20.7370 C   0  0  0  0  0  3  0  0  0  0  0  0
  -26.0270  -26.9430   19.5550 C   0  0  0  0  0  3  0  0  0  0  0  0
  -24.8280  -27.6750   19.5740 C   0  0  0  0  0  3  0  0  0  0  0  0
  -23.5700  -29.8110   20.2100 C   0  0  0  0  0  2  0  0  0  0  0  0
  -24.6340  -31.0850   22.1260 N   0  0  0  0  0  0  0  0  0  0  0  0
  -23.5080  -32.1530   23.7740 O   0  0  0  0  0  0  0  0  0  0  0  0
  -22.7260  -29.4570   22.5520 C   0  0  0  0  0  0  0  0  0  0  0  0
  -21.4010  -29.2750   22.4280 N   0  0  0  0  0  0  0  0  0  0  0  0
  -23.4130  -28.8280   23.3610 O   0  0  0  0  0  0  0  0  0  0  0  0
  -20.9090  -29.8390   21.7500 H   0  0  0  0  0  0  0  0  0  0  0  0
  -18.0280  -28.0830   22.9240 C   0  0  0  0  0  0  0  0  0  0  0  0
  -20.5840  -28.3400   23.2010 C   0  0  0  0  0  3  0  0  0  0  0  0
  -20.6870  -26.9070   22.6280 C   0  0  0  0  0  2  0  0  0  0  0  0
  -19.5860  -26.5820   21.6120 C   0  0  0  0  0  2  0  0  0  0  0  0
  -18.2040  -26.7300   22.2560 C   0  0  0  0  0  2  0  0  0  0  0  0
  -19.1450  -28.8460   23.3540 C   0  0  0  0  0  0  0  0  0  0  0  0
  -18.9260  -30.1130   23.9380 C   0  0  0  0  0  3  0  0  0  0  0  0
  -17.6210  -30.6150   24.1000 C   0  0  0  0  0  3  0  0  0  0  0  0
  -16.5170  -29.8490   23.6850 C   0  0  0  0  0  3  0  0  0  0  0  0
  -16.7220  -28.5850   23.1030 C   0  0  0  0  0  3  0  0  0  0  0  0
  -25.8780  -32.5080   23.8410 C   0  0  0  0  0  3  0  0  0  0  0  0
  -25.5710  -33.9050   24.1740 N   0  0  0  0  0  0  0  0  0  0  0  0
  -25.9040  -34.9580   23.4140 C   0  0  0  0  0  0  0  0  0  0  0  0
  -26.5730  -34.8550   22.3820 O   0  0  0  0  0  0  0  0  0  0  0  0
  -24.9770  -34.0590   24.9760 H   0  0  0  0  0  0  0  0  0  0  0  0
  -24.1780  -36.7520   23.0620 C   0  0  0  0  0  1  0  0  0  0  0  0
  -25.4190  -36.3460   23.8730 C   0  0  0  0  0  3  0  0  0  0  0  0
  -27.5590  -37.2230   24.6980 C   0  0  0  0  0  1  0  0  0  0  0  0
  -26.4520  -37.3970   23.7600 N   0  0  0  0  0  0  0  0  0  0  0  0
  -26.0490  -38.3180   23.9130 H   0  0  0  0  0  0  0  0  0  0  0  0
  -26.4060  -31.7300   25.1060 C   0  0  1  0  0  0  0  0  0  0  0  0
  -25.3250  -31.4870   26.1850 C   0  0  0  0  0  1  0  0  0  0  0  0
  -26.9820  -30.3550   24.6950 C   0  0  0  0  0  1  0  0  0  0  0  0
  -27.5670  -32.5180   25.7590 C   0  0  0  0  0  1  0  0  0  0  0  0
  -29.3880  -22.3670   19.5960 C   0  0  0  0  0  2  0  0  0  0  0  0
  -29.1170  -18.6680   20.6330 C   0  0  0  0  0  3  0  0  0  0  0  0
  -31.0850  -18.9870   19.2290 C   0  0  0  0  0  3  0  0  0  0  0  0
  -28.8260  -20.0450   20.5110 C   0  0  0  0  0  3  0  0  0  0  0  0
  -30.8100  -20.3560   19.1240 C   0  0  0  0  0  3  0  0  0  0  0  0
  -30.2500  -18.1360   19.9810 C   0  0  0  0  0  0  0  0  0  0  0  0
  -29.6710  -20.8890   19.7540 C   0  0  0  0  0  0  0  0  0  0  0  0
  -30.6340  -16.7280   20.0100 C   0  0  0  0  0  3  0  0  0  0  0  0
  -30.0550  -15.6530   20.5970 C   0  0  0  0  0  3  0  0  0  0  0  0
  -30.7450  -14.3840   20.3830 C   0  0  0  0  0  0  0  0  0  0  0  0
  -30.3250  -12.2360   19.3130 C   0  0  0  0  0  2  0  0  0  0  0  0
  -29.4050  -12.4770   18.1020 C   0  0  0  0  0  2  0  0  0  0  0  0
  -27.9300  -12.3680   18.5330 C   0  0  0  0  0  2  0  0  0  0  0  0
  -27.6040  -13.2210   19.7900 C   0  0  0  0  0  3  0  0  0  0  0  0
  -28.6630  -13.0310   20.8990 C   0  0  0  0  0  2  0  0  0  0  0  0
  -29.9930  -13.2560   20.3190 N   0  0  0  0  0  0  0  0  0  0  0  0
  -31.9300  -14.3780   20.0440 O   0  0  0  0  0  0  0  0  0  0  0  0
  -25.2130  -13.8270   20.5210 C   0  0  0  0  0  0  0  0  0  0  0  0
  -24.1460  -13.0570   20.8970 C   0  0  0  0  0  0  0  0  0  0  0  0
  -24.6050  -11.7050   20.8690 C   0  0  0  0  0  0  0  0  0  0  0  0
  -26.2550  -12.9460   20.2840 N   0  0  0  0  0  0  0  0  0  0  0  0
  -25.8940  -11.6640   20.5520 N   0  0  0  0  0  0  0  0  0  0  0  0
  -23.8800  -10.4440   21.0660 C   0  0  0  0  0  0  0  0  0  0  0  0
  -24.3300   -9.4660   21.9820 C   0  0  0  0  0  3  0  0  0  0  0  0
  -23.6030   -8.2710   22.1690 C   0  0  0  0  0  3  0  0  0  0  0  0
  -22.4100   -8.0440   21.4410 C   0  0  0  0  0  0  0  0  0  0  0  0
  -21.9770   -9.0100   20.5150 C   0  0  0  0  0  3  0  0  0  0  0  0
  -22.7060  -10.1980   20.3270 C   0  0  0  0  0  3  0  0  0  0  0  0
  -21.6550   -6.9010   21.5380 O   0  0  0  0  0  0  0  0  0  0  0  0
  -21.6500   -6.1340   22.6760 C   0  0  0  0  0  0  0  0  0  0  0  0
  -21.2970   -6.6710   23.9340 C   0  0  0  0  0  3  0  0  0  0  0  0
  -21.2340   -5.8320   25.0640 C   0  0  0  0  0  3  0  0  0  0  0  0
  -21.5170   -4.4590   24.9390 C   0  0  0  0  0  0  0  0  0  0  0  0
  -21.8680   -3.9220   23.6870 C   0  0  0  0  0  3  0  0  0  0  0  0
  -21.9280   -4.7580   22.5580 C   0  0  0  0  0  0  0  0  0  0  0  0
  -22.2430   -4.2330   21.3490 F   0  0  0  0  0  0  0  0  0  0  0  0
  -21.4520   -3.6510   26.0230 F   0  0  0  0  0  0  0  0  0  0  0  0
  -22.7500  -13.5370   21.1720 C   0  0  0  0  0  0  0  0  0  0  0  0
  -22.0250  -12.8490   22.0470 N   0  0  0  0  0  0  0  0  0  0  0  0
  -22.3090  -14.5600   20.6480 O   0  0  0  0  0  0  0  0  0  0  0  0
  -22.3920  -12.0260   22.5010 H   0  0  0  0  0  0  0  0  0  0  0  0
  -21.0890  -13.1550   22.2710 H   0  0  0  0  0  0  0  0  0  0  0  0
  -25.3770  -15.1960   20.3390 N   0  0  0  0  0  0  0  0  0  0  0  0
  -24.6150  -15.8540   20.4620 H   0  0  0  0  0  0  0  0  0  0  0  0
  -26.2300  -15.6330   20.0110 H   0  0  0  0  0  0  0  0  0  0  0  0
  1 49  1  0
  2  1  1  0
  3  1  1  0
  5  4  1  0
  5  1  1  0
  5  6  1  0
  6  7  1  0
  7  8  1  0
  8 10  1  0
  9 20  2  0
 10 15  1  0
 11 19  1  0
 11 21  1  0
 12 18  1  0
 12 14  1  0
 13 19  1  0
 14 13  1  0
 15 14  2  0
 16 17  1  0
 16 10  2  0
 17 12  2  0
 18 11  1  0
 19  9  1  0
 21 23  2  0
 22 21  1  0
 24 22  1  0
 25 34  2  0
 25 30  1  0
 26 22  1  0
 26 30  1  0
 27 26  1  0
 28 29  1  0
 28 27  1  0
 29 25  1  0
 30 31  2  0
 31 32  1  0
 33 32  2  0
 34 33  1  0
 35  9  1  0
 35 36  1  0
 35 45  1  0
 36 39  1  0
 37 41  1  0
 37 36  1  0
 38 37  2  0
 41 40  1  0
 43 41  1  0
 43 44  1  0
 43 42  1  0
 45 48  1  1
 45 46  1  0
 47 45  1  0
 49 55  1  0
 51 54  1  0
 52 50  1  0
 53 51  2  0
 53 55  1  0
 54 56  1  0
 54 50  2  0
 55 52  2  0
 56 57  2  0
 58 57  1  0
 59 64  1  0
 60 61  1  0
 60 59  1  0
 62 61  1  0
 62 69  1  0
 62 63  1  0
 64 58  1  0
 64 63  1  0
 65 58  2  0
 66 67  2  0
 67 86  1  0
 68 67  1  0
 68 71  1  0
 69 66  1  0
 69 70  1  0
 70 68  2  0
 71 72  1  0
 72 73  2  0
 74 77  1  0
 74 73  1  0
 75 74  2  0
 76 75  1  0
 76 71  2  0
 77 78  1  0
 78 79  1  0
 79 80  2  0
 81 80  1  0
 81 85  1  0
 82 81  2  0
 83 78  2  0
 83 82  1  0
 84 83  1  0
 86 87  1  0
 87 90  1  0
 87 89  1  0
 88 86  2  0
 91 92  1  0
 91 66  1  0
 93 91  1  0
M  ISO  4   7 101   8 101  57 100  58 100
M  END
>  <TORSDO>  (52) 
F 22

>  <SCORE>  (52) 
-13.091

>  <name>  (52) 
51

>  <ligand_id>  (52) 
51

>  <original_smiles>  (52) 
[H]C(C(=O)N1C([H])([H])C([H])([H])C([H])([H])C([H])(n2nc(-c3c([H])c([H])c(Oc4c([H])c([H])c(F)c([H])c4F)c([H])c3[H])c(C(=O)N([H])[H])c2N([H])[H])C1([H])[H])=C([H])c1c([H])c([H])c(C([H])([H])[N+]([H])([H])C([H])(C([H])([H])[H])C([H])([H])C([H])([H])Oc2c([H])c([H])c3c(c2[H])C([H])([H])N(C(=O)C([H])(N([H])C(=O)C([H])(N([H])C([H])([H])[H])C([H])([H])[H])C(C([H])([H])[H])(C([H])([H])[H])C([H])([H])[H])C([H])(C(=O)N([H])C2([H])c4c([H])c([H])c([H])c([H])c4C([H])([H])C([H])([H])C2([H])[H])C3([H])[H])c([H])c1[H]

>  <smiles>  (52) 
[H]C(C(=O)N1C([H])([H])C([H])([H])C([H])([H])C([H])(n2nc(-c3c([H])c([H])c(Oc4c([H])c([H])c(F)c([H])c4F)c([H])c3[H])c(C(=O)N([H])[H])c2N([H])[H])C1([H])[H])=C([H])c1c([H])c([H])c(C([H])([H])[N+]([H])([H])C([H])(C([H])([H])[H])C([H])([H])C([H])([H])Oc2c([H])c([H])c3c(c2[H])C([H])([H])N(C(=O)C([H])(N([H])C(=O)C([H])(N([H])C([H])([H])[H])C([H])([H])[H])C(C([H])([H])[H])(C([H])([H])[H])C([H])([H])[H])C([H])(C(=O)N([H])C2([H])c4c([H])c([H])c([H])c([H])c4C([H])([H])C([H])([H])C2([H])[H])C3([H])[H])c([H])c1[H]

$$$$
52:0:0
     RDKit          3D

 92 99  0  0  1  0  0  0  0  0999 V2000
  -30.9490  -23.5050   17.3890 N   0  0  0  0  0  4  0  0  0  0  0  0
  -30.5430  -23.5920   16.4710 H   0  0  0  0  0  0  0  0  0  0  0  0
  -31.6980  -24.1790   17.4460 H   0  0  0  0  0  0  0  0  0  0  0  0
  -29.9320  -23.8410   18.4140 C   0  0  0  0  0  2  0  0  0  0  0  0
  -29.0630  -25.9660   17.2350 C   0  0  0  0  0  1  0  0  0  0  0  0
  -29.5870  -25.3370   18.5440 C   0  0  0  0  0  3  0  0  0  0  0  0
  -28.5560  -25.4610   19.6790 C   0  0  0  0  0  2  0  0  0  0  0  0
  -28.4470  -26.8190   20.0790 O   0  0  0  0  0  0  0  0  0  0  0  0
  -24.6130  -31.8800   23.2270 C   0  0  0  0  0  0  0  0  0  0  0  0
  -27.2280  -27.4580   20.0940 C   0  0  0  0  0  0  0  0  0  0  0  0
  -23.3920  -30.4840   21.5910 C   0  0  0  0  0  3  0  0  0  0  0  0
  -24.8280  -28.9510   20.1550 C   0  0  0  0  0  0  0  0  0  0  0  0
  -25.9140  -30.8380   21.3770 C   0  0  0  0  0  2  0  0  0  0  0  0
  -25.9890  -29.4670   20.7390 C   0  0  0  0  0  0  0  0  0  0  0  0
  -27.1890  -28.7280   20.7080 C   0  0  0  0  0  3  0  0  0  0  0  0
  -26.0420  -26.9450   19.5130 C   0  0  0  0  0  3  0  0  0  0  0  0
  -24.8480  -27.6880   19.5470 C   0  0  0  0  0  3  0  0  0  0  0  0
  -23.5910  -29.8170   20.2060 C   0  0  0  0  0  2  0  0  0  0  0  0
  -24.6580  -31.0800   22.1250 N   0  0  0  0  0  0  0  0  0  0  0  0
  -23.5360  -32.1550   23.7750 O   0  0  0  0  0  0  0  0  0  0  0  0
  -22.7500  -29.4540   22.5480 C   0  0  0  0  0  0  0  0  0  0  0  0
  -21.4260  -29.2720   22.4320 N   0  0  0  0  0  0  0  0  0  0  0  0
  -23.4380  -28.8230   23.3550 O   0  0  0  0  0  0  0  0  0  0  0  0
  -20.9260  -29.8410   21.7610 H   0  0  0  0  0  0  0  0  0  0  0  0
  -18.0580  -28.0770   22.9490 C   0  0  0  0  0  0  0  0  0  0  0  0
  -20.6170  -28.3290   23.2040 C   0  0  0  0  0  3  0  0  0  0  0  0
  -20.7140  -26.8990   22.6260 C   0  0  0  0  0  2  0  0  0  0  0  0
  -19.6080  -26.5800   21.6160 C   0  0  0  0  0  2  0  0  0  0  0  0
  -18.2300  -26.7280   22.2690 C   0  0  0  0  0  2  0  0  0  0  0  0
  -19.1800  -28.8350   23.3740 C   0  0  0  0  0  0  0  0  0  0  0  0
  -18.9690  -30.1020   23.9630 C   0  0  0  0  0  3  0  0  0  0  0  0
  -17.6660  -30.6080   24.1290 C   0  0  0  0  0  3  0  0  0  0  0  0
  -16.5570  -29.8450   23.7200 C   0  0  0  0  0  3  0  0  0  0  0  0
  -16.7550  -28.5820   23.1350 C   0  0  0  0  0  3  0  0  0  0  0  0
  -25.9070  -32.5070   23.8400 C   0  0  0  0  0  3  0  0  0  0  0  0
  -26.4440  -31.7220   25.0990 C   0  0  1  0  0  0  0  0  0  0  0  0
  -25.3680  -31.4690   26.1810 C   0  0  0  0  0  1  0  0  0  0  0  0
  -27.0250  -30.3530   24.6770 C   0  0  0  0  0  1  0  0  0  0  0  0
  -27.6020  -32.5130   25.7540 C   0  0  0  0  0  1  0  0  0  0  0  0
  -25.6010  -33.9010   24.1810 N   0  0  0  0  0  0  0  0  0  0  0  0
  -25.9210  -34.9550   23.4210 C   0  0  0  0  0  0  0  0  0  0  0  0
  -26.5730  -34.8580   22.3770 O   0  0  0  0  0  0  0  0  0  0  0  0
  -25.0220  -34.0560   24.9920 H   0  0  0  0  0  0  0  0  0  0  0  0
  -24.1840  -36.7430   23.0860 C   0  0  0  0  0  1  0  0  0  0  0  0
  -25.4320  -36.3370   23.8880 C   0  0  0  0  0  3  0  0  0  0  0  0
  -27.5730  -37.2210   24.7060 C   0  0  0  0  0  1  0  0  0  0  0  0
  -26.4600  -37.3930   23.7750 N   0  0  0  0  0  0  0  0  0  0  0  0
  -26.0530  -38.3110   23.9380 H   0  0  0  0  0  0  0  0  0  0  0  0
  -31.5780  -22.1680   17.5530 C   0  0  0  0  0  2  0  0  0  0  0  0
  -30.5990  -20.9880   17.8060 C   0  0  0  0  0  2  0  0  0  0  0  0
  -31.2800  -19.7620   18.4560 C   0  0  0  0  0  2  0  0  0  0  0  0
  -30.2550  -18.7590   19.0370 C   0  0  0  0  0  2  0  0  0  0  0  0
  -30.8520  -17.5900   19.8600 C   0  0  0  0  0  2  0  0  0  0  0  0
  -29.7510  -16.8240   20.6480 C   0  0  0  0  0  2  0  0  0  0  0  0
  -30.6760  -14.4620   20.5030 C   0  0  0  0  0  0  0  0  0  0  0  0
  -30.3720  -12.3060   19.3610 C   0  0  0  0  0  2  0  0  0  0  0  0
  -29.4290  -12.5160   18.1600 C   0  0  0  0  0  2  0  0  0  0  0  0
  -27.9610  -12.3690   18.6020 C   0  0  0  0  0  2  0  0  0  0  0  0
  -27.6210  -13.2250   19.8500 C   0  0  0  0  0  3  0  0  0  0  0  0
  -28.6720  -12.9920   20.9660 C   0  0  0  0  0  2  0  0  0  0  0  0
  -30.0090  -13.2780   20.4070 N   0  0  0  0  0  0  0  0  0  0  0  0
  -31.7520  -14.6660   19.9410 O   0  0  0  0  0  0  0  0  0  0  0  0
  -30.0100  -15.4480   21.1260 N   0  0  0  0  0  0  0  0  0  0  0  0
  -29.3160  -15.1070   21.7730 H   0  0  0  0  0  0  0  0  0  0  0  0
  -25.2100  -13.8570   20.5170 C   0  0  0  0  0  0  0  0  0  0  0  0
  -24.1330  -13.0970   20.8830 C   0  0  0  0  0  0  0  0  0  0  0  0
  -24.5860  -11.7410   20.8700 C   0  0  0  0  0  0  0  0  0  0  0  0
  -26.2560  -12.9700   20.3130 N   0  0  0  0  0  0  0  0  0  0  0  0
  -25.8800  -11.6920   20.5800 N   0  0  0  0  0  0  0  0  0  0  0  0
  -23.8500  -10.4840   21.0630 C   0  0  0  0  0  0  0  0  0  0  0  0
  -24.2860   -9.5130   21.9920 C   0  0  0  0  0  3  0  0  0  0  0  0
  -23.5560   -8.3190   22.1720 C   0  0  0  0  0  3  0  0  0  0  0  0
  -22.3740   -8.0890   21.4240 C   0  0  0  0  0  0  0  0  0  0  0  0
  -21.9580   -9.0510   20.4850 C   0  0  0  0  0  3  0  0  0  0  0  0
  -22.6910  -10.2360   20.3030 C   0  0  0  0  0  3  0  0  0  0  0  0
  -21.6160   -6.9470   21.5150 O   0  0  0  0  0  0  0  0  0  0  0  0
  -21.5900   -6.1880   22.6570 C   0  0  0  0  0  0  0  0  0  0  0  0
  -21.2150   -6.7320   23.9050 C   0  0  0  0  0  3  0  0  0  0  0  0
  -21.1380   -5.9030   25.0420 C   0  0  0  0  0  3  0  0  0  0  0  0
  -21.4210   -4.5280   24.9320 C   0  0  0  0  0  0  0  0  0  0  0  0
  -21.7900   -3.9820   23.6890 C   0  0  0  0  0  3  0  0  0  0  0  0
  -21.8720   -4.8110   22.5540 C   0  0  0  0  0  0  0  0  0  0  0  0
  -22.2070   -4.2770   21.3560 F   0  0  0  0  0  0  0  0  0  0  0  0
  -21.3380   -3.7280   26.0200 F   0  0  0  0  0  0  0  0  0  0  0  0
  -22.7360  -13.5830   21.1400 C   0  0  0  0  0  0  0  0  0  0  0  0
  -21.9950  -12.8970   22.0030 N   0  0  0  0  0  0  0  0  0  0  0  0
  -22.3070  -14.6110   20.6120 O   0  0  0  0  0  0  0  0  0  0  0  0
  -22.3550  -12.0700   22.4530 H   0  0  0  0  0  0  0  0  0  0  0  0
  -21.0560  -13.2030   22.2100 H   0  0  0  0  0  0  0  0  0  0  0  0
  -25.3800  -15.2280   20.3290 N   0  0  0  0  0  0  0  0  0  0  0  0
  -24.6110  -15.8800   20.4360 H   0  0  0  0  0  0  0  0  0  0  0  0
  -26.2410  -15.6680   20.0350 H   0  0  0  0  0  0  0  0  0  0  0  0
  1  3  1  0
  1 49  1  0
  1  4  1  0
  2  1  1  0
  4  6  1  0
  6  5  1  0
  6  7  1  0
  7  8  1  0
  8 10  1  0
  9 20  2  0
 10 15  1  0
 11 19  1  0
 11 21  1  0
 12 18  1  0
 12 14  1  0
 13 19  1  0
 14 13  1  0
 15 14  2  0
 16 17  1  0
 16 10  2  0
 17 12  2  0
 18 11  1  0
 19  9  1  0
 21 23  2  0
 22 21  1  0
 24 22  1  0
 25 34  2  0
 25 30  1  0
 26 22  1  0
 26 30  1  0
 27 26  1  0
 28 29  1  0
 28 27  1  0
 29 25  1  0
 30 31  2  0
 31 32  1  0
 33 32  2  0
 34 33  1  0
 35  9  1  0
 35 40  1  0
 35 36  1  0
 36 39  1  1
 36 37  1  0
 38 36  1  0
 40 43  1  0
 41 45  1  0
 41 40  1  0
 42 41  2  0
 45 44  1  0
 47 45  1  0
 47 48  1  0
 47 46  1  0
 49 50  1  0
 50 51  1  0
 51 52  1  0
 52 53  1  0
 53 54  1  0
 54 63  1  0
 55 63  1  0
 56 61  1  0
 57 58  1  0
 57 56  1  0
 59 58  1  0
 59 68  1  0
 59 60  1  0
 61 55  1  0
 61 60  1  0
 62 55  2  0
 63 64  1  0
 65 66  2  0
 66 85  1  0
 67 66  1  0
 67 70  1  0
 68 65  1  0
 68 69  1  0
 69 67  2  0
 70 71  1  0
 71 72  2  0
 73 76  1  0
 73 72  1  0
 74 73  2  0
 75 74  1  0
 75 70  2  0
 76 77  1  0
 77 78  1  0
 78 79  2  0
 80 79  1  0
 80 84  1  0
 81 80  2  0
 82 77  2  0
 82 81  1  0
 83 82  1  0
 85 86  1  0
 86 89  1  0
 86 88  1  0
 87 85  2  0
 90 91  1  0
 90 65  1  0
 92 90  1  0
M  ISO  4   7 101   8 101  55 100  63 100
M  END
>  <TORSDO>  (53) 
F 25

>  <SCORE>  (53) 
-11.905

>  <name>  (53) 
52

>  <ligand_id>  (53) 
52

>  <original_smiles>  (53) 
[H]c1c([H])c([H])c2c(c1[H])C([H])([H])C([H])([H])C([H])([H])C2([H])N([H])C(=O)C1([H])N(C(=O)C([H])(N([H])C(=O)C([H])(N([H])C([H])([H])[H])C([H])([H])[H])C(C([H])([H])[H])(C([H])([H])[H])C([H])([H])[H])C([H])([H])c2c([H])c(OC([H])([H])C([H])(C([H])([H])[H])C([H])([H])[N+]([H])([H])C([H])([H])C([H])([H])C([H])([H])C([H])([H])C([H])([H])C([H])([H])N([H])C(=O)N3C([H])([H])C([H])([H])C([H])([H])C([H])(n4nc(-c5c([H])c([H])c(Oc6c([H])c([H])c(F)c([H])c6F)c([H])c5[H])c(C(=O)N([H])[H])c4N([H])[H])C3([H])[H])c([H])c([H])c2C1([H])[H]

>  <smiles>  (53) 
[H]c1c([H])c([H])c2c(c1[H])C([H])([H])C([H])([H])C([H])([H])C2([H])N([H])C(=O)C1([H])N(C(=O)C([H])(N([H])C(=O)C([H])(N([H])C([H])([H])[H])C([H])([H])[H])C(C([H])([H])[H])(C([H])([H])[H])C([H])([H])[H])C([H])([H])c2c([H])c(OC([H])([H])C([H])(C([H])([H])[H])C([H])([H])[N+]([H])([H])C([H])([H])C([H])([H])C([H])([H])C([H])([H])C([H])([H])C([H])([H])N([H])C(=O)N3C([H])([H])C([H])([H])C([H])([H])C([H])(n4nc(-c5c([H])c([H])c(Oc6c([H])c([H])c(F)c([H])c6F)c([H])c5[H])c(C(=O)N([H])[H])c4N([H])[H])C3([H])[H])c([H])c([H])c2C1([H])[H]

$$$$
53:0:0
     RDKit          3D

 99103  0  0  1  0  0  0  0  0999 V2000
  -18.5150  -23.6270   20.4130 C   0  0  0  0  0  2  0  0  0  0  0  0
  -20.2420  -24.6350   18.2630 C   0  0  0  0  0  2  0  0  0  0  0  0
  -19.7110  -23.4420   19.2700 C   0  0  0  0  0  3  0  0  0  0  0  0
  -17.8320  -25.1390   20.6980 C   0  0  0  0  0  2  0  0  0  0  0  0
  -18.5920  -26.7050   19.2570 C   0  0  0  0  0  1  0  0  0  0  0  0
  -19.9460  -26.2490   18.3490 C   0  0  0  0  0  3  0  0  0  0  0  0
  -16.2130  -25.1080   21.4260 C   0  0  0  0  0  2  0  0  0  0  0  0
  -17.0930  -27.8810   18.6650 C   0  0  0  0  0 15  0  0  0  0  0  0
  -15.0060  -26.3130   20.7240 C   0  0  0  0  0  1  0  0  0  0  0  0
  -20.7130  -22.2670   19.5550 C   0  0  0  0  0  0  0  0  0  0  0  0
  -20.3590  -21.3230   20.2660 O   0  0  0  0  0  0  0  0  0  0  0  0
  -22.2480  -22.2570   19.0480 C   0  0  0  0  0  3  0  0  0  0  0  0
  -23.4840  -22.8310   19.9690 C   0  0  0  0  0  3  0  0  0  0  0  0
  -25.0390  -22.9050   19.4440 C   0  0  0  0  0  3  0  0  0  0  0  0
  -25.9240  -24.2900   19.4560 C   0  0  0  0  0  3  0  0  0  0  0  0
  -27.3210  -24.4770   18.6070 C   0  0  0  0  0  2  0  0  0  0  0  0
  -27.8970  -25.9420   18.1240 C   0  0  0  0  0  3  0  0  0  0  0  0
  -28.9330  -26.1270   16.8570 C   0  0  0  0  0  3  0  0  0  0  0  0
  -29.5580  -27.9480   14.9590 C   0  0  0  0  0  0  0  0  0  0  0  0
  -31.5180  -28.0810   13.3960 C   0  0  0  0  0  2  0  0  0  0  0  0
  -32.1420  -26.6680   13.3010 C   0  0  0  0  0  2  0  0  0  0  0  0
  -33.0850  -26.3940   14.4920 C   0  0  0  0  0  2  0  0  0  0  0  0
  -32.4500  -26.7970   15.8480 C   0  0  0  0  0  3  0  0  0  0  0  0
  -31.8860  -28.2230   15.7840 C   0  0  0  0  0  2  0  0  0  0  0  0
  -30.8820  -28.1980   14.7280 N   0  0  0  0  0  0  0  0  0  0  0  0
  -28.7490  -28.0890   14.0260 O   0  0  0  0  0  0  0  0  0  0  0  0
  -29.1990  -27.5230   16.2480 N   0  0  0  0  0  0  0  0  0  0  0  0
  -28.4780  -28.1470   16.5820 H   0  0  0  0  0  0  0  0  0  0  0  0
  -33.3150  -25.7580   18.0190 C   0  0  0  0  0  0  0  0  0  0  0  0
  -34.4340  -26.0040   18.7620 C   0  0  0  0  0  0  0  0  0  0  0  0
  -35.1180  -27.0650   18.0960 C   0  0  0  0  0  0  0  0  0  0  0  0
  -33.3600  -26.6540   16.9660 N   0  0  0  0  0  0  0  0  0  0  0  0
  -34.4230  -27.4850   17.0500 N   0  0  0  0  0  0  0  0  0  0  0  0
  -36.4280  -27.6630   18.3530 C   0  0  0  0  0  0  0  0  0  0  0  0
  -36.5910  -29.0610   18.4650 C   0  0  0  0  0  3  0  0  0  0  0  0
  -37.8640  -29.6110   18.7270 C   0  0  0  0  0  3  0  0  0  0  0  0
  -38.9840  -28.7610   18.8820 C   0  0  0  0  0  0  0  0  0  0  0  0
  -38.8180  -27.3710   18.7460 C   0  0  0  0  0  3  0  0  0  0  0  0
  -37.5530  -26.8260   18.4800 C   0  0  0  0  0  3  0  0  0  0  0  0
  -40.2610  -29.2060   19.1150 O   0  0  0  0  0  0  0  0  0  0  0  0
  -40.5060  -30.4770   19.5690 C   0  0  0  0  0  0  0  0  0  0  0  0
  -39.9710  -30.9500   20.7870 C   0  0  0  0  0  3  0  0  0  0  0  0
  -40.3060  -32.2380   21.2480 C   0  0  0  0  0  3  0  0  0  0  0  0
  -41.1810  -33.0490   20.5010 C   0  0  0  0  0  0  0  0  0  0  0  0
  -41.7180  -32.5770   19.2900 C   0  0  0  0  0  3  0  0  0  0  0  0
  -41.3830  -31.2930   18.8270 C   0  0  0  0  0  0  0  0  0  0  0  0
  -41.9200  -30.8340   17.6700 F   0  0  0  0  0  0  0  0  0  0  0  0
  -41.5090  -34.2830   20.9490 F   0  0  0  0  0  0  0  0  0  0  0  0
  -34.8930  -25.2300   19.9620 C   0  0  0  0  0  0  0  0  0  0  0  0
  -35.4620  -25.9140   20.9490 N   0  0  0  0  0  0  0  0  0  0  0  0
  -34.7050  -24.0190   20.0520 O   0  0  0  0  0  0  0  0  0  0  0  0
  -35.5970  -26.9120   20.8840 H   0  0  0  0  0  0  0  0  0  0  0  0
  -35.7660  -25.4310   21.7820 H   0  0  0  0  0  0  0  0  0  0  0  0
  -32.2870  -24.8320   18.1420 N   0  0  0  0  0  0  0  0  0  0  0  0
  -32.2660  -24.1470   18.8890 H   0  0  0  0  0  0  0  0  0  0  0  0
  -31.4850  -24.7800   17.5310 H   0  0  0  0  0  0  0  0  0  0  0  0
  -21.4770  -27.0990   18.7050 C   0  0  0  0  0  3  0  0  0  0  0  0
  -23.0930  -26.7470   19.5700 C   0  0  0  0  0  3  0  0  0  0  0  0
  -24.7090  -27.2410   19.8300 O   0  0  0  0  0  0  0  0  0  0  0  0
  -24.9340  -32.3400   23.3110 C   0  0  0  0  0  0  0  0  0  0  0  0
  -25.5010  -28.1350   19.1410 C   0  0  0  0  0  3  0  0  0  0  0  0
  -23.1980  -31.4640   21.8270 C   0  0  0  0  0  3  0  0  0  0  0  0
  -23.9760  -30.2600   19.6950 C   0  0  0  0  0  0  0  0  0  0  0  0
  -25.6560  -31.4160   21.1110 C   0  0  0  0  0  2  0  0  0  0  0  0
  -25.2690  -30.2540   20.2240 C   0  0  0  0  0  0  0  0  0  0  0  0
  -26.1080  -29.1690   19.9070 C   0  0  0  0  0  3  0  0  0  0  0  0
  -24.5930  -28.4640   18.1760 C   0  0  0  0  0  2  0  0  0  0  0  0
  -23.6870  -29.4510   18.5790 C   0  0  0  0  0  3  0  0  0  0  0  0
  -22.9940  -31.2340   20.2970 C   0  0  0  0  0  2  0  0  0  0  0  0
  -24.6230  -31.7890   22.1090 N   0  0  0  0  0  0  0  0  0  0  0  0
  -24.0540  -32.6310   24.1340 O   0  0  0  0  0  0  0  0  0  0  0  0
  -22.8070  -30.2950   22.7700 C   0  0  0  0  0  0  0  0  0  0  0  0
  -21.6110  -30.2660   23.3490 N   0  0  0  0  0  0  0  0  0  0  0  0
  -23.6610  -29.4740   23.0840 O   0  0  0  0  0  0  0  0  0  0  0  0
  -20.9580  -31.0040   23.1390 H   0  0  0  0  0  0  0  0  0  0  0  0
  -17.9820  -28.0710   22.8550 C   0  0  0  0  0  2  0  0  0  0  0  0
  -21.1080  -29.1880   24.2590 C   0  0  0  0  0  3  0  0  0  0  0  0
  -21.9850  -27.7920   23.9170 C   0  0  0  0  0  2  0  0  0  0  0  0
  -21.6200  -26.6350   22.8000 C   0  0  0  0  0  1  0  0  0  0  0  0
  -18.7060  -26.7470   21.8000 C   0  0  0  0  0  1  0  0  0  0  0  0
  -19.4560  -29.2270   24.1780 C   0  0  0  0  0  2  0  0  0  0  0  0
  -18.9380  -30.6340   24.5370 C   0  0  0  0  0  3  0  0  0  0  0  0
  -17.5760  -31.0880   24.0830 C   0  0  0  0  0  3  0  0  0  0  0  0
  -16.5780  -30.3190   23.2410 C   0  0  0  0  0  3  0  0  0  0  0  0
  -16.7050  -28.9200   22.6160 C   0  0  0  0  0  3  0  0  0  0  0  0
  -26.4040  -32.6540   23.6860 C   0  0  0  0  0  3  0  0  0  0  0  0
  -27.0390  -31.5960   24.6650 C   0  0  1  0  0  0  0  0  0  0  0  0
  -26.0950  -31.1470   25.8040 C   0  0  0  0  0  1  0  0  0  0  0  0
  -27.4860  -30.3270   23.9040 C   0  0  0  0  0  1  0  0  0  0  0  0
  -28.3140  -32.1930   25.3020 C   0  0  0  0  0  1  0  0  0  0  0  0
  -26.3940  -33.9890   24.2930 N   0  0  0  0  0  0  0  0  0  0  0  0
  -26.6120  -35.1240   23.6190 C   0  0  0  0  0  0  0  0  0  0  0  0
  -26.9370  -35.1440   22.4290 O   0  0  0  0  0  0  0  0  0  0  0  0
  -26.0780  -34.0510   25.2490 H   0  0  0  0  0  0  0  0  0  0  0  0
  -25.0680  -37.0490   24.1020 C   0  0  0  0  0  1  0  0  0  0  0  0
  -26.4510  -36.4440   24.3940 C   0  0  0  0  0  3  0  0  0  0  0  0
  -28.8200  -37.0510   24.5930 C   0  0  0  0  0  1  0  0  0  0  0  0
  -27.5050  -37.4340   24.0850 N   0  0  0  0  0  0  0  0  0  0  0  0
  -27.2680  -38.3450   24.4690 H   0  0  0  0  0  0  0  0  0  0  0  0
  1  4  1  0
  2  6  1  0
  3  2  1  0
  3 10  1  0
  3  1  1  0
  4  7  1  0
  6 57  1  0
  6  5  1  0
  9  7  1  0
 10 11  2  0
 12 10  1  0
 12 13  2  0
 14 15  2  0
 14 13  1  0
 16 15  1  0
 17 16  1  0
 18 17  2  0
 19 27  1  0
 20 25  1  0
 21 20  1  0
 21 22  1  0
 23 22  1  0
 23 32  1  0
 24 23  1  0
 25 19  1  0
 25 24  1  0
 26 19  2  0
 27 28  1  0
 27 18  1  0
 29 54  1  0
 29 30  2  0
 30 49  1  0
 31 34  1  0
 31 30  1  0
 32 33  1  0
 32 29  1  0
 33 31  2  0
 34 35  2  0
 34 39  1  0
 35 36  1  0
 36 37  2  0
 37 40  1  0
 38 37  1  0
 39 38  2  0
 40 41  1  0
 41 42  1  0
 42 43  2  0
 44 48  1  0
 44 43  1  0
 45 44  2  0
 46 45  1  0
 46 41  2  0
 47 46  1  0
 49 51  2  0
 49 50  1  0
 50 53  1  0
 52 50  1  0
 54 55  1  0
 56 54  1  0
 57 58  2  0
 58 59  1  0
 60 71  2  0
 61 59  1  0
 61 66  1  0
 62 70  1  0
 62 72  1  0
 63 65  1  0
 63 69  1  0
 64 70  1  0
 65 64  1  0
 66 65  2  0
 67 68  1  0
 67 61  1  0
 68 63  2  0
 69 62  1  0
 70 60  1  0
 72 74  2  0
 72 73  1  0
 73 77  1  0
 75 73  1  0
 77 78  1  0
 79 78  1  0
 80 76  1  0
 81 77  1  0
 81 82  1  0
 83 82  2  0
 84 83  1  0
 85 76  1  0
 85 84  2  0
 86 60  1  0
 86 91  1  0
 86 87  1  0
 87 90  1  1
 87 88  1  0
 89 87  1  0
 91 94  1  0
 92 91  1  0
 92 96  1  0
 93 92  2  0
 96 95  1  0
 98 96  1  0
 98 99  1  0
 98 97  1  0
M  ISO  4  19 100  27 100  58 101  59 101
M  END
>  <TORSDO>  (54) 
F 26

>  <SCORE>  (54) 
2.521

>  <name>  (54) 
53

>  <ligand_id>  (54) 
53

>  <original_smiles>  (54) 
[H]c1c([H])c([H])c2c(c1[H])C([H])([H])C([H])([H])C([H])([H])C2([H])N([H])C(=O)C1([H])N(C(=O)C([H])(N([H])C(=O)C([H])(N([H])C([H])([H])[H])C([H])([H])[H])C(C([H])([H])[H])(C([H])([H])[H])C([H])([H])[H])C([H])([H])c2c([H])c(OC([H])([H])C([H])([H])c3c([H])c(C(=O)C([H])([H])C([H])([H])C([H])([H])C([H])([H])C([H])([H])C([H])([H])C([H])([H])N([H])C(=O)N4C([H])([H])C([H])([H])C([H])([H])C([H])(n5nc(-c6c([H])c([H])c(Oc7c([H])c([H])c(F)c([H])c7F)c([H])c6[H])c(C(=O)N([H])[H])c5N([H])[H])C4([H])[H])c([H])c4c3C([H])([H])C([H])([H])C4([H])[H])c([H])c([H])c2C1([H])[H]

>  <smiles>  (54) 
[H]c1c([H])c([H])c2c(c1[H])C([H])([H])C([H])([H])C([H])([H])C2([H])N([H])C(=O)C1([H])N(C(=O)C([H])(N([H])C(=O)C([H])(N([H])C([H])([H])[H])C([H])([H])[H])C(C([H])([H])[H])(C([H])([H])[H])C([H])([H])[H])C([H])([H])c2c([H])c(OC([H])([H])C([H])([H])c3c([H])c(C(=O)C([H])([H])C([H])([H])C([H])([H])C([H])([H])C([H])([H])C([H])([H])C([H])([H])N([H])C(=O)N4C([H])([H])C([H])([H])C([H])([H])C([H])(n5nc(-c6c([H])c([H])c(Oc7c([H])c([H])c(F)c([H])c7F)c([H])c6[H])c(C(=O)N([H])[H])c5N([H])[H])C4([H])[H])c([H])c4c3C([H])([H])C([H])([H])C4([H])[H])c([H])c([H])c2C1([H])[H]

$$$$
54:0:0
     RDKit          3D

101109  0  0  1  0  0  0  0  0999 V2000
  -32.0740  -23.4270   21.4140 C   0  0  0  0  0  3  0  0  0  0  0  0
  -31.8120  -24.7070   21.9220 C   0  0  0  0  0  3  0  0  0  0  0  0
  -31.9500  -24.2920   19.1370 C   0  0  0  0  0  3  0  0  0  0  0  0
  -32.0960  -23.2080   20.0220 C   0  0  0  0  0  0  0  0  0  0  0  0
  -31.5550  -25.7760   21.0400 C   0  0  0  0  0  0  0  0  0  0  0  0
  -31.6550  -25.5710   19.6420 C   0  0  0  0  0  0  0  0  0  0  0  0
  -32.1860  -21.8180   19.4940 C   0  0  0  0  0  0  0  0  0  0  0  0
  -31.3230  -20.9960   20.0900 N   0  0  0  0  0  0  0  0  0  0  0  0
  -32.9440  -21.5070   18.5730 O   0  0  0  0  0  0  0  0  0  0  0  0
  -30.7100  -21.4200   20.7750 H   0  0  0  0  0  0  0  0  0  0  0  0
  -31.1590  -19.5820   19.8490 C   0  0  0  0  0  2  0  0  0  0  0  0
  -31.4480  -18.7990   21.1360 C   0  0  0  0  0  2  0  0  0  0  0  0
  -31.1600  -17.3290   20.8750 C   0  0  0  0  0  2  0  0  0  0  0  0
  -31.3040  -16.3920   22.0920 C   0  0  0  0  0  3  0  0  0  0  0  0
  -32.7210  -16.0620   22.3520 N   0  0  0  0  0  4  0  0  0  0  0  0
  -33.1300  -15.6580   21.5230 H   0  0  0  0  0  0  0  0  0  0  0  0
  -32.8050  -15.3950   23.0990 H   0  0  0  0  0  0  0  0  0  0  0  0
  -33.2480  -16.8790   22.6070 H   0  0  0  0  0  0  0  0  0  0  0  0
  -30.4290  -15.1300   21.9100 C   0  0  0  0  0  2  0  0  0  0  0  0
  -30.7900  -14.2590   20.7010 C   0  0  0  0  0  0  0  0  0  0  0  0
  -30.3920  -12.2360   19.3580 C   0  0  0  0  0  2  0  0  0  0  0  0
  -29.4710  -12.5420   18.1680 C   0  0  0  0  0  2  0  0  0  0  0  0
  -27.9960  -12.3970   18.5910 C   0  0  0  0  0  2  0  0  0  0  0  0
  -27.6670  -13.1950   19.8830 C   0  0  0  0  0  3  0  0  0  0  0  0
  -28.7050  -12.8910   20.9860 C   0  0  0  0  0  2  0  0  0  0  0  0
  -30.0420  -13.1630   20.4400 N   0  0  0  0  0  0  0  0  0  0  0  0
  -31.7950  -14.5420   20.0390 O   0  0  0  0  0  0  0  0  0  0  0  0
  -25.2590  -13.8150   20.5680 C   0  0  0  0  0  0  0  0  0  0  0  0
  -24.1820  -13.0430   20.9170 C   0  0  0  0  0  0  0  0  0  0  0  0
  -24.6340  -11.6890   20.8710 C   0  0  0  0  0  0  0  0  0  0  0  0
  -26.3020  -12.9300   20.3390 N   0  0  0  0  0  0  0  0  0  0  0  0
  -25.9270  -11.6460   20.5730 N   0  0  0  0  0  0  0  0  0  0  0  0
  -23.9010  -10.4280   21.0370 C   0  0  0  0  0  0  0  0  0  0  0  0
  -24.3580   -9.4220   21.9150 C   0  0  0  0  0  3  0  0  0  0  0  0
  -23.6260   -8.2250   22.0740 C   0  0  0  0  0  3  0  0  0  0  0  0
  -22.4240   -8.0270   21.3530 C   0  0  0  0  0  0  0  0  0  0  0  0
  -21.9860   -9.0240   20.4640 C   0  0  0  0  0  3  0  0  0  0  0  0
  -22.7180  -10.2120   20.3030 C   0  0  0  0  0  3  0  0  0  0  0  0
  -21.6620   -6.8850   21.4240 O   0  0  0  0  0  0  0  0  0  0  0  0
  -21.6850   -6.0710   22.5280 C   0  0  0  0  0  0  0  0  0  0  0  0
  -21.4020   -6.5620   23.8220 C   0  0  0  0  0  3  0  0  0  0  0  0
  -21.3670   -5.6780   24.9180 C   0  0  0  0  0  3  0  0  0  0  0  0
  -21.6050   -4.3030   24.7230 C   0  0  0  0  0  0  0  0  0  0  0  0
  -21.8810   -3.8120   23.4360 C   0  0  0  0  0  3  0  0  0  0  0  0
  -21.9190   -4.6940   22.3410 C   0  0  0  0  0  0  0  0  0  0  0  0
  -22.1650   -4.2120   21.0980 F   0  0  0  0  0  0  0  0  0  0  0  0
  -21.5640   -3.4520   25.7750 F   0  0  0  0  0  0  0  0  0  0  0  0
  -22.7850  -13.5240   21.1850 C   0  0  0  0  0  0  0  0  0  0  0  0
  -22.0470  -12.8240   22.0410 N   0  0  0  0  0  0  0  0  0  0  0  0
  -22.3540  -14.5550   20.6700 O   0  0  0  0  0  0  0  0  0  0  0  0
  -22.4070  -11.9910   22.4830 H   0  0  0  0  0  0  0  0  0  0  0  0
  -21.1070  -13.1270   22.2590 H   0  0  0  0  0  0  0  0  0  0  0  0
  -25.4340  -15.1860   20.4120 N   0  0  0  0  0  0  0  0  0  0  0  0
  -24.6690  -15.8420   20.5270 H   0  0  0  0  0  0  0  0  0  0  0  0
  -26.2980  -15.6300   20.1230 H   0  0  0  0  0  0  0  0  0  0  0  0
  -31.3980  -26.5730   18.7550 O   0  0  0  0  0  0  0  0  0  0  0  0
  -30.9050  -27.2860   19.1490 H   0  0  0  0  0  0  0  0  0  0  0  0
  -31.0750  -27.0920   21.6300 C   0  0  0  0  0  2  0  0  0  0  0  0
  -29.6650  -26.9740   22.2450 C   0  0  0  0  0  2  0  0  0  0  0  0
  -28.6480  -26.1660   21.4040 C   0  0  0  0  0  2  0  0  0  0  0  0
  -28.3920  -26.7480   20.1250 O   0  0  0  0  0  0  0  0  0  0  0  0
  -24.6100  -31.8700   23.2090 C   0  0  0  0  0  0  0  0  0  0  0  0
  -27.2430  -27.4920   20.1030 C   0  0  0  0  0  0  0  0  0  0  0  0
  -23.3960  -30.4880   21.5520 C   0  0  0  0  0  3  0  0  0  0  0  0
  -24.8440  -28.9570   20.1180 C   0  0  0  0  0  0  0  0  0  0  0  0
  -25.9140  -30.8600   21.3460 C   0  0  0  0  0  2  0  0  0  0  0  0
  -25.9960  -29.4950   20.7040 C   0  0  0  0  0  0  0  0  0  0  0  0
  -27.2020  -28.7710   20.6890 C   0  0  0  0  0  3  0  0  0  0  0  0
  -26.0830  -26.9540   19.5130 C   0  0  0  0  0  3  0  0  0  0  0  0
  -24.8780  -27.6830   19.5210 C   0  0  0  0  0  3  0  0  0  0  0  0
  -23.5980  -29.8130   20.1680 C   0  0  0  0  0  2  0  0  0  0  0  0
  -24.6590  -31.0840   22.0970 N   0  0  0  0  0  0  0  0  0  0  0  0
  -23.5290  -32.1450   23.7480 O   0  0  0  0  0  0  0  0  0  0  0  0
  -22.7390  -29.4640   22.5060 C   0  0  0  0  0  0  0  0  0  0  0  0
  -21.4120  -29.2990   22.3780 N   0  0  0  0  0  0  0  0  0  0  0  0
  -23.4190  -28.8210   23.3100 O   0  0  0  0  0  0  0  0  0  0  0  0
  -20.9300  -29.8740   21.7020 H   0  0  0  0  0  0  0  0  0  0  0  0
  -18.0240  -28.1360   22.8480 C   0  0  0  0  0  0  0  0  0  0  0  0
  -20.5840  -28.3630   23.1340 C   0  0  0  0  0  3  0  0  0  0  0  0
  -20.6730  -26.9370   22.5430 C   0  0  0  0  0  2  0  0  0  0  0  0
  -19.5710  -26.6360   21.5210 C   0  0  0  0  0  2  0  0  0  0  0  0
  -18.1880  -26.7900   22.1600 C   0  0  0  0  0  2  0  0  0  0  0  0
  -19.1490  -28.8810   23.2900 C   0  0  0  0  0  0  0  0  0  0  0  0
  -18.9430  -30.1420   23.8910 C   0  0  0  0  0  3  0  0  0  0  0  0
  -17.6430  -30.6570   24.0560 C   0  0  0  0  0  3  0  0  0  0  0  0
  -16.5330  -29.9080   23.6330 C   0  0  0  0  0  3  0  0  0  0  0  0
  -16.7240  -28.6490   23.0350 C   0  0  0  0  0  3  0  0  0  0  0  0
  -25.9020  -32.4830   23.8410 C   0  0  0  0  0  3  0  0  0  0  0  0
  -25.5860  -33.8630   24.2320 N   0  0  0  0  0  0  0  0  0  0  0  0
  -25.9020  -34.9490   23.5130 C   0  0  0  0  0  0  0  0  0  0  0  0
  -26.5610  -34.8950   22.4710 O   0  0  0  0  0  0  0  0  0  0  0  0
  -24.9860  -33.9770   25.0350 H   0  0  0  0  0  0  0  0  0  0  0  0
  -24.1460  -36.7380   23.2640 C   0  0  0  0  0  1  0  0  0  0  0  0
  -25.4090  -36.3130   24.0320 C   0  0  0  0  0  3  0  0  0  0  0  0
  -27.5560  -37.1830   24.8450 C   0  0  0  0  0  1  0  0  0  0  0  0
  -26.4280  -37.3830   23.9400 N   0  0  0  0  0  0  0  0  0  0  0  0
  -26.0140  -38.2900   24.1410 H   0  0  0  0  0  0  0  0  0  0  0  0
  -26.4430  -31.6600   25.0740 C   0  0  1  0  0  0  0  0  0  0  0  0
  -25.3670  -31.3700   26.1470 C   0  0  0  0  0  1  0  0  0  0  0  0
  -27.0240  -30.3020   24.6150 C   0  0  0  0  0  1  0  0  0  0  0  0
  -27.6030  -32.4290   25.7530 C   0  0  0  0  0  1  0  0  0  0  0  0
  1  2  1  0
  3  6  2  0
  3  4  1  0
  4  1  2  0
  5 58  1  0
  5  2  2  0
  6  5  1  0
  7  4  1  0
  7  8  1  0
  8 10  1  0
  9  7  2  0
 11  8  1  0
 11 12  1  0
 13 12  1  0
 14 13  1  0
 14 15  1  0
 15 18  1  0
 15 17  1  0
 16 15  1  0
 19 14  1  0
 20 19  1  0
 21 26  1  0
 22 23  1  0
 22 21  1  0
 24 23  1  0
 24 31  1  0
 24 25  1  0
 26 20  1  0
 26 25  1  0
 27 20  2  0
 28 29  2  0
 29 48  1  0
 30 29  1  0
 30 33  1  0
 31 28  1  0
 31 32  1  0
 32 30  2  0
 33 34  1  0
 34 35  2  0
 36 39  1  0
 36 35  1  0
 37 36  2  0
 38 37  1  0
 38 33  2  0
 39 40  1  0
 40 41  1  0
 41 42  2  0
 43 42  1  0
 43 47  1  0
 44 43  2  0
 45 40  2  0
 45 44  1  0
 46 45  1  0
 48 49  1  0
 49 52  1  0
 49 51  1  0
 50 48  2  0
 53 54  1  0
 53 28  1  0
 55 53  1  0
 56 57  1  0
 56  6  1  0
 58 59  1  0
 60 59  1  0
 61 60  1  0
 62 73  2  0
 63 61  1  0
 63 68  1  0
 64 72  1  0
 64 74  1  0
 65 71  1  0
 65 67  1  0
 66 72  1  0
 67 66  1  0
 68 67  2  0
 69 70  1  0
 69 63  2  0
 70 65  2  0
 71 64  1  0
 72 62  1  0
 74 76  2  0
 75 74  1  0
 77 75  1  0
 78 87  2  0
 78 83  1  0
 79 75  1  0
 79 83  1  0
 80 79  1  0
 81 82  1  0
 81 80  1  0
 82 78  1  0
 83 84  2  0
 84 85  1  0
 86 85  2  0
 87 86  1  0
 88 62  1  0
 88 89  1  0
 88 98  1  0
 89 92  1  0
 90 94  1  0
 90 89  1  0
 91 90  2  0
 94 93  1  0
 96 94  1  0
 96 97  1  0
 96 95  1  0
 98101  1  1
 98 99  1  0
100 98  1  0
M  ISO  4  19 100  20 100  60 101  61 101
M  END
>  <TORSDO>  (55) 
F 27

>  <SCORE>  (55) 
-6.474

>  <name>  (55) 
54

>  <ligand_id>  (55) 
54

>  <original_smiles>  (55) 
[H]Oc1c([H])c(C(=O)N([H])C([H])([H])C([H])([H])C([H])([H])C([H])(C([H])([H])C(=O)N2C([H])([H])C([H])([H])C([H])([H])C([H])(n3nc(-c4c([H])c([H])c(Oc5c([H])c([H])c(F)c([H])c5F)c([H])c4[H])c(C(=O)N([H])[H])c3N([H])[H])C2([H])[H])[N+]([H])([H])[H])c([H])c([H])c1C([H])([H])C([H])([H])C([H])([H])Oc1c([H])c([H])c2c(c1[H])C([H])([H])N(C(=O)C([H])(N([H])C(=O)C([H])(N([H])C([H])([H])[H])C([H])([H])[H])C(C([H])([H])[H])(C([H])([H])[H])C([H])([H])[H])C([H])(C(=O)N([H])C1([H])c3c([H])c([H])c([H])c([H])c3C([H])([H])C([H])([H])C1([H])[H])C2([H])[H]

>  <smiles>  (55) 
[H]Oc1c([H])c(C(=O)N([H])C([H])([H])C([H])([H])C([H])([H])C([H])(C([H])([H])C(=O)N2C([H])([H])C([H])([H])C([H])([H])C([H])(n3nc(-c4c([H])c([H])c(Oc5c([H])c([H])c(F)c([H])c5F)c([H])c4[H])c(C(=O)N([H])[H])c3N([H])[H])C2([H])[H])[N+]([H])([H])[H])c([H])c([H])c1C([H])([H])C([H])([H])C([H])([H])Oc1c([H])c([H])c2c(c1[H])C([H])([H])N(C(=O)C([H])(N([H])C(=O)C([H])(N([H])C([H])([H])[H])C([H])([H])[H])C(C([H])([H])[H])(C([H])([H])[H])C([H])([H])[H])C([H])(C(=O)N([H])C1([H])c3c([H])c([H])c([H])c([H])c3C([H])([H])C([H])([H])C1([H])[H])C2([H])[H]

$$$$
55:0:0
     RDKit          3D

 99108  0  0  1  0  0  0  0  0999 V2000
  -35.3030  -24.2190   20.4010 C   0  0  0  0  0  2  0  0  0  0  0  0
  -33.4280  -25.1340   18.9640 C   0  0  0  0  0  3  0  0  0  0  0  0
  -33.3850  -25.5890   21.3600 C   0  0  0  0  0  3  0  0  0  0  0  0
  -32.2790  -25.9280   18.7880 C   0  0  0  0  0  3  0  0  0  0  0  0
  -32.2330  -26.3810   21.1830 C   0  0  0  0  0  3  0  0  0  0  0  0
  -34.0030  -24.9850   20.2450 C   0  0  0  0  0  0  0  0  0  0  0  0
  -31.6950  -26.5820   19.8930 C   0  0  0  0  0  0  0  0  0  0  0  0
  -30.5390  -27.5520   19.7030 C   0  0  0  0  0  2  0  0  0  0  0  0
  -29.1480  -26.9460   19.9430 C   0  0  0  0  0  2  0  0  0  0  0  0
  -28.3050  -27.0950   18.7970 O   0  0  0  0  0  0  0  0  0  0  0  0
  -24.5160  -31.6080   22.8180 C   0  0  0  0  0  0  0  0  0  0  0  0
  -27.1340  -27.7860   19.0060 C   0  0  0  0  0  0  0  0  0  0  0  0
  -23.2510  -30.3500   21.1030 C   0  0  0  0  0  3  0  0  0  0  0  0
  -24.6620  -29.0970   19.3870 C   0  0  0  0  0  0  0  0  0  0  0  0
  -25.7200  -30.9040   20.7530 C   0  0  0  0  0  2  0  0  0  0  0  0
  -25.8310  -29.6280   19.9460 C   0  0  0  0  0  0  0  0  0  0  0  0
  -27.0700  -28.9790   19.7600 C   0  0  0  0  0  3  0  0  0  0  0  0
  -25.9500  -27.2630   18.4410 C   0  0  0  0  0  3  0  0  0  0  0  0
  -24.7150  -27.9080   18.6370 C   0  0  0  0  0  3  0  0  0  0  0  0
  -23.3780  -29.8580   19.6370 C   0  0  0  0  0  2  0  0  0  0  0  0
  -24.5190  -30.9620   21.6180 N   0  0  0  0  0  0  0  0  0  0  0  0
  -23.4720  -31.7380   23.4750 O   0  0  0  0  0  0  0  0  0  0  0  0
  -22.7370  -29.1800   21.9710 C   0  0  0  0  0  0  0  0  0  0  0  0
  -21.4140  -28.9480   21.9380 N   0  0  0  0  0  0  0  0  0  0  0  0
  -23.5200  -28.4870   22.6250 O   0  0  0  0  0  0  0  0  0  0  0  0
  -20.8390  -29.5660   21.3830 H   0  0  0  0  0  0  0  0  0  0  0  0
  -18.1450  -27.5530   22.5860 C   0  0  0  0  0  0  0  0  0  0  0  0
  -20.7100  -27.8750   22.6420 C   0  0  0  0  0  3  0  0  0  0  0  0
  -20.7920  -26.5470   21.8540 C   0  0  0  0  0  2  0  0  0  0  0  0
  -19.6000  -26.3270   20.9190 C   0  0  0  0  0  2  0  0  0  0  0  0
  -18.2890  -26.3210   21.7100 C   0  0  0  0  0  2  0  0  0  0  0  0
  -19.2820  -28.2910   23.0110 C   0  0  0  0  0  0  0  0  0  0  0  0
  -19.0900  -29.4500   23.7940 C   0  0  0  0  0  3  0  0  0  0  0  0
  -17.7960  -29.8690   24.1570 C   0  0  0  0  0  3  0  0  0  0  0  0
  -16.6770  -29.1260   23.7460 C   0  0  0  0  0  3  0  0  0  0  0  0
  -16.8520  -27.9700   22.9650 C   0  0  0  0  0  3  0  0  0  0  0  0
  -25.8160  -32.2340   23.4110 C   0  0  0  0  0  3  0  0  0  0  0  0
  -26.4960  -31.3290   24.5100 C   0  0  1  0  0  0  0  0  0  0  0  0
  -25.5310  -30.8810   25.6310 C   0  0  0  0  0  1  0  0  0  0  0  0
  -27.0990  -30.0570   23.8680 C   0  0  0  0  0  1  0  0  0  0  0  0
  -27.6670  -32.0960   25.1650 C   0  0  0  0  0  1  0  0  0  0  0  0
  -25.4660  -33.5500   23.9570 N   0  0  0  0  0  0  0  0  0  0  0  0
  -25.7210  -34.7160   23.3490 C   0  0  0  0  0  0  0  0  0  0  0  0
  -26.3480  -34.7960   22.2880 O   0  0  0  0  0  0  0  0  0  0  0  0
  -24.8900  -33.5580   24.7870 H   0  0  0  0  0  0  0  0  0  0  0  0
  -23.9070  -36.4560   23.3200 C   0  0  0  0  0  1  0  0  0  0  0  0
  -25.1950  -35.9980   24.0240 C   0  0  0  0  0  3  0  0  0  0  0  0
  -27.3240  -36.8420   24.9060 C   0  0  0  0  0  1  0  0  0  0  0  0
  -26.1790  -37.1030   24.0370 N   0  0  0  0  0  0  0  0  0  0  0  0
  -25.7440  -37.9690   24.3420 H   0  0  0  0  0  0  0  0  0  0  0  0
  -35.2310  -22.7880   19.8400 C   0  0  0  0  0  2  0  0  0  0  0  0
  -34.6680  -21.7970   20.8550 C   0  0  0  0  0  0  0  0  0  0  0  0
  -35.3490  -21.4310   21.8170 O   0  0  0  0  0  0  0  0  0  0  0  0
  -33.2350  -21.2950   20.6520 C   0  0  0  0  0  2  0  0  0  0  0  0
  -33.1260  -19.7600   20.7580 C   0  0  0  0  0  2  0  0  0  0  0  0
  -31.6680  -19.2560   20.7880 C   0  0  0  0  0  2  0  0  0  0  0  0
  -30.2530  -17.3030   18.4320 C   0  0  0  0  0  2  0  0  0  0  0  0
  -31.6770  -17.5130   18.9740 C   0  0  0  0  0  2  0  0  0  0  0  0
  -29.3030  -17.4910   19.6180 C   0  0  0  0  0  2  0  0  0  0  0  0
  -31.5440  -17.7370   20.5000 C   0  0  0  0  0  3  0  0  0  0  0  0
  -30.1400  -17.1760   20.8640 C   0  0  0  0  0  3  0  0  0  0  0  0
  -30.8050  -14.6850   20.9670 C   0  0  0  0  0  0  0  0  0  0  0  0
  -30.5980  -12.4900   19.8950 C   0  0  0  0  0  2  0  0  0  0  0  0
  -29.7660  -12.6900   18.6130 C   0  0  0  0  0  2  0  0  0  0  0  0
  -28.2580  -12.5600   18.9080 C   0  0  0  0  0  2  0  0  0  0  0  0
  -27.8110  -13.3850   20.1470 C   0  0  0  0  0  3  0  0  0  0  0  0
  -28.7840  -13.2120   21.3360 C   0  0  0  0  0  2  0  0  0  0  0  0
  -30.1500  -13.4980   20.8640 N   0  0  0  0  0  0  0  0  0  0  0  0
  -31.9870  -14.8200   20.6570 O   0  0  0  0  0  0  0  0  0  0  0  0
  -30.0070  -15.7400   21.2100 N   0  0  0  0  0  0  0  0  0  0  0  0
  -29.0780  -15.4650   21.4960 H   0  0  0  0  0  0  0  0  0  0  0  0
  -25.3500  -13.9430   20.6480 C   0  0  0  0  0  0  0  0  0  0  0  0
  -24.2740  -13.1500   20.9440 C   0  0  0  0  0  0  0  0  0  0  0  0
  -24.7660  -11.8110   20.9780 C   0  0  0  0  0  0  0  0  0  0  0  0
  -26.4300  -13.0840   20.5220 N   0  0  0  0  0  0  0  0  0  0  0  0
  -26.0770  -11.7970   20.7790 N   0  0  0  0  0  0  0  0  0  0  0  0
  -24.0510  -10.5350   21.1360 C   0  0  0  0  0  0  0  0  0  0  0  0
  -24.4230   -9.5970   22.1230 C   0  0  0  0  0  3  0  0  0  0  0  0
  -23.7070   -8.3880   22.2670 C   0  0  0  0  0  3  0  0  0  0  0  0
  -22.6090   -8.1070   21.4190 C   0  0  0  0  0  0  0  0  0  0  0  0
  -22.2580   -9.0370   20.4230 C   0  0  0  0  0  3  0  0  0  0  0  0
  -22.9750  -10.2360   20.2780 C   0  0  0  0  0  3  0  0  0  0  0  0
  -21.8720   -6.9470   21.4670 O   0  0  0  0  0  0  0  0  0  0  0  0
  -21.7440   -6.2220   22.6240 C   0  0  0  0  0  0  0  0  0  0  0  0
  -21.2130   -6.7890   23.8020 C   0  0  0  0  0  3  0  0  0  0  0  0
  -21.0330   -5.9910   24.9500 C   0  0  0  0  0  3  0  0  0  0  0  0
  -21.3720   -4.6240   24.9190 C   0  0  0  0  0  0  0  0  0  0  0  0
  -21.8970   -4.0570   23.7440 C   0  0  0  0  0  3  0  0  0  0  0  0
  -22.0780   -4.8530   22.6000 C   0  0  0  0  0  0  0  0  0  0  0  0
  -22.5630   -4.2940   21.4640 F   0  0  0  0  0  0  0  0  0  0  0  0
  -21.1940   -3.8570   26.0190 F   0  0  0  0  0  0  0  0  0  0  0  0
  -22.8480  -13.6000   21.0920 C   0  0  0  0  0  0  0  0  0  0  0  0
  -22.0650  -12.9090   21.9140 N   0  0  0  0  0  0  0  0  0  0  0  0
  -22.4320  -14.6010   20.5110 O   0  0  0  0  0  0  0  0  0  0  0  0
  -22.4130  -12.1050   22.4180 H   0  0  0  0  0  0  0  0  0  0  0  0
  -21.1030  -13.1900   22.0430 H   0  0  0  0  0  0  0  0  0  0  0  0
  -25.4870  -15.3140   20.4550 N   0  0  0  0  0  0  0  0  0  0  0  0
  -24.6800  -15.9280   20.4660 H   0  0  0  0  0  0  0  0  0  0  0  0
  -26.3420  -15.7920   20.2030 H   0  0  0  0  0  0  0  0  0  0  0  0
  2  6  1  0
  4  2  2  0
  4  7  1  0
  5  3  1  0
  6  1  1  0
  6  3  2  0
  7  5  2  0
  8  7  1  0
  8  9  1  0
 10 12  1  0
 10  9  1  0
 11 22  2  0
 12 17  1  0
 13 21  1  0
 13 23  1  0
 14 20  1  0
 14 16  1  0
 15 21  1  0
 16 15  1  0
 17 16  2  0
 18 19  1  0
 18 12  2  0
 19 14  2  0
 20 13  1  0
 21 11  1  0
 23 25  2  0
 24 23  1  0
 26 24  1  0
 27 36  2  0
 27 32  1  0
 28 24  1  0
 28 32  1  0
 29 28  1  0
 30 31  1  0
 30 29  1  0
 31 27  1  0
 32 33  2  0
 33 34  1  0
 35 34  2  0
 36 35  1  0
 37 11  1  0
 37 42  1  0
 37 38  1  0
 38 41  1  1
 38 39  1  0
 40 38  1  0
 42 45  1  0
 43 42  1  0
 43 47  1  0
 44 43  2  0
 47 46  1  0
 47 49  1  0
 49 50  1  0
 49 48  1  0
 51  1  1  0
 51 52  1  0
 52 53  2  0
 54 55  1  0
 54 52  1  0
 55 56  1  0
 57 58  1  0
 57 59  1  0
 58 60  1  0
 59 61  1  0
 60 56  1  0
 60 61  1  0
 61 70  1  0
 62 70  1  0
 63 68  1  0
 64 65  1  0
 64 63  1  0
 66 65  1  0
 66 75  1  0
 66 67  1  0
 68 62  1  0
 68 67  1  0
 69 62  2  0
 70 71  1  0
 72 73  2  0
 73 74  1  0
 73 92  1  0
 74 77  1  0
 75 72  1  0
 75 76  1  0
 76 74  2  0
 77 78  1  0
 78 79  2  0
 80 83  1  0
 80 79  1  0
 81 80  2  0
 82 81  1  0
 82 77  2  0
 83 84  1  0
 84 85  1  0
 85 86  2  0
 87 86  1  0
 87 91  1  0
 88 87  2  0
 89 84  2  0
 89 88  1  0
 90 89  1  0
 92 93  1  0
 93 96  1  0
 93 95  1  0
 94 92  2  0
 97 98  1  0
 97 72  1  0
 99 97  1  0
M  ISO  4   9 101  10 101  62 100  70 100
M  END
>  <TORSDO>  (56) 
F 25

>  <SCORE>  (56) 
-9.851

>  <name>  (56) 
55

>  <ligand_id>  (56) 
55

>  <original_smiles>  (56) 
[H]c1c([H])c([H])c2c(c1[H])C([H])([H])C([H])([H])C([H])([H])C2([H])N([H])C(=O)C1([H])N(C(=O)C([H])(N([H])C(=O)C([H])(N([H])C([H])([H])[H])C([H])([H])[H])C(C([H])([H])[H])(C([H])([H])[H])C([H])([H])[H])C([H])([H])c2c([H])c(OC([H])([H])C([H])([H])c3c([H])c([H])c(C([H])([H])C([H])([H])C(=O)C([H])([H])C([H])([H])C([H])([H])C4([H])C([H])([H])C([H])([H])C([H])([H])C4([H])N([H])C(=O)N4C([H])([H])C([H])([H])C([H])([H])C([H])(n5nc(-c6c([H])c([H])c(Oc7c([H])c([H])c(F)c([H])c7F)c([H])c6[H])c(C(=O)N([H])[H])c5N([H])[H])C4([H])[H])c([H])c3[H])c([H])c([H])c2C1([H])[H]

>  <smiles>  (56) 
[H]c1c([H])c([H])c2c(c1[H])C([H])([H])C([H])([H])C([H])([H])C2([H])N([H])C(=O)C1([H])N(C(=O)C([H])(N([H])C(=O)C([H])(N([H])C([H])([H])[H])C([H])([H])[H])C(C([H])([H])[H])(C([H])([H])[H])C([H])([H])[H])C([H])([H])c2c([H])c(OC([H])([H])C([H])([H])c3c([H])c([H])c(C([H])([H])C([H])([H])C(=O)C([H])([H])C([H])([H])C([H])([H])C4([H])C([H])([H])C([H])([H])C([H])([H])C4([H])N([H])C(=O)N4C([H])([H])C([H])([H])C([H])([H])C([H])(n5nc(-c6c([H])c([H])c(Oc7c([H])c([H])c(F)c([H])c7F)c([H])c6[H])c(C(=O)N([H])[H])c5N([H])[H])C4([H])[H])c([H])c3[H])c([H])c([H])c2C1([H])[H]

$$$$
56:0:0
     RDKit          3D

 96105  0  0  1  0  0  0  0  0999 V2000
  -26.4680  -22.5120   21.0660 C   0  0  0  0  0  3  0  0  0  0  0  0
  -28.8620  -22.4450   21.5170 C   0  0  0  0  0  3  0  0  0  0  0  0
  -26.4800  -23.9160   21.1930 C   0  0  0  0  0  3  0  0  0  0  0  0
  -28.8790  -23.8420   21.6400 C   0  0  0  0  0  3  0  0  0  0  0  0
  -27.6670  -21.7770   21.1820 C   0  0  0  0  0  0  0  0  0  0  0  0
  -27.7030  -24.5790   21.4190 C   0  0  0  0  0  0  0  0  0  0  0  0
  -27.6760  -20.2760   20.9570 C   0  0  0  0  0  2  0  0  0  0  0  0
  -28.1230  -19.8380   19.5440 C   0  0  0  0  0  2  0  0  0  0  0  0
  -30.0350  -18.9910   18.0440 C   0  0  0  0  0  2  0  0  0  0  0  0
  -30.5790  -19.6890   20.4000 C   0  0  0  0  0  2  0  0  0  0  0  0
  -30.0140  -17.5170   18.4730 C   0  0  0  0  0  2  0  0  0  0  0  0
  -30.6690  -18.2170   20.8270 C   0  0  0  0  0  2  0  0  0  0  0  0
  -29.6370  -19.9380   19.2020 C   0  0  0  0  0  3  0  0  0  0  0  0
  -30.9620  -17.2530   19.6620 C   0  0  0  0  0  3  0  0  0  0  0  0
  -31.4440  -14.8130   19.7200 C   0  0  0  0  0  0  0  0  0  0  0  0
  -31.1320  -12.4650   19.0590 C   0  0  0  0  0  2  0  0  0  0  0  0
  -30.1740  -12.4340   17.8480 C   0  0  0  0  0  2  0  0  0  0  0  0
  -28.7020  -12.4050   18.3080 C   0  0  0  0  0  2  0  0  0  0  0  0
  -28.3870  -13.4860   19.3770 C   0  0  0  0  0  3  0  0  0  0  0  0
  -29.4560  -13.4720   20.4960 C   0  0  0  0  0  2  0  0  0  0  0  0
  -30.7810  -13.6390   19.8680 N   0  0  0  0  0  0  0  0  0  0  0  0
  -32.5250  -14.9180   19.1300 O   0  0  0  0  0  0  0  0  0  0  0  0
  -30.7610  -15.8860   20.1280 N   0  0  0  0  0  0  0  0  0  0  0  0
  -29.9080  -15.6960   20.6290 H   0  0  0  0  0  0  0  0  0  0  0  0
  -26.0900  -14.2900   20.2330 C   0  0  0  0  0  0  0  0  0  0  0  0
  -24.9710  -13.6030   20.6320 C   0  0  0  0  0  0  0  0  0  0  0  0
  -25.2980  -12.2190   20.5210 C   0  0  0  0  0  0  0  0  0  0  0  0
  -27.0350  -13.3240   19.9160 N   0  0  0  0  0  0  0  0  0  0  0  0
  -26.5610  -12.0720   20.1410 N   0  0  0  0  0  0  0  0  0  0  0  0
  -24.4650  -11.0230   20.7030 C   0  0  0  0  0  0  0  0  0  0  0  0
  -24.8220  -10.0050   21.6140 C   0  0  0  0  0  3  0  0  0  0  0  0
  -23.9970   -8.8730   21.7850 C   0  0  0  0  0  3  0  0  0  0  0  0
  -22.7970   -8.7510   21.0420 C   0  0  0  0  0  0  0  0  0  0  0  0
  -22.4590   -9.7560   20.1180 C   0  0  0  0  0  3  0  0  0  0  0  0
  -23.2840  -10.8790   19.9460 C   0  0  0  0  0  3  0  0  0  0  0  0
  -21.9470   -7.6760   21.1240 O   0  0  0  0  0  0  0  0  0  0  0  0
  -21.7960   -6.9600   22.2850 C   0  0  0  0  0  0  0  0  0  0  0  0
  -21.3860   -7.5740   23.4910 C   0  0  0  0  0  3  0  0  0  0  0  0
  -21.1790   -6.7900   24.6430 C   0  0  0  0  0  3  0  0  0  0  0  0
  -21.3720   -5.3970   24.5920 C   0  0  0  0  0  0  0  0  0  0  0  0
  -21.7770   -4.7850   23.3920 C   0  0  0  0  0  3  0  0  0  0  0  0
  -21.9860   -5.5650   22.2430 C   0  0  0  0  0  0  0  0  0  0  0  0
  -22.3550   -4.9670   21.0830 F   0  0  0  0  0  0  0  0  0  0  0  0
  -21.1660   -4.6440   25.6970 F   0  0  0  0  0  0  0  0  0  0  0  0
  -23.6430  -14.1980   21.0040 C   0  0  0  0  0  0  0  0  0  0  0  0
  -22.9090  -13.5440   21.9020 N   0  0  0  0  0  0  0  0  0  0  0  0
  -23.2690  -15.2720   20.5390 O   0  0  0  0  0  0  0  0  0  0  0  0
  -23.2250  -12.6720   22.3010 H   0  0  0  0  0  0  0  0  0  0  0  0
  -22.0210  -13.9240   22.1940 H   0  0  0  0  0  0  0  0  0  0  0  0
  -26.3800  -15.6430   20.1020 N   0  0  0  0  0  0  0  0  0  0  0  0
  -25.6970  -16.3700   20.2850 H   0  0  0  0  0  0  0  0  0  0  0  0
  -27.2640  -16.0060   19.7690 H   0  0  0  0  0  0  0  0  0  0  0  0
  -27.8220  -26.0750   21.2650 C   0  0  0  0  0  2  0  0  0  0  0  0
  -28.6820  -26.3600   20.0210 C   0  0  0  0  0  2  0  0  0  0  0  0
  -27.9290  -26.2500   18.6840 C   0  0  0  0  0  2  0  0  0  0  0  0
  -27.5960  -27.5630   18.2930 O   0  0  0  0  0  0  0  0  0  0  0  0
  -24.3980  -31.8220   23.0080 C   0  0  0  0  0  0  0  0  0  0  0  0
  -26.4250  -28.0970   18.7580 C   0  0  0  0  0  0  0  0  0  0  0  0
  -22.9100  -30.6750   21.4000 C   0  0  0  0  0  3  0  0  0  0  0  0
  -24.0710  -29.4320   19.5080 C   0  0  0  0  0  0  0  0  0  0  0  0
  -25.3490  -31.1440   20.8080 C   0  0  0  0  0  2  0  0  0  0  0  0
  -25.3130  -29.9020   19.9510 C   0  0  0  0  0  0  0  0  0  0  0  0
  -26.4960  -29.2370   19.5740 C   0  0  0  0  0  3  0  0  0  0  0  0
  -25.1700  -27.6010   18.3490 C   0  0  0  0  0  3  0  0  0  0  0  0
  -23.9890  -28.2670   18.7230 C   0  0  0  0  0  3  0  0  0  0  0  0
  -22.8570  -30.2310   19.9170 C   0  0  0  0  0  2  0  0  0  0  0  0
  -24.2490  -31.2200   21.7960 N   0  0  0  0  0  0  0  0  0  0  0  0
  -23.4330  -31.9630   23.7720 O   0  0  0  0  0  0  0  0  0  0  0  0
  -22.4460  -29.4900   22.2760 C   0  0  0  0  0  0  0  0  0  0  0  0
  -21.1330  -29.2090   22.2480 N   0  0  0  0  0  0  0  0  0  0  0  0
  -23.2580  -28.8250   22.9240 O   0  0  0  0  0  0  0  0  0  0  0  0
  -20.5330  -29.7970   21.6870 H   0  0  0  0  0  0  0  0  0  0  0  0
  -17.9590  -27.5620   22.7400 C   0  0  0  0  0  0  0  0  0  0  0  0
  -20.4730  -28.1180   22.9620 C   0  0  0  0  0  3  0  0  0  0  0  0
  -20.7360  -26.7630   22.2650 C   0  0  0  0  0  2  0  0  0  0  0  0
  -19.6450  -26.3840   21.2610 C   0  0  0  0  0  2  0  0  0  0  0  0
  -18.2790  -26.3040   21.9500 C   0  0  0  0  0  2  0  0  0  0  0  0
  -18.9890  -28.4220   23.2010 C   0  0  0  0  0  0  0  0  0  0  0  0
  -18.6390  -29.6010   23.8940 C   0  0  0  0  0  3  0  0  0  0  0  0
  -17.2880  -29.9200   24.1350 C   0  0  0  0  0  3  0  0  0  0  0  0
  -16.2720  -29.0540   23.6970 C   0  0  0  0  0  3  0  0  0  0  0  0
  -16.6100  -27.8770   23.0040 C   0  0  0  0  0  3  0  0  0  0  0  0
  -25.7770  -32.3810   23.4840 C   0  0  0  0  0  3  0  0  0  0  0  0
  -25.5430  -33.7170   24.0470 N   0  0  0  0  0  0  0  0  0  0  0  0
  -25.7960  -34.8680   23.4080 C   0  0  0  0  0  0  0  0  0  0  0  0
  -26.3250  -34.9110   22.2940 O   0  0  0  0  0  0  0  0  0  0  0  0
  -25.0680  -33.7530   24.9360 H   0  0  0  0  0  0  0  0  0  0  0  0
  -24.0870  -36.7040   23.5230 C   0  0  0  0  0  1  0  0  0  0  0  0
  -25.4030  -36.1770   24.1170 C   0  0  0  0  0  3  0  0  0  0  0  0
  -27.6440  -36.9090   24.8000 C   0  0  0  0  0  1  0  0  0  0  0  0
  -26.4400  -37.2280   24.0340 N   0  0  0  0  0  0  0  0  0  0  0  0
  -26.0840  -38.1180   24.3690 H   0  0  0  0  0  0  0  0  0  0  0  0
  -26.4960  -31.4470   24.5370 C   0  0  1  0  0  0  0  0  0  0  0  0
  -25.6030  -31.0520   25.7380 C   0  0  0  0  0  1  0  0  0  0  0  0
  -26.9780  -30.1440   23.8630 C   0  0  0  0  0  1  0  0  0  0  0  0
  -27.7560  -32.1520   25.0900 C   0  0  0  0  0  1  0  0  0  0  0  0
  1  5  2  0
  1  3  1  0
  2  4  2  0
  3  6  2  0
  5  2  1  0
  6  4  1  0
  7  5  1  0
  8  7  1  0
  9 11  1  0
  9 13  1  0
 10 12  1  0
 11 14  1  0
 13  8  1  0
 13 10  1  0
 14 23  1  0
 14 12  1  0
 15 21  1  0
 15 23  1  0
 16 21  1  0
 17 18  1  0
 17 16  1  0
 19 18  1  0
 19 28  1  0
 19 20  1  0
 21 20  1  0
 22 15  2  0
 23 24  1  0
 25 26  2  0
 26 45  1  0
 27 26  1  0
 27 30  1  0
 28 29  1  0
 28 25  1  0
 29 27  2  0
 30 31  1  0
 31 32  2  0
 33 36  1  0
 33 32  1  0
 34 33  2  0
 35 34  1  0
 35 30  2  0
 36 37  1  0
 37 38  1  0
 38 39  2  0
 40 39  1  0
 40 44  1  0
 41 40  2  0
 42 37  2  0
 42 41  1  0
 43 42  1  0
 45 46  1  0
 46 49  1  0
 46 48  1  0
 47 45  2  0
 50 25  1  0
 50 51  1  0
 52 50  1  0
 53  6  1  0
 54 53  1  0
 55 54  1  0
 56 55  1  0
 56 58  1  0
 57 68  2  0
 58 63  1  0
 59 67  1  0
 59 69  1  0
 60 66  1  0
 60 62  1  0
 61 67  1  0
 62 61  1  0
 63 62  2  0
 64 65  1  0
 64 58  2  0
 65 60  2  0
 66 59  1  0
 67 57  1  0
 69 71  2  0
 70 69  1  0
 72 70  1  0
 73 82  2  0
 73 78  1  0
 74 70  1  0
 74 78  1  0
 75 74  1  0
 76 77  1  0
 76 75  1  0
 77 73  1  0
 78 79  2  0
 79 80  1  0
 81 80  2  0
 82 81  1  0
 83 57  1  0
 83 84  1  0
 83 93  1  0
 84 87  1  0
 85 84  1  0
 85 89  1  0
 86 85  2  0
 89 88  1  0
 91 89  1  0
 91 92  1  0
 91 90  1  0
 93 96  1  1
 93 94  1  0
 95 93  1  0
M  ISO  4  15 100  23 100  55 101  56 101
M  END
>  <TORSDO>  (57) 
F 22

>  <SCORE>  (57) 
-10.148

>  <name>  (57) 
56

>  <ligand_id>  (57) 
56

>  <original_smiles>  (57) 
[H]c1c([H])c([H])c2c(c1[H])C([H])([H])C([H])([H])C([H])([H])C2([H])N([H])C(=O)C1([H])N(C(=O)C([H])(N([H])C(=O)C([H])(N([H])C([H])([H])[H])C([H])([H])[H])C(C([H])([H])[H])(C([H])([H])[H])C([H])([H])[H])C([H])([H])c2c([H])c(OC([H])([H])C([H])([H])C([H])([H])c3c([H])c([H])c(C([H])([H])C([H])([H])C4([H])C([H])([H])C([H])([H])C([H])(N([H])C(=O)N5C([H])([H])C([H])([H])C([H])([H])C([H])(n6nc(-c7c([H])c([H])c(Oc8c([H])c([H])c(F)c([H])c8F)c([H])c7[H])c(C(=O)N([H])[H])c6N([H])[H])C5([H])[H])C([H])([H])C4([H])[H])c([H])c3[H])c([H])c([H])c2C1([H])[H]

>  <smiles>  (57) 
[H]c1c([H])c([H])c2c(c1[H])C([H])([H])C([H])([H])C([H])([H])C2([H])N([H])C(=O)C1([H])N(C(=O)C([H])(N([H])C(=O)C([H])(N([H])C([H])([H])[H])C([H])([H])[H])C(C([H])([H])[H])(C([H])([H])[H])C([H])([H])[H])C([H])([H])c2c([H])c(OC([H])([H])C([H])([H])C([H])([H])c3c([H])c([H])c(C([H])([H])C([H])([H])C4([H])C([H])([H])C([H])([H])C([H])(N([H])C(=O)N5C([H])([H])C([H])([H])C([H])([H])C([H])(n6nc(-c7c([H])c([H])c(Oc8c([H])c([H])c(F)c([H])c8F)c([H])c7[H])c(C(=O)N([H])[H])c6N([H])[H])C5([H])[H])C([H])([H])C4([H])[H])c([H])c3[H])c([H])c([H])c2C1([H])[H]

$$$$
57:0:0
     RDKit          3D

 92 99  0  0  1  0  0  0  0  0999 V2000
  -31.2950  -23.8420   17.8780 C   0  0  0  0  0  0  0  0  0  0  0  0
  -32.4480  -24.1620   18.1870 O   0  0  0  0  0  0  0  0  0  0  0  0
  -30.1600  -24.7680   17.9140 C   0  0  0  0  0  3  0  0  0  0  0  0
  -30.1630  -25.8760   18.6740 C   0  0  0  0  0  3  0  0  0  0  0  0
  -28.9970  -26.8280   18.7500 C   0  0  0  0  0  2  0  0  0  0  0  0
  -28.4280  -26.8000   20.0510 O   0  0  0  0  0  0  0  0  0  0  0  0
  -24.6160  -31.8850   23.2240 C   0  0  0  0  0  0  0  0  0  0  0  0
  -27.2470  -27.4850   20.1180 C   0  0  0  0  0  0  0  0  0  0  0  0
  -23.3960  -30.4780   21.5910 C   0  0  0  0  0  3  0  0  0  0  0  0
  -24.8410  -28.9420   20.1610 C   0  0  0  0  0  0  0  0  0  0  0  0
  -25.9130  -30.8530   21.3700 C   0  0  0  0  0  2  0  0  0  0  0  0
  -25.9960  -29.4800   20.7420 C   0  0  0  0  0  0  0  0  0  0  0  0
  -27.2030  -28.7520   20.7310 C   0  0  0  0  0  3  0  0  0  0  0  0
  -26.0770  -26.9380   19.5540 C   0  0  0  0  0  3  0  0  0  0  0  0
  -24.8710  -27.6640   19.5720 C   0  0  0  0  0  3  0  0  0  0  0  0
  -23.5930  -29.7930   20.2120 C   0  0  0  0  0  2  0  0  0  0  0  0
  -24.6600  -31.0860   22.1200 N   0  0  0  0  0  0  0  0  0  0  0  0
  -23.5400  -32.1530   23.7760 O   0  0  0  0  0  0  0  0  0  0  0  0
  -22.7580  -29.4560   22.5580 C   0  0  0  0  0  0  0  0  0  0  0  0
  -21.4340  -29.2720   22.4400 N   0  0  0  0  0  0  0  0  0  0  0  0
  -23.4500  -28.8330   23.3680 O   0  0  0  0  0  0  0  0  0  0  0  0
  -20.9380  -29.8250   21.7560 H   0  0  0  0  0  0  0  0  0  0  0  0
  -18.0690  -28.0700   22.9540 C   0  0  0  0  0  0  0  0  0  0  0  0
  -20.6260  -28.3340   23.2170 C   0  0  0  0  0  3  0  0  0  0  0  0
  -20.7300  -26.9010   22.6450 C   0  0  0  0  0  2  0  0  0  0  0  0
  -19.6270  -26.5730   21.6340 C   0  0  0  0  0  2  0  0  0  0  0  0
  -18.2460  -26.7200   22.2790 C   0  0  0  0  0  2  0  0  0  0  0  0
  -19.1880  -28.8350   23.3780 C   0  0  0  0  0  0  0  0  0  0  0  0
  -18.9690  -30.1000   23.9650 C   0  0  0  0  0  3  0  0  0  0  0  0
  -17.6640  -30.6010   24.1320 C   0  0  0  0  0  3  0  0  0  0  0  0
  -16.5610  -29.8320   23.7240 C   0  0  0  0  0  3  0  0  0  0  0  0
  -16.7640  -28.5680   23.1430 C   0  0  0  0  0  3  0  0  0  0  0  0
  -25.9090  -32.5160   23.8320 C   0  0  0  0  0  3  0  0  0  0  0  0
  -26.4500  -31.7350   25.0920 C   0  0  1  0  0  0  0  0  0  0  0  0
  -25.3730  -31.4760   26.1700 C   0  0  0  0  0  1  0  0  0  0  0  0
  -27.0390  -30.3680   24.6750 C   0  0  0  0  0  1  0  0  0  0  0  0
  -27.6030  -32.5310   25.7470 C   0  0  0  0  0  1  0  0  0  0  0  0
  -25.6020  -33.9100   24.1750 N   0  0  0  0  0  0  0  0  0  0  0  0
  -25.9230  -34.9670   23.4170 C   0  0  0  0  0  0  0  0  0  0  0  0
  -26.5810  -34.8700   22.3770 O   0  0  0  0  0  0  0  0  0  0  0  0
  -25.0180  -34.0590   24.9860 H   0  0  0  0  0  0  0  0  0  0  0  0
  -24.1810  -36.7490   23.0900 C   0  0  0  0  0  1  0  0  0  0  0  0
  -25.4330  -36.3490   23.8860 C   0  0  0  0  0  3  0  0  0  0  0  0
  -27.5760  -37.2370   24.6920 C   0  0  0  0  0  1  0  0  0  0  0  0
  -26.4590  -37.4090   23.7670 N   0  0  0  0  0  0  0  0  0  0  0  0
  -26.0510  -38.3240   23.9290 H   0  0  0  0  0  0  0  0  0  0  0  0
  -30.9650  -22.4150   17.4430 C   0  0  0  0  0  2  0  0  0  0  0  0
  -32.0440  -21.3580   17.7460 C   0  0  0  0  0  2  0  0  0  0  0  0
  -31.3840  -19.9950   17.9920 C   0  0  0  0  0  2  0  0  0  0  0  0
  -32.3730  -18.8500   18.2610 C   0  0  0  0  0  2  0  0  0  0  0  0
  -31.6490  -17.5580   18.6910 C   0  0  0  0  0  2  0  0  0  0  0  0
  -31.1150  -17.6680   20.0740 N   0  0  0  0  0  4  0  0  0  0  0  0
  -31.8460  -17.4770   20.7420 H   0  0  0  0  0  0  0  0  0  0  0  0
  -30.8500  -18.6310   20.2010 H   0  0  0  0  0  0  0  0  0  0  0  0
  -29.8970  -16.8670   20.3760 C   0  0  0  0  0  2  0  0  0  0  0  0
  -30.1120  -15.6330   21.2910 C   0  0  0  0  0  2  0  0  0  0  0  0
  -30.7020  -14.4230   20.5450 C   0  0  0  0  0  0  0  0  0  0  0  0
  -30.3690  -12.2990   19.3430 C   0  0  0  0  0  2  0  0  0  0  0  0
  -29.4330  -12.5390   18.1430 C   0  0  0  0  0  2  0  0  0  0  0  0
  -27.9530  -12.4140   18.5630 C   0  0  0  0  0  2  0  0  0  0  0  0
  -27.6240  -13.2400   19.8360 C   0  0  0  0  0  3  0  0  0  0  0  0
  -28.6710  -12.9620   20.9400 C   0  0  0  0  0  2  0  0  0  0  0  0
  -30.0040  -13.2650   20.3910 N   0  0  0  0  0  0  0  0  0  0  0  0
  -31.8050  -14.5940   20.0180 O   0  0  0  0  0  0  0  0  0  0  0  0
  -25.2180  -13.8750   20.5120 C   0  0  0  0  0  0  0  0  0  0  0  0
  -24.1420  -13.1120   20.8810 C   0  0  0  0  0  0  0  0  0  0  0  0
  -24.5940  -11.7580   20.8650 C   0  0  0  0  0  0  0  0  0  0  0  0
  -26.2610  -12.9840   20.3010 N   0  0  0  0  0  0  0  0  0  0  0  0
  -25.8860  -11.7070   20.5690 N   0  0  0  0  0  0  0  0  0  0  0  0
  -23.8570  -10.5020   21.0610 C   0  0  0  0  0  0  0  0  0  0  0  0
  -24.2950   -9.5310   21.9870 C   0  0  0  0  0  3  0  0  0  0  0  0
  -23.5650   -8.3360   22.1710 C   0  0  0  0  0  3  0  0  0  0  0  0
  -22.3810   -8.1080   21.4290 C   0  0  0  0  0  0  0  0  0  0  0  0
  -21.9620   -9.0690   20.4920 C   0  0  0  0  0  3  0  0  0  0  0  0
  -22.6930  -10.2550   20.3060 C   0  0  0  0  0  3  0  0  0  0  0  0
  -21.6180   -6.9690   21.5240 O   0  0  0  0  0  0  0  0  0  0  0  0
  -21.5930   -6.2120   22.6680 C   0  0  0  0  0  0  0  0  0  0  0  0
  -21.2290   -6.7580   23.9190 C   0  0  0  0  0  3  0  0  0  0  0  0
  -21.1530   -5.9260   25.0540 C   0  0  0  0  0  3  0  0  0  0  0  0
  -21.4290   -4.5500   24.9400 C   0  0  0  0  0  0  0  0  0  0  0  0
  -21.7830   -4.0050   23.6940 C   0  0  0  0  0  3  0  0  0  0  0  0
  -21.8630   -4.8330   22.5620 C   0  0  0  0  0  0  0  0  0  0  0  0
  -22.1840   -4.2980   21.3590 F   0  0  0  0  0  0  0  0  0  0  0  0
  -21.3490   -3.7500   26.0290 F   0  0  0  0  0  0  0  0  0  0  0  0
  -22.7430  -13.5990   21.1370 C   0  0  0  0  0  0  0  0  0  0  0  0
  -22.0010  -12.9170   22.0040 N   0  0  0  0  0  0  0  0  0  0  0  0
  -22.3140  -14.6190   20.6000 O   0  0  0  0  0  0  0  0  0  0  0  0
  -22.3530  -12.0900   22.4630 H   0  0  0  0  0  0  0  0  0  0  0  0
  -21.0620  -13.2280   22.2080 H   0  0  0  0  0  0  0  0  0  0  0  0
  -25.3940  -15.2420   20.3190 N   0  0  0  0  0  0  0  0  0  0  0  0
  -24.6250  -15.8990   20.3950 H   0  0  0  0  0  0  0  0  0  0  0  0
  -26.2500  -15.6700   19.9880 H   0  0  0  0  0  0  0  0  0  0  0  0
  1  3  1  0
  1  2  2  0
  3  4  2  0
  4  5  1  0
  5  6  1  0
  6  8  1  0
  7 18  2  0
  8 13  1  0
  9 17  1  0
  9 19  1  0
 10 16  1  0
 10 12  1  0
 11 17  1  0
 12 11  1  0
 13 12  2  0
 14 15  1  0
 14  8  2  0
 15 10  2  0
 16  9  1  0
 17  7  1  0
 19 21  2  0
 20 19  1  0
 22 20  1  0
 23 32  2  0
 23 28  1  0
 24 20  1  0
 24 28  1  0
 25 24  1  0
 26 27  1  0
 26 25  1  0
 27 23  1  0
 28 29  2  0
 29 30  1  0
 31 30  2  0
 32 31  1  0
 33  7  1  0
 33 38  1  0
 33 34  1  0
 34 37  1  1
 34 35  1  0
 36 34  1  0
 38 41  1  0
 39 43  1  0
 39 38  1  0
 40 39  2  0
 43 42  1  0
 45 43  1  0
 45 46  1  0
 45 44  1  0
 47 48  1  0
 47  1  1  0
 48 49  1  0
 49 50  1  0
 50 51  1  0
 51 52  1  0
 52 54  1  0
 52 55  1  0
 52 53  1  0
 55 56  1  0
 57 56  1  0
 58 63  1  0
 59 60  1  0
 59 58  1  0
 61 60  1  0
 61 68  1  0
 61 62  1  0
 63 57  1  0
 63 62  1  0
 64 57  2  0
 65 66  2  0
 66 85  1  0
 67 66  1  0
 67 70  1  0
 68 65  1  0
 68 69  1  0
 69 67  2  0
 70 71  1  0
 71 72  2  0
 73 76  1  0
 73 72  1  0
 74 73  2  0
 75 74  1  0
 75 70  2  0
 76 77  1  0
 77 78  1  0
 78 79  2  0
 80 79  1  0
 80 84  1  0
 81 80  2  0
 82 77  2  0
 82 81  1  0
 83 82  1  0
 85 86  1  0
 86 89  1  0
 86 88  1  0
 87 85  2  0
 90 91  1  0
 90 65  1  0
 92 90  1  0
M  ISO  4   5 101   6 101  56 100  57 100
M  END
>  <TORSDO>  (58) 
F 26

>  <SCORE>  (58) 
-11.589

>  <name>  (58) 
57

>  <ligand_id>  (58) 
57

>  <original_smiles>  (58) 
[H]C(C(=O)C([H])([H])C([H])([H])C([H])([H])C([H])([H])C([H])([H])[N+]([H])([H])C([H])([H])C([H])([H])C(=O)N1C([H])([H])C([H])([H])C([H])([H])C([H])(n2nc(-c3c([H])c([H])c(Oc4c([H])c([H])c(F)c([H])c4F)c([H])c3[H])c(C(=O)N([H])[H])c2N([H])[H])C1([H])[H])=C([H])C([H])([H])Oc1c([H])c([H])c2c(c1[H])C([H])([H])N(C(=O)C([H])(N([H])C(=O)C([H])(N([H])C([H])([H])[H])C([H])([H])[H])C(C([H])([H])[H])(C([H])([H])[H])C([H])([H])[H])C([H])(C(=O)N([H])C1([H])c3c([H])c([H])c([H])c([H])c3C([H])([H])C([H])([H])C1([H])[H])C2([H])[H]

>  <smiles>  (58) 
[H]C(C(=O)C([H])([H])C([H])([H])C([H])([H])C([H])([H])C([H])([H])[N+]([H])([H])C([H])([H])C([H])([H])C(=O)N1C([H])([H])C([H])([H])C([H])([H])C([H])(n2nc(-c3c([H])c([H])c(Oc4c([H])c([H])c(F)c([H])c4F)c([H])c3[H])c(C(=O)N([H])[H])c2N([H])[H])C1([H])[H])=C([H])C([H])([H])Oc1c([H])c([H])c2c(c1[H])C([H])([H])N(C(=O)C([H])(N([H])C(=O)C([H])(N([H])C([H])([H])[H])C([H])([H])[H])C(C([H])([H])[H])(C([H])([H])[H])C([H])([H])[H])C([H])(C(=O)N([H])C1([H])c3c([H])c([H])c([H])c([H])c3C([H])([H])C([H])([H])C1([H])[H])C2([H])[H]

$$$$
58:0:0
     RDKit          3D

 97105  0  0  1  0  0  0  0  0999 V2000
  -27.7160  -23.7340   20.1740 C   0  0  0  0  0  3  0  0  0  0  0  0
  -24.2340  -24.2150   22.7580 C   0  0  0  0  0  3  0  0  0  0  0  0
  -24.1050  -23.6360   21.4810 C   0  0  0  0  0  3  0  0  0  0  0  0
  -25.4950  -24.6500   23.2060 C   0  0  0  0  0  3  0  0  0  0  0  0
  -25.2380  -23.4860   20.6590 C   0  0  0  0  0  3  0  0  0  0  0  0
  -26.6290  -24.4980   22.3830 C   0  0  0  0  0  3  0  0  0  0  0  0
  -26.5100  -23.9120   21.1010 C   0  0  0  0  0  0  0  0  0  0  0  0
  -27.8500  -24.8860   19.1540 C   0  0  0  0  0  2  0  0  0  0  0  0
  -28.2060  -26.2570   19.7600 C   0  0  0  0  0  2  0  0  0  0  0  0
  -27.9780  -27.3160   18.8300 O   0  0  0  0  0  0  0  0  0  0  0  0
  -24.2900  -31.6670   23.0410 C   0  0  0  0  0  0  0  0  0  0  0  0
  -26.7890  -27.9710   19.0330 C   0  0  0  0  0  0  0  0  0  0  0  0
  -22.9830  -30.4940   21.2980 C   0  0  0  0  0  3  0  0  0  0  0  0
  -24.3480  -29.2980   19.5120 C   0  0  0  0  0  0  0  0  0  0  0  0
  -25.4610  -31.0240   20.9390 C   0  0  0  0  0  2  0  0  0  0  0  0
  -25.5350  -29.7880   20.0710 C   0  0  0  0  0  0  0  0  0  0  0  0
  -26.7590  -29.1330   19.8280 C   0  0  0  0  0  3  0  0  0  0  0  0
  -25.5850  -27.4840   18.4760 C   0  0  0  0  0  3  0  0  0  0  0  0
  -24.3660  -28.1410   18.7160 C   0  0  0  0  0  3  0  0  0  0  0  0
  -23.0810  -30.0630   19.8120 C   0  0  0  0  0  2  0  0  0  0  0  0
  -24.2670  -31.0670   21.8180 N   0  0  0  0  0  0  0  0  0  0  0  0
  -23.2560  -31.7900   23.7130 O   0  0  0  0  0  0  0  0  0  0  0  0
  -22.4690  -29.2940   22.1250 C   0  0  0  0  0  0  0  0  0  0  0  0
  -21.1630  -29.0020   22.0020 N   0  0  0  0  0  0  0  0  0  0  0  0
  -23.2360  -28.6360   22.8310 O   0  0  0  0  0  0  0  0  0  0  0  0
  -20.6000  -29.5940   21.4070 H   0  0  0  0  0  0  0  0  0  0  0  0
  -17.9670  -27.3400   22.2700 C   0  0  0  0  0  0  0  0  0  0  0  0
  -20.4630  -27.8940   22.6520 C   0  0  0  0  0  3  0  0  0  0  0  0
  -20.7660  -26.5530   21.9440 C   0  0  0  0  0  2  0  0  0  0  0  0
  -19.7360  -26.1910   20.8700 C   0  0  0  0  0  2  0  0  0  0  0  0
  -18.3330  -26.0960   21.4780 C   0  0  0  0  0  2  0  0  0  0  0  0
  -18.9670  -28.1930   22.8070 C   0  0  0  0  0  0  0  0  0  0  0  0
  -18.5740  -29.3570   23.5040 C   0  0  0  0  0  3  0  0  0  0  0  0
  -17.2110  -29.6680   23.6730 C   0  0  0  0  0  3  0  0  0  0  0  0
  -16.2250  -28.8100   23.1550 C   0  0  0  0  0  3  0  0  0  0  0  0
  -16.6040  -27.6490   22.4590 C   0  0  0  0  0  3  0  0  0  0  0  0
  -25.6050  -32.2520   23.6430 C   0  0  0  0  0  3  0  0  0  0  0  0
  -26.2520  -31.3230   24.7440 C   0  0  1  0  0  0  0  0  0  0  0  0
  -25.2650  -30.8980   25.8570 C   0  0  0  0  0  1  0  0  0  0  0  0
  -26.8240  -30.0380   24.1010 C   0  0  0  0  0  1  0  0  0  0  0  0
  -27.4430  -32.0530   25.4100 C   0  0  0  0  0  1  0  0  0  0  0  0
  -25.2900  -33.5740   24.1990 N   0  0  0  0  0  0  0  0  0  0  0  0
  -25.5850  -34.7380   23.6060 C   0  0  0  0  0  0  0  0  0  0  0  0
  -26.2260  -34.8110   22.5540 O   0  0  0  0  0  0  0  0  0  0  0  0
  -24.7210  -33.5910   25.0330 H   0  0  0  0  0  0  0  0  0  0  0  0
  -23.8270  -36.5360   23.5730 C   0  0  0  0  0  1  0  0  0  0  0  0
  -25.0880  -36.0260   24.2890 C   0  0  0  0  0  3  0  0  0  0  0  0
  -27.2280  -36.7940   25.2180 C   0  0  0  0  0  1  0  0  0  0  0  0
  -26.1060  -37.1000   24.3330 N   0  0  0  0  0  0  0  0  0  0  0  0
  -25.6910  -37.9760   24.6360 H   0  0  0  0  0  0  0  0  0  0  0  0
  -29.0540  -23.4230   20.8850 C   0  0  0  0  0  2  0  0  0  0  0  0
  -29.1020  -22.0290   21.5300 C   0  0  0  0  0  2  0  0  0  0  0  0
  -30.5360  -21.5140   21.6980 C   0  0  0  0  0  2  0  0  0  0  0  0
  -30.5880  -20.1970   22.4870 C   0  0  0  0  0  2  0  0  0  0  0  0
  -31.9950  -19.5810   22.5800 C   0  0  0  0  0  2  0  0  0  0  0  0
  -32.4400  -18.8100   21.3260 C   0  0  0  0  0  2  0  0  0  0  0  0
  -31.8050  -17.4160   21.1680 C   0  0  0  0  0  2  0  0  0  0  0  0
  -32.3630  -16.6850   19.9350 C   0  0  0  0  0  2  0  0  0  0  0  0
  -32.7340  -15.2110   20.1580 C   0  0  0  0  0  2  0  0  0  0  0  0
  -31.5300  -13.3880   18.9500 C   0  0  0  0  0  0  0  0  0  0  0  0
  -30.9700  -11.0060   18.6890 C   0  0  0  0  0  2  0  0  0  0  0  0
  -29.8680  -10.7050   17.6640 C   0  0  0  0  0  2  0  0  0  0  0  0
  -28.4790  -10.8090   18.3170 C   0  0  0  0  0  2  0  0  0  0  0  0
  -28.2920  -12.1390   19.0890 C   0  0  0  0  0  3  0  0  0  0  0  0
  -29.4830  -12.4130   20.0350 C   0  0  0  0  0  2  0  0  0  0  0  0
  -30.7390  -12.3360   19.2650 N   0  0  0  0  0  0  0  0  0  0  0  0
  -32.2950  -13.4090   17.9800 O   0  0  0  0  0  0  0  0  0  0  0  0
  -31.6220  -14.2860   19.9410 N   0  0  0  0  0  0  0  0  0  0  0  0
  -31.0060  -14.1330   20.7260 H   0  0  0  0  0  0  0  0  0  0  0  0
  -26.3040  -13.2370   20.3070 C   0  0  0  0  0  0  0  0  0  0  0  0
  -25.1470  -12.7170   20.8220 C   0  0  0  0  0  0  0  0  0  0  0  0
  -25.2120  -11.3080   20.5950 C   0  0  0  0  0  0  0  0  0  0  0  0
  -27.0170  -12.1570   19.8070 N   0  0  0  0  0  0  0  0  0  0  0  0
  -26.3690  -10.9850   20.0320 N   0  0  0  0  0  0  0  0  0  0  0  0
  -24.2150  -10.2560   20.8310 C   0  0  0  0  0  0  0  0  0  0  0  0
  -24.5020   -9.1340   21.6400 C   0  0  0  0  0  3  0  0  0  0  0  0
  -23.5210   -8.1440   21.8660 C   0  0  0  0  0  3  0  0  0  0  0  0
  -22.2380   -8.2710   21.2840 C   0  0  0  0  0  0  0  0  0  0  0  0
  -21.9650   -9.3770   20.4600 C   0  0  0  0  0  3  0  0  0  0  0  0
  -22.9440  -10.3590   20.2320 C   0  0  0  0  0  3  0  0  0  0  0  0
  -21.2310   -7.3460   21.4260 O   0  0  0  0  0  0  0  0  0  0  0  0
  -21.1450   -6.5410   22.5340 C   0  0  0  0  0  0  0  0  0  0  0  0
  -20.9880   -7.0730   23.8320 C   0  0  0  0  0  3  0  0  0  0  0  0
  -20.8330   -6.2090   24.9340 C   0  0  0  0  0  3  0  0  0  0  0  0
  -20.8280   -4.8150   24.7400 C   0  0  0  0  0  0  0  0  0  0  0  0
  -20.9790   -4.2820   23.4470 C   0  0  0  0  0  3  0  0  0  0  0  0
  -21.1350   -5.1440   22.3470 C   0  0  0  0  0  0  0  0  0  0  0  0
  -21.2580   -4.6260   21.1010 F   0  0  0  0  0  0  0  0  0  0  0  0
  -20.6710   -3.9830   25.7960 F   0  0  0  0  0  0  0  0  0  0  0  0
  -24.0010  -13.4910   21.4080 C   0  0  0  0  0  0  0  0  0  0  0  0
  -23.3030  -12.9120   22.3780 N   0  0  0  0  0  0  0  0  0  0  0  0
  -23.7490  -14.6370   21.0390 O   0  0  0  0  0  0  0  0  0  0  0  0
  -23.5240  -11.9790   22.6950 H   0  0  0  0  0  0  0  0  0  0  0  0
  -22.5360  -13.4070   22.8100 H   0  0  0  0  0  0  0  0  0  0  0  0
  -26.8020  -14.5320   20.2060 N   0  0  0  0  0  0  0  0  0  0  0  0
  -26.2790  -15.3420   20.5190 H   0  0  0  0  0  0  0  0  0  0  0  0
  -27.6830  -14.7740   19.7700 H   0  0  0  0  0  0  0  0  0  0  0  0
  1  8  1  0
  1 51  1  0
  1  7  1  0
  2  4  1  0
  3  2  2  0
  5  7  2  0
  5  3  1  0
  6  4  2  0
  7  6  1  0
  8  9  1  0
 10 12  1  0
 10  9  1  0
 11 22  2  0
 12 17  1  0
 13 21  1  0
 13 23  1  0
 14 20  1  0
 14 16  1  0
 15 21  1  0
 16 15  1  0
 17 16  2  0
 18 19  1  0
 18 12  2  0
 19 14  2  0
 20 13  1  0
 21 11  1  0
 23 25  2  0
 24 23  1  0
 26 24  1  0
 27 36  2  0
 27 32  1  0
 28 24  1  0
 28 32  1  0
 29 28  1  0
 30 31  1  0
 30 29  1  0
 31 27  1  0
 32 33  2  0
 33 34  1  0
 35 34  2  0
 36 35  1  0
 37 11  1  0
 37 42  1  0
 37 38  1  0
 38 41  1  1
 38 39  1  0
 40 38  1  0
 42 45  1  0
 43 42  1  0
 43 47  1  0
 44 43  2  0
 47 46  1  0
 47 49  1  0
 49 50  1  0
 49 48  1  0
 51 52  1  0
 52 53  1  0
 53 54  1  0
 54 55  1  0
 56 55  1  0
 57 56  1  0
 58 59  1  0
 58 57  1  0
 60 66  1  0
 60 68  1  0
 61 66  1  0
 62 63  1  0
 62 61  1  0
 64 63  1  0
 64 73  1  0
 64 65  1  0
 66 65  1  0
 67 60  2  0
 68 59  1  0
 68 69  1  0
 70 71  2  0
 71 90  1  0
 72 71  1  0
 72 75  1  0
 73 74  1  0
 73 70  1  0
 74 72  2  0
 75 76  1  0
 76 77  2  0
 78 81  1  0
 78 77  1  0
 79 78  2  0
 80 79  1  0
 80 75  2  0
 81 82  1  0
 82 83  1  0
 83 84  2  0
 85 84  1  0
 85 89  1  0
 86 85  2  0
 87 82  2  0
 87 86  1  0
 88 87  1  0
 90 91  1  0
 91 93  1  0
 91 94  1  0
 92 90  2  0
 95 70  1  0
 95 96  1  0
 97 95  1  0
M  ISO  4   9 101  10 101  60 100  68 100
M  END
>  <TORSDO>  (59) 
F 28

>  <SCORE>  (59) 
-7.492

>  <name>  (59) 
58

>  <ligand_id>  (59) 
58

>  <original_smiles>  (59) 
[H]c1c([H])c([H])c(C([H])(C([H])([H])C([H])([H])Oc2c([H])c([H])c3c(c2[H])C([H])([H])N(C(=O)C([H])(N([H])C(=O)C([H])(N([H])C([H])([H])[H])C([H])([H])[H])C(C([H])([H])[H])(C([H])([H])[H])C([H])([H])[H])C([H])(C(=O)N([H])C2([H])c4c([H])c([H])c([H])c([H])c4C([H])([H])C([H])([H])C2([H])[H])C3([H])[H])C([H])([H])C([H])([H])C([H])([H])C([H])([H])C([H])([H])C([H])([H])C([H])([H])C([H])([H])C([H])([H])N([H])C(=O)N2C([H])([H])C([H])([H])C([H])([H])C([H])(n3nc(-c4c([H])c([H])c(Oc5c([H])c([H])c(F)c([H])c5F)c([H])c4[H])c(C(=O)N([H])[H])c3N([H])[H])C2([H])[H])c([H])c1[H]

>  <smiles>  (59) 
[H]c1c([H])c([H])c(C([H])(C([H])([H])C([H])([H])Oc2c([H])c([H])c3c(c2[H])C([H])([H])N(C(=O)C([H])(N([H])C(=O)C([H])(N([H])C([H])([H])[H])C([H])([H])[H])C(C([H])([H])[H])(C([H])([H])[H])C([H])([H])[H])C([H])(C(=O)N([H])C2([H])c4c([H])c([H])c([H])c([H])c4C([H])([H])C([H])([H])C2([H])[H])C3([H])[H])C([H])([H])C([H])([H])C([H])([H])C([H])([H])C([H])([H])C([H])([H])C([H])([H])C([H])([H])C([H])([H])N([H])C(=O)N2C([H])([H])C([H])([H])C([H])([H])C([H])(n3nc(-c4c([H])c([H])c(Oc5c([H])c([H])c(F)c([H])c5F)c([H])c4[H])c(C(=O)N([H])[H])c3N([H])[H])C2([H])[H])c([H])c1[H]

$$$$
59:0:0
     RDKit          3D

 92 99  0  0  1  0  0  0  0  0999 V2000
  -28.5760  -23.2600   20.7120 C   0  0  0  0  0  3  0  0  0  0  0  0
  -29.0290  -22.4490   19.4630 C   0  0  0  0  0  2  0  0  0  0  0  0
  -28.1560  -21.2530   19.0510 C   0  0  0  0  0  0  0  0  0  0  0  0
  -27.5450  -21.2870   17.9810 O   0  0  0  0  0  0  0  0  0  0  0  0
  -28.0330  -20.0200   19.9530 C   0  0  0  0  0  2  0  0  0  0  0  0
  -29.3250  -19.2000   20.1280 C   0  0  0  0  0  2  0  0  0  0  0  0
  -29.0260  -17.7420   20.5430 C   0  0  0  0  0  2  0  0  0  0  0  0
  -30.2910  -16.9470   20.9240 C   0  0  0  0  0  2  0  0  0  0  0  0
  -30.7040  -14.5390   20.4260 C   0  0  0  0  0  0  0  0  0  0  0  0
  -30.4050  -12.4260   19.2040 C   0  0  0  0  0  2  0  0  0  0  0  0
  -29.4580  -12.6810   18.0130 C   0  0  0  0  0  2  0  0  0  0  0  0
  -27.9870  -12.5310   18.4430 C   0  0  0  0  0  2  0  0  0  0  0  0
  -27.6580  -13.3230   19.7350 C   0  0  0  0  0  3  0  0  0  0  0  0
  -28.7150  -13.0490   20.8300 C   0  0  0  0  0  2  0  0  0  0  0  0
  -30.0390  -13.3660   20.2740 N   0  0  0  0  0  0  0  0  0  0  0  0
  -31.8090  -14.7630   19.9250 O   0  0  0  0  0  0  0  0  0  0  0  0
  -30.0000  -15.5120   21.0190 N   0  0  0  0  0  0  0  0  0  0  0  0
  -29.1230  -15.2440   21.4370 H   0  0  0  0  0  0  0  0  0  0  0  0
  -25.2380  -13.9060   20.4090 C   0  0  0  0  0  0  0  0  0  0  0  0
  -24.1770  -13.1230   20.7790 C   0  0  0  0  0  0  0  0  0  0  0  0
  -24.6580  -11.7770   20.7670 C   0  0  0  0  0  0  0  0  0  0  0  0
  -26.3010  -13.0400   20.2020 N   0  0  0  0  0  0  0  0  0  0  0  0
  -25.9520  -11.7530   20.4690 N   0  0  0  0  0  0  0  0  0  0  0  0
  -23.9490  -10.5080   20.9670 C   0  0  0  0  0  0  0  0  0  0  0  0
  -24.3840   -9.5610   21.9210 C   0  0  0  0  0  3  0  0  0  0  0  0
  -23.6780   -8.3550   22.1070 C   0  0  0  0  0  3  0  0  0  0  0  0
  -22.5230   -8.0830   21.3340 C   0  0  0  0  0  0  0  0  0  0  0  0
  -22.1060   -9.0180   20.3710 C   0  0  0  0  0  3  0  0  0  0  0  0
  -22.8120  -10.2180   20.1840 C   0  0  0  0  0  3  0  0  0  0  0  0
  -21.7880   -6.9260   21.4280 O   0  0  0  0  0  0  0  0  0  0  0  0
  -21.7280   -6.2040   22.5930 C   0  0  0  0  0  0  0  0  0  0  0  0
  -21.2470   -6.7690   23.7930 C   0  0  0  0  0  3  0  0  0  0  0  0
  -21.1360   -5.9730   24.9510 C   0  0  0  0  0  3  0  0  0  0  0  0
  -21.4940   -4.6130   24.9080 C   0  0  0  0  0  0  0  0  0  0  0  0
  -21.9660   -4.0460   23.7120 C   0  0  0  0  0  3  0  0  0  0  0  0
  -22.0780   -4.8390   22.5560 C   0  0  0  0  0  0  0  0  0  0  0  0
  -22.5130   -4.2840   21.3990 F   0  0  0  0  0  0  0  0  0  0  0  0
  -21.3810   -3.8450   26.0170 F   0  0  0  0  0  0  0  0  0  0  0  0
  -22.7720  -13.5840   21.0320 C   0  0  0  0  0  0  0  0  0  0  0  0
  -22.0520  -12.8910   21.9050 N   0  0  0  0  0  0  0  0  0  0  0  0
  -22.3210  -14.5910   20.4890 O   0  0  0  0  0  0  0  0  0  0  0  0
  -22.4340  -12.0810   22.3680 H   0  0  0  0  0  0  0  0  0  0  0  0
  -21.1060  -13.1750   22.1110 H   0  0  0  0  0  0  0  0  0  0  0  0
  -25.3780  -15.2760   20.2130 N   0  0  0  0  0  0  0  0  0  0  0  0
  -24.6010  -15.9200   20.3150 H   0  0  0  0  0  0  0  0  0  0  0  0
  -26.2300  -15.7280   19.9080 H   0  0  0  0  0  0  0  0  0  0  0  0
  -27.0460  -23.3640   20.9500 C   0  0  0  0  0  2  0  0  0  0  0  0
  -26.6590  -22.4890   21.9890 O   0  0  0  0  0  0  0  0  0  0  0  0
  -25.8980  -22.8660   22.4280 H   0  0  0  0  0  0  0  0  0  0  0  0
  -29.1970  -24.6770   20.7390 C   0  0  0  0  0  2  0  0  0  0  0  0
  -28.7770  -25.6010   19.5760 C   0  0  0  0  0  2  0  0  0  0  0  0
  -28.5830  -26.9270   20.0720 O   0  0  0  0  0  0  0  0  0  0  0  0
  -24.6340  -31.9000   23.2480 C   0  0  0  0  0  0  0  0  0  0  0  0
  -27.3430  -27.5330   20.1020 C   0  0  0  0  0  0  0  0  0  0  0  0
  -23.4380  -30.4900   21.6040 C   0  0  0  0  0  3  0  0  0  0  0  0
  -24.9050  -28.9820   20.1690 C   0  0  0  0  0  0  0  0  0  0  0  0
  -25.9550  -30.8910   21.3930 C   0  0  0  0  0  2  0  0  0  0  0  0
  -26.0570  -29.5250   20.7430 C   0  0  0  0  0  0  0  0  0  0  0  0
  -27.2710  -28.8070   20.7110 C   0  0  0  0  0  3  0  0  0  0  0  0
  -26.1570  -26.9900   19.5430 C   0  0  0  0  0  3  0  0  0  0  0  0
  -24.9450  -27.7080   19.5780 C   0  0  0  0  0  3  0  0  0  0  0  0
  -23.6500  -29.8190   20.2220 C   0  0  0  0  0  2  0  0  0  0  0  0
  -24.6950  -31.1090   22.1400 N   0  0  0  0  0  0  0  0  0  0  0  0
  -23.5520  -32.1510   23.7970 O   0  0  0  0  0  0  0  0  0  0  0  0
  -22.8100  -29.4540   22.5600 C   0  0  0  0  0  0  0  0  0  0  0  0
  -21.4910  -29.2410   22.4250 N   0  0  0  0  0  0  0  0  0  0  0  0
  -23.5010  -28.8430   23.3780 O   0  0  0  0  0  0  0  0  0  0  0  0
  -20.9930  -29.7840   21.7340 H   0  0  0  0  0  0  0  0  0  0  0  0
  -18.1410  -27.9700   22.8880 C   0  0  0  0  0  0  0  0  0  0  0  0
  -20.6900  -28.2850   23.1870 C   0  0  0  0  0  3  0  0  0  0  0  0
  -20.8310  -26.8580   22.6090 C   0  0  0  0  0  2  0  0  0  0  0  0
  -19.7450  -26.5120   21.5850 C   0  0  0  0  0  2  0  0  0  0  0  0
  -18.3550  -26.6240   22.2160 C   0  0  0  0  0  2  0  0  0  0  0  0
  -19.2380  -28.7570   23.3290 C   0  0  0  0  0  0  0  0  0  0  0  0
  -18.9830  -30.0170   23.9140 C   0  0  0  0  0  3  0  0  0  0  0  0
  -17.6660  -30.4890   24.0650 C   0  0  0  0  0  3  0  0  0  0  0  0
  -16.5830  -29.6970   23.6440 C   0  0  0  0  0  3  0  0  0  0  0  0
  -16.8220  -28.4400   23.0590 C   0  0  0  0  0  3  0  0  0  0  0  0
  -25.9140  -32.5400   23.8660 C   0  0  0  0  0  3  0  0  0  0  0  0
  -26.4420  -31.7740   25.1410 C   0  0  1  0  0  0  0  0  0  0  0  0
  -25.3540  -31.5290   26.2120 C   0  0  0  0  0  1  0  0  0  0  0  0
  -27.0330  -30.4000   24.7470 C   0  0  0  0  0  1  0  0  0  0  0  0
  -27.5880  -32.5780   25.7990 C   0  0  0  0  0  1  0  0  0  0  0  0
  -25.5980  -33.9380   24.1890 N   0  0  0  0  0  0  0  0  0  0  0  0
  -25.9300  -34.9880   23.4260 C   0  0  0  0  0  0  0  0  0  0  0  0
  -26.6060  -34.8830   22.3970 O   0  0  0  0  0  0  0  0  0  0  0  0
  -24.9950  -34.0950   24.9840 H   0  0  0  0  0  0  0  0  0  0  0  0
  -24.1980  -36.7710   23.0470 C   0  0  0  0  0  1  0  0  0  0  0  0
  -25.4330  -36.3750   23.8720 C   0  0  0  0  0  3  0  0  0  0  0  0
  -27.5530  -37.2750   24.7210 C   0  0  0  0  0  1  0  0  0  0  0  0
  -26.4620  -37.4320   23.7640 N   0  0  0  0  0  0  0  0  0  0  0  0
  -26.0500  -38.3530   23.9000 H   0  0  0  0  0  0  0  0  0  0  0  0
  1  2  1  0
  1 50  1  0
  1 47  1  0
  3  2  1  0
  3  5  1  0
  4  3  2  0
  5  6  1  0
  6  7  1  0
  7  8  1  0
  8 17  1  0
  9 17  1  0
 10 15  1  0
 11 12  1  0
 11 10  1  0
 13 12  1  0
 13 22  1  0
 13 14  1  0
 15  9  1  0
 15 14  1  0
 16  9  2  0
 17 18  1  0
 19 20  2  0
 20 39  1  0
 21 20  1  0
 21 24  1  0
 22 19  1  0
 22 23  1  0
 23 21  2  0
 24 25  1  0
 25 26  2  0
 27 30  1  0
 27 26  1  0
 28 27  2  0
 29 28  1  0
 29 24  2  0
 30 31  1  0
 31 32  1  0
 32 33  2  0
 34 33  1  0
 34 38  1  0
 35 34  2  0
 36 31  2  0
 36 35  1  0
 37 36  1  0
 39 40  1  0
 40 43  1  0
 40 42  1  0
 41 39  2  0
 44 45  1  0
 44 19  1  0
 46 44  1  0
 47 48  1  0
 48 49  1  0
 51 52  1  0
 51 50  1  0
 52 54  1  0
 53 64  2  0
 54 59  1  0
 55 63  1  0
 55 65  1  0
 56 62  1  0
 56 58  1  0
 57 63  1  0
 58 57  1  0
 59 58  2  0
 60 61  1  0
 60 54  2  0
 61 56  2  0
 62 55  1  0
 63 53  1  0
 65 67  2  0
 66 65  1  0
 68 66  1  0
 69 78  2  0
 69 74  1  0
 70 66  1  0
 70 74  1  0
 71 70  1  0
 72 73  1  0
 72 71  1  0
 73 69  1  0
 74 75  2  0
 75 76  1  0
 77 76  2  0
 78 77  1  0
 79 53  1  0
 79 84  1  0
 79 80  1  0
 80 83  1  1
 80 81  1  0
 82 80  1  0
 84 87  1  0
 85 89  1  0
 85 84  1  0
 86 85  2  0
 89 88  1  0
 91 89  1  0
 91 92  1  0
 91 90  1  0
M  ISO  4   9 100  17 100  51 101  52 101
M  END
>  <TORSDO>  (60) 
F 26

>  <SCORE>  (60) 
-12.245

>  <name>  (60) 
59

>  <ligand_id>  (60) 
59

>  <original_smiles>  (60) 
[H]OC([H])([H])C([H])(C([H])([H])C(=O)C([H])([H])C([H])([H])C([H])([H])C([H])([H])N([H])C(=O)N1C([H])([H])C([H])([H])C([H])([H])C([H])(n2nc(-c3c([H])c([H])c(Oc4c([H])c([H])c(F)c([H])c4F)c([H])c3[H])c(C(=O)N([H])[H])c2N([H])[H])C1([H])[H])C([H])([H])C([H])([H])Oc1c([H])c([H])c2c(c1[H])C([H])([H])N(C(=O)C([H])(N([H])C(=O)C([H])(N([H])C([H])([H])[H])C([H])([H])[H])C(C([H])([H])[H])(C([H])([H])[H])C([H])([H])[H])C([H])(C(=O)N([H])C1([H])c3c([H])c([H])c([H])c([H])c3C([H])([H])C([H])([H])C1([H])[H])C2([H])[H]

>  <smiles>  (60) 
[H]OC([H])([H])C([H])(C([H])([H])C(=O)C([H])([H])C([H])([H])C([H])([H])C([H])([H])N([H])C(=O)N1C([H])([H])C([H])([H])C([H])([H])C([H])(n2nc(-c3c([H])c([H])c(Oc4c([H])c([H])c(F)c([H])c4F)c([H])c3[H])c(C(=O)N([H])[H])c2N([H])[H])C1([H])[H])C([H])([H])C([H])([H])Oc1c([H])c([H])c2c(c1[H])C([H])([H])N(C(=O)C([H])(N([H])C(=O)C([H])(N([H])C([H])([H])[H])C([H])([H])[H])C(C([H])([H])[H])(C([H])([H])[H])C([H])([H])[H])C([H])(C(=O)N([H])C1([H])c3c([H])c([H])c([H])c([H])c3C([H])([H])C([H])([H])C1([H])[H])C2([H])[H]

$$$$
60:0:0
     RDKit          3D

 95104  0  0  1  0  0  0  0  0999 V2000
  -24.3100  -21.1860   24.3840 C   0  0  0  0  0  3  0  0  0  0  0  0
  -25.4610  -20.3880   24.5120 C   0  0  0  0  0  3  0  0  0  0  0  0
  -24.1410  -22.0050   23.2510 C   0  0  0  0  0  3  0  0  0  0  0  0
  -26.2720  -21.2130   22.3680 C   0  0  0  0  0  3  0  0  0  0  0  0
  -26.4490  -20.4110   23.5090 C   0  0  0  0  0  0  0  0  0  0  0  0
  -25.1300  -22.0230   22.2440 C   0  0  0  0  0  0  0  0  0  0  0  0
  -27.7150  -19.5980   23.6570 C   0  0  0  0  0  2  0  0  0  0  0  0
  -27.4880  -18.0990   23.4130 C   0  0  0  0  0  2  0  0  0  0  0  0
  -30.7520  -14.3920   20.6440 C   0  0  0  0  0  0  0  0  0  0  0  0
  -30.4170  -12.2780   19.4080 C   0  0  0  0  0  2  0  0  0  0  0  0
  -29.4970  -12.5310   18.1960 C   0  0  0  0  0  2  0  0  0  0  0  0
  -28.0130  -12.3980   18.5940 C   0  0  0  0  0  2  0  0  0  0  0  0
  -27.6660  -13.2030   19.8730 C   0  0  0  0  0  3  0  0  0  0  0  0
  -28.7010  -12.9310   20.9820 C   0  0  0  0  0  2  0  0  0  0  0  0
  -30.0460  -13.2390   20.4590 N   0  0  0  0  0  0  0  0  0  0  0  0
  -31.7970  -14.6340   20.0330 O   0  0  0  0  0  0  0  0  0  0  0  0
  -29.0090  -17.5430   21.4220 C   0  0  0  0  0  2  0  0  0  0  0  0
  -28.7560  -15.8890   23.3160 C   0  0  0  0  0  2  0  0  0  0  0  0
  -30.2630  -16.7660   20.9760 C   0  0  0  0  0  2  0  0  0  0  0  0
  -30.0590  -15.2280   22.8390 C   0  0  0  0  0  2  0  0  0  0  0  0
  -28.7660  -17.3820   22.9420 C   0  0  0  0  0  3  0  0  0  0  0  0
  -30.1550  -15.3550   21.3810 N   0  0  0  0  0  0  0  0  0  0  0  0
  -25.2610  -13.8140   20.5650 C   0  0  0  0  0  0  0  0  0  0  0  0
  -24.1870  -13.0410   20.9150 C   0  0  0  0  0  0  0  0  0  0  0  0
  -24.6420  -11.6880   20.8690 C   0  0  0  0  0  0  0  0  0  0  0  0
  -26.3050  -12.9320   20.3320 N   0  0  0  0  0  0  0  0  0  0  0  0
  -25.9330  -11.6470   20.5700 N   0  0  0  0  0  0  0  0  0  0  0  0
  -23.9070  -10.4280   21.0380 C   0  0  0  0  0  0  0  0  0  0  0  0
  -24.3620   -9.4210   21.9180 C   0  0  0  0  0  3  0  0  0  0  0  0
  -23.6300   -8.2250   22.0740 C   0  0  0  0  0  3  0  0  0  0  0  0
  -22.4280   -8.0280   21.3540 C   0  0  0  0  0  0  0  0  0  0  0  0
  -21.9910   -9.0250   20.4650 C   0  0  0  0  0  3  0  0  0  0  0  0
  -22.7230  -10.2130   20.3050 C   0  0  0  0  0  3  0  0  0  0  0  0
  -21.6630   -6.8890   21.4250 O   0  0  0  0  0  0  0  0  0  0  0  0
  -21.6850   -6.0750   22.5280 C   0  0  0  0  0  0  0  0  0  0  0  0
  -21.4010   -6.5640   23.8210 C   0  0  0  0  0  3  0  0  0  0  0  0
  -21.3660   -5.6810   24.9180 C   0  0  0  0  0  3  0  0  0  0  0  0
  -21.6050   -4.3060   24.7240 C   0  0  0  0  0  0  0  0  0  0  0  0
  -21.8820   -3.8150   23.4360 C   0  0  0  0  0  3  0  0  0  0  0  0
  -21.9190   -4.6970   22.3410 C   0  0  0  0  0  0  0  0  0  0  0  0
  -22.1670   -4.2150   21.0990 F   0  0  0  0  0  0  0  0  0  0  0  0
  -21.5630   -3.4550   25.7750 F   0  0  0  0  0  0  0  0  0  0  0  0
  -22.7890  -13.5200   21.1850 C   0  0  0  0  0  0  0  0  0  0  0  0
  -22.0530  -12.8180   22.0390 N   0  0  0  0  0  0  0  0  0  0  0  0
  -22.3570  -14.5510   20.6720 O   0  0  0  0  0  0  0  0  0  0  0  0
  -22.4180  -11.9870   22.4830 H   0  0  0  0  0  0  0  0  0  0  0  0
  -21.1160  -13.1190   22.2610 H   0  0  0  0  0  0  0  0  0  0  0  0
  -25.4260  -15.1890   20.4100 N   0  0  0  0  0  0  0  0  0  0  0  0
  -24.6450  -15.8270   20.5180 H   0  0  0  0  0  0  0  0  0  0  0  0
  -26.2820  -15.6460   20.1240 H   0  0  0  0  0  0  0  0  0  0  0  0
  -25.0010  -22.9400   21.0470 C   0  0  0  0  0  2  0  0  0  0  0  0
  -25.8260  -24.2300   21.2090 C   0  0  0  0  0  2  0  0  0  0  0  0
  -27.3080  -24.1080   20.7470 C   0  0  0  0  0  2  0  0  0  0  0  0
  -28.2210  -25.3880   20.8280 C   0  0  0  0  0  2  0  0  0  0  0  0
  -28.3340  -26.6700   20.1520 O   0  0  0  0  0  0  0  0  0  0  0  0
  -24.6080  -31.8750   23.2170 C   0  0  0  0  0  0  0  0  0  0  0  0
  -27.2060  -27.4650   20.0970 C   0  0  0  0  0  0  0  0  0  0  0  0
  -23.3930  -30.5000   21.5580 C   0  0  0  0  0  3  0  0  0  0  0  0
  -24.8350  -28.9810   20.1100 C   0  0  0  0  0  0  0  0  0  0  0  0
  -25.9190  -30.8480   21.3690 C   0  0  0  0  0  2  0  0  0  0  0  0
  -25.9940  -29.4860   20.7150 C   0  0  0  0  0  0  0  0  0  0  0  0
  -27.1850  -28.7300   20.7190 C   0  0  0  0  0  3  0  0  0  0  0  0
  -26.0560  -27.0020   19.4330 C   0  0  0  0  0  3  0  0  0  0  0  0
  -24.8570  -27.7310   19.4700 C   0  0  0  0  0  3  0  0  0  0  0  0
  -23.5970  -29.8430   20.1690 C   0  0  0  0  0  2  0  0  0  0  0  0
  -24.6590  -31.0870   22.1060 N   0  0  0  0  0  0  0  0  0  0  0  0
  -23.5270  -32.1490   23.7590 O   0  0  0  0  0  0  0  0  0  0  0  0
  -22.7370  -29.4680   22.5040 C   0  0  0  0  0  0  0  0  0  0  0  0
  -21.4100  -29.3020   22.3770 N   0  0  0  0  0  0  0  0  0  0  0  0
  -23.4160  -28.8230   23.3080 O   0  0  0  0  0  0  0  0  0  0  0  0
  -20.9240  -29.8730   21.7000 H   0  0  0  0  0  0  0  0  0  0  0  0
  -18.0270  -28.1350   22.8500 C   0  0  0  0  0  0  0  0  0  0  0  0
  -20.5850  -28.3630   23.1340 C   0  0  0  0  0  3  0  0  0  0  0  0
  -20.6780  -26.9380   22.5400 C   0  0  0  0  0  2  0  0  0  0  0  0
  -19.5740  -26.6360   21.5210 C   0  0  0  0  0  2  0  0  0  0  0  0
  -18.1910  -26.7900   22.1630 C   0  0  0  0  0  2  0  0  0  0  0  0
  -19.1510  -28.8800   23.2930 C   0  0  0  0  0  0  0  0  0  0  0  0
  -18.9440  -30.1410   23.8930 C   0  0  0  0  0  3  0  0  0  0  0  0
  -17.6440  -30.6560   24.0570 C   0  0  0  0  0  3  0  0  0  0  0  0
  -16.5330  -29.9070   23.6310 C   0  0  0  0  0  3  0  0  0  0  0  0
  -16.7260  -28.6480   23.0340 C   0  0  0  0  0  3  0  0  0  0  0  0
  -25.8990  -32.4870   23.8440 C   0  0  0  0  0  3  0  0  0  0  0  0
  -25.5870  -33.8670   24.2380 N   0  0  0  0  0  0  0  0  0  0  0  0
  -25.9010  -34.9510   23.5170 C   0  0  0  0  0  0  0  0  0  0  0  0
  -26.5570  -34.8940   22.4740 O   0  0  0  0  0  0  0  0  0  0  0  0
  -25.0000  -33.9840   25.0520 H   0  0  0  0  0  0  0  0  0  0  0  0
  -24.1480  -36.7330   23.2640 C   0  0  0  0  0  1  0  0  0  0  0  0
  -25.4100  -36.3150   24.0360 C   0  0  0  0  0  3  0  0  0  0  0  0
  -27.5590  -37.1840   24.8480 C   0  0  0  0  0  1  0  0  0  0  0  0
  -26.4310  -37.3820   23.9400 N   0  0  0  0  0  0  0  0  0  0  0  0
  -26.0220  -38.2910   24.1370 H   0  0  0  0  0  0  0  0  0  0  0  0
  -26.4450  -31.6620   25.0740 C   0  0  1  0  0  0  0  0  0  0  0  0
  -25.3740  -31.3690   26.1490 C   0  0  0  0  0  1  0  0  0  0  0  0
  -27.0290  -30.3070   24.6100 C   0  0  0  0  0  1  0  0  0  0  0  0
  -27.6060  -32.4310   25.7470 C   0  0  0  0  0  1  0  0  0  0  0  0
  1  2  1  0
  3  1  2  0
  4  5  1  0
  5  7  1  0
  5  2  2  0
  6  4  2  0
  6  3  1  0
  8  7  1  0
  9 22  1  0
 10 15  1  0
 11 12  1  0
 11 10  1  0
 13 12  1  0
 13 26  1  0
 13 14  1  0
 15  9  1  0
 15 14  1  0
 16  9  2  0
 17 21  1  0
 19 22  1  0
 19 17  1  0
 20 18  1  0
 21 18  1  0
 21  8  1  0
 22 20  1  0
 23 24  2  0
 24 43  1  0
 25 24  1  0
 25 28  1  0
 26 23  1  0
 26 27  1  0
 27 25  2  0
 28 29  1  0
 29 30  2  0
 31 34  1  0
 31 30  1  0
 32 31  2  0
 33 32  1  0
 33 28  2  0
 34 35  1  0
 35 36  1  0
 36 37  2  0
 38 37  1  0
 38 42  1  0
 39 38  2  0
 40 35  2  0
 40 39  1  0
 41 40  1  0
 43 44  1  0
 44 47  1  0
 44 46  1  0
 45 43  2  0
 48 49  1  0
 48 23  1  0
 50 48  1  0
 51 52  1  0
 51  6  1  0
 53 54  1  0
 53 52  1  0
 55 54  1  0
 56 67  2  0
 57 55  1  0
 57 62  1  0
 58 66  1  0
 58 68  1  0
 59 65  1  0
 59 61  1  0
 60 66  1  0
 61 62  2  0
 61 60  1  0
 63 64  1  0
 63 57  2  0
 64 59  2  0
 65 58  1  0
 66 56  1  0
 68 70  2  0
 69 68  1  0
 71 69  1  0
 72 81  2  0
 72 77  1  0
 73 69  1  0
 73 77  1  0
 74 73  1  0
 75 76  1  0
 75 74  1  0
 76 72  1  0
 77 78  2  0
 78 79  1  0
 80 79  2  0
 81 80  1  0
 82 56  1  0
 82 83  1  0
 82 92  1  0
 83 86  1  0
 84 88  1  0
 84 83  1  0
 85 84  2  0
 88 87  1  0
 90 88  1  0
 90 91  1  0
 90 89  1  0
 92 95  1  1
 92 93  1  0
 94 92  1  0
M  ISO  4   9 100  22 100  54 101  55 101
M  END
>  <TORSDO>  (61) 
F 22

>  <SCORE>  (61) 
59.766

>  <name>  (61) 
60

>  <ligand_id>  (61) 
60

>  <original_smiles>  (61) 
[H]c1c([H])c([H])c2c(c1[H])C([H])([H])C([H])([H])C([H])([H])C2([H])N([H])C(=O)C1([H])N(C(=O)C([H])(N([H])C(=O)C([H])(N([H])C([H])([H])[H])C([H])([H])[H])C(C([H])([H])[H])(C([H])([H])[H])C([H])([H])[H])C([H])([H])c2c([H])c(OC([H])([H])C([H])([H])C([H])([H])C([H])([H])c3c([H])c([H])c([H])c(C([H])([H])C([H])([H])C4([H])C([H])([H])C([H])([H])N(C(=O)N5C([H])([H])C([H])([H])C([H])([H])C([H])(n6nc(-c7c([H])c([H])c(Oc8c([H])c([H])c(F)c([H])c8F)c([H])c7[H])c(C(=O)N([H])[H])c6N([H])[H])C5([H])[H])C([H])([H])C4([H])[H])c3[H])c([H])c([H])c2C1([H])[H]

>  <smiles>  (61) 
[H]c1c([H])c([H])c2c(c1[H])C([H])([H])C([H])([H])C([H])([H])C2([H])N([H])C(=O)C1([H])N(C(=O)C([H])(N([H])C(=O)C([H])(N([H])C([H])([H])[H])C([H])([H])[H])C(C([H])([H])[H])(C([H])([H])[H])C([H])([H])[H])C([H])([H])c2c([H])c(OC([H])([H])C([H])([H])C([H])([H])C([H])([H])c3c([H])c([H])c([H])c(C([H])([H])C([H])([H])C4([H])C([H])([H])C([H])([H])N(C(=O)N5C([H])([H])C([H])([H])C([H])([H])C([H])(n6nc(-c7c([H])c([H])c(Oc8c([H])c([H])c(F)c([H])c8F)c([H])c7[H])c(C(=O)N([H])[H])c6N([H])[H])C5([H])[H])C([H])([H])C4([H])[H])c3[H])c([H])c([H])c2C1([H])[H]

$$$$
61:0:0
     RDKit          3D

 95102  0  0  1  0  0  0  0  0999 V2000
  -31.3540  -25.5740   24.9960 C   0  0  0  0  0  2  0  0  0  0  0  0
  -30.4340  -26.2920   24.0930 N   0  0  0  0  0  4  0  0  0  0  0  0
  -30.1110  -27.1200   24.5680 H   0  0  0  0  0  0  0  0  0  0  0  0
  -29.6380  -25.6810   23.9860 H   0  0  0  0  0  0  0  0  0  0  0  0
  -31.0320  -26.6330   22.7830 C   0  0  0  0  0  2  0  0  0  0  0  0
  -30.0380  -27.2850   21.8030 C   0  0  0  0  0  2  0  0  0  0  0  0
  -28.9390  -26.3300   21.2970 C   0  0  0  0  0  2  0  0  0  0  0  0
  -28.3970  -26.7390   20.0430 O   0  0  0  0  0  0  0  0  0  0  0  0
  -24.6090  -31.8710   23.2130 C   0  0  0  0  0  0  0  0  0  0  0  0
  -27.2440  -27.4790   20.1020 C   0  0  0  0  0  0  0  0  0  0  0  0
  -23.3940  -30.4920   21.5520 C   0  0  0  0  0  3  0  0  0  0  0  0
  -24.8440  -28.9600   20.1180 C   0  0  0  0  0  0  0  0  0  0  0  0
  -25.9140  -30.8530   21.3560 C   0  0  0  0  0  2  0  0  0  0  0  0
  -25.9960  -29.4860   20.7150 C   0  0  0  0  0  0  0  0  0  0  0  0
  -27.1980  -28.7530   20.7070 C   0  0  0  0  0  3  0  0  0  0  0  0
  -26.0820  -26.9600   19.4970 C   0  0  0  0  0  3  0  0  0  0  0  0
  -24.8780  -27.6920   19.5080 C   0  0  0  0  0  3  0  0  0  0  0  0
  -23.6010  -29.8200   20.1660 C   0  0  0  0  0  2  0  0  0  0  0  0
  -24.6570  -31.0850   22.1000 N   0  0  0  0  0  0  0  0  0  0  0  0
  -23.5300  -32.1430   23.7570 O   0  0  0  0  0  0  0  0  0  0  0  0
  -22.7370  -29.4660   22.5010 C   0  0  0  0  0  0  0  0  0  0  0  0
  -21.4100  -29.3020   22.3750 N   0  0  0  0  0  0  0  0  0  0  0  0
  -23.4170  -28.8200   23.3020 O   0  0  0  0  0  0  0  0  0  0  0  0
  -20.9250  -29.8770   21.7010 H   0  0  0  0  0  0  0  0  0  0  0  0
  -18.0260  -28.1360   22.8490 C   0  0  0  0  0  0  0  0  0  0  0  0
  -20.5840  -28.3640   23.1330 C   0  0  0  0  0  3  0  0  0  0  0  0
  -20.6750  -26.9380   22.5410 C   0  0  0  0  0  2  0  0  0  0  0  0
  -19.5730  -26.6380   21.5200 C   0  0  0  0  0  2  0  0  0  0  0  0
  -18.1910  -26.7910   22.1620 C   0  0  0  0  0  2  0  0  0  0  0  0
  -19.1510  -28.8820   23.2910 C   0  0  0  0  0  0  0  0  0  0  0  0
  -18.9440  -30.1420   23.8930 C   0  0  0  0  0  3  0  0  0  0  0  0
  -17.6450  -30.6580   24.0560 C   0  0  0  0  0  3  0  0  0  0  0  0
  -16.5340  -29.9080   23.6320 C   0  0  0  0  0  3  0  0  0  0  0  0
  -16.7250  -28.6490   23.0350 C   0  0  0  0  0  3  0  0  0  0  0  0
  -25.9010  -32.4830   23.8420 C   0  0  0  0  0  3  0  0  0  0  0  0
  -26.4480  -31.6580   25.0700 C   0  0  1  0  0  0  0  0  0  0  0  0
  -25.3780  -31.3610   26.1450 C   0  0  0  0  0  1  0  0  0  0  0  0
  -27.0300  -30.3040   24.5970 C   0  0  0  0  0  1  0  0  0  0  0  0
  -27.6060  -32.4280   25.7480 C   0  0  0  0  0  1  0  0  0  0  0  0
  -25.5890  -33.8630   24.2380 N   0  0  0  0  0  0  0  0  0  0  0  0
  -25.9020  -34.9480   23.5170 C   0  0  0  0  0  0  0  0  0  0  0  0
  -26.5570  -34.8920   22.4720 O   0  0  0  0  0  0  0  0  0  0  0  0
  -25.0090  -33.9800   25.0560 H   0  0  0  0  0  0  0  0  0  0  0  0
  -24.1470  -36.7310   23.2650 C   0  0  0  0  0  1  0  0  0  0  0  0
  -25.4090  -36.3120   24.0360 C   0  0  0  0  0  3  0  0  0  0  0  0
  -27.5580  -37.1820   24.8460 C   0  0  0  0  0  1  0  0  0  0  0  0
  -26.4270  -37.3800   23.9430 N   0  0  0  0  0  0  0  0  0  0  0  0
  -26.0150  -38.2870   24.1480 H   0  0  0  0  0  0  0  0  0  0  0  0
  -30.5260  -24.8790   26.0800 C   0  0  0  0  0  0  0  0  0  0  0  0
  -29.2980  -25.0110   26.1380 O   0  0  0  0  0  0  0  0  0  0  0  0
  -31.2670  -23.9960   27.0860 C   0  0  0  0  0  2  0  0  0  0  0  0
  -31.9380  -22.7580   26.4530 C   0  0  0  0  0  2  0  0  0  0  0  0
  -30.9560  -21.7050   25.9050 C   0  0  0  0  0  2  0  0  0  0  0  0
  -31.6660  -20.6350   25.0630 C   0  0  0  0  0  2  0  0  0  0  0  0
  -30.7090  -19.5550   24.5440 C   0  0  0  0  0  2  0  0  0  0  0  0
  -31.3940  -18.5870   23.5670 C   0  0  0  0  0  2  0  0  0  0  0  0
  -30.4730  -17.4360   23.1480 C   0  0  0  0  0  2  0  0  0  0  0  0
  -31.1080  -16.5150   22.0950 C   0  0  0  0  0  2  0  0  0  0  0  0
  -30.2120  -15.2990   21.7950 C   0  0  0  0  0  2  0  0  0  0  0  0
  -30.7410  -14.3560   20.7020 C   0  0  0  0  0  0  0  0  0  0  0  0
  -30.4240  -12.2900   19.3760 C   0  0  0  0  0  2  0  0  0  0  0  0
  -29.4830  -12.5280   18.1800 C   0  0  0  0  0  2  0  0  0  0  0  0
  -28.0060  -12.3830   18.6010 C   0  0  0  0  0  2  0  0  0  0  0  0
  -27.6690  -13.1950   19.8790 C   0  0  0  0  0  3  0  0  0  0  0  0
  -28.7090  -12.9130   20.9840 C   0  0  0  0  0  2  0  0  0  0  0  0
  -30.0440  -13.2200   20.4460 N   0  0  0  0  0  0  0  0  0  0  0  0
  -31.7750  -14.6540   20.0910 O   0  0  0  0  0  0  0  0  0  0  0  0
  -25.2630  -13.8140   20.5670 C   0  0  0  0  0  0  0  0  0  0  0  0
  -24.1860  -13.0430   20.9160 C   0  0  0  0  0  0  0  0  0  0  0  0
  -24.6400  -11.6890   20.8720 C   0  0  0  0  0  0  0  0  0  0  0  0
  -26.3060  -12.9290   20.3380 N   0  0  0  0  0  0  0  0  0  0  0  0
  -25.9320  -11.6460   20.5740 N   0  0  0  0  0  0  0  0  0  0  0  0
  -23.9050  -10.4290   21.0400 C   0  0  0  0  0  0  0  0  0  0  0  0
  -24.3600   -9.4210   21.9180 C   0  0  0  0  0  3  0  0  0  0  0  0
  -23.6280   -8.2240   22.0750 C   0  0  0  0  0  3  0  0  0  0  0  0
  -22.4270   -8.0280   21.3540 C   0  0  0  0  0  0  0  0  0  0  0  0
  -21.9900   -9.0250   20.4640 C   0  0  0  0  0  3  0  0  0  0  0  0
  -22.7230  -10.2130   20.3050 C   0  0  0  0  0  3  0  0  0  0  0  0
  -21.6630   -6.8880   21.4240 O   0  0  0  0  0  0  0  0  0  0  0  0
  -21.6850   -6.0740   22.5280 C   0  0  0  0  0  0  0  0  0  0  0  0
  -21.4010   -6.5640   23.8210 C   0  0  0  0  0  3  0  0  0  0  0  0
  -21.3660   -5.6790   24.9170 C   0  0  0  0  0  3  0  0  0  0  0  0
  -21.6040   -4.3050   24.7220 C   0  0  0  0  0  0  0  0  0  0  0  0
  -21.8820   -3.8150   23.4340 C   0  0  0  0  0  3  0  0  0  0  0  0
  -21.9190   -4.6960   22.3400 C   0  0  0  0  0  0  0  0  0  0  0  0
  -22.1660   -4.2150   21.0980 F   0  0  0  0  0  0  0  0  0  0  0  0
  -21.5630   -3.4540   25.7740 F   0  0  0  0  0  0  0  0  0  0  0  0
  -22.7890  -13.5250   21.1830 C   0  0  0  0  0  0  0  0  0  0  0  0
  -22.0510  -12.8240   22.0370 N   0  0  0  0  0  0  0  0  0  0  0  0
  -22.3580  -14.5550   20.6680 O   0  0  0  0  0  0  0  0  0  0  0  0
  -22.4110  -11.9890   22.4770 H   0  0  0  0  0  0  0  0  0  0  0  0
  -21.1130  -13.1270   22.2560 H   0  0  0  0  0  0  0  0  0  0  0  0
  -25.4390  -15.1860   20.4090 N   0  0  0  0  0  0  0  0  0  0  0  0
  -24.6800  -15.8480   20.5220 H   0  0  0  0  0  0  0  0  0  0  0  0
  -26.3030  -15.6210   20.1080 H   0  0  0  0  0  0  0  0  0  0  0  0
  1 49  1  0
  2  3  1  0
  2  1  1  0
  4  2  1  0
  5  2  1  0
  6  5  1  0
  7  6  1  0
  8 10  1  0
  8  7  1  0
  9 20  2  0
 10 15  1  0
 11 19  1  0
 11 21  1  0
 12 18  1  0
 12 14  1  0
 13 19  1  0
 14 13  1  0
 15 14  2  0
 16 17  1  0
 16 10  2  0
 17 12  2  0
 18 11  1  0
 19  9  1  0
 21 23  2  0
 22 21  1  0
 24 22  1  0
 25 34  2  0
 25 30  1  0
 26 22  1  0
 26 30  1  0
 27 26  1  0
 28 29  1  0
 28 27  1  0
 29 25  1  0
 30 31  2  0
 31 32  1  0
 33 32  2  0
 34 33  1  0
 35  9  1  0
 35 40  1  0
 35 36  1  0
 36 39  1  1
 36 37  1  0
 38 36  1  0
 40 43  1  0
 41 45  1  0
 41 40  1  0
 42 41  2  0
 45 44  1  0
 47 45  1  0
 47 48  1  0
 47 46  1  0
 49 50  2  0
 49 51  1  0
 52 51  1  0
 53 52  1  0
 54 53  1  0
 55 54  1  0
 56 55  1  0
 57 56  1  0
 58 57  1  0
 59 58  1  0
 60 59  1  0
 61 66  1  0
 62 63  1  0
 62 61  1  0
 64 63  1  0
 64 71  1  0
 64 65  1  0
 66 60  1  0
 66 65  1  0
 67 60  2  0
 68 69  2  0
 69 88  1  0
 70 69  1  0
 70 73  1  0
 71 68  1  0
 71 72  1  0
 72 70  2  0
 73 74  1  0
 74 75  2  0
 76 79  1  0
 76 75  1  0
 77 76  2  0
 78 77  1  0
 78 73  2  0
 79 80  1  0
 80 81  1  0
 81 82  2  0
 83 82  1  0
 83 87  1  0
 84 83  2  0
 85 80  2  0
 85 84  1  0
 86 85  1  0
 88 89  1  0
 89 92  1  0
 89 91  1  0
 90 88  2  0
 93 94  1  0
 93 68  1  0
 95 93  1  0
M  ISO  4   7 101   8 101  59 100  60 100
M  END
>  <TORSDO>  (62) 
F 30

>  <SCORE>  (62) 
13.319

>  <name>  (62) 
61

>  <ligand_id>  (62) 
61

>  <original_smiles>  (62) 
[H]c1c([H])c([H])c2c(c1[H])C([H])([H])C([H])([H])C([H])([H])C2([H])N([H])C(=O)C1([H])N(C(=O)C([H])(N([H])C(=O)C([H])(N([H])C([H])([H])[H])C([H])([H])[H])C(C([H])([H])[H])(C([H])([H])[H])C([H])([H])[H])C([H])([H])c2c([H])c(OC([H])([H])C([H])([H])C([H])([H])[N+]([H])([H])C([H])([H])C(=O)C([H])([H])C([H])([H])C([H])([H])C([H])([H])C([H])([H])C([H])([H])C([H])([H])C([H])([H])C([H])([H])C(=O)N3C([H])([H])C([H])([H])C([H])([H])C([H])(n4nc(-c5c([H])c([H])c(Oc6c([H])c([H])c(F)c([H])c6F)c([H])c5[H])c(C(=O)N([H])[H])c4N([H])[H])C3([H])[H])c([H])c([H])c2C1([H])[H]

>  <smiles>  (62) 
[H]c1c([H])c([H])c2c(c1[H])C([H])([H])C([H])([H])C([H])([H])C2([H])N([H])C(=O)C1([H])N(C(=O)C([H])(N([H])C(=O)C([H])(N([H])C([H])([H])[H])C([H])([H])[H])C(C([H])([H])[H])(C([H])([H])[H])C([H])([H])[H])C([H])([H])c2c([H])c(OC([H])([H])C([H])([H])C([H])([H])[N+]([H])([H])C([H])([H])C(=O)C([H])([H])C([H])([H])C([H])([H])C([H])([H])C([H])([H])C([H])([H])C([H])([H])C([H])([H])C([H])([H])C(=O)N3C([H])([H])C([H])([H])C([H])([H])C([H])(n4nc(-c5c([H])c([H])c(Oc6c([H])c([H])c(F)c([H])c6F)c([H])c5[H])c(C(=O)N([H])[H])c4N([H])[H])C3([H])[H])c([H])c([H])c2C1([H])[H]

$$$$
62:0:0
     RDKit          3D

 95101  0  0  1  0  0  0  0  0999 V2000
  -24.6800  -26.9720   22.2140 C   0  0  0  0  0  3  0  0  0  0  0  0
  -23.7690  -29.3110   23.9210 C   0  0  0  0  0  1  0  0  0  0  0  0
  -22.4340  -28.6120   21.0340 C   0  0  0  0  0  3  0  0  0  0  0  0
  -24.9300  -27.9200   23.5220 C   0  0  0  0  0  3  0  0  0  0  0  0
  -23.6240  -27.1730   21.0060 C   0  0  0  0  0  0  0  0  0  0  0  0
  -22.4640  -29.8450   22.5420 C   0  0  0  0  0  3  0  0  0  0  0  0
  -21.5140  -30.8080   22.7130 O   0  0  0  0  0  0  0  0  0  0  0  0
  -21.7990  -31.3860   23.4210 H   0  0  0  0  0  0  0  0  0  0  0  0
  -23.0760  -25.5050   18.9480 C   0  0  0  0  0  1  0  0  0  0  0  0
  -23.8300  -25.5310   20.2860 C   0  0  0  0  0  3  0  0  0  0  0  0
  -25.2570  -24.2880   20.2200 C   0  0  0  0  0  3  0  0  0  0  0  0
  -25.5990  -22.4610   20.4850 C   0  0  0  0  0  3  0  0  0  0  0  0
  -27.0240  -21.2670   20.1980 C   0  0  0  0  0  2  0  0  0  0  0  0
  -27.6060  -19.5380   20.6530 C   0  0  0  0  0  3  0  0  0  0  0  0
  -28.8340  -18.2970   19.9730 C   0  0  0  0  0  3  0  0  0  0  0  0
  -30.2730  -15.5530   19.9080 C   0  0  0  0  0  0  0  0  0  0  0  0
  -30.6010  -13.1070   18.9830 C   0  0  0  0  0  2  0  0  0  0  0  0
  -29.6650  -12.8120   17.7800 C   0  0  0  0  0  2  0  0  0  0  0  0
  -28.2350  -12.4990   18.2510 C   0  0  0  0  0  2  0  0  0  0  0  0
  -27.7910  -13.4650   19.3760 C   0  0  0  0  0  3  0  0  0  0  0  0
  -28.8220  -13.5530   20.5010 C   0  0  0  0  0  2  0  0  0  0  0  0
  -29.9730  -14.1650   19.8710 N   0  0  0  0  0  0  0  0  0  0  0  0
  -31.4630  -15.7370   19.5720 O   0  0  0  0  0  0  0  0  0  0  0  0
  -29.2180  -16.6240   20.1700 N   0  0  0  0  0  0  0  0  0  0  0  0
  -28.3830  -16.1370   20.4550 H   0  0  0  0  0  0  0  0  0  0  0  0
  -25.5110  -14.0640   20.3040 C   0  0  0  0  0  0  0  0  0  0  0  0
  -24.4580  -13.2930   20.7040 C   0  0  0  0  0  0  0  0  0  0  0  0
  -24.8850  -11.9350   20.5670 C   0  0  0  0  0  0  0  0  0  0  0  0
  -26.4930  -13.1690   19.9250 N   0  0  0  0  0  0  0  0  0  0  0  0
  -26.1440  -11.8830   20.1580 N   0  0  0  0  0  0  0  0  0  0  0  0
  -24.1470  -10.6830   20.7320 C   0  0  0  0  0  0  0  0  0  0  0  0
  -24.5840   -9.6770   21.6210 C   0  0  0  0  0  3  0  0  0  0  0  0
  -23.8420   -8.4850   21.7690 C   0  0  0  0  0  3  0  0  0  0  0  0
  -22.6510   -8.2960   21.0270 C   0  0  0  0  0  0  0  0  0  0  0  0
  -22.2340   -9.2910   20.1270 C   0  0  0  0  0  3  0  0  0  0  0  0
  -22.9760  -10.4740   19.9770 C   0  0  0  0  0  3  0  0  0  0  0  0
  -21.8760   -7.1630   21.0910 O   0  0  0  0  0  0  0  0  0  0  0  0
  -21.7920   -6.4150   22.2370 C   0  0  0  0  0  0  0  0  0  0  0  0
  -21.3770   -6.9750   23.4660 C   0  0  0  0  0  3  0  0  0  0  0  0
  -21.2390   -6.1530   24.6020 C   0  0  0  0  0  3  0  0  0  0  0  0
  -21.5050   -4.7730   24.5090 C   0  0  0  0  0  0  0  0  0  0  0  0
  -21.9120   -4.2140   23.2860 C   0  0  0  0  0  3  0  0  0  0  0  0
  -22.0540   -5.0330   22.1530 C   0  0  0  0  0  0  0  0  0  0  0  0
  -22.4270   -4.4870   20.9700 F   0  0  0  0  0  0  0  0  0  0  0  0
  -21.3640   -3.9810   25.5980 F   0  0  0  0  0  0  0  0  0  0  0  0
  -23.1000  -13.7900   21.0880 C   0  0  0  0  0  0  0  0  0  0  0  0
  -22.4100  -13.0770   21.9700 N   0  0  0  0  0  0  0  0  0  0  0  0
  -22.6610  -14.8470   20.6370 O   0  0  0  0  0  0  0  0  0  0  0  0
  -22.7780  -12.2240   22.3640 H   0  0  0  0  0  0  0  0  0  0  0  0
  -21.4950  -13.3950   22.2570 H   0  0  0  0  0  0  0  0  0  0  0  0
  -25.7030  -15.4420   20.2060 N   0  0  0  0  0  0  0  0  0  0  0  0
  -24.9390  -16.0880   20.3720 H   0  0  0  0  0  0  0  0  0  0  0  0
  -26.5120  -15.8930   19.8060 H   0  0  0  0  0  0  0  0  0  0  0  0
  -26.6080  -27.7510   23.3310 C   0  0  0  0  0  2  0  0  0  0  0  0
  -27.3810  -27.0650   22.0700 O   0  0  0  0  0  0  0  0  0  0  0  0
  -24.9740  -31.8390   23.4390 C   0  0  0  0  0  0  0  0  0  0  0  0
  -27.3690  -27.7030   20.8520 C   0  0  0  0  0  0  0  0  0  0  0  0
  -24.5370  -29.4340   21.7880 C   0  0  0  0  0  2  0  0  0  0  0  0
  -25.6580  -29.5110   19.7910 C   0  0  0  0  0  0  0  0  0  0  0  0
  -26.4890  -31.0870   21.6510 C   0  0  0  0  0  2  0  0  0  0  0  0
  -26.7590  -30.0060   20.5680 C   0  0  0  0  0  0  0  0  0  0  0  0
  -27.7110  -29.0490   20.9510 C   0  0  0  0  0  3  0  0  0  0  0  0
  -26.5010  -27.2480   19.8380 C   0  0  0  0  0  3  0  0  0  0  0  0
  -25.6020  -28.1820   19.3040 C   0  0  0  0  0  3  0  0  0  0  0  0
  -24.3710  -30.0190   20.2700 C   0  0  0  0  0  2  0  0  0  0  0  0
  -25.2170  -30.8960   22.3470 N   0  0  0  0  0  0  0  0  0  0  0  0
  -23.8350  -32.1820   23.8340 O   0  0  0  0  0  0  0  0  0  0  0  0
  -22.5370  -27.7910   23.3750 C   0  0  0  0  0  2  0  0  0  0  0  0
  -21.2360  -28.2290   23.4220 N   0  0  0  0  0  0  0  0  0  0  0  0
  -22.8070  -27.1940   24.3800 O   0  0  0  0  0  1  0  0  0  0  0  0
  -21.1150  -29.1530   23.0140 H   0  0  0  0  0  0  0  0  0  0  0  0
  -17.8370  -28.0510   22.4780 C   0  0  0  0  0  0  0  0  0  0  0  0
  -20.0780  -27.5760   23.4270 C   0  0  0  0  0  3  0  0  0  0  0  0
  -20.2410  -26.4240   22.4200 C   0  0  0  0  0  2  0  0  0  0  0  0
  -19.4560  -26.6470   21.1620 C   0  0  0  0  0  2  0  0  0  0  0  0
  -18.0080  -26.8160   21.6100 C   0  0  0  0  0  2  0  0  0  0  0  0
  -18.9190  -28.5420   23.2230 C   0  0  0  0  0  0  0  0  0  0  0  0
  -18.8040  -29.7960   23.8810 C   0  0  0  0  0  3  0  0  0  0  0  0
  -17.5690  -30.4750   23.8840 C   0  0  0  0  0  3  0  0  0  0  0  0
  -16.4560  -29.9010   23.2490 C   0  0  0  0  0  3  0  0  0  0  0  0
  -16.5950  -28.6990   22.5360 C   0  0  0  0  0  3  0  0  0  0  0  0
  -26.0880  -32.3230   24.4650 C   0  0  0  0  0  3  0  0  0  0  0  0
  -25.7750  -33.7080   24.8430 N   0  0  0  0  0  0  0  0  0  0  0  0
  -26.2350  -34.7750   24.1910 C   0  0  0  0  0  0  0  0  0  0  0  0
  -26.9850  -34.6670   23.2200 O   0  0  0  0  0  0  0  0  0  0  0  0
  -25.1460  -33.8430   25.6190 H   0  0  0  0  0  0  0  0  0  0  0  0
  -24.6830  -36.7050   23.7930 C   0  0  0  0  0  1  0  0  0  0  0  0
  -25.8090  -36.1640   24.6900 C   0  0  0  0  0  3  0  0  0  0  0  0
  -27.9280  -36.8120   25.7440 C   0  0  0  0  0  1  0  0  0  0  0  0
  -26.9290  -37.1290   24.7270 N   0  0  0  0  0  0  0  0  0  0  0  0
  -26.5900  -38.0710   24.8970 H   0  0  0  0  0  0  0  0  0  0  0  0
  -26.2630  -31.5440   25.8590 C   0  0  1  0  0  0  0  0  0  0  0  0
  -24.9850  -31.3750   26.7350 C   0  0  0  0  0  1  0  0  0  0  0  0
  -26.8680  -30.1660   25.6660 C   0  0  0  0  0  1  0  0  0  0  0  0
  -27.3200  -32.2690   26.7310 C   0  0  0  0  0  1  0  0  0  0  0  0
  1  4  1  0
  3  6  2  0
  4  2  1  0
  5  3  1  0
  5  1  2  0
  6  7  1  0
  7  8  1  0
 10  9  1  0
 10  5  1  0
 11 10  1  0
 11 12  2  0
 13 12  1  0
 13 14  1  0
 15 24  1  0
 15 14  2  0
 16 24  1  0
 17 22  1  0
 18 19  1  0
 18 17  1  0
 20 19  1  0
 20 29  1  0
 20 21  1  0
 22 16  1  0
 22 21  1  0
 23 16  2  0
 24 25  1  0
 26 27  2  0
 27 46  1  0
 28 27  1  0
 28 31  1  0
 29 30  1  0
 29 26  1  0
 30 28  2  0
 31 32  1  0
 32 33  2  0
 34 37  1  0
 34 33  1  0
 35 34  2  0
 36 35  1  0
 36 31  2  0
 37 38  1  0
 38 39  1  0
 39 40  2  0
 41 40  1  0
 41 45  1  0
 42 41  2  0
 43 38  2  0
 43 42  1  0
 44 43  1  0
 46 47  1  0
 47 50  1  0
 47 49  1  0
 48 46  2  0
 51 26  1  0
 51 52  1  0
 53 51  1  0
 54  4  1  0
 55 54  1  0
 56 67  2  0
 57 62  1  0
 57 55  1  0
 58 66  1  0
 59 65  1  0
 59 61  1  0
 60 66  1  0
 61 62  2  0
 61 60  1  0
 63 57  2  0
 64 59  2  0
 64 63  1  0
 65 58  1  0
 66 56  1  0
 68 69  1  0
 68 70  1  0
 71 69  1  0
 72 81  2  0
 72 77  1  0
 73 69  1  0
 74 73  1  0
 75 76  1  0
 75 74  1  0
 76 72  1  0
 77 73  1  0
 77 78  2  0
 78 79  1  0
 80 79  2  0
 81 80  1  0
 82 56  1  0
 82 83  1  0
 82 92  1  0
 83 86  1  0
 84 88  1  0
 84 83  1  0
 85 84  2  0
 88 87  1  0
 88 90  1  0
 90 91  1  0
 90 89  1  0
 92 95  1  1
 92 93  1  0
 94 92  1  0
M  ISO  4  16 100  24 100  54 101  55 101
M  END
>  <TORSDO>  (63) 
F 24

>  <SCORE>  (63) 
-12.304

>  <name>  (63) 
62

>  <ligand_id>  (63) 
62

>  <original_smiles>  (63) 
[H]Oc1c([H])c(C([H])([H])Oc2c([H])c([H])c3c(c2[H])C([H])([H])N(C(=O)C([H])(N([H])C(=O)C([H])(N([H])C([H])([H])[H])C([H])([H])[H])C(C([H])([H])[H])(C([H])([H])[H])C([H])([H])[H])C([H])(C(=O)N([H])C2([H])c4c([H])c([H])c([H])c([H])c4C([H])([H])C([H])([H])C2([H])[H])C3([H])[H])c([H])c(C([H])(C([H])([H])[H])C([H])([H])C([H])([H])C([H])([H])C([H])([H])C([H])([H])N([H])C(=O)N2C([H])([H])C([H])([H])C([H])([H])C([H])(n3nc(-c4c([H])c([H])c(Oc5c([H])c([H])c(F)c([H])c5F)c([H])c4[H])c(C(=O)N([H])[H])c3N([H])[H])C2([H])[H])c1[H]

>  <smiles>  (63) 
[H]Oc1c([H])c(C([H])([H])Oc2c([H])c([H])c3c(c2[H])C([H])([H])N(C(=O)C([H])(N([H])C(=O)C([H])(N([H])C([H])([H])[H])C([H])([H])[H])C(C([H])([H])[H])(C([H])([H])[H])C([H])([H])[H])C([H])(C(=O)N([H])C2([H])c4c([H])c([H])c([H])c([H])c4C([H])([H])C([H])([H])C2([H])[H])C3([H])[H])c([H])c(C([H])(C([H])([H])[H])C([H])([H])C([H])([H])C([H])([H])C([H])([H])C([H])([H])N([H])C(=O)N2C([H])([H])C([H])([H])C([H])([H])C([H])(n3nc(-c4c([H])c([H])c(Oc5c([H])c([H])c(F)c([H])c5F)c([H])c4[H])c(C(=O)N([H])[H])c3N([H])[H])C2([H])[H])c1[H]

$$$$
63:0:0
     RDKit          3D

100108  0  0  1  0  0  0  0  0999 V2000
  -33.8460  -27.1780   23.7010 C   0  0  0  0  0  3  0  0  0  0  0  0
  -32.3810  -26.6250   21.6980 C   0  0  0  0  0  3  0  0  0  0  0  0
  -31.1270  -26.3450   21.1290 C   0  0  0  0  0  3  0  0  0  0  0  0
  -31.2960  -27.1150   23.8220 C   0  0  0  0  0  3  0  0  0  0  0  0
  -32.4760  -26.9840   23.0560 C   0  0  0  0  0  0  0  0  0  0  0  0
  -29.9490  -26.4310   21.9000 C   0  0  0  0  0  0  0  0  0  0  0  0
  -30.0310  -26.8470   23.2550 C   0  0  0  0  0  0  0  0  0  0  0  0
  -28.7940  -26.9920   24.1290 C   0  0  0  0  0  1  0  0  0  0  0  0
  -28.6430  -26.0130   21.2400 C   0  0  0  0  0  2  0  0  0  0  0  0
  -28.3910  -26.7460   20.0460 O   0  0  0  0  0  0  0  0  0  0  0  0
  -24.6140  -31.8710   23.2140 C   0  0  0  0  0  0  0  0  0  0  0  0
  -27.2370  -27.4780   20.0880 C   0  0  0  0  0  0  0  0  0  0  0  0
  -23.4000  -30.4950   21.5530 C   0  0  0  0  0  3  0  0  0  0  0  0
  -24.8480  -28.9640   20.1190 C   0  0  0  0  0  0  0  0  0  0  0  0
  -25.9260  -30.8480   21.3650 C   0  0  0  0  0  2  0  0  0  0  0  0
  -26.0050  -29.4860   20.7130 C   0  0  0  0  0  0  0  0  0  0  0  0
  -27.2060  -28.7490   20.6970 C   0  0  0  0  0  3  0  0  0  0  0  0
  -26.0700  -26.9540   19.4980 C   0  0  0  0  0  3  0  0  0  0  0  0
  -24.8720  -27.6950   19.5130 C   0  0  0  0  0  3  0  0  0  0  0  0
  -23.6070  -29.8250   20.1670 C   0  0  0  0  0  2  0  0  0  0  0  0
  -24.6640  -31.0850   22.1030 N   0  0  0  0  0  0  0  0  0  0  0  0
  -23.5330  -32.1450   23.7560 O   0  0  0  0  0  0  0  0  0  0  0  0
  -22.7400  -29.4680   22.5010 C   0  0  0  0  0  0  0  0  0  0  0  0
  -21.4130  -29.3060   22.3750 N   0  0  0  0  0  0  0  0  0  0  0  0
  -23.4170  -28.8210   23.3040 O   0  0  0  0  0  0  0  0  0  0  0  0
  -20.9280  -29.8790   21.6980 H   0  0  0  0  0  0  0  0  0  0  0  0
  -18.0260  -28.1410   22.8450 C   0  0  0  0  0  0  0  0  0  0  0  0
  -20.5850  -28.3680   23.1330 C   0  0  0  0  0  3  0  0  0  0  0  0
  -20.6770  -26.9420   22.5430 C   0  0  0  0  0  2  0  0  0  0  0  0
  -19.5770  -26.6400   21.5210 C   0  0  0  0  0  2  0  0  0  0  0  0
  -18.1940  -26.7950   22.1600 C   0  0  0  0  0  2  0  0  0  0  0  0
  -19.1510  -28.8850   23.2900 C   0  0  0  0  0  0  0  0  0  0  0  0
  -18.9440  -30.1440   23.8950 C   0  0  0  0  0  3  0  0  0  0  0  0
  -17.6450  -30.6600   24.0560 C   0  0  0  0  0  3  0  0  0  0  0  0
  -16.5340  -29.9130   23.6280 C   0  0  0  0  0  3  0  0  0  0  0  0
  -16.7250  -28.6540   23.0300 C   0  0  0  0  0  3  0  0  0  0  0  0
  -25.9040  -32.4850   23.8440 C   0  0  0  0  0  3  0  0  0  0  0  0
  -25.5900  -33.8650   24.2380 N   0  0  0  0  0  0  0  0  0  0  0  0
  -25.9010  -34.9500   23.5160 C   0  0  0  0  0  0  0  0  0  0  0  0
  -26.5550  -34.8940   22.4710 O   0  0  0  0  0  0  0  0  0  0  0  0
  -25.0170  -33.9810   25.0610 H   0  0  0  0  0  0  0  0  0  0  0  0
  -24.1450  -36.7290   23.2630 C   0  0  0  0  0  1  0  0  0  0  0  0
  -25.4070  -36.3140   24.0340 C   0  0  0  0  0  3  0  0  0  0  0  0
  -27.5580  -37.1810   24.8450 C   0  0  0  0  0  1  0  0  0  0  0  0
  -26.4270  -37.3820   23.9420 N   0  0  0  0  0  0  0  0  0  0  0  0
  -26.0180  -38.2900   24.1480 H   0  0  0  0  0  0  0  0  0  0  0  0
  -26.4480  -31.6600   25.0740 C   0  0  1  0  0  0  0  0  0  0  0  0
  -25.3770  -31.3690   26.1490 C   0  0  0  0  0  1  0  0  0  0  0  0
  -27.0300  -30.3030   24.6090 C   0  0  0  0  0  1  0  0  0  0  0  0
  -27.6060  -32.4300   25.7520 C   0  0  0  0  0  1  0  0  0  0  0  0
  -33.8480  -29.7020   23.1460 C   0  0  0  0  0  1  0  0  0  0  0  0
  -34.6110  -28.3690   23.0800 C   0  0  0  0  0  2  0  0  0  0  0  0
  -34.6850  -25.8770   23.6550 C   0  0  0  0  0  2  0  0  0  0  0  0
  -33.9820  -24.6280   24.2450 C   0  0  0  0  0  2  0  0  0  0  0  0
  -33.9890  -23.4130   23.2980 C   0  0  0  0  0  2  0  0  0  0  0  0
  -33.0890  -22.2660   23.7920 C   0  0  0  0  0  2  0  0  0  0  0  0
  -33.1690  -21.0140   22.9020 C   0  0  0  0  0  2  0  0  0  0  0  0
  -32.0750  -19.9730   23.2050 C   0  0  0  0  0  2  0  0  0  0  0  0
  -32.2690  -18.6770   22.3980 C   0  0  0  0  0  2  0  0  0  0  0  0
  -31.1190  -17.6560   22.5420 C   0  0  0  0  0  2  0  0  0  0  0  0
  -31.4400  -16.4080   21.8230 N   0  0  0  0  0  4  0  0  0  0  0  0
  -31.6960  -16.6130   20.8690 H   0  0  0  0  0  0  0  0  0  0  0  0
  -32.2490  -15.9740   22.2350 H   0  0  0  0  0  0  0  0  0  0  0  0
  -30.3730  -15.3900   21.7200 C   0  0  0  0  0  2  0  0  0  0  0  0
  -30.7880  -14.3580   20.6660 C   0  0  0  0  0  0  0  0  0  0  0  0
  -30.4070  -12.2820   19.3920 C   0  0  0  0  0  2  0  0  0  0  0  0
  -29.4740  -12.5110   18.1900 C   0  0  0  0  0  2  0  0  0  0  0  0
  -28.0030  -12.3640   18.6170 C   0  0  0  0  0  2  0  0  0  0  0  0
  -27.6630  -13.2020   19.8780 C   0  0  0  0  0  3  0  0  0  0  0  0
  -28.7090  -12.9810   20.9970 C   0  0  0  0  0  2  0  0  0  0  0  0
  -30.0440  -13.2460   20.4410 N   0  0  0  0  0  0  0  0  0  0  0  0
  -31.8160  -14.6010   20.0230 O   0  0  0  0  0  0  0  0  0  0  0  0
  -25.2610  -13.8160   20.5700 C   0  0  0  0  0  0  0  0  0  0  0  0
  -24.1830  -13.0440   20.9170 C   0  0  0  0  0  0  0  0  0  0  0  0
  -24.6380  -11.6920   20.8730 C   0  0  0  0  0  0  0  0  0  0  0  0
  -26.3030  -12.9320   20.3400 N   0  0  0  0  0  0  0  0  0  0  0  0
  -25.9310  -11.6490   20.5790 N   0  0  0  0  0  0  0  0  0  0  0  0
  -23.9040  -10.4300   21.0400 C   0  0  0  0  0  0  0  0  0  0  0  0
  -24.3600   -9.4220   21.9180 C   0  0  0  0  0  3  0  0  0  0  0  0
  -23.6280   -8.2250   22.0750 C   0  0  0  0  0  3  0  0  0  0  0  0
  -22.4270   -8.0280   21.3540 C   0  0  0  0  0  0  0  0  0  0  0  0
  -21.9890   -9.0250   20.4640 C   0  0  0  0  0  3  0  0  0  0  0  0
  -22.7220  -10.2130   20.3050 C   0  0  0  0  0  3  0  0  0  0  0  0
  -21.6640   -6.8870   21.4240 O   0  0  0  0  0  0  0  0  0  0  0  0
  -21.6860   -6.0730   22.5280 C   0  0  0  0  0  0  0  0  0  0  0  0
  -21.4010   -6.5640   23.8210 C   0  0  0  0  0  3  0  0  0  0  0  0
  -21.3650   -5.6790   24.9170 C   0  0  0  0  0  3  0  0  0  0  0  0
  -21.6050   -4.3060   24.7220 C   0  0  0  0  0  0  0  0  0  0  0  0
  -21.8820   -3.8140   23.4350 C   0  0  0  0  0  3  0  0  0  0  0  0
  -21.9190   -4.6960   22.3410 C   0  0  0  0  0  0  0  0  0  0  0  0
  -22.1670   -4.2150   21.0980 F   0  0  0  0  0  0  0  0  0  0  0  0
  -21.5630   -3.4540   25.7740 F   0  0  0  0  0  0  0  0  0  0  0  0
  -22.7860  -13.5260   21.1830 C   0  0  0  0  0  0  0  0  0  0  0  0
  -22.0480  -12.8240   22.0370 N   0  0  0  0  0  0  0  0  0  0  0  0
  -22.3560  -14.5570   20.6690 O   0  0  0  0  0  0  0  0  0  0  0  0
  -22.4090  -11.9900   22.4750 H   0  0  0  0  0  0  0  0  0  0  0  0
  -21.1090  -13.1260   22.2550 H   0  0  0  0  0  0  0  0  0  0  0  0
  -25.4370  -15.1870   20.4100 N   0  0  0  0  0  0  0  0  0  0  0  0
  -24.6770  -15.8500   20.5180 H   0  0  0  0  0  0  0  0  0  0  0  0
  -26.2980  -15.6210   20.1010 H   0  0  0  0  0  0  0  0  0  0  0  0
  1 52  1  0
  2  5  1  0
  3  2  2  0
  3  6  1  0
  5  1  1  0
  5  4  2  0
  6  7  2  0
  7  4  1  0
  7  8  1  0
  9  6  1  0
 10 12  1  0
 10  9  1  0
 11 22  2  0
 12 17  1  0
 13 21  1  0
 13 23  1  0
 14 20  1  0
 14 16  1  0
 15 21  1  0
 16 15  1  0
 17 16  2  0
 18 19  1  0
 18 12  2  0
 19 14  2  0
 20 13  1  0
 21 11  1  0
 23 25  2  0
 24 23  1  0
 26 24  1  0
 27 36  2  0
 27 32  1  0
 28 24  1  0
 28 32  1  0
 29 28  1  0
 30 31  1  0
 30 29  1  0
 31 27  1  0
 32 33  2  0
 33 34  1  0
 35 34  2  0
 36 35  1  0
 37 11  1  0
 37 38  1  0
 37 47  1  0
 38 41  1  0
 39 43  1  0
 39 38  1  0
 40 39  2  0
 43 42  1  0
 45 43  1  0
 45 46  1  0
 45 44  1  0
 47 50  1  1
 47 48  1  0
 49 47  1  0
 52 51  1  0
 53  1  1  0
 53 54  1  0
 55 56  1  0
 55 54  1  0
 57 58  1  0
 57 56  1  0
 59 60  1  0
 59 58  1  0
 61 63  1  0
 61 60  1  0
 62 61  1  0
 64 61  1  0
 65 64  1  0
 66 71  1  0
 67 68  1  0
 67 66  1  0
 69 68  1  0
 69 76  1  0
 69 70  1  0
 71 65  1  0
 71 70  1  0
 72 65  2  0
 73 74  2  0
 74 93  1  0
 75 74  1  0
 75 78  1  0
 76 73  1  0
 76 77  1  0
 77 75  2  0
 78 79  1  0
 79 80  2  0
 81 84  1  0
 81 80  1  0
 82 81  2  0
 83 82  1  0
 83 78  2  0
 84 85  1  0
 85 86  1  0
 86 87  2  0
 88 87  1  0
 88 92  1  0
 89 88  2  0
 90 85  2  0
 90 89  1  0
 91 90  1  0
 93 94  1  0
 94 97  1  0
 94 96  1  0
 95 93  2  0
 98 99  1  0
 98 73  1  0
100 98  1  0
M  ISO  4   9 101  10 101  64 100  65 100
M  END
>  <TORSDO>  (64) 
F 29

>  <SCORE>  (64) 
13.803

>  <name>  (64) 
63

>  <ligand_id>  (64) 
63

>  <original_smiles>  (64) 
[H]c1c([H])c([H])c2c(c1[H])C([H])([H])C([H])([H])C([H])([H])C2([H])N([H])C(=O)C1([H])N(C(=O)C([H])(N([H])C(=O)C([H])(N([H])C([H])([H])[H])C([H])([H])[H])C(C([H])([H])[H])(C([H])([H])[H])C([H])([H])[H])C([H])([H])c2c([H])c(OC([H])([H])c3c([H])c([H])c(C([H])(C([H])([H])C([H])([H])[H])C([H])([H])C([H])([H])C([H])([H])C([H])([H])C([H])([H])C([H])([H])C([H])([H])C([H])([H])[N+]([H])([H])C([H])([H])C(=O)N4C([H])([H])C([H])([H])C([H])([H])C([H])(n5nc(-c6c([H])c([H])c(Oc7c([H])c([H])c(F)c([H])c7F)c([H])c6[H])c(C(=O)N([H])[H])c5N([H])[H])C4([H])[H])c([H])c3C([H])([H])[H])c([H])c([H])c2C1([H])[H]

>  <smiles>  (64) 
[H]c1c([H])c([H])c2c(c1[H])C([H])([H])C([H])([H])C([H])([H])C2([H])N([H])C(=O)C1([H])N(C(=O)C([H])(N([H])C(=O)C([H])(N([H])C([H])([H])[H])C([H])([H])[H])C(C([H])([H])[H])(C([H])([H])[H])C([H])([H])[H])C([H])([H])c2c([H])c(OC([H])([H])c3c([H])c([H])c(C([H])(C([H])([H])C([H])([H])[H])C([H])([H])C([H])([H])C([H])([H])C([H])([H])C([H])([H])C([H])([H])C([H])([H])C([H])([H])[N+]([H])([H])C([H])([H])C(=O)N4C([H])([H])C([H])([H])C([H])([H])C([H])(n5nc(-c6c([H])c([H])c(Oc7c([H])c([H])c(F)c([H])c7F)c([H])c6[H])c(C(=O)N([H])[H])c5N([H])[H])C4([H])[H])c([H])c3C([H])([H])[H])c([H])c([H])c2C1([H])[H]

$$$$
64:0:0
     RDKit          3D

 88 95  0  0  1  0  0  0  0  0999 V2000
  -29.3690  -21.7000   20.0920 C   0  0  0  0  0  2  0  0  0  0  0  0
  -29.7680  -20.4880   20.9890 C   0  0  0  0  0  2  0  0  0  0  0  0
  -29.2910  -19.0960   20.5100 C   0  0  0  0  0  0  0  0  0  0  0  0
  -28.3820  -18.9690   19.6830 O   0  0  0  0  0  0  0  0  0  0  0  0
  -29.9850  -17.8660   21.1340 C   0  0  0  0  0  2  0  0  0  0  0  0
  -29.4040  -16.4800   20.7120 C   0  0  0  0  0  2  0  0  0  0  0  0
  -30.7210  -14.4160   20.3930 C   0  0  0  0  0  0  0  0  0  0  0  0
  -30.3470  -12.3120   19.1520 C   0  0  0  0  0  2  0  0  0  0  0  0
  -29.4000  -12.5640   17.9630 C   0  0  0  0  0  2  0  0  0  0  0  0
  -27.9300  -12.4320   18.4030 C   0  0  0  0  0  2  0  0  0  0  0  0
  -27.6170  -13.2480   19.6880 C   0  0  0  0  0  3  0  0  0  0  0  0
  -28.6760  -12.9900   20.7840 C   0  0  0  0  0  2  0  0  0  0  0  0
  -29.9990  -13.2760   20.2080 N   0  0  0  0  0  0  0  0  0  0  0  0
  -31.8050  -14.6230   19.8460 O   0  0  0  0  0  0  0  0  0  0  0  0
  -30.1990  -15.3430   21.2160 N   0  0  0  0  0  0  0  0  0  0  0  0
  -30.9040  -15.6700   21.8610 H   0  0  0  0  0  0  0  0  0  0  0  0
  -25.2250  -13.8720   20.4030 C   0  0  0  0  0  0  0  0  0  0  0  0
  -24.1550  -13.1040   20.7850 C   0  0  0  0  0  0  0  0  0  0  0  0
  -24.6110  -11.7530   20.7630 C   0  0  0  0  0  0  0  0  0  0  0  0
  -26.2640  -12.9830   20.1750 N   0  0  0  0  0  0  0  0  0  0  0  0
  -25.9000  -11.7050   20.4460 N   0  0  0  0  0  0  0  0  0  0  0  0
  -23.8820  -10.4930   20.9690 C   0  0  0  0  0  0  0  0  0  0  0  0
  -24.3190   -9.5280   21.9020 C   0  0  0  0  0  3  0  0  0  0  0  0
  -23.5870   -8.3370   22.0950 C   0  0  0  0  0  3  0  0  0  0  0  0
  -22.4050   -8.1010   21.3560 C   0  0  0  0  0  0  0  0  0  0  0  0
  -21.9890   -9.0540   20.4080 C   0  0  0  0  0  3  0  0  0  0  0  0
  -22.7240  -10.2350   20.2100 C   0  0  0  0  0  3  0  0  0  0  0  0
  -21.6450   -6.9610   21.4590 O   0  0  0  0  0  0  0  0  0  0  0  0
  -21.6050   -6.2260   22.6160 C   0  0  0  0  0  0  0  0  0  0  0  0
  -21.1930   -6.7880   23.8470 C   0  0  0  0  0  3  0  0  0  0  0  0
  -21.1010   -5.9790   24.9970 C   0  0  0  0  0  3  0  0  0  0  0  0
  -21.4100   -4.6050   24.9190 C   0  0  0  0  0  0  0  0  0  0  0  0
  -21.8110   -4.0430   23.6940 C   0  0  0  0  0  3  0  0  0  0  0  0
  -21.9030   -4.8510   22.5450 C   0  0  0  0  0  0  0  0  0  0  0  0
  -22.2700   -4.2990   21.3640 F   0  0  0  0  0  0  0  0  0  0  0  0
  -21.3140   -3.8220   26.0190 F   0  0  0  0  0  0  0  0  0  0  0  0
  -22.7610  -13.5910   21.0580 C   0  0  0  0  0  0  0  0  0  0  0  0
  -22.0340  -12.9020   21.9300 N   0  0  0  0  0  0  0  0  0  0  0  0
  -22.3250  -14.6150   20.5310 O   0  0  0  0  0  0  0  0  0  0  0  0
  -22.3990  -12.0780   22.3830 H   0  0  0  0  0  0  0  0  0  0  0  0
  -21.0970  -13.2060   22.1530 H   0  0  0  0  0  0  0  0  0  0  0  0
  -25.3890  -15.2380   20.2080 N   0  0  0  0  0  0  0  0  0  0  0  0
  -24.6140  -15.8840   20.3140 H   0  0  0  0  0  0  0  0  0  0  0  0
  -26.2390  -15.6880   19.8920 H   0  0  0  0  0  0  0  0  0  0  0  0
  -29.0420  -22.9780   20.9010 C   0  0  0  0  0  2  0  0  0  0  0  0
  -28.8430  -24.2610   20.0520 C   0  0  0  0  0  2  0  0  0  0  0  0
  -28.4130  -25.4750   20.9080 C   0  0  0  0  0  2  0  0  0  0  0  0
  -28.4580  -26.7220   20.1980 O   0  0  0  0  0  0  0  0  0  0  0  0
  -24.5890  -31.8860   23.2320 C   0  0  0  0  0  0  0  0  0  0  0  0
  -27.2890  -27.4490   20.2050 C   0  0  0  0  0  0  0  0  0  0  0  0
  -23.4050  -30.4770   21.5750 C   0  0  0  0  0  3  0  0  0  0  0  0
  -24.8840  -28.9340   20.1810 C   0  0  0  0  0  0  0  0  0  0  0  0
  -25.9290  -30.8500   21.4030 C   0  0  0  0  0  2  0  0  0  0  0  0
  -26.0320  -29.4740   20.7750 C   0  0  0  0  0  0  0  0  0  0  0  0
  -27.2390  -28.7380   20.7840 C   0  0  0  0  0  3  0  0  0  0  0  0
  -26.1260  -26.9190   19.6080 C   0  0  0  0  0  3  0  0  0  0  0  0
  -24.9250  -27.6550   19.5960 C   0  0  0  0  0  3  0  0  0  0  0  0
  -23.6360  -29.7880   20.2040 C   0  0  0  0  0  2  0  0  0  0  0  0
  -24.6580  -31.0860   22.1300 N   0  0  0  0  0  0  0  0  0  0  0  0
  -23.5030  -32.1540   23.7630 O   0  0  0  0  0  0  0  0  0  0  0  0
  -22.7450  -29.4580   22.5330 C   0  0  0  0  0  0  0  0  0  0  0  0
  -21.4210  -29.2770   22.3970 N   0  0  0  0  0  0  0  0  0  0  0  0
  -23.4220  -28.8340   23.3550 O   0  0  0  0  0  0  0  0  0  0  0  0
  -20.9320  -29.8320   21.7100 H   0  0  0  0  0  0  0  0  0  0  0  0
  -18.0450  -28.0830   22.8790 C   0  0  0  0  0  0  0  0  0  0  0  0
  -20.6010  -28.3390   23.1630 C   0  0  0  0  0  3  0  0  0  0  0  0
  -20.7060  -26.9080   22.5870 C   0  0  0  0  0  2  0  0  0  0  0  0
  -19.6090  -26.5850   21.5670 C   0  0  0  0  0  2  0  0  0  0  0  0
  -18.2230  -26.7330   22.2020 C   0  0  0  0  0  2  0  0  0  0  0  0
  -19.1630  -28.8430   23.3150 C   0  0  0  0  0  0  0  0  0  0  0  0
  -18.9430  -30.1040   23.9060 C   0  0  0  0  0  3  0  0  0  0  0  0
  -17.6390  -30.6090   24.0690 C   0  0  0  0  0  3  0  0  0  0  0  0
  -16.5360  -29.8480   23.6450 C   0  0  0  0  0  3  0  0  0  0  0  0
  -16.7380  -28.5860   23.0570 C   0  0  0  0  0  3  0  0  0  0  0  0
  -25.8670  -32.5220   23.8650 C   0  0  0  0  0  3  0  0  0  0  0  0
  -25.5500  -33.9190   24.1900 N   0  0  0  0  0  0  0  0  0  0  0  0
  -25.8790  -34.9710   23.4280 C   0  0  0  0  0  0  0  0  0  0  0  0
  -26.5550  -34.8670   22.4000 O   0  0  0  0  0  0  0  0  0  0  0  0
  -24.9690  -34.0780   24.9990 H   0  0  0  0  0  0  0  0  0  0  0  0
  -24.1480  -36.7560   23.0480 C   0  0  0  0  0  1  0  0  0  0  0  0
  -25.3800  -36.3580   23.8760 C   0  0  0  0  0  3  0  0  0  0  0  0
  -27.4990  -37.2560   24.7300 C   0  0  0  0  0  1  0  0  0  0  0  0
  -26.4070  -37.4160   23.7730 N   0  0  0  0  0  0  0  0  0  0  0  0
  -25.9940  -38.3320   23.9200 H   0  0  0  0  0  0  0  0  0  0  0  0
  -26.3770  -31.7520   25.1450 C   0  0  1  0  0  0  0  0  0  0  0  0
  -25.2770  -31.5050   26.2040 C   0  0  0  0  0  1  0  0  0  0  0  0
  -26.9680  -30.3780   24.7510 C   0  0  0  0  0  1  0  0  0  0  0  0
  -27.5160  -32.5540   25.8150 C   0  0  0  0  0  1  0  0  0  0  0  0
  1 45  1  0
  1  2  1  0
  3  2  1  0
  3  5  1  0
  4  3  2  0
  6  5  1  0
  6 15  1  0
  7 15  1  0
  8 13  1  0
  9 10  1  0
  9  8  1  0
 11 10  1  0
 11 20  1  0
 11 12  1  0
 13  7  1  0
 13 12  1  0
 14  7  2  0
 15 16  1  0
 17 18  2  0
 18 37  1  0
 19 18  1  0
 19 22  1  0
 20 17  1  0
 20 21  1  0
 21 19  2  0
 22 23  1  0
 23 24  2  0
 25 28  1  0
 25 24  1  0
 26 25  2  0
 27 26  1  0
 27 22  2  0
 28 29  1  0
 29 30  1  0
 30 31  2  0
 32 31  1  0
 32 36  1  0
 33 32  2  0
 34 29  2  0
 34 33  1  0
 35 34  1  0
 37 38  1  0
 38 41  1  0
 38 40  1  0
 39 37  2  0
 42 43  1  0
 42 17  1  0
 44 42  1  0
 46 45  1  0
 46 47  1  0
 48 50  1  0
 48 47  1  0
 49 60  2  0
 50 55  1  0
 51 59  1  0
 51 61  1  0
 52 58  1  0
 52 54  1  0
 53 59  1  0
 54 55  2  0
 54 53  1  0
 56 50  2  0
 57 56  1  0
 57 52  2  0
 58 51  1  0
 59 49  1  0
 61 63  2  0
 62 61  1  0
 64 62  1  0
 65 74  2  0
 65 70  1  0
 66 62  1  0
 66 70  1  0
 67 66  1  0
 68 69  1  0
 68 67  1  0
 69 65  1  0
 70 71  2  0
 71 72  1  0
 73 72  2  0
 74 73  1  0
 75 49  1  0
 75 76  1  0
 75 85  1  0
 76 79  1  0
 77 81  1  0
 77 76  1  0
 78 77  2  0
 81 80  1  0
 83 81  1  0
 83 84  1  0
 83 82  1  0
 85 88  1  1
 85 86  1  0
 87 85  1  0
M  ISO  4   7 100  15 100  47 101  48 101
M  END
>  <TORSDO>  (65) 
F 23

>  <SCORE>  (65) 
-12.767

>  <name>  (65) 
64

>  <ligand_id>  (65) 
64

>  <original_smiles>  (65) 
[H]c1c([H])c([H])c2c(c1[H])C([H])([H])C([H])([H])C([H])([H])C2([H])N([H])C(=O)C1([H])N(C(=O)C([H])(N([H])C(=O)C([H])(N([H])C([H])([H])[H])C([H])([H])[H])C(C([H])([H])[H])(C([H])([H])[H])C([H])([H])[H])C([H])([H])c2c([H])c(OC([H])([H])C([H])([H])C([H])([H])C([H])([H])C([H])([H])C(=O)C([H])([H])C([H])([H])N([H])C(=O)N3C([H])([H])C([H])([H])C([H])([H])C([H])(n4nc(-c5c([H])c([H])c(Oc6c([H])c([H])c(F)c([H])c6F)c([H])c5[H])c(C(=O)N([H])[H])c4N([H])[H])C3([H])[H])c([H])c([H])c2C1([H])[H]

>  <smiles>  (65) 
[H]c1c([H])c([H])c2c(c1[H])C([H])([H])C([H])([H])C([H])([H])C2([H])N([H])C(=O)C1([H])N(C(=O)C([H])(N([H])C(=O)C([H])(N([H])C([H])([H])[H])C([H])([H])[H])C(C([H])([H])[H])(C([H])([H])[H])C([H])([H])[H])C([H])([H])c2c([H])c(OC([H])([H])C([H])([H])C([H])([H])C([H])([H])C([H])([H])C(=O)C([H])([H])C([H])([H])N([H])C(=O)N3C([H])([H])C([H])([H])C([H])([H])C([H])(n4nc(-c5c([H])c([H])c(Oc6c([H])c([H])c(F)c([H])c6F)c([H])c5[H])c(C(=O)N([H])[H])c4N([H])[H])C3([H])[H])c([H])c([H])c2C1([H])[H]

$$$$
65:0:0
     RDKit          3D

100106  0  0  1  0  0  0  0  0999 V2000
  -20.4190  -23.4270   22.6900 N   0  0  0  0  0  4  0  0  0  0  0  0
  -19.9180  -23.5360   21.8250 H   0  0  0  0  0  0  0  0  0  0  0  0
  -19.7380  -23.5270   23.4280 H   0  0  0  0  0  0  0  0  0  0  0  0
  -20.9280  -22.0240   22.7050 C   0  0  0  0  0  2  0  0  0  0  0  0
  -19.9610  -21.0620   21.9610 C   0  0  0  0  0  2  0  0  0  0  0  0
  -20.1700  -19.5650   22.3080 C   0  0  0  0  0  2  0  0  0  0  0  0
  -20.4780  -18.6260   21.1150 C   0  0  0  0  0  2  0  0  0  0  0  0
  -21.6820  -17.6930   21.3740 C   0  0  0  0  0  2  0  0  0  0  0  0
  -21.5700  -16.2830   20.7470 C   0  0  0  0  0  2  0  0  0  0  0  0
  -22.8470  -15.4630   20.9970 C   0  0  0  0  0  2  0  0  0  0  0  0
  -22.6850  -13.9320   20.8720 C   0  0  0  0  0  2  0  0  0  0  0  0
  -24.0650  -13.2610   20.7710 C   0  0  0  0  0  2  0  0  0  0  0  0
  -24.0710  -11.7400   20.5100 C   0  0  0  0  0  2  0  0  0  0  0  0
  -25.1960   -9.7070   21.3000 C   0  0  0  0  0  0  0  0  0  0  0  0
  -27.2790   -8.4200   21.4290 C   0  0  0  0  0  2  0  0  0  0  0  0
  -28.1320   -9.0440   22.5550 C   0  0  0  0  0  2  0  0  0  0  0  0
  -28.9710  -10.2260   22.0250 C   0  0  0  0  0  2  0  0  0  0  0  0
  -28.1500  -11.2230   21.1660 C   0  0  0  0  0  3  0  0  0  0  0  0
  -27.2950  -10.4580   20.1260 C   0  0  0  0  0  2  0  0  0  0  0  0
  -26.4660   -9.4990   20.8640 N   0  0  0  0  0  0  0  0  0  0  0  0
  -24.5180   -8.8210   21.8200 O   0  0  0  0  0  0  0  0  0  0  0  0
  -24.8410  -10.9870   21.4960 N   0  0  0  0  0  0  0  0  0  0  0  0
  -24.4000  -11.0710   22.4040 H   0  0  0  0  0  0  0  0  0  0  0  0
  -28.6810  -13.5100   20.1160 C   0  0  0  0  0  0  0  0  0  0  0  0
  -29.8500  -14.0700   19.6830 C   0  0  0  0  0  0  0  0  0  0  0  0
  -30.8660  -13.0850   19.8940 C   0  0  0  0  0  0  0  0  0  0  0  0
  -29.0010  -12.2310   20.5510 N   0  0  0  0  0  0  0  0  0  0  0  0
  -30.3230  -11.9730   20.3800 N   0  0  0  0  0  0  0  0  0  0  0  0
  -32.3190  -13.1670   19.7440 C   0  0  0  0  0  0  0  0  0  0  0  0
  -33.0230  -12.2960   18.8800 C   0  0  0  0  0  3  0  0  0  0  0  0
  -34.4230  -12.4070   18.7400 C   0  0  0  0  0  3  0  0  0  0  0  0
  -35.1320  -13.3970   19.4620 C   0  0  0  0  0  0  0  0  0  0  0  0
  -34.4330  -14.2350   20.3490 C   0  0  0  0  0  3  0  0  0  0  0  0
  -33.0390  -14.1240   20.4940 C   0  0  0  0  0  3  0  0  0  0  0  0
  -36.4940  -13.5680   19.3980 O   0  0  0  0  0  0  0  0  0  0  0  0
  -37.1940  -13.3450   18.2380 C   0  0  0  0  0  0  0  0  0  0  0  0
  -36.9270  -14.0700   17.0570 C   0  0  0  0  0  3  0  0  0  0  0  0
  -37.7090  -13.8530   15.9060 C   0  0  0  0  0  3  0  0  0  0  0  0
  -38.7660  -12.9260   15.9320 C   0  0  0  0  0  0  0  0  0  0  0  0
  -39.0370  -12.2070   17.1100 C   0  0  0  0  0  3  0  0  0  0  0  0
  -38.2540  -12.4170   18.2600 C   0  0  0  0  0  0  0  0  0  0  0  0
  -38.5280  -11.7280   19.3940 F   0  0  0  0  0  0  0  0  0  0  0  0
  -39.5320  -12.7320   14.8320 F   0  0  0  0  0  0  0  0  0  0  0  0
  -30.0330  -15.4710   19.1780 C   0  0  0  0  0  0  0  0  0  0  0  0
  -30.9380  -15.6660   18.2290 N   0  0  0  0  0  0  0  0  0  0  0  0
  -29.3380  -16.4010   19.5900 O   0  0  0  0  0  0  0  0  0  0  0  0
  -31.4820  -14.8940   17.8740 H   0  0  0  0  0  0  0  0  0  0  0  0
  -31.0820  -16.5940   17.8550 H   0  0  0  0  0  0  0  0  0  0  0  0
  -27.3680  -13.9760   20.1900 N   0  0  0  0  0  0  0  0  0  0  0  0
  -27.1250  -14.9020   19.8650 H   0  0  0  0  0  0  0  0  0  0  0  0
  -26.5600  -13.4130   20.4240 H   0  0  0  0  0  0  0  0  0  0  0  0
  -21.3980  -24.5440   22.7850 C   0  0  0  0  0  2  0  0  0  0  0  0
  -23.9120  -24.7700   21.8430 C   0  0  0  0  0  3  0  0  0  0  0  0
  -21.9120  -23.7580   20.2770 C   0  0  0  0  0  1  0  0  0  0  0  0
  -24.8850  -23.6070   19.5700 C   0  0  0  0  0  2  0  0  0  0  0  0
  -22.3780  -24.4890   21.6050 C   0  0  0  0  0  3  0  0  0  0  0  0
  -25.1750  -24.3330   21.0040 C   0  0  0  0  0  0  0  0  0  0  0  0
  -23.3960  -23.2560   19.0170 N   0  0  0  0  0  1  0  0  0  0  0  0
  -26.6350  -24.9650   21.7710 C   0  0  0  0  0  2  0  0  0  0  0  0
  -28.1780  -24.5880   22.1540 O   0  0  0  0  0  0  0  0  0  0  0  0
  -25.3220  -29.8910   22.7790 C   0  0  0  0  0  0  0  0  0  0  0  0
  -29.1860  -25.5060   22.0630 C   0  0  0  0  0  3  0  0  0  0  0  0
  -25.8160  -28.7720   20.6840 C   0  0  0  0  0  3  0  0  0  0  0  0
  -27.9600  -27.3600   20.5260 C   0  0  0  0  0  0  0  0  0  0  0  0
  -27.6310  -28.9580   22.4420 C   0  0  0  0  0  2  0  0  0  0  0  0
  -28.2150  -27.6760   21.8700 C   0  0  0  0  0  0  0  0  0  0  0  0
  -28.9140  -26.7560   22.6640 C   0  0  0  0  0  3  0  0  0  0  0  0
  -29.4060  -25.4160   20.6990 C   0  0  0  0  0  2  0  0  0  0  0  0
  -28.6020  -26.2590   19.9150 C   0  0  0  0  0  3  0  0  0  0  0  0
  -27.0140  -28.2890   19.8070 C   0  0  0  0  0  2  0  0  0  0  0  0
  -26.2470  -29.2520   22.0050 N   0  0  0  0  0  0  0  0  0  0  0  0
  -24.1790  -30.1490   22.3540 O   0  0  0  0  0  0  0  0  0  0  0  0
  -24.7090  -27.7550   20.9360 C   0  0  0  0  0  0  0  0  0  0  0  0
  -23.5400  -28.0170   20.4440 N   0  0  0  0  0  0  0  0  0  0  0  0
  -24.8800  -26.7220   21.5860 O   0  0  0  0  0  0  0  0  0  0  0  0
  -23.3570  -28.8690   19.9340 H   0  0  0  0  0  0  0  0  0  0  0  0
  -19.7750  -27.9750   20.7300 C   0  0  0  0  0  0  0  0  0  0  0  0
  -22.6540  -26.8870   20.2450 C   0  0  0  0  0  2  0  0  0  0  0  0
  -21.2640  -26.1770   17.3210 C   0  0  0  0  0  1  0  0  0  0  0  0
  -19.5490  -26.9700   17.5560 C   0  0  0  0  0  3  0  0  0  0  0  0
  -18.9740  -27.7600   19.1550 C   0  0  0  0  0  3  0  0  0  0  0  0
  -21.2580  -27.6700   21.2330 C   0  0  0  0  0  0  0  0  0  0  0  0
  -21.5070  -28.0190   22.5790 C   0  0  0  0  0  3  0  0  0  0  0  0
  -20.5110  -28.5340   23.4440 C   0  0  0  0  0  3  0  0  0  0  0  0
  -19.1830  -28.7060   23.0200 C   0  0  0  0  0  3  0  0  0  0  0  0
  -18.8340  -28.4190   21.6940 C   0  0  0  0  0  3  0  0  0  0  0  0
  -25.6590  -30.3460   24.2070 C   0  0  0  0  0  3  0  0  0  0  0  0
  -25.5920  -31.8060   24.1710 N   0  0  0  0  0  0  0  0  0  0  0  0
  -26.6650  -32.5940   24.0500 C   0  0  0  0  0  0  0  0  0  0  0  0
  -27.8190  -32.1560   24.0790 O   0  0  0  0  0  0  0  0  0  0  0  0
  -24.6730  -32.2200   24.0940 H   0  0  0  0  0  0  0  0  0  0  0  0
  -26.6810  -34.5210   22.4370 C   0  0  0  0  0  1  0  0  0  0  0  0
  -26.4160  -34.1010   23.8920 C   0  0  0  0  0  3  0  0  0  0  0  0
  -26.8930  -34.7180   26.2160 C   0  0  0  0  0  1  0  0  0  0  0  0
  -27.2320  -34.9210   24.8110 N   0  0  0  0  0  0  0  0  0  0  0  0
  -27.1300  -35.9100   24.6000 H   0  0  0  0  0  0  0  0  0  0  0  0
  -24.6900  -29.7580   25.2990 C   0  0  1  0  0  0  0  0  0  0  0  0
  -23.1860  -29.9550   24.9910 C   0  0  0  0  0  1  0  0  0  0  0  0
  -24.9390  -28.2440   25.4940 C   0  0  0  0  0  1  0  0  0  0  0  0
  -24.9970  -30.4370   26.6520 C   0  0  0  0  0  1  0  0  0  0  0  0
  1  4  1  0
  1 52  1  0
  1  3  1  0
  2  1  1  0
  5  6  1  0
  5  4  1  0
  7  8  1  0
  7  6  1  0
  9 10  1  0
  9  8  1  0
 11 10  1  0
 12 11  1  0
 13 12  1  0
 13 22  1  0
 14 22  1  0
 14 21  2  0
 15 16  1  0
 17 16  1  0
 18 19  1  0
 18 17  1  0
 19 20  1  0
 20 14  1  0
 20 15  1  0
 22 23  1  0
 24 49  1  0
 24 27  1  0
 25 26  1  0
 25 24  2  0
 26 28  2  0
 27 18  1  0
 28 27  1  0
 29 26  1  0
 29 34  1  0
 30 29  2  0
 31 30  1  0
 31 32  2  0
 32 33  1  0
 33 34  2  0
 35 32  1  0
 36 41  1  0
 36 35  1  0
 37 36  2  0
 38 39  2  0
 38 37  1  0
 39 40  1  0
 40 41  2  0
 41 42  1  0
 43 39  1  0
 44 46  2  0
 44 25  1  0
 45 44  1  0
 47 45  1  0
 48 45  1  0
 49 51  1  0
 50 49  1  0
 55 57  1  0
 56 54  1  0
 56 53  1  0
 56 52  1  0
 57 59  1  0
 57 53  2  0
 58 55  1  0
 59 60  1  0
 62 60  1  0
 62 67  1  0
 63 73  1  0
 63 71  1  0
 64 66  1  0
 66 65  1  0
 66 67  2  0
 68 62  1  0
 69 64  2  0
 69 68  1  0
 70 64  1  0
 70 63  1  0
 71 65  1  0
 71 61  1  0
 72 61  2  0
 73 75  2  0
 74 73  1  0
 76 74  1  0
 77 82  2  0
 77 86  1  0
 78 74  1  0
 78 82  1  0
 79 80  1  0
 80 81  2  0
 81 77  1  0
 82 83  1  0
 83 84  2  0
 85 84  1  0
 86 85  2  0
 87 61  1  0
 87 97  1  0
 88 87  1  0
 89 90  2  0
 89 88  1  0
 91 88  1  0
 93 92  1  0
 93 89  1  0
 93 95  1  0
 95 94  1  0
 96 95  1  0
 97 99  1  1
 97100  1  0
 98 97  1  0
M  ISO  4  14 100  22 100  59 101  60 101
M  END
>  <TORSDO>  (66) 
F 29

>  <SCORE>  (66) 
18.231

>  <name>  (66) 
65

>  <ligand_id>  (66) 
65

>  <original_smiles>  (66) 
[H]c1nc([H])c(C([H])([H])[N+]([H])([H])C([H])([H])C([H])([H])C([H])([H])C([H])([H])C([H])([H])C([H])([H])C([H])([H])C([H])([H])C([H])([H])C([H])([H])N([H])C(=O)N2C([H])([H])C([H])([H])C([H])([H])C([H])(n3nc(-c4c([H])c([H])c(Oc5c([H])c([H])c(F)c([H])c5F)c([H])c4[H])c(C(=O)N([H])[H])c3N([H])[H])C2([H])[H])c([H])c1C([H])([H])Oc1c([H])c([H])c2c(c1[H])C([H])([H])N(C(=O)C([H])(N([H])C(=O)C([H])(N([H])C([H])([H])[H])C([H])([H])[H])C(C([H])([H])[H])(C([H])([H])[H])C([H])([H])[H])C([H])(C(=O)N([H])C1([H])c3c([H])c([H])c([H])c([H])c3C([H])([H])C([H])([H])C1([H])[H])C2([H])[H]

>  <smiles>  (66) 
[H]c1nc([H])c(C([H])([H])[N+]([H])([H])C([H])([H])C([H])([H])C([H])([H])C([H])([H])C([H])([H])C([H])([H])C([H])([H])C([H])([H])C([H])([H])C([H])([H])N([H])C(=O)N2C([H])([H])C([H])([H])C([H])([H])C([H])(n3nc(-c4c([H])c([H])c(Oc5c([H])c([H])c(F)c([H])c5F)c([H])c4[H])c(C(=O)N([H])[H])c3N([H])[H])C2([H])[H])c([H])c1C([H])([H])Oc1c([H])c([H])c2c(c1[H])C([H])([H])N(C(=O)C([H])(N([H])C(=O)C([H])(N([H])C([H])([H])[H])C([H])([H])[H])C(C([H])([H])[H])(C([H])([H])[H])C([H])([H])[H])C([H])(C(=O)N([H])C1([H])c3c([H])c([H])c([H])c([H])c3C([H])([H])C([H])([H])C1([H])[H])C2([H])[H]

$$$$
66:0:0
     RDKit          3D

100108  0  0  1  0  0  0  0  0999 V2000
  -32.8280  -27.8580   24.9690 C   0  0  0  0  0  3  0  0  0  0  0  0
  -32.6100  -28.9010   24.1460 C   0  0  0  0  0  3  0  0  0  0  0  0
  -31.7210  -27.0330   25.4940 C   0  0  0  0  0  0  0  0  0  0  0  0
  -30.3130  -27.3560   25.0060 C   0  0  0  0  0  2  0  0  0  0  0  0
  -31.2280  -29.3120   23.6520 C   0  0  0  0  0  3  0  0  0  0  0  0
  -30.2850  -28.0780   23.6370 C   0  0  0  0  0  3  0  0  0  0  0  0
  -31.9300  -26.0930   26.3130 N   0  0  0  0  0  0  0  0  0  0  0  0
  -32.9140  -25.9960   26.5440 H   0  0  0  0  0  0  0  0  0  0  0  0
  -30.6250  -27.1010   22.4800 C   0  0  0  0  0  2  0  0  0  0  0  0
  -30.2830  -27.6300   21.0770 C   0  0  0  0  0  2  0  0  0  0  0  0
  -30.9840  -26.8330   19.9630 C   0  0  0  0  0  2  0  0  0  0  0  0
  -30.5820  -27.3160   18.5620 C   0  0  0  0  0  2  0  0  0  0  0  0
  -31.5170  -26.8230   17.4440 C   0  0  0  0  0  2  0  0  0  0  0  0
  -30.9990  -27.2350   16.0570 C   0  0  0  0  0  2  0  0  0  0  0  0
  -32.0410  -27.1160   14.9330 C   0  0  0  0  0  2  0  0  0  0  0  0
  -31.4330  -27.4730   13.5640 C   0  0  0  0  0  2  0  0  0  0  0  0
  -32.4680  -27.5850   12.4320 C   0  0  0  0  0  2  0  0  0  0  0  0
  -31.7970  -27.7970   11.0550 C   0  0  0  0  0  2  0  0  0  0  0  0
  -32.7790  -27.8510    9.8700 C   0  0  0  0  0  0  0  0  0  0  0  0
  -33.2490  -27.3920    7.4850 C   0  0  0  0  0  2  0  0  0  0  0  0
  -33.0710  -28.6280    6.5860 C   0  0  0  0  0  2  0  0  0  0  0  0
  -31.6030  -28.7700    6.1410 C   0  0  0  0  0  2  0  0  0  0  0  0
  -30.6140  -28.6760    7.3310 C   0  0  0  0  0  3  0  0  0  0  0  0
  -30.9250  -27.4470    8.2170 C   0  0  0  0  0  2  0  0  0  0  0  0
  -32.3370  -27.5150    8.6300 N   0  0  0  0  0  0  0  0  0  0  0  0
  -33.9570  -28.1510   10.0890 O   0  0  0  0  0  0  0  0  0  0  0  0
  -28.3160  -29.7210    6.8050 C   0  0  0  0  0  0  0  0  0  0  0  0
  -27.1890  -29.2060    6.2240 C   0  0  0  0  0  0  0  0  0  0  0  0
  -27.4800  -27.8360    5.9450 C   0  0  0  0  0  0  0  0  0  0  0  0
  -29.2260  -28.6760    6.8660 N   0  0  0  0  0  0  0  0  0  0  0  0
  -28.6920  -27.5230    6.3870 N   0  0  0  0  0  0  0  0  0  0  0  0
  -26.6970  -26.8180    5.2300 C   0  0  0  0  0  0  0  0  0  0  0  0
  -26.3810  -25.5780    5.8260 C   0  0  0  0  0  3  0  0  0  0  0  0
  -25.6110  -24.6230    5.1250 C   0  0  0  0  0  3  0  0  0  0  0  0
  -25.1460  -24.9060    3.8190 C   0  0  0  0  0  0  0  0  0  0  0  0
  -25.4840  -26.1340    3.2220 C   0  0  0  0  0  3  0  0  0  0  0  0
  -26.2540  -27.0810    3.9180 C   0  0  0  0  0  3  0  0  0  0  0  0
  -24.4150  -24.0310    3.0540 O   0  0  0  0  0  0  0  0  0  0  0  0
  -23.5910  -23.0920    3.6250 C   0  0  0  0  0  0  0  0  0  0  0  0
  -22.4770  -23.4580    4.4100 C   0  0  0  0  0  3  0  0  0  0  0  0
  -21.6160  -22.4650    4.9180 C   0  0  0  0  0  3  0  0  0  0  0  0
  -21.8620  -21.1070    4.6330 C   0  0  0  0  0  0  0  0  0  0  0  0
  -22.9680  -20.7420    3.8470 C   0  0  0  0  0  3  0  0  0  0  0  0
  -23.8280  -21.7320    3.3410 C   0  0  0  0  0  0  0  0  0  0  0  0
  -24.8810  -21.3760    2.5650 F   0  0  0  0  0  0  0  0  0  0  0  0
  -21.0320  -20.1530    5.1150 F   0  0  0  0  0  0  0  0  0  0  0  0
  -25.9410  -29.9620    5.8630 C   0  0  0  0  0  0  0  0  0  0  0  0
  -24.7850  -29.3120    5.9460 N   0  0  0  0  0  0  0  0  0  0  0  0
  -25.9810  -31.1520    5.5520 O   0  0  0  0  0  0  0  0  0  0  0  0
  -24.7490  -28.3420    6.2210 H   0  0  0  0  0  0  0  0  0  0  0  0
  -23.9230  -29.7930    5.7310 H   0  0  0  0  0  0  0  0  0  0  0  0
  -28.6520  -30.9900    7.2670 N   0  0  0  0  0  0  0  0  0  0  0  0
  -28.0230  -31.7830    7.1870 H   0  0  0  0  0  0  0  0  0  0  0  0
  -29.5530  -31.2390    7.6570 H   0  0  0  0  0  0  0  0  0  0  0  0
  -30.6800  -30.4610   24.5270 C   0  0  0  0  0  2  0  0  0  0  0  0
  -31.3740  -31.8170   24.3050 C   0  0  0  0  0  2  0  0  0  0  0  0
  -31.1920  -32.3290   22.8890 C   0  0  0  0  0  3  0  0  0  0  0  0
  -32.1740  -32.8200   22.1100 C   0  0  0  0  0  3  0  0  0  0  0  0
  -31.9700  -33.2900   20.6780 C   0  0  0  0  0  2  0  0  0  0  0  0
  -32.2220  -34.6870   20.4870 O   0  0  0  0  0  0  0  0  0  0  0  0
  -32.1570  -36.8650   27.2380 C   0  0  0  0  0  0  0  0  0  0  0  0
  -31.6540  -35.5060   21.4320 C   0  0  0  0  0  0  0  0  0  0  0  0
  -30.2190  -37.5690   25.8660 C   0  0  0  0  0  3  0  0  0  0  0  0
  -30.4470  -37.1840   23.3530 C   0  0  0  0  0  0  0  0  0  0  0  0
  -32.4950  -37.1500   24.7910 C   0  0  0  0  0  2  0  0  0  0  0  0
  -31.7560  -36.7270   23.5430 C   0  0  0  0  0  0  0  0  0  0  0  0
  -32.3640  -35.8930   22.5870 C   0  0  0  0  0  3  0  0  0  0  0  0
  -30.3400  -35.9810   21.2370 C   0  0  0  0  0  3  0  0  0  0  0  0
  -29.7300  -36.8140   22.1990 C   0  0  0  0  0  3  0  0  0  0  0  0
  -29.8750  -38.0720   24.4360 C   0  0  0  0  0  2  0  0  0  0  0  0
  -31.6520  -37.1550   26.0060 N   0  0  0  0  0  0  0  0  0  0  0  0
  -31.4630  -36.9840   28.2560 O   0  0  0  0  0  0  0  0  0  0  0  0
  -29.2190  -36.4550   26.2460 C   0  0  0  0  0  0  0  0  0  0  0  0
  -28.0770  -36.4120   25.5410 N   0  0  0  0  0  0  0  0  0  0  0  0
  -29.4860  -35.6390   27.1330 O   0  0  0  0  0  0  0  0  0  0  0  0
  -27.9300  -37.1200   24.8350 H   0  0  0  0  0  0  0  0  0  0  0  0
  -25.9230  -34.1560   23.7270 C   0  0  0  0  0  0  0  0  0  0  0  0
  -27.0070  -35.4290   25.6970 C   0  0  0  0  0  3  0  0  0  0  0  0
  -27.5730  -34.0590   26.1400 C   0  0  0  0  0  2  0  0  0  0  0  0
  -27.8740  -33.1240   24.9650 C   0  0  0  0  0  2  0  0  0  0  0  0
  -26.6080  -32.8650   24.1430 C   0  0  0  0  0  2  0  0  0  0  0  0
  -26.1220  -35.3610   24.4470 C   0  0  0  0  0  0  0  0  0  0  0  0
  -25.4890  -36.5390   23.9970 C   0  0  0  0  0  3  0  0  0  0  0  0
  -24.6690  -36.5250   22.8540 C   0  0  0  0  0  3  0  0  0  0  0  0
  -24.4590  -35.3230   22.1550 C   0  0  0  0  0  3  0  0  0  0  0  0
  -25.0840  -34.1430   22.5930 C   0  0  0  0  0  3  0  0  0  0  0  0
  -33.6320  -36.3940   27.4300 C   0  0  0  0  0  3  0  0  0  0  0  0
  -34.2180  -37.2020   28.5070 N   0  0  0  0  0  0  0  0  0  0  0  0
  -35.1500  -38.1470   28.3260 C   0  0  0  0  0  0  0  0  0  0  0  0
  -35.6620  -38.3830   27.2280 O   0  0  0  0  0  0  0  0  0  0  0  0
  -33.8020  -37.1070   29.4220 H   0  0  0  0  0  0  0  0  0  0  0  0
  -34.9400  -40.3580   29.5040 C   0  0  0  0  0  1  0  0  0  0  0  0
  -35.5820  -38.9630   29.5590 C   0  0  0  0  0  3  0  0  0  0  0  0
  -37.7140  -37.8330   30.0080 C   0  0  0  0  0  1  0  0  0  0  0  0
  -37.0490  -39.0940   29.6930 N   0  0  0  0  0  0  0  0  0  0  0  0
  -37.2880  -39.7640   30.4180 H   0  0  0  0  0  0  0  0  0  0  0  0
  -33.7580  -34.8550   27.7510 C   0  0  1  0  0  0  0  0  0  0  0  0
  -32.9360  -34.4070   28.9790 C   0  0  0  0  0  1  0  0  0  0  0  0
  -33.2990  -34.0140   26.5400 C   0  0  0  0  0  1  0  0  0  0  0  0
  -35.2410  -34.4940   28.0070 C   0  0  0  0  0  1  0  0  0  0  0  0
  1  3  1  0
  2  1  2  0
  3  7  2  0
  4  3  1  0
  5  2  1  0
  5 55  1  0
  6  9  1  0
  6  5  1  0
  6  4  1  0
  7  8  1  0
 10  9  1  0
 11 10  1  0
 12 11  1  0
 13 12  1  0
 14 13  1  0
 15 14  1  0
 16 15  1  0
 17 16  1  0
 18 17  1  0
 19 26  2  0
 19 18  1  0
 20 25  1  0
 21 20  1  0
 22 21  1  0
 23 22  1  0
 23 24  1  0
 24 25  1  0
 25 19  1  0
 27 30  1  0
 27 52  1  0
 28 27  2  0
 29 28  1  0
 29 31  2  0
 30 23  1  0
 31 30  1  0
 32 33  1  0
 32 29  1  0
 34 33  2  0
 35 34  1  0
 36 35  2  0
 36 37  1  0
 37 32  2  0
 38 39  1  0
 38 35  1  0
 39 40  1  0
 40 41  2  0
 42 41  1  0
 42 46  1  0
 43 42  2  0
 44 39  2  0
 44 43  1  0
 45 44  1  0
 47 48  1  0
 47 28  1  0
 48 50  1  0
 49 47  2  0
 51 48  1  0
 52 54  1  0
 53 52  1  0
 56 55  1  0
 57 56  1  0
 58 57  2  0
 59 58  1  0
 60 59  1  0
 60 62  1  0
 61 72  2  0
 62 67  1  0
 63 71  1  0
 63 73  1  0
 64 66  1  0
 64 70  1  0
 65 71  1  0
 66 65  1  0
 67 66  2  0
 68 62  2  0
 68 69  1  0
 69 64  2  0
 70 63  1  0
 71 61  1  0
 73 75  2  0
 74 73  1  0
 76 74  1  0
 77 81  1  0
 77 82  1  0
 78 74  1  0
 78 79  1  0
 80 79  1  0
 81 80  1  0
 82 78  1  0
 83 82  2  0
 84 83  1  0
 85 86  1  0
 85 84  2  0
 86 77  2  0
 87 61  1  0
 87 97  1  0
 87 88  1  0
 88 91  1  0
 89 88  1  0
 89 93  1  0
 90 89  2  0
 93 92  1  0
 93 95  1  0
 95 94  1  0
 95 96  1  0
 97100  1  1
 97 98  1  0
 99 97  1  0
M  ISO  4  18 100  19 100  59 101  60 101
M  END
>  <TORSDO>  (67) 
F 30

>  <SCORE>  (67) 
5.555

>  <name>  (67) 
66

>  <ligand_id>  (67) 
66

>  <original_smiles>  (67) 
[H]N=C1C([H])=C([H])C([H])(C([H])([H])C([H])([H])C([H])=C([H])C([H])([H])Oc2c([H])c([H])c3c(c2[H])C([H])([H])N(C(=O)C([H])(N([H])C(=O)C([H])(N([H])C([H])([H])[H])C([H])([H])[H])C(C([H])([H])[H])(C([H])([H])[H])C([H])([H])[H])C([H])(C(=O)N([H])C2([H])c4c([H])c([H])c([H])c([H])c4C([H])([H])C([H])([H])C2([H])[H])C3([H])[H])C([H])(C([H])([H])C([H])([H])C([H])([H])C([H])([H])C([H])([H])C([H])([H])C([H])([H])C([H])([H])C([H])([H])C([H])([H])C(=O)N2C([H])([H])C([H])([H])C([H])([H])C([H])(n3nc(-c4c([H])c([H])c(Oc5c([H])c([H])c(F)c([H])c5F)c([H])c4[H])c(C(=O)N([H])[H])c3N([H])[H])C2([H])[H])C1([H])[H]

>  <smiles>  (67) 
[H]N=C1C([H])=C([H])C([H])(C([H])([H])C([H])([H])C([H])=C([H])C([H])([H])Oc2c([H])c([H])c3c(c2[H])C([H])([H])N(C(=O)C([H])(N([H])C(=O)C([H])(N([H])C([H])([H])[H])C([H])([H])[H])C(C([H])([H])[H])(C([H])([H])[H])C([H])([H])[H])C([H])(C(=O)N([H])C2([H])c4c([H])c([H])c([H])c([H])c4C([H])([H])C([H])([H])C2([H])[H])C3([H])[H])C([H])(C([H])([H])C([H])([H])C([H])([H])C([H])([H])C([H])([H])C([H])([H])C([H])([H])C([H])([H])C([H])([H])C([H])([H])C(=O)N2C([H])([H])C([H])([H])C([H])([H])C([H])(n3nc(-c4c([H])c([H])c(Oc5c([H])c([H])c(F)c([H])c5F)c([H])c4[H])c(C(=O)N([H])[H])c3N([H])[H])C2([H])[H])C1([H])[H]

$$$$
67:0:0
     RDKit          3D

102111  0  0  1  0  0  0  0  0999 V2000
  -28.8510  -23.5930   25.2470 C   0  0  0  0  0  3  0  0  0  0  0  0
  -29.9240  -22.6940   25.0980 C   0  0  0  0  0  3  0  0  0  0  0  0
  -27.9930  -23.8550   24.1620 C   0  0  0  0  0  3  0  0  0  0  0  0
  -29.2950  -22.3340   22.7700 C   0  0  0  0  0  3  0  0  0  0  0  0
  -30.1460  -22.0590   23.8590 C   0  0  0  0  0  0  0  0  0  0  0  0
  -28.2090  -23.2240   22.9180 C   0  0  0  0  0  0  0  0  0  0  0  0
  -31.2870  -21.0750   23.6940 C   0  0  0  0  0  2  0  0  0  0  0  0
  -30.8510  -19.6230   23.9710 C   0  0  0  0  0  2  0  0  0  0  0  0
  -32.3870  -18.3220   22.3560 C   0  0  0  0  0  2  0  0  0  0  0  0
  -31.7290  -17.2830   24.5830 C   0  0  0  0  0  2  0  0  0  0  0  0
  -31.3890  -17.3900   21.6440 C   0  0  0  0  0  2  0  0  0  0  0  0
  -30.7450  -16.3600   23.8430 C   0  0  0  0  0  2  0  0  0  0  0  0
  -32.0040  -18.6050   23.8290 C   0  0  0  0  0  3  0  0  0  0  0  0
  -31.2580  -16.0670   22.4250 C   0  0  0  0  0  3  0  0  0  0  0  0
  -30.7940  -14.3440   20.6940 C   0  0  0  0  0  0  0  0  0  0  0  0
  -30.4080  -12.2860   19.3910 C   0  0  0  0  0  2  0  0  0  0  0  0
  -29.4790  -12.5270   18.1890 C   0  0  0  0  0  2  0  0  0  0  0  0
  -28.0060  -12.3790   18.6080 C   0  0  0  0  0  2  0  0  0  0  0  0
  -27.6650  -13.2040   19.8770 C   0  0  0  0  0  3  0  0  0  0  0  0
  -28.7030  -12.9590   20.9940 C   0  0  0  0  0  2  0  0  0  0  0  0
  -30.0460  -13.2370   20.4530 N   0  0  0  0  0  0  0  0  0  0  0  0
  -31.8050  -14.6280   20.0460 O   0  0  0  0  0  0  0  0  0  0  0  0
  -30.4220  -15.0690   21.7580 N   0  0  0  0  0  0  0  0  0  0  0  0
  -29.5810  -14.7730   22.2310 H   0  0  0  0  0  0  0  0  0  0  0  0
  -25.2600  -13.8150   20.5640 C   0  0  0  0  0  0  0  0  0  0  0  0
  -24.1850  -13.0440   20.9160 C   0  0  0  0  0  0  0  0  0  0  0  0
  -24.6400  -11.6900   20.8730 C   0  0  0  0  0  0  0  0  0  0  0  0
  -26.3040  -12.9310   20.3370 N   0  0  0  0  0  0  0  0  0  0  0  0
  -25.9320  -11.6480   20.5770 N   0  0  0  0  0  0  0  0  0  0  0  0
  -23.9060  -10.4290   21.0410 C   0  0  0  0  0  0  0  0  0  0  0  0
  -24.3610   -9.4210   21.9190 C   0  0  0  0  0  3  0  0  0  0  0  0
  -23.6280   -8.2250   22.0760 C   0  0  0  0  0  3  0  0  0  0  0  0
  -22.4270   -8.0280   21.3550 C   0  0  0  0  0  0  0  0  0  0  0  0
  -21.9900   -9.0250   20.4650 C   0  0  0  0  0  3  0  0  0  0  0  0
  -22.7230  -10.2140   20.3060 C   0  0  0  0  0  3  0  0  0  0  0  0
  -21.6630   -6.8880   21.4240 O   0  0  0  0  0  0  0  0  0  0  0  0
  -21.6850   -6.0730   22.5280 C   0  0  0  0  0  0  0  0  0  0  0  0
  -21.4010   -6.5640   23.8210 C   0  0  0  0  0  3  0  0  0  0  0  0
  -21.3660   -5.6790   24.9170 C   0  0  0  0  0  3  0  0  0  0  0  0
  -21.6040   -4.3050   24.7230 C   0  0  0  0  0  0  0  0  0  0  0  0
  -21.8820   -3.8140   23.4340 C   0  0  0  0  0  3  0  0  0  0  0  0
  -21.9190   -4.6960   22.3400 C   0  0  0  0  0  0  0  0  0  0  0  0
  -22.1660   -4.2150   21.0980 F   0  0  0  0  0  0  0  0  0  0  0  0
  -21.5630   -3.4540   25.7740 F   0  0  0  0  0  0  0  0  0  0  0  0
  -22.7880  -13.5240   21.1810 C   0  0  0  0  0  0  0  0  0  0  0  0
  -22.0520  -12.8270   22.0400 N   0  0  0  0  0  0  0  0  0  0  0  0
  -22.3550  -14.5510   20.6600 O   0  0  0  0  0  0  0  0  0  0  0  0
  -22.4140  -11.9950   22.4820 H   0  0  0  0  0  0  0  0  0  0  0  0
  -21.1140  -13.1310   22.2590 H   0  0  0  0  0  0  0  0  0  0  0  0
  -25.4330  -15.1840   20.3980 N   0  0  0  0  0  0  0  0  0  0  0  0
  -24.6710  -15.8410   20.5150 H   0  0  0  0  0  0  0  0  0  0  0  0
  -26.2970  -15.6220   20.1020 H   0  0  0  0  0  0  0  0  0  0  0  0
  -27.2630  -23.4870   21.7510 C   0  0  0  0  0  3  0  0  0  0  0  0
  -26.6380  -22.1840   21.1970 C   0  0  0  0  0  2  0  0  0  0  0  0
  -25.8510  -21.3830   22.2520 C   0  0  0  0  0  2  0  0  0  0  0  0
  -25.2600  -20.0780   21.6990 C   0  0  0  0  0  2  0  0  0  0  0  0
  -24.4190  -19.3290   22.7440 C   0  0  0  0  0  2  0  0  0  0  0  0
  -23.0690  -17.2200   23.2580 C   0  0  0  0  0  1  0  0  0  0  0  0
  -23.9470  -17.9580   22.2410 C   0  0  0  0  0  2  0  0  0  0  0  0
  -27.9310  -24.3330   20.6460 C   0  0  0  0  0  2  0  0  0  0  0  0
  -28.3910  -25.7270   21.1320 C   0  0  0  0  0  2  0  0  0  0  0  0
  -28.3770  -26.7100   20.0930 O   0  0  0  0  0  0  0  0  0  0  0  0
  -24.6100  -31.8710   23.2120 C   0  0  0  0  0  0  0  0  0  0  0  0
  -27.2290  -27.4640   20.0850 C   0  0  0  0  0  0  0  0  0  0  0  0
  -23.3970  -30.4950   21.5530 C   0  0  0  0  0  3  0  0  0  0  0  0
  -24.8440  -28.9660   20.1140 C   0  0  0  0  0  0  0  0  0  0  0  0
  -25.9230  -30.8460   21.3590 C   0  0  0  0  0  2  0  0  0  0  0  0
  -26.0020  -29.4820   20.7090 C   0  0  0  0  0  0  0  0  0  0  0  0
  -27.2010  -28.7350   20.6980 C   0  0  0  0  0  3  0  0  0  0  0  0
  -26.0610  -26.9640   19.4750 C   0  0  0  0  0  3  0  0  0  0  0  0
  -24.8650  -27.7030   19.4980 C   0  0  0  0  0  3  0  0  0  0  0  0
  -23.6030  -29.8280   20.1670 C   0  0  0  0  0  2  0  0  0  0  0  0
  -24.6620  -31.0840   22.1010 N   0  0  0  0  0  0  0  0  0  0  0  0
  -23.5300  -32.1450   23.7530 O   0  0  0  0  0  0  0  0  0  0  0  0
  -22.7390  -29.4670   22.5010 C   0  0  0  0  0  0  0  0  0  0  0  0
  -21.4120  -29.3040   22.3750 N   0  0  0  0  0  0  0  0  0  0  0  0
  -23.4170  -28.8210   23.3030 O   0  0  0  0  0  0  0  0  0  0  0  0
  -20.9260  -29.8790   21.7000 H   0  0  0  0  0  0  0  0  0  0  0  0
  -18.0260  -28.1380   22.8490 C   0  0  0  0  0  0  0  0  0  0  0  0
  -20.5850  -28.3660   23.1330 C   0  0  0  0  0  3  0  0  0  0  0  0
  -20.6750  -26.9410   22.5420 C   0  0  0  0  0  2  0  0  0  0  0  0
  -19.5740  -26.6390   21.5210 C   0  0  0  0  0  2  0  0  0  0  0  0
  -18.1910  -26.7930   22.1630 C   0  0  0  0  0  2  0  0  0  0  0  0
  -19.1510  -28.8840   23.2910 C   0  0  0  0  0  0  0  0  0  0  0  0
  -18.9440  -30.1440   23.8930 C   0  0  0  0  0  3  0  0  0  0  0  0
  -17.6450  -30.6590   24.0570 C   0  0  0  0  0  3  0  0  0  0  0  0
  -16.5340  -29.9100   23.6320 C   0  0  0  0  0  3  0  0  0  0  0  0
  -16.7250  -28.6510   23.0350 C   0  0  0  0  0  3  0  0  0  0  0  0
  -25.9000  -32.4830   23.8400 C   0  0  0  0  0  3  0  0  0  0  0  0
  -25.5870  -33.8630   24.2330 N   0  0  0  0  0  0  0  0  0  0  0  0
  -25.9020  -34.9480   23.5140 C   0  0  0  0  0  0  0  0  0  0  0  0
  -26.5610  -34.8930   22.4710 O   0  0  0  0  0  0  0  0  0  0  0  0
  -24.9950  -33.9790   25.0430 H   0  0  0  0  0  0  0  0  0  0  0  0
  -24.1490  -36.7330   23.2640 C   0  0  0  0  0  1  0  0  0  0  0  0
  -25.4100  -36.3120   24.0340 C   0  0  0  0  0  3  0  0  0  0  0  0
  -27.5590  -37.1810   24.8460 C   0  0  0  0  0  1  0  0  0  0  0  0
  -26.4290  -37.3800   23.9420 N   0  0  0  0  0  0  0  0  0  0  0  0
  -26.0180  -38.2880   24.1430 H   0  0  0  0  0  0  0  0  0  0  0  0
  -26.4440  -31.6590   25.0710 C   0  0  1  0  0  0  0  0  0  0  0  0
  -25.3700  -31.3660   26.1450 C   0  0  0  0  0  1  0  0  0  0  0  0
  -27.0250  -30.3040   24.6040 C   0  0  0  0  0  1  0  0  0  0  0  0
  -27.6020  -32.4290   25.7470 C   0  0  0  0  0  1  0  0  0  0  0  0
  2  1  1  0
  3  1  2  0
  4  6  2  0
  4  5  1  0
  5  2  2  0
  6  3  1  0
  7  5  1  0
  7  8  1  0
  9 13  1  0
 11  9  1  0
 11 14  1  0
 12 10  1  0
 13  8  1  0
 13 10  1  0
 14 23  1  0
 14 12  1  0
 15 23  1  0
 16 21  1  0
 17 18  1  0
 17 16  1  0
 19 18  1  0
 19 28  1  0
 19 20  1  0
 21 15  1  0
 21 20  1  0
 22 15  2  0
 23 24  1  0
 25 26  2  0
 26 45  1  0
 27 26  1  0
 27 30  1  0
 28 25  1  0
 28 29  1  0
 29 27  2  0
 30 31  1  0
 31 32  2  0
 33 36  1  0
 33 32  1  0
 34 33  2  0
 35 34  1  0
 35 30  2  0
 36 37  1  0
 37 38  1  0
 38 39  2  0
 40 39  1  0
 40 44  1  0
 41 40  2  0
 42 37  2  0
 42 41  1  0
 43 42  1  0
 45 46  1  0
 46 49  1  0
 46 48  1  0
 47 45  2  0
 50 51  1  0
 50 25  1  0
 52 50  1  0
 53 60  1  0
 53  6  1  0
 54 53  1  0
 54 55  1  0
 56 55  1  0
 56 57  1  0
 59 57  1  0
 59 58  1  0
 60 61  1  0
 62 61  1  0
 63 74  2  0
 64 62  1  0
 64 69  1  0
 65 73  1  0
 65 75  1  0
 66 72  1  0
 66 68  1  0
 67 73  1  0
 68 67  1  0
 69 68  2  0
 70 71  1  0
 70 64  2  0
 71 66  2  0
 72 65  1  0
 73 63  1  0
 75 77  2  0
 76 75  1  0
 78 76  1  0
 79 88  2  0
 79 84  1  0
 80 76  1  0
 80 84  1  0
 81 80  1  0
 82 83  1  0
 82 81  1  0
 83 79  1  0
 84 85  2  0
 85 86  1  0
 87 86  2  0
 88 87  1  0
 89 63  1  0
 89 90  1  0
 89 99  1  0
 90 93  1  0
 91 95  1  0
 91 90  1  0
 92 91  2  0
 95 94  1  0
 97 95  1  0
 97 98  1  0
 97 96  1  0
 99102  1  1
 99100  1  0
101 99  1  0
M  ISO  4  15 100  23 100  61 101  62 101
M  END
>  <TORSDO>  (68) 
F 27

>  <SCORE>  (68) 
39.749

>  <name>  (68) 
67

>  <ligand_id>  (68) 
67

>  <original_smiles>  (68) 
[H]c1c([H])c([H])c2c(c1[H])C([H])([H])C([H])([H])C([H])([H])C2([H])N([H])C(=O)C1([H])N(C(=O)C([H])(N([H])C(=O)C([H])(N([H])C([H])([H])[H])C([H])([H])[H])C(C([H])([H])[H])(C([H])([H])[H])C([H])([H])[H])C([H])([H])c2c([H])c(OC([H])([H])C([H])([H])C([H])(c3c([H])c([H])c([H])c(C([H])([H])C([H])([H])C4([H])C([H])([H])C([H])([H])C([H])(N([H])C(=O)N5C([H])([H])C([H])([H])C([H])([H])C([H])(n6nc(-c7c([H])c([H])c(Oc8c([H])c([H])c(F)c([H])c8F)c([H])c7[H])c(C(=O)N([H])[H])c6N([H])[H])C5([H])[H])C([H])([H])C4([H])[H])c3[H])C([H])([H])C([H])([H])C([H])([H])C([H])([H])C([H])([H])C([H])([H])[H])c([H])c([H])c2C1([H])[H]

>  <smiles>  (68) 
[H]c1c([H])c([H])c2c(c1[H])C([H])([H])C([H])([H])C([H])([H])C2([H])N([H])C(=O)C1([H])N(C(=O)C([H])(N([H])C(=O)C([H])(N([H])C([H])([H])[H])C([H])([H])[H])C(C([H])([H])[H])(C([H])([H])[H])C([H])([H])[H])C([H])([H])c2c([H])c(OC([H])([H])C([H])([H])C([H])(c3c([H])c([H])c([H])c(C([H])([H])C([H])([H])C4([H])C([H])([H])C([H])([H])C([H])(N([H])C(=O)N5C([H])([H])C([H])([H])C([H])([H])C([H])(n6nc(-c7c([H])c([H])c(Oc8c([H])c([H])c(F)c([H])c8F)c([H])c7[H])c(C(=O)N([H])[H])c6N([H])[H])C5([H])[H])C([H])([H])C4([H])[H])c3[H])C([H])([H])C([H])([H])C([H])([H])C([H])([H])C([H])([H])C([H])([H])[H])c([H])c([H])c2C1([H])[H]

$$$$
68:0:0
     RDKit          3D

108116  0  0  1  0  0  0  0  0999 V2000
  -28.4970  -26.2070   22.3870 C   0  0  0  0  0  3  0  0  0  0  0  0
  -29.6720  -25.2870   21.9420 C   0  0  0  0  0  2  0  0  0  0  0  0
  -30.6120  -25.9210   21.0680 O   0  0  0  0  0  0  0  0  0  0  0  0
  -33.7220  -19.5630   20.2990 C   0  0  0  0  0  0  0  0  0  0  0  0
  -31.7060  -25.1960   20.6570 C   0  0  0  0  0  0  0  0  0  0  0  0
  -35.2180  -21.5300   20.1350 C   0  0  0  0  0  3  0  0  0  0  0  0
  -34.0500  -23.7900   19.9420 C   0  0  0  0  0  0  0  0  0  0  0  0
  -32.7600  -21.7010   19.4690 C   0  0  0  0  0  2  0  0  0  0  0  0
  -32.8060  -23.1510   19.8930 C   0  0  0  0  0  0  0  0  0  0  0  0
  -31.6310  -23.8470   20.2380 C   0  0  0  0  0  3  0  0  0  0  0  0
  -32.9610  -25.8360   20.6840 C   0  0  0  0  0  3  0  0  0  0  0  0
  -34.1350  -25.1380   20.3370 C   0  0  0  0  0  3  0  0  0  0  0  0
  -35.2530  -22.9680   19.5450 C   0  0  0  0  0  2  0  0  0  0  0  0
  -33.8720  -20.8850   20.0020 N   0  0  0  0  0  0  0  0  0  0  0  0
  -34.6910  -18.8690   20.6320 O   0  0  0  0  0  0  0  0  0  0  0  0
  -35.7260  -21.5890   21.5920 C   0  0  0  0  0  0  0  0  0  0  0  0
  -36.9900  -21.1880   21.8010 N   0  0  0  0  0  0  0  0  0  0  0  0
  -35.0010  -22.0130   22.4930 O   0  0  0  0  0  0  0  0  0  0  0  0
  -37.5170  -20.8540   21.0070 H   0  0  0  0  0  0  0  0  0  0  0  0
  -39.8900  -19.9090   23.5310 C   0  0  0  0  0  0  0  0  0  0  0  0
  -37.6950  -21.1930   23.0820 C   0  0  0  0  0  3  0  0  0  0  0  0
  -38.5320  -22.4830   23.2540 C   0  0  0  0  0  2  0  0  0  0  0  0
  -39.9830  -22.3250   22.7870 C   0  0  0  0  0  2  0  0  0  0  0  0
  -40.6800  -21.2060   23.5650 C   0  0  0  0  0  2  0  0  0  0  0  0
  -38.4920  -19.9020   23.2900 C   0  0  0  0  0  0  0  0  0  0  0  0
  -37.8100  -18.6660   23.2370 C   0  0  0  0  0  3  0  0  0  0  0  0
  -38.5020  -17.4550   23.4180 C   0  0  0  0  0  3  0  0  0  0  0  0
  -39.8860  -17.4670   23.6680 C   0  0  0  0  0  3  0  0  0  0  0  0
  -40.5760  -18.6920   23.7310 C   0  0  0  0  0  3  0  0  0  0  0  0
  -32.3330  -18.8570   20.2080 C   0  0  0  0  0  3  0  0  0  0  0  0
  -31.8870  -18.1790   21.5620 C   0  0  1  0  0  0  0  0  0  0  0  0
  -32.9480  -17.2350   22.1630 C   0  0  0  0  0  1  0  0  0  0  0  0
  -31.5530  -19.2530   22.6240 C   0  0  0  0  0  1  0  0  0  0  0  0
  -30.5990  -17.3530   21.3350 C   0  0  0  0  0  3  0  0  0  0  0  0
  -32.4150  -17.8630   19.1300 N   0  0  0  0  0  0  0  0  0  0  0  0
  -31.7790  -17.9620   17.9550 C   0  0  0  0  0  0  0  0  0  0  0  0
  -30.9950  -18.8770   17.6910 O   0  0  0  0  0  0  0  0  0  0  0  0
  -33.0780  -17.1130   19.2570 H   0  0  0  0  0  0  0  0  0  0  0  0
  -32.9630  -17.4460   15.7990 C   0  0  0  0  0  1  0  0  0  0  0  0
  -32.0630  -16.8720   16.9040 C   0  0  0  0  0  3  0  0  0  0  0  0
  -30.0520  -15.5080   17.2430 C   0  0  0  0  0  1  0  0  0  0  0  0
  -30.8370  -16.3030   16.3030 N   0  0  0  0  0  0  0  0  0  0  0  0
  -31.0660  -15.7160   15.5040 H   0  0  0  0  0  0  0  0  0  0  0  0
  -27.9920  -25.7980   23.8030 C   0  0  0  0  0  2  0  0  0  0  0  0
  -28.2990  -24.3460   24.2440 C   0  0  0  0  0  3  0  0  0  0  0  0
  -27.7170  -24.0900   25.5780 N   0  0  0  0  0  4  0  0  0  0  0  0
  -26.7160  -24.1610   25.5620 H   0  0  0  0  0  0  0  0  0  0  0  0
  -28.0680  -24.7470   26.2530 H   0  0  0  0  0  0  0  0  0  0  0  0
  -27.9600  -23.1700   25.9030 H   0  0  0  0  0  0  0  0  0  0  0  0
  -27.7780  -23.3030   23.2270 C   0  0  0  0  0  2  0  0  0  0  0  0
  -28.4860  -21.9440   23.3400 C   0  0  0  0  0  2  0  0  0  0  0  0
  -27.9410  -20.9000   22.3590 C   0  0  0  0  0  2  0  0  0  0  0  0
  -28.7990  -19.6300   22.3560 C   0  0  0  0  0  2  0  0  0  0  0  0
  -28.1590  -18.4730   21.5830 C   0  0  0  0  0  2  0  0  0  0  0  0
  -29.1450  -17.3130   21.3800 C   0  0  0  0  0  0  0  0  0  0  0  0
  -28.4540  -16.0200   20.9060 C   0  0  0  0  0  2  0  0  0  0  0  0
  -29.4180  -14.9850   20.2960 C   0  0  0  0  0  0  0  0  0  0  0  0
  -29.7420  -12.7280   19.3460 C   0  0  0  0  0  2  0  0  0  0  0  0
  -29.0590  -12.6410   17.9670 C   0  0  0  0  0  2  0  0  0  0  0  0
  -27.5700  -12.2670   18.1150 C   0  0  0  0  0  2  0  0  0  0  0  0
  -26.8350  -13.1480   19.1610 C   0  0  0  0  0  3  0  0  0  0  0  0
  -27.6450  -13.2200   20.4750 C   0  0  0  0  0  2  0  0  0  0  0  0
  -28.9960  -13.7040   20.1510 N   0  0  0  0  0  0  0  0  0  0  0  0
  -30.5310  -15.3630   19.9110 O   0  0  0  0  0  0  0  0  0  0  0  0
  -24.2650  -13.2760   19.0610 C   0  0  0  0  0  0  0  0  0  0  0  0
  -23.2910  -12.3880   19.4320 C   0  0  0  0  0  0  0  0  0  0  0  0
  -23.9740  -11.2580   19.9780 C   0  0  0  0  0  0  0  0  0  0  0  0
  -25.4710  -12.6770   19.3900 N   0  0  0  0  0  0  0  0  0  0  0  0
  -25.2820  -11.4750   19.9940 N   0  0  0  0  0  0  0  0  0  0  0  0
  -23.4600   -9.9620   20.4360 C   0  0  0  0  0  0  0  0  0  0  0  0
  -23.6580   -9.5140   21.7610 C   0  0  0  0  0  3  0  0  0  0  0  0
  -23.1400   -8.2700   22.1800 C   0  0  0  0  0  3  0  0  0  0  0  0
  -22.4130   -7.4610   21.2740 C   0  0  0  0  0  0  0  0  0  0  0  0
  -22.2390   -7.9020   19.9510 C   0  0  0  0  0  3  0  0  0  0  0  0
  -22.7600   -9.1380   19.5330 C   0  0  0  0  0  3  0  0  0  0  0  0
  -21.8950   -6.2280   21.5870 O   0  0  0  0  0  0  0  0  0  0  0  0
  -21.3930   -5.9520   22.8340 C   0  0  0  0  0  0  0  0  0  0  0  0
  -20.2240   -6.5780   23.3220 C   0  0  0  0  0  3  0  0  0  0  0  0
  -19.7050   -6.2140   24.5800 C   0  0  0  0  0  3  0  0  0  0  0  0
  -20.3430   -5.2210   25.3470 C   0  0  0  0  0  0  0  0  0  0  0  0
  -21.5040   -4.5940   24.8600 C   0  0  0  0  0  3  0  0  0  0  0  0
  -22.0250   -4.9560   23.6060 C   0  0  0  0  0  0  0  0  0  0  0  0
  -23.1310   -4.3330   23.1320 F   0  0  0  0  0  0  0  0  0  0  0  0
  -19.8400   -4.8660   26.5520 F   0  0  0  0  0  0  0  0  0  0  0  0
  -21.8120  -12.5360   19.2110 C   0  0  0  0  0  0  0  0  0  0  0  0
  -21.0030  -11.7970   19.9600 N   0  0  0  0  0  0  0  0  0  0  0  0
  -21.3650  -13.3470   18.4010 O   0  0  0  0  0  0  0  0  0  0  0  0
  -21.3690  -11.1450   20.6370 H   0  0  0  0  0  0  0  0  0  0  0  0
  -20.0020  -11.8840   19.8570 H   0  0  0  0  0  0  0  0  0  0  0  0
  -24.2270  -14.5280   18.4540 N   0  0  0  0  0  0  0  0  0  0  0  0
  -23.3590  -14.9590   18.1560 H   0  0  0  0  0  0  0  0  0  0  0  0
  -25.0440  -15.0730   18.2070 H   0  0  0  0  0  0  0  0  0  0  0  0
  -28.8870  -27.7110   22.3640 C   0  0  0  0  0  2  0  0  0  0  0  0
  -27.7140  -28.6950   22.4450 C   0  0  0  0  0  0  0  0  0  0  0  0
  -26.8570  -28.7480   21.5600 O   0  0  0  0  0  0  0  0  0  0  0  0
  -27.6530  -29.6180   23.6630 C   0  0  0  0  0  2  0  0  0  0  0  0
  -27.8000  -31.1060   23.3000 C   0  0  0  0  0  2  0  0  0  0  0  0
  -27.9770  -31.9870   24.5470 C   0  0  0  0  0  2  0  0  0  0  0  0
  -28.2930  -33.4510   24.2110 C   0  0  0  0  0  2  0  0  0  0  0  0
  -28.6070  -34.3030   25.4590 C   0  0  0  0  0  2  0  0  0  0  0  0
  -29.9240  -35.0890   25.3290 C   0  0  0  0  0  2  0  0  0  0  0  0
  -30.3360  -35.7790   26.6370 C   0  0  0  0  0  2  0  0  0  0  0  0
  -31.6940  -36.4890   26.5270 C   0  0  0  0  0  2  0  0  0  0  0  0
  -32.1690  -37.0560   27.8780 C   0  0  0  0  0  2  0  0  0  0  0  0
  -33.4470  -37.7770   27.7620 N   0  0  0  0  0  4  0  0  0  0  0  0
  -34.1710  -37.1740   27.4170 H   0  0  0  0  0  0  0  0  0  0  0  0
  -33.7270  -38.1180   28.6650 H   0  0  0  0  0  0  0  0  0  0  0  0
  -33.3580  -38.5670   27.1470 H   0  0  0  0  0  0  0  0  0  0  0  0
  1 93  1  0
  1 44  1  0
  2  1  1  0
  3  2  1  0
  4 15  2  0
  5 11  1  0
  5  3  1  0
  6 16  1  0
  7 12  1  0
  8  9  1  0
  8 14  1  0
  9  7  2  0
  9 10  1  0
 10  5  2  0
 12 11  2  0
 13  7  1  0
 13  6  1  0
 14  6  1  0
 14  4  1  0
 16 17  1  0
 16 18  2  0
 19 17  1  0
 20 24  1  0
 20 29  1  0
 21 17  1  0
 21 22  1  0
 21 25  1  0
 23 22  1  0
 23 24  1  0
 25 20  2  0
 26 25  1  0
 26 27  2  0
 27 28  1  0
 28 29  2  0
 30 35  1  0
 30  4  1  0
 30 31  1  0
 31 32  1  1
 31 33  1  0
 34 55  2  0
 34 31  1  0
 35 38  1  0
 36 35  1  0
 37 36  2  0
 40 39  1  0
 40 36  1  0
 42 40  1  0
 42 41  1  0
 43 42  1  0
 44 45  1  0
 45 46  1  0
 46 49  1  0
 46 48  1  0
 47 46  1  0
 50 51  1  0
 50 45  1  0
 52 51  1  0
 53 52  1  0
 54 53  1  0
 55 54  1  0
 56 55  1  0
 57 56  1  0
 58 63  1  0
 59 60  1  0
 59 58  1  0
 61 60  1  0
 61 68  1  0
 61 62  1  0
 63 57  1  0
 63 62  1  0
 64 57  2  0
 65 68  1  0
 65 66  2  0
 66 67  1  0
 67 69  2  0
 67 70  1  0
 68 69  1  0
 70 71  1  0
 71 72  2  0
 73 76  1  0
 73 72  1  0
 74 73  2  0
 75 74  1  0
 75 70  2  0
 76 77  1  0
 77 78  2  0
 77 82  1  0
 78 79  1  0
 79 80  2  0
 80 84  1  0
 81 80  1  0
 82 81  2  0
 83 82  1  0
 85 66  1  0
 85 86  1  0
 86 88  1  0
 87 85  2  0
 89 86  1  0
 90 65  1  0
 91 90  1  0
 92 90  1  0
 93 94  1  0
 94 96  1  0
 95 94  2  0
 97 96  1  0
 97 98  1  0
 99 98  1  0
 99100  1  0
101100  1  0
101102  1  0
103102  1  0
103104  1  0
105104  1  0
105107  1  0
106105  1  0
108105  1  0
M  ISO  4   2 101   3 101  56 100  57 100
M  END
>  <TORSDO>  (69) 
F 39

>  <SCORE>  (69) 
17.225

>  <name>  (69) 
68

>  <ligand_id>  (69) 
68

>  <original_smiles>  (69) 
[H]c1c([H])c([H])c2c(c1[H])C([H])([H])C([H])([H])C([H])([H])C2([H])N([H])C(=O)C1([H])N(C(=O)C([H])(N([H])C(=O)C([H])(N([H])C([H])([H])[H])C([H])([H])[H])C(C([H])([H])[H])(C([H])([H])[H])C([H])([H])[H])C([H])([H])c2c([H])c(OC([H])([H])C([H])(C([H])([H])C(=O)C([H])([H])C([H])([H])C([H])([H])C([H])([H])C([H])([H])C([H])([H])C([H])([H])C([H])([H])C([H])([H])[N+]([H])([H])[H])C([H])([H])C([H])(C([H])([H])C([H])([H])C([H])([H])C([H])([H])C([H])([H])C([H])([H])C([H])([H])C(=O)N3C([H])([H])C([H])([H])C([H])([H])C([H])(n4nc(-c5c([H])c([H])c(Oc6c([H])c([H])c(F)c([H])c6F)c([H])c5[H])c(C(=O)N([H])[H])c4N([H])[H])C3([H])[H])[N+]([H])([H])[H])c([H])c([H])c2C1([H])[H]

>  <smiles>  (69) 
[H]c1c([H])c([H])c2c(c1[H])C([H])([H])C([H])([H])C([H])([H])C2([H])N([H])C(=O)C1([H])N(C(=O)C([H])(N([H])C(=O)C([H])(N([H])C([H])([H])[H])C([H])([H])[H])C(C([H])([H])[H])(C([H])([H])[H])C([H])([H])[H])C([H])([H])c2c([H])c(OC([H])([H])C([H])(C([H])([H])C(=O)C([H])([H])C([H])([H])C([H])([H])C([H])([H])C([H])([H])C([H])([H])C([H])([H])C([H])([H])C([H])([H])[N+]([H])([H])[H])C([H])([H])C([H])(C([H])([H])C([H])([H])C([H])([H])C([H])([H])C([H])([H])C([H])([H])C([H])([H])C(=O)N3C([H])([H])C([H])([H])C([H])([H])C([H])(n4nc(-c5c([H])c([H])c(Oc6c([H])c([H])c(F)c([H])c6F)c([H])c5[H])c(C(=O)N([H])[H])c4N([H])[H])C3([H])[H])[N+]([H])([H])[H])c([H])c([H])c2C1([H])[H]

$$$$
69:0:0
     RDKit          3D

 95103  0  0  1  0  0  0  0  0999 V2000
  -29.1730  -22.6780   17.9430 C   0  0  0  0  0  3  0  0  0  0  0  0
  -30.1020  -21.6880   18.3180 C   0  0  0  0  0  3  0  0  0  0  0  0
  -28.7780  -23.1980   20.2790 C   0  0  0  0  0  3  0  0  0  0  0  0
  -28.5070  -23.4580   18.9150 C   0  0  0  0  0  0  0  0  0  0  0  0
  -30.3820  -21.4380   19.6820 C   0  0  0  0  0  0  0  0  0  0  0  0
  -29.7010  -22.2020   20.6700 C   0  0  0  0  0  0  0  0  0  0  0  0
  -29.9420  -22.0070   22.1620 C   0  0  0  0  0  1  0  0  0  0  0  0
  -27.5170  -24.4870   18.4640 C   0  0  0  0  0  0  0  0  0  0  0  0
  -26.5980  -24.2210   17.6800 O   0  0  0  0  0  0  0  0  0  0  0  0
  -27.6680  -25.9360   18.9630 C   0  0  0  0  0  2  0  0  0  0  0  0
  -27.1150  -26.8680   18.0320 O   0  0  0  0  0  0  0  0  0  0  0  0
  -25.2610  -31.1720   23.3670 C   0  0  0  0  0  0  0  0  0  0  0  0
  -26.1450  -27.6750   18.5740 C   0  0  0  0  0  0  0  0  0  0  0  0
  -23.4410  -30.5350   21.8150 C   0  0  0  0  0  3  0  0  0  0  0  0
  -24.1760  -29.3600   19.6760 C   0  0  0  0  0  0  0  0  0  0  0  0
  -25.8670  -30.6230   21.0170 C   0  0  0  0  0  2  0  0  0  0  0  0
  -25.5190  -29.5270   20.0350 C   0  0  0  0  0  0  0  0  0  0  0  0
  -26.5090  -28.6870   19.4840 C   0  0  0  0  0  3  0  0  0  0  0  0
  -24.7890  -27.5130   18.2190 C   0  0  0  0  0  3  0  0  0  0  0  0
  -23.8030  -28.3530   18.7690 C   0  0  0  0  0  3  0  0  0  0  0  0
  -23.1810  -30.3090   20.3010 C   0  0  0  0  0  2  0  0  0  0  0  0
  -24.8910  -30.7680   22.1210 N   0  0  0  0  0  0  0  0  0  0  0  0
  -24.4160  -31.3950   24.2460 O   0  0  0  0  0  0  0  0  0  0  0  0
  -22.8310  -29.3530   22.6000 C   0  0  0  0  0  0  0  0  0  0  0  0
  -21.5070  -29.1760   22.4760 N   0  0  0  0  0  0  0  0  0  0  0  0
  -23.5440  -28.6050   23.2760 O   0  0  0  0  0  0  0  0  0  0  0  0
  -20.9940  -29.8390   21.9100 H   0  0  0  0  0  0  0  0  0  0  0  0
  -18.2630  -27.5870   22.4720 C   0  0  0  0  0  0  0  0  0  0  0  0
  -20.7180  -28.1070   23.0900 C   0  0  0  0  0  3  0  0  0  0  0  0
  -21.0610  -26.7360   22.4660 C   0  0  0  0  0  2  0  0  0  0  0  0
  -20.1380  -26.3450   21.3090 C   0  0  0  0  0  2  0  0  0  0  0  0
  -18.6790  -26.3070   21.7690 C   0  0  0  0  0  2  0  0  0  0  0  0
  -19.2210  -28.4400   23.0790 C   0  0  0  0  0  0  0  0  0  0  0  0
  -18.7820  -29.6360   23.6890 C   0  0  0  0  0  3  0  0  0  0  0  0
  -17.4170  -29.9820   23.7030 C   0  0  0  0  0  3  0  0  0  0  0  0
  -16.4740  -29.1240   23.1140 C   0  0  0  0  0  3  0  0  0  0  0  0
  -16.8950  -27.9290   22.5060 C   0  0  0  0  0  3  0  0  0  0  0  0
  -26.7600  -31.3960   23.7450 C   0  0  0  0  0  3  0  0  0  0  0  0
  -27.3630  -30.2250   24.6150 C   0  0  1  0  0  0  0  0  0  0  0  0
  -26.5030  -29.8640   25.8480 C   0  0  0  0  0  1  0  0  0  0  0  0
  -27.5320  -28.9450   23.7620 C   0  0  0  0  0  1  0  0  0  0  0  0
  -28.7760  -30.6110   25.1130 C   0  0  0  0  0  1  0  0  0  0  0  0
  -26.8490  -32.6750   24.4630 N   0  0  0  0  0  0  0  0  0  0  0  0
  -27.3890  -33.7920   23.9580 C   0  0  0  0  0  0  0  0  0  0  0  0
  -27.9380  -33.8310   22.8540 O   0  0  0  0  0  0  0  0  0  0  0  0
  -26.3730  -32.7300   25.3520 H   0  0  0  0  0  0  0  0  0  0  0  0
  -26.1730  -35.9670   24.2960 C   0  0  0  0  0  1  0  0  0  0  0  0
  -27.3090  -35.0690   24.8150 C   0  0  0  0  0  3  0  0  0  0  0  0
  -29.6470  -35.1470   25.5590 C   0  0  0  0  0  1  0  0  0  0  0  0
  -28.5730  -35.8360   24.8480 N   0  0  0  0  0  0  0  0  0  0  0  0
  -28.4340  -36.7410   25.2860 H   0  0  0  0  0  0  0  0  0  0  0  0
  -31.3370  -20.3450   20.0410 C   0  0  0  0  0  0  0  0  0  0  0  0
  -31.3510  -19.7770   21.1370 O   0  0  0  0  0  0  0  0  0  0  0  0
  -32.3700  -19.9460   18.9870 C   0  0  0  0  0  2  0  0  0  0  0  0
  -32.8630  -21.1450   18.1460 C   0  0  0  0  0  2  0  0  0  0  0  0
  -34.3730  -21.1040   17.8500 C   0  0  0  0  0  2  0  0  0  0  0  0
  -34.7720  -19.8130   17.1310 C   0  0  0  0  0  2  0  0  0  0  0  0
  -36.2420  -19.4030   17.2800 C   0  0  0  0  0  2  0  0  0  0  0  0
  -36.3430  -17.8900   17.0390 C   0  0  0  0  0  2  0  0  0  0  0  0
  -37.2650  -17.1080   17.9770 C   0  0  0  0  0  0  0  0  0  0  0  0
  -37.4070  -14.9690   19.1760 C   0  0  0  0  0  2  0  0  0  0  0  0
  -36.7950  -13.8810   18.2700 C   0  0  0  0  0  2  0  0  0  0  0  0
  -35.2730  -13.7710   18.5030 C   0  0  0  0  0  2  0  0  0  0  0  0
  -34.5590  -15.1440   18.4310 C   0  0  0  0  0  3  0  0  0  0  0  0
  -35.3120  -16.1980   19.2770 C   0  0  0  0  0  2  0  0  0  0  0  0
  -36.7230  -16.2280   18.8600 N   0  0  0  0  0  0  0  0  0  0  0  0
  -38.4690  -17.1430   17.7150 O   0  0  0  0  0  0  0  0  0  0  0  0
  -32.2160  -16.0660   18.9710 C   0  0  0  0  0  0  0  0  0  0  0  0
  -31.0320  -15.4410   19.2550 C   0  0  0  0  0  0  0  0  0  0  0  0
  -31.3170  -14.0420   19.2580 C   0  0  0  0  0  0  0  0  0  0  0  0
  -33.1510  -15.0540   18.8120 N   0  0  0  0  0  0  0  0  0  0  0  0
  -32.6090  -13.8340   19.0450 N   0  0  0  0  0  0  0  0  0  0  0  0
  -30.4230  -12.8850   19.3930 C   0  0  0  0  0  0  0  0  0  0  0  0
  -30.2790  -12.2020   20.6200 C   0  0  0  0  0  3  0  0  0  0  0  0
  -29.4020  -11.1010   20.7290 C   0  0  0  0  0  3  0  0  0  0  0  0
  -28.6560  -10.6760   19.6030 C   0  0  0  0  0  0  0  0  0  0  0  0
  -28.8180  -11.3470   18.3770 C   0  0  0  0  0  3  0  0  0  0  0  0
  -29.6960  -12.4390   18.2710 C   0  0  0  0  0  3  0  0  0  0  0  0
  -27.7990   -9.6020   19.6100 O   0  0  0  0  0  0  0  0  0  0  0  0
  -26.7860   -9.4920   20.5280 C   0  0  0  0  0  0  0  0  0  0  0  0
  -25.7730  -10.4700   20.6390 C   0  0  0  0  0  3  0  0  0  0  0  0
  -24.7120  -10.2850   21.5460 C   0  0  0  0  0  3  0  0  0  0  0  0
  -24.6550   -9.1220   22.3370 C   0  0  0  0  0  0  0  0  0  0  0  0
  -25.6600   -8.1450   22.2270 C   0  0  0  0  0  3  0  0  0  0  0  0
  -26.7220   -8.3290   21.3220 C   0  0  0  0  0  0  0  0  0  0  0  0
  -27.6750   -7.3730   21.2040 F   0  0  0  0  0  0  0  0  0  0  0  0
  -23.6320   -8.9410   23.2040 F   0  0  0  0  0  0  0  0  0  0  0  0
  -29.6900  -16.0960   19.4180 C   0  0  0  0  0  0  0  0  0  0  0  0
  -28.8220  -15.5210   20.2440 N   0  0  0  0  0  0  0  0  0  0  0  0
  -29.4190  -17.1530   18.8470 O   0  0  0  0  0  0  0  0  0  0  0  0
  -29.0470  -14.6650   20.7280 H   0  0  0  0  0  0  0  0  0  0  0  0
  -27.9180  -15.9480   20.3970 H   0  0  0  0  0  0  0  0  0  0  0  0
  -32.5700  -17.4030   18.8170 N   0  0  0  0  0  0  0  0  0  0  0  0
  -31.8930  -18.1540   18.9010 H   0  0  0  0  0  0  0  0  0  0  0  0
  -33.4950  -17.7260   18.5640 H   0  0  0  0  0  0  0  0  0  0  0  0
  1  2  2  0
  1  4  1  0
  2  5  1  0
  3  6  1  0
  4  3  2  0
  5 52  1  0
  5  6  2  0
  6  7  1  0
  8  4  1  0
  8 10  1  0
  9  8  2  0
 11 13  1  0
 11 10  1  0
 12 23  2  0
 13 18  1  0
 14 22  1  0
 14 24  1  0
 15 17  1  0
 15 21  1  0
 16 22  1  0
 17 16  1  0
 18 17  2  0
 19 13  2  0
 19 20  1  0
 20 15  2  0
 21 14  1  0
 22 12  1  0
 24 26  2  0
 25 24  1  0
 27 25  1  0
 28 37  2  0
 28 33  1  0
 29 25  1  0
 30 29  1  0
 31 32  1  0
 31 30  1  0
 32 28  1  0
 33 29  1  0
 33 34  2  0
 34 35  1  0
 36 35  2  0
 37 36  1  0
 38 12  1  0
 38 43  1  0
 38 39  1  0
 39 42  1  1
 39 40  1  0
 41 39  1  0
 43 46  1  0
 44 43  1  0
 44 48  1  0
 45 44  2  0
 48 47  1  0
 48 50  1  0
 50 51  1  0
 50 49  1  0
 52 53  2  0
 54 52  1  0
 55 54  1  0
 56 55  1  0
 57 58  1  0
 57 56  1  0
 59 58  1  0
 59 60  1  0
 60 66  1  0
 62 63  1  0
 62 61  1  0
 64 63  1  0
 64 71  1  0
 64 65  1  0
 66 61  1  0
 66 65  1  0
 67 60  2  0
 68 69  2  0
 69 70  1  0
 69 88  1  0
 70 73  1  0
 71 68  1  0
 71 72  1  0
 72 70  2  0
 73 74  1  0
 74 75  2  0
 76 79  1  0
 76 75  1  0
 77 76  2  0
 78 77  1  0
 78 73  2  0
 79 80  1  0
 80 81  2  0
 80 85  1  0
 81 82  1  0
 82 83  2  0
 83 87  1  0
 84 83  1  0
 85 84  2  0
 86 85  1  0
 88 89  1  0
 89 92  1  0
 89 91  1  0
 90 88  2  0
 93 94  1  0
 93 68  1  0
 95 93  1  0
M  ISO  4  10 101  11 101  59 100  60 100
M  END
>  <TORSDO>  (70) 
F 25

>  <SCORE>  (70) 
-7.090

>  <name>  (70) 
69

>  <ligand_id>  (70) 
69

>  <original_smiles>  (70) 
[H]c1c([H])c([H])c2c(c1[H])C([H])([H])C([H])([H])C([H])([H])C2([H])N([H])C(=O)C1([H])N(C(=O)C([H])(N([H])C(=O)C([H])(N([H])C([H])([H])[H])C([H])([H])[H])C(C([H])([H])[H])(C([H])([H])[H])C([H])([H])[H])C([H])([H])c2c([H])c(OC([H])([H])C(=O)c3c([H])c([H])c(C(=O)C([H])([H])C([H])([H])C([H])([H])C([H])([H])C([H])([H])C([H])([H])C(=O)N4C([H])([H])C([H])([H])C([H])([H])C([H])(n5nc(-c6c([H])c([H])c(Oc7c([H])c([H])c(F)c([H])c7F)c([H])c6[H])c(C(=O)N([H])[H])c5N([H])[H])C4([H])[H])c(C([H])([H])[H])c3[H])c([H])c([H])c2C1([H])[H]

>  <smiles>  (70) 
[H]c1c([H])c([H])c2c(c1[H])C([H])([H])C([H])([H])C([H])([H])C2([H])N([H])C(=O)C1([H])N(C(=O)C([H])(N([H])C(=O)C([H])(N([H])C([H])([H])[H])C([H])([H])[H])C(C([H])([H])[H])(C([H])([H])[H])C([H])([H])[H])C([H])([H])c2c([H])c(OC([H])([H])C(=O)c3c([H])c([H])c(C(=O)C([H])([H])C([H])([H])C([H])([H])C([H])([H])C([H])([H])C([H])([H])C(=O)N4C([H])([H])C([H])([H])C([H])([H])C([H])(n5nc(-c6c([H])c([H])c(Oc7c([H])c([H])c(F)c([H])c7F)c([H])c6[H])c(C(=O)N([H])[H])c5N([H])[H])C4([H])[H])c(C([H])([H])[H])c3[H])c([H])c([H])c2C1([H])[H]

$$$$
70:0:0
     RDKit          3D

 96105  0  0  1  0  0  0  0  0999 V2000
  -26.1640  -22.6250   21.1790 C   0  0  0  0  0  3  0  0  0  0  0  0
  -27.2990  -21.9840   21.7060 C   0  0  0  0  0  3  0  0  0  0  0  0
  -26.2780  -23.9080   20.6150 C   0  0  0  0  0  3  0  0  0  0  0  0
  -28.6710  -23.9100   21.0920 C   0  0  0  0  0  3  0  0  0  0  0  0
  -28.5570  -22.6220   21.6690 C   0  0  0  0  0  0  0  0  0  0  0  0
  -27.5310  -24.5570   20.5640 C   0  0  0  0  0  0  0  0  0  0  0  0
  -29.7700  -21.9180   22.2600 C   0  0  0  0  0  2  0  0  0  0  0  0
  -32.8500  -20.1000   20.7020 C   0  0  0  0  0  3  0  0  0  0  0  0
  -32.3240  -19.8090   19.4980 C   0  0  0  0  0  0  0  0  0  0  0  0
  -32.0170  -20.7480   21.7930 C   0  0  0  0  0  2  0  0  0  0  0  0
  -30.8710  -20.1360   19.1860 C   0  0  0  0  0  2  0  0  0  0  0  0
  -30.7550  -21.4070   21.1930 C   0  0  0  0  0  3  0  0  0  0  0  0
  -30.1210  -20.4320   20.3670 O   0  0  0  0  0  0  0  0  0  0  0  0
  -33.9270  -17.3890   17.3270 C   0  0  0  0  0  0  0  0  0  0  0  0
  -34.3160  -15.1500   16.3670 C   0  0  0  0  0  2  0  0  0  0  0  0
  -33.0240  -14.6020   15.7340 C   0  0  0  0  0  2  0  0  0  0  0  0
  -32.1830  -13.8600   16.7890 C   0  0  0  0  0  2  0  0  0  0  0  0
  -31.9860  -14.6880   18.0860 C   0  0  0  0  0  3  0  0  0  0  0  0
  -33.3270  -15.2740   18.5830 C   0  0  0  0  0  2  0  0  0  0  0  0
  -33.9380  -16.0370   17.4800 N   0  0  0  0  0  0  0  0  0  0  0  0
  -34.3620  -17.9260   16.3040 O   0  0  0  0  0  0  0  0  0  0  0  0
  -33.2020  -19.4180   18.4130 C   0  0  0  0  0  0  0  0  0  0  0  0
  -33.3620  -18.0820   18.3340 N   0  0  0  0  0  0  0  0  0  0  0  0
  -33.7250  -20.2460   17.6580 O   0  0  0  0  0  0  0  0  0  0  0  0
  -32.9630  -17.5370   19.0810 H   0  0  0  0  0  0  0  0  0  0  0  0
  -30.0850  -14.0910   19.7160 C   0  0  0  0  0  0  0  0  0  0  0  0
  -29.9110  -13.0350   20.5710 C   0  0  0  0  0  0  0  0  0  0  0  0
  -31.0820  -12.2260   20.4440 C   0  0  0  0  0  0  0  0  0  0  0  0
  -31.3230  -13.8990   19.1230 N   0  0  0  0  0  0  0  0  0  0  0  0
  -31.9450  -12.7930   19.6100 N   0  0  0  0  0  0  0  0  0  0  0  0
  -31.4090  -10.9180   21.0250 C   0  0  0  0  0  0  0  0  0  0  0  0
  -32.7440  -10.5340   21.2770 C   0  0  0  0  0  3  0  0  0  0  0  0
  -33.0310   -9.2780   21.8550 C   0  0  0  0  0  3  0  0  0  0  0  0
  -31.9790   -8.3930   22.1900 C   0  0  0  0  0  0  0  0  0  0  0  0
  -30.6530   -8.7710   21.9160 C   0  0  0  0  0  3  0  0  0  0  0  0
  -30.3680  -10.0190   21.3370 C   0  0  0  0  0  3  0  0  0  0  0  0
  -32.1640   -7.1440   22.7300 O   0  0  0  0  0  0  0  0  0  0  0  0
  -33.4060   -6.6990   23.1060 C   0  0  0  0  0  0  0  0  0  0  0  0
  -34.4610   -7.5930   23.3940 C   0  0  0  0  0  3  0  0  0  0  0  0
  -35.7000   -7.0950   23.8440 C   0  0  0  0  0  3  0  0  0  0  0  0
  -35.8830   -5.7100   24.0160 C   0  0  0  0  0  0  0  0  0  0  0  0
  -34.8320   -4.8200   23.7350 C   0  0  0  0  0  3  0  0  0  0  0  0
  -33.5960   -5.3140   23.2840 C   0  0  0  0  0  0  0  0  0  0  0  0
  -32.5790   -4.4540   23.0350 F   0  0  0  0  0  0  0  0  0  0  0  0
  -37.0720   -5.2320   24.4570 F   0  0  0  0  0  0  0  0  0  0  0  0
  -28.6870  -12.7390   21.3890 C   0  0  0  0  0  0  0  0  0  0  0  0
  -28.8540  -12.0530   22.5140 N   0  0  0  0  0  0  0  0  0  0  0  0
  -27.5800  -13.1590   21.0580 O   0  0  0  0  0  0  0  0  0  0  0  0
  -29.7660  -11.7270   22.7970 H   0  0  0  0  0  0  0  0  0  0  0  0
  -28.0560  -11.8530   23.1020 H   0  0  0  0  0  0  0  0  0  0  0  0
  -29.2920  -15.1830   19.3810 N   0  0  0  0  0  0  0  0  0  0  0  0
  -28.3620  -15.3120   19.7630 H   0  0  0  0  0  0  0  0  0  0  0  0
  -29.5280  -15.8690   18.6750 H   0  0  0  0  0  0  0  0  0  0  0  0
  -27.6140  -25.9650   19.9880 C   0  0  0  0  0  2  0  0  0  0  0  0
  -27.3710  -26.0300   18.4600 C   0  0  0  0  0  2  0  0  0  0  0  0
  -27.2580  -27.3800   17.9840 O   0  0  0  0  0  0  0  0  0  0  0  0
  -25.5330  -30.8430   23.9200 C   0  0  0  0  0  0  0  0  0  0  0  0
  -26.3130  -28.1680   18.6030 C   0  0  0  0  0  0  0  0  0  0  0  0
  -23.7040  -30.5640   22.2770 C   0  0  0  0  0  3  0  0  0  0  0  0
  -24.4080  -29.7450   19.9680 C   0  0  0  0  0  0  0  0  0  0  0  0
  -26.1410  -30.6780   21.5100 C   0  0  0  0  0  2  0  0  0  0  0  0
  -25.7550  -29.7860   20.3510 C   0  0  0  0  0  0  0  0  0  0  0  0
  -26.7120  -29.0060   19.6660 C   0  0  0  0  0  3  0  0  0  0  0  0
  -24.9520  -28.1470   18.2200 C   0  0  0  0  0  3  0  0  0  0  0  0
  -24.0000  -28.9260   18.9020 C   0  0  0  0  0  3  0  0  0  0  0  0
  -23.4460  -30.6130   20.7470 C   0  0  0  0  0  2  0  0  0  0  0  0
  -25.1590  -30.6750   22.6200 N   0  0  0  0  0  0  0  0  0  0  0  0
  -24.6880  -30.9490   24.8190 O   0  0  0  0  0  0  0  0  0  0  0  0
  -23.0360  -29.2930   22.8470 C   0  0  0  0  0  0  0  0  0  0  0  0
  -21.7120  -29.1790   22.6590 N   0  0  0  0  0  0  0  0  0  0  0  0
  -23.7050  -28.4270   23.4170 O   0  0  0  0  0  0  0  0  0  0  0  0
  -21.2350  -29.9350   22.1870 H   0  0  0  0  0  0  0  0  0  0  0  0
  -18.4590  -27.6620   22.2520 C   0  0  0  0  0  0  0  0  0  0  0  0
  -20.8760  -28.0540   23.0760 C   0  0  0  0  0  3  0  0  0  0  0  0
  -21.2430  -26.7710   22.2970 C   0  0  0  0  0  2  0  0  0  0  0  0
  -20.3930  -26.5640   21.0400 C   0  0  0  0  0  2  0  0  0  0  0  0
  -18.9070  -26.4830   21.4030 C   0  0  0  0  0  2  0  0  0  0  0  0
  -19.3860  -28.4080   23.0240 C   0  0  0  0  0  0  0  0  0  0  0  0
  -18.9250  -29.5180   23.7660 C   0  0  0  0  0  3  0  0  0  0  0  0
  -17.5650  -29.8800   23.7460 C   0  0  0  0  0  3  0  0  0  0  0  0
  -16.6470  -29.1270   22.9940 C   0  0  0  0  0  3  0  0  0  0  0  0
  -17.0950  -28.0180   22.2520 C   0  0  0  0  0  3  0  0  0  0  0  0
  -27.0350  -30.9350   24.3340 C   0  0  0  0  0  3  0  0  0  0  0  0
  -27.5530  -29.6470   25.0850 C   0  0  1  0  0  0  0  0  0  0  0  0
  -26.6670  -29.2260   26.2800 C   0  0  0  0  0  1  0  0  0  0  0  0
  -27.6370  -28.4470   24.1130 C   0  0  0  0  0  1  0  0  0  0  0  0
  -28.9870  -29.8900   25.6130 C   0  0  0  0  0  1  0  0  0  0  0  0
  -27.1880  -32.1270   25.1790 N   0  0  0  0  0  0  0  0  0  0  0  0
  -27.7520  -33.2740   24.7770 C   0  0  0  0  0  0  0  0  0  0  0  0
  -28.2700  -33.4140   23.6660 O   0  0  0  0  0  0  0  0  0  0  0  0
  -26.7400  -32.1030   26.0830 H   0  0  0  0  0  0  0  0  0  0  0  0
  -26.6380  -35.4490   25.3680 C   0  0  0  0  0  1  0  0  0  0  0  0
  -27.7400  -34.4540   25.7680 C   0  0  0  0  0  3  0  0  0  0  0  0
  -30.0880  -34.3520   26.4760 C   0  0  0  0  0  1  0  0  0  0  0  0
  -29.0370  -35.1580   25.8590 N   0  0  0  0  0  0  0  0  0  0  0  0
  -28.9430  -36.0170   26.3940 H   0  0  0  0  0  0  0  0  0  0  0  0
  1  2  1  0
  3  1  2  0
  4  5  1  0
  5  2  2  0
  5  7  1  0
  6  3  1  0
  6  4  2  0
  8 10  1  0
  9  8  2  0
 11  9  1  0
 11 13  1  0
 12 10  1  0
 12  7  1  0
 13 12  1  0
 14 20  1  0
 14 23  1  0
 15 20  1  0
 16 15  1  0
 16 17  1  0
 18 17  1  0
 18 19  1  0
 18 29  1  0
 20 19  1  0
 21 14  2  0
 22  9  1  0
 23 22  1  0
 23 25  1  0
 24 22  2  0
 26 27  2  0
 27 46  1  0
 28 27  1  0
 28 31  1  0
 29 30  1  0
 29 26  1  0
 30 28  2  0
 31 32  2  0
 31 36  1  0
 32 33  1  0
 33 34  2  0
 34 37  1  0
 35 34  1  0
 36 35  2  0
 37 38  1  0
 38 43  2  0
 38 39  1  0
 39 40  2  0
 40 41  1  0
 41 45  1  0
 42 41  2  0
 43 42  1  0
 44 43  1  0
 46 47  1  0
 47 49  1  0
 47 50  1  0
 48 46  2  0
 51 26  1  0
 51 52  1  0
 53 51  1  0
 54  6  1  0
 55 54  1  0
 56 55  1  0
 56 58  1  0
 57 68  2  0
 58 63  1  0
 59 67  1  0
 59 69  1  0
 60 62  1  0
 60 66  1  0
 61 67  1  0
 62 61  1  0
 63 62  2  0
 64 58  2  0
 64 65  1  0
 65 60  2  0
 66 59  1  0
 67 57  1  0
 69 71  2  0
 70 69  1  0
 72 70  1  0
 73 82  2  0
 73 78  1  0
 74 70  1  0
 75 74  1  0
 76 77  1  0
 76 75  1  0
 77 73  1  0
 78 74  1  0
 78 79  2  0
 80 79  1  0
 81 80  2  0
 82 81  1  0
 83 57  1  0
 83 84  1  0
 83 88  1  0
 84 87  1  1
 84 85  1  0
 86 84  1  0
 88 91  1  0
 89 88  1  0
 89 93  1  0
 90 89  2  0
 93 92  1  0
 93 95  1  0
 95 96  1  0
 95 94  1  0
M  ISO  4  14 100  23 100  55 101  56 101
M  END
>  <TORSDO>  (71) 
F 20

>  <SCORE>  (71) 
-7.449

>  <name>  (71) 
70

>  <ligand_id>  (71) 
70

>  <original_smiles>  (71) 
[H]C1=C(C(=O)N([H])C(=O)N2C([H])([H])C([H])([H])C([H])([H])C([H])(n3nc(-c4c([H])c([H])c(Oc5c([H])c([H])c(F)c([H])c5F)c([H])c4[H])c(C(=O)N([H])[H])c3N([H])[H])C2([H])[H])C([H])([H])OC([H])(C([H])([H])c2c([H])c([H])c([H])c(C([H])([H])C([H])([H])Oc3c([H])c([H])c4c(c3[H])C([H])([H])N(C(=O)C([H])(N([H])C(=O)C([H])(N([H])C([H])([H])[H])C([H])([H])[H])C(C([H])([H])[H])(C([H])([H])[H])C([H])([H])[H])C([H])(C(=O)N([H])C3([H])c5c([H])c([H])c([H])c([H])c5C([H])([H])C([H])([H])C3([H])[H])C4([H])[H])c2[H])C1([H])[H]

>  <smiles>  (71) 
[H]C1=C(C(=O)N([H])C(=O)N2C([H])([H])C([H])([H])C([H])([H])C([H])(n3nc(-c4c([H])c([H])c(Oc5c([H])c([H])c(F)c([H])c5F)c([H])c4[H])c(C(=O)N([H])[H])c3N([H])[H])C2([H])[H])C([H])([H])OC([H])(C([H])([H])c2c([H])c([H])c([H])c(C([H])([H])C([H])([H])Oc3c([H])c([H])c4c(c3[H])C([H])([H])N(C(=O)C([H])(N([H])C(=O)C([H])(N([H])C([H])([H])[H])C([H])([H])[H])C(C([H])([H])[H])(C([H])([H])[H])C([H])([H])[H])C([H])(C(=O)N([H])C3([H])c5c([H])c([H])c([H])c([H])c5C([H])([H])C([H])([H])C3([H])[H])C4([H])[H])c2[H])C1([H])[H]

$$$$
71:0:0
     RDKit          3D

 97106  0  0  1  0  0  0  0  0999 V2000
  -32.2410  -24.7440   18.5970 C   0  0  0  0  0  3  0  0  0  0  0  0
  -31.5550  -25.6020   19.4870 C   0  0  0  0  0  3  0  0  0  0  0  0
  -30.2000  -23.4650   18.2590 C   0  0  0  0  0  3  0  0  0  0  0  0
  -31.5600  -23.6840   17.9590 C   0  0  0  0  0  0  0  0  0  0  0  0
  -30.1920  -25.3880   19.7740 C   0  0  0  0  0  0  0  0  0  0  0  0
  -29.5250  -24.2960   19.1680 C   0  0  0  0  0  0  0  0  0  0  0  0
  -28.2130  -24.0580   19.4170 F   0  0  0  0  0  0  0  0  0  0  0  0
  -32.2650  -22.8220   16.9140 C   0  0  0  0  0  2  0  0  0  0  0  0
  -31.2330  -20.5270   16.3240 C   0  0  0  0  0  2  0  0  0  0  0  0
  -32.1540  -20.8900   18.6530 C   0  0  0  0  0  2  0  0  0  0  0  0
  -31.3060  -19.0010   16.5630 C   0  0  0  0  0  2  0  0  0  0  0  0
  -32.2380  -19.3680   18.8110 C   0  0  0  0  0  2  0  0  0  0  0  0
  -32.2830  -21.2910   17.1680 C   0  0  0  0  0  3  0  0  0  0  0  0
  -31.1560  -18.7390   18.0160 N   0  0  2  0  0  4  0  0  0  0  0  0
  -30.3100  -19.2330   18.2550 H   0  0  0  0  0  0  0  0  0  0  0  0
  -30.8680  -17.3400   18.4090 C   0  0  0  0  0  2  0  0  0  0  0  0
  -29.9670  -17.3290   19.6710 C   0  0  0  0  0  2  0  0  0  0  0  0
  -30.6470  -16.9010   20.9950 C   0  0  0  0  0  2  0  0  0  0  0  0
  -30.2390  -15.4900   21.4690 C   0  0  0  0  0  2  0  0  0  0  0  0
  -30.8080  -14.3630   20.6000 C   0  0  0  0  0  0  0  0  0  0  0  0
  -30.4290  -12.2800   19.3400 C   0  0  0  0  0  2  0  0  0  0  0  0
  -29.5070  -12.5930   18.1460 C   0  0  0  0  0  2  0  0  0  0  0  0
  -28.0270  -12.4780   18.5660 C   0  0  0  0  0  2  0  0  0  0  0  0
  -27.7120  -13.2640   19.8670 C   0  0  0  0  0  3  0  0  0  0  0  0
  -28.7580  -12.9510   20.9640 C   0  0  0  0  0  2  0  0  0  0  0  0
  -30.0920  -13.2270   20.4090 N   0  0  0  0  0  0  0  0  0  0  0  0
  -31.8900  -14.5640   20.0400 O   0  0  0  0  0  0  0  0  0  0  0  0
  -25.3040  -13.8940   20.5310 C   0  0  0  0  0  0  0  0  0  0  0  0
  -24.2250  -13.1350   20.8850 C   0  0  0  0  0  0  0  0  0  0  0  0
  -24.6750  -11.7790   20.8720 C   0  0  0  0  0  0  0  0  0  0  0  0
  -26.3480  -13.0050   20.3260 N   0  0  0  0  0  0  0  0  0  0  0  0
  -25.9690  -11.7260   20.5840 N   0  0  0  0  0  0  0  0  0  0  0  0
  -23.9370  -10.5250   21.0590 C   0  0  0  0  0  0  0  0  0  0  0  0
  -24.3600   -9.5460   21.9840 C   0  0  0  0  0  3  0  0  0  0  0  0
  -23.6210   -8.3550   22.1580 C   0  0  0  0  0  3  0  0  0  0  0  0
  -22.4420   -8.1380   21.4060 C   0  0  0  0  0  0  0  0  0  0  0  0
  -22.0390   -9.1050   20.4670 C   0  0  0  0  0  3  0  0  0  0  0  0
  -22.7800  -10.2850   20.2910 C   0  0  0  0  0  3  0  0  0  0  0  0
  -21.6730   -7.0030   21.4940 O   0  0  0  0  0  0  0  0  0  0  0  0
  -21.6380   -6.2430   22.6340 C   0  0  0  0  0  0  0  0  0  0  0  0
  -21.2630   -6.7850   23.8830 C   0  0  0  0  0  3  0  0  0  0  0  0
  -21.1740   -5.9520   25.0160 C   0  0  0  0  0  3  0  0  0  0  0  0
  -21.4490   -4.5770   24.9030 C   0  0  0  0  0  0  0  0  0  0  0  0
  -21.8160   -4.0330   23.6590 C   0  0  0  0  0  3  0  0  0  0  0  0
  -21.9100   -4.8630   22.5290 C   0  0  0  0  0  0  0  0  0  0  0  0
  -22.2450   -4.3310   21.3290 F   0  0  0  0  0  0  0  0  0  0  0  0
  -21.3560   -3.7730   25.9880 F   0  0  0  0  0  0  0  0  0  0  0  0
  -22.8260  -13.6260   21.1320 C   0  0  0  0  0  0  0  0  0  0  0  0
  -22.0730  -12.9440   21.9850 N   0  0  0  0  0  0  0  0  0  0  0  0
  -22.4080  -14.6560   20.6030 O   0  0  0  0  0  0  0  0  0  0  0  0
  -22.4190  -12.1110   22.4390 H   0  0  0  0  0  0  0  0  0  0  0  0
  -21.1330  -13.2580   22.1830 H   0  0  0  0  0  0  0  0  0  0  0  0
  -25.4880  -15.2630   20.3420 N   0  0  0  0  0  0  0  0  0  0  0  0
  -24.7310  -15.9320   20.4250 H   0  0  0  0  0  0  0  0  0  0  0  0
  -26.3590  -15.6860   20.0530 H   0  0  0  0  0  0  0  0  0  0  0  0
  -29.3900  -26.3850   20.6080 C   0  0  0  0  0  2  0  0  0  0  0  0
  -28.3670  -26.8070   19.7440 O   0  0  0  0  0  0  0  0  0  0  0  0
  -24.6580  -31.9150   23.2570 C   0  0  0  0  0  0  0  0  0  0  0  0
  -27.2410  -27.4810   20.1150 C   0  0  0  0  0  0  0  0  0  0  0  0
  -23.4220  -30.5170   21.6320 C   0  0  0  0  0  3  0  0  0  0  0  0
  -24.8550  -28.9680   20.2120 C   0  0  0  0  0  0  0  0  0  0  0  0
  -25.9490  -30.8590   21.4150 C   0  0  0  0  0  2  0  0  0  0  0  0
  -26.0250  -29.4800   20.7940 C   0  0  0  0  0  0  0  0  0  0  0  0
  -27.2270  -28.7340   20.7680 C   0  0  0  0  0  3  0  0  0  0  0  0
  -26.0540  -26.9650   19.5670 C   0  0  0  0  0  3  0  0  0  0  0  0
  -24.8560  -27.6940   19.6240 C   0  0  0  0  0  3  0  0  0  0  0  0
  -23.6170  -29.8360   20.2540 C   0  0  0  0  0  2  0  0  0  0  0  0
  -24.6940  -31.1120   22.1590 N   0  0  0  0  0  0  0  0  0  0  0  0
  -23.5880  -32.1970   23.8110 O   0  0  0  0  0  0  0  0  0  0  0  0
  -22.7820  -29.4940   22.5960 C   0  0  0  0  0  0  0  0  0  0  0  0
  -21.4550  -29.3120   22.4800 N   0  0  0  0  0  0  0  0  0  0  0  0
  -23.4720  -28.8660   23.4040 O   0  0  0  0  0  0  0  0  0  0  0  0
  -20.9590  -29.8760   21.8050 H   0  0  0  0  0  0  0  0  0  0  0  0
  -18.0870  -28.1110   22.9870 C   0  0  0  0  0  0  0  0  0  0  0  0
  -20.6420  -28.3750   23.2520 C   0  0  0  0  0  3  0  0  0  0  0  0
  -20.7460  -26.9400   22.6850 C   0  0  0  0  0  2  0  0  0  0  0  0
  -19.6430  -26.6090   21.6730 C   0  0  0  0  0  2  0  0  0  0  0  0
  -18.2620  -26.7560   22.3190 C   0  0  0  0  0  2  0  0  0  0  0  0
  -19.2050  -28.8780   23.4090 C   0  0  0  0  0  0  0  0  0  0  0  0
  -18.9860  -30.1440   23.9930 C   0  0  0  0  0  3  0  0  0  0  0  0
  -17.6840  -30.6480   24.1520 C   0  0  0  0  0  3  0  0  0  0  0  0
  -16.5800  -29.8800   23.7460 C   0  0  0  0  0  3  0  0  0  0  0  0
  -16.7810  -28.6130   23.1710 C   0  0  0  0  0  3  0  0  0  0  0  0
  -25.9600  -32.5350   23.8580 C   0  0  0  0  0  3  0  0  0  0  0  0
  -25.6610  -33.9340   24.1960 N   0  0  0  0  0  0  0  0  0  0  0  0
  -25.9870  -34.9850   23.4340 C   0  0  0  0  0  0  0  0  0  0  0  0
  -26.6410  -34.8840   22.3920 O   0  0  0  0  0  0  0  0  0  0  0  0
  -25.0790  -34.0910   25.0070 H   0  0  0  0  0  0  0  0  0  0  0  0
  -24.2530  -36.7730   23.1050 C   0  0  0  0  0  1  0  0  0  0  0  0
  -25.5060  -36.3720   23.9010 C   0  0  0  0  0  3  0  0  0  0  0  0
  -27.6580  -37.2430   24.6970 C   0  0  0  0  0  1  0  0  0  0  0  0
  -26.5390  -37.4240   23.7760 N   0  0  0  0  0  0  0  0  0  0  0  0
  -26.1410  -38.3440   23.9440 H   0  0  0  0  0  0  0  0  0  0  0  0
  -26.4980  -31.7490   25.1160 C   0  0  1  0  0  0  0  0  0  0  0  0
  -25.4250  -31.5060   26.2010 C   0  0  0  0  0  1  0  0  0  0  0  0
  -27.0700  -30.3710   24.7040 C   0  0  0  0  0  1  0  0  0  0  0  0
  -27.6570  -32.5410   25.7660 C   0  0  0  0  0  1  0  0  0  0  0  0
  1  2  1  0
  2  5  2  0
  3  6  2  0
  4  3  1  0
  4  1  2  0
  5 56  1  0
  6  7  1  0
  6  5  1  0
  8  4  1  0
  9 11  1  0
  9 13  1  0
 10 12  1  0
 11 14  1  0
 13  8  1  0
 13 10  1  0
 14 15  1  1
 14 16  1  0
 14 12  1  0
 16 17  1  0
 17 18  1  0
 18 19  1  0
 20 19  1  0
 21 26  1  0
 22 23  1  0
 22 21  1  0
 24 23  1  0
 24 31  1  0
 24 25  1  0
 26 20  1  0
 26 25  1  0
 27 20  2  0
 28 29  2  0
 29 48  1  0
 30 29  1  0
 30 33  1  0
 31 28  1  0
 31 32  1  0
 32 30  2  0
 33 34  1  0
 34 35  2  0
 36 39  1  0
 36 35  1  0
 37 36  2  0
 38 37  1  0
 38 33  2  0
 39 40  1  0
 40 41  1  0
 41 42  2  0
 43 42  1  0
 43 47  1  0
 44 43  2  0
 45 40  2  0
 45 44  1  0
 46 45  1  0
 48 49  1  0
 49 52  1  0
 49 51  1  0
 50 48  2  0
 53 54  1  0
 53 28  1  0
 55 53  1  0
 57 59  1  0
 57 56  1  0
 58 69  2  0
 59 64  1  0
 60 68  1  0
 60 70  1  0
 61 67  1  0
 61 63  1  0
 62 68  1  0
 63 62  1  0
 64 63  2  0
 65 66  1  0
 65 59  2  0
 66 61  2  0
 67 60  1  0
 68 58  1  0
 70 72  2  0
 71 70  1  0
 73 71  1  0
 74 83  2  0
 74 79  1  0
 75 71  1  0
 75 79  1  0
 76 75  1  0
 77 78  1  0
 77 76  1  0
 78 74  1  0
 79 80  2  0
 80 81  1  0
 82 81  2  0
 83 82  1  0
 84 58  1  0
 84 85  1  0
 84 94  1  0
 85 88  1  0
 86 90  1  0
 86 85  1  0
 87 86  2  0
 90 89  1  0
 92 90  1  0
 92 93  1  0
 92 91  1  0
 94 97  1  1
 94 95  1  0
 96 94  1  0
M  ISO  4  19 100  20 100  56 101  57 101
M  END
>  <TORSDO>  (72) 
F 23

>  <SCORE>  (72) 
-12.693

>  <name>  (72) 
71

>  <ligand_id>  (72) 
71

>  <original_smiles>  (72) 
[H]c1c([H])c([H])c2c(c1[H])C([H])([H])C([H])([H])C([H])([H])C2([H])N([H])C(=O)C1([H])N(C(=O)C([H])(N([H])C(=O)C([H])(N([H])C([H])([H])[H])C([H])([H])[H])C(C([H])([H])[H])(C([H])([H])[H])C([H])([H])[H])C([H])([H])c2c([H])c(OC([H])([H])c3c([H])c([H])c(C([H])([H])C4([H])C([H])([H])C([H])([H])[N+]([H])(C([H])([H])C([H])([H])C([H])([H])C([H])([H])C(=O)N5C([H])([H])C([H])([H])C([H])([H])C([H])(n6nc(-c7c([H])c([H])c(Oc8c([H])c([H])c(F)c([H])c8F)c([H])c7[H])c(C(=O)N([H])[H])c6N([H])[H])C5([H])[H])C([H])([H])C4([H])[H])c([H])c3F)c([H])c([H])c2C1([H])[H]

>  <smiles>  (72) 
[H]c1c([H])c([H])c2c(c1[H])C([H])([H])C([H])([H])C([H])([H])C2([H])N([H])C(=O)C1([H])N(C(=O)C([H])(N([H])C(=O)C([H])(N([H])C([H])([H])[H])C([H])([H])[H])C(C([H])([H])[H])(C([H])([H])[H])C([H])([H])[H])C([H])([H])c2c([H])c(OC([H])([H])c3c([H])c([H])c(C([H])([H])C4([H])C([H])([H])C([H])([H])[N+]([H])(C([H])([H])C([H])([H])C([H])([H])C([H])([H])C(=O)N5C([H])([H])C([H])([H])C([H])([H])C([H])(n6nc(-c7c([H])c([H])c(Oc8c([H])c([H])c(F)c([H])c8F)c([H])c7[H])c(C(=O)N([H])[H])c6N([H])[H])C5([H])[H])C([H])([H])C4([H])[H])c([H])c3F)c([H])c([H])c2C1([H])[H]

$$$$
72:0:0
     RDKit          3D

 98104  0  0  1  0  0  0  0  0999 V2000
  -33.0720  -13.8150   20.2190 C   0  0  0  0  0  3  0  0  0  0  0  0
  -32.0990  -12.3770   20.0690 C   0  0  0  0  0  3  0  0  0  0  0  0
  -32.6560  -15.4090   19.6660 C   0  0  0  0  0  3  0  0  0  0  0  0
  -30.1150  -14.6870   18.7110 C   0  0  0  0  0  2  0  0  0  0  0  0
  -30.5310  -12.4900   19.2980 C   0  0  1  0  0  0  0  0  0  0  0  0
  -31.2160  -16.0060   18.9500 C   0  0  0  0  0  2  0  0  0  0  0  0
  -29.5100  -11.0530   19.0890 C   0  0  0  0  0  0  0  0  0  0  0  0
  -29.9400   -9.9620   19.4660 O   0  0  0  0  0  0  0  0  0  0  0  0
  -27.8440  -11.0440   18.3730 C   0  0  0  0  0  3  0  0  0  0  0  0
  -26.6690  -12.4620   17.8050 C   0  0  0  0  0  2  0  0  0  0  0  0
  -26.6590  -14.3540   18.0730 C   0  0  0  0  0  2  0  0  0  0  0  0
  -27.4010  -15.7320   19.1470 C   0  0  0  0  0  2  0  0  0  0  0  0
  -28.2870  -15.9160   20.8350 C   0  0  0  0  0  2  0  0  0  0  0  0
  -29.7930  -15.3040   21.6240 C   0  0  0  0  0  0  0  0  0  0  0  0
  -31.6630  -13.4780   18.7550 C   0  0  1  0  0  0  0  0  0  0  0  0
  -30.4110  -12.6840   17.6150 C   0  0  0  0  0  3  0  0  0  0  0  0
  -28.6430  -12.6940   18.1430 C   0  0  0  0  0  2  0  0  0  0  0  0
  -27.9550  -13.0270   20.2970 C   0  0  0  0  0  2  0  0  0  0  0  0
  -28.9600  -13.3840   21.6520 C   0  0  0  0  0  2  0  0  0  0  0  0
  -30.3570  -14.1440   21.2310 N   0  0  0  0  0  2  0  0  0  0  0  0
  -30.7150  -15.9800   22.0720 O   0  0  0  0  0  0  0  0  0  0  0  0
  -25.5400  -13.5020   21.3220 C   0  0  0  0  0  3  0  0  0  0  0  0
  -24.4480  -12.7220   21.4050 C   0  0  0  0  0  0  0  0  0  0  0  0
  -24.9370  -11.3950   21.3420 C   0  0  0  0  0  0  0  0  0  0  0  0
  -26.6280  -12.6700   20.9880 N   0  0  0  0  0  0  0  0  0  0  0  0
  -26.2660  -11.3920   21.2770 N   0  0  0  0  0  2  0  0  0  0  0  0
  -24.2020  -10.1390   21.3520 C   0  0  0  0  0  0  0  0  0  0  0  0
  -24.5630   -9.1240   22.2550 C   0  0  0  0  0  3  0  0  0  0  0  0
  -23.8030   -7.9430   22.3310 C   0  0  0  0  0  3  0  0  0  0  0  0
  -22.6690   -7.7760   21.5020 C   0  0  0  0  0  0  0  0  0  0  0  0
  -22.3360   -8.7790   20.5740 C   0  0  0  0  0  3  0  0  0  0  0  0
  -23.1010   -9.9530   20.4930 C   0  0  0  0  0  3  0  0  0  0  0  0
  -21.8780   -6.6540   21.5130 O   0  0  0  0  0  0  0  0  0  0  0  0
  -21.7880   -5.8590   22.6260 C   0  0  0  0  0  0  0  0  0  0  0  0
  -21.2230   -6.3290   23.8320 C   0  0  0  0  0  3  0  0  0  0  0  0
  -21.0870   -5.4570   24.9300 C   0  0  0  0  0  3  0  0  0  0  0  0
  -21.5070   -4.1160   24.8220 C   0  0  0  0  0  0  0  0  0  0  0  0
  -22.0680   -3.6490   23.6200 C   0  0  0  0  0  3  0  0  0  0  0  0
  -22.2080   -4.5180   22.5250 C   0  0  0  0  0  0  0  0  0  0  0  0
  -22.7320   -4.0590   21.3640 F   0  0  0  0  0  0  0  0  0  0  0  0
  -21.3640   -3.2750   25.8720 F   0  0  0  0  0  0  0  0  0  0  0  0
  -23.0390  -13.2170   21.4980 C   0  0  0  0  0  0  0  0  0  0  0  0
  -22.2170  -12.5230   22.2680 N   0  0  0  0  0  0  0  0  0  0  0  0
  -22.6830  -14.2610   20.9460 O   0  0  0  0  0  0  0  0  0  0  0  0
  -22.5280  -11.6900   22.7460 H   0  0  0  0  0  0  0  0  0  0  0  0
  -21.2620  -12.8290   22.3870 H   0  0  0  0  0  0  0  0  0  0  0  0
  -25.5800  -14.8730   21.4600 N   0  0  0  0  0  0  0  0  0  0  0  0
  -24.7170  -15.4040   21.4420 H   0  0  0  0  0  0  0  0  0  0  0  0
  -26.3680  -15.3790   21.0760 H   0  0  0  0  0  0  0  0  0  0  0  0
  -30.6360  -17.8740   18.6850 C   0  0  0  0  0 15  0  0  0  0  0  0
  -30.4530  -19.7890   19.3910 C   0  0  0  0  0  1  0  0  0  0  0  0
  -32.5870  -19.5820   20.6750 C   0  0  0  0  0  1  0  0  0  0  0  0
  -31.8480  -20.2450   19.5800 N   0  0  0  0  0  4  0  0  0  0  0  0
  -32.3520  -20.1190   18.7180 H   0  0  0  0  0  0  0  0  0  0  0  0
  -31.8380  -21.2320   19.7690 H   0  0  0  0  0  0  0  0  0  0  0  0
  -29.3490  -21.5260   19.5440 C   0  0  0  0  0 15  0  0  0  0  0  0
  -29.0380  -23.5330   19.2290 C   0  0  0  0  0  1  0  0  0  0  0  0
  -28.7290  -25.2430   19.8760 O   0  0  0  0  0  0  0  0  0  0  0  0
  -24.8650  -31.5090   23.0000 C   0  0  0  0  0  0  0  0  0  0  0  0
  -27.6990  -26.4760   19.8610 C   0  0  0  0  0  0  0  0  0  0  0  0
  -23.7830  -30.1060   21.3000 C   0  0  0  0  0  3  0  0  0  0  0  0
  -25.3300  -28.5000   19.9010 C   0  0  0  0  0  0  0  0  0  0  0  0
  -26.3710  -30.2750   21.2860 C   0  0  0  0  0  2  0  0  0  0  0  0
  -26.5040  -28.8510   20.5760 C   0  0  0  0  0  0  0  0  0  0  0  0
  -27.6540  -27.8650   20.5330 C   0  0  0  0  0  3  0  0  0  0  0  0
  -26.4600  -26.3690   19.1690 C   0  0  0  0  0  3  0  0  0  0  0  0
  -25.3510  -27.2840   19.1910 C   0  0  0  0  0  3  0  0  0  0  0  0
  -24.0950  -29.4280   19.9320 C   0  0  0  0  0  2  0  0  0  0  0  0
  -25.0300  -30.6650   21.9160 N   0  0  0  0  0  0  0  0  0  0  0  0
  -23.7430  -31.7760   23.4660 O   0  0  0  0  0  0  0  0  0  0  0  0
  -23.0400  -29.1100   22.2320 C   0  0  0  0  0  0  0  0  0  0  0  0
  -21.7060  -28.9750   22.0950 N   0  0  0  0  0  0  0  0  0  0  0  0
  -23.6800  -28.4520   23.0560 O   0  0  0  0  0  0  0  0  0  0  0  0
  -21.2360  -29.5560   21.4130 H   0  0  0  0  0  0  0  0  0  0  0  0
  -18.3000  -27.7770   22.5680 C   0  0  0  0  0  0  0  0  0  0  0  0
  -20.8670  -28.0120   22.8230 C   0  0  0  0  0  3  0  0  0  0  0  0
  -20.9490  -26.6080   22.1810 C   0  0  0  0  0  2  0  0  0  0  0  0
  -19.8390  -26.3480   21.1570 C   0  0  0  0  0  2  0  0  0  0  0  0
  -18.4620  -26.4680   21.8170 C   0  0  0  0  0  2  0  0  0  0  0  0
  -19.4290  -28.5110   23.0270 C   0  0  0  0  0  0  0  0  0  0  0  0
  -19.2190  -29.7360   23.6970 C   0  0  0  0  0  3  0  0  0  0  0  0
  -17.9170  -30.2280   23.9100 C   0  0  0  0  0  3  0  0  0  0  0  0
  -16.8050  -29.4930   23.4630 C   0  0  0  0  0  3  0  0  0  0  0  0
  -16.9980  -28.2680   22.7990 C   0  0  0  0  0  3  0  0  0  0  0  0
  -26.0750  -32.1910   23.7070 C   0  0  0  0  0  3  0  0  0  0  0  0
  -25.6820  -33.5640   24.0910 N   0  0  0  0  0  0  0  0  0  0  0  0
  -26.0300  -34.6830   23.4390 C   0  0  0  0  0  0  0  0  0  0  0  0
  -26.7680  -34.6690   22.4510 O   0  0  0  0  0  0  0  0  0  0  0  0
  -25.0270  -33.6440   24.8550 H   0  0  0  0  0  0  0  0  0  0  0  0
  -24.2850  -36.4730   23.0990 C   0  0  0  0  0  1  0  0  0  0  0  0
  -25.4780  -36.0290   23.9610 C   0  0  0  0  0  3  0  0  0  0  0  0
  -27.5190  -36.9120   25.0090 C   0  0  0  0  0  1  0  0  0  0  0  0
  -26.4880  -37.1110   23.9940 N   0  0  0  0  0  0  0  0  0  0  0  0
  -26.0460  -38.0110   24.1640 H   0  0  0  0  0  0  0  0  0  0  0  0
  -26.5610  -31.4070   24.9910 C   0  0  1  0  0  0  0  0  0  0  0  0
  -25.4350  -31.1180   26.0120 C   0  0  0  0  0  1  0  0  0  0  0  0
  -27.1960  -30.0530   24.6080 C   0  0  0  0  0  1  0  0  0  0  0  0
  -27.6640  -32.2160   25.7130 C   0  0  0  0  0  1  0  0  0  0  0  0
  2  1  1  0
  3  1  2  0
  4  6  1  0
  5  7  1  0
  5  2  1  1
  6  3  1  0
  7  8  2  0
  9 10  1  0
  9  7  1  0
 10 11  1  0
 11 12  1  0
 12 13  1  0
 13 14  1  0
 14 21  2  0
 15  4  1  1
 15  5  1  0
 15  2  1  0
 16 17  1  0
 16 15  1  0
 16  5  1  0
 17  9  1  0
 18 25  1  0
 18 19  1  0
 20 14  1  0
 20 19  1  0
 22 23  1  0
 22 47  1  0
 23 42  1  0
 24 27  1  0
 24 23  2  0
 25 26  1  0
 25 22  1  0
 26 24  1  0
 27 28  1  0
 28 29  2  0
 30 33  1  0
 30 29  1  0
 31 30  2  0
 32 31  1  0
 32 27  2  0
 33 34  1  0
 34 35  1  0
 35 36  2  0
 37 36  1  0
 37 41  1  0
 38 37  2  0
 39 34  2  0
 39 38  1  0
 40 39  1  0
 42 43  1  0
 43 46  1  0
 43 45  1  0
 44 42  2  0
 48 47  1  0
 49 47  1  0
 51 53  1  0
 53 55  1  0
 53 52  1  0
 54 53  1  0
 57 58  1  0
 59 70  2  0
 60 58  1  0
 60 65  1  0
 61 69  1  0
 61 71  1  0
 62 68  1  0
 62 64  1  0
 63 69  1  0
 64 63  1  0
 65 64  2  0
 66 67  1  0
 66 60  2  0
 67 62  2  0
 68 61  1  0
 69 59  1  0
 71 73  2  0
 72 71  1  0
 74 72  1  0
 75 84  2  0
 75 80  1  0
 76 72  1  0
 76 80  1  0
 77 76  1  0
 78 79  1  0
 78 77  1  0
 79 75  1  0
 80 81  2  0
 81 82  1  0
 83 82  2  0
 84 83  1  0
 85 59  1  0
 85 86  1  0
 85 95  1  0
 86 89  1  0
 87 91  1  0
 87 86  1  0
 88 87  2  0
 91 90  1  0
 91 93  1  0
 93 94  1  0
 93 92  1  0
 95 98  1  1
 95 96  1  0
 97 95  1  0
M  ISO  4  13 100  14 100  57 101  58 101
M  END
>  <TORSDO>  (73) 
F 27

>  <SCORE>  (73) 
-11.030

>  <name>  (73) 
72

>  <ligand_id>  (73) 
72

>  <original_smiles>  (73) 
[H]c1c([H])c([H])c2c(c1[H])C([H])([H])C([H])([H])C([H])([H])C2([H])N([H])C(=O)C1([H])N(C(=O)C([H])(N([H])C(=O)C([H])(N([H])C([H])([H])[H])C([H])([H])[H])C(C([H])([H])[H])(C([H])([H])[H])C([H])([H])[H])C([H])([H])c2c([H])c(OC([H])([H])C([H])([H])C([H])(C([H])([H])c3c([H])c([H])c([H])c(C(=O)C([H])([H])C([H])([H])C([H])([H])C([H])([H])C([H])([H])C(=O)N4C([H])([H])C([H])([H])C([H])([H])C([H])(n5nc(-c6c([H])c([H])c(Oc7c([H])c([H])c(F)c([H])c7F)c([H])c6[H])c(C(=O)N([H])[H])c5N([H])[H])C4([H])[H])c3[H])[N+]([H])([H])C([H])([H])[H])c([H])c([H])c2C1([H])[H]

>  <smiles>  (73) 
[H]c1c([H])c([H])c2c(c1[H])C([H])([H])C([H])([H])C([H])([H])C2([H])N([H])C(=O)C1([H])N(C(=O)C([H])(N([H])C(=O)C([H])(N([H])C([H])([H])[H])C([H])([H])[H])C(C([H])([H])[H])(C([H])([H])[H])C([H])([H])[H])C([H])([H])c2c([H])c(OC([H])([H])C([H])([H])C([H])(C([H])([H])c3c([H])c([H])c([H])c(C(=O)C([H])([H])C([H])([H])C([H])([H])C([H])([H])C([H])([H])C(=O)N4C([H])([H])C([H])([H])C([H])([H])C([H])(n5nc(-c6c([H])c([H])c(Oc7c([H])c([H])c(F)c([H])c7F)c([H])c6[H])c(C(=O)N([H])[H])c5N([H])[H])C4([H])[H])c3[H])[N+]([H])([H])C([H])([H])[H])c([H])c([H])c2C1([H])[H]

$$$$
73:0:0
     RDKit          3D

 93100  0  0  1  0  0  0  0  0999 V2000
  -29.6110  -22.1650   23.5080 C   0  0  0  0  0  2  0  0  0  0  0  0
  -29.6060  -23.6240   23.0220 C   0  0  0  0  0  2  0  0  0  0  0  0
  -28.6210  -23.8880   21.8600 C   0  0  0  0  0  2  0  0  0  0  0  0
  -28.2380  -26.3800   22.2940 C   0  0  0  0  0  1  0  0  0  0  0  0
  -28.6580  -25.3230   21.2580 C   0  0  0  0  0  3  0  0  0  0  0  0
  -27.7760  -25.4050   19.9790 C   0  0  0  0  0  2  0  0  0  0  0  0
  -27.7930  -26.6960   19.3290 O   0  0  0  0  0  0  0  0  0  0  0  0
  -24.5000  -31.7780   23.0320 C   0  0  0  0  0  0  0  0  0  0  0  0
  -26.6570  -27.4740   19.4400 C   0  0  0  0  0  0  0  0  0  0  0  0
  -23.0900  -30.5500   21.4100 C   0  0  0  0  0  3  0  0  0  0  0  0
  -24.3420  -29.0710   19.7480 C   0  0  0  0  0  0  0  0  0  0  0  0
  -25.5980  -30.8320   21.0040 C   0  0  0  0  0  2  0  0  0  0  0  0
  -25.5680  -29.5090   20.2640 C   0  0  0  0  0  0  0  0  0  0  0  0
  -26.7290  -28.7220   20.0980 C   0  0  0  0  0  3  0  0  0  0  0  0
  -25.4170  -27.0610   18.9000 C   0  0  0  0  0  3  0  0  0  0  0  0
  -24.2620  -27.8510   19.0550 C   0  0  0  0  0  3  0  0  0  0  0  0
  -23.1460  -29.9660   19.9690 C   0  0  0  0  0  2  0  0  0  0  0  0
  -24.4200  -31.0630   21.8740 N   0  0  0  0  0  0  0  0  0  0  0  0
  -23.4850  -32.0500   23.6870 O   0  0  0  0  0  0  0  0  0  0  0  0
  -22.4790  -29.4880   22.3530 C   0  0  0  0  0  0  0  0  0  0  0  0
  -21.1480  -29.3240   22.2860 N   0  0  0  0  0  0  0  0  0  0  0  0
  -23.1980  -28.8170   23.0980 O   0  0  0  0  0  0  0  0  0  0  0  0
  -20.6290  -29.9260   21.6610 H   0  0  0  0  0  0  0  0  0  0  0  0
  -17.7910  -28.1300   22.8930 C   0  0  0  0  0  0  0  0  0  0  0  0
  -20.3610  -28.3540   23.0470 C   0  0  0  0  0  3  0  0  0  0  0  0
  -20.4200  -26.9530   22.3940 C   0  0  0  0  0  2  0  0  0  0  0  0
  -19.2650  -26.6920   21.4220 C   0  0  0  0  0  2  0  0  0  0  0  0
  -17.9190  -26.8150   22.1420 C   0  0  0  0  0  2  0  0  0  0  0  0
  -18.9380  -28.8600   23.3040 C   0  0  0  0  0  0  0  0  0  0  0  0
  -18.7640  -30.0930   23.9700 C   0  0  0  0  0  3  0  0  0  0  0  0
  -17.4760  -30.5960   24.2290 C   0  0  0  0  0  3  0  0  0  0  0  0
  -16.3440  -29.8620   23.8330 C   0  0  0  0  0  3  0  0  0  0  0  0
  -16.5020  -28.6310   23.1710 C   0  0  0  0  0  3  0  0  0  0  0  0
  -25.8640  -32.3100   23.5750 C   0  0  0  0  0  3  0  0  0  0  0  0
  -26.5180  -31.3600   24.6520 C   0  0  1  0  0  0  0  0  0  0  0  0
  -25.5620  -30.9740   25.8040 C   0  0  0  0  0  1  0  0  0  0  0  0
  -27.0220  -30.0560   23.9930 C   0  0  0  0  0  1  0  0  0  0  0  0
  -27.7570  -32.0470   25.2760 C   0  0  0  0  0  1  0  0  0  0  0  0
  -25.6240  -33.6470   24.1360 N   0  0  0  0  0  0  0  0  0  0  0  0
  -25.9570  -34.7960   23.5310 C   0  0  0  0  0  0  0  0  0  0  0  0
  -26.5680  -34.8370   22.4590 O   0  0  0  0  0  0  0  0  0  0  0  0
  -25.0790  -33.6900   24.9830 H   0  0  0  0  0  0  0  0  0  0  0  0
  -24.3010  -36.6900   23.5350 C   0  0  0  0  0  1  0  0  0  0  0  0
  -25.5460  -36.1080   24.2250 C   0  0  0  0  0  3  0  0  0  0  0  0
  -27.7410  -36.7590   25.1130 C   0  0  0  0  0  1  0  0  0  0  0  0
  -26.6210  -37.1250   24.2500 N   0  0  0  0  0  0  0  0  0  0  0  0
  -26.2590  -38.0200   24.5660 H   0  0  0  0  0  0  0  0  0  0  0  0
  -30.4090  -21.9960   24.8240 C   0  0  0  0  0  2  0  0  0  0  0  0
  -31.0950  -20.6270   24.9680 C   0  0  0  0  0  2  0  0  0  0  0  0
  -31.9190  -20.2380   23.7250 C   0  0  0  0  0  2  0  0  0  0  0  0
  -31.6780  -18.7950   23.2400 C   0  0  0  0  0  2  0  0  0  0  0  0
  -31.9140  -18.6970   21.7270 C   0  0  0  0  0  2  0  0  0  0  0  0
  -31.7150  -17.3030   21.1200 C   0  0  0  0  0  2  0  0  0  0  0  0
  -32.3230  -17.2720   19.7090 C   0  0  0  0  0  2  0  0  0  0  0  0
  -32.7490  -15.8870   19.2140 C   0  0  0  0  0  2  0  0  0  0  0  0
  -31.4150  -14.0270   18.2510 C   0  0  0  0  0  0  0  0  0  0  0  0
  -31.0830  -11.5980   18.2390 C   0  0  0  0  0  2  0  0  0  0  0  0
  -29.9530  -11.0830   17.3410 C   0  0  0  0  0  2  0  0  0  0  0  0
  -28.6190  -11.0990   18.1030 C   0  0  0  0  0  2  0  0  0  0  0  0
  -28.3310  -12.4740   18.7560 C   0  0  0  0  0  3  0  0  0  0  0  0
  -29.5460  -12.9880   19.5620 C   0  0  0  0  0  2  0  0  0  0  0  0
  -30.7510  -12.9460   18.7120 N   0  0  0  0  0  0  0  0  0  0  0  0
  -32.0270  -14.0580   17.1780 O   0  0  0  0  0  0  0  0  0  0  0  0
  -31.6460  -14.9280   19.2110 N   0  0  0  0  0  0  0  0  0  0  0  0
  -31.1780  -14.7630   20.0910 H   0  0  0  0  0  0  0  0  0  0  0  0
  -26.4210  -13.4510   20.1830 C   0  0  0  0  0  0  0  0  0  0  0  0
  -25.3210  -12.8720   20.7610 C   0  0  0  0  0  0  0  0  0  0  0  0
  -25.4040  -11.4800   20.4580 C   0  0  0  0  0  0  0  0  0  0  0  0
  -27.1200  -12.4200   19.5760 N   0  0  0  0  0  0  0  0  0  0  0  0
  -26.5220  -11.2190   19.7910 N   0  0  0  0  0  0  0  0  0  0  0  0
  -24.4570  -10.3870   20.7160 C   0  0  0  0  0  0  0  0  0  0  0  0
  -24.7280   -9.3830   21.6710 C   0  0  0  0  0  3  0  0  0  0  0  0
  -23.7940   -8.3540   21.9130 C   0  0  0  0  0  3  0  0  0  0  0  0
  -22.5720   -8.3220   21.2010 C   0  0  0  0  0  0  0  0  0  0  0  0
  -22.3160   -9.3100   20.2350 C   0  0  0  0  0  3  0  0  0  0  0  0
  -23.2490  -10.3320   19.9910 C   0  0  0  0  0  3  0  0  0  0  0  0
  -21.6160   -7.3450   21.3510 O   0  0  0  0  0  0  0  0  0  0  0  0
  -21.3150   -6.8170   22.5810 C   0  0  0  0  0  0  0  0  0  0  0  0
  -20.7970   -7.6130   23.6260 C   0  0  0  0  0  3  0  0  0  0  0  0
  -20.4360   -7.0160   24.8510 C   0  0  0  0  0  3  0  0  0  0  0  0
  -20.5800   -5.6280   25.0290 C   0  0  0  0  0  0  0  0  0  0  0  0
  -21.0900   -4.8330   23.9880 C   0  0  0  0  0  3  0  0  0  0  0  0
  -21.4530   -5.4270   22.7650 C   0  0  0  0  0  0  0  0  0  0  0  0
  -21.9240   -4.6550   21.7570 F   0  0  0  0  0  0  0  0  0  0  0  0
  -20.2260   -5.0530   26.2020 F   0  0  0  0  0  0  0  0  0  0  0  0
  -24.2040  -13.5840   21.4690 C   0  0  0  0  0  0  0  0  0  0  0  0
  -23.5930  -12.9360   22.4550 N   0  0  0  0  0  0  0  0  0  0  0  0
  -23.9020  -14.7420   21.1860 O   0  0  0  0  0  0  0  0  0  0  0  0
  -23.8530  -11.9930   22.7030 H   0  0  0  0  0  0  0  0  0  0  0  0
  -22.8540  -13.3930   22.9690 H   0  0  0  0  0  0  0  0  0  0  0  0
  -26.8730  -14.7650   20.1100 N   0  0  0  0  0  0  0  0  0  0  0  0
  -26.3520  -15.5400   20.5080 H   0  0  0  0  0  0  0  0  0  0  0  0
  -27.7060  -15.0610   19.6170 H   0  0  0  0  0  0  0  0  0  0  0  0
  1 48  1  0
  2  1  1  0
  3  2  1  0
  5  3  1  0
  5  4  1  0
  6  5  1  0
  7  9  1  0
  7  6  1  0
  8 19  2  0
  9 14  1  0
 10 18  1  0
 10 20  1  0
 11 17  1  0
 11 13  1  0
 12 18  1  0
 13 12  1  0
 14 13  2  0
 15 16  1  0
 15  9  2  0
 16 11  2  0
 17 10  1  0
 18  8  1  0
 20 22  2  0
 21 20  1  0
 23 21  1  0
 24 33  2  0
 24 29  1  0
 25 21  1  0
 25 29  1  0
 26 25  1  0
 27 28  1  0
 27 26  1  0
 28 24  1  0
 29 30  2  0
 30 31  1  0
 32 31  2  0
 33 32  1  0
 34  8  1  0
 34 39  1  0
 34 35  1  0
 35 38  1  1
 35 36  1  0
 37 35  1  0
 39 42  1  0
 40 39  1  0
 40 44  1  0
 41 40  2  0
 44 43  1  0
 44 46  1  0
 46 47  1  0
 46 45  1  0
 48 49  1  0
 50 49  1  0
 51 50  1  0
 52 51  1  0
 53 52  1  0
 54 53  1  0
 55 54  1  0
 56 62  1  0
 56 64  1  0
 57 62  1  0
 58 59  1  0
 58 57  1  0
 60 59  1  0
 60 61  1  0
 60 69  1  0
 62 61  1  0
 63 56  2  0
 64 55  1  0
 64 65  1  0
 66 67  2  0
 67 86  1  0
 68 71  1  0
 68 67  1  0
 69 70  1  0
 69 66  1  0
 70 68  2  0
 71 72  1  0
 72 73  2  0
 74 77  1  0
 74 73  1  0
 75 74  2  0
 76 75  1  0
 76 71  2  0
 77 78  1  0
 78 83  2  0
 78 79  1  0
 79 80  2  0
 80 81  1  0
 81 85  1  0
 82 81  2  0
 83 82  1  0
 84 83  1  0
 86 87  1  0
 87 89  1  0
 87 90  1  0
 88 86  2  0
 91 66  1  0
 91 92  1  0
 93 91  1  0
M  ISO  4   6 101   7 101  56 100  64 100
M  END
>  <TORSDO>  (74) 
F 28

>  <SCORE>  (74) 
-7.419

>  <name>  (74) 
73

>  <ligand_id>  (74) 
73

>  <original_smiles>  (74) 
[H]c1c([H])c([H])c2c(c1[H])C([H])([H])C([H])([H])C([H])([H])C2([H])N([H])C(=O)C1([H])N(C(=O)C([H])(N([H])C(=O)C([H])(N([H])C([H])([H])[H])C([H])([H])[H])C(C([H])([H])[H])(C([H])([H])[H])C([H])([H])[H])C([H])([H])c2c([H])c(OC([H])([H])C([H])(C([H])([H])[H])C([H])([H])C([H])([H])C([H])([H])C([H])([H])C([H])([H])C([H])([H])C([H])([H])C([H])([H])C([H])([H])C([H])([H])C([H])([H])N([H])C(=O)N3C([H])([H])C([H])([H])C([H])([H])C([H])(n4nc(-c5c([H])c([H])c(Oc6c([H])c([H])c(F)c([H])c6F)c([H])c5[H])c(C(=O)N([H])[H])c4N([H])[H])C3([H])[H])c([H])c([H])c2C1([H])[H]

>  <smiles>  (74) 
[H]c1c([H])c([H])c2c(c1[H])C([H])([H])C([H])([H])C([H])([H])C2([H])N([H])C(=O)C1([H])N(C(=O)C([H])(N([H])C(=O)C([H])(N([H])C([H])([H])[H])C([H])([H])[H])C(C([H])([H])[H])(C([H])([H])[H])C([H])([H])[H])C([H])([H])c2c([H])c(OC([H])([H])C([H])(C([H])([H])[H])C([H])([H])C([H])([H])C([H])([H])C([H])([H])C([H])([H])C([H])([H])C([H])([H])C([H])([H])C([H])([H])C([H])([H])C([H])([H])N([H])C(=O)N3C([H])([H])C([H])([H])C([H])([H])C([H])(n4nc(-c5c([H])c([H])c(Oc6c([H])c([H])c(F)c([H])c6F)c([H])c5[H])c(C(=O)N([H])[H])c4N([H])[H])C3([H])[H])c([H])c([H])c2C1([H])[H]

$$$$
74:0:0
     RDKit          3D

 95104  0  0  1  0  0  0  0  0999 V2000
  -27.1410  -18.8250   19.9500 C   0  0  0  0  0  3  0  0  0  0  0  0
  -26.0690  -19.6360   19.5480 C   0  0  0  0  0  3  0  0  0  0  0  0
  -27.2860  -20.2230   17.5250 C   0  0  0  0  0  3  0  0  0  0  0  0
  -28.3300  -18.7440   19.1810 C   0  0  0  0  0  0  0  0  0  0  0  0
  -26.1430  -20.3430   18.3370 C   0  0  0  0  0  0  0  0  0  0  0  0
  -28.3890  -19.4780   17.9680 C   0  0  0  0  0  0  0  0  0  0  0  0
  -29.5230  -19.5310   17.2330 F   0  0  0  0  0  0  0  0  0  0  0  0
  -31.7960  -14.4520   20.7180 C   0  0  0  0  0  0  0  0  0  0  0  0
  -31.5690  -12.0400   20.3330 C   0  0  0  0  0  2  0  0  0  0  0  0
  -30.7800  -11.8370   19.0240 C   0  0  0  0  0  2  0  0  0  0  0  0
  -29.2620  -11.7980   19.3080 C   0  0  0  0  0  2  0  0  0  0  0  0
  -28.7880  -12.9920   20.1750 C   0  0  0  0  0  3  0  0  0  0  0  0
  -29.7090  -13.1910   21.3990 C   0  0  0  0  0  2  0  0  0  0  0  0
  -31.0990  -13.3040   20.9180 N   0  0  0  0  0  0  0  0  0  0  0  0
  -32.9960  -14.4660   20.4390 O   0  0  0  0  0  0  0  0  0  0  0  0
  -29.2700  -17.1060   20.9630 C   0  0  0  0  0  2  0  0  0  0  0  0
  -30.1750  -17.0190   18.6210 C   0  0  0  0  0  2  0  0  0  0  0  0
  -30.5460  -16.4130   21.4530 C   0  0  0  0  0  2  0  0  0  0  0  0
  -31.3990  -16.2900   19.1890 C   0  0  0  0  0  2  0  0  0  0  0  0
  -29.5410  -17.9480   19.6870 C   0  0  0  0  0  3  0  0  0  0  0  0
  -31.0460  -15.5320   20.3990 N   0  0  0  0  0  0  0  0  0  0  0  0
  -26.4310  -13.8270   20.7880 C   0  0  0  0  0  0  0  0  0  0  0  0
  -25.2620  -13.1650   21.0460 C   0  0  0  0  0  0  0  0  0  0  0  0
  -25.5680  -11.7730   20.9500 C   0  0  0  0  0  0  0  0  0  0  0  0
  -27.3850  -12.8460   20.5660 N   0  0  0  0  0  0  0  0  0  0  0  0
  -26.8650  -11.6020   20.7230 N   0  0  0  0  0  0  0  0  0  0  0  0
  -24.6920  -10.5940   21.0130 C   0  0  0  0  0  0  0  0  0  0  0  0
  -25.0050   -9.4890   21.8340 C   0  0  0  0  0  3  0  0  0  0  0  0
  -24.1390   -8.3760   21.8960 C   0  0  0  0  0  3  0  0  0  0  0  0
  -22.9450   -8.3620   21.1360 C   0  0  0  0  0  0  0  0  0  0  0  0
  -22.6500   -9.4550   20.3030 C   0  0  0  0  0  3  0  0  0  0  0  0
  -23.5150  -10.5600   20.2390 C   0  0  0  0  0  3  0  0  0  0  0  0
  -22.0590   -7.3110   21.1090 O   0  0  0  0  0  0  0  0  0  0  0  0
  -21.9580   -6.4290   22.1550 C   0  0  0  0  0  0  0  0  0  0  0  0
  -21.6290   -6.8560   23.4600 C   0  0  0  0  0  3  0  0  0  0  0  0
  -21.4690   -5.9070   24.4900 C   0  0  0  0  0  3  0  0  0  0  0  0
  -21.6270   -4.5360   24.2150 C   0  0  0  0  0  0  0  0  0  0  0  0
  -21.9510   -4.1100   22.9150 C   0  0  0  0  0  3  0  0  0  0  0  0
  -22.1110   -5.0550   21.8870 C   0  0  0  0  0  0  0  0  0  0  0  0
  -22.4030   -4.6390   20.6300 F   0  0  0  0  0  0  0  0  0  0  0  0
  -21.4650   -3.6240   25.2030 F   0  0  0  0  0  0  0  0  0  0  0  0
  -23.9110  -13.7810   21.2680 C   0  0  0  0  0  0  0  0  0  0  0  0
  -23.0790  -13.1380   22.0800 N   0  0  0  0  0  0  0  0  0  0  0  0
  -23.6070  -14.8630   20.7640 O   0  0  0  0  0  0  0  0  0  0  0  0
  -23.3450  -12.2530   22.4880 H   0  0  0  0  0  0  0  0  0  0  0  0
  -22.1750  -13.5320   22.3000 H   0  0  0  0  0  0  0  0  0  0  0  0
  -26.7640  -15.1740   20.6970 N   0  0  0  0  0  0  0  0  0  0  0  0
  -26.1020  -15.9280   20.8150 H   0  0  0  0  0  0  0  0  0  0  0  0
  -27.7000  -15.4970   20.4830 H   0  0  0  0  0  0  0  0  0  0  0  0
  -25.0390  -21.2980   17.9530 C   0  0  0  0  0  2  0  0  0  0  0  0
  -25.4050  -22.7870   18.1440 C   0  0  0  0  0  2  0  0  0  0  0  0
  -26.5370  -23.2240   19.1500 C   0  0  0  0  0  2  0  0  0  0  0  0
  -27.2590  -24.4500   18.5520 C   0  0  0  0  0  3  0  0  0  0  0  0
  -28.3440  -25.3030   19.2960 C   0  0  0  0  0  3  0  0  0  0  0  0
  -28.5960  -26.6380   18.7410 O   0  0  0  0  0  0  0  0  0  0  0  0
  -24.7760  -30.4780   23.2990 C   0  0  0  0  0  0  0  0  0  0  0  0
  -27.5150  -27.4800   18.8810 C   0  0  0  0  0  0  0  0  0  0  0  0
  -23.5900  -29.5700   21.3320 C   0  0  0  0  0  3  0  0  0  0  0  0
  -25.0680  -28.7410   19.4320 C   0  0  0  0  0  0  0  0  0  0  0  0
  -26.0750  -30.1850   21.2020 C   0  0  0  0  0  2  0  0  0  0  0  0
  -26.2150  -29.1100   20.1480 C   0  0  0  0  0  0  0  0  0  0  0  0
  -27.4510  -28.4670   19.8880 C   0  0  0  0  0  3  0  0  0  0  0  0
  -26.3950  -27.2710   18.0570 C   0  0  0  0  0  3  0  0  0  0  0  0
  -25.1500  -27.8180   18.3830 C   0  0  0  0  0  3  0  0  0  0  0  0
  -23.7670  -29.4030   19.7990 C   0  0  0  0  0  2  0  0  0  0  0  0
  -24.8310  -30.0800   21.9990 N   0  0  0  0  0  0  0  0  0  0  0  0
  -23.7090  -30.4720   23.9250 O   0  0  0  0  0  0  0  0  0  0  0  0
  -23.0700  -28.2390   21.9220 C   0  0  0  0  0  0  0  0  0  0  0  0
  -21.8000  -27.9050   21.6260 N   0  0  0  0  0  0  0  0  0  0  0  0
  -23.8060  -27.5250   22.6060 O   0  0  0  0  0  0  0  0  0  0  0  0
  -21.2530  -28.5530   21.0790 H   0  0  0  0  0  0  0  0  0  0  0  0
  -18.7130  -26.0660   21.3010 C   0  0  0  0  0  0  0  0  0  0  0  0
  -21.1100  -26.6890   22.0460 C   0  0  0  0  0  3  0  0  0  0  0  0
  -21.5770  -25.4680   21.2200 C   0  0  0  0  0  2  0  0  0  0  0  0
  -20.7010  -25.2000   19.9910 C   0  0  0  0  0  2  0  0  0  0  0  0
  -19.2460  -24.9570   20.4080 C   0  0  0  0  0  2  0  0  0  0  0  0
  -19.5880  -26.8890   22.0560 C   0  0  0  0  0  0  0  0  0  0  0  0
  -19.0440  -27.9330   22.8340 C   0  0  0  0  0  3  0  0  0  0  0  0
  -17.6540  -28.1520   22.8740 C   0  0  0  0  0  3  0  0  0  0  0  0
  -16.7890  -27.3170   22.1480 C   0  0  0  0  0  3  0  0  0  0  0  0
  -17.3190  -26.2800   21.3630 C   0  0  0  0  0  3  0  0  0  0  0  0
  -26.0510  -30.9880   24.0510 C   0  0  0  0  0  3  0  0  0  0  0  0
  -25.8310  -32.3980   24.3850 N   0  0  0  0  0  0  0  0  0  0  0  0
  -26.4450  -33.4260   23.7860 C   0  0  0  0  0  0  0  0  0  0  0  0
  -27.3220  -33.2790   22.9310 O   0  0  0  0  0  0  0  0  0  0  0  0
  -25.1010  -32.5990   25.0540 H   0  0  0  0  0  0  0  0  0  0  0  0
  -25.1550  -35.4670   23.0940 C   0  0  0  0  0  1  0  0  0  0  0  0
  -26.0150  -34.8440   24.2070 C   0  0  0  0  0  3  0  0  0  0  0  0
  -27.8710  -35.3530   25.7300 C   0  0  0  0  0  1  0  0  0  0  0  0
  -27.1490  -35.7390   24.5200 N   0  0  0  0  0  0  0  0  0  0  0  0
  -26.8260  -36.6970   24.6310 H   0  0  0  0  0  0  0  0  0  0  0  0
  -26.3910  -30.1480   25.3410 C   0  0  1  0  0  0  0  0  0  0  0  0
  -25.2030  -30.0100   26.3160 C   0  0  0  0  0  1  0  0  0  0  0  0
  -26.8630  -28.7240   24.9660 C   0  0  0  0  0  1  0  0  0  0  0  0
  -27.5530  -30.8190   26.1100 C   0  0  0  0  0  1  0  0  0  0  0  0
  2  1  1  0
  3  6  2  0
  3  5  1  0
  4  1  2  0
  5  2  2  0
  6  4  1  0
  7  6  1  0
  8 14  1  0
  9 14  1  0
 10 11  1  0
 10  9  1  0
 12 11  1  0
 12 25  1  0
 12 13  1  0
 14 13  1  0
 15  8  2  0
 16 18  1  0
 17 19  1  0
 17 20  1  0
 19 21  1  0
 20  4  1  0
 20 16  1  0
 21  8  1  0
 21 18  1  0
 22 23  2  0
 23 42  1  0
 24 27  1  0
 24 23  1  0
 25 26  1  0
 25 22  1  0
 26 24  2  0
 27 28  1  0
 28 29  2  0
 30 29  1  0
 31 30  2  0
 32 31  1  0
 32 27  2  0
 33 30  1  0
 33 34  1  0
 34 35  1  0
 35 36  2  0
 37 36  1  0
 37 41  1  0
 38 37  2  0
 39 34  2  0
 39 38  1  0
 40 39  1  0
 42 43  1  0
 43 46  1  0
 43 45  1  0
 44 42  2  0
 47 22  1  0
 47 48  1  0
 49 47  1  0
 50 51  1  0
 50  5  1  0
 51 52  1  0
 53 52  1  0
 53 54  2  0
 55 57  1  0
 55 54  1  0
 56 67  2  0
 57 62  1  0
 58 68  1  0
 58 66  1  0
 59 65  1  0
 59 61  1  0
 60 66  1  0
 61 60  1  0
 62 61  2  0
 63 64  1  0
 63 57  2  0
 64 59  2  0
 65 58  1  0
 66 56  1  0
 68 70  2  0
 69 68  1  0
 71 69  1  0
 72 81  2  0
 72 77  1  0
 73 69  1  0
 73 77  1  0
 74 73  1  0
 75 76  1  0
 75 74  1  0
 76 72  1  0
 77 78  2  0
 78 79  1  0
 80 79  2  0
 81 80  1  0
 82 56  1  0
 82 83  1  0
 82 92  1  0
 83 86  1  0
 84 88  1  0
 84 83  1  0
 85 84  2  0
 88 87  1  0
 88 90  1  0
 90 91  1  0
 90 89  1  0
 92 95  1  1
 92 93  1  0
 94 92  1  0
M  ISO  4   8 100  21 100  54 101  55 101
M  END
>  <TORSDO>  (75) 
F 21

>  <SCORE>  (75) 
-9.468

>  <name>  (75) 
74

>  <ligand_id>  (75) 
74

>  <original_smiles>  (75) 
[H]c1c([H])c([H])c2c(c1[H])C([H])([H])C([H])([H])C([H])([H])C2([H])N([H])C(=O)C1([H])N(C(=O)C([H])(N([H])C(=O)C([H])(N([H])C([H])([H])[H])C([H])([H])[H])C(C([H])([H])[H])(C([H])([H])[H])C([H])([H])[H])C([H])([H])c2c([H])c(OC([H])([H])C([H])([H])C([H])([H])C([H])([H])C([H])([H])c3c([H])c([H])c(C4([H])C([H])([H])C([H])([H])N(C(=O)N5C([H])([H])C([H])([H])C([H])([H])C([H])(n6nc(-c7c([H])c([H])c(Oc8c([H])c([H])c(F)c([H])c8F)c([H])c7[H])c(C(=O)N([H])[H])c6N([H])[H])C5([H])[H])C([H])([H])C4([H])[H])c(F)c3[H])c([H])c([H])c2C1([H])[H]

>  <smiles>  (75) 
[H]c1c([H])c([H])c2c(c1[H])C([H])([H])C([H])([H])C([H])([H])C2([H])N([H])C(=O)C1([H])N(C(=O)C([H])(N([H])C(=O)C([H])(N([H])C([H])([H])[H])C([H])([H])[H])C(C([H])([H])[H])(C([H])([H])[H])C([H])([H])[H])C([H])([H])c2c([H])c(OC([H])([H])C([H])([H])C([H])([H])C([H])([H])C([H])([H])c3c([H])c([H])c(C4([H])C([H])([H])C([H])([H])N(C(=O)N5C([H])([H])C([H])([H])C([H])([H])C([H])(n6nc(-c7c([H])c([H])c(Oc8c([H])c([H])c(F)c([H])c8F)c([H])c7[H])c(C(=O)N([H])[H])c6N([H])[H])C5([H])[H])C([H])([H])C4([H])[H])c(F)c3[H])c([H])c([H])c2C1([H])[H]

$$$$
75:0:0
     RDKit          3D

103109  0  0  1  0  0  0  0  0999 V2000
  -20.5770  -26.9240   25.1210 C   0  0  0  0  0  3  0  0  0  0  0  0
  -21.9570  -26.7480   25.4080 C   0  0  0  0  0  3  0  0  0  0  0  0
  -20.0960  -26.7590   23.7840 C   0  0  0  0  0  3  0  0  0  0  0  0
  -21.9520  -25.5500   23.4220 C   0  0  0  0  0  3  0  0  0  0  0  0
  -22.7820  -26.1170   24.4560 C   0  0  0  0  0  0  0  0  0  0  0  0
  -20.9960  -26.4580   22.6560 C   0  0  0  0  0  0  0  0  0  0  0  0
  -20.3300  -27.8790   18.9520 C   0  0  0  0  0  1  0  0  0  0  0  0
  -21.3600  -27.4570   20.1320 C   0  0  0  0  0  3  0  0  0  0  0  0
  -23.5340  -25.7720   18.9800 C   0  0  0  0  0  3  0  0  0  0  0  0
  -22.6260  -26.8990   18.9880 C   0  0  0  0  0  3  0  0  0  0  0  0
  -24.7180  -25.1840   18.1730 C   0  0  0  0  0  0  0  0  0  0  0  0
  -25.3200  -25.8620   17.3450 O   0  0  0  0  0  0  0  0  0  0  0  0
  -25.2120  -23.6410   18.4020 C   0  0  0  0  0  3  0  0  0  0  0  0
  -26.7710  -23.1030   18.2630 C   0  0  0  0  0  3  0  0  0  0  0  0
  -27.2900  -21.5190   18.1580 C   0  0  0  0  0  2  0  0  0  0  0  0
  -28.0410  -20.5750   19.2950 C   0  0  0  0  0  2  0  0  0  0  0  0
  -29.0130  -19.2700   18.9180 C   0  0  0  0  0  2  0  0  0  0  0  0
  -29.2300  -17.9010   19.8460 C   0  0  0  0  0  3  0  0  0  0  0  0
  -30.5330  -16.8430   19.7980 C   0  0  0  0  0  3  0  0  0  0  0  0
  -31.4430  -14.4030   20.7910 C   0  0  0  0  0  0  0  0  0  0  0  0
  -31.3920  -11.9990   20.1040 C   0  0  0  0  0  2  0  0  0  0  0  0
  -30.6260  -11.9900   18.7610 C   0  0  0  0  0  2  0  0  0  0  0  0
  -29.0970  -11.9770   18.9850 C   0  0  0  0  0  2  0  0  0  0  0  0
  -28.6400  -12.9890   20.0660 C   0  0  0  0  0  3  0  0  0  0  0  0
  -29.5130  -12.9090   21.3310 C   0  0  0  0  0  2  0  0  0  0  0  0
  -30.8840  -13.1480   20.8910 N   0  0  0  0  0  0  0  0  0  0  0  0
  -32.6770  -14.4920   20.7170 O   0  0  0  0  0  0  0  0  0  0  0  0
  -30.5240  -15.4560   20.5300 N   0  0  0  0  0  0  0  0  0  0  0  0
  -29.5880  -15.1340   20.7140 H   0  0  0  0  0  0  0  0  0  0  0  0
  -26.2780  -13.8790   20.4630 C   0  0  0  0  0  0  0  0  0  0  0  0
  -25.0980  -13.2430   20.7220 C   0  0  0  0  0  0  0  0  0  0  0  0
  -25.4120  -11.8520   20.8140 C   0  0  0  0  0  0  0  0  0  0  0  0
  -27.2320  -12.8780   20.3940 N   0  0  0  0  0  0  0  0  0  0  0  0
  -26.7150  -11.6590   20.6810 N   0  0  0  0  0  0  0  0  0  0  0  0
  -24.5390  -10.6840   20.9550 C   0  0  0  0  0  0  0  0  0  0  0  0
  -24.6990   -9.7660   22.0190 C   0  0  0  0  0  3  0  0  0  0  0  0
  -23.8320   -8.6590   22.1400 C   0  0  0  0  0  3  0  0  0  0  0  0
  -22.7940   -8.4630   21.1990 C   0  0  0  0  0  0  0  0  0  0  0  0
  -22.6570   -9.3640   20.1290 C   0  0  0  0  0  3  0  0  0  0  0  0
  -23.5230  -10.4630   20.0040 C   0  0  0  0  0  3  0  0  0  0  0  0
  -21.9220   -7.4030   21.2240 O   0  0  0  0  0  0  0  0  0  0  0  0
  -21.5390   -6.8150   22.4020 C   0  0  0  0  0  0  0  0  0  0  0  0
  -20.9290   -7.5560   23.4380 C   0  0  0  0  0  3  0  0  0  0  0  0
  -20.4880   -6.9010   24.6060 C   0  0  0  0  0  3  0  0  0  0  0  0
  -20.6450   -5.5080   24.7350 C   0  0  0  0  0  0  0  0  0  0  0  0
  -21.2490   -4.7680   23.7020 C   0  0  0  0  0  3  0  0  0  0  0  0
  -21.6920   -5.4210   22.5380 C   0  0  0  0  0  0  0  0  0  0  0  0
  -22.2530   -4.7020   21.5360 F   0  0  0  0  0  0  0  0  0  0  0  0
  -20.2150   -4.8760   25.8520 F   0  0  0  0  0  0  0  0  0  0  0  0
  -23.7390  -13.8750   20.7720 C   0  0  0  0  0  0  0  0  0  0  0  0
  -22.8360  -13.3180   21.5690 N   0  0  0  0  0  0  0  0  0  0  0  0
  -23.4860  -14.8970   20.1320 O   0  0  0  0  0  0  0  0  0  0  0  0
  -23.0500  -12.4900   22.1060 H   0  0  0  0  0  0  0  0  0  0  0  0
  -21.9170  -13.7300   21.6520 H   0  0  0  0  0  0  0  0  0  0  0  0
  -26.6090  -15.2150   20.2540 N   0  0  0  0  0  0  0  0  0  0  0  0
  -25.8950  -15.9360   20.2230 H   0  0  0  0  0  0  0  0  0  0  0  0
  -27.5150  -15.5510   19.9540 H   0  0  0  0  0  0  0  0  0  0  0  0
  -24.4050  -26.2080   24.6020 C   0  0  0  0  0  2  0  0  0  0  0  0
  -25.5940  -25.4070   23.8060 C   0  0  0  0  0  2  0  0  0  0  0  0
  -27.0720  -24.5710   21.9580 C   0  0  0  0  0  1  0  0  0  0  0  0
  -26.6650  -25.9000   22.6230 C   0  0  0  0  0  3  0  0  0  0  0  0
  -28.1220  -26.6640   22.7600 C   0  0  0  0  0  2  0  0  0  0  0  0
  -29.0330  -26.9780   21.5600 O   0  0  0  0  0  0  0  0  0  0  0  0
  -24.9000  -31.9730   23.1550 C   0  0  0  0  0  0  0  0  0  0  0  0
  -28.4620  -27.9220   20.7690 C   0  0  0  0  0  0  0  0  0  0  0  0
  -24.3730  -30.6240   21.2020 C   0  0  0  0  0  3  0  0  0  0  0  0
  -26.2040  -29.3300   20.0630 C   0  0  0  0  0  0  0  0  0  0  0  0
  -26.7650  -31.2550   21.6090 C   0  0  0  0  0  2  0  0  0  0  0  0
  -27.1240  -29.9170   20.9560 C   0  0  0  0  0  0  0  0  0  0  0  0
  -28.2930  -29.2200   21.2900 C   0  0  0  0  0  3  0  0  0  0  0  0
  -27.6580  -27.4320   19.7270 C   0  0  0  0  0  3  0  0  0  0  0  0
  -26.4800  -28.1110   19.4170 C   0  0  0  0  0  3  0  0  0  0  0  0
  -24.9150  -30.0650   19.8690 C   0  0  0  0  0  2  0  0  0  0  0  0
  -25.3640  -31.3160   22.0520 N   0  0  0  0  0  0  0  0  0  0  0  0
  -23.6750  -32.0460   23.3600 O   0  0  0  0  0  0  0  0  0  0  0  0
  -23.7580  -29.4850   21.9830 C   0  0  0  0  0  0  0  0  0  0  0  0
  -22.4580  -29.5260   21.9400 N   0  0  0  0  0  0  0  0  0  0  0  0
  -24.4150  -28.6280   22.5820 O   0  0  0  0  0  0  0  0  0  0  0  0
  -21.9720  -30.2750   21.4660 H   0  0  0  0  0  0  0  0  0  0  0  0
  -18.6900  -28.3190   22.7460 C   0  0  0  0  0  0  0  0  0  0  0  0
  -21.7450  -28.4290   22.4030 C   0  0  0  0  0  2  0  0  0  0  0  0
  -21.8820  -26.8710   21.1400 C   0  0  0  0  0  2  0  0  0  0  0  0
  -19.9010  -25.8790   20.7920 C   0  0  0  0  0 15  0  0  0  0  0  0
  -18.3880  -26.7840   21.7430 C   0  0  0  0  0  1  0  0  0  0  0  0
  -20.1170  -29.0170   23.0100 C   0  0  0  0  0  0  0  0  0  0  0  0
  -20.1520  -30.0870   23.9270 C   0  0  0  0  0  3  0  0  0  0  0  0
  -18.9810  -30.5940   24.5150 C   0  0  0  0  0  3  0  0  0  0  0  0
  -17.7190  -30.0530   24.2070 C   0  0  0  0  0  3  0  0  0  0  0  0
  -17.5810  -28.9420   23.3480 C   0  0  0  0  0  3  0  0  0  0  0  0
  -25.8180  -32.6650   24.1930 C   0  0  0  0  0  0  0  0  0  0  0  0
  -25.6180  -34.0980   24.3210 N   0  0  0  0  0  4  0  0  0  0  0  0
  -26.0720  -35.0890   23.5670 C   0  0  0  0  0  0  0  0  0  0  0  0
  -26.9510  -34.9550   22.7170 O   0  0  0  0  0  0  0  0  0  0  0  0
  -24.9000  -34.3620   24.9820 H   0  0  0  0  0  0  0  0  0  0  0  0
  -24.3590  -36.7540   22.7520 C   0  0  0  0  0  1  0  0  0  0  0  0
  -25.4120  -36.4550   23.8340 C   0  0  0  0  0  3  0  0  0  0  0  0
  -27.2070  -37.4740   25.1440 C   0  0  0  0  0  1  0  0  0  0  0  0
  -26.3780  -37.5600   23.9430 N   0  0  0  0  0  0  0  0  0  0  0  0
  -25.8990  -38.4570   23.9590 H   0  0  0  0  0  0  0  0  0  0  0  0
  -26.2310  -31.8810   25.4980 C   0  0  1  0  0  0  0  0  0  0  0  0
  -24.9950  -31.4540   26.3560 C   0  0  0  0  0  1  0  0  0  0  0  0
  -27.0080  -30.5830   25.1960 C   0  0  0  0  0  1  0  0  0  0  0  0
  -27.1420  -32.7690   26.3820 C   0  0  0  0  0  1  0  0  0  0  0  0
  1  2  1  0
  3  1  2  0
  4  5  1  0
  5 58  1  0
  5  2  2  0
  6  4  2  0
  6  3  1  0
  8  7  1  0
  8 82  1  0
  9 10  2  0
 10  8  1  0
 11 13  1  0
 11  9  1  0
 12 11  2  0
 14 13  2  0
 15 14  1  0
 15 16  1  0
 17 16  1  0
 17 18  1  0
 19 18  2  0
 19 28  1  0
 20 26  1  0
 21 26  1  0
 22 23  1  0
 22 21  1  0
 24 23  1  0
 24 33  1  0
 24 25  1  0
 26 25  1  0
 27 20  2  0
 28 29  1  0
 28 20  1  0
 30 31  2  0
 31 50  1  0
 31 32  1  0
 32 35  1  0
 33 30  1  0
 33 34  1  0
 34 32  2  0
 35 36  1  0
 36 37  2  0
 38 41  1  0
 38 37  1  0
 39 38  2  0
 40 39  1  0
 40 35  2  0
 41 42  1  0
 42 47  2  0
 42 43  1  0
 43 44  2  0
 44 45  1  0
 45 49  1  0
 46 45  2  0
 47 46  1  0
 48 47  1  0
 50 51  1  0
 51 54  1  0
 51 53  1  0
 52 50  2  0
 55 30  1  0
 56 55  1  0
 57 55  1  0
 59 58  1  0
 61 60  1  0
 61 62  1  0
 61 59  1  0
 63 62  1  0
 64 75  2  0
 64 90  1  0
 65 70  1  0
 65 63  1  0
 66 76  1  0
 66 74  1  0
 67 69  1  0
 68 74  1  0
 69 70  2  0
 69 68  1  0
 71 65  2  0
 72 71  1  0
 72 67  2  0
 73 67  1  0
 73 66  1  0
 74 64  1  0
 76 78  2  0
 77 76  1  0
 77 81  1  0
 79 77  1  0
 80 85  2  0
 80 89  1  0
 81 85  1  0
 82  6  1  0
 84 80  1  0
 85 86  1  0
 86 87  2  0
 88 87  1  0
 89 88  2  0
 90 91  2  3
 90100  1  0
 91 94  1  0
 92 96  1  0
 92 91  1  0
 93 92  2  0
 96 95  1  0
 96 98  1  0
 98 99  1  0
 98 97  1  0
100101  1  1
100103  1  0
102100  1  0
M  ISO  4  20 100  28 100  62 101  63 101
M  END
>  <TORSDO>  (76) 
F 30

>  <SCORE>  (76) 
-3.658

>  <name>  (76) 
75

>  <ligand_id>  (76) 
75

>  <original_smiles>  (76) 
[H]C(C(=O)C([H])([H])C([H])([H])C([H])([H])C([H])([H])C([H])([H])C([H])([H])C([H])([H])N([H])C(=O)N1C([H])([H])C([H])([H])C([H])([H])C([H])(n2nc(-c3c([H])c([H])c(Oc4c([H])c([H])c(F)c([H])c4F)c([H])c3[H])c(C(=O)N([H])[H])c2N([H])[H])C1([H])[H])=C([H])C([H])(c1c([H])c([H])c([H])c(C([H])([H])C([H])([H])C([H])(C([H])([H])[H])C([H])([H])Oc2c([H])c([H])c3c(c2[H])C([H])([H])N(C(=O)C([H])(N([H])C(=O)C([H])(N([H])C([H])([H])[H])C([H])([H])[H])C(C([H])([H])[H])(C([H])([H])[H])C([H])([H])[H])C([H])(C(=O)N([H])C2([H])c4c([H])c([H])c([H])c([H])c4C([H])([H])C([H])([H])C2([H])[H])C3([H])[H])c1[H])C([H])([H])[H]

>  <smiles>  (76) 
[H]C(C(=O)C([H])([H])C([H])([H])C([H])([H])C([H])([H])C([H])([H])C([H])([H])C([H])([H])N([H])C(=O)N1C([H])([H])C([H])([H])C([H])([H])C([H])(n2nc(-c3c([H])c([H])c(Oc4c([H])c([H])c(F)c([H])c4F)c([H])c3[H])c(C(=O)N([H])[H])c2N([H])[H])C1([H])[H])=C([H])C([H])(c1c([H])c([H])c([H])c(C([H])([H])C([H])([H])C([H])(C([H])([H])[H])C([H])([H])Oc2c([H])c([H])c3c(c2[H])C([H])([H])N(C(=O)C([H])(N([H])C(=O)C([H])(N([H])C([H])([H])[H])C([H])([H])[H])C(C([H])([H])[H])(C([H])([H])[H])C([H])([H])[H])C([H])(C(=O)N([H])C2([H])c4c([H])c([H])c([H])c([H])c4C([H])([H])C([H])([H])C2([H])[H])C3([H])[H])c1[H])C([H])([H])[H]

$$$$
76:0:0
     RDKit          3D

 93101  0  0  1  0  0  0  0  0999 V2000
  -31.4380  -23.4550   21.2310 C   0  0  0  0  0  2  0  0  0  0  0  0
  -30.3040  -23.5160   20.5320 C   0  0  0  0  0  3  0  0  0  0  0  0
  -31.7260  -22.0800   21.7700 C   0  0  0  0  0  2  0  0  0  0  0  0
  -29.6170  -22.1650   20.4750 C   0  0  0  0  0  2  0  0  0  0  0  0
  -30.4050  -21.3170   21.5210 C   0  0  0  0  0  3  0  0  0  0  0  0
  -30.6280  -19.8860   21.1880 N   0  0  0  0  0  4  0  0  0  0  0  0
  -31.1890  -19.5010   21.9320 H   0  0  0  0  0  0  0  0  0  0  0  0
  -31.1620  -19.8220   20.3370 H   0  0  0  0  0  0  0  0  0  0  0  0
  -29.4180  -19.0410   21.0680 C   0  0  0  0  0  2  0  0  0  0  0  0
  -29.6460  -17.5640   21.4870 C   0  0  0  0  0  2  0  0  0  0  0  0
  -30.4900  -16.7020   20.5180 C   0  0  0  0  0  2  0  0  0  0  0  0
  -30.8850  -14.2730   20.0800 C   0  0  0  0  0  0  0  0  0  0  0  0
  -30.5160  -12.1060   18.9570 C   0  0  0  0  0  2  0  0  0  0  0  0
  -29.5530  -12.3310   17.7720 C   0  0  0  0  0  2  0  0  0  0  0  0
  -28.0850  -12.2350   18.2320 C   0  0  0  0  0  2  0  0  0  0  0  0
  -27.7970  -13.0920   19.4930 C   0  0  0  0  0  3  0  0  0  0  0  0
  -28.8680  -12.8450   20.5810 C   0  0  0  0  0  2  0  0  0  0  0  0
  -30.1940  -13.1040   19.9890 N   0  0  0  0  0  0  0  0  0  0  0  0
  -31.9670  -14.4690   19.5220 O   0  0  0  0  0  0  0  0  0  0  0  0
  -30.2290  -15.2670   20.6970 N   0  0  0  0  0  0  0  0  0  0  0  0
  -29.3660  -15.0060   21.1500 H   0  0  0  0  0  0  0  0  0  0  0  0
  -25.4290  -13.7700   20.2400 C   0  0  0  0  0  0  0  0  0  0  0  0
  -24.3480  -13.0300   20.6410 C   0  0  0  0  0  0  0  0  0  0  0  0
  -24.7730  -11.6670   20.6180 C   0  0  0  0  0  0  0  0  0  0  0  0
  -26.4460  -12.8580   20.0000 N   0  0  0  0  0  0  0  0  0  0  0  0
  -26.0550  -11.5890   20.2810 N   0  0  0  0  0  0  0  0  0  0  0  0
  -24.0190  -10.4270   20.8420 C   0  0  0  0  0  0  0  0  0  0  0  0
  -24.4290   -9.4790   21.8060 C   0  0  0  0  0  3  0  0  0  0  0  0
  -23.6790   -8.3030   22.0160 C   0  0  0  0  0  3  0  0  0  0  0  0
  -22.5050   -8.0660   21.2620 C   0  0  0  0  0  0  0  0  0  0  0  0
  -22.1140   -9.0020   20.2890 C   0  0  0  0  0  3  0  0  0  0  0  0
  -22.8660  -10.1700   20.0760 C   0  0  0  0  0  3  0  0  0  0  0  0
  -21.7280   -6.9390   21.3800 O   0  0  0  0  0  0  0  0  0  0  0  0
  -21.6320   -6.2490   22.5620 C   0  0  0  0  0  0  0  0  0  0  0  0
  -21.1860   -6.8690   23.7490 C   0  0  0  0  0  3  0  0  0  0  0  0
  -21.0340   -6.1090   24.9270 C   0  0  0  0  0  3  0  0  0  0  0  0
  -21.3200   -4.7300   24.9170 C   0  0  0  0  0  0  0  0  0  0  0  0
  -21.7590   -4.1100   23.7330 C   0  0  0  0  0  3  0  0  0  0  0  0
  -21.9120   -4.8690   22.5600 C   0  0  0  0  0  0  0  0  0  0  0  0
  -22.3150   -4.2630   21.4170 F   0  0  0  0  0  0  0  0  0  0  0  0
  -21.1680   -3.9980   26.0450 F   0  0  0  0  0  0  0  0  0  0  0  0
  -22.9700  -13.5470   20.9400 C   0  0  0  0  0  0  0  0  0  0  0  0
  -22.2490  -12.8830   21.8370 N   0  0  0  0  0  0  0  0  0  0  0  0
  -22.5460  -14.5770   20.4170 O   0  0  0  0  0  0  0  0  0  0  0  0
  -22.6080  -12.0510   22.2790 H   0  0  0  0  0  0  0  0  0  0  0  0
  -21.3260  -13.2090   22.0820 H   0  0  0  0  0  0  0  0  0  0  0  0
  -25.6260  -15.1320   20.0420 N   0  0  0  0  0  0  0  0  0  0  0  0
  -24.8870  -15.8140   20.1710 H   0  0  0  0  0  0  0  0  0  0  0  0
  -26.4820  -15.5370   19.6840 H   0  0  0  0  0  0  0  0  0  0  0  0
  -29.7040  -24.4650   18.2680 C   0  0  0  0  0  1  0  0  0  0  0  0
  -29.8120  -24.7480   19.7730 C   0  0  0  0  0  3  0  0  0  0  0  0
  -28.5210  -25.3780   20.3450 C   0  0  0  0  0  2  0  0  0  0  0  0
  -28.4850  -26.7570   19.9570 O   0  0  0  0  0  0  0  0  0  0  0  0
  -24.5240  -31.7350   23.1450 C   0  0  0  0  0  0  0  0  0  0  0  0
  -27.2750  -27.4110   20.0080 C   0  0  0  0  0  0  0  0  0  0  0  0
  -23.3560  -30.3470   21.4620 C   0  0  0  0  0  3  0  0  0  0  0  0
  -24.8470  -28.8550   20.0270 C   0  0  0  0  0  0  0  0  0  0  0  0
  -25.8720  -30.7550   21.2910 C   0  0  0  0  0  2  0  0  0  0  0  0
  -25.9880  -29.3970   20.6330 C   0  0  0  0  0  0  0  0  0  0  0  0
  -27.2040  -28.6830   20.6170 C   0  0  0  0  0  3  0  0  0  0  0  0
  -26.1190  -26.8770   19.4000 C   0  0  0  0  0  3  0  0  0  0  0  0
  -24.9040  -27.5930   19.4090 C   0  0  0  0  0  3  0  0  0  0  0  0
  -23.5890  -29.6920   20.0730 C   0  0  0  0  0  2  0  0  0  0  0  0
  -24.6020  -30.9600   22.0250 N   0  0  0  0  0  0  0  0  0  0  0  0
  -23.4340  -31.9800   23.6800 O   0  0  0  0  0  0  0  0  0  0  0  0
  -22.7120  -29.2990   22.3970 C   0  0  0  0  0  0  0  0  0  0  0  0
  -21.3920  -29.1040   22.2530 N   0  0  0  0  0  0  0  0  0  0  0  0
  -23.3950  -28.6650   23.2040 O   0  0  0  0  0  0  0  0  0  0  0  0
  -20.9050  -29.6660   21.5690 H   0  0  0  0  0  0  0  0  0  0  0  0
  -18.0280  -27.8620   22.6920 C   0  0  0  0  0  0  0  0  0  0  0  0
  -20.5790  -28.1390   22.9920 C   0  0  0  0  0  3  0  0  0  0  0  0
  -20.7030  -26.7250   22.3810 C   0  0  0  0  0  2  0  0  0  0  0  0
  -19.6120  -26.4160   21.3500 C   0  0  0  0  0  2  0  0  0  0  0  0
  -18.2240  -26.5300   21.9860 C   0  0  0  0  0  2  0  0  0  0  0  0
  -19.1330  -28.6250   23.1490 C   0  0  0  0  0  0  0  0  0  0  0  0
  -18.8970  -29.8730   23.7670 C   0  0  0  0  0  3  0  0  0  0  0  0
  -17.5860  -30.3560   23.9310 C   0  0  0  0  0  3  0  0  0  0  0  0
  -16.4940  -29.5890   23.4900 C   0  0  0  0  0  3  0  0  0  0  0  0
  -16.7150  -28.3440   22.8760 C   0  0  0  0  0  3  0  0  0  0  0  0
  -25.7950  -32.3710   23.7910 C   0  0  0  0  0  3  0  0  0  0  0  0
  -25.4690  -33.7600   24.1330 N   0  0  0  0  0  0  0  0  0  0  0  0
  -25.8080  -34.8260   23.3930 C   0  0  0  0  0  0  0  0  0  0  0  0
  -26.5020  -34.7410   22.3760 O   0  0  0  0  0  0  0  0  0  0  0  0
  -24.8540  -33.8990   24.9220 H   0  0  0  0  0  0  0  0  0  0  0  0
  -24.0760  -36.6090   23.0150 C   0  0  0  0  0  1  0  0  0  0  0  0
  -25.2970  -36.2050   23.8550 C   0  0  0  0  0  3  0  0  0  0  0  0
  -27.4040  -37.0920   24.7530 C   0  0  0  0  0  1  0  0  0  0  0  0
  -26.3250  -37.2660   23.7830 N   0  0  0  0  0  0  0  0  0  0  0  0
  -25.9080  -38.1820   23.9320 H   0  0  0  0  0  0  0  0  0  0  0  0
  -26.3050  -31.5850   25.0610 C   0  0  1  0  0  0  0  0  0  0  0  0
  -25.2020  -31.3160   26.1120 C   0  0  0  0  0  1  0  0  0  0  0  0
  -26.9040  -30.2210   24.6480 C   0  0  0  0  0  1  0  0  0  0  0  0
  -27.4390  -32.3800   25.7480 C   0  0  0  0  0  1  0  0  0  0  0  0
  1  3  1  0
  2 51  1  0
  2  1  1  0
  4  2  1  0
  4  5  1  0
  5  6  1  0
  5  3  1  0
  6  7  1  0
  8  6  1  0
  9  6  1  0
  9 10  1  0
 11 20  1  0
 11 10  1  0
 12 20  1  0
 13 18  1  0
 14 15  1  0
 14 13  1  0
 16 15  1  0
 16 25  1  0
 16 17  1  0
 18 12  1  0
 18 17  1  0
 19 12  2  0
 20 21  1  0
 22 23  2  0
 23 42  1  0
 24 23  1  0
 24 27  1  0
 25 22  1  0
 25 26  1  0
 26 24  2  0
 27 28  1  0
 28 29  2  0
 30 33  1  0
 30 29  1  0
 31 30  2  0
 32 31  1  0
 32 27  2  0
 33 34  1  0
 34 35  1  0
 35 36  2  0
 37 36  1  0
 37 41  1  0
 38 37  2  0
 39 34  2  0
 39 38  1  0
 40 39  1  0
 42 43  1  0
 43 46  1  0
 43 45  1  0
 44 42  2  0
 47 48  1  0
 47 22  1  0
 49 47  1  0
 51 50  1  0
 51 52  1  0
 53 55  1  0
 53 52  1  0
 54 65  2  0
 55 60  1  0
 56 64  1  0
 56 66  1  0
 57 63  1  0
 57 59  1  0
 58 64  1  0
 59 58  1  0
 60 59  2  0
 61 62  1  0
 61 55  2  0
 62 57  2  0
 63 56  1  0
 64 54  1  0
 66 68  2  0
 67 66  1  0
 69 67  1  0
 70 79  2  0
 70 75  1  0
 71 67  1  0
 71 75  1  0
 72 71  1  0
 73 74  1  0
 73 72  1  0
 74 70  1  0
 75 76  2  0
 76 77  1  0
 78 77  2  0
 79 78  1  0
 80 54  1  0
 80 81  1  0
 80 90  1  0
 81 84  1  0
 82 86  1  0
 82 81  1  0
 83 82  2  0
 86 85  1  0
 88 86  1  0
 88 89  1  0
 88 87  1  0
 90 93  1  1
 90 91  1  0
 92 90  1  0
M  ISO  4  12 100  20 100  52 101  53 101
M  END
>  <TORSDO>  (77) 
F 22

>  <SCORE>  (77) 
-12.105

>  <name>  (77) 
76

>  <ligand_id>  (77) 
76

>  <original_smiles>  (77) 
[H]C1=C(C([H])(C([H])([H])[H])C([H])([H])Oc2c([H])c([H])c3c(c2[H])C([H])([H])N(C(=O)C([H])(N([H])C(=O)C([H])(N([H])C([H])([H])[H])C([H])([H])[H])C(C([H])([H])[H])(C([H])([H])[H])C([H])([H])[H])C([H])(C(=O)N([H])C2([H])c4c([H])c([H])c([H])c([H])c4C([H])([H])C([H])([H])C2([H])[H])C3([H])[H])C([H])([H])C([H])([N+]([H])([H])C([H])([H])C([H])([H])C([H])([H])N([H])C(=O)N2C([H])([H])C([H])([H])C([H])([H])C([H])(n3nc(-c4c([H])c([H])c(Oc5c([H])c([H])c(F)c([H])c5F)c([H])c4[H])c(C(=O)N([H])[H])c3N([H])[H])C2([H])[H])C1([H])[H]

>  <smiles>  (77) 
[H]C1=C(C([H])(C([H])([H])[H])C([H])([H])Oc2c([H])c([H])c3c(c2[H])C([H])([H])N(C(=O)C([H])(N([H])C(=O)C([H])(N([H])C([H])([H])[H])C([H])([H])[H])C(C([H])([H])[H])(C([H])([H])[H])C([H])([H])[H])C([H])(C(=O)N([H])C2([H])c4c([H])c([H])c([H])c([H])c4C([H])([H])C([H])([H])C2([H])[H])C3([H])[H])C([H])([H])C([H])([N+]([H])([H])C([H])([H])C([H])([H])C([H])([H])N([H])C(=O)N2C([H])([H])C([H])([H])C([H])([H])C([H])(n3nc(-c4c([H])c([H])c(Oc5c([H])c([H])c(F)c([H])c5F)c([H])c4[H])c(C(=O)N([H])[H])c3N([H])[H])C2([H])[H])C1([H])[H]

$$$$
77:0:0
     RDKit          3D

 98106  0  0  1  0  0  0  0  0999 V2000
  -23.6220  -23.4260   18.3630 C   0  0  0  0  0  3  0  0  0  0  0  0
  -25.6400  -22.7070   19.5110 C   0  0  0  0  0  3  0  0  0  0  0  0
  -24.1520  -24.3190   20.5740 C   0  0  0  0  0  3  0  0  0  0  0  0
  -24.8040  -22.6530   18.3710 C   0  0  0  0  0  0  0  0  0  0  0  0
  -23.2990  -24.2620   19.4530 C   0  0  0  0  0  0  0  0  0  0  0  0
  -25.3370  -23.5530   20.5990 C   0  0  0  0  0  0  0  0  0  0  0  0
  -22.0430  -25.1080   19.4080 C   0  0  0  0  0  1  0  0  0  0  0  0
  -25.1090  -21.7920   17.1840 C   0  0  0  0  0  0  0  0  0  0  0  0
  -24.2510  -21.4800   16.3530 O   0  0  0  0  0  0  0  0  0  0  0  0
  -26.5550  -21.3300   16.9430 C   0  0  0  0  0  2  0  0  0  0  0  0
  -26.6950  -19.8190   16.6630 C   0  0  0  0  0  2  0  0  0  0  0  0
  -26.7250  -18.9170   17.9160 C   0  0  0  0  0  2  0  0  0  0  0  0
  -28.0950  -18.8470   18.6220 C   0  0  0  0  0  2  0  0  0  0  0  0
  -28.1350  -17.7540   19.7050 C   0  0  0  0  0  2  0  0  0  0  0  0
  -29.5440  -17.4830   20.2680 C   0  0  0  0  0  2  0  0  0  0  0  0
  -29.6270  -16.1100   20.9670 C   0  0  0  0  0  2  0  0  0  0  0  0
  -31.0370  -15.7640   21.4850 C   0  0  0  0  0  2  0  0  0  0  0  0
  -31.2370  -14.2630   21.8080 C   0  0  0  0  0  2  0  0  0  0  0  0
  -31.5380  -13.3820   20.5700 C   0  0  0  0  0  0  0  0  0  0  0  0
  -30.8550  -11.6920   18.8950 C   0  0  0  0  0  2  0  0  0  0  0  0
  -29.9280  -12.3230   17.8400 C   0  0  0  0  0  2  0  0  0  0  0  0
  -28.4610  -12.3250   18.3160 C   0  0  0  0  0  2  0  0  0  0  0  0
  -28.3050  -12.8690   19.7610 C   0  0  0  0  0  3  0  0  0  0  0  0
  -29.3160  -12.1780   20.6980 C   0  0  0  0  0  2  0  0  0  0  0  0
  -30.6650  -12.4190   20.1620 N   0  0  0  0  0  0  0  0  0  0  0  0
  -32.5950  -13.5940   19.9670 O   0  0  0  0  0  0  0  0  0  0  0  0
  -26.0010  -13.7080   20.5480 C   0  0  0  0  0  0  0  0  0  0  0  0
  -24.8570  -13.0430   20.8970 C   0  0  0  0  0  0  0  0  0  0  0  0
  -25.1580  -11.6530   20.7700 C   0  0  0  0  0  0  0  0  0  0  0  0
  -26.9340  -12.7270   20.2440 N   0  0  0  0  0  0  0  0  0  0  0  0
  -26.4280  -11.4820   20.4280 N   0  0  0  0  0  0  0  0  0  0  0  0
  -24.2970  -10.4720   20.9050 C   0  0  0  0  0  0  0  0  0  0  0  0
  -24.6240   -9.4150   21.7810 C   0  0  0  0  0  3  0  0  0  0  0  0
  -23.7710   -8.2970   21.9030 C   0  0  0  0  0  3  0  0  0  0  0  0
  -22.5760   -8.2320   21.1500 C   0  0  0  0  0  0  0  0  0  0  0  0
  -22.2650   -9.2780   20.2620 C   0  0  0  0  0  3  0  0  0  0  0  0
  -23.1170  -10.3870   20.1390 C   0  0  0  0  0  3  0  0  0  0  0  0
  -21.6970   -7.1760   21.1890 O   0  0  0  0  0  0  0  0  0  0  0  0
  -21.5440   -6.4050   22.3130 C   0  0  0  0  0  0  0  0  0  0  0  0
  -21.1670   -6.9630   23.5530 C   0  0  0  0  0  3  0  0  0  0  0  0
  -20.9530   -6.1270   24.6670 C   0  0  0  0  0  3  0  0  0  0  0  0
  -21.1040   -4.7330   24.5400 C   0  0  0  0  0  0  0  0  0  0  0  0
  -21.4760   -4.1730   23.3040 C   0  0  0  0  0  3  0  0  0  0  0  0
  -21.6920   -5.0080   22.1940 C   0  0  0  0  0  0  0  0  0  0  0  0
  -22.0280   -4.4630   20.9990 F   0  0  0  0  0  0  0  0  0  0  0  0
  -20.8930   -3.9260   25.6070 F   0  0  0  0  0  0  0  0  0  0  0  0
  -23.5310  -13.6590   21.2390 C   0  0  0  0  0  0  0  0  0  0  0  0
  -22.7520  -13.0030   22.0920 N   0  0  0  0  0  0  0  0  0  0  0  0
  -23.1980  -14.7520   20.7830 O   0  0  0  0  0  0  0  0  0  0  0  0
  -23.0350  -12.1180   22.4850 H   0  0  0  0  0  0  0  0  0  0  0  0
  -21.8580  -13.3920   22.3590 H   0  0  0  0  0  0  0  0  0  0  0  0
  -26.3250  -15.0580   20.4510 N   0  0  0  0  0  0  0  0  0  0  0  0
  -25.6450  -15.7940   20.6110 H   0  0  0  0  0  0  0  0  0  0  0  0
  -27.2270  -15.4080   20.1570 H   0  0  0  0  0  0  0  0  0  0  0  0
  -26.2890  -23.6520   21.7840 C   0  0  0  0  0  2  0  0  0  0  0  0
  -27.7560  -23.9840   21.3930 C   0  0  0  0  0  2  0  0  0  0  0  0
  -28.2890  -25.3790   21.8110 C   0  0  0  0  0  2  0  0  0  0  0  0
  -28.2080  -26.3870   20.7970 O   0  0  0  0  0  0  0  0  0  0  0  0
  -24.4150  -31.8720   23.3420 C   0  0  0  0  0  0  0  0  0  0  0  0
  -27.0530  -27.1280   20.7600 C   0  0  0  0  0  0  0  0  0  0  0  0
  -23.2320  -30.3640   21.7760 C   0  0  0  0  0  3  0  0  0  0  0  0
  -24.6980  -28.6760   20.5480 C   0  0  0  0  0  0  0  0  0  0  0  0
  -25.7720  -30.6390   21.6570 C   0  0  0  0  0  2  0  0  0  0  0  0
  -25.8380  -29.2150   21.1550 C   0  0  0  0  0  0  0  0  0  0  0  0
  -27.0190  -28.4460   21.2700 C   0  0  0  0  0  3  0  0  0  0  0  0
  -25.9070  -26.6090   20.1280 C   0  0  0  0  0  3  0  0  0  0  0  0
  -24.7290  -27.3700   20.0320 C   0  0  0  0  0  3  0  0  0  0  0  0
  -23.4730  -29.5610   20.4690 C   0  0  0  0  0  2  0  0  0  0  0  0
  -24.4890  -30.9810   22.3120 N   0  0  0  0  0  0  0  0  0  0  0  0
  -23.3240  -32.2140   23.8160 O   0  0  0  0  0  0  0  0  0  0  0  0
  -22.5200  -29.4480   22.7920 C   0  0  0  0  0  0  0  0  0  0  0  0
  -21.2100  -29.2410   22.5890 N   0  0  0  0  0  0  0  0  0  0  0  0
  -23.1460  -28.9200   23.7140 O   0  0  0  0  0  0  0  0  0  0  0  0
  -20.7700  -29.7180   21.8150 H   0  0  0  0  0  0  0  0  0  0  0  0
  -17.8170  -28.0550   22.9520 C   0  0  0  0  0  0  0  0  0  0  0  0
  -20.3430  -28.3770   23.3880 C   0  0  0  0  0  3  0  0  0  0  0  0
  -20.5060  -26.8940   22.9850 C   0  0  0  0  0  2  0  0  0  0  0  0
  -19.4900  -26.4410   21.9300 C   0  0  0  0  0  2  0  0  0  0  0  0
  -18.0590  -26.6430   22.4410 C   0  0  0  0  0  2  0  0  0  0  0  0
  -18.8940  -28.8720   23.3830 C   0  0  0  0  0  0  0  0  0  0  0  0
  -18.6260  -30.1880   23.8150 C   0  0  0  0  0  3  0  0  0  0  0  0
  -17.3080  -30.6850   23.8330 C   0  0  0  0  0  3  0  0  0  0  0  0
  -16.2410  -29.8680   23.4210 C   0  0  0  0  0  3  0  0  0  0  0  0
  -16.4960  -28.5550   22.9820 C   0  0  0  0  0  3  0  0  0  0  0  0
  -25.6960  -32.5220   23.9510 C   0  0  0  0  0  3  0  0  0  0  0  0
  -25.4180  -33.9520   24.1420 N   0  0  0  0  0  0  0  0  0  0  0  0
  -25.7910  -34.9210   23.2960 C   0  0  0  0  0  0  0  0  0  0  0  0
  -26.4790  -34.7060   22.2960 O   0  0  0  0  0  0  0  0  0  0  0  0
  -24.8150  -34.1960   24.9130 H   0  0  0  0  0  0  0  0  0  0  0  0
  -24.1040  -36.7050   22.7490 C   0  0  0  0  0  1  0  0  0  0  0  0
  -25.3250  -36.3540   23.6130 C   0  0  0  0  0  3  0  0  0  0  0  0
  -27.4660  -37.2760   24.3850 C   0  0  0  0  0  1  0  0  0  0  0  0
  -26.3760  -37.3750   23.4170 N   0  0  0  0  0  0  0  0  0  0  0  0
  -25.9820  -38.3110   23.4750 H   0  0  0  0  0  0  0  0  0  0  0  0
  -26.1400  -31.8560   25.3110 C   0  0  1  0  0  0  0  0  0  0  0  0
  -24.9980  -31.7290   26.3460 C   0  0  0  0  0  1  0  0  0  0  0  0
  -26.7220  -30.4450   25.0630 C   0  0  0  0  0  1  0  0  0  0  0  0
  -27.2650  -32.6950   25.9620 C   0  0  0  0  0  1  0  0  0  0  0  0
  1  4  2  0
  1  5  1  0
  2  6  2  0
  3  6  1  0
  4  2  1  0
  5  3  2  0
  6 55  1  0
  7  5  1  0
  8  4  1  0
  9  8  2  0
 10  8  1  0
 11 10  1  0
 11 12  1  0
 12 13  1  0
 13 14  1  0
 14 15  1  0
 15 16  1  0
 16 17  1  0
 17 18  1  0
 19 18  1  0
 20 25  1  0
 21 22  1  0
 21 20  1  0
 23 22  1  0
 23 30  1  0
 23 24  1  0
 25 19  1  0
 25 24  1  0
 26 19  2  0
 27 28  2  0
 28 47  1  0
 29 28  1  0
 29 32  1  0
 30 31  1  0
 30 27  1  0
 31 29  2  0
 32 33  1  0
 33 34  2  0
 35 38  1  0
 35 34  1  0
 36 35  2  0
 37 36  1  0
 37 32  2  0
 38 39  1  0
 39 40  1  0
 40 41  2  0
 42 41  1  0
 42 46  1  0
 43 42  2  0
 44 39  2  0
 44 43  1  0
 45 44  1  0
 47 48  1  0
 48 51  1  0
 48 50  1  0
 49 47  2  0
 52 27  1  0
 52 53  1  0
 54 52  1  0
 56 55  1  0
 56 57  1  0
 58 57  1  0
 59 70  2  0
 60 58  1  0
 60 65  1  0
 61 69  1  0
 61 71  1  0
 62 64  1  0
 63 69  1  0
 64 65  2  0
 64 63  1  0
 66 60  2  0
 67 66  1  0
 67 62  2  0
 68 62  1  0
 68 61  1  0
 69 59  1  0
 71 73  2  0
 72 71  1  0
 74 72  1  0
 75 84  2  0
 75 80  1  0
 76 72  1  0
 77 76  1  0
 78 79  1  0
 78 77  1  0
 79 75  1  0
 80 76  1  0
 80 81  2  0
 81 82  1  0
 83 82  2  0
 84 83  1  0
 85 59  1  0
 85 86  1  0
 85 95  1  0
 86 89  1  0
 87 91  1  0
 87 86  1  0
 88 87  2  0
 91 90  1  0
 93 94  1  0
 93 91  1  0
 93 92  1  0
 95 98  1  1
 95 96  1  0
 97 95  1  0
M  ISO  4  18 100  19 100  57 101  58 101
M  END
>  <TORSDO>  (78) 
F 29

>  <SCORE>  (78) 
-9.571

>  <name>  (78) 
77

>  <ligand_id>  (78) 
77

>  <original_smiles>  (78) 
[H]c1c([H])c([H])c2c(c1[H])C([H])([H])C([H])([H])C([H])([H])C2([H])N([H])C(=O)C1([H])N(C(=O)C([H])(N([H])C(=O)C([H])(N([H])C([H])([H])[H])C([H])([H])[H])C(C([H])([H])[H])(C([H])([H])[H])C([H])([H])[H])C([H])([H])c2c([H])c(OC([H])([H])C([H])([H])C([H])([H])c3c([H])c(C(=O)C([H])([H])C([H])([H])C([H])([H])C([H])([H])C([H])([H])C([H])([H])C([H])([H])C([H])([H])C([H])([H])C(=O)N4C([H])([H])C([H])([H])C([H])([H])C([H])(n5nc(-c6c([H])c([H])c(Oc7c([H])c([H])c(F)c([H])c7F)c([H])c6[H])c(C(=O)N([H])[H])c5N([H])[H])C4([H])[H])c([H])c(C([H])([H])[H])c3[H])c([H])c([H])c2C1([H])[H]

>  <smiles>  (78) 
[H]c1c([H])c([H])c2c(c1[H])C([H])([H])C([H])([H])C([H])([H])C2([H])N([H])C(=O)C1([H])N(C(=O)C([H])(N([H])C(=O)C([H])(N([H])C([H])([H])[H])C([H])([H])[H])C(C([H])([H])[H])(C([H])([H])[H])C([H])([H])[H])C([H])([H])c2c([H])c(OC([H])([H])C([H])([H])C([H])([H])c3c([H])c(C(=O)C([H])([H])C([H])([H])C([H])([H])C([H])([H])C([H])([H])C([H])([H])C([H])([H])C([H])([H])C([H])([H])C(=O)N4C([H])([H])C([H])([H])C([H])([H])C([H])(n5nc(-c6c([H])c([H])c(Oc7c([H])c([H])c(F)c([H])c7F)c([H])c6[H])c(C(=O)N([H])[H])c5N([H])[H])C4([H])[H])c([H])c(C([H])([H])[H])c3[H])c([H])c([H])c2C1([H])[H]

$$$$
78:0:0
     RDKit          3D

 95102  0  0  1  0  0  0  0  0999 V2000
  -27.4220  -22.8560   20.7570 N   0  0  0  0  0  4  0  0  0  0  0  0
  -27.1930  -22.0210   20.2450 H   0  0  0  0  0  0  0  0  0  0  0  0
  -28.3700  -23.1000   20.5120 H   0  0  0  0  0  0  0  0  0  0  0  0
  -26.5370  -23.9530   20.2920 C   0  0  0  0  0  3  0  0  0  0  0  0
  -24.0720  -23.2650   20.8460 C   0  0  0  0  0  1  0  0  0  0  0  0
  -25.1750  -23.3910   19.7810 C   0  0  0  0  0  2  0  0  0  0  0  0
  -27.2800  -24.7380   19.1770 C   0  0  0  0  0  2  0  0  0  0  0  0
  -28.0270  -26.0030   19.6550 C   0  0  0  0  0  2  0  0  0  0  0  0
  -27.7710  -27.1340   18.8200 O   0  0  0  0  0  0  0  0  0  0  0  0
  -24.4350  -31.7200   23.0840 C   0  0  0  0  0  0  0  0  0  0  0  0
  -26.6120  -27.8050   19.1010 C   0  0  0  0  0  0  0  0  0  0  0  0
  -23.0030  -30.5130   21.4640 C   0  0  0  0  0  3  0  0  0  0  0  0
  -24.2390  -29.2110   19.6580 C   0  0  0  0  0  0  0  0  0  0  0  0
  -25.4680  -30.9620   20.9500 C   0  0  0  0  0  2  0  0  0  0  0  0
  -25.4640  -29.6870   20.1390 C   0  0  0  0  0  0  0  0  0  0  0  0
  -26.6570  -28.9850   19.8700 C   0  0  0  0  0  3  0  0  0  0  0  0
  -25.3740  -27.3480   18.6040 C   0  0  0  0  0  3  0  0  0  0  0  0
  -24.1840  -28.0350   18.8930 C   0  0  0  0  0  3  0  0  0  0  0  0
  -23.0090  -30.0190   19.9930 C   0  0  0  0  0  2  0  0  0  0  0  0
  -24.3290  -31.0710   21.8900 N   0  0  0  0  0  0  0  0  0  0  0  0
  -23.4450  -31.8960   23.8070 O   0  0  0  0  0  0  0  0  0  0  0  0
  -22.5040  -29.3640   22.3660 C   0  0  0  0  0  0  0  0  0  0  0  0
  -21.1960  -29.0570   22.2810 N   0  0  0  0  0  0  0  0  0  0  0  0
  -23.2850  -28.7450   23.0970 O   0  0  0  0  0  0  0  0  0  0  0  0
  -20.6170  -29.6130   21.6680 H   0  0  0  0  0  0  0  0  0  0  0  0
  -18.0390  -27.3540   22.6280 C   0  0  0  0  0  0  0  0  0  0  0  0
  -20.5150  -27.9940   23.0120 C   0  0  0  0  0  3  0  0  0  0  0  0
  -20.8580  -26.6070   22.4200 C   0  0  0  0  0  2  0  0  0  0  0  0
  -19.8650  -26.1530   21.3460 C   0  0  0  0  0  2  0  0  0  0  0  0
  -18.4470  -26.0700   21.9220 C   0  0  0  0  0  2  0  0  0  0  0  0
  -19.0100  -28.2670   23.1220 C   0  0  0  0  0  0  0  0  0  0  0  0
  -18.5780  -29.4690   23.7250 C   0  0  0  0  0  3  0  0  0  0  0  0
  -17.2070  -29.7590   23.8510 C   0  0  0  0  0  3  0  0  0  0  0  0
  -16.2500  -28.8420   23.3840 C   0  0  0  0  0  3  0  0  0  0  0  0
  -16.6660  -27.6440   22.7760 C   0  0  0  0  0  3  0  0  0  0  0  0
  -25.7970  -32.2980   23.5850 C   0  0  0  0  0  3  0  0  0  0  0  0
  -26.4760  -31.4050   24.6950 C   0  0  1  0  0  0  0  0  0  0  0  0
  -25.5330  -31.0530   25.8680 C   0  0  0  0  0  1  0  0  0  0  0  0
  -26.9900  -30.0780   24.0890 C   0  0  0  0  0  1  0  0  0  0  0  0
  -27.7120  -32.1340   25.2730 C   0  0  0  0  0  1  0  0  0  0  0  0
  -25.5520  -33.6550   24.0850 N   0  0  0  0  0  0  0  0  0  0  0  0
  -25.8360  -34.7770   23.4100 C   0  0  0  0  0  0  0  0  0  0  0  0
  -26.4140  -34.7760   22.3200 O   0  0  0  0  0  0  0  0  0  0  0  0
  -25.0380  -33.7340   24.9520 H   0  0  0  0  0  0  0  0  0  0  0  0
  -24.1420  -36.6310   23.3650 C   0  0  0  0  0  1  0  0  0  0  0  0
  -25.4170  -36.1140   24.0470 C   0  0  0  0  0  3  0  0  0  0  0  0
  -27.6210  -36.8500   24.8380 C   0  0  0  0  0  1  0  0  0  0  0  0
  -26.4720  -37.1510   23.9890 N   0  0  0  0  0  0  0  0  0  0  0  0
  -26.1000  -38.0540   24.2770 H   0  0  0  0  0  0  0  0  0  0  0  0
  -27.4280  -22.5520   22.2040 C   0  0  0  0  0  2  0  0  0  0  0  0
  -28.4440  -21.4350   22.5160 C   0  0  0  0  0  2  0  0  0  0  0  0
  -29.9020  -21.7650   22.1260 C   0  0  0  0  0  2  0  0  0  0  0  0
  -30.8770  -20.5940   22.3610 C   0  0  0  0  0  2  0  0  0  0  0  0
  -30.6220  -19.4240   21.3890 C   0  0  0  0  0  2  0  0  0  0  0  0
  -31.7060  -18.3340   21.3850 C   0  0  0  0  0  2  0  0  0  0  0  0
  -32.0810  -17.9560   19.9450 C   0  0  0  0  0  2  0  0  0  0  0  0
  -33.1090  -16.8230   19.8470 C   0  0  0  0  0  2  0  0  0  0  0  0
  -32.6980  -14.4120   19.3910 C   0  0  0  0  0  0  0  0  0  0  0  0
  -32.1280  -12.0420   19.0550 C   0  0  0  0  0  2  0  0  0  0  0  0
  -31.0860  -11.8890   17.9350 C   0  0  0  0  0  2  0  0  0  0  0  0
  -29.6590  -12.0030   18.4990 C   0  0  0  0  0  2  0  0  0  0  0  0
  -29.4760  -13.2540   19.3990 C   0  0  0  0  0  3  0  0  0  0  0  0
  -30.6280  -13.3950   20.4240 C   0  0  0  0  0  2  0  0  0  0  0  0
  -31.9180  -13.3450   19.7070 N   0  0  0  0  0  0  0  0  0  0  0  0
  -33.5920  -14.3690   18.5410 O   0  0  0  0  0  0  0  0  0  0  0  0
  -32.4860  -15.5230   20.1070 N   0  0  0  0  0  0  0  0  0  0  0  0
  -31.8380  -15.4560   20.8780 H   0  0  0  0  0  0  0  0  0  0  0  0
  -27.4530  -14.3140   20.5890 C   0  0  0  0  0  0  0  0  0  0  0  0
  -26.2560  -13.7920   21.0080 C   0  0  0  0  0  0  0  0  0  0  0  0
  -26.3000  -12.4020   20.6850 C   0  0  0  0  0  0  0  0  0  0  0  0
  -28.1630  -13.2540   20.0470 N   0  0  0  0  0  0  0  0  0  0  0  0
  -27.4750  -12.0880   20.1540 N   0  0  0  0  0  0  0  0  0  0  0  0
  -25.2660  -11.3640   20.7980 C   0  0  0  0  0  0  0  0  0  0  0  0
  -25.5230  -10.1390   21.4520 C   0  0  0  0  0  3  0  0  0  0  0  0
  -24.5110   -9.1620   21.5700 C   0  0  0  0  0  3  0  0  0  0  0  0
  -23.2230   -9.4070   21.0360 C   0  0  0  0  0  0  0  0  0  0  0  0
  -22.9790  -10.6190   20.3630 C   0  0  0  0  0  3  0  0  0  0  0  0
  -23.9910  -11.5870   20.2420 C   0  0  0  0  0  3  0  0  0  0  0  0
  -22.1850   -8.5080   21.0800 O   0  0  0  0  0  0  0  0  0  0  0  0
  -22.0480   -7.6140   22.1130 C   0  0  0  0  0  0  0  0  0  0  0  0
  -21.9610   -8.0360   23.4570 C   0  0  0  0  0  3  0  0  0  0  0  0
  -21.7520   -7.0890   24.4790 C   0  0  0  0  0  3  0  0  0  0  0  0
  -21.6190   -5.7240   24.1610 C   0  0  0  0  0  0  0  0  0  0  0  0
  -21.7010   -5.3030   22.8220 C   0  0  0  0  0  3  0  0  0  0  0  0
  -21.9150   -6.2450   21.8010 C   0  0  0  0  0  0  0  0  0  0  0  0
  -21.9700   -5.8380   20.5100 F   0  0  0  0  0  0  0  0  0  0  0  0
  -21.4110   -4.8150   25.1410 F   0  0  0  0  0  0  0  0  0  0  0  0
  -25.1020  -14.5550   21.5930 C   0  0  0  0  0  0  0  0  0  0  0  0
  -24.3080  -13.9120   22.4440 N   0  0  0  0  0  0  0  0  0  0  0  0
  -24.9260  -15.7420   21.3330 O   0  0  0  0  0  0  0  0  0  0  0  0
  -24.4620  -12.9440   22.6830 H   0  0  0  0  0  0  0  0  0  0  0  0
  -23.5260  -14.3990   22.8580 H   0  0  0  0  0  0  0  0  0  0  0  0
  -27.9860  -15.5980   20.6130 N   0  0  0  0  0  0  0  0  0  0  0  0
  -27.4950  -16.3910   21.0120 H   0  0  0  0  0  0  0  0  0  0  0  0
  -28.9260  -15.8310   20.3180 H   0  0  0  0  0  0  0  0  0  0  0  0
  1 50  1  0
  2  1  1  0
  3  1  1  0
  4  7  1  0
  4  1  1  0
  6  4  1  0
  6  5  1  0
  7  8  1  0
  9 11  1  0
  9  8  1  0
 10 21  2  0
 11 16  1  0
 12 20  1  0
 12 22  1  0
 13 19  1  0
 13 15  1  0
 14 20  1  0
 15 14  1  0
 16 15  2  0
 17 18  1  0
 17 11  2  0
 18 13  2  0
 19 12  1  0
 20 10  1  0
 22 24  2  0
 23 22  1  0
 25 23  1  0
 26 35  2  0
 26 31  1  0
 27 23  1  0
 27 31  1  0
 28 27  1  0
 29 30  1  0
 29 28  1  0
 30 26  1  0
 31 32  2  0
 32 33  1  0
 34 33  2  0
 35 34  1  0
 36 10  1  0
 36 41  1  0
 36 37  1  0
 37 40  1  1
 37 38  1  0
 39 37  1  0
 41 44  1  0
 42 46  1  0
 42 41  1  0
 43 42  2  0
 46 45  1  0
 48 46  1  0
 48 49  1  0
 48 47  1  0
 50 51  1  0
 52 53  1  0
 52 51  1  0
 54 53  1  0
 55 54  1  0
 56 55  1  0
 57 56  1  0
 57 66  1  0
 58 64  1  0
 58 66  1  0
 59 64  1  0
 60 61  1  0
 60 59  1  0
 62 61  1  0
 62 71  1  0
 62 63  1  0
 64 63  1  0
 65 58  2  0
 66 67  1  0
 68 93  1  0
 68 69  2  0
 69 88  1  0
 70 73  1  0
 70 69  1  0
 71 72  1  0
 71 68  1  0
 72 70  2  0
 73 74  1  0
 74 75  2  0
 76 79  1  0
 76 75  1  0
 77 76  2  0
 78 77  1  0
 78 73  2  0
 79 80  1  0
 80 81  1  0
 81 82  2  0
 83 82  1  0
 83 87  1  0
 84 83  2  0
 85 80  2  0
 85 84  1  0
 86 85  1  0
 88 89  1  0
 89 91  1  0
 89 92  1  0
 90 88  2  0
 93 94  1  0
 95 93  1  0
M  ISO  4   8 101   9 101  58 100  66 100
M  END
>  <TORSDO>  (79) 
F 28

>  <SCORE>  (79) 
-7.464

>  <name>  (79) 
78

>  <ligand_id>  (79) 
78

>  <original_smiles>  (79) 
[H]c1c([H])c([H])c2c(c1[H])C([H])([H])C([H])([H])C([H])([H])C2([H])N([H])C(=O)C1([H])N(C(=O)C([H])(N([H])C(=O)C([H])(N([H])C([H])([H])[H])C([H])([H])[H])C(C([H])([H])[H])(C([H])([H])[H])C([H])([H])[H])C([H])([H])c2c([H])c(OC([H])([H])C([H])([H])C([H])(C([H])([H])C([H])([H])[H])[N+]([H])([H])C([H])([H])C([H])([H])C([H])([H])C([H])([H])C([H])([H])C([H])([H])C([H])([H])C([H])([H])N([H])C(=O)N3C([H])([H])C([H])([H])C([H])([H])C([H])(n4nc(-c5c([H])c([H])c(Oc6c([H])c([H])c(F)c([H])c6F)c([H])c5[H])c(C(=O)N([H])[H])c4N([H])[H])C3([H])[H])c([H])c([H])c2C1([H])[H]

>  <smiles>  (79) 
[H]c1c([H])c([H])c2c(c1[H])C([H])([H])C([H])([H])C([H])([H])C2([H])N([H])C(=O)C1([H])N(C(=O)C([H])(N([H])C(=O)C([H])(N([H])C([H])([H])[H])C([H])([H])[H])C(C([H])([H])[H])(C([H])([H])[H])C([H])([H])[H])C([H])([H])c2c([H])c(OC([H])([H])C([H])([H])C([H])(C([H])([H])C([H])([H])[H])[N+]([H])([H])C([H])([H])C([H])([H])C([H])([H])C([H])([H])C([H])([H])C([H])([H])C([H])([H])C([H])([H])N([H])C(=O)N3C([H])([H])C([H])([H])C([H])([H])C([H])(n4nc(-c5c([H])c([H])c(Oc6c([H])c([H])c(F)c([H])c6F)c([H])c5[H])c(C(=O)N([H])[H])c4N([H])[H])C3([H])[H])c([H])c([H])c2C1([H])[H]

$$$$
79:0:0
     RDKit          3D

105112  0  0  1  0  0  0  0  0999 V2000
  -37.0470  -31.8710   19.8460 C   0  0  0  0  0  2  0  0  0  0  0  0
  -36.7760  -30.9600   21.0560 C   0  0  0  0  0  2  0  0  0  0  0  0
  -35.7250  -29.8750   20.7560 C   0  0  0  0  0  2  0  0  0  0  0  0
  -35.1730  -29.1870   22.0110 C   0  0  0  0  0  2  0  0  0  0  0  0
  -33.8480  -28.4760   21.7070 C   0  0  0  0  0  2  0  0  0  0  0  0
  -33.1360  -27.9320   22.9520 C   0  0  0  0  0  2  0  0  0  0  0  0
  -31.6690  -27.6040   22.6410 C   0  0  0  0  0  2  0  0  0  0  0  0
  -30.8800  -27.0700   23.8430 C   0  0  0  0  0  2  0  0  0  0  0  0
  -29.3790  -26.9990   23.5270 C   0  0  0  0  0  2  0  0  0  0  0  0
  -28.5550  -26.2850   24.6090 C   0  0  0  0  0  2  0  0  0  0  0  0
  -27.0330  -26.4470   24.4310 C   0  0  0  0  0  2  0  0  0  0  0  0
  -26.5130  -25.9410   23.0750 C   0  0  0  0  0  2  0  0  0  0  0  0
  -24.9820  -25.8570   23.0040 C   0  0  0  0  0  2  0  0  0  0  0  0
  -24.5040  -25.4540   21.6010 C   0  0  0  0  0  2  0  0  0  0  0  0
  -22.9980  -25.1710   21.5340 C   0  0  0  0  0  2  0  0  0  0  0  0
  -22.5390  -24.8570   20.1020 C   0  0  0  0  0  2  0  0  0  0  0  0
  -21.0760  -24.3750   20.0350 C   0  0  0  0  0  2  0  0  0  0  0  0
  -20.5700  -24.0950   18.6080 C   0  0  0  0  0  0  0  0  0  0  0  0
  -18.7600  -23.2970   17.1230 C   0  0  0  0  0  2  0  0  0  0  0  0
  -17.7000  -24.3920   16.9010 C   0  0  0  0  0  2  0  0  0  0  0  0
  -16.6520  -24.3790   18.0300 C   0  0  0  0  0  2  0  0  0  0  0  0
  -17.2970  -24.3600   19.4410 C   0  0  0  0  0  3  0  0  0  0  0  0
  -18.3860  -23.2680   19.5270 C   0  0  0  0  0  2  0  0  0  0  0  0
  -19.3580  -23.5050   18.4480 N   0  0  0  0  0  0  0  0  0  0  0  0
  -21.2770  -24.4220   17.6480 O   0  0  0  0  0  0  0  0  0  0  0  0
  -15.8510  -25.1110   21.4370 C   0  0  0  0  0  0  0  0  0  0  0  0
  -14.8450  -24.4840   22.1240 C   0  0  0  0  0  0  0  0  0  0  0  0
  -14.7110  -23.1910   21.5340 C   0  0  0  0  0  0  0  0  0  0  0  0
  -16.2860  -24.2000   20.4870 N   0  0  0  0  0  0  0  0  0  0  0  0
  -15.6230  -23.0200   20.5860 N   0  0  0  0  0  0  0  0  0  0  0  0
  -13.7300  -22.1260   21.7770 C   0  0  0  0  0  0  0  0  0  0  0  0
  -14.1320  -20.8120   22.1060 C   0  0  0  0  0  3  0  0  0  0  0  0
  -13.1690  -19.8090   22.3530 C   0  0  0  0  0  3  0  0  0  0  0  0
  -11.7900  -20.1160   22.2770 C   0  0  0  0  0  0  0  0  0  0  0  0
  -11.3950  -21.4190   21.9280 C   0  0  0  0  0  3  0  0  0  0  0  0
  -12.3540  -22.4150   21.6760 C   0  0  0  0  0  3  0  0  0  0  0  0
  -10.7840  -19.2010   22.4760 O   0  0  0  0  0  0  0  0  0  0  0  0
  -10.9470  -18.1220   23.3090 C   0  0  0  0  0  0  0  0  0  0  0  0
  -11.3310  -18.2760   24.6590 C   0  0  0  0  0  3  0  0  0  0  0  0
  -11.4180  -17.1470   25.4970 C   0  0  0  0  0  3  0  0  0  0  0  0
  -11.1140  -15.8680   24.9940 C   0  0  0  0  0  0  0  0  0  0  0  0
  -10.7270  -15.7150   23.6510 C   0  0  0  0  0  3  0  0  0  0  0  0
  -10.6400  -16.8400   22.8120 C   0  0  0  0  0  0  0  0  0  0  0  0
  -10.2460  -16.6890   21.5240 F   0  0  0  0  0  0  0  0  0  0  0  0
  -11.1900  -14.7850   25.8010 F   0  0  0  0  0  0  0  0  0  0  0  0
  -13.9910  -25.0830   23.2040 C   0  0  0  0  0  0  0  0  0  0  0  0
  -13.5370  -24.2670   24.1490 N   0  0  0  0  0  0  0  0  0  0  0  0
  -13.7610  -26.2910   23.2430 O   0  0  0  0  0  0  0  0  0  0  0  0
  -13.7430  -23.2790   24.1300 H   0  0  0  0  0  0  0  0  0  0  0  0
  -12.9770  -24.6360   24.9050 H   0  0  0  0  0  0  0  0  0  0  0  0
  -16.4170  -26.3790   21.5270 N   0  0  0  0  0  0  0  0  0  0  0  0
  -16.0790  -27.0790   22.1800 H   0  0  0  0  0  0  0  0  0  0  0  0
  -17.1500  -26.7240   20.9220 H   0  0  0  0  0  0  0  0  0  0  0  0
  -35.7990  -32.6550   19.3990 C   0  0  0  0  0  2  0  0  0  0  0  0
  -35.6590  -32.7810   17.8700 C   0  0  0  0  0  2  0  0  0  0  0  0
  -34.2090  -33.0330   17.4140 C   0  0  0  0  0  2  0  0  0  0  0  0
  -33.3630  -31.7610   17.1860 C   0  0  0  0  0  2  0  0  0  0  0  0
  -33.2700  -30.8240   18.4010 C   0  0  0  0  0  2  0  0  0  0  0  0
  -32.2790  -29.6970   18.1960 C   0  0  0  0  0  3  0  0  0  0  0  0
  -31.2000  -29.5010   18.9740 C   0  0  0  0  0  3  0  0  0  0  0  0
  -30.1610  -28.4030   18.8260 C   0  0  0  0  0  3  0  0  0  0  0  0
  -30.5090  -27.5010   17.7870 O   0  0  0  0  0  0  0  0  0  0  0  0
  -31.2380  -26.9750   18.0980 H   0  0  0  0  0  0  0  0  0  0  0  0
  -29.9650  -27.6110   20.1420 C   0  0  0  0  0  2  0  0  0  0  0  0
  -28.6870  -26.9770   20.1610 O   0  0  0  0  0  0  0  0  0  0  0  0
  -25.0250  -32.0870   23.5750 C   0  0  0  0  0  0  0  0  0  0  0  0
  -27.5600  -27.7620   20.2800 C   0  0  0  0  0  0  0  0  0  0  0  0
  -23.7730  -30.7870   21.8800 C   0  0  0  0  0  3  0  0  0  0  0  0
  -25.1800  -29.2830   20.3780 C   0  0  0  0  0  0  0  0  0  0  0  0
  -26.2960  -31.1140   21.6690 C   0  0  0  0  0  2  0  0  0  0  0  0
  -26.3470  -29.7690   20.9780 C   0  0  0  0  0  0  0  0  0  0  0  0
  -27.5360  -29.0170   20.9350 C   0  0  0  0  0  3  0  0  0  0  0  0
  -26.3710  -27.2740   19.6990 C   0  0  0  0  0  3  0  0  0  0  0  0
  -25.1840  -28.0300   19.7380 C   0  0  0  0  0  3  0  0  0  0  0  0
  -23.9520  -30.1610   20.4710 C   0  0  0  0  0  2  0  0  0  0  0  0
  -25.0520  -31.3400   22.4360 N   0  0  0  0  0  0  0  0  0  0  0  0
  -23.9560  -32.3610   24.1360 O   0  0  0  0  0  0  0  0  0  0  0  0
  -23.1070  -29.7400   22.8000 C   0  0  0  0  0  0  0  0  0  0  0  0
  -21.7800  -29.5880   22.6640 N   0  0  0  0  0  0  0  0  0  0  0  0
  -23.7800  -29.0690   23.5880 O   0  0  0  0  0  0  0  0  0  0  0  0
  -21.3040  -30.1800   22.0000 H   0  0  0  0  0  0  0  0  0  0  0  0
  -18.4070  -28.3420   22.9990 C   0  0  0  0  0  0  0  0  0  0  0  0
  -20.9430  -28.6360   23.3930 C   0  0  0  0  0  3  0  0  0  0  0  0
  -21.0960  -27.2080   22.8190 C   0  0  0  0  0  2  0  0  0  0  0  0
  -20.0480  -26.8730   21.7540 C   0  0  0  0  0  2  0  0  0  0  0  0
  -18.6350  -26.9970   22.3320 C   0  0  0  0  0  2  0  0  0  0  0  0
  -19.4920  -29.1190   23.4830 C   0  0  0  0  0  0  0  0  0  0  0  0
  -19.2270  -30.3790   24.0620 C   0  0  0  0  0  3  0  0  0  0  0  0
  -17.9090  -30.8630   24.1620 C   0  0  0  0  0  3  0  0  0  0  0  0
  -16.8370  -30.0820   23.6940 C   0  0  0  0  0  3  0  0  0  0  0  0
  -17.0870  -28.8240   23.1200 C   0  0  0  0  0  3  0  0  0  0  0  0
  -26.3330  -32.6530   24.2140 C   0  0  0  0  0  3  0  0  0  0  0  0
  -26.0400  -34.0120   24.6860 N   0  0  0  0  0  0  0  0  0  0  0  0
  -26.3610  -35.1300   24.0210 C   0  0  0  0  0  0  0  0  0  0  0  0
  -27.0040  -35.1230   22.9680 O   0  0  0  0  0  0  0  0  0  0  0  0
  -25.4560  -34.0920   25.5050 H   0  0  0  0  0  0  0  0  0  0  0  0
  -24.6220  -36.9410   23.8940 C   0  0  0  0  0  1  0  0  0  0  0  0
  -25.8910  -36.4690   24.6210 C   0  0  0  0  0  3  0  0  0  0  0  0
  -28.0580  -37.2700   25.4520 C   0  0  0  0  0  1  0  0  0  0  0  0
  -26.9210  -37.5280   24.5720 N   0  0  0  0  0  0  0  0  0  0  0  0
  -26.5240  -38.4300   24.8220 H   0  0  0  0  0  0  0  0  0  0  0  0
  -26.8910  -31.7610   25.3900 C   0  0  1  0  0  0  0  0  0  0  0  0
  -25.8310  -31.4250   26.4670 C   0  0  0  0  0  1  0  0  0  0  0  0
  -27.4510  -30.4280   24.8400 C   0  0  0  0  0  1  0  0  0  0  0  0
  -28.0710  -32.4830   26.0820 C   0  0  0  0  0  1  0  0  0  0  0  0
  1  2  1  0
  3  2  1  0
  3  4  1  0
  5  4  1  0
  5  6  1  0
  7  6  1  0
  7  8  1  0
  9  8  1  0
  9 10  1  0
 11 10  1  0
 12 11  1  0
 13 12  1  0
 14 13  1  0
 15 14  1  0
 16 15  1  0
 17 16  1  0
 18 17  1  0
 19 24  1  0
 20 19  1  0
 20 21  1  0
 22 21  1  0
 22 23  1  0
 22 29  1  0
 24 18  1  0
 24 23  1  0
 25 18  2  0
 26 51  1  0
 26 27  2  0
 27 46  1  0
 28 31  1  0
 28 27  1  0
 29 30  1  0
 29 26  1  0
 30 28  2  0
 31 32  1  0
 32 33  2  0
 34 33  1  0
 34 37  1  0
 35 34  2  0
 36 31  2  0
 36 35  1  0
 37 38  1  0
 38 39  1  0
 39 40  2  0
 41 40  1  0
 41 45  1  0
 42 41  2  0
 43 38  2  0
 43 42  1  0
 44 43  1  0
 46 48  2  0
 46 47  1  0
 47 50  1  0
 49 47  1  0
 51 52  1  0
 53 51  1  0
 54  1  1  0
 55 54  1  0
 56 55  1  0
 57 56  1  0
 57 58  1  0
 59 58  1  0
 59 60  2  0
 61 60  1  0
 61 64  1  0
 62 63  1  0
 62 61  1  0
 64 65  1  0
 65 67  1  0
 66 77  2  0
 67 72  1  0
 68 76  1  0
 68 78  1  0
 69 75  1  0
 69 71  1  0
 70 76  1  0
 71 70  1  0
 72 71  2  0
 73 74  1  0
 73 67  2  0
 74 69  2  0
 75 68  1  0
 76 66  1  0
 78 80  2  0
 79 78  1  0
 81 79  1  0
 82 91  2  0
 82 87  1  0
 83 79  1  0
 83 87  1  0
 84 83  1  0
 85 86  1  0
 85 84  1  0
 86 82  1  0
 87 88  2  0
 88 89  1  0
 90 89  2  0
 91 90  1  0
 92 66  1  0
 92 93  1  0
 92102  1  0
 93 96  1  0
 94 98  1  0
 94 93  1  0
 95 94  2  0
 98 97  1  0
100 98  1  0
100101  1  0
100 99  1  0
102105  1  1
102103  1  0
104102  1  0
M  ISO  4  17 100  18 100  64 101  65 101
M  END
>  <TORSDO>  (80) 
F 41

>  <SCORE>  (80) 
-4.660

>  <name>  (80) 
79

>  <ligand_id>  (80) 
79

>  <original_smiles>  (80) 
[H]OC([H])(C([H])=C([H])C([H])([H])C([H])([H])C([H])([H])C([H])([H])C([H])([H])C([H])([H])C([H])([H])C([H])([H])C([H])([H])C([H])([H])C([H])([H])C([H])([H])C([H])([H])C([H])([H])C([H])([H])C([H])([H])C([H])([H])C([H])([H])C([H])([H])C([H])([H])C([H])([H])C([H])([H])C(=O)N1C([H])([H])C([H])([H])C([H])([H])C([H])(n2nc(-c3c([H])c([H])c(Oc4c([H])c([H])c(F)c([H])c4F)c([H])c3[H])c(C(=O)N([H])[H])c2N([H])[H])C1([H])[H])C([H])([H])Oc1c([H])c([H])c2c(c1[H])C([H])([H])N(C(=O)C([H])(N([H])C(=O)C([H])(N([H])C([H])([H])[H])C([H])([H])[H])C(C([H])([H])[H])(C([H])([H])[H])C([H])([H])[H])C([H])(C(=O)N([H])C1([H])c3c([H])c([H])c([H])c([H])c3C([H])([H])C([H])([H])C1([H])[H])C2([H])[H]

>  <smiles>  (80) 
[H]OC([H])(C([H])=C([H])C([H])([H])C([H])([H])C([H])([H])C([H])([H])C([H])([H])C([H])([H])C([H])([H])C([H])([H])C([H])([H])C([H])([H])C([H])([H])C([H])([H])C([H])([H])C([H])([H])C([H])([H])C([H])([H])C([H])([H])C([H])([H])C([H])([H])C([H])([H])C([H])([H])C([H])([H])C(=O)N1C([H])([H])C([H])([H])C([H])([H])C([H])(n2nc(-c3c([H])c([H])c(Oc4c([H])c([H])c(F)c([H])c4F)c([H])c3[H])c(C(=O)N([H])[H])c2N([H])[H])C1([H])[H])C([H])([H])Oc1c([H])c([H])c2c(c1[H])C([H])([H])N(C(=O)C([H])(N([H])C(=O)C([H])(N([H])C([H])([H])[H])C([H])([H])[H])C(C([H])([H])[H])(C([H])([H])[H])C([H])([H])[H])C([H])(C(=O)N([H])C1([H])c3c([H])c([H])c([H])c([H])c3C([H])([H])C([H])([H])C1([H])[H])C2([H])[H]

$$$$
80:0:0
     RDKit          3D

 96104  0  0  1  0  0  0  0  0999 V2000
  -29.3000  -22.0730   20.1560 C   0  0  0  0  0  3  0  0  0  0  0  0
  -29.3170  -20.6130   19.9540 C   0  0  0  0  0  3  0  0  0  0  0  0
  -27.3850  -22.1430   18.8190 C   0  0  0  0  0  3  0  0  0  0  0  0
  -28.3170  -22.9430   19.5690 C   0  0  0  0  0  0  0  0  0  0  0  0
  -28.3960  -19.8200   19.1540 C   0  0  0  0  0  0  0  0  0  0  0  0
  -27.4100  -20.7060   18.5870 C   0  0  0  0  0  0  0  0  0  0  0  0
  -26.3310  -20.1790   17.6650 C   0  0  0  0  0  1  0  0  0  0  0  0
  -28.6740  -18.1970   18.7960 C   0  0  0  0  0  2  0  0  0  0  0  0
  -26.7920  -16.7980   20.1400 C   0  0  0  0  0  1  0  0  0  0  0  0
  -28.1580  -16.6980   19.4360 C   0  0  0  0  0  3  0  0  0  0  0  0
  -28.0150  -15.2990   18.5240 C   0  0  0  0  0  0  0  0  0  0  0  0
  -27.9430  -13.9330   18.9600 N   0  0  0  0  0  0  0  0  0  0  0  0
  -28.0340  -15.4860   17.3060 O   0  0  0  0  0  0  0  0  0  0  0  0
  -27.9240  -13.8640   19.9720 H   0  0  0  0  0  0  0  0  0  0  0  0
  -28.2120  -12.5160   18.1960 C   0  0  0  0  0  2  0  0  0  0  0  0
  -28.5890  -10.8610   18.7530 C   0  0  0  0  0  2  0  0  0  0  0  0
  -29.8730   -9.7810   19.4060 C   0  0  0  0  0  2  0  0  0  0  0  0
  -30.8140   -9.2210   20.8150 C   0  0  0  0  0  2  0  0  0  0  0  0
  -31.7510  -10.1040   21.9260 C   0  0  0  0  0  0  0  0  0  0  0  0
  -31.8370  -11.5350   20.5830 C   0  0  0  0  0  2  0  0  0  0  0  0
  -30.9460  -12.1930   19.6490 C   0  0  0  0  0  2  0  0  0  0  0  0
  -29.8790  -12.7310   20.5710 C   0  0  0  0  0  2  0  0  0  0  0  0
  -28.9900  -11.9870   21.6480 C   0  0  0  0  0  3  0  0  0  0  0  0
  -29.8000  -11.0390   22.4180 C   0  0  0  0  0  2  0  0  0  0  0  0
  -31.1960  -11.1590   21.9260 N   0  0  0  0  0  0  0  0  0  0  0  0
  -32.9740  -10.1710   22.2410 O   0  0  0  0  0  0  0  0  0  0  0  0
  -26.5520  -12.7410   21.5830 C   0  0  0  0  0  0  0  0  0  0  0  0
  -25.3310  -12.1510   21.6270 C   0  0  0  0  0  0  0  0  0  0  0  0
  -25.5650  -10.7480   21.7110 C   0  0  0  0  0  0  0  0  0  0  0  0
  -27.5080  -11.7490   21.6380 N   0  0  0  0  0  0  0  0  0  0  0  0
  -26.8800  -10.5410   21.8570 N   0  0  0  0  0  0  0  0  0  0  0  0
  -24.5910   -9.6360   21.6610 C   0  0  0  0  0  0  0  0  0  0  0  0
  -24.4780   -8.6980   22.7080 C   0  0  0  0  0  3  0  0  0  0  0  0
  -23.5000   -7.6790   22.6670 C   0  0  0  0  0  3  0  0  0  0  0  0
  -22.6130   -7.5880   21.5700 C   0  0  0  0  0  0  0  0  0  0  0  0
  -22.7470   -8.5050   20.5120 C   0  0  0  0  0  3  0  0  0  0  0  0
  -23.7250   -9.5140   20.5520 C   0  0  0  0  0  3  0  0  0  0  0  0
  -21.6480   -6.6170   21.4300 O   0  0  0  0  0  0  0  0  0  0  0  0
  -20.9380   -6.1420   22.5030 C   0  0  0  0  0  0  0  0  0  0  0  0
  -20.1300   -6.9870   23.2940 C   0  0  0  0  0  3  0  0  0  0  0  0
  -19.3660   -6.4450   24.3470 C   0  0  0  0  0  3  0  0  0  0  0  0
  -19.3970   -5.0620   24.6050 C   0  0  0  0  0  0  0  0  0  0  0  0
  -20.2010   -4.2180   23.8190 C   0  0  0  0  0  3  0  0  0  0  0  0
  -20.9650   -4.7560   22.7670 C   0  0  0  0  0  0  0  0  0  0  0  0
  -21.7180   -3.9340   21.9960 F   0  0  0  0  0  0  0  0  0  0  0  0
  -18.6610   -4.5410   25.6160 F   0  0  0  0  0  0  0  0  0  0  0  0
  -24.0200  -12.8750   21.5460 C   0  0  0  0  0  0  0  0  0  0  0  0
  -22.9980  -12.3600   22.2110 N   0  0  0  0  0  0  0  0  0  0  0  0
  -23.9200  -13.9440   20.9440 O   0  0  0  0  0  0  0  0  0  0  0  0
  -23.0890  -11.4940   22.7210 H   0  0  0  0  0  0  0  0  0  0  0  0
  -22.1050  -12.8330   22.2080 H   0  0  0  0  0  0  0  0  0  0  0  0
  -26.9250  -14.0730   21.5150 N   0  0  0  0  0  0  0  0  0  0  0  0
  -26.2320  -14.8110   21.5750 H   0  0  0  0  0  0  0  0  0  0  0  0
  -27.8690  -14.3960   21.6770 H   0  0  0  0  0  0  0  0  0  0  0  0
  -27.9820  -24.5720   19.5900 C   0  0  0  0  0  2  0  0  0  0  0  0
  -28.6140  -26.0110   19.8340 O   0  0  0  0  0  0  0  0  0  0  0  0
  -24.4770  -31.4770   22.9430 C   0  0  0  0  0  0  0  0  0  0  0  0
  -27.6280  -27.0870   19.8290 C   0  0  0  0  0  0  0  0  0  0  0  0
  -23.5290  -29.9800   21.2600 C   0  0  0  0  0  3  0  0  0  0  0  0
  -25.1880  -28.6660   19.8490 C   0  0  0  0  0  0  0  0  0  0  0  0
  -26.0590  -30.5100   21.2230 C   0  0  0  0  0  2  0  0  0  0  0  0
  -26.3080  -29.1580   20.5310 C   0  0  0  0  0  0  0  0  0  0  0  0
  -27.5360  -28.3670   20.5420 C   0  0  0  0  0  3  0  0  0  0  0  0
  -26.4850  -26.8170   19.0460 C   0  0  0  0  0  3  0  0  0  0  0  0
  -25.2880  -27.5060   19.1100 C   0  0  0  0  0  3  0  0  0  0  0  0
  -23.8740  -29.4140   19.8740 C   0  0  0  0  0  2  0  0  0  0  0  0
  -24.7060  -30.6800   21.8600 N   0  0  0  0  0  0  0  0  0  0  0  0
  -23.3400  -31.6140   23.4210 O   0  0  0  0  0  0  0  0  0  0  0  0
  -22.9640  -28.8520   22.1620 C   0  0  0  0  0  0  0  0  0  0  0  0
  -21.6810  -28.4940   21.9700 N   0  0  0  0  0  0  0  0  0  0  0  0
  -23.6810  -28.3070   23.0050 O   0  0  0  0  0  0  0  0  0  0  0  0
  -21.1490  -28.9950   21.2720 H   0  0  0  0  0  0  0  0  0  0  0  0
  -18.5060  -26.7710   22.2640 C   0  0  0  0  0  0  0  0  0  0  0  0
  -20.9650  -27.4420   22.7000 C   0  0  0  0  0  3  0  0  0  0  0  0
  -21.3320  -26.0380   22.1670 C   0  0  0  0  0  2  0  0  0  0  0  0
  -20.3710  -25.5300   21.0860 C   0  0  0  0  0  2  0  0  0  0  0  0
  -18.9420  -25.4590   21.6300 C   0  0  0  0  0  2  0  0  0  0  0  0
  -19.4550  -27.7070   22.7520 C   0  0  0  0  0  0  0  0  0  0  0  0
  -18.9960  -28.9210   23.3040 C   0  0  0  0  0  3  0  0  0  0  0  0
  -17.6190  -29.2090   23.3680 C   0  0  0  0  0  3  0  0  0  0  0  0
  -16.6830  -28.2730   22.8930 C   0  0  0  0  0  3  0  0  0  0  0  0
  -17.1260  -27.0550   22.3480 C   0  0  0  0  0  3  0  0  0  0  0  0
  -25.6300  -32.2730   23.6190 C   0  0  0  0  0  3  0  0  0  0  0  0
  -25.1510  -33.6480   23.8360 N   0  0  0  0  0  0  0  0  0  0  0  0
  -25.6700  -34.7400   23.2590 C   0  0  0  0  0  0  0  0  0  0  0  0
  -26.6640  -34.7000   22.5300 O   0  0  0  0  0  0  0  0  0  0  0  0
  -24.3060  -33.7490   24.3790 H   0  0  0  0  0  0  0  0  0  0  0  0
  -24.1330  -36.5020   22.3270 C   0  0  0  0  0  1  0  0  0  0  0  0
  -24.9810  -36.0900   23.5400 C   0  0  0  0  0  3  0  0  0  0  0  0
  -26.6120  -36.9780   25.1480 C   0  0  0  0  0  1  0  0  0  0  0  0
  -25.9290  -37.1760   23.8740 N   0  0  0  0  0  0  0  0  0  0  0  0
  -25.4490  -38.0730   23.9080 H   0  0  0  0  0  0  0  0  0  0  0  0
  -26.0980  -31.6330   24.9840 C   0  0  1  0  0  0  0  0  0  0  0  0
  -24.9430  -31.3630   25.9770 C   0  0  0  0  0  1  0  0  0  0  0  0
  -26.8350  -30.2950   24.7500 C   0  0  0  0  0  1  0  0  0  0  0  0
  -27.1090  -32.5770   25.6780 C   0  0  0  0  0  1  0  0  0  0  0  0
  2  1  1  0
  3  4  1  0
  4 55  1  0
  4  1  2  0
  5  2  2  0
  6  3  2  0
  6  5  1  0
  7  6  1  0
  8  5  1  0
  8 10  1  0
 10  9  1  0
 11 12  1  0
 11 10  1  0
 12 14  1  0
 13 11  2  0
 15 16  1  0
 15 12  1  0
 16 17  1  0
 17 18  1  0
 18 19  1  0
 19 25  1  0
 19 26  2  0
 20 25  1  0
 21 22  1  0
 21 20  1  0
 23 22  1  0
 23 24  1  0
 25 24  1  0
 27 28  2  0
 27 30  1  0
 28 29  1  0
 29 31  2  0
 30 23  1  0
 30 31  1  0
 32 29  1  0
 32 33  1  0
 34 33  2  0
 35 34  1  0
 36 37  1  0
 36 35  2  0
 37 32  2  0
 38 35  1  0
 38 39  1  0
 39 44  2  0
 39 40  1  0
 40 41  2  0
 41 42  1  0
 42 46  1  0
 43 42  2  0
 44 43  1  0
 45 44  1  0
 47 28  1  0
 47 48  1  0
 48 50  1  0
 49 47  2  0
 51 48  1  0
 52 53  1  0
 52 27  1  0
 52 54  1  0
 55 56  1  0
 57 68  2  0
 58 56  1  0
 58 63  1  0
 59 67  1  0
 59 69  1  0
 60 66  1  0
 60 62  1  0
 61 67  1  0
 62 63  2  0
 62 61  1  0
 64 65  1  0
 64 58  2  0
 65 60  2  0
 66 59  1  0
 67 57  1  0
 69 71  2  0
 70 69  1  0
 72 70  1  0
 73 82  2  0
 73 78  1  0
 74 70  1  0
 74 78  1  0
 75 74  1  0
 76 77  1  0
 76 75  1  0
 77 73  1  0
 78 79  2  0
 79 80  1  0
 81 80  2  0
 82 81  1  0
 83 57  1  0
 83 84  1  0
 83 93  1  0
 84 87  1  0
 85 89  1  0
 85 84  1  0
 86 85  2  0
 89 88  1  0
 89 91  1  0
 91 92  1  0
 91 90  1  0
 93 96  1  1
 93 94  1  0
 95 93  1  0
M  ISO  4  18 100  19 100  55 101  56 101
M  END
>  <TORSDO>  (81) 
F 24

>  <SCORE>  (81) 
-6.813

>  <name>  (81) 
80

>  <ligand_id>  (81) 
80

>  <original_smiles>  (81) 
[H]c1c([H])c([H])c2c(c1[H])C([H])([H])C([H])([H])C([H])([H])C2([H])N([H])C(=O)C1([H])N(C(=O)C([H])(N([H])C(=O)C([H])(N([H])C([H])([H])[H])C([H])([H])[H])C(C([H])([H])[H])(C([H])([H])[H])C([H])([H])[H])C([H])([H])c2c([H])c(OC([H])([H])c3c([H])c([H])c(C([H])([H])C([H])(C(=O)N([H])C([H])([H])C([H])([H])C([H])([H])C([H])([H])C(=O)N4C([H])([H])C([H])([H])C([H])([H])C([H])(n5nc(-c6c([H])c([H])c(Oc7c([H])c([H])c(F)c([H])c7F)c([H])c6[H])c(C(=O)N([H])[H])c5N([H])[H])C4([H])[H])C([H])([H])[H])c(C([H])([H])[H])c3[H])c([H])c([H])c2C1([H])[H]

>  <smiles>  (81) 
[H]c1c([H])c([H])c2c(c1[H])C([H])([H])C([H])([H])C([H])([H])C2([H])N([H])C(=O)C1([H])N(C(=O)C([H])(N([H])C(=O)C([H])(N([H])C([H])([H])[H])C([H])([H])[H])C(C([H])([H])[H])(C([H])([H])[H])C([H])([H])[H])C([H])([H])c2c([H])c(OC([H])([H])c3c([H])c([H])c(C([H])([H])C([H])(C(=O)N([H])C([H])([H])C([H])([H])C([H])([H])C([H])([H])C(=O)N4C([H])([H])C([H])([H])C([H])([H])C([H])(n5nc(-c6c([H])c([H])c(Oc7c([H])c([H])c(F)c([H])c7F)c([H])c6[H])c(C(=O)N([H])[H])c5N([H])[H])C4([H])[H])C([H])([H])[H])c(C([H])([H])[H])c3[H])c([H])c([H])c2C1([H])[H]

$$$$
81:0:0
     RDKit          3D

100108  0  0  1  0  0  0  0  0999 V2000
  -35.1280  -25.8920   19.8170 C   0  0  0  0  0  3  0  0  0  0  0  0
  -34.0830  -24.9550   19.7100 C   0  0  0  0  0  3  0  0  0  0  0  0
  -34.9930  -27.1680   19.2480 C   0  0  0  0  0  3  0  0  0  0  0  0
  -32.7760  -26.5630   18.4300 C   0  0  0  0  0  3  0  0  0  0  0  0
  -32.8920  -25.2810   19.0190 C   0  0  0  0  0  0  0  0  0  0  0  0
  -33.8090  -27.5190   18.5660 C   0  0  0  0  0  0  0  0  0  0  0  0
  -31.7780  -24.2940   18.8670 C   0  0  0  0  0  0  0  0  0  0  0  0
  -30.9560  -24.3530   17.9480 O   0  0  0  0  0  0  0  0  0  0  0  0
  -31.6390  -23.2060   19.9470 C   0  0  0  0  0  2  0  0  0  0  0  0
  -30.7130  -22.0320   19.5670 C   0  0  0  0  0  2  0  0  0  0  0  0
  -30.7190  -20.9190   20.6330 C   0  0  0  0  0  2  0  0  0  0  0  0
  -30.0080  -19.6390   20.1620 C   0  0  0  0  0  2  0  0  0  0  0  0
  -30.1550  -18.4620   21.1480 C   0  0  0  0  0  2  0  0  0  0  0  0
  -29.7390  -17.1130   20.5270 C   0  0  0  0  0  2  0  0  0  0  0  0
  -29.9870  -15.8770   21.4360 C   0  0  0  0  0  2  0  0  0  0  0  0
  -30.6060  -14.6960   20.6580 C   0  0  0  0  0  0  0  0  0  0  0  0
  -30.3510  -12.5680   19.4390 C   0  0  0  0  0  2  0  0  0  0  0  0
  -29.4250  -12.7930   18.2270 C   0  0  0  0  0  2  0  0  0  0  0  0
  -27.9470  -12.6130   18.6280 C   0  0  0  0  0  2  0  0  0  0  0  0
  -27.5760  -13.4140   19.9060 C   0  0  0  0  0  3  0  0  0  0  0  0
  -28.6200  -13.1720   21.0190 C   0  0  0  0  0  2  0  0  0  0  0  0
  -29.9470  -13.5170   20.4870 N   0  0  0  0  0  0  0  0  0  0  0  0
  -31.7020  -14.9090   20.1300 O   0  0  0  0  0  0  0  0  0  0  0  0
  -25.1460  -13.9560   20.5700 C   0  0  0  0  0  0  0  0  0  0  0  0
  -24.0930  -13.1540   20.9210 C   0  0  0  0  0  0  0  0  0  0  0  0
  -24.5920  -11.8140   20.8980 C   0  0  0  0  0  0  0  0  0  0  0  0
  -26.2200  -13.1030   20.3590 N   0  0  0  0  0  0  0  0  0  0  0  0
  -25.8880  -11.8100   20.6100 N   0  0  0  0  0  0  0  0  0  0  0  0
  -23.8970  -10.5320   21.0780 C   0  0  0  0  0  0  0  0  0  0  0  0
  -24.3460   -9.5730   22.0120 C   0  0  0  0  0  3  0  0  0  0  0  0
  -23.6520   -8.3550   22.1780 C   0  0  0  0  0  3  0  0  0  0  0  0
  -22.4940   -8.0890   21.4100 C   0  0  0  0  0  0  0  0  0  0  0  0
  -22.0630   -9.0370   20.4660 C   0  0  0  0  0  3  0  0  0  0  0  0
  -22.7590  -10.2460   20.2980 C   0  0  0  0  0  3  0  0  0  0  0  0
  -21.7690   -6.9240   21.4880 O   0  0  0  0  0  0  0  0  0  0  0  0
  -21.7340   -6.1720   22.6350 C   0  0  0  0  0  0  0  0  0  0  0  0
  -21.3030   -6.7130   23.8670 C   0  0  0  0  0  3  0  0  0  0  0  0
  -21.2160   -5.8860   25.0060 C   0  0  0  0  0  3  0  0  0  0  0  0
  -21.5490   -4.5210   24.9140 C   0  0  0  0  0  0  0  0  0  0  0  0
  -21.9730   -3.9810   23.6870 C   0  0  0  0  0  3  0  0  0  0  0  0
  -22.0610   -4.8040   22.5500 C   0  0  0  0  0  0  0  0  0  0  0  0
  -22.4510   -4.2730   21.3660 F   0  0  0  0  0  0  0  0  0  0  0  0
  -21.4580   -3.7270   26.0050 F   0  0  0  0  0  0  0  0  0  0  0  0
  -22.6780  -13.5920   21.1710 C   0  0  0  0  0  0  0  0  0  0  0  0
  -21.9550  -12.8770   22.0260 N   0  0  0  0  0  0  0  0  0  0  0  0
  -22.2200  -14.6050   20.6430 O   0  0  0  0  0  0  0  0  0  0  0  0
  -22.3350  -12.0590   22.4770 H   0  0  0  0  0  0  0  0  0  0  0  0
  -21.0070  -13.1520   22.2340 H   0  0  0  0  0  0  0  0  0  0  0  0
  -25.2760  -15.3300   20.3970 N   0  0  0  0  0  0  0  0  0  0  0  0
  -24.4930  -15.9670   20.4950 H   0  0  0  0  0  0  0  0  0  0  0  0
  -26.1280  -15.7910   20.1030 H   0  0  0  0  0  0  0  0  0  0  0  0
  -33.6450  -28.9280   18.0120 C   0  0  0  0  0  2  0  0  0  0  0  0
  -33.9370  -30.0370   19.0460 C   0  0  0  0  0  2  0  0  0  0  0  0
  -32.8130  -30.2410   20.0600 C   0  0  0  0  0  0  0  0  0  0  0  0
  -32.0590  -31.2150   19.9770 O   0  0  0  0  0  0  0  0  0  0  0  0
  -32.6600  -29.2150   21.1860 C   0  0  0  0  0  2  0  0  0  0  0  0
  -31.1960  -28.7910   21.4030 C   0  0  0  0  0  2  0  0  0  0  0  0
  -31.0310  -27.2990   21.7300 C   0  0  0  0  0  2  0  0  0  0  0  0
  -29.5650  -26.8430   21.7700 C   0  0  0  0  0  2  0  0  0  0  0  0
  -28.9550  -26.9260   20.4780 O   0  0  0  0  0  0  0  0  0  0  0  0
  -24.8310  -31.9770   23.3010 C   0  0  0  0  0  0  0  0  0  0  0  0
  -27.7740  -27.6270   20.4270 C   0  0  0  0  0  0  0  0  0  0  0  0
  -23.7370  -30.4910   21.6480 C   0  0  0  0  0  3  0  0  0  0  0  0
  -25.3040  -28.9890   20.3040 C   0  0  0  0  0  0  0  0  0  0  0  0
  -26.2380  -30.9700   21.5150 C   0  0  0  0  0  2  0  0  0  0  0  0
  -26.4040  -29.5900   20.9220 C   0  0  0  0  0  0  0  0  0  0  0  0
  -27.6340  -28.9150   20.9910 C   0  0  0  0  0  3  0  0  0  0  0  0
  -26.6670  -27.0390   19.7840 C   0  0  0  0  0  3  0  0  0  0  0  0
  -25.4260  -27.7080   19.7300 C   0  0  0  0  0  3  0  0  0  0  0  0
  -24.0190  -29.7870   20.2900 C   0  0  0  0  0  2  0  0  0  0  0  0
  -24.9500  -31.1620   22.2150 N   0  0  0  0  0  0  0  0  0  0  0  0
  -23.7230  -32.2120   23.8030 O   0  0  0  0  0  0  0  0  0  0  0  0
  -23.1030  -29.4630   22.6100 C   0  0  0  0  0  0  0  0  0  0  0  0
  -21.7890  -29.2350   22.4580 N   0  0  0  0  0  0  0  0  0  0  0  0
  -23.7890  -28.8730   23.4490 O   0  0  0  0  0  0  0  0  0  0  0  0
  -21.2950  -29.7720   21.7580 H   0  0  0  0  0  0  0  0  0  0  0  0
  -18.4420  -27.9530   22.8960 C   0  0  0  0  0  0  0  0  0  0  0  0
  -20.9840  -28.2820   23.2200 C   0  0  0  0  0  3  0  0  0  0  0  0
  -21.1380  -26.8490   22.6600 C   0  0  0  0  0  2  0  0  0  0  0  0
  -20.0670  -26.4900   21.6250 C   0  0  0  0  0  2  0  0  0  0  0  0
  -18.6690  -26.6020   22.2390 C   0  0  0  0  0  2  0  0  0  0  0  0
  -19.5300  -28.7480   23.3420 C   0  0  0  0  0  0  0  0  0  0  0  0
  -19.2650  -30.0120   23.9140 C   0  0  0  0  0  3  0  0  0  0  0  0
  -17.9440  -30.4800   24.0450 C   0  0  0  0  0  3  0  0  0  0  0  0
  -16.8700  -29.6820   23.6160 C   0  0  0  0  0  3  0  0  0  0  0  0
  -17.1200  -28.4200   23.0470 C   0  0  0  0  0  3  0  0  0  0  0  0
  -26.0670  -32.6740   23.9510 C   0  0  0  0  0  3  0  0  0  0  0  0
  -25.6770  -34.0510   24.2780 N   0  0  0  0  0  0  0  0  0  0  0  0
  -25.9690  -35.1220   23.5250 C   0  0  0  0  0  0  0  0  0  0  0  0
  -26.6650  -35.0550   22.5090 O   0  0  0  0  0  0  0  0  0  0  0  0
  -25.0510  -34.1730   25.0610 H   0  0  0  0  0  0  0  0  0  0  0  0
  -24.1460  -36.8140   23.1500 C   0  0  0  0  0  1  0  0  0  0  0  0
  -25.4020  -36.4820   23.9750 C   0  0  0  0  0  3  0  0  0  0  0  0
  -27.4800  -37.4810   24.8160 C   0  0  0  0  0  1  0  0  0  0  0  0
  -26.3740  -37.5920   23.8670 N   0  0  0  0  0  0  0  0  0  0  0  0
  -25.9190  -38.4880   24.0130 H   0  0  0  0  0  0  0  0  0  0  0  0
  -26.6030  -31.9260   25.2330 C   0  0  1  0  0  0  0  0  0  0  0  0
  -25.5070  -31.6260   26.2810 C   0  0  0  0  0  1  0  0  0  0  0  0
  -27.2600  -30.5820   24.8400 C   0  0  0  0  0  1  0  0  0  0  0  0
  -27.7010  -32.7740   25.9180 C   0  0  0  0  0  1  0  0  0  0  0  0
  2  1  1  0
  3  1  2  0
  4  6  2  0
  4  5  1  0
  5  2  2  0
  6  3  1  0
  7  5  1  0
  7  9  1  0
  8  7  2  0
 10  9  1  0
 10 11  1  0
 12 11  1  0
 12 13  1  0
 14 13  1  0
 14 15  1  0
 16 15  1  0
 17 22  1  0
 18 19  1  0
 18 17  1  0
 20 19  1  0
 20 27  1  0
 20 21  1  0
 22 16  1  0
 22 21  1  0
 23 16  2  0
 24 25  2  0
 25 44  1  0
 26 25  1  0
 26 29  1  0
 27 24  1  0
 27 28  1  0
 28 26  2  0
 29 30  1  0
 30 31  2  0
 32 35  1  0
 32 31  1  0
 33 32  2  0
 34 33  1  0
 34 29  2  0
 35 36  1  0
 36 37  1  0
 37 38  2  0
 39 38  1  0
 39 43  1  0
 40 39  2  0
 41 36  2  0
 41 40  1  0
 42 41  1  0
 44 45  1  0
 45 48  1  0
 45 47  1  0
 46 44  2  0
 49 50  1  0
 49 24  1  0
 51 49  1  0
 52  6  1  0
 52 53  1  0
 53 54  1  0
 54 56  1  0
 55 54  2  0
 56 57  1  0
 57 58  1  0
 58 59  1  0
 60 59  1  0
 61 72  2  0
 62 60  1  0
 62 67  1  0
 63 71  1  0
 63 73  1  0
 64 66  1  0
 65 71  1  0
 66 67  2  0
 66 65  1  0
 68 62  2  0
 69 68  1  0
 69 64  2  0
 70 64  1  0
 70 63  1  0
 71 61  1  0
 73 75  2  0
 74 73  1  0
 76 74  1  0
 77 86  2  0
 77 82  1  0
 78 74  1  0
 78 82  1  0
 79 78  1  0
 80 81  1  0
 80 79  1  0
 81 77  1  0
 82 83  2  0
 83 84  1  0
 85 84  2  0
 86 85  1  0
 87 61  1  0
 87 88  1  0
 87 97  1  0
 88 91  1  0
 89 93  1  0
 89 88  1  0
 90 89  2  0
 93 92  1  0
 95 93  1  0
 95 96  1  0
 95 94  1  0
 97100  1  1
 97 98  1  0
 99 97  1  0
M  ISO  4  15 100  16 100  59 101  60 101
M  END
>  <TORSDO>  (82) 
F 31

>  <SCORE>  (82) 
-10.393

>  <name>  (82) 
81

>  <ligand_id>  (82) 
81

>  <original_smiles>  (82) 
[H]c1c([H])c(C(=O)C([H])([H])C([H])([H])C([H])([H])C([H])([H])C([H])([H])C([H])([H])C([H])([H])C(=O)N2C([H])([H])C([H])([H])C([H])([H])C([H])(n3nc(-c4c([H])c([H])c(Oc5c([H])c([H])c(F)c([H])c5F)c([H])c4[H])c(C(=O)N([H])[H])c3N([H])[H])C2([H])[H])c([H])c(C([H])([H])C([H])([H])C(=O)C([H])([H])C([H])([H])C([H])([H])C([H])([H])Oc2c([H])c([H])c3c(c2[H])C([H])([H])N(C(=O)C([H])(N([H])C(=O)C([H])(N([H])C([H])([H])[H])C([H])([H])[H])C(C([H])([H])[H])(C([H])([H])[H])C([H])([H])[H])C([H])(C(=O)N([H])C2([H])c4c([H])c([H])c([H])c([H])c4C([H])([H])C([H])([H])C2([H])[H])C3([H])[H])c1[H]

>  <smiles>  (82) 
[H]c1c([H])c(C(=O)C([H])([H])C([H])([H])C([H])([H])C([H])([H])C([H])([H])C([H])([H])C([H])([H])C(=O)N2C([H])([H])C([H])([H])C([H])([H])C([H])(n3nc(-c4c([H])c([H])c(Oc5c([H])c([H])c(F)c([H])c5F)c([H])c4[H])c(C(=O)N([H])[H])c3N([H])[H])C2([H])[H])c([H])c(C([H])([H])C([H])([H])C(=O)C([H])([H])C([H])([H])C([H])([H])C([H])([H])Oc2c([H])c([H])c3c(c2[H])C([H])([H])N(C(=O)C([H])(N([H])C(=O)C([H])(N([H])C([H])([H])[H])C([H])([H])[H])C(C([H])([H])[H])(C([H])([H])[H])C([H])([H])[H])C([H])(C(=O)N([H])C2([H])c4c([H])c([H])c([H])c([H])c4C([H])([H])C([H])([H])C2([H])[H])C3([H])[H])c1[H]

$$$$
82:0:0
     RDKit          3D

 95104  0  0  1  0  0  0  0  0999 V2000
  -25.8970  -22.6400   16.8350 C   0  0  0  0  0  3  0  0  0  0  0  0
  -26.6720  -23.8110   16.9650 C   0  0  0  0  0  3  0  0  0  0  0  0
  -26.1100  -21.5460   17.7010 C   0  0  0  0  0  3  0  0  0  0  0  0
  -27.8990  -22.7740   18.8020 C   0  0  0  0  0  3  0  0  0  0  0  0
  -27.6550  -23.8960   17.9740 C   0  0  0  0  0  0  0  0  0  0  0  0
  -27.1220  -21.6030   18.6850 C   0  0  0  0  0  0  0  0  0  0  0  0
  -28.4020  -25.1670   18.1930 C   0  0  0  0  0  0  0  0  0  0  0  0
  -28.7040  -25.9540   17.2870 O   0  0  0  0  0  0  0  0  0  0  0  0
  -28.6640  -25.5210   19.6710 C   0  0  0  0  0  2  0  0  0  0  0  0
  -28.6020  -26.9250   19.9320 O   0  0  0  0  0  0  0  0  0  0  0  0
  -24.6580  -31.8350   23.2320 C   0  0  0  0  0  0  0  0  0  0  0  0
  -27.3720  -27.5470   20.0040 C   0  0  0  0  0  0  0  0  0  0  0  0
  -23.4730  -30.4700   21.5450 C   0  0  0  0  0  3  0  0  0  0  0  0
  -24.9450  -28.9950   20.0870 C   0  0  0  0  0  0  0  0  0  0  0  0
  -25.9910  -30.8730   21.3600 C   0  0  0  0  0  2  0  0  0  0  0  0
  -26.0950  -29.5250   20.6810 C   0  0  0  0  0  0  0  0  0  0  0  0
  -27.3120  -28.8140   20.6270 C   0  0  0  0  0  3  0  0  0  0  0  0
  -26.1830  -27.0070   19.4580 C   0  0  0  0  0  3  0  0  0  0  0  0
  -24.9780  -27.7310   19.4810 C   0  0  0  0  0  3  0  0  0  0  0  0
  -23.6910  -29.8340   20.1490 C   0  0  0  0  0  2  0  0  0  0  0  0
  -24.7250  -31.0710   22.1050 N   0  0  0  0  0  0  0  0  0  0  0  0
  -23.5720  -32.0800   23.7760 O   0  0  0  0  0  0  0  0  0  0  0  0
  -22.8330  -29.4110   22.4720 C   0  0  0  0  0  0  0  0  0  0  0  0
  -21.5080  -29.2330   22.3500 N   0  0  0  0  0  0  0  0  0  0  0  0
  -23.5250  -28.7520   23.2530 O   0  0  0  0  0  0  0  0  0  0  0  0
  -21.0090  -29.8180   21.6940 H   0  0  0  0  0  0  0  0  0  0  0  0
  -18.1360  -28.0370   22.8490 C   0  0  0  0  0  0  0  0  0  0  0  0
  -20.6990  -28.2660   23.0910 C   0  0  0  0  0  3  0  0  0  0  0  0
  -20.7820  -26.8620   22.4500 C   0  0  0  0  0  2  0  0  0  0  0  0
  -19.6610  -26.5910   21.4410 C   0  0  0  0  0  2  0  0  0  0  0  0
  -18.2910  -26.7170   22.1130 C   0  0  0  0  0  2  0  0  0  0  0  0
  -19.2660  -28.7710   23.2940 C   0  0  0  0  0  0  0  0  0  0  0  0
  -19.0690  -30.0100   23.9420 C   0  0  0  0  0  3  0  0  0  0  0  0
  -17.7710  -30.5140   24.1490 C   0  0  0  0  0  3  0  0  0  0  0  0
  -16.6540  -29.7770   23.7190 C   0  0  0  0  0  3  0  0  0  0  0  0
  -16.8370  -28.5400   23.0750 C   0  0  0  0  0  3  0  0  0  0  0  0
  -25.9380  -32.4600   23.8730 C   0  0  0  0  0  3  0  0  0  0  0  0
  -25.6180  -33.8470   24.2320 N   0  0  0  0  0  0  0  0  0  0  0  0
  -25.9640  -34.9200   23.5070 C   0  0  0  0  0  0  0  0  0  0  0  0
  -26.6630  -34.8460   22.4920 O   0  0  0  0  0  0  0  0  0  0  0  0
  -25.0050  -33.9810   25.0230 H   0  0  0  0  0  0  0  0  0  0  0  0
  -24.2520  -36.7220   23.1400 C   0  0  0  0  0  1  0  0  0  0  0  0
  -25.4600  -36.2940   23.9870 C   0  0  0  0  0  3  0  0  0  0  0  0
  -27.5550  -37.1540   24.9340 C   0  0  0  0  0  1  0  0  0  0  0  0
  -26.4960  -37.3510   23.9480 N   0  0  0  0  0  0  0  0  0  0  0  0
  -26.0820  -38.2670   24.1050 H   0  0  0  0  0  0  0  0  0  0  0  0
  -26.4570  -31.6640   25.1320 C   0  0  1  0  0  0  0  0  0  0  0  0
  -25.3620  -31.3950   26.1910 C   0  0  0  0  0  1  0  0  0  0  0  0
  -27.0460  -30.2990   24.7050 C   0  0  0  0  0  1  0  0  0  0  0  0
  -27.6040  -32.4480   25.8140 C   0  0  0  0  0  1  0  0  0  0  0  0
  -27.3440  -20.4560   19.6640 C   0  0  0  0  0  2  0  0  0  0  0  0
  -28.3500  -19.3890   19.1680 C   0  0  0  0  0  2  0  0  0  0  0  0
  -29.2570  -18.3510   21.4060 C   0  0  0  0  0  2  0  0  0  0  0  0
  -29.4120  -16.9110   21.9230 C   0  0  0  0  0  2  0  0  0  0  0  0
  -29.1400  -16.9230   19.4930 C   0  0  0  0  0  2  0  0  0  0  0  0
  -28.4650  -18.1640   20.1070 C   0  0  0  0  0  3  0  0  0  0  0  0
  -29.4340  -15.9760   20.6820 C   0  0  0  0  0  3  0  0  0  0  0  0
  -31.0700  -14.3460   19.5570 C   0  0  0  0  0  0  0  0  0  0  0  0
  -30.5540  -12.2840   18.2690 C   0  0  0  0  0  2  0  0  0  0  0  0
  -29.3980  -12.5260   17.2750 C   0  0  0  0  0  2  0  0  0  0  0  0
  -28.0260  -12.3810   17.9650 C   0  0  0  0  0  2  0  0  0  0  0  0
  -27.9520  -13.1640   19.3000 C   0  0  0  0  0  3  0  0  0  0  0  0
  -29.1680  -12.8150   20.1830 C   0  0  0  0  0  2  0  0  0  0  0  0
  -30.3660  -13.1870   19.4220 N   0  0  0  0  0  0  0  0  0  0  0  0
  -32.0740  -14.5770   18.8730 O   0  0  0  0  0  0  0  0  0  0  0  0
  -30.6970  -15.2030   20.5450 N   0  0  0  0  0  0  0  0  0  0  0  0
  -31.4840  -15.7100   20.9260 H   0  0  0  0  0  0  0  0  0  0  0  0
  -25.8030  -13.8300   20.5510 C   0  0  0  0  0  0  0  0  0  0  0  0
  -24.7730  -13.0780   21.0500 C   0  0  0  0  0  0  0  0  0  0  0  0
  -25.1060  -11.7200   20.7680 C   0  0  0  0  0  0  0  0  0  0  0  0
  -26.7020  -12.9230   20.0080 N   0  0  0  0  0  0  0  0  0  0  0  0
  -26.2960  -11.6430   20.1930 N   0  0  0  0  0  0  0  0  0  0  0  0
  -24.3350  -10.4890   20.9570 C   0  0  0  0  0  0  0  0  0  0  0  0
  -24.7780   -9.4680   21.8270 C   0  0  0  0  0  3  0  0  0  0  0  0
  -24.0100   -8.2970   22.0050 C   0  0  0  0  0  3  0  0  0  0  0  0
  -22.7860   -8.1410   21.3120 C   0  0  0  0  0  0  0  0  0  0  0  0
  -22.3590   -9.1520   20.4320 C   0  0  0  0  0  3  0  0  0  0  0  0
  -23.1280  -10.3140   20.2520 C   0  0  0  0  0  3  0  0  0  0  0  0
  -21.9800   -7.0310   21.4060 O   0  0  0  0  0  0  0  0  0  0  0  0
  -21.8590   -6.3310   22.5810 C   0  0  0  0  0  0  0  0  0  0  0  0
  -21.3910   -6.9380   23.7670 C   0  0  0  0  0  3  0  0  0  0  0  0
  -21.2170   -6.1630   24.9310 C   0  0  0  0  0  3  0  0  0  0  0  0
  -21.4970   -4.7840   24.9090 C   0  0  0  0  0  0  0  0  0  0  0  0
  -21.9600   -4.1780   23.7270 C   0  0  0  0  0  3  0  0  0  0  0  0
  -22.1370   -4.9500   22.5660 C   0  0  0  0  0  0  0  0  0  0  0  0
  -22.5620   -4.3560   21.4240 F   0  0  0  0  0  0  0  0  0  0  0  0
  -21.3220   -4.0390   26.0260 F   0  0  0  0  0  0  0  0  0  0  0  0
  -23.5040  -13.5960   21.6630 C   0  0  0  0  0  0  0  0  0  0  0  0
  -22.9280  -12.8450   22.5970 N   0  0  0  0  0  0  0  0  0  0  0  0
  -23.0420  -14.6920   21.3520 O   0  0  0  0  0  0  0  0  0  0  0  0
  -23.3150  -11.9530   22.8690 H   0  0  0  0  0  0  0  0  0  0  0  0
  -22.0840  -13.1680   23.0500 H   0  0  0  0  0  0  0  0  0  0  0  0
  -26.0340  -15.2000   20.4990 N   0  0  0  0  0  0  0  0  0  0  0  0
  -25.3580  -15.8660   20.8530 H   0  0  0  0  0  0  0  0  0  0  0  0
  -26.8140  -15.6410   20.0320 H   0  0  0  0  0  0  0  0  0  0  0  0
  1  2  2  0
  1  3  1  0
  2  5  1  0
  3  6  2  0
  5  7  1  0
  5  4  2  0
  6  4  1  0
  6 51  1  0
  7  9  1  0
  8  7  2  0
  9 10  1  0
 10 12  1  0
 11 22  2  0
 12 17  1  0
 13 21  1  0
 13 23  1  0
 14 20  1  0
 14 16  1  0
 15 21  1  0
 16 15  1  0
 17 16  2  0
 18 19  1  0
 18 12  2  0
 19 14  2  0
 20 13  1  0
 21 11  1  0
 23 25  2  0
 24 23  1  0
 26 24  1  0
 27 36  2  0
 27 32  1  0
 28 24  1  0
 28 32  1  0
 29 28  1  0
 30 31  1  0
 30 29  1  0
 31 27  1  0
 32 33  2  0
 33 34  1  0
 35 34  2  0
 36 35  1  0
 37 11  1  0
 37 38  1  0
 37 47  1  0
 38 41  1  0
 39 43  1  0
 39 38  1  0
 40 39  2  0
 43 42  1  0
 45 43  1  0
 45 46  1  0
 45 44  1  0
 47 50  1  1
 47 48  1  0
 49 47  1  0
 52 51  1  0
 53 54  1  0
 55 56  1  0
 55 57  1  0
 56 52  1  0
 56 53  1  0
 57 66  1  0
 57 54  1  0
 58 66  1  0
 59 64  1  0
 60 61  1  0
 60 59  1  0
 62 61  1  0
 62 71  1  0
 62 63  1  0
 64 58  1  0
 64 63  1  0
 65 58  2  0
 66 67  1  0
 68 69  2  0
 69 88  1  0
 70 73  1  0
 70 69  1  0
 71 72  1  0
 71 68  1  0
 72 70  2  0
 73 74  1  0
 74 75  2  0
 76 79  1  0
 76 75  1  0
 77 76  2  0
 78 77  1  0
 78 73  2  0
 79 80  1  0
 80 81  1  0
 81 82  2  0
 83 82  1  0
 83 87  1  0
 84 83  2  0
 85 80  2  0
 85 84  1  0
 86 85  1  0
 88 89  1  0
 89 91  1  0
 89 92  1  0
 90 88  2  0
 93 68  1  0
 93 94  1  0
 95 93  1  0
M  ISO  4   9 101  10 101  58 100  66 100
M  END
>  <TORSDO>  (83) 
F 21

>  <SCORE>  (83) 
-9.789

>  <name>  (83) 
82

>  <ligand_id>  (83) 
82

>  <original_smiles>  (83) 
[H]c1c([H])c([H])c2c(c1[H])C([H])([H])C([H])([H])C([H])([H])C2([H])N([H])C(=O)C1([H])N(C(=O)C([H])(N([H])C(=O)C([H])(N([H])C([H])([H])[H])C([H])([H])[H])C(C([H])([H])[H])(C([H])([H])[H])C([H])([H])[H])C([H])([H])c2c([H])c(OC([H])([H])C(=O)c3c([H])c([H])c([H])c(C([H])([H])C([H])([H])C4([H])C([H])([H])C([H])([H])C([H])(N([H])C(=O)N5C([H])([H])C([H])([H])C([H])([H])C([H])(n6nc(-c7c([H])c([H])c(Oc8c([H])c([H])c(F)c([H])c8F)c([H])c7[H])c(C(=O)N([H])[H])c6N([H])[H])C5([H])[H])C4([H])[H])c3[H])c([H])c([H])c2C1([H])[H]

>  <smiles>  (83) 
[H]c1c([H])c([H])c2c(c1[H])C([H])([H])C([H])([H])C([H])([H])C2([H])N([H])C(=O)C1([H])N(C(=O)C([H])(N([H])C(=O)C([H])(N([H])C([H])([H])[H])C([H])([H])[H])C(C([H])([H])[H])(C([H])([H])[H])C([H])([H])[H])C([H])([H])c2c([H])c(OC([H])([H])C(=O)c3c([H])c([H])c([H])c(C([H])([H])C([H])([H])C4([H])C([H])([H])C([H])([H])C([H])(N([H])C(=O)N5C([H])([H])C([H])([H])C([H])([H])C([H])(n6nc(-c7c([H])c([H])c(Oc8c([H])c([H])c(F)c([H])c8F)c([H])c7[H])c(C(=O)N([H])[H])c6N([H])[H])C5([H])[H])C4([H])[H])c3[H])c([H])c([H])c2C1([H])[H]

$$$$
83:0:0
     RDKit          3D

 95102  0  0  1  0  0  0  0  0999 V2000
  -33.0140  -26.5390   22.6480 C   0  0  0  0  0  2  0  0  0  0  0  0
  -32.3920  -25.3150   23.3540 C   0  0  0  0  0  2  0  0  0  0  0  0
  -32.5300  -24.0350   22.5170 C   0  0  0  0  0  2  0  0  0  0  0  0
  -31.8720  -22.8070   23.1640 C   0  0  0  0  0  2  0  0  0  0  0  0
  -31.8410  -21.6220   22.1900 C   0  0  0  0  0  2  0  0  0  0  0  0
  -31.1760  -20.3570   22.7590 C   0  0  0  0  0  2  0  0  0  0  0  0
  -31.2170  -19.2230   21.7210 C   0  0  0  0  0  2  0  0  0  0  0  0
  -30.5980  -17.9570   22.1760 N   0  0  0  0  0  4  0  0  0  0  0  0
  -30.9090  -17.7500   23.1120 H   0  0  0  0  0  0  0  0  0  0  0  0
  -29.5960  -18.0670   22.1950 H   0  0  0  0  0  0  0  0  0  0  0  0
  -30.9690  -16.8310   21.2880 C   0  0  0  0  0  2  0  0  0  0  0  0
  -30.2190  -15.5030   21.5540 C   0  0  0  0  0  2  0  0  0  0  0  0
  -30.7540  -14.3840   20.6370 C   0  0  0  0  0  0  0  0  0  0  0  0
  -30.4120  -12.2740   19.4070 C   0  0  0  0  0  2  0  0  0  0  0  0
  -29.4890  -12.5110   18.1980 C   0  0  0  0  0  2  0  0  0  0  0  0
  -28.0110  -12.3770   18.6120 C   0  0  0  0  0  2  0  0  0  0  0  0
  -27.6680  -13.2040   19.8810 C   0  0  0  0  0  3  0  0  0  0  0  0
  -28.7100  -12.9650   20.9980 C   0  0  0  0  0  2  0  0  0  0  0  0
  -30.0440  -13.2430   20.4480 N   0  0  0  0  0  0  0  0  0  0  0  0
  -31.8200  -14.5830   20.0470 O   0  0  0  0  0  0  0  0  0  0  0  0
  -25.2630  -13.8170   20.5700 C   0  0  0  0  0  0  0  0  0  0  0  0
  -24.1860  -13.0440   20.9170 C   0  0  0  0  0  0  0  0  0  0  0  0
  -24.6400  -11.6910   20.8720 C   0  0  0  0  0  0  0  0  0  0  0  0
  -26.3070  -12.9330   20.3410 N   0  0  0  0  0  0  0  0  0  0  0  0
  -25.9330  -11.6490   20.5770 N   0  0  0  0  0  0  0  0  0  0  0  0
  -23.9060  -10.4300   21.0380 C   0  0  0  0  0  0  0  0  0  0  0  0
  -24.3610   -9.4220   21.9170 C   0  0  0  0  0  3  0  0  0  0  0  0
  -23.6290   -8.2250   22.0750 C   0  0  0  0  0  3  0  0  0  0  0  0
  -22.4270   -8.0280   21.3540 C   0  0  0  0  0  0  0  0  0  0  0  0
  -21.9900   -9.0250   20.4650 C   0  0  0  0  0  3  0  0  0  0  0  0
  -22.7220  -10.2140   20.3050 C   0  0  0  0  0  3  0  0  0  0  0  0
  -21.6640   -6.8870   21.4230 O   0  0  0  0  0  0  0  0  0  0  0  0
  -21.6860   -6.0730   22.5270 C   0  0  0  0  0  0  0  0  0  0  0  0
  -21.4020   -6.5630   23.8200 C   0  0  0  0  0  3  0  0  0  0  0  0
  -21.3660   -5.6790   24.9170 C   0  0  0  0  0  3  0  0  0  0  0  0
  -21.6050   -4.3050   24.7220 C   0  0  0  0  0  0  0  0  0  0  0  0
  -21.8820   -3.8140   23.4340 C   0  0  0  0  0  3  0  0  0  0  0  0
  -21.9200   -4.6960   22.3400 C   0  0  0  0  0  0  0  0  0  0  0  0
  -22.1670   -4.2140   21.0980 F   0  0  0  0  0  0  0  0  0  0  0  0
  -21.5630   -3.4530   25.7730 F   0  0  0  0  0  0  0  0  0  0  0  0
  -22.7890  -13.5260   21.1820 C   0  0  0  0  0  0  0  0  0  0  0  0
  -22.0520  -12.8260   22.0380 N   0  0  0  0  0  0  0  0  0  0  0  0
  -22.3570  -14.5550   20.6660 O   0  0  0  0  0  0  0  0  0  0  0  0
  -22.4120  -11.9940   22.4800 H   0  0  0  0  0  0  0  0  0  0  0  0
  -21.1130  -13.1300   22.2540 H   0  0  0  0  0  0  0  0  0  0  0  0
  -25.4370  -15.1880   20.4110 N   0  0  0  0  0  0  0  0  0  0  0  0
  -24.6730  -15.8470   20.5140 H   0  0  0  0  0  0  0  0  0  0  0  0
  -26.2940  -15.6230   20.0900 H   0  0  0  0  0  0  0  0  0  0  0  0
  -32.2610  -27.8650   22.8920 C   0  0  0  0  0  2  0  0  0  0  0  0
  -31.0110  -29.7070   21.8700 C   0  0  0  0  0  1  0  0  0  0  0  0
  -31.3980  -28.2790   21.7500 N   0  0  2  0  0  4  0  0  0  0  0  0
  -31.9850  -28.2170   20.9290 H   0  0  0  0  0  0  0  0  0  0  0  0
  -30.2170  -27.3910   21.5300 C   0  0  0  0  0  2  0  0  0  0  0  0
  -29.6780  -27.4250   20.0840 C   0  0  0  0  0  2  0  0  0  0  0  0
  -28.4210  -26.7460   19.9920 O   0  0  0  0  0  0  0  0  0  0  0  0
  -24.6080  -31.8700   23.2120 C   0  0  0  0  0  0  0  0  0  0  0  0
  -27.2670  -27.4940   20.0860 C   0  0  0  0  0  0  0  0  0  0  0  0
  -23.3940  -30.4910   21.5500 C   0  0  0  0  0  3  0  0  0  0  0  0
  -24.8470  -28.9560   20.1220 C   0  0  0  0  0  0  0  0  0  0  0  0
  -25.9130  -30.8570   21.3530 C   0  0  0  0  0  2  0  0  0  0  0  0
  -25.9980  -29.4900   20.7130 C   0  0  0  0  0  0  0  0  0  0  0  0
  -27.2040  -28.7660   20.7040 C   0  0  0  0  0  3  0  0  0  0  0  0
  -26.0940  -26.9560   19.5170 C   0  0  0  0  0  3  0  0  0  0  0  0
  -24.8860  -27.6820   19.5270 C   0  0  0  0  0  3  0  0  0  0  0  0
  -23.6040  -29.8150   20.1670 C   0  0  0  0  0  2  0  0  0  0  0  0
  -24.6570  -31.0840   22.1000 N   0  0  0  0  0  0  0  0  0  0  0  0
  -23.5280  -32.1390   23.7570 O   0  0  0  0  0  0  0  0  0  0  0  0
  -22.7370  -29.4650   22.5000 C   0  0  0  0  0  0  0  0  0  0  0  0
  -21.4100  -29.3030   22.3750 N   0  0  0  0  0  0  0  0  0  0  0  0
  -23.4160  -28.8200   23.3030 O   0  0  0  0  0  0  0  0  0  0  0  0
  -20.9240  -29.8750   21.6980 H   0  0  0  0  0  0  0  0  0  0  0  0
  -18.0260  -28.1390   22.8490 C   0  0  0  0  0  0  0  0  0  0  0  0
  -20.5850  -28.3660   23.1340 C   0  0  0  0  0  3  0  0  0  0  0  0
  -20.6740  -26.9400   22.5430 C   0  0  0  0  0  2  0  0  0  0  0  0
  -19.5740  -26.6400   21.5210 C   0  0  0  0  0  2  0  0  0  0  0  0
  -18.1910  -26.7940   22.1610 C   0  0  0  0  0  2  0  0  0  0  0  0
  -19.1510  -28.8830   23.2910 C   0  0  0  0  0  0  0  0  0  0  0  0
  -18.9450  -30.1450   23.8920 C   0  0  0  0  0  3  0  0  0  0  0  0
  -17.6450  -30.6590   24.0590 C   0  0  0  0  0  3  0  0  0  0  0  0
  -16.5340  -29.9100   23.6340 C   0  0  0  0  0  3  0  0  0  0  0  0
  -16.7250  -28.6530   23.0330 C   0  0  0  0  0  3  0  0  0  0  0  0
  -25.9000  -32.4840   23.8400 C   0  0  0  0  0  3  0  0  0  0  0  0
  -25.5890  -33.8640   24.2350 N   0  0  0  0  0  0  0  0  0  0  0  0
  -25.9030  -34.9490   23.5150 C   0  0  0  0  0  0  0  0  0  0  0  0
  -26.5590  -34.8940   22.4710 O   0  0  0  0  0  0  0  0  0  0  0  0
  -25.0090  -33.9800   25.0530 H   0  0  0  0  0  0  0  0  0  0  0  0
  -24.1490  -36.7320   23.2640 C   0  0  0  0  0  1  0  0  0  0  0  0
  -25.4120  -36.3130   24.0350 C   0  0  0  0  0  3  0  0  0  0  0  0
  -27.5600  -37.1790   24.8460 C   0  0  0  0  0  1  0  0  0  0  0  0
  -26.4310  -37.3790   23.9420 N   0  0  0  0  0  0  0  0  0  0  0  0
  -26.0210  -38.2870   24.1430 H   0  0  0  0  0  0  0  0  0  0  0  0
  -26.4460  -31.6570   25.0690 C   0  0  1  0  0  0  0  0  0  0  0  0
  -25.3770  -31.3750   26.1490 C   0  0  0  0  0  1  0  0  0  0  0  0
  -27.0200  -30.2990   24.6010 C   0  0  0  0  0  1  0  0  0  0  0  0
  -27.6120  -32.4210   25.7390 C   0  0  0  0  0  1  0  0  0  0  0  0
  1 49  1  0
  1  2  1  0
  3  4  1  0
  3  2  1  0
  5  6  1  0
  5  4  1  0
  7  8  1  0
  7  6  1  0
  8 10  1  0
  8  9  1  0
 11 12  1  0
 11  8  1  0
 13 12  1  0
 14 19  1  0
 15 16  1  0
 15 14  1  0
 17 16  1  0
 17 24  1  0
 17 18  1  0
 19 13  1  0
 19 18  1  0
 20 13  2  0
 21 22  2  0
 22 41  1  0
 23 22  1  0
 23 26  1  0
 24 21  1  0
 24 25  1  0
 25 23  2  0
 26 27  1  0
 27 28  2  0
 29 32  1  0
 29 28  1  0
 30 29  2  0
 31 30  1  0
 31 26  2  0
 32 33  1  0
 33 34  1  0
 34 35  2  0
 36 35  1  0
 36 40  1  0
 37 36  2  0
 38 33  2  0
 38 37  1  0
 39 38  1  0
 41 42  1  0
 42 45  1  0
 42 44  1  0
 43 41  2  0
 46 47  1  0
 46 21  1  0
 48 46  1  0
 51 50  1  0
 51 49  1  0
 51 52  1  6
 53 51  1  0
 54 53  1  0
 55 54  1  0
 55 57  1  0
 56 67  2  0
 57 62  1  0
 58 66  1  0
 58 68  1  0
 59 65  1  0
 59 61  1  0
 60 66  1  0
 61 60  1  0
 62 61  2  0
 63 64  1  0
 63 57  2  0
 64 59  2  0
 65 58  1  0
 66 56  1  0
 68 70  2  0
 69 68  1  0
 71 69  1  0
 72 81  2  0
 72 77  1  0
 73 69  1  0
 73 77  1  0
 74 73  1  0
 75 76  1  0
 75 74  1  0
 76 72  1  0
 77 78  2  0
 78 79  1  0
 80 79  2  0
 81 80  1  0
 82 56  1  0
 82 83  1  0
 82 92  1  0
 83 86  1  0
 84 88  1  0
 84 83  1  0
 85 84  2  0
 88 87  1  0
 90 88  1  0
 90 91  1  0
 90 89  1  0
 92 95  1  1
 92 93  1  0
 94 92  1  0
M  ISO  4  12 100  13 100  54 101  55 101
M  END
>  <TORSDO>  (84) 
F 29

>  <SCORE>  (84) 
0.180

>  <name>  (84) 
83

>  <ligand_id>  (84) 
83

>  <original_smiles>  (84) 
[H]c1c([H])c([H])c2c(c1[H])C([H])([H])C([H])([H])C([H])([H])C2([H])N([H])C(=O)C1([H])N(C(=O)C([H])(N([H])C(=O)C([H])(N([H])C([H])([H])[H])C([H])([H])[H])C(C([H])([H])[H])(C([H])([H])[H])C([H])([H])[H])C([H])([H])c2c([H])c(OC([H])([H])C([H])([H])[N+]([H])(C([H])([H])[H])C([H])([H])C([H])([H])C([H])([H])C([H])([H])C([H])([H])C([H])([H])C([H])([H])C([H])([H])[N+]([H])([H])C([H])([H])C([H])([H])C(=O)N3C([H])([H])C([H])([H])C([H])([H])C([H])(n4nc(-c5c([H])c([H])c(Oc6c([H])c([H])c(F)c([H])c6F)c([H])c5[H])c(C(=O)N([H])[H])c4N([H])[H])C3([H])[H])c([H])c([H])c2C1([H])[H]

>  <smiles>  (84) 
[H]c1c([H])c([H])c2c(c1[H])C([H])([H])C([H])([H])C([H])([H])C2([H])N([H])C(=O)C1([H])N(C(=O)C([H])(N([H])C(=O)C([H])(N([H])C([H])([H])[H])C([H])([H])[H])C(C([H])([H])[H])(C([H])([H])[H])C([H])([H])[H])C([H])([H])c2c([H])c(OC([H])([H])C([H])([H])[N+]([H])(C([H])([H])[H])C([H])([H])C([H])([H])C([H])([H])C([H])([H])C([H])([H])C([H])([H])C([H])([H])C([H])([H])[N+]([H])([H])C([H])([H])C([H])([H])C(=O)N3C([H])([H])C([H])([H])C([H])([H])C([H])(n4nc(-c5c([H])c([H])c(Oc6c([H])c([H])c(F)c([H])c6F)c([H])c5[H])c(C(=O)N([H])[H])c4N([H])[H])C3([H])[H])c([H])c([H])c2C1([H])[H]

$$$$
84:0:0
     RDKit          3D

 94101  0  0  1  0  0  0  0  0999 V2000
  -26.1190  -23.9620   23.8930 C   0  0  0  0  0  2  0  0  0  0  0  0
  -25.4560  -26.1850   24.6550 C   0  0  0  0  0  1  0  0  0  0  0  0
  -26.5360  -25.3910   24.0170 N   0  0  2  0  0  4  0  0  0  0  0  0
  -27.3050  -25.4190   24.6700 H   0  0  0  0  0  0  0  0  0  0  0  0
  -27.0120  -26.0470   22.7610 C   0  0  0  0  0  3  0  0  0  0  0  0
  -28.4840  -25.7510   22.3600 C   0  0  0  0  0  3  0  0  0  0  0  0
  -29.1100  -26.7030   21.3190 C   0  0  0  0  0  2  0  0  0  0  0  0
  -28.3830  -26.7300   20.0860 O   0  0  0  0  0  0  0  0  0  0  0  0
  -24.6050  -31.8730   23.2130 C   0  0  0  0  0  0  0  0  0  0  0  0
  -27.2480  -27.5060   20.0730 C   0  0  0  0  0  0  0  0  0  0  0  0
  -23.3910  -30.4920   21.5550 C   0  0  0  0  0  3  0  0  0  0  0  0
  -24.8380  -28.9660   20.1110 C   0  0  0  0  0  0  0  0  0  0  0  0
  -25.9070  -30.8650   21.3470 C   0  0  0  0  0  2  0  0  0  0  0  0
  -25.9900  -29.5030   20.6950 C   0  0  0  0  0  0  0  0  0  0  0  0
  -27.1970  -28.7870   20.6670 C   0  0  0  0  0  3  0  0  0  0  0  0
  -26.0860  -26.9790   19.4730 C   0  0  0  0  0  3  0  0  0  0  0  0
  -24.8770  -27.7010   19.4970 C   0  0  0  0  0  3  0  0  0  0  0  0
  -23.5930  -29.8200   20.1690 C   0  0  0  0  0  2  0  0  0  0  0  0
  -24.6540  -31.0870   22.1000 N   0  0  0  0  0  0  0  0  0  0  0  0
  -23.5260  -32.1450   23.7570 O   0  0  0  0  0  0  0  0  0  0  0  0
  -22.7390  -29.4650   22.5050 C   0  0  0  0  0  0  0  0  0  0  0  0
  -21.4110  -29.3040   22.3790 N   0  0  0  0  0  0  0  0  0  0  0  0
  -23.4220  -28.8160   23.3020 O   0  0  0  0  0  0  0  0  0  0  0  0
  -20.9260  -29.8800   21.7060 H   0  0  0  0  0  0  0  0  0  0  0  0
  -18.0250  -28.1380   22.8480 C   0  0  0  0  0  0  0  0  0  0  0  0
  -20.5840  -28.3650   23.1350 C   0  0  0  0  0  3  0  0  0  0  0  0
  -20.6760  -26.9410   22.5440 C   0  0  0  0  0  2  0  0  0  0  0  0
  -19.5750  -26.6410   21.5210 C   0  0  0  0  0  2  0  0  0  0  0  0
  -18.1920  -26.7930   22.1610 C   0  0  0  0  0  2  0  0  0  0  0  0
  -19.1500  -28.8820   23.2910 C   0  0  0  0  0  0  0  0  0  0  0  0
  -18.9450  -30.1420   23.8940 C   0  0  0  0  0  3  0  0  0  0  0  0
  -17.6470  -30.6600   24.0560 C   0  0  0  0  0  3  0  0  0  0  0  0
  -16.5350  -29.9120   23.6320 C   0  0  0  0  0  3  0  0  0  0  0  0
  -16.7250  -28.6520   23.0350 C   0  0  0  0  0  3  0  0  0  0  0  0
  -25.8970  -32.4830   23.8420 C   0  0  0  0  0  3  0  0  0  0  0  0
  -26.4430  -31.6530   25.0690 C   0  0  1  0  0  0  0  0  0  0  0  0
  -25.3730  -31.3580   26.1460 C   0  0  0  0  0  1  0  0  0  0  0  0
  -27.0220  -30.2990   24.5940 C   0  0  0  0  0  1  0  0  0  0  0  0
  -27.6080  -32.4170   25.7410 C   0  0  0  0  0  1  0  0  0  0  0  0
  -25.5860  -33.8630   24.2380 N   0  0  0  0  0  0  0  0  0  0  0  0
  -25.9010  -34.9480   23.5170 C   0  0  0  0  0  0  0  0  0  0  0  0
  -26.5580  -34.8910   22.4730 O   0  0  0  0  0  0  0  0  0  0  0  0
  -24.9980  -33.9810   25.0490 H   0  0  0  0  0  0  0  0  0  0  0  0
  -24.1490  -36.7340   23.2640 C   0  0  0  0  0  1  0  0  0  0  0  0
  -25.4100  -36.3130   24.0350 C   0  0  0  0  0  3  0  0  0  0  0  0
  -27.5580  -37.1820   24.8470 C   0  0  0  0  0  1  0  0  0  0  0  0
  -26.4300  -37.3790   23.9410 N   0  0  0  0  0  0  0  0  0  0  0  0
  -26.0210  -38.2890   24.1360 H   0  0  0  0  0  0  0  0  0  0  0  0
  -27.2240  -23.0460   23.3520 C   0  0  0  0  0  2  0  0  0  0  0  0
  -27.0660  -21.5430   23.6060 C   0  0  0  0  0  2  0  0  0  0  0  0
  -28.3190  -20.8450   23.0630 C   0  0  0  0  0  2  0  0  0  0  0  0
  -28.3920  -19.3330   23.2770 C   0  0  0  0  0  2  0  0  0  0  0  0
  -29.7740  -18.8370   22.8290 C   0  0  0  0  0  2  0  0  0  0  0  0
  -29.9820  -17.3340   22.9990 C   0  0  0  0  0  2  0  0  0  0  0  0
  -31.4020  -16.9280   22.5770 C   0  0  0  0  0  2  0  0  0  0  0  0
  -31.6950  -15.4380   22.7850 C   0  0  0  0  0  2  0  0  0  0  0  0
  -30.8520  -14.2400   20.7730 C   0  0  0  0  0  0  0  0  0  0  0  0
  -30.4070  -12.2790   19.3600 C   0  0  0  0  0  2  0  0  0  0  0  0
  -29.4670  -12.5390   18.1750 C   0  0  0  0  0  2  0  0  0  0  0  0
  -28.0000  -12.3800   18.6070 C   0  0  0  0  0  2  0  0  0  0  0  0
  -27.6680  -13.2020   19.8770 C   0  0  0  0  0  3  0  0  0  0  0  0
  -28.7070  -12.9530   20.9930 C   0  0  0  0  0  2  0  0  0  0  0  0
  -30.0610  -13.1920   20.4550 N   0  0  0  0  0  0  0  0  0  0  0  0
  -31.7460  -14.6810   20.0420 O   0  0  0  0  0  0  0  0  0  0  0  0
  -30.7550  -14.5940   22.0580 N   0  0  0  0  0  0  0  0  0  0  0  0
  -30.0400  -14.1270   22.5970 H   0  0  0  0  0  0  0  0  0  0  0  0
  -25.2620  -13.8170   20.5680 C   0  0  0  0  0  0  0  0  0  0  0  0
  -24.1870  -13.0460   20.9170 C   0  0  0  0  0  0  0  0  0  0  0  0
  -24.6420  -11.6920   20.8740 C   0  0  0  0  0  0  0  0  0  0  0  0
  -26.3070  -12.9340   20.3390 N   0  0  0  0  0  0  0  0  0  0  0  0
  -25.9340  -11.6500   20.5780 N   0  0  0  0  0  0  0  0  0  0  0  0
  -23.9080  -10.4300   21.0410 C   0  0  0  0  0  0  0  0  0  0  0  0
  -24.3630   -9.4210   21.9190 C   0  0  0  0  0  3  0  0  0  0  0  0
  -23.6310   -8.2260   22.0760 C   0  0  0  0  0  3  0  0  0  0  0  0
  -22.4280   -8.0300   21.3550 C   0  0  0  0  0  0  0  0  0  0  0  0
  -21.9920   -9.0270   20.4650 C   0  0  0  0  0  3  0  0  0  0  0  0
  -22.7260  -10.2150   20.3060 C   0  0  0  0  0  3  0  0  0  0  0  0
  -21.6640   -6.8890   21.4250 O   0  0  0  0  0  0  0  0  0  0  0  0
  -21.6850   -6.0750   22.5290 C   0  0  0  0  0  0  0  0  0  0  0  0
  -21.4020   -6.5650   23.8220 C   0  0  0  0  0  3  0  0  0  0  0  0
  -21.3650   -5.6800   24.9180 C   0  0  0  0  0  3  0  0  0  0  0  0
  -21.6040   -4.3060   24.7230 C   0  0  0  0  0  0  0  0  0  0  0  0
  -21.8820   -3.8160   23.4340 C   0  0  0  0  0  3  0  0  0  0  0  0
  -21.9190   -4.6980   22.3400 C   0  0  0  0  0  0  0  0  0  0  0  0
  -22.1660   -4.2170   21.0980 F   0  0  0  0  0  0  0  0  0  0  0  0
  -21.5630   -3.4540   25.7730 F   0  0  0  0  0  0  0  0  0  0  0  0
  -22.7890  -13.5250   21.1830 C   0  0  0  0  0  0  0  0  0  0  0  0
  -22.0530  -12.8240   22.0380 N   0  0  0  0  0  0  0  0  0  0  0  0
  -22.3570  -14.5560   20.6680 O   0  0  0  0  0  0  0  0  0  0  0  0
  -22.4140  -11.9880   22.4750 H   0  0  0  0  0  0  0  0  0  0  0  0
  -21.1140  -13.1270   22.2600 H   0  0  0  0  0  0  0  0  0  0  0  0
  -25.4360  -15.1890   20.4080 N   0  0  0  0  0  0  0  0  0  0  0  0
  -24.6760  -15.8500   20.5250 H   0  0  0  0  0  0  0  0  0  0  0  0
  -26.3020  -15.6260   20.1170 H   0  0  0  0  0  0  0  0  0  0  0  0
  1  3  1  0
  3  2  1  0
  3  4  1  1
  5  3  1  0
  6  5  2  0
  7  6  1  0
  8  7  1  0
  9 20  2  0
 10  8  1  0
 10 15  1  0
 11 19  1  0
 11 21  1  0
 12 18  1  0
 12 14  1  0
 13 19  1  0
 14 13  1  0
 15 14  2  0
 16 17  1  0
 16 10  2  0
 17 12  2  0
 18 11  1  0
 19  9  1  0
 21 23  2  0
 22 21  1  0
 24 22  1  0
 25 34  2  0
 25 30  1  0
 26 22  1  0
 26 30  1  0
 27 26  1  0
 28 29  1  0
 28 27  1  0
 29 25  1  0
 30 31  2  0
 31 32  1  0
 33 32  2  0
 34 33  1  0
 35  9  1  0
 35 40  1  0
 35 36  1  0
 36 39  1  1
 36 37  1  0
 38 36  1  0
 40 43  1  0
 41 45  1  0
 41 40  1  0
 42 41  2  0
 45 44  1  0
 47 45  1  0
 47 48  1  0
 47 46  1  0
 49 50  1  0
 49  1  1  0
 51 52  1  0
 51 50  1  0
 53 54  1  0
 53 52  1  0
 55 56  1  0
 55 54  1  0
 57 65  1  0
 58 63  1  0
 59 60  1  0
 59 58  1  0
 61 60  1  0
 61 70  1  0
 61 62  1  0
 63 57  1  0
 63 62  1  0
 64 57  2  0
 65 66  1  0
 65 56  1  0
 67 68  2  0
 68 87  1  0
 69 68  1  0
 69 72  1  0
 70 67  1  0
 70 71  1  0
 71 69  2  0
 72 73  1  0
 73 74  2  0
 75 78  1  0
 75 74  1  0
 76 75  2  0
 77 76  1  0
 77 72  2  0
 78 79  1  0
 79 80  1  0
 80 81  2  0
 82 81  1  0
 82 86  1  0
 83 82  2  0
 84 79  2  0
 84 83  1  0
 85 84  1  0
 87 88  1  0
 88 91  1  0
 88 90  1  0
 89 87  2  0
 92 93  1  0
 92 67  1  0
 94 92  1  0
M  ISO  4   7 101   8 101  57 100  65 100
M  END
>  <TORSDO>  (85) 
F 28

>  <SCORE>  (85) 
11.218

>  <name>  (85) 
84

>  <ligand_id>  (85) 
84

>  <original_smiles>  (85) 
[H]c1c([H])c([H])c2c(c1[H])C([H])([H])C([H])([H])C([H])([H])C2([H])N([H])C(=O)C1([H])N(C(=O)C([H])(N([H])C(=O)C([H])(N([H])C([H])([H])[H])C([H])([H])[H])C(C([H])([H])[H])(C([H])([H])[H])C([H])([H])[H])C([H])([H])c2c([H])c(OC([H])([H])C([H])([H])C([H])([H])[N+]([H])(C([H])([H])[H])C([H])([H])C([H])([H])C([H])([H])C([H])([H])C([H])([H])C([H])([H])C([H])([H])C([H])([H])C([H])([H])N([H])C(=O)N3C([H])([H])C([H])([H])C([H])([H])C([H])(n4nc(-c5c([H])c([H])c(Oc6c([H])c([H])c(F)c([H])c6F)c([H])c5[H])c(C(=O)N([H])[H])c4N([H])[H])C3([H])[H])c([H])c([H])c2C1([H])[H]

>  <smiles>  (85) 
[H]c1c([H])c([H])c2c(c1[H])C([H])([H])C([H])([H])C([H])([H])C2([H])N([H])C(=O)C1([H])N(C(=O)C([H])(N([H])C(=O)C([H])(N([H])C([H])([H])[H])C([H])([H])[H])C(C([H])([H])[H])(C([H])([H])[H])C([H])([H])[H])C([H])([H])c2c([H])c(OC([H])([H])C([H])([H])C([H])([H])[N+]([H])(C([H])([H])[H])C([H])([H])C([H])([H])C([H])([H])C([H])([H])C([H])([H])C([H])([H])C([H])([H])C([H])([H])C([H])([H])N([H])C(=O)N3C([H])([H])C([H])([H])C([H])([H])C([H])(n4nc(-c5c([H])c([H])c(Oc6c([H])c([H])c(F)c([H])c6F)c([H])c5[H])c(C(=O)N([H])[H])c4N([H])[H])C3([H])[H])c([H])c([H])c2C1([H])[H]

$$$$
85:0:0
     RDKit          3D

 93101  0  0  1  0  0  0  0  0999 V2000
  -25.5850  -24.8720   22.1640 C   0  0  0  0  0  3  0  0  0  0  0  0
  -25.8100  -23.5370   21.8100 C   0  0  0  0  0  3  0  0  0  0  0  0
  -26.5440  -25.8340   21.8550 C   0  0  0  0  0  3  0  0  0  0  0  0
  -27.0080  -23.1210   21.1760 C   0  0  0  0  0  0  0  0  0  0  0  0
  -27.7430  -25.4850   21.1860 C   0  0  0  0  0  0  0  0  0  0  0  0
  -28.0180  -24.1090   20.9060 C   0  0  0  0  0  0  0  0  0  0  0  0
  -30.5560  -23.8850   21.2950 C   0  0  0  0  0  1  0  0  0  0  0  0
  -29.3930  -23.8000   20.2870 C   0  0  0  0  0  2  0  0  0  0  0  0
  -27.0000  -21.6300   20.7690 C   0  0  0  0  0  2  0  0  0  0  0  0
  -28.2400  -20.7470   20.9900 C   0  0  0  0  0  2  0  0  0  0  0  0
  -28.7260  -19.9790   19.7390 C   0  0  0  0  0  2  0  0  0  0  0  0
  -30.0770  -19.3000   19.9970 C   0  0  0  0  0  2  0  0  0  0  0  0
  -30.3840  -18.1260   19.0500 C   0  0  0  0  0  2  0  0  0  0  0  0
  -31.4780  -17.2000   19.6200 C   0  0  0  0  0  2  0  0  0  0  0  0
  -30.9590  -15.8910   20.2900 C   0  0  0  0  0  2  0  0  0  0  0  0
  -31.2900  -14.5920   19.5130 C   0  0  0  0  0  0  0  0  0  0  0  0
  -30.9200  -12.2220   18.9180 C   0  0  0  0  0  2  0  0  0  0  0  0
  -29.9170  -12.0740   17.7580 C   0  0  0  0  0  2  0  0  0  0  0  0
  -28.4790  -12.0000   18.3060 C   0  0  0  0  0  2  0  0  0  0  0  0
  -28.1690  -13.1530   19.2980 C   0  0  0  0  0  3  0  0  0  0  0  0
  -29.2860  -13.2820   20.3600 C   0  0  0  0  0  2  0  0  0  0  0  0
  -30.5750  -13.4440   19.6690 N   0  0  0  0  0  0  0  0  0  0  0  0
  -32.2720  -14.6290   18.7620 O   0  0  0  0  0  0  0  0  0  0  0  0
  -25.9340  -13.9460   20.3120 C   0  0  0  0  0  0  0  0  0  0  0  0
  -24.8330  -13.2650   20.7510 C   0  0  0  0  0  0  0  0  0  0  0  0
  -25.1360  -11.8760   20.5870 C   0  0  0  0  0  0  0  0  0  0  0  0
  -26.8460  -12.9860   19.9080 N   0  0  0  0  0  0  0  0  0  0  0  0
  -26.3750  -11.7330   20.1350 N   0  0  0  0  0  0  0  0  0  0  0  0
  -24.3040  -10.6820   20.7820 C   0  0  0  0  0  0  0  0  0  0  0  0
  -24.7000   -9.6380   21.6450 C   0  0  0  0  0  3  0  0  0  0  0  0
  -23.8740   -8.5090   21.8290 C   0  0  0  0  0  3  0  0  0  0  0  0
  -22.6370   -8.4160   21.1530 C   0  0  0  0  0  0  0  0  0  0  0  0
  -22.2550   -9.4430   20.2730 C   0  0  0  0  0  3  0  0  0  0  0  0
  -23.0830  -10.5660   20.0890 C   0  0  0  0  0  3  0  0  0  0  0  0
  -21.7770   -7.3500   21.2610 O   0  0  0  0  0  0  0  0  0  0  0  0
  -21.6910   -6.6080   22.4140 C   0  0  0  0  0  0  0  0  0  0  0  0
  -21.3580   -7.1930   23.6550 C   0  0  0  0  0  3  0  0  0  0  0  0
  -21.2000   -6.3830   24.7940 C   0  0  0  0  0  3  0  0  0  0  0  0
  -21.3740   -4.9900   24.7040 C   0  0  0  0  0  0  0  0  0  0  0  0
  -21.7050   -4.4040   23.4680 C   0  0  0  0  0  3  0  0  0  0  0  0
  -21.8610   -5.2120   22.3270 C   0  0  0  0  0  0  0  0  0  0  0  0
  -22.1610   -4.6360   21.1400 F   0  0  0  0  0  0  0  0  0  0  0  0
  -21.2110   -4.2160   25.8010 F   0  0  0  0  0  0  0  0  0  0  0  0
  -23.5340  -13.8620   21.2090 C   0  0  0  0  0  0  0  0  0  0  0  0
  -22.8320  -13.2020   22.1230 N   0  0  0  0  0  0  0  0  0  0  0  0
  -23.1510  -14.9530   20.7830 O   0  0  0  0  0  0  0  0  0  0  0  0
  -23.1460  -12.3170   22.4970 H   0  0  0  0  0  0  0  0  0  0  0  0
  -21.9720  -13.5980   22.4770 H   0  0  0  0  0  0  0  0  0  0  0  0
  -26.2240  -15.3050   20.2090 N   0  0  0  0  0  0  0  0  0  0  0  0
  -25.5430  -16.0240   20.4240 H   0  0  0  0  0  0  0  0  0  0  0  0
  -27.0870  -15.6780   19.8330 H   0  0  0  0  0  0  0  0  0  0  0  0
  -28.7540  -26.5770   20.7630 C   0  0  0  0  0  2  0  0  0  0  0  0
  -28.5100  -27.6630   19.8350 O   0  0  0  0  0  0  0  0  0  0  0  0
  -24.8270  -32.2330   23.8370 C   0  0  0  0  0  0  0  0  0  0  0  0
  -27.3570  -28.4060   19.9840 C   0  0  0  0  0  0  0  0  0  0  0  0
  -23.5530  -31.0920   22.0480 C   0  0  0  0  0  3  0  0  0  0  0  0
  -24.9490  -29.8280   20.3250 C   0  0  0  0  0  0  0  0  0  0  0  0
  -26.0550  -31.5270   21.7900 C   0  0  0  0  0  2  0  0  0  0  0  0
  -26.1230  -30.2750   20.9480 C   0  0  0  0  0  0  0  0  0  0  0  0
  -27.3320  -29.5710   20.7760 C   0  0  0  0  0  3  0  0  0  0  0  0
  -26.1840  -27.9810   19.3320 C   0  0  0  0  0  3  0  0  0  0  0  0
  -24.9780  -28.6810   19.5090 C   0  0  0  0  0  3  0  0  0  0  0  0
  -23.6990  -30.6420   20.5650 C   0  0  0  0  0  2  0  0  0  0  0  0
  -24.8330  -31.6210   22.6180 N   0  0  0  0  0  0  0  0  0  0  0  0
  -23.7750  -32.3980   24.4660 O   0  0  0  0  0  0  0  0  0  0  0  0
  -22.9620  -29.9200   22.8620 C   0  0  0  0  0  0  0  0  0  0  0  0
  -21.6650  -29.6500   22.6500 N   0  0  0  0  0  0  0  0  0  0  0  0
  -23.6630  -29.2650   23.6390 O   0  0  0  0  0  0  0  0  0  0  0  0
  -21.1580  -30.2300   21.9940 H   0  0  0  0  0  0  0  0  0  0  0  0
  -18.4360  -28.0340   22.7090 C   0  0  0  0  0  0  0  0  0  0  0  0
  -20.9000  -28.5710   23.2720 C   0  0  0  0  0  3  0  0  0  0  0  0
  -21.2380  -27.2080   22.6260 C   0  0  0  0  0  2  0  0  0  0  0  0
  -20.2960  -26.8310   21.4820 C   0  0  0  0  0  2  0  0  0  0  0  0
  -18.8480  -26.7670   21.9740 C   0  0  0  0  0  2  0  0  0  0  0  0
  -19.4000  -28.8920   23.3000 C   0  0  0  0  0  0  0  0  0  0  0  0
  -18.9630  -30.0730   23.9330 C   0  0  0  0  0  3  0  0  0  0  0  0
  -17.5980  -30.4040   23.9890 C   0  0  0  0  0  3  0  0  0  0  0  0
  -16.6470  -29.5440   23.4120 C   0  0  0  0  0  3  0  0  0  0  0  0
  -17.0660  -28.3630   22.7770 C   0  0  0  0  0  3  0  0  0  0  0  0
  -26.1420  -32.7690   24.4910 C   0  0  0  0  0  3  0  0  0  0  0  0
  -26.6030  -31.9270   25.7400 C   0  0  1  0  0  0  0  0  0  0  0  0
  -25.4740  -31.6710   26.7640 C   0  0  0  0  0  1  0  0  0  0  0  0
  -27.1640  -30.5560   25.2940 C   0  0  0  0  0  1  0  0  0  0  0  0
  -27.7500  -32.6600   26.4710 C   0  0  0  0  0  1  0  0  0  0  0  0
  -25.9030  -34.1670   24.8700 N   0  0  0  0  0  0  0  0  0  0  0  0
  -26.3420  -35.2300   24.1780 C   0  0  0  0  0  0  0  0  0  0  0  0
  -27.0650  -35.1270   23.1810 O   0  0  0  0  0  0  0  0  0  0  0  0
  -25.2790  -34.3210   25.6460 H   0  0  0  0  0  0  0  0  0  0  0  0
  -24.7570  -37.1450   23.7970 C   0  0  0  0  0  1  0  0  0  0  0  0
  -25.9090  -36.6240   24.6690 C   0  0  0  0  0  3  0  0  0  0  0  0
  -28.0440  -37.3130   25.6680 C   0  0  0  0  0  1  0  0  0  0  0  0
  -27.0130  -37.6090   24.6780 N   0  0  0  0  0  0  0  0  0  0  0  0
  -26.6580  -38.5440   24.8610 H   0  0  0  0  0  0  0  0  0  0  0  0
  2  1  2  0
  3  1  1  0
  4  2  1  0
  5  3  2  0
  6  4  2  0
  6  5  1  0
  8  6  1  0
  8  7  1  0
  9 10  1  0
  9  4  1  0
 11 12  1  0
 11 10  1  0
 13 14  1  0
 13 12  1  0
 14 15  1  0
 16 22  1  0
 16 15  1  0
 17 22  1  0
 18 19  1  0
 18 17  1  0
 20 19  1  0
 20 27  1  0
 20 21  1  0
 22 21  1  0
 23 16  2  0
 24 25  2  0
 25 44  1  0
 26 25  1  0
 26 29  1  0
 27 28  1  0
 27 24  1  0
 28 26  2  0
 29 30  1  0
 30 31  2  0
 32 35  1  0
 32 31  1  0
 33 32  2  0
 34 33  1  0
 34 29  2  0
 35 36  1  0
 36 37  1  0
 37 38  2  0
 39 38  1  0
 39 43  1  0
 40 39  2  0
 41 36  2  0
 41 40  1  0
 42 41  1  0
 44 45  1  0
 45 48  1  0
 45 47  1  0
 46 44  2  0
 49 24  1  0
 49 50  1  0
 51 49  1  0
 52  5  1  0
 53 55  1  0
 53 52  1  0
 54 65  2  0
 55 60  1  0
 56 64  1  0
 56 66  1  0
 57 63  1  0
 57 59  1  0
 58 64  1  0
 59 58  1  0
 60 59  2  0
 61 62  1  0
 61 55  2  0
 62 57  2  0
 63 56  1  0
 64 54  1  0
 66 68  2  0
 67 66  1  0
 69 67  1  0
 70 79  2  0
 70 75  1  0
 71 67  1  0
 71 75  1  0
 72 71  1  0
 73 74  1  0
 73 72  1  0
 74 70  1  0
 75 76  2  0
 76 77  1  0
 78 77  2  0
 79 78  1  0
 80 54  1  0
 80 85  1  0
 80 81  1  0
 81 84  1  1
 81 82  1  0
 83 81  1  0
 85 88  1  0
 86 90  1  0
 86 85  1  0
 87 86  2  0
 90 89  1  0
 90 92  1  0
 92 93  1  0
 92 91  1  0
M  ISO  4  15 100  16 100  52 101  53 101
M  END
>  <TORSDO>  (86) 
F 25

>  <SCORE>  (86) 
-10.161

>  <name>  (86) 
85

>  <ligand_id>  (86) 
85

>  <original_smiles>  (86) 
[H]c1c([H])c([H])c2c(c1[H])C([H])([H])C([H])([H])C([H])([H])C2([H])N([H])C(=O)C1([H])N(C(=O)C([H])(N([H])C(=O)C([H])(N([H])C([H])([H])[H])C([H])([H])[H])C(C([H])([H])[H])(C([H])([H])[H])C([H])([H])[H])C([H])([H])c2c([H])c(OC([H])([H])c3c([H])c([H])c([H])c(C([H])([H])C([H])([H])C([H])([H])C([H])([H])C([H])([H])C([H])([H])C([H])([H])C(=O)N4C([H])([H])C([H])([H])C([H])([H])C([H])(n5nc(-c6c([H])c([H])c(Oc7c([H])c([H])c(F)c([H])c7F)c([H])c6[H])c(C(=O)N([H])[H])c5N([H])[H])C4([H])[H])c3C([H])([H])C([H])([H])[H])c([H])c([H])c2C1([H])[H]

>  <smiles>  (86) 
[H]c1c([H])c([H])c2c(c1[H])C([H])([H])C([H])([H])C([H])([H])C2([H])N([H])C(=O)C1([H])N(C(=O)C([H])(N([H])C(=O)C([H])(N([H])C([H])([H])[H])C([H])([H])[H])C(C([H])([H])[H])(C([H])([H])[H])C([H])([H])[H])C([H])([H])c2c([H])c(OC([H])([H])c3c([H])c([H])c([H])c(C([H])([H])C([H])([H])C([H])([H])C([H])([H])C([H])([H])C([H])([H])C([H])([H])C(=O)N4C([H])([H])C([H])([H])C([H])([H])C([H])(n5nc(-c6c([H])c([H])c(Oc7c([H])c([H])c(F)c([H])c7F)c([H])c6[H])c(C(=O)N([H])[H])c5N([H])[H])C4([H])[H])c3C([H])([H])C([H])([H])[H])c([H])c([H])c2C1([H])[H]

$$$$
86:0:0
     RDKit          3D

 95104  0  0  1  0  0  0  0  0999 V2000
  -29.9880  -23.3040   17.9620 C   0  0  0  0  0  3  0  0  0  0  0  0
  -32.1190  -23.5180   19.1230 C   0  0  0  0  0  3  0  0  0  0  0  0
  -29.8530  -24.7050   17.9550 C   0  0  0  0  0  3  0  0  0  0  0  0
  -31.9870  -24.9230   19.1120 C   0  0  0  0  0  3  0  0  0  0  0  0
  -31.1360  -22.7030   18.5240 C   0  0  0  0  0  0  0  0  0  0  0  0
  -30.8610  -25.5230   18.5080 C   0  0  0  0  0  0  0  0  0  0  0  0
  -31.3430  -21.2020   18.3950 C   0  0  0  0  0  2  0  0  0  0  0  0
  -31.2970  -20.3970   19.7180 C   0  0  0  0  0  2  0  0  0  0  0  0
  -29.0920  -19.0510   19.8200 C   0  0  0  0  0  2  0  0  0  0  0  0
  -28.7060  -17.6070   20.1840 C   0  0  0  0  0  2  0  0  0  0  0  0
  -31.1060  -17.8170   20.3210 C   0  0  0  0  0  2  0  0  0  0  0  0
  -30.5980  -19.0280   19.5170 C   0  0  0  0  0  3  0  0  0  0  0  0
  -29.9930  -16.7850   20.0310 C   0  0  0  0  0  3  0  0  0  0  0  0
  -30.6940  -14.4740   20.4740 C   0  0  0  0  0  0  0  0  0  0  0  0
  -30.3490  -12.3170   19.3540 C   0  0  0  0  0  2  0  0  0  0  0  0
  -29.4310  -12.5730   18.1400 C   0  0  0  0  0  2  0  0  0  0  0  0
  -27.9520  -12.4450   18.5510 C   0  0  0  0  0  2  0  0  0  0  0  0
  -27.6110  -13.2690   19.8240 C   0  0  0  0  0  3  0  0  0  0  0  0
  -28.6610  -13.0460   20.9420 C   0  0  0  0  0  2  0  0  0  0  0  0
  -29.9990  -13.3050   20.3860 N   0  0  0  0  0  0  0  0  0  0  0  0
  -31.8290  -14.6190   20.0190 O   0  0  0  0  0  0  0  0  0  0  0  0
  -29.9630  -15.5440   20.8200 N   0  0  0  0  0  0  0  0  0  0  0  0
  -29.0760  -15.3240   21.2440 H   0  0  0  0  0  0  0  0  0  0  0  0
  -25.2030  -13.8860   20.4990 C   0  0  0  0  0  0  0  0  0  0  0  0
  -24.1290  -13.1170   20.8620 C   0  0  0  0  0  0  0  0  0  0  0  0
  -24.5880  -11.7650   20.8470 C   0  0  0  0  0  0  0  0  0  0  0  0
  -26.2500  -13.0000   20.2900 N   0  0  0  0  0  0  0  0  0  0  0  0
  -25.8820  -11.7190   20.5520 N   0  0  0  0  0  0  0  0  0  0  0  0
  -23.8540  -10.5060   21.0380 C   0  0  0  0  0  0  0  0  0  0  0  0
  -24.2750   -9.5410   21.9780 C   0  0  0  0  0  3  0  0  0  0  0  0
  -23.5420   -8.3480   22.1580 C   0  0  0  0  0  3  0  0  0  0  0  0
  -22.3740   -8.1110   21.3950 C   0  0  0  0  0  0  0  0  0  0  0  0
  -21.9720   -9.0650   20.4430 C   0  0  0  0  0  3  0  0  0  0  0  0
  -22.7050  -10.2490   20.2620 C   0  0  0  0  0  3  0  0  0  0  0  0
  -21.6130   -6.9710   21.4820 O   0  0  0  0  0  0  0  0  0  0  0  0
  -21.5560   -6.2290   22.6350 C   0  0  0  0  0  0  0  0  0  0  0  0
  -21.1300   -6.7880   23.8600 C   0  0  0  0  0  3  0  0  0  0  0  0
  -21.0190   -5.9740   25.0040 C   0  0  0  0  0  3  0  0  0  0  0  0
  -21.3260   -4.6030   24.9260 C   0  0  0  0  0  0  0  0  0  0  0  0
  -21.7460   -4.0440   23.7060 C   0  0  0  0  0  3  0  0  0  0  0  0
  -21.8580   -4.8550   22.5630 C   0  0  0  0  0  0  0  0  0  0  0  0
  -22.2430   -4.3050   21.3860 F   0  0  0  0  0  0  0  0  0  0  0  0
  -21.2120   -3.8190   26.0230 F   0  0  0  0  0  0  0  0  0  0  0  0
  -22.7320  -13.6010   21.1200 C   0  0  0  0  0  0  0  0  0  0  0  0
  -21.9930  -12.9110   21.9810 N   0  0  0  0  0  0  0  0  0  0  0  0
  -22.3040  -14.6280   20.5950 O   0  0  0  0  0  0  0  0  0  0  0  0
  -22.3510  -12.0760   22.4220 H   0  0  0  0  0  0  0  0  0  0  0  0
  -21.0560  -13.2180   22.2010 H   0  0  0  0  0  0  0  0  0  0  0  0
  -25.3670  -15.2540   20.3130 N   0  0  0  0  0  0  0  0  0  0  0  0
  -24.5840  -15.8950   20.3820 H   0  0  0  0  0  0  0  0  0  0  0  0
  -26.2180  -15.6980   19.9930 H   0  0  0  0  0  0  0  0  0  0  0  0
  -30.7380  -27.0410   18.4150 C   0  0  0  0  0  2  0  0  0  0  0  0
  -30.5030  -27.7700   19.7530 C   0  0  0  0  0  2  0  0  0  0  0  0
  -29.5580  -27.0520   20.7320 C   0  0  0  0  0  2  0  0  0  0  0  0
  -28.3430  -26.6720   20.0930 O   0  0  0  0  0  0  0  0  0  0  0  0
  -24.5590  -31.8700   23.2410 C   0  0  0  0  0  0  0  0  0  0  0  0
  -27.2230  -27.4680   20.1640 C   0  0  0  0  0  0  0  0  0  0  0  0
  -23.3460  -30.4600   21.6060 C   0  0  0  0  0  3  0  0  0  0  0  0
  -24.8010  -28.9260   20.1830 C   0  0  0  0  0  0  0  0  0  0  0  0
  -25.8600  -30.8510   21.3750 C   0  0  0  0  0  2  0  0  0  0  0  0
  -25.9560  -29.4760   20.7540 C   0  0  0  0  0  0  0  0  0  0  0  0
  -27.1720  -28.7580   20.7400 C   0  0  0  0  0  3  0  0  0  0  0  0
  -26.0490  -26.9230   19.6060 C   0  0  0  0  0  3  0  0  0  0  0  0
  -24.8400  -27.6430   19.6070 C   0  0  0  0  0  3  0  0  0  0  0  0
  -23.5480  -29.7670   20.2300 C   0  0  0  0  0  2  0  0  0  0  0  0
  -24.6080  -31.0710   22.1380 N   0  0  0  0  0  0  0  0  0  0  0  0
  -23.4800  -32.1410   23.7850 O   0  0  0  0  0  0  0  0  0  0  0  0
  -22.7000  -29.4440   22.5720 C   0  0  0  0  0  0  0  0  0  0  0  0
  -21.3740  -29.2650   22.4430 N   0  0  0  0  0  0  0  0  0  0  0  0
  -23.3830  -28.8180   23.3870 O   0  0  0  0  0  0  0  0  0  0  0  0
  -20.8880  -29.8230   21.7560 H   0  0  0  0  0  0  0  0  0  0  0  0
  -17.9940  -28.0970   22.9440 C   0  0  0  0  0  0  0  0  0  0  0  0
  -20.5530  -28.3290   23.2100 C   0  0  0  0  0  3  0  0  0  0  0  0
  -20.6430  -26.9010   22.6250 C   0  0  0  0  0  2  0  0  0  0  0  0
  -19.5370  -26.5940   21.6110 C   0  0  0  0  0  2  0  0  0  0  0  0
  -18.1570  -26.7500   22.2590 C   0  0  0  0  0  2  0  0  0  0  0  0
  -19.1200  -28.8450   23.3760 C   0  0  0  0  0  0  0  0  0  0  0  0
  -18.9170  -30.1060   23.9770 C   0  0  0  0  0  3  0  0  0  0  0  0
  -17.6190  -30.6220   24.1460 C   0  0  0  0  0  3  0  0  0  0  0  0
  -16.5050  -29.8690   23.7300 C   0  0  0  0  0  3  0  0  0  0  0  0
  -16.6940  -28.6080   23.1360 C   0  0  0  0  0  3  0  0  0  0  0  0
  -25.8470  -32.4990   23.8610 C   0  0  0  0  0  3  0  0  0  0  0  0
  -25.5430  -33.8980   24.1850 N   0  0  0  0  0  0  0  0  0  0  0  0
  -25.8890  -34.9460   23.4240 C   0  0  0  0  0  0  0  0  0  0  0  0
  -26.5670  -34.8340   22.4000 O   0  0  0  0  0  0  0  0  0  0  0  0
  -24.9440  -34.0600   24.9810 H   0  0  0  0  0  0  0  0  0  0  0  0
  -24.1770  -36.7460   23.0440 C   0  0  0  0  0  1  0  0  0  0  0  0
  -25.4040  -36.3380   23.8720 C   0  0  0  0  0  3  0  0  0  0  0  0
  -27.5350  -37.2060   24.7310 C   0  0  0  0  0  1  0  0  0  0  0  0
  -26.4450  -37.3830   23.7740 N   0  0  0  0  0  0  0  0  0  0  0  0
  -26.0440  -38.3040   23.9210 H   0  0  0  0  0  0  0  0  0  0  0  0
  -26.3670  -31.7270   25.1340 C   0  0  1  0  0  0  0  0  0  0  0  0
  -25.2800  -31.4920   26.2080 C   0  0  0  0  0  1  0  0  0  0  0  0
  -26.9390  -30.3470   24.7280 C   0  0  0  0  0  1  0  0  0  0  0  0
  -27.5200  -32.5190   25.7940 C   0  0  0  0  0  1  0  0  0  0  0  0
  1  5  1  0
  3  1  2  0
  3  6  1  0
  4  2  1  0
  5  2  2  0
  6  4  2  0
  7  5  1  0
  7  8  1  0
  9 10  1  0
 12  8  1  0
 12  9  1  0
 12 11  1  0
 13 10  1  0
 13 11  1  0
 13 22  1  0
 14 22  1  0
 15 20  1  0
 16 17  1  0
 16 15  1  0
 18 17  1  0
 18 27  1  0
 18 19  1  0
 20 14  1  0
 20 19  1  0
 21 14  2  0
 22 23  1  0
 24 25  2  0
 25 44  1  0
 26 25  1  0
 26 29  1  0
 27 24  1  0
 27 28  1  0
 28 26  2  0
 29 30  1  0
 30 31  2  0
 32 35  1  0
 32 31  1  0
 33 32  2  0
 34 33  1  0
 34 29  2  0
 35 36  1  0
 36 37  1  0
 37 38  2  0
 39 38  1  0
 39 43  1  0
 40 39  2  0
 41 36  2  0
 41 40  1  0
 42 41  1  0
 44 45  1  0
 45 48  1  0
 45 47  1  0
 46 44  2  0
 49 50  1  0
 49 24  1  0
 51 49  1  0
 52  6  1  0
 52 53  1  0
 53 54  1  0
 55 57  1  0
 55 54  1  0
 56 67  2  0
 57 62  1  0
 58 66  1  0
 58 68  1  0
 59 65  1  0
 59 61  1  0
 60 66  1  0
 61 60  1  0
 62 61  2  0
 63 64  1  0
 63 57  2  0
 64 59  2  0
 65 58  1  0
 66 56  1  0
 68 70  2  0
 69 68  1  0
 71 69  1  0
 72 81  2  0
 72 77  1  0
 73 69  1  0
 73 77  1  0
 74 73  1  0
 75 76  1  0
 75 74  1  0
 76 72  1  0
 77 78  2  0
 78 79  1  0
 80 79  2  0
 81 80  1  0
 82 56  1  0
 82 83  1  0
 82 92  1  0
 83 86  1  0
 84 88  1  0
 84 83  1  0
 85 84  2  0
 88 87  1  0
 90 88  1  0
 90 91  1  0
 90 89  1  0
 92 95  1  1
 92 93  1  0
 94 92  1  0
M  ISO  4  14 100  22 100  54 101  55 101
M  END
>  <TORSDO>  (87) 
F 22

>  <SCORE>  (87) 
-13.199

>  <name>  (87) 
86

>  <ligand_id>  (87) 
86

>  <original_smiles>  (87) 
[H]c1c([H])c([H])c2c(c1[H])C([H])([H])C([H])([H])C([H])([H])C2([H])N([H])C(=O)C1([H])N(C(=O)C([H])(N([H])C(=O)C([H])(N([H])C([H])([H])[H])C([H])([H])[H])C(C([H])([H])[H])(C([H])([H])[H])C([H])([H])[H])C([H])([H])c2c([H])c(OC([H])([H])C([H])([H])C([H])([H])c3c([H])c([H])c(C([H])([H])C([H])([H])C4([H])C([H])([H])C([H])([H])C([H])(N([H])C(=O)N5C([H])([H])C([H])([H])C([H])([H])C([H])(n6nc(-c7c([H])c([H])c(Oc8c([H])c([H])c(F)c([H])c8F)c([H])c7[H])c(C(=O)N([H])[H])c6N([H])[H])C5([H])[H])C4([H])[H])c([H])c3[H])c([H])c([H])c2C1([H])[H]

>  <smiles>  (87) 
[H]c1c([H])c([H])c2c(c1[H])C([H])([H])C([H])([H])C([H])([H])C2([H])N([H])C(=O)C1([H])N(C(=O)C([H])(N([H])C(=O)C([H])(N([H])C([H])([H])[H])C([H])([H])[H])C(C([H])([H])[H])(C([H])([H])[H])C([H])([H])[H])C([H])([H])c2c([H])c(OC([H])([H])C([H])([H])C([H])([H])c3c([H])c([H])c(C([H])([H])C([H])([H])C4([H])C([H])([H])C([H])([H])C([H])(N([H])C(=O)N5C([H])([H])C([H])([H])C([H])([H])C([H])(n6nc(-c7c([H])c([H])c(Oc8c([H])c([H])c(F)c([H])c8F)c([H])c7[H])c(C(=O)N([H])[H])c6N([H])[H])C5([H])[H])C4([H])[H])c([H])c3[H])c([H])c([H])c2C1([H])[H]

$$$$
87:0:0
     RDKit          3D

 94101  0  0  1  0  0  0  0  0999 V2000
  -28.5750  -23.7950   21.7980 C   0  0  0  0  0  3  0  0  0  0  0  0
  -27.5740  -24.0410   22.8610 N   0  0  0  0  0  4  0  0  0  0  0  0
  -28.0050  -24.4620   23.6660 H   0  0  0  0  0  0  0  0  0  0  0  0
  -27.1550  -23.1760   23.1530 H   0  0  0  0  0  0  0  0  0  0  0  0
  -26.8380  -24.6460   22.5440 H   0  0  0  0  0  0  0  0  0  0  0  0
  -29.5050  -26.1490   22.4050 C   0  0  0  0  0  1  0  0  0  0  0  0
  -29.2250  -25.1240   21.2860 C   0  0  0  0  0  3  0  0  0  0  0  0
  -28.4400  -25.7230   20.0870 C   0  0  0  0  0  2  0  0  0  0  0  0
  -28.5430  -27.1540   19.9830 O   0  0  0  0  0  0  0  0  0  0  0  0
  -24.5850  -32.0470   23.2660 C   0  0  0  0  0  0  0  0  0  0  0  0
  -27.3510  -27.8480   19.9790 C   0  0  0  0  0  0  0  0  0  0  0  0
  -23.4150  -30.6770   21.5740 C   0  0  0  0  0  3  0  0  0  0  0  0
  -24.9100  -29.2680   20.0670 C   0  0  0  0  0  0  0  0  0  0  0  0
  -25.9230  -31.1380   21.3740 C   0  0  0  0  0  2  0  0  0  0  0  0
  -26.0520  -29.8010   20.6760 C   0  0  0  0  0  0  0  0  0  0  0  0
  -27.2760  -29.0990   20.6320 C   0  0  0  0  0  3  0  0  0  0  0  0
  -26.1940  -27.3440   19.3390 C   0  0  0  0  0  3  0  0  0  0  0  0
  -24.9740  -28.0360   19.3960 C   0  0  0  0  0  3  0  0  0  0  0  0
  -23.6360  -30.0730   20.1630 C   0  0  0  0  0  2  0  0  0  0  0  0
  -24.6600  -31.2990   22.1310 N   0  0  0  0  0  0  0  0  0  0  0  0
  -23.4990  -32.2580   23.8240 O   0  0  0  0  0  0  0  0  0  0  0  0
  -22.8140  -29.5890   22.4920 C   0  0  0  0  0  0  0  0  0  0  0  0
  -21.5030  -29.3350   22.3360 N   0  0  0  0  0  0  0  0  0  0  0  0
  -23.5200  -28.9780   23.2970 O   0  0  0  0  0  0  0  0  0  0  0  0
  -20.9930  -29.8830   21.6550 H   0  0  0  0  0  0  0  0  0  0  0  0
  -18.2100  -27.8950   22.6880 C   0  0  0  0  0  0  0  0  0  0  0  0
  -20.7290  -28.3320   23.0630 C   0  0  0  0  0  3  0  0  0  0  0  0
  -20.9590  -26.9200   22.4770 C   0  0  0  0  0  2  0  0  0  0  0  0
  -19.9230  -26.5320   21.4170 C   0  0  0  0  0  2  0  0  0  0  0  0
  -18.5090  -26.5700   22.0080 C   0  0  0  0  0  2  0  0  0  0  0  0
  -19.2520  -28.7290   23.1700 C   0  0  0  0  0  0  0  0  0  0  0  0
  -18.9210  -29.9660   23.7630 C   0  0  0  0  0  3  0  0  0  0  0  0
  -17.5790  -30.3720   23.8800 C   0  0  0  0  0  3  0  0  0  0  0  0
  -16.5490  -29.5350   23.4180 C   0  0  0  0  0  3  0  0  0  0  0  0
  -16.8650  -28.2980   22.8270 C   0  0  0  0  0  3  0  0  0  0  0  0
  -25.8550  -32.6980   23.9010 C   0  0  0  0  0  3  0  0  0  0  0  0
  -26.3820  -31.9200   25.1690 C   0  0  1  0  0  0  0  0  0  0  0  0
  -25.2850  -31.6330   26.2200 C   0  0  0  0  0  1  0  0  0  0  0  0
  -27.0090  -30.5660   24.7600 C   0  0  0  0  0  1  0  0  0  0  0  0
  -27.5040  -32.7340   25.8540 C   0  0  0  0  0  1  0  0  0  0  0  0
  -25.5150  -34.0860   24.2450 N   0  0  0  0  0  0  0  0  0  0  0  0
  -25.8400  -35.1530   23.5030 C   0  0  0  0  0  0  0  0  0  0  0  0
  -26.5290  -35.0730   22.4830 O   0  0  0  0  0  0  0  0  0  0  0  0
  -24.9050  -34.2190   25.0380 H   0  0  0  0  0  0  0  0  0  0  0  0
  -24.0810  -36.9130   23.1380 C   0  0  0  0  0  1  0  0  0  0  0  0
  -25.3160  -36.5260   23.9670 C   0  0  0  0  0  3  0  0  0  0  0  0
  -27.4220  -37.4370   24.8410 C   0  0  0  0  0  1  0  0  0  0  0  0
  -26.3310  -37.5990   23.8850 N   0  0  0  0  0  0  0  0  0  0  0  0
  -25.9060  -38.5090   24.0380 H   0  0  0  0  0  0  0  0  0  0  0  0
  -29.6110  -22.7410   22.2570 C   0  0  0  0  0  2  0  0  0  0  0  0
  -29.0980  -21.2780   22.2880 C   0  0  0  0  0  2  0  0  0  0  0  0
  -28.7750  -20.6340   20.9160 C   0  0  0  0  0  2  0  0  0  0  0  0
  -29.9110  -19.7720   20.3370 C   0  0  0  0  0  2  0  0  0  0  0  0
  -29.8250  -18.3020   20.7940 C   0  0  0  0  0  2  0  0  0  0  0  0
  -30.9510  -17.4350   20.2170 C   0  0  0  0  0  2  0  0  0  0  0  0
  -30.9030  -15.9690   20.6860 C   0  0  0  0  0  2  0  0  0  0  0  0
  -32.2910  -13.9590   19.9890 C   0  0  0  0  0  0  0  0  0  0  0  0
  -31.6630  -11.7570   19.1210 C   0  0  0  0  0  2  0  0  0  0  0  0
  -30.7500  -11.9560   17.8930 C   0  0  0  0  0  2  0  0  0  0  0  0
  -29.2750  -12.1010   18.3220 C   0  0  0  0  0  2  0  0  0  0  0  0
  -29.0790  -13.1130   19.4830 C   0  0  0  0  0  3  0  0  0  0  0  0
  -30.1010  -12.8540   20.6140 C   0  0  0  0  0  2  0  0  0  0  0  0
  -31.4410  -12.8990   20.0160 N   0  0  0  0  0  0  0  0  0  0  0  0
  -33.4660  -13.8630   19.6320 O   0  0  0  0  0  0  0  0  0  0  0  0
  -31.7290  -15.1590   19.7940 N   0  0  0  0  0  0  0  0  0  0  0  0
  -32.3570  -15.7370   19.2560 H   0  0  0  0  0  0  0  0  0  0  0  0
  -26.8490  -14.1690   20.2130 C   0  0  0  0  0  0  0  0  0  0  0  0
  -25.6580  -13.6140   20.5980 C   0  0  0  0  0  0  0  0  0  0  0  0
  -25.8560  -12.2000   20.5740 C   0  0  0  0  0  0  0  0  0  0  0  0
  -27.7050  -13.1060   19.9770 N   0  0  0  0  0  0  0  0  0  0  0  0
  -27.1120  -11.9160   20.2540 N   0  0  0  0  0  0  0  0  0  0  0  0
  -24.9070  -11.0970   20.7750 C   0  0  0  0  0  0  0  0  0  0  0  0
  -25.1610  -10.0710   21.7100 C   0  0  0  0  0  3  0  0  0  0  0  0
  -24.2250   -9.0320   21.9010 C   0  0  0  0  0  3  0  0  0  0  0  0
  -23.0220   -9.0150   21.1560 C   0  0  0  0  0  0  0  0  0  0  0  0
  -22.7860  -10.0280   20.2120 C   0  0  0  0  0  3  0  0  0  0  0  0
  -23.7200  -11.0590   20.0180 C   0  0  0  0  0  3  0  0  0  0  0  0
  -22.0700   -8.0290   21.2530 O   0  0  0  0  0  0  0  0  0  0  0  0
  -21.8820   -7.3240   22.4160 C   0  0  0  0  0  0  0  0  0  0  0  0
  -21.5890   -7.9670   23.6390 C   0  0  0  0  0  3  0  0  0  0  0  0
  -21.3340   -7.2020   24.7940 C   0  0  0  0  0  3  0  0  0  0  0  0
  -21.3600   -5.7960   24.7280 C   0  0  0  0  0  0  0  0  0  0  0  0
  -21.6430   -5.1540   23.5100 C   0  0  0  0  0  3  0  0  0  0  0  0
  -21.9010   -5.9170   22.3570 C   0  0  0  0  0  0  0  0  0  0  0  0
  -22.1550   -5.2930   21.1810 F   0  0  0  0  0  0  0  0  0  0  0  0
  -21.1050   -5.0590   25.8340 F   0  0  0  0  0  0  0  0  0  0  0  0
  -24.3810  -14.3490   20.8790 C   0  0  0  0  0  0  0  0  0  0  0  0
  -23.5520  -13.8180   21.7720 N   0  0  0  0  0  0  0  0  0  0  0  0
  -24.1310  -15.4270   20.3430 O   0  0  0  0  0  0  0  0  0  0  0  0
  -23.7670  -12.9460   22.2290 H   0  0  0  0  0  0  0  0  0  0  0  0
  -22.6890  -14.2940   21.9970 H   0  0  0  0  0  0  0  0  0  0  0  0
  -27.2580  -15.4850   20.0250 N   0  0  0  0  0  0  0  0  0  0  0  0
  -26.6140  -16.2600   20.1460 H   0  0  0  0  0  0  0  0  0  0  0  0
  -28.1690  -15.7730   19.6920 H   0  0  0  0  0  0  0  0  0  0  0  0
  1 50  1  0
  1  2  1  0
  2  4  1  0
  2  3  1  0
  5  2  1  0
  7  1  1  0
  7  6  1  0
  8  7  1  0
  9  8  1  0
 10 21  2  0
 11  9  1  0
 11 16  1  0
 12 20  1  0
 12 22  1  0
 13 19  1  0
 13 15  1  0
 14 20  1  0
 15 14  1  0
 16 15  2  0
 17 18  1  0
 17 11  2  0
 18 13  2  0
 19 12  1  0
 20 10  1  0
 22 24  2  0
 23 22  1  0
 25 23  1  0
 26 35  2  0
 26 31  1  0
 27 23  1  0
 27 31  1  0
 28 27  1  0
 29 30  1  0
 29 28  1  0
 30 26  1  0
 31 32  2  0
 32 33  1  0
 34 33  2  0
 35 34  1  0
 36 10  1  0
 36 41  1  0
 36 37  1  0
 37 40  1  1
 37 38  1  0
 39 37  1  0
 41 44  1  0
 42 46  1  0
 42 41  1  0
 43 42  2  0
 46 45  1  0
 48 46  1  0
 48 49  1  0
 48 47  1  0
 50 51  1  0
 52 51  1  0
 53 54  1  0
 53 52  1  0
 55 56  1  0
 55 54  1  0
 57 63  1  0
 58 63  1  0
 59 60  1  0
 59 58  1  0
 61 60  1  0
 61 70  1  0
 61 62  1  0
 63 62  1  0
 64 57  2  0
 65 57  1  0
 65 56  1  0
 66 65  1  0
 67 68  2  0
 68 87  1  0
 69 68  1  0
 69 72  1  0
 70 67  1  0
 70 71  1  0
 71 69  2  0
 72 73  1  0
 73 74  2  0
 75 78  1  0
 75 74  1  0
 76 75  2  0
 77 76  1  0
 77 72  2  0
 78 79  1  0
 79 80  1  0
 80 81  2  0
 82 81  1  0
 82 86  1  0
 83 82  2  0
 84 79  2  0
 84 83  1  0
 85 84  1  0
 87 88  1  0
 88 91  1  0
 88 90  1  0
 89 87  2  0
 92 93  1  0
 92 67  1  0
 94 92  1  0
M  ISO  4   8 101   9 101  57 100  65 100
M  END
>  <TORSDO>  (88) 
F 26

>  <SCORE>  (88) 
-10.194

>  <name>  (88) 
87

>  <ligand_id>  (88) 
87

>  <original_smiles>  (88) 
[H]c1c([H])c([H])c2c(c1[H])C([H])([H])C([H])([H])C([H])([H])C2([H])N([H])C(=O)C1([H])N(C(=O)C([H])(N([H])C(=O)C([H])(N([H])C([H])([H])[H])C([H])([H])[H])C(C([H])([H])[H])(C([H])([H])[H])C([H])([H])[H])C([H])([H])c2c([H])c(OC([H])([H])C([H])(C([H])([H])[H])C([H])(C([H])([H])C([H])([H])C([H])([H])C([H])([H])C([H])([H])C([H])([H])C([H])([H])N([H])C(=O)N3C([H])([H])C([H])([H])C([H])([H])C([H])(n4nc(-c5c([H])c([H])c(Oc6c([H])c([H])c(F)c([H])c6F)c([H])c5[H])c(C(=O)N([H])[H])c4N([H])[H])C3([H])[H])[N+]([H])([H])[H])c([H])c([H])c2C1([H])[H]

>  <smiles>  (88) 
[H]c1c([H])c([H])c2c(c1[H])C([H])([H])C([H])([H])C([H])([H])C2([H])N([H])C(=O)C1([H])N(C(=O)C([H])(N([H])C(=O)C([H])(N([H])C([H])([H])[H])C([H])([H])[H])C(C([H])([H])[H])(C([H])([H])[H])C([H])([H])[H])C([H])([H])c2c([H])c(OC([H])([H])C([H])(C([H])([H])[H])C([H])(C([H])([H])C([H])([H])C([H])([H])C([H])([H])C([H])([H])C([H])([H])C([H])([H])N([H])C(=O)N3C([H])([H])C([H])([H])C([H])([H])C([H])(n4nc(-c5c([H])c([H])c(Oc6c([H])c([H])c(F)c([H])c6F)c([H])c5[H])c(C(=O)N([H])[H])c4N([H])[H])C3([H])[H])[N+]([H])([H])[H])c([H])c([H])c2C1([H])[H]

$$$$
88:0:0
     RDKit          3D

 95102  0  0  1  0  0  0  0  0999 V2000
  -30.7920  -23.2700   19.4900 C   0  0  0  0  0  3  0  0  0  0  0  0
  -29.8760  -24.4270   19.6390 N   0  0  0  0  0  4  0  0  0  0  0  0
  -28.9280  -24.0990   19.7350 H   0  0  0  0  0  0  0  0  0  0  0  0
  -30.1530  -24.8760   20.5040 H   0  0  0  0  0  0  0  0  0  0  0  0
  -29.9380  -25.4510   18.5610 C   0  0  0  0  0  2  0  0  0  0  0  0
  -28.6120  -26.2160   18.4330 C   0  0  0  0  0  2  0  0  0  0  0  0
  -28.2420  -26.7020   19.7240 O   0  0  0  0  0  0  0  0  0  0  0  0
  -24.5540  -31.6980   23.1760 C   0  0  0  0  0  0  0  0  0  0  0  0
  -27.0610  -27.3970   19.8020 C   0  0  0  0  0  0  0  0  0  0  0  0
  -23.2700  -30.3620   21.5340 C   0  0  0  0  0  3  0  0  0  0  0  0
  -24.6600  -28.8710   19.9930 C   0  0  0  0  0  0  0  0  0  0  0  0
  -25.7850  -30.7190   21.2490 C   0  0  0  0  0  2  0  0  0  0  0  0
  -25.8380  -29.3710   20.5640 C   0  0  0  0  0  0  0  0  0  0  0  0
  -27.0340  -28.6270   20.4890 C   0  0  0  0  0  3  0  0  0  0  0  0
  -25.8630  -26.8970   19.2410 C   0  0  0  0  0  3  0  0  0  0  0  0
  -24.6670  -27.6300   19.3340 C   0  0  0  0  0  3  0  0  0  0  0  0
  -23.4190  -29.7230   20.1260 C   0  0  0  0  0  2  0  0  0  0  0  0
  -24.5570  -30.9360   22.0470 N   0  0  0  0  0  0  0  0  0  0  0  0
  -23.4990  -31.9580   23.7730 O   0  0  0  0  0  0  0  0  0  0  0  0
  -22.6510  -29.3130   22.4860 C   0  0  0  0  0  0  0  0  0  0  0  0
  -21.3360  -29.0780   22.3400 N   0  0  0  0  0  0  0  0  0  0  0  0
  -23.3510  -28.7140   23.3060 O   0  0  0  0  0  0  0  0  0  0  0  0
  -20.8310  -29.6180   21.6520 H   0  0  0  0  0  0  0  0  0  0  0  0
  -18.0350  -27.6630   22.6990 C   0  0  0  0  0  0  0  0  0  0  0  0
  -20.5490  -28.1050   23.0970 C   0  0  0  0  0  3  0  0  0  0  0  0
  -20.7820  -26.6700   22.5690 C   0  0  0  0  0  2  0  0  0  0  0  0
  -19.7620  -26.2460   21.5080 C   0  0  0  0  0  2  0  0  0  0  0  0
  -18.3400  -26.3110   22.0740 C   0  0  0  0  0  2  0  0  0  0  0  0
  -19.0730  -28.5120   23.1630 C   0  0  0  0  0  0  0  0  0  0  0  0
  -18.7370  -29.7720   23.7020 C   0  0  0  0  0  3  0  0  0  0  0  0
  -17.3940  -30.1870   23.7810 C   0  0  0  0  0  3  0  0  0  0  0  0
  -16.3690  -29.3350   23.3340 C   0  0  0  0  0  3  0  0  0  0  0  0
  -16.6900  -28.0760   22.7980 C   0  0  0  0  0  3  0  0  0  0  0  0
  -25.8710  -32.2960   23.7640 C   0  0  0  0  0  3  0  0  0  0  0  0
  -26.4240  -31.4860   25.0010 C   0  0  1  0  0  0  0  0  0  0  0  0
  -25.3680  -31.2390   26.1030 C   0  0  0  0  0  1  0  0  0  0  0  0
  -26.9700  -30.1110   24.5520 C   0  0  0  0  0  1  0  0  0  0  0  0
  -27.6100  -32.2490   25.6390 C   0  0  0  0  0  1  0  0  0  0  0  0
  -25.5960  -33.6900   24.1330 N   0  0  0  0  0  0  0  0  0  0  0  0
  -25.9270  -34.7530   23.3870 C   0  0  0  0  0  0  0  0  0  0  0  0
  -26.5620  -34.6590   22.3330 O   0  0  0  0  0  0  0  0  0  0  0  0
  -25.0240  -33.8360   24.9520 H   0  0  0  0  0  0  0  0  0  0  0  0
  -24.2150  -36.5760   23.1320 C   0  0  0  0  0  1  0  0  0  0  0  0
  -25.4780  -36.1370   23.8890 C   0  0  0  0  0  3  0  0  0  0  0  0
  -27.6500  -36.9770   24.6660 C   0  0  0  0  0  1  0  0  0  0  0  0
  -26.5220  -37.1770   23.7590 N   0  0  0  0  0  0  0  0  0  0  0  0
  -26.1340  -38.0990   23.9370 H   0  0  0  0  0  0  0  0  0  0  0  0
  -32.1860  -23.7660   19.9280 C   0  0  0  0  0  0  0  0  0  0  0  0
  -32.3380  -24.7250   20.6950 O   0  0  0  0  0  0  0  0  0  0  0  0
  -33.4060  -22.9920   19.4240 C   0  0  0  0  0  2  0  0  0  0  0  0
  -34.4800  -23.7850   19.3280 F   0  0  0  0  0  0  0  0  0  0  0  0
  -30.3680  -22.0590   20.3680 C   0  0  0  0  0  2  0  0  0  0  0  0
  -29.0110  -21.4090   20.0140 C   0  0  0  0  0  2  0  0  0  0  0  0
  -28.8210  -19.9910   20.6030 C   0  0  0  0  0  2  0  0  0  0  0  0
  -29.6700  -18.9090   19.9090 C   0  0  0  0  0  2  0  0  0  0  0  0
  -29.2720  -17.4600   20.2500 C   0  0  0  0  0  2  0  0  0  0  0  0
  -30.1080  -16.8140   21.3780 C   0  0  0  0  0  2  0  0  0  0  0  0
  -30.6270  -14.5100   20.5950 C   0  0  0  0  0  0  0  0  0  0  0  0
  -30.3340  -12.4840   19.2250 C   0  0  0  0  0  2  0  0  0  0  0  0
  -29.3330  -12.7870   18.0890 C   0  0  0  0  0  2  0  0  0  0  0  0
  -27.8760  -12.6060   18.5610 C   0  0  0  0  0  2  0  0  0  0  0  0
  -27.5910  -13.3280   19.9020 C   0  0  0  0  0  3  0  0  0  0  0  0
  -28.6770  -12.9630   20.9380 C   0  0  0  0  0  2  0  0  0  0  0  0
  -29.9880  -13.3330   20.3740 N   0  0  0  0  0  0  0  0  0  0  0  0
  -31.6730  -14.8370   20.0220 O   0  0  0  0  0  0  0  0  0  0  0  0
  -29.9500  -15.3620   21.3750 N   0  0  0  0  0  0  0  0  0  0  0  0
  -29.1570  -14.9810   21.8720 H   0  0  0  0  0  0  0  0  0  0  0  0
  -25.1880  -13.8680   20.6750 C   0  0  0  0  0  0  0  0  0  0  0  0
  -24.1430  -13.0630   21.0410 C   0  0  0  0  0  0  0  0  0  0  0  0
  -24.6310  -11.7220   20.9470 C   0  0  0  0  0  0  0  0  0  0  0  0
  -26.2480  -13.0180   20.3940 N   0  0  0  0  0  0  0  0  0  0  0  0
  -25.9140  -11.7200   20.6080 N   0  0  0  0  0  0  0  0  0  0  0  0
  -23.9360  -10.4390   21.1080 C   0  0  0  0  0  0  0  0  0  0  0  0
  -24.3810   -9.4700   22.0340 C   0  0  0  0  0  3  0  0  0  0  0  0
  -23.6870   -8.2490   22.1810 C   0  0  0  0  0  3  0  0  0  0  0  0
  -22.5350   -7.9900   21.3980 C   0  0  0  0  0  0  0  0  0  0  0  0
  -22.1140   -8.9490   20.4590 C   0  0  0  0  0  3  0  0  0  0  0  0
  -22.8100  -10.1600   20.3120 C   0  0  0  0  0  3  0  0  0  0  0  0
  -21.8110   -6.8220   21.4590 O   0  0  0  0  0  0  0  0  0  0  0  0
  -21.7270   -6.0870   22.6130 C   0  0  0  0  0  0  0  0  0  0  0  0
  -21.1900   -6.6260   23.8050 C   0  0  0  0  0  3  0  0  0  0  0  0
  -21.0530   -5.8120   24.9470 C   0  0  0  0  0  3  0  0  0  0  0  0
  -21.4500   -4.4620   24.9000 C   0  0  0  0  0  0  0  0  0  0  0  0
  -21.9830   -3.9220   23.7170 C   0  0  0  0  0  3  0  0  0  0  0  0
  -22.1200   -4.7330   22.5760 C   0  0  0  0  0  0  0  0  0  0  0  0
  -22.6130   -4.2020   21.4310 F   0  0  0  0  0  0  0  0  0  0  0  0
  -21.3130   -3.6810   25.9960 F   0  0  0  0  0  0  0  0  0  0  0  0
  -22.7450  -13.4980   21.3700 C   0  0  0  0  0  0  0  0  0  0  0  0
  -22.0630  -12.7510   22.2290 N   0  0  0  0  0  0  0  0  0  0  0  0
  -22.2670  -14.5330   20.9050 O   0  0  0  0  0  0  0  0  0  0  0  0
  -22.4660  -11.9140   22.6200 H   0  0  0  0  0  0  0  0  0  0  0  0
  -21.1270  -13.0140   22.4980 H   0  0  0  0  0  0  0  0  0  0  0  0
  -25.3280  -15.2470   20.5390 N   0  0  0  0  0  0  0  0  0  0  0  0
  -24.5590  -15.8920   20.6870 H   0  0  0  0  0  0  0  0  0  0  0  0
  -26.1690  -15.7000   20.2040 H   0  0  0  0  0  0  0  0  0  0  0  0
  1  2  1  0
  1 48  1  0
  1 52  1  0
  2  3  1  0
  2  4  1  0
  5  2  1  0
  6  5  1  0
  6  7  1  0
  7  9  1  0
  8 19  2  0
  9 14  1  0
 10 18  1  0
 10 20  1  0
 11 17  1  0
 11 13  1  0
 12 18  1  0
 13 12  1  0
 14 13  2  0
 15 16  1  0
 15  9  2  0
 16 11  2  0
 17 10  1  0
 18  8  1  0
 20 22  2  0
 21 20  1  0
 23 21  1  0
 24 33  2  0
 24 29  1  0
 25 21  1  0
 25 29  1  0
 26 25  1  0
 27 28  1  0
 27 26  1  0
 28 24  1  0
 29 30  2  0
 30 31  1  0
 32 31  2  0
 33 32  1  0
 34  8  1  0
 34 39  1  0
 34 35  1  0
 35 38  1  1
 35 36  1  0
 37 35  1  0
 39 42  1  0
 40 44  1  0
 40 39  1  0
 41 40  2  0
 44 43  1  0
 46 44  1  0
 46 47  1  0
 46 45  1  0
 48 49  2  0
 50 48  1  0
 51 50  1  0
 53 52  1  0
 53 54  1  0
 55 56  1  0
 55 54  1  0
 56 57  1  0
 58 66  1  0
 59 64  1  0
 60 61  1  0
 60 59  1  0
 62 61  1  0
 62 71  1  0
 62 63  1  0
 64 58  1  0
 64 63  1  0
 65 58  2  0
 66 57  1  0
 66 67  1  0
 68 69  2  0
 69 88  1  0
 70 69  1  0
 70 73  1  0
 71 72  1  0
 71 68  1  0
 72 70  2  0
 73 74  1  0
 74 75  2  0
 76 79  1  0
 76 75  1  0
 77 76  2  0
 78 77  1  0
 78 73  2  0
 79 80  1  0
 80 81  1  0
 81 82  2  0
 83 82  1  0
 83 87  1  0
 84 83  2  0
 85 80  2  0
 85 84  1  0
 86 85  1  0
 88 89  1  0
 89 92  1  0
 89 91  1  0
 90 88  2  0
 93 68  1  0
 93 94  1  0
 95 93  1  0
M  ISO  4   6 101   7 101  58 100  66 100
M  END
>  <TORSDO>  (89) 
F 27

>  <SCORE>  (89) 
-11.238

>  <name>  (89) 
88

>  <ligand_id>  (89) 
88

>  <original_smiles>  (89) 
[H]c1c([H])c([H])c2c(c1[H])C([H])([H])C([H])([H])C([H])([H])C2([H])N([H])C(=O)C1([H])N(C(=O)C([H])(N([H])C(=O)C([H])(N([H])C([H])([H])[H])C([H])([H])[H])C(C([H])([H])[H])(C([H])([H])[H])C([H])([H])[H])C([H])([H])c2c([H])c(OC([H])([H])C([H])([H])[N+]([H])([H])C([H])(C(=O)C([H])([H])F)C([H])([H])C([H])([H])C([H])([H])C([H])([H])C([H])([H])C([H])([H])N([H])C(=O)N3C([H])([H])C([H])([H])C([H])([H])C([H])(n4nc(-c5c([H])c([H])c(Oc6c([H])c([H])c(F)c([H])c6F)c([H])c5[H])c(C(=O)N([H])[H])c4N([H])[H])C3([H])[H])c([H])c([H])c2C1([H])[H]

>  <smiles>  (89) 
[H]c1c([H])c([H])c2c(c1[H])C([H])([H])C([H])([H])C([H])([H])C2([H])N([H])C(=O)C1([H])N(C(=O)C([H])(N([H])C(=O)C([H])(N([H])C([H])([H])[H])C([H])([H])[H])C(C([H])([H])[H])(C([H])([H])[H])C([H])([H])[H])C([H])([H])c2c([H])c(OC([H])([H])C([H])([H])[N+]([H])([H])C([H])(C(=O)C([H])([H])F)C([H])([H])C([H])([H])C([H])([H])C([H])([H])C([H])([H])C([H])([H])N([H])C(=O)N3C([H])([H])C([H])([H])C([H])([H])C([H])(n4nc(-c5c([H])c([H])c(Oc6c([H])c([H])c(F)c([H])c6F)c([H])c5[H])c(C(=O)N([H])[H])c4N([H])[H])C3([H])[H])c([H])c([H])c2C1([H])[H]

$$$$
89:0:0
     RDKit          3D

 96105  0  0  1  0  0  0  0  0999 V2000
  -30.3880  -24.2770   24.0540 C   0  0  0  0  0  3  0  0  0  0  0  0
  -28.3860  -23.8950   22.7150 C   0  0  0  0  0  3  0  0  0  0  0  0
  -30.0730  -25.6470   24.1300 C   0  0  0  0  0  3  0  0  0  0  0  0
  -28.0790  -25.2690   22.7790 C   0  0  0  0  0  3  0  0  0  0  0  0
  -29.5640  -23.3970   23.3150 C   0  0  0  0  0  0  0  0  0  0  0  0
  -28.9350  -26.1520   23.4670 C   0  0  0  0  0  0  0  0  0  0  0  0
  -29.9070  -21.9560   23.1770 C   0  0  0  0  0  0  0  0  0  0  0  0
  -29.1680  -21.0440   23.5590 O   0  0  0  0  0  0  0  0  0  0  0  0
  -31.2090  -21.6280   22.4360 C   0  0  0  0  0  2  0  0  0  0  0  0
  -31.0680  -21.5550   20.9000 C   0  0  0  0  0  2  0  0  0  0  0  0
  -30.0740  -22.5690   20.2960 C   0  0  0  0  0  2  0  0  0  0  0  0
  -30.4010  -22.9140   18.8350 C   0  0  0  0  0  2  0  0  0  0  0  0
  -29.2220  -23.5600   18.0910 C   0  0  0  0  0  2  0  0  0  0  0  0
  -29.6850  -24.4620   16.9360 C   0  0  0  0  0  2  0  0  0  0  0  0
  -28.5210  -24.9450   16.0420 C   0  0  0  0  0  2  0  0  0  0  0  0
  -28.7720  -26.3080   15.3690 C   0  0  0  0  0  0  0  0  0  0  0  0
  -28.0570  -28.0850   13.8060 C   0  0  0  0  0  2  0  0  0  0  0  0
  -27.0440  -29.0430   14.4590 C   0  0  0  0  0  2  0  0  0  0  0  0
  -25.6090  -28.4980   14.3270 C   0  0  0  0  0  2  0  0  0  0  0  0
  -25.4940  -27.0150   14.7670 C   0  0  0  0  0  3  0  0  0  0  0  0
  -26.5980  -26.1610   14.1070 C   0  0  0  0  0  2  0  0  0  0  0  0
  -27.9040  -26.7620   14.4280 N   0  0  0  0  0  0  0  0  0  0  0  0
  -29.7630  -26.9600   15.7140 O   0  0  0  0  0  0  0  0  0  0  0  0
  -23.3740  -25.6380   15.2640 C   0  0  0  0  0  0  0  0  0  0  0  0
  -22.1920  -25.5040   14.5890 C   0  0  0  0  0  0  0  0  0  0  0  0
  -22.3190  -26.3000   13.4090 C   0  0  0  0  0  0  0  0  0  0  0  0
  -24.1610  -26.4810   14.4940 N   0  0  0  0  0  0  0  0  0  0  0  0
  -23.5320  -26.8360   13.3440 N   0  0  0  0  0  0  0  0  0  0  0  0
  -21.3380  -26.6300   12.3670 C   0  0  0  0  0  0  0  0  0  0  0  0
  -21.6230  -26.4370   10.9970 C   0  0  0  0  0  3  0  0  0  0  0  0
  -20.6580  -26.7450   10.0150 C   0  0  0  0  0  3  0  0  0  0  0  0
  -19.3910  -27.2470   10.3970 C   0  0  0  0  0  0  0  0  0  0  0  0
  -19.1220  -27.4580   11.7610 C   0  0  0  0  0  3  0  0  0  0  0  0
  -20.0850  -27.1570   12.7380 C   0  0  0  0  0  3  0  0  0  0  0  0
  -18.4020  -27.5980    9.5120 O   0  0  0  0  0  0  0  0  0  0  0  0
  -18.3380  -27.0580    8.2520 C   0  0  0  0  0  0  0  0  0  0  0  0
  -18.3270  -25.6630    8.0390 C   0  0  0  0  0  3  0  0  0  0  0  0
  -18.1910  -25.1500    6.7340 C   0  0  0  0  0  3  0  0  0  0  0  0
  -18.0550  -26.0290    5.6420 C   0  0  0  0  0  0  0  0  0  0  0  0
  -18.0610  -27.4190    5.8530 C   0  0  0  0  0  3  0  0  0  0  0  0
  -18.1990  -27.9310    7.1550 C   0  0  0  0  0  0  0  0  0  0  0  0
  -18.1820  -29.2720    7.3540 F   0  0  0  0  0  0  0  0  0  0  0  0
  -17.9170  -25.5380    4.3880 F   0  0  0  0  0  0  0  0  0  0  0  0
  -20.9740  -24.7560   15.0520 C   0  0  0  0  0  0  0  0  0  0  0  0
  -20.2190  -24.1800   14.1240 N   0  0  0  0  0  0  0  0  0  0  0  0
  -20.7130  -24.6400   16.2480 O   0  0  0  0  0  0  0  0  0  0  0  0
  -20.4450  -24.2580   13.1430 H   0  0  0  0  0  0  0  0  0  0  0  0
  -19.4020  -23.6520   14.3990 H   0  0  0  0  0  0  0  0  0  0  0  0
  -23.8400  -25.1340   16.4760 N   0  0  0  0  0  0  0  0  0  0  0  0
  -23.2660  -24.5560   17.0810 H   0  0  0  0  0  0  0  0  0  0  0  0
  -24.7460  -25.3460   16.8740 H   0  0  0  0  0  0  0  0  0  0  0  0
  -28.6560  -27.6450   23.4690 C   0  0  0  0  0  2  0  0  0  0  0  0
  -29.2830  -28.3840   22.2690 C   0  0  0  0  0  3  0  0  0  0  0  0
  -30.8200  -28.5090   22.3330 C   0  0  0  0  0  2  0  0  0  0  0  0
  -31.4190  -29.6400   21.4780 C   0  0  0  0  0  2  0  0  0  0  0  0
  -31.2930  -30.9000   22.1330 O   0  0  0  0  0  0  0  0  0  0  0  0
  -29.3900  -33.2040   28.5660 C   0  0  0  0  0  0  0  0  0  0  0  0
  -30.2790  -31.0270   23.0470 C   0  0  0  0  0  0  0  0  0  0  0  0
  -27.7050  -31.8360   27.3770 C   0  0  0  0  0  3  0  0  0  0  0  0
  -28.2000  -31.3640   24.9220 C   0  0  0  0  0  0  0  0  0  0  0  0
  -29.4140  -33.2220   26.0760 C   0  0  0  0  0  2  0  0  0  0  0  0
  -29.3360  -32.1800   24.9830 C   0  0  0  0  0  0  0  0  0  0  0  0
  -30.3730  -32.0220   24.0390 C   0  0  0  0  0  3  0  0  0  0  0  0
  -29.1330  -30.2040   22.9960 C   0  0  0  0  0  0  0  0  0  0  0  0
  -28.0930  -30.3700   23.9310 C   0  0  0  0  0  3  0  0  0  0  0  0
  -27.1240  -31.6130   25.9560 C   0  0  0  0  0  2  0  0  0  0  0  0
  -28.8850  -32.7610   27.3800 N   0  0  0  0  0  0  0  0  0  0  0  0
  -28.8610  -32.8930   29.6430 O   0  0  0  0  0  0  0  0  0  0  0  0
  -28.0060  -30.4570   28.0040 C   0  0  0  0  0  0  0  0  0  0  0  0
  -27.0010  -29.8760   28.6790 N   0  0  0  0  0  0  0  0  0  0  0  0
  -29.1070  -29.9210   27.8510 O   0  0  0  0  0  0  0  0  0  0  0  0
  -26.1330  -30.3870   28.7680 H   0  0  0  0  0  0  0  0  0  0  0  0
  -25.1300  -27.6060   30.7740 C   0  0  0  0  0  0  0  0  0  0  0  0
  -27.0400  -28.5620   29.3190 C   0  0  0  0  0  3  0  0  0  0  0  0
  -26.6960  -27.4410   28.3110 C   0  0  0  0  0  2  0  0  0  0  0  0
  -25.2100  -27.0740   28.3010 C   0  0  0  0  0  2  0  0  0  0  0  0
  -24.7630  -26.6080   29.6890 C   0  0  0  0  0  2  0  0  0  0  0  0
  -26.1890  -28.5340   30.5930 C   0  0  0  0  0  0  0  0  0  0  0  0
  -26.4670  -29.4650   31.6180 C   0  0  0  0  0  3  0  0  0  0  0  0
  -25.7110  -29.4740   32.8050 C   0  0  0  0  0  3  0  0  0  0  0  0
  -24.6760  -28.5400   32.9870 C   0  0  0  0  0  3  0  0  0  0  0  0
  -24.3900  -27.6080   31.9740 C   0  0  0  0  0  3  0  0  0  0  0  0
  -30.6370  -34.1430   28.6290 C   0  0  0  0  0  3  0  0  0  0  0  0
  -31.9910  -33.4030   28.2990 C   0  0  1  0  0  0  0  0  0  0  0  0
  -32.1880  -32.0890   29.0910 C   0  0  0  0  0  1  0  0  0  0  0  0
  -32.0760  -33.0660   26.7920 C   0  0  0  0  0  1  0  0  0  0  0  0
  -33.1870  -34.3310   28.6170 C   0  0  0  0  0  1  0  0  0  0  0  0
  -30.6790  -34.7340   29.9730 N   0  0  0  0  0  0  0  0  0  0  0  0
  -30.1940  -35.9430   30.2880 C   0  0  0  0  0  0  0  0  0  0  0  0
  -29.7240  -36.7160   29.4470 O   0  0  0  0  0  0  0  0  0  0  0  0
  -30.9970  -34.1350   30.7210 H   0  0  0  0  0  0  0  0  0  0  0  0
  -28.8720  -36.1020   32.4200 C   0  0  0  0  0  1  0  0  0  0  0  0
  -30.2400  -36.3620   31.7690 C   0  0  0  0  0  3  0  0  0  0  0  0
  -32.0220  -38.0450   31.6290 C   0  0  0  0  0  1  0  0  0  0  0  0
  -30.6270  -37.7740   31.9700 N   0  0  0  0  0  0  0  0  0  0  0  0
  -30.4800  -38.0550   32.9360 H   0  0  0  0  0  0  0  0  0  0  0  0
  1  3  1  0
  2  4  2  0
  2  5  1  0
  4  6  1  0
  5  1  2  0
  6 52  1  0
  6  3  2  0
  7  5  1  0
  7  8  2  0
  9  7  1  0
 10  9  1  0
 11 10  1  0
 12 11  1  0
 13 12  1  0
 14 13  1  0
 15 14  1  0
 16 23  2  0
 16 15  1  0
 17 22  1  0
 17 18  1  0
 19 18  1  0
 19 20  1  0
 20 21  1  0
 21 22  1  0
 22 16  1  0
 24 49  1  0
 25 44  1  0
 25 24  2  0
 26 25  1  0
 27 20  1  0
 27 24  1  0
 28 26  2  0
 28 27  1  0
 29 34  1  0
 29 26  1  0
 30 29  2  0
 31 32  2  0
 31 30  1  0
 32 33  1  0
 33 34  2  0
 35 32  1  0
 36 35  1  0
 37 36  1  0
 38 37  2  0
 39 40  2  0
 39 38  1  0
 40 41  1  0
 41 42  1  0
 41 36  2  0
 43 39  1  0
 44 46  2  0
 45 48  1  0
 45 44  1  0
 47 45  1  0
 49 51  1  0
 49 50  1  0
 53 54  1  0
 53 64  1  0
 53 52  1  0
 55 56  1  0
 55 54  1  0
 56 58  1  0
 57 68  2  0
 58 63  1  0
 59 67  1  0
 59 69  1  0
 60 62  1  0
 60 66  1  0
 61 67  1  0
 62 61  1  0
 63 62  2  0
 64 58  2  0
 64 65  1  0
 65 60  2  0
 66 59  1  0
 67 57  1  0
 69 70  1  0
 70 72  1  0
 71 69  2  0
 73 82  1  0
 74 70  1  0
 74 78  1  0
 75 74  1  0
 76 75  1  0
 76 77  1  0
 77 73  1  0
 78 73  2  0
 78 79  1  0
 79 80  2  0
 80 81  1  0
 82 81  2  0
 83 57  1  0
 83 88  1  0
 84 87  1  1
 84 83  1  0
 84 85  1  0
 86 84  1  0
 88 89  1  0
 88 91  1  0
 89 93  1  0
 90 89  2  0
 93 95  1  0
 93 92  1  0
 94 95  1  0
 95 96  1  0
M  ISO  4  15 100  16 100  55 101  56 101
M  END
>  <TORSDO>  (90) 
F 28

>  <SCORE>  (90) 
-2.102

>  <name>  (90) 
89

>  <ligand_id>  (90) 
89

>  <original_smiles>  (90) 
[H]c1c([H])c([H])c2c(c1[H])C([H])([H])C([H])([H])C([H])([H])C2([H])N([H])C(=O)C1([H])N(C(=O)C([H])(N([H])C(=O)C([H])(N([H])C([H])([H])[H])C([H])([H])[H])C(C([H])([H])[H])(C([H])([H])[H])C([H])([H])[H])C([H])([H])c2c([H])c(OC([H])([H])C([H])([H])C([H])([H])C([H])([H])c3c([H])c([H])c(C(=O)C([H])([H])C([H])([H])C([H])([H])C([H])([H])C([H])([H])C([H])([H])C([H])([H])C(=O)N4C([H])([H])C([H])([H])C([H])([H])C([H])(n5nc(-c6c([H])c([H])c(Oc7c([H])c([H])c(F)c([H])c7F)c([H])c6[H])c(C(=O)N([H])[H])c5N([H])[H])C4([H])[H])c([H])c3[H])c([H])c([H])c2C1([H])[H]

>  <smiles>  (90) 
[H]c1c([H])c([H])c2c(c1[H])C([H])([H])C([H])([H])C([H])([H])C2([H])N([H])C(=O)C1([H])N(C(=O)C([H])(N([H])C(=O)C([H])(N([H])C([H])([H])[H])C([H])([H])[H])C(C([H])([H])[H])(C([H])([H])[H])C([H])([H])[H])C([H])([H])c2c([H])c(OC([H])([H])C([H])([H])C([H])([H])C([H])([H])c3c([H])c([H])c(C(=O)C([H])([H])C([H])([H])C([H])([H])C([H])([H])C([H])([H])C([H])([H])C([H])([H])C(=O)N4C([H])([H])C([H])([H])C([H])([H])C([H])(n5nc(-c6c([H])c([H])c(Oc7c([H])c([H])c(F)c([H])c7F)c([H])c6[H])c(C(=O)N([H])[H])c5N([H])[H])C4([H])[H])c([H])c3[H])c([H])c([H])c2C1([H])[H]

$$$$
90:0:0
     RDKit          3D

100109  0  0  1  0  0  0  0  0999 V2000
  -34.7190  -25.7500   20.0700 C   0  0  0  0  0  2  0  0  0  0  0  0
  -33.2450  -25.7590   20.4430 C   0  0  0  0  0  2  0  0  0  0  0  0
  -34.3290  -24.9980   18.8000 C   0  0  0  0  0  2  0  0  0  0  0  0
  -32.9610  -24.6250   19.4290 C   0  0  2  0  0  0  0  0  0  0  0  0
  -31.7230  -24.8800   18.5130 C   0  0  0  0  0  2  0  0  0  0  0  0
  -29.1870  -22.1290   17.6710 C   0  0  0  0  0  3  0  0  0  0  0  0
  -28.3280  -22.1500   18.7810 C   0  0  0  0  0  3  0  0  0  0  0  0
  -30.2570  -23.0390   17.5950 C   0  0  0  0  0  3  0  0  0  0  0  0
  -28.5410  -23.0840   19.8120 C   0  0  0  0  0  3  0  0  0  0  0  0
  -30.5090  -23.9550   18.6430 C   0  0  0  0  0  0  0  0  0  0  0  0
  -29.6230  -23.9920   19.7570 C   0  0  0  0  0  0  0  0  0  0  0  0
  -29.8160  -24.9420   20.9370 C   0  0  0  0  0  2  0  0  0  0  0  0
  -28.6440  -25.9070   21.1730 C   0  0  0  0  0  2  0  0  0  0  0  0
  -28.4320  -26.7080   20.0190 O   0  0  0  0  0  0  0  0  0  0  0  0
  -24.6760  -31.8430   23.2020 C   0  0  0  0  0  0  0  0  0  0  0  0
  -27.2740  -27.4280   20.0800 C   0  0  0  0  0  0  0  0  0  0  0  0
  -23.4440  -30.4520   21.5660 C   0  0  0  0  0  3  0  0  0  0  0  0
  -24.8760  -28.9060   20.1280 C   0  0  0  0  0  0  0  0  0  0  0  0
  -25.9660  -30.8000   21.3440 C   0  0  0  0  0  2  0  0  0  0  0  0
  -26.0380  -29.4320   20.7090 C   0  0  0  0  0  0  0  0  0  0  0  0
  -27.2400  -28.6950   20.6950 C   0  0  0  0  0  3  0  0  0  0  0  0
  -26.1020  -26.9030   19.5000 C   0  0  0  0  0  3  0  0  0  0  0  0
  -24.9000  -27.6340   19.5240 C   0  0  0  0  0  3  0  0  0  0  0  0
  -23.6380  -29.7690   20.1850 C   0  0  0  0  0  2  0  0  0  0  0  0
  -24.7160  -31.0460   22.0960 N   0  0  0  0  0  0  0  0  0  0  0  0
  -23.6020  -32.1180   23.7550 O   0  0  0  0  0  0  0  0  0  0  0  0
  -22.7990  -29.4330   22.5330 C   0  0  0  0  0  0  0  0  0  0  0  0
  -21.4710  -29.2620   22.4210 N   0  0  0  0  0  0  0  0  0  0  0  0
  -23.4880  -28.8000   23.3360 O   0  0  0  0  0  0  0  0  0  0  0  0
  -20.9740  -29.8280   21.7470 H   0  0  0  0  0  0  0  0  0  0  0  0
  -18.0960  -28.0910   22.9470 C   0  0  0  0  0  0  0  0  0  0  0  0
  -20.6570  -28.3260   23.1960 C   0  0  0  0  0  3  0  0  0  0  0  0
  -20.7440  -26.8970   22.6130 C   0  0  0  0  0  2  0  0  0  0  0  0
  -19.6300  -26.5860   21.6090 C   0  0  0  0  0  2  0  0  0  0  0  0
  -18.2560  -26.7420   22.2660 C   0  0  0  0  0  2  0  0  0  0  0  0
  -19.2240  -28.8430   23.3690 C   0  0  0  0  0  0  0  0  0  0  0  0
  -19.0220  -30.1070   23.9620 C   0  0  0  0  0  3  0  0  0  0  0  0
  -17.7230  -30.6200   24.1400 C   0  0  0  0  0  3  0  0  0  0  0  0
  -16.6100  -29.8650   23.7330 C   0  0  0  0  0  3  0  0  0  0  0  0
  -16.7950  -28.6030   23.1400 C   0  0  0  0  0  3  0  0  0  0  0  0
  -25.9750  -32.4620   23.8090 C   0  0  0  0  0  3  0  0  0  0  0  0
  -25.6760  -33.8560   24.1610 N   0  0  0  0  0  0  0  0  0  0  0  0
  -26.0010  -34.9140   23.4100 C   0  0  0  0  0  0  0  0  0  0  0  0
  -26.6560  -34.8230   22.3670 O   0  0  0  0  0  0  0  0  0  0  0  0
  -25.0950  -34.0030   24.9760 H   0  0  0  0  0  0  0  0  0  0  0  0
  -24.2720  -36.7130   23.0940 C   0  0  0  0  0  1  0  0  0  0  0  0
  -25.5220  -36.2990   23.8870 C   0  0  0  0  0  3  0  0  0  0  0  0
  -27.6750  -37.1650   24.6930 C   0  0  0  0  0  1  0  0  0  0  0  0
  -26.5530  -37.3520   23.7750 N   0  0  0  0  0  0  0  0  0  0  0  0
  -26.1510  -38.2690   23.9440 H   0  0  0  0  0  0  0  0  0  0  0  0
  -26.5120  -31.6710   25.0640 C   0  0  1  0  0  0  0  0  0  0  0  0
  -25.4400  -31.4270   26.1510 C   0  0  0  0  0  1  0  0  0  0  0  0
  -27.0820  -30.2980   24.6390 C   0  0  0  0  0  1  0  0  0  0  0  0
  -27.6790  -32.4520   25.7130 C   0  0  0  0  0  1  0  0  0  0  0  0
  -32.9510  -23.2330   20.0930 C   0  0  0  0  0  2  0  0  0  0  0  0
  -33.0720  -22.0210   19.1490 C   0  0  0  0  0  2  0  0  0  0  0  0
  -33.7570  -20.8340   19.8350 C   0  0  0  0  0  2  0  0  0  0  0  0
  -32.9610  -20.2410   21.0110 C   0  0  0  0  0  2  0  0  0  0  0  0
  -31.6230  -19.6130   20.5930 C   0  0  0  0  0  2  0  0  0  0  0  0
  -30.9300  -18.8930   21.7650 C   0  0  0  0  0  2  0  0  0  0  0  0
  -29.9410  -17.8000   21.3260 C   0  0  0  0  0  2  0  0  0  0  0  0
  -30.6600  -16.7350   20.4840 C   0  0  0  0  0  2  0  0  0  0  0  0
  -30.7920  -14.3200   20.1850 C   0  0  0  0  0  0  0  0  0  0  0  0
  -30.3390  -12.2040   19.0400 C   0  0  0  0  0  2  0  0  0  0  0  0
  -29.3860  -12.5370   17.8770 C   0  0  0  0  0  2  0  0  0  0  0  0
  -27.9180  -12.4700   18.3450 C   0  0  0  0  0  2  0  0  0  0  0  0
  -27.6670  -13.2580   19.6610 C   0  0  0  0  0  3  0  0  0  0  0  0
  -28.7500  -12.9380   20.7170 C   0  0  0  0  0  2  0  0  0  0  0  0
  -30.0690  -13.1770   20.1060 N   0  0  0  0  0  0  0  0  0  0  0  0
  -31.9080  -14.4550   19.6710 O   0  0  0  0  0  0  0  0  0  0  0  0
  -30.1430  -15.3810   20.6740 N   0  0  0  0  0  0  0  0  0  0  0  0
  -29.2200  -15.2440   21.0490 H   0  0  0  0  0  0  0  0  0  0  0  0
  -25.3000  -13.9250   20.4250 C   0  0  0  0  0  0  0  0  0  0  0  0
  -24.2250  -13.1790   20.8270 C   0  0  0  0  0  0  0  0  0  0  0  0
  -24.6530  -11.8170   20.7900 C   0  0  0  0  0  0  0  0  0  0  0  0
  -26.3200  -13.0200   20.1750 N   0  0  0  0  0  0  0  0  0  0  0  0
  -25.9320  -11.7470   20.4440 N   0  0  0  0  0  0  0  0  0  0  0  0
  -23.9030  -10.5710   21.0040 C   0  0  0  0  0  0  0  0  0  0  0  0
  -24.3480   -9.5850   21.9110 C   0  0  0  0  0  3  0  0  0  0  0  0
  -23.5970   -8.4070   22.1100 C   0  0  0  0  0  3  0  0  0  0  0  0
  -22.3900   -8.2040   21.4010 C   0  0  0  0  0  0  0  0  0  0  0  0
  -21.9620   -9.1810   20.4840 C   0  0  0  0  0  3  0  0  0  0  0  0
  -22.7120  -10.3510   20.2830 C   0  0  0  0  0  3  0  0  0  0  0  0
  -21.6090   -7.0780   21.5130 O   0  0  0  0  0  0  0  0  0  0  0  0
  -21.5980   -6.3200   22.6560 C   0  0  0  0  0  0  0  0  0  0  0  0
  -21.2660   -6.8720   23.9140 C   0  0  0  0  0  3  0  0  0  0  0  0
  -21.2020   -6.0420   25.0510 C   0  0  0  0  0  3  0  0  0  0  0  0
  -21.4560   -4.6620   24.9320 C   0  0  0  0  0  0  0  0  0  0  0  0
  -21.7780   -4.1100   23.6800 C   0  0  0  0  0  3  0  0  0  0  0  0
  -21.8460   -4.9370   22.5450 C   0  0  0  0  0  0  0  0  0  0  0  0
  -22.1370   -4.3970   21.3370 F   0  0  0  0  0  0  0  0  0  0  0  0
  -21.3870   -3.8620   26.0210 F   0  0  0  0  0  0  0  0  0  0  0  0
  -22.8490  -13.6910   21.1400 C   0  0  0  0  0  0  0  0  0  0  0  0
  -22.1340  -13.0150   22.0320 N   0  0  0  0  0  0  0  0  0  0  0  0
  -22.4190  -14.7250   20.6260 O   0  0  0  0  0  0  0  0  0  0  0  0
  -22.4980  -12.1780   22.4590 H   0  0  0  0  0  0  0  0  0  0  0  0
  -21.2130  -13.3400   22.2880 H   0  0  0  0  0  0  0  0  0  0  0  0
  -25.4890  -15.2900   20.2340 N   0  0  0  0  0  0  0  0  0  0  0  0
  -24.7330  -15.9570   20.3360 H   0  0  0  0  0  0  0  0  0  0  0  0
  -26.3320  -15.7040   19.8560 H   0  0  0  0  0  0  0  0  0  0  0  0
  1  2  1  0
  3  4  1  0
  3  1  1  0
  4 55  1  1
  4  2  1  0
  5 10  1  0
  5  4  1  0
  6  7  1  0
  7  9  2  0
  8  6  2  0
  8 10  1  0
 10 11  2  0
 11  9  1  0
 11 12  1  0
 12 13  1  0
 14 16  1  0
 14 13  1  0
 15 26  2  0
 16 21  1  0
 17 25  1  0
 17 27  1  0
 18 24  1  0
 18 20  1  0
 19 25  1  0
 20 19  1  0
 21 20  2  0
 22 23  1  0
 22 16  2  0
 23 18  2  0
 24 17  1  0
 25 15  1  0
 27 29  2  0
 28 27  1  0
 30 28  1  0
 31 40  2  0
 31 36  1  0
 32 28  1  0
 32 36  1  0
 33 32  1  0
 34 35  1  0
 34 33  1  0
 35 31  1  0
 36 37  2  0
 37 38  1  0
 39 38  2  0
 40 39  1  0
 41 15  1  0
 41 42  1  0
 41 51  1  0
 42 45  1  0
 43 47  1  0
 43 42  1  0
 44 43  2  0
 47 46  1  0
 49 47  1  0
 49 50  1  0
 49 48  1  0
 51 54  1  1
 51 52  1  0
 53 51  1  0
 56 57  1  0
 56 55  1  0
 57 58  1  0
 59 58  1  0
 59 60  1  0
 61 60  1  0
 62 71  1  0
 62 61  1  0
 63 71  1  0
 64 69  1  0
 65 66  1  0
 65 64  1  0
 67 66  1  0
 67 76  1  0
 67 68  1  0
 69 63  1  0
 69 68  1  0
 70 63  2  0
 71 72  1  0
 73 74  2  0
 74 93  1  0
 75 74  1  0
 75 78  1  0
 76 73  1  0
 76 77  1  0
 77 75  2  0
 78 79  1  0
 79 80  2  0
 81 84  1  0
 81 80  1  0
 82 81  2  0
 83 82  1  0
 83 78  2  0
 84 85  1  0
 85 86  1  0
 86 87  2  0
 88 87  1  0
 88 92  1  0
 89 88  2  0
 90 85  2  0
 90 89  1  0
 91 90  1  0
 93 94  1  0
 94 97  1  0
 94 96  1  0
 95 93  2  0
 98 99  1  0
 98 73  1  0
100 98  1  0
M  ISO  4  13 101  14 101  63 100  71 100
M  END
>  <TORSDO>  (91) 
F 28

>  <SCORE>  (91) 
-11.266

>  <name>  (91) 
90

>  <ligand_id>  (91) 
90

>  <original_smiles>  (91) 
[H]c1c([H])c([H])c(C([H])([H])C2(C([H])([H])C([H])([H])C([H])([H])C([H])([H])C([H])([H])C([H])([H])C([H])([H])C([H])([H])N([H])C(=O)N3C([H])([H])C([H])([H])C([H])([H])C([H])(n4nc(-c5c([H])c([H])c(Oc6c([H])c([H])c(F)c([H])c6F)c([H])c5[H])c(C(=O)N([H])[H])c4N([H])[H])C3([H])[H])C([H])([H])C([H])([H])C2([H])[H])c(C([H])([H])C([H])([H])Oc2c([H])c([H])c3c(c2[H])C([H])([H])N(C(=O)C([H])(N([H])C(=O)C([H])(N([H])C([H])([H])[H])C([H])([H])[H])C(C([H])([H])[H])(C([H])([H])[H])C([H])([H])[H])C([H])(C(=O)N([H])C2([H])c4c([H])c([H])c([H])c([H])c4C([H])([H])C([H])([H])C2([H])[H])C3([H])[H])c1[H]

>  <smiles>  (91) 
[H]c1c([H])c([H])c(C([H])([H])C2(C([H])([H])C([H])([H])C([H])([H])C([H])([H])C([H])([H])C([H])([H])C([H])([H])C([H])([H])N([H])C(=O)N3C([H])([H])C([H])([H])C([H])([H])C([H])(n4nc(-c5c([H])c([H])c(Oc6c([H])c([H])c(F)c([H])c6F)c([H])c5[H])c(C(=O)N([H])[H])c4N([H])[H])C3([H])[H])C([H])([H])C([H])([H])C2([H])[H])c(C([H])([H])C([H])([H])Oc2c([H])c([H])c3c(c2[H])C([H])([H])N(C(=O)C([H])(N([H])C(=O)C([H])(N([H])C([H])([H])[H])C([H])([H])[H])C(C([H])([H])[H])(C([H])([H])[H])C([H])([H])[H])C([H])(C(=O)N([H])C2([H])c4c([H])c([H])c([H])c([H])c4C([H])([H])C([H])([H])C2([H])[H])C3([H])[H])c1[H]

$$$$
91:0:0
     RDKit          3D

 94103  0  0  1  0  0  0  0  0999 V2000
  -28.3420  -19.8040   17.5610 C   0  0  0  0  0  3  0  0  0  0  0  0
  -26.6630  -19.2650   19.2460 C   0  0  0  0  0  3  0  0  0  0  0  0
  -27.5470  -20.8660   17.1030 C   0  0  0  0  0  3  0  0  0  0  0  0
  -25.8750  -20.3410   18.8000 C   0  0  0  0  0  3  0  0  0  0  0  0
  -27.9350  -19.0350   18.6750 C   0  0  0  0  0  0  0  0  0  0  0  0
  -26.3530  -21.1840   17.7770 C   0  0  0  0  0  0  0  0  0  0  0  0
  -30.8330  -14.4570   20.5050 C   0  0  0  0  0  0  0  0  0  0  0  0
  -30.4840  -12.3240   19.3810 C   0  0  0  0  0  2  0  0  0  0  0  0
  -29.5400  -12.5650   18.1830 C   0  0  0  0  0  2  0  0  0  0  0  0
  -28.0690  -12.4250   18.6220 C   0  0  0  0  0  2  0  0  0  0  0  0
  -27.7330  -13.2620   19.8850 C   0  0  0  0  0  3  0  0  0  0  0  0
  -28.7980  -13.0570   20.9900 C   0  0  0  0  0  2  0  0  0  0  0  0
  -30.1240  -13.3070   20.4060 N   0  0  0  0  0  0  0  0  0  0  0  0
  -32.0520  -14.5130   20.3170 O   0  0  0  0  0  0  0  0  0  0  0  0
  -28.4880  -17.3620   20.5860 C   0  0  0  0  0  2  0  0  0  0  0  0
  -29.4130  -17.0090   18.2820 C   0  0  0  0  0  2  0  0  0  0  0  0
  -29.5940  -16.4520   21.1610 C   0  0  0  0  0  2  0  0  0  0  0  0
  -30.5580  -16.2210   18.9150 C   0  0  0  0  0  2  0  0  0  0  0  0
  -28.9350  -18.0620   19.2850 C   0  0  0  0  0  3  0  0  0  0  0  0
  -30.1090  -15.5330   20.1390 N   0  0  0  0  0  0  0  0  0  0  0  0
  -25.3320  -13.8510   20.6000 C   0  0  0  0  0  0  0  0  0  0  0  0
  -24.2660  -13.0730   20.9580 C   0  0  0  0  0  0  0  0  0  0  0  0
  -24.7310  -11.7230   20.9120 C   0  0  0  0  0  0  0  0  0  0  0  0
  -26.3840  -12.9790   20.3670 N   0  0  0  0  0  0  0  0  0  0  0  0
  -26.0240  -11.6930   20.6140 N   0  0  0  0  0  0  0  0  0  0  0  0
  -24.0080  -10.4580   21.0780 C   0  0  0  0  0  0  0  0  0  0  0  0
  -24.4150   -9.4940   22.0260 C   0  0  0  0  0  3  0  0  0  0  0  0
  -23.6910   -8.2920   22.1810 C   0  0  0  0  0  3  0  0  0  0  0  0
  -22.5460   -8.0460   21.3860 C   0  0  0  0  0  0  0  0  0  0  0  0
  -22.1580   -8.9990   20.4280 C   0  0  0  0  0  3  0  0  0  0  0  0
  -22.8830  -10.1930   20.2720 C   0  0  0  0  0  3  0  0  0  0  0  0
  -21.7970   -6.8970   21.4510 O   0  0  0  0  0  0  0  0  0  0  0  0
  -21.6810   -6.1770   22.6130 C   0  0  0  0  0  0  0  0  0  0  0  0
  -21.1370   -6.7410   23.7870 C   0  0  0  0  0  3  0  0  0  0  0  0
  -20.9720   -5.9460   24.9390 C   0  0  0  0  0  3  0  0  0  0  0  0
  -21.3440   -4.5880   24.9170 C   0  0  0  0  0  0  0  0  0  0  0  0
  -21.8820   -4.0240   23.7470 C   0  0  0  0  0  3  0  0  0  0  0  0
  -22.0470   -4.8170   22.5970 C   0  0  0  0  0  0  0  0  0  0  0  0
  -22.5470   -4.2640   21.4660 F   0  0  0  0  0  0  0  0  0  0  0  0
  -21.1790   -3.8210   26.0190 F   0  0  0  0  0  0  0  0  0  0  0  0
  -22.8650  -13.5450   21.2270 C   0  0  0  0  0  0  0  0  0  0  0  0
  -22.1360  -12.8370   22.0820 N   0  0  0  0  0  0  0  0  0  0  0  0
  -22.4270  -14.5730   20.7150 O   0  0  0  0  0  0  0  0  0  0  0  0
  -22.5020  -12.0040   22.5170 H   0  0  0  0  0  0  0  0  0  0  0  0
  -21.1970  -13.1360   22.3080 H   0  0  0  0  0  0  0  0  0  0  0  0
  -25.4830  -15.2210   20.4290 N   0  0  0  0  0  0  0  0  0  0  0  0
  -24.6990  -15.8600   20.4980 H   0  0  0  0  0  0  0  0  0  0  0  0
  -26.3170  -15.6470   20.0480 H   0  0  0  0  0  0  0  0  0  0  0  0
  -25.7330  -22.5480   17.5820 C   0  0  0  0  0  2  0  0  0  0  0  0
  -26.2580  -23.4590   18.6750 C   0  0  0  0  0  3  0  0  0  0  0  0
  -27.5690  -23.6940   18.8750 C   0  0  0  0  0  3  0  0  0  0  0  0
  -28.1500  -24.5290   19.9910 C   0  0  0  0  0  2  0  0  0  0  0  0
  -28.8100  -25.8060   19.4470 C   0  0  0  0  0  2  0  0  0  0  0  0
  -28.6020  -26.8980   20.3300 O   0  0  0  0  0  0  0  0  0  0  0  0
  -24.6180  -31.9700   23.2710 C   0  0  0  0  0  0  0  0  0  0  0  0
  -27.3840  -27.5440   20.2960 C   0  0  0  0  0  0  0  0  0  0  0  0
  -23.4600  -30.5240   21.6310 C   0  0  0  0  0  3  0  0  0  0  0  0
  -24.9540  -28.9860   20.2630 C   0  0  0  0  0  0  0  0  0  0  0  0
  -25.9780  -30.9180   21.4730 C   0  0  0  0  0  2  0  0  0  0  0  0
  -26.0910  -29.5380   20.8670 C   0  0  0  0  0  0  0  0  0  0  0  0
  -27.3010  -28.8160   20.8960 C   0  0  0  0  0  3  0  0  0  0  0  0
  -26.2250  -27.0060   19.6850 C   0  0  0  0  0  3  0  0  0  0  0  0
  -25.0120  -27.7130   19.6770 C   0  0  0  0  0  3  0  0  0  0  0  0
  -23.7000  -29.8240   20.2680 C   0  0  0  0  0  2  0  0  0  0  0  0
  -24.7020  -31.1520   22.1850 N   0  0  0  0  0  0  0  0  0  0  0  0
  -23.5240  -32.2380   23.7870 O   0  0  0  0  0  0  0  0  0  0  0  0
  -22.8050  -29.5100   22.5960 C   0  0  0  0  0  0  0  0  0  0  0  0
  -21.4840  -29.3180   22.4530 N   0  0  0  0  0  0  0  0  0  0  0  0
  -23.4810  -28.8980   23.4270 O   0  0  0  0  0  0  0  0  0  0  0  0
  -21.0010  -29.8680   21.7560 H   0  0  0  0  0  0  0  0  0  0  0  0
  -18.0990  -28.1570   22.9590 C   0  0  0  0  0  0  0  0  0  0  0  0
  -20.6590  -28.3860   23.2230 C   0  0  0  0  0  3  0  0  0  0  0  0
  -20.7460  -26.9560   22.6450 C   0  0  0  0  0  2  0  0  0  0  0  0
  -19.6390  -26.6460   21.6330 C   0  0  0  0  0  2  0  0  0  0  0  0
  -18.2600  -26.8050   22.2830 C   0  0  0  0  0  2  0  0  0  0  0  0
  -19.2290  -28.9050   23.3860 C   0  0  0  0  0  0  0  0  0  0  0  0
  -19.0280  -30.1720   23.9770 C   0  0  0  0  0  3  0  0  0  0  0  0
  -17.7320  -30.6890   24.1500 C   0  0  0  0  0  3  0  0  0  0  0  0
  -16.6170  -29.9380   23.7410 C   0  0  0  0  0  3  0  0  0  0  0  0
  -16.8010  -28.6750   23.1520 C   0  0  0  0  0  3  0  0  0  0  0  0
  -25.8870  -32.6250   23.9010 C   0  0  0  0  0  3  0  0  0  0  0  0
  -26.3960  -31.8800   25.1960 C   0  0  1  0  0  0  0  0  0  0  0  0
  -25.2900  -31.6330   26.2470 C   0  0  0  0  0  1  0  0  0  0  0  0
  -27.0150  -30.5100   24.8310 C   0  0  0  0  0  1  0  0  0  0  0  0
  -27.5190  -32.7020   25.8690 C   0  0  0  0  0  1  0  0  0  0  0  0
  -25.5620  -34.0260   24.1980 N   0  0  0  0  0  0  0  0  0  0  0  0
  -25.8980  -35.0650   23.4210 C   0  0  0  0  0  0  0  0  0  0  0  0
  -26.5850  -34.9470   22.4030 O   0  0  0  0  0  0  0  0  0  0  0  0
  -24.9550  -34.1920   24.9870 H   0  0  0  0  0  0  0  0  0  0  0  0
  -24.1660  -36.8340   22.9840 C   0  0  0  0  0  1  0  0  0  0  0  0
  -25.3860  -36.4570   23.8380 C   0  0  0  0  0  3  0  0  0  0  0  0
  -27.4870  -37.3740   24.7170 C   0  0  0  0  0  1  0  0  0  0  0  0
  -26.4130  -37.5180   23.7390 N   0  0  0  0  0  0  0  0  0  0  0  0
  -25.9950  -38.4360   23.8630 H   0  0  0  0  0  0  0  0  0  0  0  0
  1  5  1  0
  3  1  2  0
  3  6  1  0
  4  2  1  0
  5  2  2  0
  6  4  2  0
  8 13  1  0
  9 10  1  0
  9  8  1  0
 11 10  1  0
 11 24  1  0
 11 12  1  0
 13  7  1  0
 13 12  1  0
 14  7  2  0
 15 17  1  0
 16 18  1  0
 16 19  1  0
 18 20  1  0
 19  5  1  0
 19 15  1  0
 20  7  1  0
 20 17  1  0
 21 22  2  0
 22 41  1  0
 23 22  1  0
 23 26  1  0
 24 21  1  0
 24 25  1  0
 25 23  2  0
 26 27  1  0
 27 28  2  0
 29 32  1  0
 29 28  1  0
 30 29  2  0
 31 30  1  0
 31 26  2  0
 32 33  1  0
 33 34  1  0
 34 35  2  0
 36 35  1  0
 36 40  1  0
 37 36  2  0
 38 33  2  0
 38 37  1  0
 39 38  1  0
 41 42  1  0
 42 45  1  0
 42 44  1  0
 43 41  2  0
 46 47  1  0
 46 21  1  0
 48 46  1  0
 49  6  1  0
 49 50  1  0
 50 51  2  0
 51 52  1  0
 53 52  1  0
 53 54  1  0
 55 66  2  0
 56 54  1  0
 56 61  1  0
 57 65  1  0
 57 67  1  0
 58 64  1  0
 58 60  1  0
 59 65  1  0
 60 61  2  0
 60 59  1  0
 62 56  2  0
 63 62  1  0
 63 58  2  0
 64 57  1  0
 65 55  1  0
 67 69  2  0
 68 67  1  0
 70 68  1  0
 71 80  2  0
 71 76  1  0
 72 68  1  0
 72 76  1  0
 73 72  1  0
 74 75  1  0
 74 73  1  0
 75 71  1  0
 76 77  2  0
 77 78  1  0
 79 78  2  0
 80 79  1  0
 81 55  1  0
 81 86  1  0
 81 82  1  0
 82 85  1  1
 82 83  1  0
 84 82  1  0
 86 89  1  0
 87 91  1  0
 87 86  1  0
 88 87  2  0
 91 90  1  0
 93 91  1  0
 93 94  1  0
 93 92  1  0
M  ISO  4   7 100  20 100  53 101  54 101
M  END
>  <TORSDO>  (92) 
F 20

>  <SCORE>  (92) 
-13.024

>  <name>  (92) 
91

>  <ligand_id>  (92) 
91

>  <original_smiles>  (92) 
[H]C(=C([H])C([H])([H])C([H])([H])Oc1c([H])c([H])c2c(c1[H])C([H])([H])N(C(=O)C([H])(N([H])C(=O)C([H])(N([H])C([H])([H])[H])C([H])([H])[H])C(C([H])([H])[H])(C([H])([H])[H])C([H])([H])[H])C([H])(C(=O)N([H])C1([H])c3c([H])c([H])c([H])c([H])c3C([H])([H])C([H])([H])C1([H])[H])C2([H])[H])C([H])([H])c1c([H])c([H])c(C2([H])C([H])([H])C([H])([H])N(C(=O)N3C([H])([H])C([H])([H])C([H])([H])C([H])(n4nc(-c5c([H])c([H])c(Oc6c([H])c([H])c(F)c([H])c6F)c([H])c5[H])c(C(=O)N([H])[H])c4N([H])[H])C3([H])[H])C([H])([H])C2([H])[H])c([H])c1[H]

>  <smiles>  (92) 
[H]C(=C([H])C([H])([H])C([H])([H])Oc1c([H])c([H])c2c(c1[H])C([H])([H])N(C(=O)C([H])(N([H])C(=O)C([H])(N([H])C([H])([H])[H])C([H])([H])[H])C(C([H])([H])[H])(C([H])([H])[H])C([H])([H])[H])C([H])(C(=O)N([H])C1([H])c3c([H])c([H])c([H])c([H])c3C([H])([H])C([H])([H])C1([H])[H])C2([H])[H])C([H])([H])c1c([H])c([H])c(C2([H])C([H])([H])C([H])([H])N(C(=O)N3C([H])([H])C([H])([H])C([H])([H])C([H])(n4nc(-c5c([H])c([H])c(Oc6c([H])c([H])c(F)c([H])c6F)c([H])c5[H])c(C(=O)N([H])[H])c4N([H])[H])C3([H])[H])C([H])([H])C2([H])[H])c([H])c1[H]

$$$$
92:0:0
     RDKit          3D

 97106  0  0  1  0  0  0  0  0999 V2000
  -30.3950  -21.3890   23.7640 C   0  0  0  0  0  3  0  0  0  0  0  0
  -29.9670  -20.2920   22.9930 C   0  0  0  0  0  3  0  0  0  0  0  0
  -30.7990  -22.5820   23.1350 C   0  0  0  0  0  3  0  0  0  0  0  0
  -30.3180  -21.5980   20.9610 C   0  0  0  0  0  3  0  0  0  0  0  0
  -29.9470  -20.3830   21.5870 C   0  0  0  0  0  0  0  0  0  0  0  0
  -30.7440  -22.7090   21.7280 C   0  0  0  0  0  0  0  0  0  0  0  0
  -29.5270  -19.1730   20.7570 C   0  0  0  0  0  2  0  0  0  0  0  0
  -32.2620  -17.9370   19.5510 C   0  0  0  0  0  2  0  0  0  0  0  0
  -31.8420  -18.0400   21.0220 C   0  0  0  0  0  2  0  0  0  0  0  0
  -31.1090  -17.2280   18.8220 C   0  0  0  0  0  2  0  0  0  0  0  0
  -30.3160  -17.8590   21.0400 C   0  0  0  0  0  3  0  0  0  0  0  0
  -30.0890  -16.8290   19.9130 C   0  0  0  0  0  3  0  0  0  0  0  0
  -30.9430  -14.4000   20.0570 C   0  0  0  0  0  0  0  0  0  0  0  0
  -30.6640  -12.1710   19.0690 C   0  0  0  0  0  2  0  0  0  0  0  0
  -29.6590  -12.3160   17.9050 C   0  0  0  0  0  2  0  0  0  0  0  0
  -28.2080  -12.1700   18.4090 C   0  0  0  0  0  2  0  0  0  0  0  0
  -27.9150  -13.0510   19.6530 C   0  0  0  0  0  3  0  0  0  0  0  0
  -29.0310  -12.8970   20.7160 C   0  0  0  0  0  2  0  0  0  0  0  0
  -30.3210  -13.1930   20.0690 N   0  0  0  0  0  0  0  0  0  0  0  0
  -32.0660  -14.5680   19.5790 O   0  0  0  0  0  0  0  0  0  0  0  0
  -30.1290  -15.4250   20.3790 N   0  0  0  0  0  0  0  0  0  0  0  0
  -29.2740  -15.1160   20.8160 H   0  0  0  0  0  0  0  0  0  0  0  0
  -25.5840  -13.6630   20.5590 C   0  0  0  0  0  0  0  0  0  0  0  0
  -24.5290  -12.8910   20.9630 C   0  0  0  0  0  0  0  0  0  0  0  0
  -24.9580  -11.5340   20.8280 C   0  0  0  0  0  0  0  0  0  0  0  0
  -26.5930  -12.7770   20.2100 N   0  0  0  0  0  0  0  0  0  0  0  0
  -26.2220  -11.4890   20.4250 N   0  0  0  0  0  0  0  0  0  0  0  0
  -24.2210  -10.2770   21.0030 C   0  0  0  0  0  0  0  0  0  0  0  0
  -24.6270   -9.3100   21.9480 C   0  0  0  0  0  3  0  0  0  0  0  0
  -23.8940   -8.1150   22.1120 C   0  0  0  0  0  3  0  0  0  0  0  0
  -22.7390   -7.8810   21.3300 C   0  0  0  0  0  0  0  0  0  0  0  0
  -22.3510   -8.8360   20.3740 C   0  0  0  0  0  3  0  0  0  0  0  0
  -23.0860  -10.0220   20.2090 C   0  0  0  0  0  3  0  0  0  0  0  0
  -21.9780   -6.7380   21.4000 O   0  0  0  0  0  0  0  0  0  0  0  0
  -21.8140   -6.0540   22.5780 C   0  0  0  0  0  0  0  0  0  0  0  0
  -21.1480   -6.6260   23.6840 C   0  0  0  0  0  3  0  0  0  0  0  0
  -20.9420   -5.8640   24.8520 C   0  0  0  0  0  3  0  0  0  0  0  0
  -21.3880   -4.5300   24.9110 C   0  0  0  0  0  0  0  0  0  0  0  0
  -22.0450   -3.9580   23.8080 C   0  0  0  0  0  3  0  0  0  0  0  0
  -22.2550   -4.7170   22.6430 C   0  0  0  0  0  0  0  0  0  0  0  0
  -22.8710   -4.1540   21.5760 F   0  0  0  0  0  0  0  0  0  0  0  0
  -21.1820   -3.7950   26.0300 F   0  0  0  0  0  0  0  0  0  0  0  0
  -23.1650  -13.3760   21.3600 C   0  0  0  0  0  0  0  0  0  0  0  0
  -22.4850  -12.6450   22.2360 N   0  0  0  0  0  0  0  0  0  0  0  0
  -22.7110  -14.4360   20.9290 O   0  0  0  0  0  0  0  0  0  0  0  0
  -22.8690  -11.7900   22.6110 H   0  0  0  0  0  0  0  0  0  0  0  0
  -21.5670  -12.9460   22.5370 H   0  0  0  0  0  0  0  0  0  0  0  0
  -25.7660  -15.0400   20.4390 N   0  0  0  0  0  0  0  0  0  0  0  0
  -25.0210  -15.7010   20.6250 H   0  0  0  0  0  0  0  0  0  0  0  0
  -26.5970  -15.4760   20.0590 H   0  0  0  0  0  0  0  0  0  0  0  0
  -31.2450  -23.9880   21.0390 C   0  0  0  0  0  2  0  0  0  0  0  0
  -30.0910  -25.5220   22.6340 C   0  0  0  0  0  1  0  0  0  0  0  0
  -30.4170  -25.2190   21.2200 N   0  0  2  0  0  4  0  0  0  0  0  0
  -31.0450  -25.9600   20.9400 H   0  0  0  0  0  0  0  0  0  0  0  0
  -29.2500  -25.3170   20.2970 C   0  0  0  0  0  2  0  0  0  0  0  0
  -28.5900  -26.7180   20.2680 C   0  0  0  0  0  2  0  0  0  0  0  0
  -27.4660  -26.6580   19.4010 O   0  0  0  0  0  0  0  0  0  0  0  0
  -24.4660  -31.9900   23.1430 C   0  0  0  0  0  0  0  0  0  0  0  0
  -26.4140  -27.5090   19.6450 C   0  0  0  0  0  0  0  0  0  0  0  0
  -22.9740  -30.7220   21.6330 C   0  0  0  0  0  3  0  0  0  0  0  0
  -24.1370  -29.1420   20.0040 C   0  0  0  0  0  0  0  0  0  0  0  0
  -25.4710  -30.9360   21.1220 C   0  0  0  0  0  2  0  0  0  0  0  0
  -25.3910  -29.5780   20.4560 C   0  0  0  0  0  0  0  0  0  0  0  0
  -26.5350  -28.7670   20.2820 C   0  0  0  0  0  3  0  0  0  0  0  0
  -25.1480  -27.0870   19.1920 C   0  0  0  0  0  3  0  0  0  0  0  0
  -24.0090  -27.8910   19.3750 C   0  0  0  0  0  3  0  0  0  0  0  0
  -22.9650  -30.0720   20.2220 C   0  0  0  0  0  2  0  0  0  0  0  0
  -24.3310  -31.2250   22.0230 N   0  0  0  0  0  0  0  0  0  0  0  0
  -23.4800  -32.3140   23.8220 O   0  0  0  0  0  0  0  0  0  0  0  0
  -22.3800  -29.7150   22.6430 C   0  0  0  0  0  0  0  0  0  0  0  0
  -21.0550  -29.5060   22.5690 N   0  0  0  0  0  0  0  0  0  0  0  0
  -23.1040  -29.1220   23.4460 O   0  0  0  0  0  0  0  0  0  0  0  0
  -20.5310  -30.0340   21.8860 H   0  0  0  0  0  0  0  0  0  0  0  0
  -17.7570  -28.1340   23.0920 C   0  0  0  0  0  0  0  0  0  0  0  0
  -20.2850  -28.5740   23.3900 C   0  0  0  0  0  3  0  0  0  0  0  0
  -20.4910  -27.1160   22.9190 C   0  0  0  0  0  2  0  0  0  0  0  0
  -19.4350  -26.6530   21.9100 C   0  0  0  0  0  2  0  0  0  0  0  0
  -18.0330  -26.7540   22.5190 C   0  0  0  0  0  2  0  0  0  0  0  0
  -18.8140  -28.9930   23.4860 C   0  0  0  0  0  0  0  0  0  0  0  0
  -18.5050  -30.2800   23.9790 C   0  0  0  0  0  3  0  0  0  0  0  0
  -17.1680  -30.7070   24.0860 C   0  0  0  0  0  3  0  0  0  0  0  0
  -16.1240  -29.8460   23.7090 C   0  0  0  0  0  3  0  0  0  0  0  0
  -16.4180  -28.5610   23.2160 C   0  0  0  0  0  3  0  0  0  0  0  0
  -25.8590  -32.5140   23.6150 C   0  0  0  0  0  3  0  0  0  0  0  0
  -25.6860  -33.9110   24.0330 N   0  0  0  0  0  0  0  0  0  0  0  0
  -26.1030  -34.9720   23.3280 C   0  0  0  0  0  0  0  0  0  0  0  0
  -26.7460  -34.8700   22.2800 O   0  0  0  0  0  0  0  0  0  0  0  0
  -25.1140  -34.0700   24.8490 H   0  0  0  0  0  0  0  0  0  0  0  0
  -24.5830  -36.9610   23.0710 C   0  0  0  0  0  1  0  0  0  0  0  0
  -25.7510  -36.3690   23.8740 C   0  0  0  0  0  3  0  0  0  0  0  0
  -27.9370  -36.9660   24.8190 C   0  0  0  0  0  1  0  0  0  0  0  0
  -26.8920  -37.3110   23.8600 N   0  0  0  0  0  0  0  0  0  0  0  0
  -26.5790  -38.2570   24.0600 H   0  0  0  0  0  0  0  0  0  0  0  0
  -26.4820  -31.6520   24.7810 C   0  0  1  0  0  0  0  0  0  0  0  0
  -25.5130  -31.4160   25.9640 C   0  0  0  0  0  1  0  0  0  0  0  0
  -26.9330  -30.2690   24.2560 C   0  0  0  0  0  1  0  0  0  0  0  0
  -27.7400  -32.3560   25.3400 C   0  0  0  0  0  1  0  0  0  0  0  0
  2  1  2  0
  3  1  1  0
  4  5  2  0
  4  6  1  0
  5  2  1  0
  6  3  2  0
  7  5  1  0
  8  9  1  0
  9 11  1  0
 10  8  1  0
 10 12  1  0
 11  7  1  0
 12 21  1  0
 12 11  1  0
 13 19  1  0
 13 21  1  0
 14 19  1  0
 15 16  1  0
 15 14  1  0
 17 16  1  0
 17 26  1  0
 17 18  1  0
 19 18  1  0
 20 13  2  0
 21 22  1  0
 23 24  2  0
 24 43  1  0
 25 24  1  0
 25 28  1  0
 26 27  1  0
 26 23  1  0
 27 25  2  0
 28 29  1  0
 29 30  2  0
 31 34  1  0
 31 30  1  0
 32 31  2  0
 33 32  1  0
 33 28  2  0
 34 35  1  0
 35 40  2  0
 35 36  1  0
 36 37  2  0
 37 38  1  0
 38 42  1  0
 39 38  2  0
 40 39  1  0
 41 40  1  0
 43 44  1  0
 44 47  1  0
 44 46  1  0
 45 43  2  0
 48 23  1  0
 48 49  1  0
 50 48  1  0
 51 53  1  0
 51  6  1  0
 53 52  1  0
 53 54  1  6
 55 53  1  0
 56 55  1  0
 57 59  1  0
 57 56  1  0
 58 69  2  0
 59 64  1  0
 60 68  1  0
 60 70  1  0
 61 67  1  0
 61 63  1  0
 62 68  1  0
 63 62  1  0
 64 63  2  0
 65 66  1  0
 65 59  2  0
 66 61  2  0
 67 60  1  0
 68 58  1  0
 70 72  2  0
 71 70  1  0
 73 71  1  0
 74 83  2  0
 74 79  1  0
 75 71  1  0
 75 79  1  0
 76 75  1  0
 77 78  1  0
 77 76  1  0
 78 74  1  0
 79 80  2  0
 80 81  1  0
 82 81  2  0
 83 82  1  0
 84 58  1  0
 84 85  1  0
 84 94  1  0
 85 88  1  0
 86 90  1  0
 86 85  1  0
 87 86  2  0
 90 89  1  0
 92 90  1  0
 92 93  1  0
 92 91  1  0
 94 97  1  1
 94 95  1  0
 96 94  1  0
M  ISO  4  13 100  21 100  56 101  57 101
M  END
>  <TORSDO>  (93) 
F 22

>  <SCORE>  (93) 
-11.418

>  <name>  (93) 
92

>  <ligand_id>  (93) 
92

>  <original_smiles>  (93) 
[H]c1c([H])c([H])c2c(c1[H])C([H])([H])C([H])([H])C([H])([H])C2([H])N([H])C(=O)C1([H])N(C(=O)C([H])(N([H])C(=O)C([H])(N([H])C([H])([H])[H])C([H])([H])[H])C(C([H])([H])[H])(C([H])([H])[H])C([H])([H])[H])C([H])([H])c2c([H])c(OC([H])([H])C([H])([H])[N+]([H])(C([H])([H])[H])C([H])([H])c3c([H])c([H])c([H])c(C([H])([H])C4([H])C([H])([H])C([H])([H])C([H])([H])C4([H])N([H])C(=O)N4C([H])([H])C([H])([H])C([H])([H])C([H])(n5nc(-c6c([H])c([H])c(Oc7c([H])c([H])c(F)c([H])c7F)c([H])c6[H])c(C(=O)N([H])[H])c5N([H])[H])C4([H])[H])c3[H])c([H])c([H])c2C1([H])[H]

>  <smiles>  (93) 
[H]c1c([H])c([H])c2c(c1[H])C([H])([H])C([H])([H])C([H])([H])C2([H])N([H])C(=O)C1([H])N(C(=O)C([H])(N([H])C(=O)C([H])(N([H])C([H])([H])[H])C([H])([H])[H])C(C([H])([H])[H])(C([H])([H])[H])C([H])([H])[H])C([H])([H])c2c([H])c(OC([H])([H])C([H])([H])[N+]([H])(C([H])([H])[H])C([H])([H])c3c([H])c([H])c([H])c(C([H])([H])C4([H])C([H])([H])C([H])([H])C([H])([H])C4([H])N([H])C(=O)N4C([H])([H])C([H])([H])C([H])([H])C([H])(n5nc(-c6c([H])c([H])c(Oc7c([H])c([H])c(F)c([H])c7F)c([H])c6[H])c(C(=O)N([H])[H])c5N([H])[H])C4([H])[H])c3[H])c([H])c([H])c2C1([H])[H]

$$$$
93:0:0
     RDKit          3D

106115  0  0  1  0  0  0  0  0999 V2000
  -31.3740  -27.4410   21.0600 C   0  0  0  0  0  3  0  0  0  0  0  0
  -30.6210  -26.1120   18.6820 C   0  0  0  0  0  3  0  0  0  0  0  0
  -32.2220  -26.5000   20.4610 C   0  0  0  0  0  0  0  0  0  0  0  0
  -31.8360  -25.8010   19.3300 C   0  0  0  0  0  0  0  0  0  0  0  0
  -29.7580  -27.0870   19.2500 C   0  0  0  0  0  0  0  0  0  0  0  0
  -30.1070  -27.7100   20.4870 C   0  0  0  0  0  0  0  0  0  0  0  0
  -33.6000  -26.1190   20.9160 C   0  0  0  0  0  2  0  0  0  0  0  0
  -32.8640  -24.7550   18.9450 C   0  0  0  0  0  3  0  0  0  0  0  0
  -33.9740  -24.8990   20.0400 C   0  0  0  0  0  3  0  0  0  0  0  0
  -28.4800  -27.4360   18.5090 C   0  0  0  0  0  1  0  0  0  0  0  0
  -35.3930  -24.9990   19.4610 C   0  0  0  0  0  1  0  0  0  0  0  0
  -32.2540  -23.4060   18.9400 N   0  0  0  0  0  4  0  0  0  0  0  0
  -31.2790  -23.5500   19.1440 H   0  0  0  0  0  0  0  0  0  0  0  0
  -32.6260  -22.8560   19.6960 H   0  0  0  0  0  0  0  0  0  0  0  0
  -32.3110  -22.6510   17.6660 C   0  0  0  0  0  2  0  0  0  0  0  0
  -33.3320  -21.4890   17.6780 C   0  0  0  0  0  2  0  0  0  0  0  0
  -32.8230  -20.2120   16.9790 C   0  0  0  0  0  2  0  0  0  0  0  0
  -32.2230  -20.4400   15.5750 C   0  0  0  0  0  2  0  0  0  0  0  0
  -30.7560  -19.9880   15.4140 C   0  0  0  0  0  2  0  0  0  0  0  0
  -29.7410  -20.9510   16.0580 C   0  0  0  0  0  2  0  0  0  0  0  0
  -28.9740  -20.3770   17.2630 C   0  0  0  0  0  2  0  0  0  0  0  0
  -28.1210  -21.4570   17.9410 C   0  0  0  0  0  2  0  0  0  0  0  0
  -26.8930  -20.9250   18.6960 C   0  0  0  0  0  2  0  0  0  0  0  0
  -26.0800  -22.0910   19.2840 C   0  0  0  0  0  2  0  0  0  0  0  0
  -24.5890  -21.7920   19.4980 C   0  0  0  0  0  2  0  0  0  0  0  0
  -23.8210  -23.0560   19.9290 C   0  0  0  0  0  2  0  0  0  0  0  0
  -21.9210  -23.5430   18.3990 C   0  0  0  0  0  0  0  0  0  0  0  0
  -19.9110  -23.8610   17.0050 C   0  0  0  0  0  2  0  0  0  0  0  0
  -19.2720  -25.2440   17.2290 C   0  0  0  0  0  2  0  0  0  0  0  0
  -18.2880  -25.2060   18.4110 C   0  0  0  0  0  2  0  0  0  0  0  0
  -18.9090  -24.5580   19.6760 C   0  0  0  0  0  3  0  0  0  0  0  0
  -19.5970  -23.2180   19.3330 C   0  0  0  0  0  2  0  0  0  0  0  0
  -20.5740  -23.4450   18.2520 N   0  0  0  0  0  0  0  0  0  0  0  0
  -22.6630  -24.0190   17.5350 O   0  0  0  0  0  0  0  0  0  0  0  0
  -22.4140  -23.0180   19.5280 N   0  0  0  0  0  0  0  0  0  0  0  0
  -21.7560  -22.5930   20.1640 H   0  0  0  0  0  0  0  0  0  0  0  0
  -17.9190  -24.8880   22.0330 C   0  0  0  0  0  0  0  0  0  0  0  0
  -16.7210  -24.5160   22.5820 C   0  0  0  0  0  0  0  0  0  0  0  0
  -16.0180  -23.8120   21.5580 C   0  0  0  0  0  0  0  0  0  0  0  0
  -17.9110  -24.4010   20.7340 N   0  0  0  0  0  0  0  0  0  0  0  0
  -16.7730  -23.7070   20.4710 N   0  0  0  0  0  0  0  0  0  0  0  0
  -14.6500  -23.2790   21.5290 C   0  0  0  0  0  0  0  0  0  0  0  0
  -14.3780  -21.9250   21.8250 C   0  0  0  0  0  3  0  0  0  0  0  0
  -13.0510  -21.4410   21.8090 C   0  0  0  0  0  3  0  0  0  0  0  0
  -11.9810  -22.3130   21.4990 C   0  0  0  0  0  0  0  0  0  0  0  0
  -12.2600  -23.6550   21.1820 C   0  0  0  0  0  3  0  0  0  0  0  0
  -13.5800  -24.1340   21.1930 C   0  0  0  0  0  3  0  0  0  0  0  0
  -10.6650  -21.9260   21.4330 O   0  0  0  0  0  0  0  0  0  0  0  0
  -10.1790  -20.8960   22.1990 C   0  0  0  0  0  0  0  0  0  0  0  0
  -10.2440  -20.9210   23.6100 C   0  0  0  0  0  3  0  0  0  0  0  0
   -9.6700  -19.8750   24.3580 C   0  0  0  0  0  3  0  0  0  0  0  0
   -9.0220  -18.8120   23.7030 C   0  0  0  0  0  0  0  0  0  0  0  0
   -8.9510  -18.7880   22.3000 C   0  0  0  0  0  3  0  0  0  0  0  0
   -9.5250  -19.8300   21.5500 C   0  0  0  0  0  0  0  0  0  0  0  0
   -9.4340  -19.8130   20.1990 F   0  0  0  0  0  0  0  0  0  0  0  0
   -8.4640  -17.8100   24.4230 F   0  0  0  0  0  0  0  0  0  0  0  0
  -16.2120  -24.8750   23.9500 C   0  0  0  0  0  0  0  0  0  0  0  0
  -15.1900  -24.1720   24.4280 N   0  0  0  0  0  0  0  0  0  0  0  0
  -16.7530  -25.7500   24.6240 O   0  0  0  0  0  0  0  0  0  0  0  0
  -14.7600  -23.4390   23.8850 H   0  0  0  0  0  0  0  0  0  0  0  0
  -14.8330  -24.3720   25.3510 H   0  0  0  0  0  0  0  0  0  0  0  0
  -19.0030  -25.6100   22.5230 N   0  0  0  0  0  0  0  0  0  0  0  0
  -19.0090  -26.0200   23.4510 H   0  0  0  0  0  0  0  0  0  0  0  0
  -19.8320  -25.8340   21.9860 H   0  0  0  0  0  0  0  0  0  0  0  0
  -29.2120  -28.6400   21.3060 C   0  0  0  0  0  2  0  0  0  0  0  0
  -28.1440  -29.3340   20.6370 O   0  0  0  0  0  0  0  0  0  0  0  0
  -24.4920  -28.4700   26.6760 C   0  0  0  0  0  0  0  0  0  0  0  0
  -27.0400  -29.6800   21.3990 C   0  0  0  0  0  0  0  0  0  0  0  0
  -23.2750  -29.6400   24.8580 C   0  0  0  0  0  3  0  0  0  0  0  0
  -24.6970  -30.3480   22.8620 C   0  0  0  0  0  0  0  0  0  0  0  0
  -25.8140  -29.7960   25.0390 C   0  0  0  0  0  2  0  0  0  0  0  0
  -25.8470  -29.9210   23.5310 C   0  0  0  0  0  0  0  0  0  0  0  0
  -27.0110  -29.6150   22.8140 C   0  0  0  0  0  3  0  0  0  0  0  0
  -25.8650  -30.1100   20.7340 C   0  0  0  0  0  3  0  0  0  0  0  0
  -24.7010  -30.4490   21.4590 C   0  0  0  0  0  3  0  0  0  0  0  0
  -23.5060  -30.6840   23.7310 C   0  0  0  0  0  2  0  0  0  0  0  0
  -24.5430  -29.2460   25.5570 N   0  0  0  0  0  0  0  0  0  0  0  0
  -23.4070  -28.1260   27.1670 O   0  0  0  0  0  0  0  0  0  0  0  0
  -22.5050  -28.4430   24.2600 C   0  0  0  0  0  0  0  0  0  0  0  0
  -21.3450  -28.7300   23.6490 N   0  0  0  0  0  0  0  0  0  0  0  0
  -22.9630  -27.2990   24.3230 O   0  0  0  0  0  0  0  0  0  0  0  0
  -21.0350  -29.6900   23.6520 H   0  0  0  0  0  0  0  0  0  0  0  0
  -18.3190  -28.4350   21.7100 C   0  0  0  0  0  0  0  0  0  0  0  0
  -20.4700  -27.7730   22.9760 C   0  0  0  0  0  3  0  0  0  0  0  0
  -21.0410  -27.3740   21.5960 C   0  0  0  0  0  2  0  0  0  0  0  0
  -20.5040  -28.2430   20.4530 C   0  0  0  0  0  2  0  0  0  0  0  0
  -18.9790  -28.1420   20.3740 C   0  0  0  0  0  2  0  0  0  0  0  0
  -19.0240  -28.2770   22.9320 C   0  0  0  0  0  0  0  0  0  0  0  0
  -18.3740  -28.6000   24.1440 C   0  0  0  0  0  3  0  0  0  0  0  0
  -17.0470  -29.0690   24.1480 C   0  0  0  0  0  3  0  0  0  0  0  0
  -16.3480  -29.2060   22.9370 C   0  0  0  0  0  3  0  0  0  0  0  0
  -16.9810  -28.8840   21.7240 C   0  0  0  0  0  3  0  0  0  0  0  0
  -25.7860  -27.9960   27.4130 C   0  0  0  0  0  3  0  0  0  0  0  0
  -25.4960  -27.9800   28.8530 N   0  0  0  0  0  0  0  0  0  0  0  0
  -25.9290  -28.9040   29.7220 C   0  0  0  0  0  0  0  0  0  0  0  0
  -26.6830  -29.8270   29.4000 O   0  0  0  0  0  0  0  0  0  0  0  0
  -24.8380  -27.2860   29.1760 H   0  0  0  0  0  0  0  0  0  0  0  0
  -24.3390  -29.8140   31.4390 C   0  0  0  0  0  1  0  0  0  0  0  0
  -25.4500  -28.7840   31.1800 C   0  0  0  0  0  3  0  0  0  0  0  0
  -27.4750  -27.8360   32.1970 C   0  0  0  0  0  1  0  0  0  0  0  0
  -26.5350  -28.9560   32.1730 N   0  0  0  0  0  0  0  0  0  0  0  0
  -26.1550  -29.0680   33.1080 H   0  0  0  0  0  0  0  0  0  0  0  0
  -26.2990  -26.5850   26.9270 C   0  0  1  0  0  0  0  0  0  0  0  0
  -25.1610  -25.5740   26.6520 C   0  0  0  0  0  1  0  0  0  0  0  0
  -27.1300  -26.7300   25.6310 C   0  0  0  0  0  1  0  0  0  0  0  0
  -27.2440  -25.9760   27.9890 C   0  0  0  0  0  1  0  0  0  0  0  0
  2  5  1  0
  2  4  2  0
  3  7  1  0
  3  1  2  0
  4  3  1  0
  5  6  2  0
  6  1  1  0
  6 65  1  0
  8 12  1  0
  8  4  1  0
  8  9  1  0
  9 11  1  0
  9  7  1  0
 10  5  1  0
 12 13  1  0
 12 14  1  0
 15 16  1  0
 15 12  1  0
 17 16  1  0
 18 17  1  0
 19 18  1  0
 19 20  1  0
 20 21  1  0
 21 22  1  0
 22 23  1  0
 23 24  1  0
 24 25  1  0
 25 26  1  0
 27 35  1  0
 28 29  1  0
 28 33  1  0
 29 30  1  0
 31 30  1  0
 31 40  1  0
 32 31  1  0
 33 27  1  0
 33 32  1  0
 34 27  2  0
 35 26  1  0
 35 36  1  0
 37 62  1  0
 37 38  2  0
 38 57  1  0
 39 38  1  0
 40 37  1  0
 41 40  1  0
 41 39  2  0
 42 39  1  0
 42 43  1  0
 44 43  2  0
 45 44  1  0
 46 47  1  0
 46 45  2  0
 47 42  2  0
 48 45  1  0
 48 49  1  0
 49 50  1  0
 50 51  2  0
 52 51  1  0
 52 56  1  0
 53 52  2  0
 54 49  2  0
 54 53  1  0
 55 54  1  0
 57 58  1  0
 57 59  2  0
 58 61  1  0
 60 58  1  0
 62 63  1  0
 64 62  1  0
 66 65  1  0
 66 68  1  0
 67 78  2  0
 68 73  1  0
 69 79  1  0
 69 77  1  0
 70 72  1  0
 70 76  1  0
 71 77  1  0
 72 71  1  0
 73 72  2  0
 74 68  2  0
 74 75  1  0
 75 70  2  0
 76 69  1  0
 77 67  1  0
 79 81  2  0
 80 82  1  0
 80 79  1  0
 83 92  2  0
 83 88  1  0
 84 80  1  0
 85 84  1  0
 86 85  1  0
 87 86  1  0
 87 83  1  0
 88 84  1  0
 88 89  2  0
 89 90  1  0
 91 90  2  0
 92 91  1  0
 93 67  1  0
 93 94  1  0
 94 97  1  0
 94 95  1  0
 95 99  1  0
 96 95  2  0
 99 98  1  0
 99101  1  0
101100  1  0
101102  1  0
103 93  1  0
103106  1  1
104103  1  0
105103  1  0
M  ISO  4  27 100  35 100  65 101  66 101
M  END
>  <TORSDO>  (94) 
F 30

>  <SCORE>  (94) 
-2.087

>  <name>  (94) 
93

>  <ligand_id>  (94) 
93

>  <original_smiles>  (94) 
[H]c1c([H])c([H])c2c(c1[H])C([H])([H])C([H])([H])C([H])([H])C2([H])N([H])C(=O)C1([H])N(C(=O)C([H])(N([H])C(=O)C([H])(N([H])C([H])([H])[H])C([H])([H])[H])C(C([H])([H])[H])(C([H])([H])[H])C([H])([H])[H])C([H])([H])c2c([H])c(OC([H])([H])c3c([H])c4c(c([H])c3C([H])([H])[H])C([H])([N+]([H])([H])C([H])([H])C([H])([H])C([H])([H])C([H])([H])C([H])([H])C([H])([H])C([H])([H])C([H])([H])C([H])([H])C([H])([H])C([H])([H])C([H])([H])N([H])C(=O)N3C([H])([H])C([H])([H])C([H])([H])C([H])(n5nc(-c6c([H])c([H])c(Oc7c([H])c([H])c(F)c([H])c7F)c([H])c6[H])c(C(=O)N([H])[H])c5N([H])[H])C3([H])[H])C([H])(C([H])([H])[H])C4([H])[H])c([H])c([H])c2C1([H])[H]

>  <smiles>  (94) 
[H]c1c([H])c([H])c2c(c1[H])C([H])([H])C([H])([H])C([H])([H])C2([H])N([H])C(=O)C1([H])N(C(=O)C([H])(N([H])C(=O)C([H])(N([H])C([H])([H])[H])C([H])([H])[H])C(C([H])([H])[H])(C([H])([H])[H])C([H])([H])[H])C([H])([H])c2c([H])c(OC([H])([H])c3c([H])c4c(c([H])c3C([H])([H])[H])C([H])([N+]([H])([H])C([H])([H])C([H])([H])C([H])([H])C([H])([H])C([H])([H])C([H])([H])C([H])([H])C([H])([H])C([H])([H])C([H])([H])C([H])([H])C([H])([H])N([H])C(=O)N3C([H])([H])C([H])([H])C([H])([H])C([H])(n5nc(-c6c([H])c([H])c(Oc7c([H])c([H])c(F)c([H])c7F)c([H])c6[H])c(C(=O)N([H])[H])c5N([H])[H])C3([H])[H])C([H])(C([H])([H])[H])C4([H])[H])c([H])c([H])c2C1([H])[H]

$$$$
94:0:0
     RDKit          3D

 95102  0  0  1  0  0  0  0  0999 V2000
  -27.0840  -22.5030   19.3170 C   0  0  0  0  0  3  0  0  0  0  0  0
  -28.2920  -23.1980   18.7900 N   0  0  0  0  0  4  0  0  0  0  0  0
  -29.0680  -23.0500   19.4140 H   0  0  0  0  0  0  0  0  0  0  0  0
  -28.5330  -22.7060   17.9430 H   0  0  0  0  0  0  0  0  0  0  0  0
  -28.2000  -24.6400   18.4280 C   0  0  0  0  0  2  0  0  0  0  0  0
  -28.4780  -25.6070   19.6010 C   0  0  0  0  0  2  0  0  0  0  0  0
  -28.3920  -26.9750   19.1990 O   0  0  0  0  0  0  0  0  0  0  0  0
  -24.4830  -31.5720   22.9430 C   0  0  0  0  0  0  0  0  0  0  0  0
  -27.1660  -27.5870   19.3400 C   0  0  0  0  0  0  0  0  0  0  0  0
  -23.2540  -30.2500   21.2520 C   0  0  0  0  0  3  0  0  0  0  0  0
  -24.6970  -28.9290   19.6240 C   0  0  0  0  0  0  0  0  0  0  0  0
  -25.7380  -30.7790   20.9430 C   0  0  0  0  0  2  0  0  0  0  0  0
  -25.8590  -29.4760   20.1810 C   0  0  0  0  0  0  0  0  0  0  0  0
  -27.0960  -28.8170   20.0280 C   0  0  0  0  0  3  0  0  0  0  0  0
  -25.9800  -27.0390   18.7980 C   0  0  0  0  0  3  0  0  0  0  0  0
  -24.7510  -27.7070   18.9340 C   0  0  0  0  0  3  0  0  0  0  0  0
  -23.4160  -29.7080   19.8080 C   0  0  0  0  0  2  0  0  0  0  0  0
  -24.5130  -30.8760   21.7720 N   0  0  0  0  0  0  0  0  0  0  0  0
  -23.4240  -31.7370   23.5640 O   0  0  0  0  0  0  0  0  0  0  0  0
  -22.7190  -29.1130   22.1510 C   0  0  0  0  0  0  0  0  0  0  0  0
  -21.4050  -28.8490   22.0600 N   0  0  0  0  0  0  0  0  0  0  0  0
  -23.4780  -28.4770   22.8850 O   0  0  0  0  0  0  0  0  0  0  0  0
  -20.8460  -29.4250   21.4450 H   0  0  0  0  0  0  0  0  0  0  0  0
  -18.1580  -27.3370   22.5230 C   0  0  0  0  0  0  0  0  0  0  0  0
  -20.6880  -27.7990   22.7830 C   0  0  0  0  0  3  0  0  0  0  0  0
  -20.9050  -26.4190   22.1210 C   0  0  0  0  0  2  0  0  0  0  0  0
  -19.8180  -26.0590   21.1030 C   0  0  0  0  0  2  0  0  0  0  0  0
  -18.4390  -26.0470   21.7690 C   0  0  0  0  0  2  0  0  0  0  0  0
  -19.2150  -28.1660   22.9850 C   0  0  0  0  0  0  0  0  0  0  0  0
  -18.8980  -29.3700   23.6500 C   0  0  0  0  0  3  0  0  0  0  0  0
  -17.5580  -29.7480   23.8600 C   0  0  0  0  0  3  0  0  0  0  0  0
  -16.5170  -28.9160   23.4150 C   0  0  0  0  0  3  0  0  0  0  0  0
  -16.8170  -27.7120   22.7520 C   0  0  0  0  0  3  0  0  0  0  0  0
  -25.7720  -32.2180   23.5440 C   0  0  0  0  0  3  0  0  0  0  0  0
  -26.4100  -31.3690   24.7100 C   0  0  1  0  0  0  0  0  0  0  0  0
  -25.4010  -30.9780   25.8150 C   0  0  0  0  0  1  0  0  0  0  0  0
  -27.0340  -30.0660   24.1570 C   0  0  0  0  0  1  0  0  0  0  0  0
  -27.5580  -32.1680   25.3730 C   0  0  0  0  0  1  0  0  0  0  0  0
  -25.4110  -33.5630   24.0100 N   0  0  0  0  0  0  0  0  0  0  0  0
  -25.6550  -34.6940   23.3350 C   0  0  0  0  0  0  0  0  0  0  0  0
  -26.2810  -34.7170   22.2700 O   0  0  0  0  0  0  0  0  0  0  0  0
  -24.8520  -33.6150   24.8490 H   0  0  0  0  0  0  0  0  0  0  0  0
  -23.8320  -36.4210   23.2100 C   0  0  0  0  0  1  0  0  0  0  0  0
  -25.1240  -36.0100   23.9340 C   0  0  0  0  0  3  0  0  0  0  0  0
  -27.2450  -36.9220   24.7660 C   0  0  0  0  0  1  0  0  0  0  0  0
  -26.1000  -37.1190   23.8820 N   0  0  0  0  0  0  0  0  0  0  0  0
  -25.6560  -37.9980   24.1300 H   0  0  0  0  0  0  0  0  0  0  0  0
  -24.8670  -21.3870   18.5760 C   0  0  0  0  0  1  0  0  0  0  0  0
  -25.9570  -22.4250   18.2560 C   0  0  0  0  0  2  0  0  0  0  0  0
  -26.6000  -23.0400   20.6900 C   0  0  0  0  0  2  0  0  0  0  0  0
  -27.3020  -22.4460   21.9260 C   0  0  0  0  0  2  0  0  0  0  0  0
  -28.8140  -22.7360   22.0630 C   0  0  0  0  0  2  0  0  0  0  0  0
  -29.7760  -21.8160   21.2800 C   0  0  0  0  0  2  0  0  0  0  0  0
  -29.5760  -20.3150   21.5520 C   0  0  0  0  0  2  0  0  0  0  0  0
  -30.6460  -19.4250   20.8990 C   0  0  0  0  0  2  0  0  0  0  0  0
  -30.4400  -17.9450   21.2540 C   0  0  0  0  0  2  0  0  0  0  0  0
  -31.5590  -17.0170   20.7480 C   0  0  0  0  0  2  0  0  0  0  0  0
  -31.7920  -14.5490   20.4520 C   0  0  0  0  0  0  0  0  0  0  0  0
  -31.4510  -12.2180   19.7380 C   0  0  0  0  0  2  0  0  0  0  0  0
  -30.5770  -12.1930   18.4680 C   0  0  0  0  0  2  0  0  0  0  0  0
  -29.0790  -12.1990   18.8310 C   0  0  0  0  0  2  0  0  0  0  0  0
  -28.7190  -13.3140   19.8460 C   0  0  0  0  0  3  0  0  0  0  0  0
  -29.6960  -13.2780   21.0420 C   0  0  0  0  0  2  0  0  0  0  0  0
  -31.0710  -13.4000   20.5200 N   0  0  0  0  0  0  0  0  0  0  0  0
  -32.9000  -14.6360   19.9170 O   0  0  0  0  0  0  0  0  0  0  0  0
  -31.1610  -15.6250   20.9350 N   0  0  0  0  0  0  0  0  0  0  0  0
  -30.2640  -15.4560   21.3620 H   0  0  0  0  0  0  0  0  0  0  0  0
  -26.3970  -14.2120   20.5180 C   0  0  0  0  0  0  0  0  0  0  0  0
  -25.2280  -13.5720   20.8340 C   0  0  0  0  0  0  0  0  0  0  0  0
  -25.5140  -12.1740   20.7720 C   0  0  0  0  0  0  0  0  0  0  0  0
  -27.3270  -13.2100   20.2820 N   0  0  0  0  0  0  0  0  0  0  0  0
  -26.7960  -11.9790   20.4910 N   0  0  0  0  0  0  0  0  0  0  0  0
  -24.6300  -11.0090   20.9060 C   0  0  0  0  0  0  0  0  0  0  0  0
  -24.9110   -9.9670   21.8170 C   0  0  0  0  0  3  0  0  0  0  0  0
  -24.0350   -8.8680   21.9410 C   0  0  0  0  0  3  0  0  0  0  0  0
  -22.8630   -8.8030   21.1510 C   0  0  0  0  0  0  0  0  0  0  0  0
  -22.5990   -9.8310   20.2290 C   0  0  0  0  0  3  0  0  0  0  0  0
  -23.4750  -10.9220   20.1040 C   0  0  0  0  0  3  0  0  0  0  0  0
  -21.9680   -7.7610   21.1830 O   0  0  0  0  0  0  0  0  0  0  0  0
  -21.7630   -7.0250   22.3220 C   0  0  0  0  0  0  0  0  0  0  0  0
  -21.3610   -7.6260   23.5350 C   0  0  0  0  0  3  0  0  0  0  0  0
  -21.0940   -6.8250   24.6630 C   0  0  0  0  0  3  0  0  0  0  0  0
  -21.2190   -5.4250   24.5790 C   0  0  0  0  0  0  0  0  0  0  0  0
  -21.6140   -4.8240   23.3710 C   0  0  0  0  0  3  0  0  0  0  0  0
  -21.8830   -5.6230   22.2450 C   0  0  0  0  0  0  0  0  0  0  0  0
  -22.2420   -5.0380   21.0780 F   0  0  0  0  0  0  0  0  0  0  0  0
  -20.9540   -4.6540   25.6590 F   0  0  0  0  0  0  0  0  0  0  0  0
  -23.8970  -14.2160   21.0890 C   0  0  0  0  0  0  0  0  0  0  0  0
  -23.0740  -13.6040   21.9350 N   0  0  0  0  0  0  0  0  0  0  0  0
  -23.5990  -15.2940   20.5790 O   0  0  0  0  0  0  0  0  0  0  0  0
  -23.3260  -12.7270   22.3650 H   0  0  0  0  0  0  0  0  0  0  0  0
  -22.1770  -14.0170   22.1520 H   0  0  0  0  0  0  0  0  0  0  0  0
  -26.7410  -15.5550   20.3910 N   0  0  0  0  0  0  0  0  0  0  0  0
  -26.0700  -16.3020   20.5290 H   0  0  0  0  0  0  0  0  0  0  0  0
  -27.6590  -15.8900   20.1270 H   0  0  0  0  0  0  0  0  0  0  0  0
  1 49  1  0
  1 50  1  0
  2  1  1  0
  2  3  1  0
  4  2  1  0
  5  2  1  0
  5  6  1  0
  7  9  1  0
  7  6  1  0
  8 19  2  0
  9 14  1  0
 10 18  1  0
 10 20  1  0
 11 17  1  0
 11 13  1  0
 12 18  1  0
 13 12  1  0
 14 13  2  0
 15 16  1  0
 15  9  2  0
 16 11  2  0
 17 10  1  0
 18  8  1  0
 20 22  2  0
 21 20  1  0
 23 21  1  0
 24 33  2  0
 24 29  1  0
 25 21  1  0
 25 29  1  0
 26 25  1  0
 27 28  1  0
 27 26  1  0
 28 24  1  0
 29 30  2  0
 30 31  1  0
 32 31  2  0
 33 32  1  0
 34  8  1  0
 34 39  1  0
 34 35  1  0
 35 38  1  1
 35 36  1  0
 37 35  1  0
 39 42  1  0
 40 44  1  0
 40 39  1  0
 41 40  2  0
 44 43  1  0
 46 44  1  0
 46 47  1  0
 46 45  1  0
 49 48  1  0
 50 51  1  0
 51 52  1  0
 53 54  1  0
 53 52  1  0
 55 56  1  0
 55 54  1  0
 57 66  1  0
 57 56  1  0
 58 64  1  0
 58 66  1  0
 59 64  1  0
 60 61  1  0
 60 59  1  0
 62 61  1  0
 62 71  1  0
 62 63  1  0
 64 63  1  0
 65 58  2  0
 66 67  1  0
 68 69  2  0
 69 88  1  0
 70 69  1  0
 70 73  1  0
 71 72  1  0
 71 68  1  0
 72 70  2  0
 73 74  1  0
 74 75  2  0
 76 79  1  0
 76 75  1  0
 77 76  2  0
 78 77  1  0
 78 73  2  0
 79 80  1  0
 80 81  1  0
 81 82  2  0
 83 82  1  0
 83 87  1  0
 84 83  2  0
 85 80  2  0
 85 84  1  0
 86 85  1  0
 88 89  1  0
 89 92  1  0
 89 91  1  0
 90 88  2  0
 93 68  1  0
 93 94  1  0
 95 93  1  0
M  ISO  4   6 101   7 101  58 100  66 100
M  END
>  <TORSDO>  (95) 
F 28

>  <SCORE>  (95) 
-9.326

>  <name>  (95) 
94

>  <ligand_id>  (95) 
94

>  <original_smiles>  (95) 
[H]c1c([H])c([H])c2c(c1[H])C([H])([H])C([H])([H])C([H])([H])C2([H])N([H])C(=O)C1([H])N(C(=O)C([H])(N([H])C(=O)C([H])(N([H])C([H])([H])[H])C([H])([H])[H])C(C([H])([H])[H])(C([H])([H])[H])C([H])([H])[H])C([H])([H])c2c([H])c(OC([H])([H])C([H])([H])[N+]([H])([H])C([H])(C([H])([H])C([H])([H])[H])C([H])([H])C([H])([H])C([H])([H])C([H])([H])C([H])([H])C([H])([H])C([H])([H])C([H])([H])N([H])C(=O)N3C([H])([H])C([H])([H])C([H])([H])C([H])(n4nc(-c5c([H])c([H])c(Oc6c([H])c([H])c(F)c([H])c6F)c([H])c5[H])c(C(=O)N([H])[H])c4N([H])[H])C3([H])[H])c([H])c([H])c2C1([H])[H]

>  <smiles>  (95) 
[H]c1c([H])c([H])c2c(c1[H])C([H])([H])C([H])([H])C([H])([H])C2([H])N([H])C(=O)C1([H])N(C(=O)C([H])(N([H])C(=O)C([H])(N([H])C([H])([H])[H])C([H])([H])[H])C(C([H])([H])[H])(C([H])([H])[H])C([H])([H])[H])C([H])([H])c2c([H])c(OC([H])([H])C([H])([H])[N+]([H])([H])C([H])(C([H])([H])C([H])([H])[H])C([H])([H])C([H])([H])C([H])([H])C([H])([H])C([H])([H])C([H])([H])C([H])([H])C([H])([H])N([H])C(=O)N3C([H])([H])C([H])([H])C([H])([H])C([H])(n4nc(-c5c([H])c([H])c(Oc6c([H])c([H])c(F)c([H])c6F)c([H])c5[H])c(C(=O)N([H])[H])c4N([H])[H])C3([H])[H])c([H])c([H])c2C1([H])[H]

$$$$
95:0:0
     RDKit          3D

 92 99  0  0  1  0  0  0  0  0999 V2000
  -26.7450  -22.7730   22.6760 C   0  0  0  0  0  2  0  0  0  0  0  0
  -25.2390  -23.0760   22.5590 C   0  0  0  0  0  2  0  0  0  0  0  0
  -24.7840  -23.3710   21.1140 C   0  0  0  0  0  2  0  0  0  0  0  0
  -25.4060  -24.6440   20.5120 C   0  0  0  0  0  2  0  0  0  0  0  0
  -25.8030  -24.4710   19.0350 C   0  0  0  0  0  2  0  0  0  0  0  0
  -26.8100  -25.5210   18.5260 C   0  0  0  0  0  2  0  0  0  0  0  0
  -26.1690  -26.5250   17.7440 O   0  0  0  0  0  0  0  0  0  0  0  0
  -25.4180  -30.3750   23.6800 C   0  0  0  0  0  0  0  0  0  0  0  0
  -25.4260  -27.4280   18.4570 C   0  0  0  0  0  0  0  0  0  0  0  0
  -23.4740  -30.3490   22.1490 C   0  0  0  0  0  3  0  0  0  0  0  0
  -23.8910  -29.3360   19.8480 C   0  0  0  0  0  0  0  0  0  0  0  0
  -25.8440  -30.0220   21.2530 C   0  0  0  0  0  2  0  0  0  0  0  0
  -25.2460  -29.1630   20.1610 C   0  0  0  0  0  0  0  0  0  0  0  0
  -26.0200  -28.2090   19.4680 C   0  0  0  0  0  3  0  0  0  0  0  0
  -24.0660  -27.6140   18.1400 C   0  0  0  0  0  3  0  0  0  0  0  0
  -23.2910  -28.5590   18.8400 C   0  0  0  0  0  3  0  0  0  0  0  0
  -23.1380  -30.3840   20.6350 C   0  0  0  0  0  2  0  0  0  0  0  0
  -24.9450  -30.2280   22.4100 N   0  0  0  0  0  0  0  0  0  0  0  0
  -24.6590  -30.6530   24.6180 O   0  0  0  0  0  0  0  0  0  0  0  0
  -22.6400  -29.2300   22.8120 C   0  0  0  0  0  0  0  0  0  0  0  0
  -21.3060  -29.3430   22.7140 N   0  0  0  0  0  0  0  0  0  0  0  0
  -23.1890  -28.2770   23.3710 O   0  0  0  0  0  0  0  0  0  0  0  0
  -20.9330  -30.1580   22.2480 H   0  0  0  0  0  0  0  0  0  0  0  0
  -17.8090  -28.4420   22.6280 C   0  0  0  0  0  0  0  0  0  0  0  0
  -20.3230  -28.3910   23.2260 C   0  0  0  0  0  3  0  0  0  0  0  0
  -20.3770  -27.0570   22.4440 C   0  0  0  0  0  2  0  0  0  0  0  0
  -19.3910  -27.0050   21.2730 C   0  0  0  0  0  2  0  0  0  0  0  0
  -17.9550  -27.1950   21.7710 C   0  0  0  0  0  2  0  0  0  0  0  0
  -18.9230  -29.0110   23.2990 C   0  0  0  0  0  0  0  0  0  0  0  0
  -18.7390  -30.1900   24.0530 C   0  0  0  0  0  3  0  0  0  0  0  0
  -17.4720  -30.7950   24.1470 C   0  0  0  0  0  3  0  0  0  0  0  0
  -16.3690  -30.2180   23.4930 C   0  0  0  0  0  3  0  0  0  0  0  0
  -16.5370  -29.0430   22.7410 C   0  0  0  0  0  3  0  0  0  0  0  0
  -26.9380  -30.2260   24.0100 C   0  0  0  0  0  3  0  0  0  0  0  0
  -27.3200  -31.3650   24.8550 N   0  0  0  0  0  0  0  0  0  0  0  0
  -28.0360  -32.4170   24.4340 C   0  0  0  0  0  0  0  0  0  0  0  0
  -28.5090  -32.4940   23.2970 O   0  0  0  0  0  0  0  0  0  0  0  0
  -26.9210  -31.3940   25.7810 H   0  0  0  0  0  0  0  0  0  0  0  0
  -27.3300  -34.7400   25.0890 C   0  0  0  0  0  1  0  0  0  0  0  0
  -28.2610  -33.5670   25.4340 C   0  0  0  0  0  3  0  0  0  0  0  0
  -30.5810  -33.0600   26.0580 C   0  0  0  0  0  1  0  0  0  0  0  0
  -29.6610  -34.0380   25.4820 N   0  0  0  0  0  0  0  0  0  0  0  0
  -29.7350  -34.8970   26.0200 H   0  0  0  0  0  0  0  0  0  0  0  0
  -27.2910  -28.8610   24.7160 C   0  0  1  0  0  0  0  0  0  0  0  0
  -26.4080  -28.5500   25.9480 C   0  0  0  0  0  1  0  0  0  0  0  0
  -27.1510  -27.6820   23.7240 C   0  0  0  0  0  1  0  0  0  0  0  0
  -28.7670  -28.8750   25.1790 C   0  0  0  0  0  1  0  0  0  0  0  0
  -27.6450  -23.8240   22.0030 C   0  0  0  0  0  2  0  0  0  0  0  0
  -28.9950  -23.2540   21.5400 C   0  0  0  0  0  2  0  0  0  0  0  0
  -29.7070  -24.2120   20.5700 C   0  0  0  0  0  2  0  0  0  0  0  0
  -31.1310  -23.7880   20.1680 C   0  0  0  0  0  2  0  0  0  0  0  0
  -31.1790  -22.4500   19.4030 C   0  0  0  0  0  2  0  0  0  0  0  0
  -32.6010  -22.0780   18.9420 C   0  0  0  0  0  2  0  0  0  0  0  0
  -31.9850  -20.5340   16.9970 C   0  0  0  0  0  1  0  0  0  0  0  0
  -32.7520  -20.6640   18.3310 C   0  0  0  0  0  3  0  0  0  0  0  0
  -32.4070  -19.5510   19.3550 C   0  0  0  0  0  2  0  0  0  0  0  0
  -33.2710  -18.2730   19.2860 C   0  0  0  0  0  0  0  0  0  0  0  0
  -33.5080  -15.8480   19.7220 C   0  0  0  0  0  2  0  0  0  0  0  0
  -32.8430  -15.0140   18.6120 C   0  0  0  0  0  2  0  0  0  0  0  0
  -31.3410  -14.8190   18.8980 C   0  0  0  0  0  2  0  0  0  0  0  0
  -30.6230  -16.1500   19.2410 C   0  0  0  0  0  3  0  0  0  0  0  0
  -31.4120  -16.9340   20.3130 C   0  0  0  0  0  2  0  0  0  0  0  0
  -32.7860  -17.1250   19.8240 N   0  0  0  0  0  0  0  0  0  0  0  0
  -34.3840  -18.3240   18.7500 O   0  0  0  0  0  0  0  0  0  0  0  0
  -28.2280  -16.8370   19.8900 C   0  0  0  0  0  0  0  0  0  0  0  0
  -27.1110  -16.0990   20.1730 C   0  0  0  0  0  0  0  0  0  0  0  0
  -27.5090  -14.7300   20.0810 C   0  0  0  0  0  0  0  0  0  0  0  0
  -29.2390  -15.9200   19.6500 N   0  0  0  0  0  0  0  0  0  0  0  0
  -28.8070  -14.6440   19.8190 N   0  0  0  0  0  0  0  0  0  0  0  0
  -26.7190  -13.4960   20.1720 C   0  0  0  0  0  0  0  0  0  0  0  0
  -26.9320  -12.5570   21.2070 C   0  0  0  0  0  3  0  0  0  0  0  0
  -26.1480  -11.3850   21.2830 C   0  0  0  0  0  3  0  0  0  0  0  0
  -25.1370  -11.1450   20.3220 C   0  0  0  0  0  0  0  0  0  0  0  0
  -24.9450  -12.0710   19.2810 C   0  0  0  0  0  3  0  0  0  0  0  0
  -25.7300  -13.2330   19.2040 C   0  0  0  0  0  3  0  0  0  0  0  0
  -24.3440  -10.0230   20.3020 O   0  0  0  0  0  0  0  0  0  0  0  0
  -23.7900   -9.5130   21.4480 C   0  0  0  0  0  0  0  0  0  0  0  0
  -22.9070  -10.2680   22.2500 C   0  0  0  0  0  3  0  0  0  0  0  0
  -22.3060   -9.6810   23.3820 C   0  0  0  0  0  3  0  0  0  0  0  0
  -22.5790   -8.3390   23.7080 C   0  0  0  0  0  0  0  0  0  0  0  0
  -23.4540   -7.5840   22.9080 C   0  0  0  0  0  3  0  0  0  0  0  0
  -24.0550   -8.1680   21.7790 C   0  0  0  0  0  0  0  0  0  0  0  0
  -24.8810   -7.4290   21.0000 F   0  0  0  0  0  0  0  0  0  0  0  0
  -21.9960   -7.7720   24.7900 F   0  0  0  0  0  0  0  0  0  0  0  0
  -25.7270  -16.6260   20.4230 C   0  0  0  0  0  0  0  0  0  0  0  0
  -24.9250  -15.9030   21.1970 N   0  0  0  0  0  0  0  0  0  0  0  0
  -25.3650  -17.7120   19.9720 O   0  0  0  0  0  0  0  0  0  0  0  0
  -25.2280  -15.0210   21.5850 H   0  0  0  0  0  0  0  0  0  0  0  0
  -23.9930  -16.2340   21.4040 H   0  0  0  0  0  0  0  0  0  0  0  0
  -28.4640  -18.2060   19.7970 N   0  0  0  0  0  0  0  0  0  0  0  0
  -27.7290  -18.8940   19.9190 H   0  0  0  0  0  0  0  0  0  0  0  0
  -29.3540  -18.6170   19.5440 H   0  0  0  0  0  0  0  0  0  0  0  0
  2  1  1  0
  3  2  1  0
  4  3  1  0
  5  4  1  0
  6  5  1  0
  7  9  1  0
  7  6  1  0
  8 19  2  0
  9 14  1  0
 10 18  1  0
 10 20  1  0
 11 13  1  0
 11 17  1  0
 12 18  1  0
 13 12  1  0
 14 13  2  0
 15  9  2  0
 15 16  1  0
 16 11  2  0
 17 10  1  0
 18  8  1  0
 20 22  2  0
 21 20  1  0
 23 21  1  0
 24 33  2  0
 24 29  1  0
 25 21  1  0
 25 29  1  0
 26 25  1  0
 27 28  1  0
 27 26  1  0
 28 24  1  0
 29 30  2  0
 30 31  1  0
 32 31  2  0
 33 32  1  0
 34  8  1  0
 34 44  1  0
 34 35  1  0
 35 38  1  0
 36 35  1  0
 36 40  1  0
 37 36  2  0
 40 39  1  0
 40 42  1  0
 42 43  1  0
 42 41  1  0
 44 47  1  1
 44 45  1  0
 46 44  1  0
 48  1  1  0
 49 48  1  0
 50 49  1  0
 51 50  1  0
 52 51  1  0
 53 52  1  0
 55 54  1  0
 55 53  1  0
 55 56  1  0
 57 56  1  0
 57 63  1  0
 58 63  1  0
 59 60  1  0
 59 58  1  0
 61 60  1  0
 61 68  1  0
 61 62  1  0
 63 62  1  0
 64 57  2  0
 65 66  2  0
 66 85  1  0
 67 70  1  0
 67 66  1  0
 68 69  1  0
 68 65  1  0
 69 67  2  0
 70 71  1  0
 71 72  2  0
 73 72  1  0
 74 73  2  0
 75 74  1  0
 75 70  2  0
 76 73  1  0
 76 77  1  0
 77 82  2  0
 77 78  1  0
 78 79  2  0
 79 80  1  0
 80 84  1  0
 81 80  2  0
 82 81  1  0
 83 82  1  0
 85 86  1  0
 86 89  1  0
 86 88  1  0
 87 85  2  0
 90 65  1  0
 90 91  1  0
 92 90  1  0
M  ISO  4   6 101   7 101  56 100  57 100
M  END
>  <TORSDO>  (96) 
F 29

>  <SCORE>  (96) 
-2.477

>  <name>  (96) 
95

>  <ligand_id>  (96) 
95

>  <original_smiles>  (96) 
[H]c1c([H])c([H])c2c(c1[H])C([H])([H])C([H])([H])C([H])([H])C2([H])N([H])C(=O)C1([H])N(C(=O)C([H])(N([H])C(=O)C([H])(N([H])C([H])([H])[H])C([H])([H])[H])C(C([H])([H])[H])(C([H])([H])[H])C([H])([H])[H])C([H])([H])c2c([H])c(OC([H])([H])C([H])([H])C([H])([H])C([H])([H])C([H])([H])C([H])([H])C([H])([H])C([H])([H])C([H])([H])C([H])([H])C([H])([H])C([H])([H])C([H])(C([H])([H])[H])C([H])([H])C(=O)N3C([H])([H])C([H])([H])C([H])([H])C([H])(n4nc(-c5c([H])c([H])c(Oc6c([H])c([H])c(F)c([H])c6F)c([H])c5[H])c(C(=O)N([H])[H])c4N([H])[H])C3([H])[H])c([H])c([H])c2C1([H])[H]

>  <smiles>  (96) 
[H]c1c([H])c([H])c2c(c1[H])C([H])([H])C([H])([H])C([H])([H])C2([H])N([H])C(=O)C1([H])N(C(=O)C([H])(N([H])C(=O)C([H])(N([H])C([H])([H])[H])C([H])([H])[H])C(C([H])([H])[H])(C([H])([H])[H])C([H])([H])[H])C([H])([H])c2c([H])c(OC([H])([H])C([H])([H])C([H])([H])C([H])([H])C([H])([H])C([H])([H])C([H])([H])C([H])([H])C([H])([H])C([H])([H])C([H])([H])C([H])([H])C([H])(C([H])([H])[H])C([H])([H])C(=O)N3C([H])([H])C([H])([H])C([H])([H])C([H])(n4nc(-c5c([H])c([H])c(Oc6c([H])c([H])c(F)c([H])c6F)c([H])c5[H])c(C(=O)N([H])[H])c4N([H])[H])C3([H])[H])c([H])c([H])c2C1([H])[H]

$$$$
96:0:0
     RDKit          3D

104110  0  0  1  0  0  0  0  0999 V2000
  -20.1050  -26.3530   23.1480 C   0  0  0  0  0  0  0  0  0  0  0  0
  -20.3980  -28.0760   21.3750 N   0  0  0  0  0  0  0  0  0  0  0  0
  -19.4890  -28.0870   20.9380 H   0  0  0  0  0  0  0  0  0  0  0  0
  -20.4320  -28.9580   21.8570 H   0  0  0  0  0  0  0  0  0  0  0  0
  -21.5210  -28.1710   20.1070 C   0  0  0  0  0  2  0  0  0  0  0  0
  -22.7760  -27.0310   19.4760 C   0  0  0  0  0  2  0  0  0  0  0  0
  -23.9060  -25.8580   20.1040 C   0  0  0  0  0  3  0  0  0  0  0  0
  -24.8320  -24.6540   19.2950 C   0  0  0  0  0  3  0  0  0  0  0  0
  -26.1210  -23.6880   19.9070 C   0  0  0  0  0  3  0  0  0  0  0  0
  -26.7490  -22.1970   19.3110 C   0  0  0  0  0  3  0  0  0  0  0  0
  -28.2090  -21.3830   19.7150 C   0  0  0  0  0  2  0  0  0  0  0  0
  -28.5780  -19.7030   19.6240 C   0  0  0  0  0  3  0  0  0  0  0  0
  -30.0970  -18.9090   19.8230 C   0  0  0  0  0  3  0  0  0  0  0  0
  -31.4030  -16.3630   20.1310 C   0  0  0  0  0  0  0  0  0  0  0  0
  -31.6160  -13.9490   19.3590 C   0  0  0  0  0  2  0  0  0  0  0  0
  -30.8010  -13.8670   18.0440 C   0  0  0  0  0  2  0  0  0  0  0  0
  -29.2920  -13.7040   18.3300 C   0  0  0  0  0  2  0  0  0  0  0  0
  -28.8040  -14.6700   19.4390 C   0  0  0  0  0  3  0  0  0  0  0  0
  -29.7160  -14.6110   20.6730 C   0  0  0  0  0  2  0  0  0  0  0  0
  -31.0170  -15.0340   20.1880 N   0  0  0  0  0  0  0  0  0  0  0  0
  -32.6170  -16.5700   19.9440 O   0  0  0  0  0  0  0  0  0  0  0  0
  -30.3420  -17.3490   20.1040 N   0  0  0  0  0  0  0  0  0  0  0  0
  -29.4770  -16.8870   20.3380 H   0  0  0  0  0  0  0  0  0  0  0  0
  -26.4430  -15.4310   20.0180 C   0  0  0  0  0  0  0  0  0  0  0  0
  -25.3070  -14.7300   20.3010 C   0  0  0  0  0  0  0  0  0  0  0  0
  -25.6780  -13.3510   20.2730 C   0  0  0  0  0  0  0  0  0  0  0  0
  -27.4250  -14.4770   19.8180 N   0  0  0  0  0  0  0  0  0  0  0  0
  -26.9770  -13.2210   20.0450 N   0  0  0  0  0  0  0  0  0  0  0  0
  -24.8650  -12.1410   20.3860 C   0  0  0  0  0  0  0  0  0  0  0  0
  -25.1650  -11.1380   21.3330 C   0  0  0  0  0  3  0  0  0  0  0  0
  -24.3560   -9.9860   21.4310 C   0  0  0  0  0  3  0  0  0  0  0  0
  -23.2370   -9.8340   20.5790 C   0  0  0  0  0  0  0  0  0  0  0  0
  -22.9590  -10.8250   19.6220 C   0  0  0  0  0  3  0  0  0  0  0  0
  -23.7680  -11.9680   19.5210 C   0  0  0  0  0  3  0  0  0  0  0  0
  -22.4100   -8.7380   20.5840 O   0  0  0  0  0  0  0  0  0  0  0  0
  -22.1590   -8.0330   21.7320 C   0  0  0  0  0  0  0  0  0  0  0  0
  -21.6610   -8.6570   22.8970 C   0  0  0  0  0  3  0  0  0  0  0  0
  -21.3480   -7.8820   24.0320 C   0  0  0  0  0  3  0  0  0  0  0  0
  -21.5280   -6.4860   24.0030 C   0  0  0  0  0  0  0  0  0  0  0  0
  -22.0180   -5.8630   22.8420 C   0  0  0  0  0  3  0  0  0  0  0  0
  -22.3310   -6.6340   21.7100 C   0  0  0  0  0  0  0  0  0  0  0  0
  -22.7840   -6.0260   20.5860 F   0  0  0  0  0  0  0  0  0  0  0  0
  -21.2210   -5.7400   25.0900 F   0  0  0  0  0  0  0  0  0  0  0  0
  -23.9310  -15.3010   20.4770 C   0  0  0  0  0  0  0  0  0  0  0  0
  -23.0940  -14.6440   21.2710 N   0  0  0  0  0  0  0  0  0  0  0  0
  -23.6050  -16.3620   19.9470 O   0  0  0  0  0  0  0  0  0  0  0  0
  -23.3690  -13.7860   21.7220 H   0  0  0  0  0  0  0  0  0  0  0  0
  -22.1640  -15.0090   21.4320 H   0  0  0  0  0  0  0  0  0  0  0  0
  -26.7160  -16.7910   19.8890 N   0  0  0  0  0  0  0  0  0  0  0  0
  -25.9800  -17.4820   19.9720 H   0  0  0  0  0  0  0  0  0  0  0  0
  -27.5810  -17.1810   19.5420 H   0  0  0  0  0  0  0  0  0  0  0  0
  -21.3900  -25.8880   24.4390 C   0  0  0  0  0  2  0  0  0  0  0  0
  -23.0860  -25.3640   24.5050 C   0  0  0  0  0  2  0  0  0  0  0  0
  -24.6050  -26.1730   24.1790 C   0  0  0  0  0  3  0  0  0  0  0  0
  -26.1410  -25.5290   23.8100 C   0  0  0  0  0  3  0  0  0  0  0  0
  -27.5250  -26.2000   23.4160 O   0  0  0  0  0  0  0  0  0  0  0  0
  -24.6580  -31.9430   23.9920 C   0  0  0  0  0  0  0  0  0  0  0  0
  -27.4680  -27.0860   22.3880 C   0  0  0  0  0  0  0  0  0  0  0  0
  -23.9980  -30.5300   22.1110 C   0  0  0  0  0  3  0  0  0  0  0  0
  -25.6490  -28.7980   21.2730 C   0  0  0  0  0  0  0  0  0  0  0  0
  -26.4310  -30.7320   22.6860 C   0  0  0  0  0  2  0  0  0  0  0  0
  -26.5830  -29.3040   22.1880 C   0  0  0  0  0  0  0  0  0  0  0  0
  -27.5560  -28.4490   22.7230 C   0  0  0  0  0  3  0  0  0  0  0  0
  -26.7370  -26.6390   21.2800 C   0  0  0  0  0  3  0  0  0  0  0  0
  -25.7540  -27.4900   20.7660 C   0  0  0  0  0  3  0  0  0  0  0  0
  -24.5270  -29.7220   20.8930 C   0  0  0  0  0  2  0  0  0  0  0  0
  -25.0370  -31.1040   22.9840 N   0  0  0  0  0  0  0  0  0  0  0  0
  -23.4680  -32.2460   24.1800 O   0  0  0  0  0  0  0  0  0  0  0  0
  -23.1470  -29.6130   22.9260 C   0  0  0  0  0  0  0  0  0  0  0  0
  -21.9050  -29.6310   22.5140 N   0  0  0  0  0  0  0  0  0  0  0  0
  -23.5810  -28.9390   23.8710 O   0  0  0  0  0  0  0  0  0  0  0  0
  -21.5750  -30.2720   21.8070 H   0  0  0  0  0  0  0  0  0  0  0  0
  -18.0070  -28.4600   22.8790 C   0  0  0  0  0  0  0  0  0  0  0  0
  -21.1250  -28.6820   23.0910 C   0  0  0  0  0  2  0  0  0  0  0  0
  -21.5420  -26.7470   22.2630 C   0  0  0  0  0  1  0  0  0  0  0  0
  -19.6940  -25.5750   21.9210 C   0  0  0  0  0  1  0  0  0  0  0  0
  -17.9400  -26.6520   22.2960 C   0  0  0  0  0  1  0  0  0  0  0  0
  -19.3580  -29.2960   23.2570 C   0  0  0  0  0  0  0  0  0  0  0  0
  -19.1780  -30.5870   23.7930 C   0  0  0  0  0  3  0  0  0  0  0  0
  -17.9090  -31.1890   23.8870 C   0  0  0  0  0  3  0  0  0  0  0  0
  -16.7590  -30.5320   23.4220 C   0  0  0  0  0  3  0  0  0  0  0  0
  -16.8080  -29.2080   22.9300 C   0  0  0  0  0  3  0  0  0  0  0  0
  -25.7120  -32.5850   24.9270 C   0  0  0  0  0  3  0  0  0  0  0  0
  -25.4150  -34.0190   24.9640 N   0  0  0  0  0  0  0  0  0  0  0  0
  -25.9970  -34.9220   24.1680 C   0  0  0  0  0  0  0  0  0  0  0  0
  -26.9090  -34.6370   23.3870 O   0  0  0  0  0  0  0  0  0  0  0  0
  -24.6460  -34.3130   25.5480 H   0  0  0  0  0  0  0  0  0  0  0  0
  -24.5550  -36.6710   23.0830 C   0  0  0  0  0  1  0  0  0  0  0  0
  -25.4940  -36.3730   24.2610 C   0  0  0  0  0  3  0  0  0  0  0  0
  -27.3810  -37.3140   25.5200 C   0  0  0  0  0  1  0  0  0  0  0  0
  -26.5870  -37.3670   24.2950 N   0  0  0  0  0  0  0  0  0  0  0  0
  -26.2180  -38.3090   24.1960 H   0  0  0  0  0  0  0  0  0  0  0  0
  -25.7270  -31.9680   26.3770 C   0  0  1  0  0  0  0  0  0  0  0  0
  -24.3340  -31.8990   27.0460 C   0  0  0  0  0  1  0  0  0  0  0  0
  -26.3160  -30.5380   26.3550 C   0  0  0  0  0  1  0  0  0  0  0  0
  -26.6540  -32.8190   27.2760 C   0  0  0  0  0  1  0  0  0  0  0  0
  -18.7850  -25.9340   24.0840 C   0  0  0  0  0  3  0  0  0  0  0  0
  -18.6370  -26.4480   25.5560 C   0  0  0  0  0  3  0  0  0  0  0  0
  -15.0840  -25.5870   27.9000 C   0  0  0  0  0  3  0  0  0  0  0  0
  -15.6310  -26.8830   27.8840 C   0  0  0  0  0  3  0  0  0  0  0  0
  -15.6610  -24.5700   27.1120 C   0  0  0  0  0  3  0  0  0  0  0  0
  -16.7570  -27.1540   27.0840 C   0  0  0  0  0  3  0  0  0  0  0  0
  -16.7900  -24.8420   26.3110 C   0  0  0  0  0  3  0  0  0  0  0  0
  -17.3470  -26.1390   26.3020 C   0  0  0  0  0  0  0  0  0  0  0  0
  1 97  1  0
  1 52  1  0
  2  4  1  0
  3  2  1  0
  5  2  1  0
  6  7  1  0
  6  5  1  0
  8  9  1  0
  8  7  2  0
 10 11  1  0
 10  9  2  0
 12 11  1  0
 12 13  2  0
 13 22  1  0
 14 20  1  0
 15 20  1  0
 16 17  1  0
 16 15  1  0
 18 17  1  0
 18 27  1  0
 18 19  1  0
 20 19  1  0
 21 14  2  0
 22 14  1  0
 22 23  1  0
 24 25  2  0
 25 44  1  0
 26 25  1  0
 26 29  1  0
 27 24  1  0
 27 28  1  0
 28 26  2  0
 29 30  1  0
 30 31  2  0
 32 35  1  0
 32 31  1  0
 33 32  2  0
 34 33  1  0
 34 29  2  0
 35 36  1  0
 36 37  1  0
 37 38  2  0
 39 38  1  0
 39 43  1  0
 40 39  2  0
 41 36  2  0
 41 40  1  0
 42 41  1  0
 44 45  1  0
 45 48  1  0
 45 47  1  0
 46 44  2  0
 49 50  1  0
 49 24  1  0
 51 49  1  0
 52 53  1  0
 54 53  1  0
 55 54  2  0
 56 55  1  0
 57 68  2  0
 58 63  1  0
 58 56  1  0
 59 69  1  0
 59 67  1  0
 60 62  1  0
 61 67  1  0
 62 61  1  0
 62 63  2  0
 64 58  2  0
 65 60  2  0
 65 64  1  0
 66 60  1  0
 66 59  1  0
 67 57  1  0
 69 71  2  0
 70 69  1  0
 70 74  1  0
 72 70  1  0
 73 82  2  0
 73 78  1  0
 74 78  1  0
 75  1  1  0
 76  1  1  0
 77 73  1  0
 78 79  2  0
 79 80  1  0
 81 80  2  0
 82 81  1  0
 83 57  1  0
 83 84  1  0
 83 93  1  0
 84 87  1  0
 85 89  1  0
 85 84  1  0
 86 85  2  0
 89 88  1  0
 89 91  1  0
 91 90  1  0
 92 91  1  0
 93 94  1  1
 93 96  1  0
 95 93  1  0
 97 98  2  0
 98104  1  0
100 99  1  0
101 99  2  0
102100  2  0
103101  1  0
104103  2  0
104102  1  0
M  ISO  4  14 100  22 100  55 101  56 101
M  END
>  <TORSDO>  (97) 
F 33

>  <SCORE>  (97) 
13.468

>  <name>  (97) 
96

>  <ligand_id>  (97) 
96

>  <original_smiles>  (97) 
[H]c1c([H])c([H])c(C([H])([H])C([H])([H])C([H])(C([H])([H])C([H])([H])C([H])([H])C([H])([H])Oc2c([H])c([H])c3c(c2[H])C([H])([H])N(C(=O)C([H])(N([H])C(=O)C([H])(N([H])C([H])([H])[H])C([H])([H])[H])C(C([H])([H])[H])(C([H])([H])[H])C([H])([H])[H])C([H])(C(=O)N([H])C2([H])c4c([H])c([H])c([H])c([H])c4C([H])([H])C([H])([H])C2([H])[H])C3([H])[H])[N+]([H])([H])C([H])([H])C([H])([H])C([H])([H])C([H])([H])C([H])([H])C([H])([H])C([H])([H])C([H])([H])C([H])([H])N([H])C(=O)N2C([H])([H])C([H])([H])C([H])([H])C([H])(n3nc(-c4c([H])c([H])c(Oc5c([H])c([H])c(F)c([H])c5F)c([H])c4[H])c(C(=O)N([H])[H])c3N([H])[H])C2([H])[H])c([H])c1[H]

>  <smiles>  (97) 
[H]c1c([H])c([H])c(C([H])([H])C([H])([H])C([H])(C([H])([H])C([H])([H])C([H])([H])C([H])([H])Oc2c([H])c([H])c3c(c2[H])C([H])([H])N(C(=O)C([H])(N([H])C(=O)C([H])(N([H])C([H])([H])[H])C([H])([H])[H])C(C([H])([H])[H])(C([H])([H])[H])C([H])([H])[H])C([H])(C(=O)N([H])C2([H])c4c([H])c([H])c([H])c([H])c4C([H])([H])C([H])([H])C2([H])[H])C3([H])[H])[N+]([H])([H])C([H])([H])C([H])([H])C([H])([H])C([H])([H])C([H])([H])C([H])([H])C([H])([H])C([H])([H])C([H])([H])N([H])C(=O)N2C([H])([H])C([H])([H])C([H])([H])C([H])(n3nc(-c4c([H])c([H])c(Oc5c([H])c([H])c(F)c([H])c5F)c([H])c4[H])c(C(=O)N([H])[H])c3N([H])[H])C2([H])[H])c([H])c1[H]

$$$$
97:0:0
     RDKit          3D

 94103  0  0  1  0  0  0  0  0999 V2000
  -28.7890  -21.2690   24.2640 C   0  0  0  0  0  3  0  0  0  0  0  0
  -29.2180  -22.6010   24.1250 C   0  0  0  0  0  3  0  0  0  0  0  0
  -28.7230  -20.4300   23.1390 C   0  0  0  0  0  3  0  0  0  0  0  0
  -29.5080  -22.2640   21.7280 C   0  0  0  0  0  3  0  0  0  0  0  0
  -29.5610  -23.1230   22.8560 C   0  0  0  0  0  0  0  0  0  0  0  0
  -29.0980  -20.9130   21.8690 C   0  0  0  0  0  0  0  0  0  0  0  0
  -30.0230  -24.5440   22.7760 C   0  0  0  0  0  0  0  0  0  0  0  0
  -30.4980  -25.1300   23.7540 O   0  0  0  0  0  0  0  0  0  0  0  0
  -29.8400  -25.3020   21.4510 C   0  0  0  0  0  2  0  0  0  0  0  0
  -30.0100  -26.8340   21.5950 C   0  0  0  0  0  2  0  0  0  0  0  0
  -29.6520  -27.5050   20.3860 O   0  0  0  0  0  0  0  0  0  0  0  0
  -24.9400  -31.9710   23.3460 C   0  0  0  0  0  0  0  0  0  0  0  0
  -28.3970  -28.0610   20.3750 C   0  0  0  0  0  0  0  0  0  0  0  0
  -24.0520  -30.4310   21.6220 C   0  0  0  0  0  3  0  0  0  0  0  0
  -25.8020  -29.1610   20.2660 C   0  0  0  0  0  0  0  0  0  0  0  0
  -26.4950  -31.1810   21.5670 C   0  0  0  0  0  2  0  0  0  0  0  0
  -26.8260  -29.8510   20.9290 C   0  0  0  0  0  0  0  0  0  0  0  0
  -28.1260  -29.3040   20.9890 C   0  0  0  0  0  3  0  0  0  0  0  0
  -27.3640  -27.3840   19.7000 C   0  0  0  0  0  3  0  0  0  0  0  0
  -26.0630  -27.9230   19.6520 C   0  0  0  0  0  3  0  0  0  0  0  0
  -24.4380  -29.8150   20.2500 C   0  0  0  0  0  2  0  0  0  0  0  0
  -25.1740  -31.2110   22.2380 N   0  0  0  0  0  0  0  0  0  0  0  0
  -23.8040  -32.0630   23.8280 O   0  0  0  0  0  0  0  0  0  0  0  0
  -23.5180  -29.3040   22.5350 C   0  0  0  0  0  0  0  0  0  0  0  0
  -22.2460  -28.9240   22.3330 N   0  0  0  0  0  0  0  0  0  0  0  0
  -24.2450  -28.7750   23.3790 O   0  0  0  0  0  0  0  0  0  0  0  0
  -21.7130  -29.4130   21.6270 H   0  0  0  0  0  0  0  0  0  0  0  0
  -19.0680  -27.2330   22.6370 C   0  0  0  0  0  0  0  0  0  0  0  0
  -21.5430  -27.8580   23.0460 C   0  0  0  0  0  3  0  0  0  0  0  0
  -21.8850  -26.4720   22.4520 C   0  0  0  0  0  2  0  0  0  0  0  0
  -20.8940  -26.0140   21.3770 C   0  0  0  0  0  2  0  0  0  0  0  0
  -19.4760  -25.9400   21.9520 C   0  0  0  0  0  2  0  0  0  0  0  0
  -20.0390  -28.1410   23.1370 C   0  0  0  0  0  0  0  0  0  0  0  0
  -19.6070  -29.3460   23.7330 C   0  0  0  0  0  3  0  0  0  0  0  0
  -18.2370  -29.6460   23.8390 C   0  0  0  0  0  3  0  0  0  0  0  0
  -17.2800  -28.7360   23.3570 C   0  0  0  0  0  3  0  0  0  0  0  0
  -17.6950  -27.5310   22.7610 C   0  0  0  0  0  3  0  0  0  0  0  0
  -26.0810  -32.7770   24.0420 C   0  0  0  0  0  3  0  0  0  0  0  0
  -26.5280  -32.1580   25.4220 C   0  0  1  0  0  0  0  0  0  0  0  0
  -25.3510  -31.8530   26.3770 C   0  0  0  0  0  1  0  0  0  0  0  0
  -27.3110  -30.8420   25.2010 C   0  0  0  0  0  1  0  0  0  0  0  0
  -27.4910  -33.1280   26.1440 C   0  0  0  0  0  1  0  0  0  0  0  0
  -25.6040  -34.1550   24.2200 N   0  0  0  0  0  0  0  0  0  0  0  0
  -25.9160  -35.1780   23.4120 C   0  0  0  0  0  0  0  0  0  0  0  0
  -26.7030  -35.0690   22.4670 O   0  0  0  0  0  0  0  0  0  0  0  0
  -24.9120  -34.3040   24.9390 H   0  0  0  0  0  0  0  0  0  0  0  0
  -24.0690  -36.7400   22.7270 C   0  0  0  0  0  1  0  0  0  0  0  0
  -25.2440  -36.5350   23.6940 C   0  0  0  0  0  3  0  0  0  0  0  0
  -27.1910  -37.6890   24.6460 C   0  0  0  0  0  1  0  0  0  0  0  0
  -26.1750  -37.6810   23.5970 N   0  0  0  0  0  0  0  0  0  0  0  0
  -25.6690  -38.5610   23.6390 H   0  0  0  0  0  0  0  0  0  0  0  0
  -29.0360  -19.9760   20.6640 C   0  0  0  0  0  2  0  0  0  0  0  0
  -31.7880  -14.9220   20.1630 C   0  0  0  0  0  0  0  0  0  0  0  0
  -31.3580  -12.6910   19.2210 C   0  0  0  0  0  2  0  0  0  0  0  0
  -30.4410  -12.8440   17.9900 C   0  0  0  0  0  2  0  0  0  0  0  0
  -28.9600  -12.8300   18.4130 C   0  0  0  0  0  2  0  0  0  0  0  0
  -28.6610  -13.7960   19.5910 C   0  0  0  0  0  3  0  0  0  0  0  0
  -29.6950  -13.6250   20.7260 C   0  0  0  0  0  2  0  0  0  0  0  0
  -31.0350  -13.7900   20.1420 N   0  0  0  0  0  0  0  0  0  0  0  0
  -32.9450  -14.9540   19.7260 O   0  0  0  0  0  0  0  0  0  0  0  0
  -30.2080  -18.1790   19.2870 C   0  0  0  0  0  2  0  0  0  0  0  0
  -29.9180  -17.7710   21.7290 C   0  0  0  0  0  2  0  0  0  0  0  0
  -31.3070  -17.1050   19.2750 C   0  0  0  0  0  2  0  0  0  0  0  0
  -31.0160  -16.6840   21.6560 C   0  0  0  0  0  2  0  0  0  0  0  0
  -30.1220  -18.8680   20.6580 C   0  0  0  0  0  3  0  0  0  0  0  0
  -31.1020  -16.0810   20.3180 N   0  0  0  0  0  0  0  0  0  0  0  0
  -26.3420  -14.6060   20.3530 C   0  0  0  0  0  0  0  0  0  0  0  0
  -25.2060  -13.9280   20.7090 C   0  0  0  0  0  0  0  0  0  0  0  0
  -25.5350  -12.5400   20.6290 C   0  0  0  0  0  0  0  0  0  0  0  0
  -27.2930  -13.6370   20.0790 N   0  0  0  0  0  0  0  0  0  0  0  0
  -26.8120  -12.3870   20.3030 N   0  0  0  0  0  0  0  0  0  0  0  0
  -24.6930  -11.3480   20.7860 C   0  0  0  0  0  0  0  0  0  0  0  0
  -25.0490  -10.3020   21.6680 C   0  0  0  0  0  3  0  0  0  0  0  0
  -24.2130   -9.1750   21.8160 C   0  0  0  0  0  3  0  0  0  0  0  0
  -23.0060   -9.0840   21.0820 C   0  0  0  0  0  0  0  0  0  0  0  0
  -22.6680  -10.1170   20.1900 C   0  0  0  0  0  3  0  0  0  0  0  0
  -23.5030  -11.2370   20.0390 C   0  0  0  0  0  3  0  0  0  0  0  0
  -22.1450   -8.0160   21.1430 O   0  0  0  0  0  0  0  0  0  0  0  0
  -22.0040   -7.2680   22.2850 C   0  0  0  0  0  0  0  0  0  0  0  0
  -21.6500   -7.8530   23.5190 C   0  0  0  0  0  3  0  0  0  0  0  0
  -21.4480   -7.0390   24.6520 C   0  0  0  0  0  3  0  0  0  0  0  0
  -21.5910   -5.6430   24.5510 C   0  0  0  0  0  0  0  0  0  0  0  0
  -21.9390   -5.0580   23.3210 C   0  0  0  0  0  3  0  0  0  0  0  0
  -22.1420   -5.8690   22.1900 C   0  0  0  0  0  0  0  0  0  0  0  0
  -22.4560   -5.2980   21.0020 F   0  0  0  0  0  0  0  0  0  0  0  0
  -21.3890   -4.8600   25.6370 F   0  0  0  0  0  0  0  0  0  0  0  0
  -23.8650  -14.5270   21.0160 C   0  0  0  0  0  0  0  0  0  0  0  0
  -23.0900  -13.8860   21.8840 N   0  0  0  0  0  0  0  0  0  0  0  0
  -23.5140  -15.5990   20.5220 O   0  0  0  0  0  0  0  0  0  0  0  0
  -23.3870  -13.0180   22.3050 H   0  0  0  0  0  0  0  0  0  0  0  0
  -22.1890  -14.2690   22.1320 H   0  0  0  0  0  0  0  0  0  0  0  0
  -26.6380  -15.9590   20.2200 N   0  0  0  0  0  0  0  0  0  0  0  0
  -25.9450  -16.6850   20.3690 H   0  0  0  0  0  0  0  0  0  0  0  0
  -27.5370  -16.3200   19.9300 H   0  0  0  0  0  0  0  0  0  0  0  0
  2  1  1  0
  3  1  2  0
  4  6  2  0
  4  5  1  0
  5  2  2  0
  6  3  1  0
  7  5  1  0
  7  8  2  0
  9 10  1  0
  9  7  1  0
 11 10  1  0
 12 23  2  0
 13 11  1  0
 13 18  1  0
 14 22  1  0
 14 24  1  0
 15 17  1  0
 16 22  1  0
 17 18  2  0
 17 16  1  0
 19 13  2  0
 20 19  1  0
 20 15  2  0
 21 15  1  0
 21 14  1  0
 22 12  1  0
 24 26  2  0
 25 24  1  0
 27 25  1  0
 28 37  2  0
 28 33  1  0
 29 25  1  0
 29 33  1  0
 30 29  1  0
 31 32  1  0
 31 30  1  0
 32 28  1  0
 33 34  2  0
 34 35  1  0
 36 35  2  0
 37 36  1  0
 38 12  1  0
 38 43  1  0
 38 39  1  0
 39 42  1  1
 39 40  1  0
 41 39  1  0
 43 46  1  0
 44 48  1  0
 44 43  1  0
 45 44  2  0
 48 47  1  0
 50 51  1  0
 50 48  1  0
 50 49  1  0
 52  6  1  0
 53 66  1  0
 54 59  1  0
 55 56  1  0
 55 54  1  0
 57 56  1  0
 57 70  1  0
 57 58  1  0
 59 53  1  0
 59 58  1  0
 60 53  2  0
 61 65  1  0
 63 61  1  0
 63 66  1  0
 64 62  1  0
 65 52  1  0
 65 62  1  0
 66 64  1  0
 67 68  2  0
 68 87  1  0
 69 68  1  0
 69 72  1  0
 70 71  1  0
 70 67  1  0
 71 69  2  0
 72 73  1  0
 73 74  2  0
 75 78  1  0
 75 74  1  0
 76 75  2  0
 77 76  1  0
 77 72  2  0
 78 79  1  0
 79 80  1  0
 80 81  2  0
 82 81  1  0
 82 86  1  0
 83 82  2  0
 84 79  2  0
 84 83  1  0
 85 84  1  0
 87 88  1  0
 88 91  1  0
 88 90  1  0
 89 87  2  0
 92 67  1  0
 92 93  1  0
 94 92  1  0
M  ISO  4  10 101  11 101  53 100  66 100
M  END
>  <TORSDO>  (98) 
F 20

>  <SCORE>  (98) 
-3.573

>  <name>  (98) 
97

>  <ligand_id>  (98) 
97

>  <original_smiles>  (98) 
[H]c1c([H])c([H])c2c(c1[H])C([H])([H])C([H])([H])C([H])([H])C2([H])N([H])C(=O)C1([H])N(C(=O)C([H])(N([H])C(=O)C([H])(N([H])C([H])([H])[H])C([H])([H])[H])C(C([H])([H])[H])(C([H])([H])[H])C([H])([H])[H])C([H])([H])c2c([H])c(OC([H])([H])C([H])([H])C(=O)c3c([H])c([H])c([H])c(C([H])([H])C4([H])C([H])([H])C([H])([H])N(C(=O)N5C([H])([H])C([H])([H])C([H])([H])C([H])(n6nc(-c7c([H])c([H])c(Oc8c([H])c([H])c(F)c([H])c8F)c([H])c7[H])c(C(=O)N([H])[H])c6N([H])[H])C5([H])[H])C([H])([H])C4([H])[H])c3[H])c([H])c([H])c2C1([H])[H]

>  <smiles>  (98) 
[H]c1c([H])c([H])c2c(c1[H])C([H])([H])C([H])([H])C([H])([H])C2([H])N([H])C(=O)C1([H])N(C(=O)C([H])(N([H])C(=O)C([H])(N([H])C([H])([H])[H])C([H])([H])[H])C(C([H])([H])[H])(C([H])([H])[H])C([H])([H])[H])C([H])([H])c2c([H])c(OC([H])([H])C([H])([H])C(=O)c3c([H])c([H])c([H])c(C([H])([H])C4([H])C([H])([H])C([H])([H])N(C(=O)N5C([H])([H])C([H])([H])C([H])([H])C([H])(n6nc(-c7c([H])c([H])c(Oc8c([H])c([H])c(F)c([H])c8F)c([H])c7[H])c(C(=O)N([H])[H])c6N([H])[H])C5([H])[H])C([H])([H])C4([H])[H])c3[H])c([H])c([H])c2C1([H])[H]

$$$$
98:0:0
     RDKit          3D

 94103  0  0  1  0  0  0  0  0999 V2000
  -27.5720  -24.0910   19.7630 C   0  0  0  0  0  2  0  0  0  0  0  0
  -26.2430  -24.8430   20.5760 C   0  0  2  0  0  0  0  0  0  0  0  0
  -29.5610  -25.5440   21.5130 C   0  0  0  0  0  3  0  0  0  0  0  0
  -29.2020  -24.3700   20.2650 C   0  0  0  0  0  3  0  0  0  0  0  0
  -26.5900  -25.9270   21.9410 C   0  0  0  0  0  3  0  0  0  0  0  0
  -28.2640  -26.3560   22.3700 C   0  0  0  0  0  0  0  0  0  0  0  0
  -28.5500  -27.1630   23.6150 C   0  0  0  0  0  1  0  0  0  0  0  0
  -30.2270  -23.1930   19.9700 C   0  0  0  0  0  3  0  0  0  0  0  0
  -29.7610  -21.6720   20.3240 C   0  0  0  0  0  3  0  0  0  0  0  0
  -30.6880  -20.3670   20.1110 C   0  0  0  0  0  2  0  0  0  0  0  0
  -30.0320  -18.8890   20.3040 C   0  0  0  0  0  3  0  0  0  0  0  0
  -30.8690  -17.5350   20.0540 C   0  0  0  0  0  3  0  0  0  0  0  0
  -30.7850  -14.9410   19.9910 C   0  0  0  0  0  0  0  0  0  0  0  0
  -30.3940  -12.6960   18.9760 C   0  0  0  0  0  2  0  0  0  0  0  0
  -29.3970  -12.7740   17.8050 C   0  0  0  0  0  2  0  0  0  0  0  0
  -27.9520  -12.6240   18.3090 C   0  0  0  0  0  2  0  0  0  0  0  0
  -27.6440  -13.4980   19.5550 C   0  0  0  0  0  3  0  0  0  0  0  0
  -28.7760  -13.4500   20.6130 C   0  0  0  0  0  2  0  0  0  0  0  0
  -30.0450  -13.7760   19.9360 N   0  0  0  0  0  0  0  0  0  0  0  0
  -31.9500  -14.9400   19.6050 O   0  0  0  0  0  0  0  0  0  0  0  0
  -30.1940  -16.1650   20.2340 N   0  0  0  0  0  0  0  0  0  0  0  0
  -29.2150  -16.1540   20.4800 H   0  0  0  0  0  0  0  0  0  0  0  0
  -25.2860  -14.0400   20.4160 C   0  0  0  0  0  0  0  0  0  0  0  0
  -24.2470  -13.2480   20.8240 C   0  0  0  0  0  0  0  0  0  0  0  0
  -24.7220  -11.9050   20.7540 C   0  0  0  0  0  0  0  0  0  0  0  0
  -26.3310  -13.1810   20.1200 N   0  0  0  0  0  0  0  0  0  0  0  0
  -25.9990  -11.8900   20.3870 N   0  0  0  0  0  0  0  0  0  0  0  0
  -24.0140  -10.6330   20.9600 C   0  0  0  0  0  0  0  0  0  0  0  0
  -24.4530   -9.6870   21.9130 C   0  0  0  0  0  3  0  0  0  0  0  0
  -23.7410   -8.4830   22.1080 C   0  0  0  0  0  3  0  0  0  0  0  0
  -22.5770   -8.2140   21.3480 C   0  0  0  0  0  0  0  0  0  0  0  0
  -22.1600   -9.1470   20.3820 C   0  0  0  0  0  3  0  0  0  0  0  0
  -22.8720  -10.3430   20.1870 C   0  0  0  0  0  3  0  0  0  0  0  0
  -21.8400   -7.0570   21.4490 O   0  0  0  0  0  0  0  0  0  0  0  0
  -21.7360   -6.3730   22.6350 C   0  0  0  0  0  0  0  0  0  0  0  0
  -21.1890   -6.9690   23.7930 C   0  0  0  0  0  3  0  0  0  0  0  0
  -21.0350   -6.2080   24.9690 C   0  0  0  0  0  3  0  0  0  0  0  0
  -21.4150   -4.8520   24.9870 C   0  0  0  0  0  0  0  0  0  0  0  0
  -21.9520   -4.2570   23.8330 C   0  0  0  0  0  3  0  0  0  0  0  0
  -22.1070   -5.0140   22.6590 C   0  0  0  0  0  0  0  0  0  0  0  0
  -22.6060   -4.4300   21.5430 F   0  0  0  0  0  0  0  0  0  0  0  0
  -21.2580   -4.1180   26.1130 F   0  0  0  0  0  0  0  0  0  0  0  0
  -22.8590  -13.7090   21.1610 C   0  0  0  0  0  0  0  0  0  0  0  0
  -22.1790  -12.9990   22.0530 N   0  0  0  0  0  0  0  0  0  0  0  0
  -22.3860  -14.7360   20.6710 O   0  0  0  0  0  0  0  0  0  0  0  0
  -22.5760  -12.1730   22.4740 H   0  0  0  0  0  0  0  0  0  0  0  0
  -21.2480  -13.2880   22.3220 H   0  0  0  0  0  0  0  0  0  0  0  0
  -25.4240  -15.4170   20.2530 N   0  0  0  0  0  0  0  0  0  0  0  0
  -24.6530  -16.0560   20.4130 H   0  0  0  0  0  0  0  0  0  0  0  0
  -26.2510  -15.8770   19.8910 H   0  0  0  0  0  0  0  0  0  0  0  0
  -25.8320  -25.4850   23.1090 C   0  0  0  0  0  2  0  0  0  0  0  0
  -26.4250  -24.0750   23.0420 C   0  0  0  0  0  2  0  0  0  0  0  0
  -27.3810  -23.9010   21.7630 C   0  0  0  0  0  2  0  0  0  0  0  0
  -27.4770  -26.0140   19.9060 O   0  0  0  0  0  0  0  0  0  0  0  0
  -24.3270  -31.7340   23.0890 C   0  0  0  0  0  0  0  0  0  0  0  0
  -26.6720  -27.2430   19.6420 C   0  0  0  0  0  0  0  0  0  0  0  0
  -23.0380  -30.4780   21.4050 C   0  0  0  0  0  3  0  0  0  0  0  0
  -24.4030  -29.0220   19.7890 C   0  0  0  0  0  0  0  0  0  0  0  0
  -25.5920  -30.7140   21.1710 C   0  0  0  0  0  2  0  0  0  0  0  0
  -25.6030  -29.3830   20.4200 C   0  0  0  0  0  0  0  0  0  0  0  0
  -26.7320  -28.4920   20.3730 C   0  0  0  0  0  3  0  0  0  0  0  0
  -25.5290  -27.0900   18.8190 C   0  0  0  0  0  3  0  0  0  0  0  0
  -24.3800  -27.8830   18.9760 C   0  0  0  0  0  3  0  0  0  0  0  0
  -23.1880  -29.9080   19.9680 C   0  0  0  0  0  2  0  0  0  0  0  0
  -24.3390  -30.9960   21.9400 N   0  0  0  0  0  0  0  0  0  0  0  0
  -23.2680  -32.0050   23.6740 O   0  0  0  0  0  0  0  0  0  0  0  0
  -22.3860  -29.4120   22.3220 C   0  0  0  0  0  0  0  0  0  0  0  0
  -21.0510  -29.2640   22.2470 N   0  0  0  0  0  0  0  0  0  0  0  0
  -23.0880  -28.7300   23.0740 O   0  0  0  0  0  0  0  0  0  0  0  0
  -20.5450  -29.8720   21.6070 H   0  0  0  0  0  0  0  0  0  0  0  0
  -17.6610  -28.1500   22.8360 C   0  0  0  0  0  0  0  0  0  0  0  0
  -20.2370  -28.2950   22.9860 C   0  0  0  0  0  3  0  0  0  0  0  0
  -20.2520  -26.9100   22.2930 C   0  0  0  0  0  2  0  0  0  0  0  0
  -19.0920  -26.7200   21.3130 C   0  0  0  0  0  2  0  0  0  0  0  0
  -17.7480  -26.8630   22.0310 C   0  0  0  0  0  2  0  0  0  0  0  0
  -18.8330  -28.8290   23.2670 C   0  0  0  0  0  0  0  0  0  0  0  0
  -18.6970  -30.0470   23.9690 C   0  0  0  0  0  3  0  0  0  0  0  0
  -17.4270  -30.5840   24.2480 C   0  0  0  0  0  3  0  0  0  0  0  0
  -16.2680  -29.8960   23.8480 C   0  0  0  0  0  3  0  0  0  0  0  0
  -16.3880  -28.6800   23.1440 C   0  0  0  0  0  3  0  0  0  0  0  0
  -25.6460  -32.2960   23.6980 C   0  0  0  0  0  3  0  0  0  0  0  0
  -25.3880  -33.6860   24.1060 N   0  0  0  0  0  0  0  0  0  0  0  0
  -25.7250  -34.7710   23.3930 C   0  0  0  0  0  0  0  0  0  0  0  0
  -26.3620  -34.7040   22.3420 O   0  0  0  0  0  0  0  0  0  0  0  0
  -24.8310  -33.8160   24.9330 H   0  0  0  0  0  0  0  0  0  0  0  0
  -24.0510  -36.6430   23.1710 C   0  0  0  0  0  1  0  0  0  0  0  0
  -25.2920  -36.1520   23.9290 C   0  0  0  0  0  3  0  0  0  0  0  0
  -27.4700  -36.9220   24.7710 C   0  0  0  0  0  1  0  0  0  0  0  0
  -26.3600  -37.1770   23.8600 N   0  0  0  0  0  0  0  0  0  0  0  0
  -25.9840  -38.0970   24.0730 H   0  0  0  0  0  0  0  0  0  0  0  0
  -26.1720  -31.4460   24.9170 C   0  0  1  0  0  0  0  0  0  0  0  0
  -25.1100  -31.1990   26.0160 C   0  0  0  0  0  1  0  0  0  0  0  0
  -26.6930  -30.0720   24.4330 C   0  0  0  0  0  1  0  0  0  0  0  0
  -27.3710  -32.1610   25.5770 C   0  0  0  0  0  1  0  0  0  0  0  0
  1  4  1  0
  1  2  1  0
  2 54  1  1
  2 53  1  0
  2  5  1  0
  3  6  2  0
  4  8  1  0
  4  3  1  0
  5  6  1  0
  5 51  1  0
  6  7  1  0
  8  9  2  0
 10 11  1  0
 10  9  1  0
 12 21  1  0
 12 11  2  0
 13 21  1  0
 14 19  1  0
 15 16  1  0
 15 14  1  0
 17 16  1  0
 17 26  1  0
 17 18  1  0
 19 13  1  0
 19 18  1  0
 20 13  2  0
 21 22  1  0
 23 24  2  0
 24 43  1  0
 25 24  1  0
 25 28  1  0
 26 27  1  0
 26 23  1  0
 27 25  2  0
 28 29  1  0
 29 30  2  0
 31 34  1  0
 31 30  1  0
 32 31  2  0
 33 32  1  0
 33 28  2  0
 34 35  1  0
 35 40  2  0
 35 36  1  0
 36 37  2  0
 37 38  1  0
 38 42  1  0
 39 38  2  0
 40 39  1  0
 41 40  1  0
 43 44  1  0
 44 47  1  0
 44 46  1  0
 45 43  2  0
 48 49  1  0
 48 23  1  0
 50 48  1  0
 52 51  1  0
 53 52  1  0
 55 66  2  0
 56 54  1  0
 56 61  1  0
 57 65  1  0
 57 67  1  0
 58 64  1  0
 58 60  1  0
 59 65  1  0
 60 59  1  0
 61 60  2  0
 62 63  1  0
 62 56  2  0
 63 58  2  0
 64 57  1  0
 65 55  1  0
 67 69  2  0
 68 67  1  0
 70 68  1  0
 71 80  2  0
 71 76  1  0
 72 68  1  0
 72 76  1  0
 73 72  1  0
 74 75  1  0
 74 73  1  0
 75 71  1  0
 76 77  2  0
 77 78  1  0
 79 78  2  0
 80 79  1  0
 81 55  1  0
 81 82  1  0
 81 91  1  0
 82 85  1  0
 83 87  1  0
 83 82  1  0
 84 83  2  0
 87 86  1  0
 89 87  1  0
 89 90  1  0
 89 88  1  0
 91 94  1  1
 91 92  1  0
 93 91  1  0
M  ISO  4  13 100  21 100  53 101  54 101
M  END
>  <TORSDO>  (99) 
F 24

>  <SCORE>  (99) 
-12.076

>  <name>  (99) 
98

>  <ligand_id>  (99) 
98

>  <original_smiles>  (99) 
[H]c1c([H])c([H])c2c(c1[H])C([H])([H])C([H])([H])C([H])([H])C2([H])N([H])C(=O)C1([H])N(C(=O)C([H])(N([H])C(=O)C([H])(N([H])C([H])([H])[H])C([H])([H])[H])C(C([H])([H])[H])(C([H])([H])[H])C([H])([H])[H])C([H])([H])c2c([H])c(OC([H])([H])C([H])([H])C([H])([H])c3c([H])c([H])c(C([H])([H])C([H])([H])C([H])([H])C([H])([H])C([H])([H])N([H])C(=O)N4C([H])([H])C([H])([H])C([H])([H])C([H])(n5nc(-c6c([H])c([H])c(Oc7c([H])c([H])c(F)c([H])c7F)c([H])c6[H])c(C(=O)N([H])[H])c5N([H])[H])C4([H])[H])c([H])c3C([H])([H])[H])c([H])c([H])c2C1([H])[H]

>  <smiles>  (99) 
[H]c1c([H])c([H])c2c(c1[H])C([H])([H])C([H])([H])C([H])([H])C2([H])N([H])C(=O)C1([H])N(C(=O)C([H])(N([H])C(=O)C([H])(N([H])C([H])([H])[H])C([H])([H])[H])C(C([H])([H])[H])(C([H])([H])[H])C([H])([H])[H])C([H])([H])c2c([H])c(OC([H])([H])C([H])([H])C([H])([H])c3c([H])c([H])c(C([H])([H])C([H])([H])C([H])([H])C([H])([H])C([H])([H])N([H])C(=O)N4C([H])([H])C([H])([H])C([H])([H])C([H])(n5nc(-c6c([H])c([H])c(Oc7c([H])c([H])c(F)c([H])c7F)c([H])c6[H])c(C(=O)N([H])[H])c5N([H])[H])C4([H])[H])c([H])c3C([H])([H])[H])c([H])c([H])c2C1([H])[H]

$$$$
99:0:0
     RDKit          3D

 95102  0  0  1  0  0  0  0  0999 V2000
  -26.4510  -23.8250   21.0970 C   0  0  0  0  0  2  0  0  0  0  0  0
  -26.2100  -22.5660   21.9650 C   0  0  0  0  0  2  0  0  0  0  0  0
  -25.4040  -21.5110   21.1770 C   0  0  0  0  0  2  0  0  0  0  0  0
  -24.8410  -20.3340   22.0080 C   0  0  0  0  0  2  0  0  0  0  0  0
  -25.6170  -19.0030   21.9250 C   0  0  0  0  0  2  0  0  0  0  0  0
  -27.0580  -19.0130   22.4830 C   0  0  0  0  0  2  0  0  0  0  0  0
  -27.7540  -17.6450   22.2800 C   0  0  0  0  0  2  0  0  0  0  0  0
  -29.2290  -17.6920   22.4630 N   0  0  0  0  0  4  0  0  0  0  0  0
  -29.6060  -18.3690   21.8190 H   0  0  0  0  0  0  0  0  0  0  0  0
  -29.4250  -18.0350   23.3920 H   0  0  0  0  0  0  0  0  0  0  0  0
  -29.9650  -16.4000   22.2940 C   0  0  0  0  0  2  0  0  0  0  0  0
  -29.8070  -15.7760   20.8870 C   0  0  0  0  0  2  0  0  0  0  0  0
  -30.6490  -14.5140   20.5710 C   0  0  0  0  0  0  0  0  0  0  0  0
  -30.4380  -12.3230   19.4510 C   0  0  0  0  0  2  0  0  0  0  0  0
  -29.5070  -12.4930   18.2280 C   0  0  0  0  0  2  0  0  0  0  0  0
  -28.0270  -12.3170   18.6240 C   0  0  0  0  0  2  0  0  0  0  0  0
  -27.6510  -13.1800   19.8560 C   0  0  0  0  0  3  0  0  0  0  0  0
  -28.6890  -13.0100   20.9920 C   0  0  0  0  0  2  0  0  0  0  0  0
  -30.0230  -13.3120   20.4570 N   0  0  0  0  0  0  0  0  0  0  0  0
  -31.8120  -14.6890   20.1930 O   0  0  0  0  0  0  0  0  0  0  0  0
  -25.2560  -13.8030   20.5690 C   0  0  0  0  0  0  0  0  0  0  0  0
  -24.1830  -13.0370   20.9210 C   0  0  0  0  0  0  0  0  0  0  0  0
  -24.6350  -11.6820   20.8730 C   0  0  0  0  0  0  0  0  0  0  0  0
  -26.2950  -12.9160   20.3240 N   0  0  0  0  0  0  0  0  0  0  0  0
  -25.9260  -11.6350   20.5730 N   0  0  0  0  0  0  0  0  0  0  0  0
  -23.8990  -10.4250   21.0410 C   0  0  0  0  0  0  0  0  0  0  0  0
  -24.3550   -9.4180   21.9200 C   0  0  0  0  0  3  0  0  0  0  0  0
  -23.6230   -8.2220   22.0780 C   0  0  0  0  0  3  0  0  0  0  0  0
  -22.4230   -8.0240   21.3550 C   0  0  0  0  0  0  0  0  0  0  0  0
  -21.9840   -9.0210   20.4670 C   0  0  0  0  0  3  0  0  0  0  0  0
  -22.7150  -10.2090   20.3070 C   0  0  0  0  0  3  0  0  0  0  0  0
  -21.6600   -6.8860   21.4240 O   0  0  0  0  0  0  0  0  0  0  0  0
  -21.6830   -6.0720   22.5280 C   0  0  0  0  0  0  0  0  0  0  0  0
  -21.4010   -6.5630   23.8210 C   0  0  0  0  0  3  0  0  0  0  0  0
  -21.3660   -5.6790   24.9180 C   0  0  0  0  0  3  0  0  0  0  0  0
  -21.6030   -4.3050   24.7220 C   0  0  0  0  0  0  0  0  0  0  0  0
  -21.8810   -3.8130   23.4360 C   0  0  0  0  0  3  0  0  0  0  0  0
  -21.9190   -4.6950   22.3400 C   0  0  0  0  0  0  0  0  0  0  0  0
  -22.1630   -4.2130   21.0970 F   0  0  0  0  0  0  0  0  0  0  0  0
  -21.5640   -3.4540   25.7740 F   0  0  0  0  0  0  0  0  0  0  0  0
  -22.7860  -13.5230   21.1880 C   0  0  0  0  0  0  0  0  0  0  0  0
  -22.0450  -12.8280   22.0390 N   0  0  0  0  0  0  0  0  0  0  0  0
  -22.3620  -14.5570   20.6740 O   0  0  0  0  0  0  0  0  0  0  0  0
  -22.4000  -11.9920   22.4770 H   0  0  0  0  0  0  0  0  0  0  0  0
  -21.1100  -13.1410   22.2640 H   0  0  0  0  0  0  0  0  0  0  0  0
  -25.4280  -15.1770   20.4180 N   0  0  0  0  0  0  0  0  0  0  0  0
  -24.6360  -15.8030   20.5220 H   0  0  0  0  0  0  0  0  0  0  0  0
  -26.2330  -15.6130   19.9890 H   0  0  0  0  0  0  0  0  0  0  0  0
  -27.7120  -24.6550   21.4490 C   0  0  0  0  0  3  0  0  0  0  0  0
  -27.4690  -25.6220   22.5510 N   0  0  0  0  0  4  0  0  0  0  0  0
  -26.9140  -26.3950   22.2210 H   0  0  0  0  0  0  0  0  0  0  0  0
  -28.3350  -26.0030   22.8970 H   0  0  0  0  0  0  0  0  0  0  0  0
  -27.0020  -25.1910   23.3310 H   0  0  0  0  0  0  0  0  0  0  0  0
  -28.3450  -25.3160   20.1810 C   0  0  0  0  0  2  0  0  0  0  0  0
  -28.3920  -26.7490   20.1750 O   0  0  0  0  0  0  0  0  0  0  0  0
  -24.6140  -31.8720   23.2080 C   0  0  0  0  0  0  0  0  0  0  0  0
  -27.2150  -27.4580   20.0980 C   0  0  0  0  0  0  0  0  0  0  0  0
  -23.3970  -30.5010   21.5510 C   0  0  0  0  0  3  0  0  0  0  0  0
  -24.8350  -28.9720   20.1120 C   0  0  0  0  0  0  0  0  0  0  0  0
  -25.9210  -30.8530   21.3480 C   0  0  0  0  0  2  0  0  0  0  0  0
  -25.9960  -29.4920   20.6950 C   0  0  0  0  0  0  0  0  0  0  0  0
  -27.1910  -28.7450   20.6780 C   0  0  0  0  0  3  0  0  0  0  0  0
  -26.0380  -26.9510   19.4980 C   0  0  0  0  0  3  0  0  0  0  0  0
  -24.8480  -27.7030   19.5100 C   0  0  0  0  0  3  0  0  0  0  0  0
  -23.5940  -29.8310   20.1680 C   0  0  0  0  0  2  0  0  0  0  0  0
  -24.6640  -31.0880   22.0940 N   0  0  0  0  0  0  0  0  0  0  0  0
  -23.5350  -32.1360   23.7530 O   0  0  0  0  0  0  0  0  0  0  0  0
  -22.7390  -29.4700   22.4960 C   0  0  0  0  0  0  0  0  0  0  0  0
  -21.4120  -29.3080   22.3730 N   0  0  0  0  0  0  0  0  0  0  0  0
  -23.4200  -28.8170   23.2930 O   0  0  0  0  0  0  0  0  0  0  0  0
  -20.9230  -29.8740   21.6920 H   0  0  0  0  0  0  0  0  0  0  0  0
  -18.0300  -28.1350   22.8600 C   0  0  0  0  0  0  0  0  0  0  0  0
  -20.5880  -28.3710   23.1350 C   0  0  0  0  0  3  0  0  0  0  0  0
  -20.6850  -26.9450   22.5430 C   0  0  0  0  0  2  0  0  0  0  0  0
  -19.5770  -26.6500   21.5270 C   0  0  0  0  0  2  0  0  0  0  0  0
  -18.1980  -26.7870   22.1810 C   0  0  0  0  0  2  0  0  0  0  0  0
  -19.1530  -28.8870   23.2950 C   0  0  0  0  0  0  0  0  0  0  0  0
  -18.9390  -30.1510   23.8890 C   0  0  0  0  0  3  0  0  0  0  0  0
  -17.6370  -30.6610   24.0470 C   0  0  0  0  0  3  0  0  0  0  0  0
  -16.5270  -29.9050   23.6270 C   0  0  0  0  0  3  0  0  0  0  0  0
  -16.7270  -28.6430   23.0390 C   0  0  0  0  0  3  0  0  0  0  0  0
  -25.9020  -32.4860   23.8360 C   0  0  0  0  0  3  0  0  0  0  0  0
  -25.5850  -33.8640   24.2310 N   0  0  0  0  0  0  0  0  0  0  0  0
  -25.9020  -34.9510   23.5140 C   0  0  0  0  0  0  0  0  0  0  0  0
  -26.5610  -34.8980   22.4710 O   0  0  0  0  0  0  0  0  0  0  0  0
  -25.0000  -33.9790   25.0450 H   0  0  0  0  0  0  0  0  0  0  0  0
  -24.1470  -36.7330   23.2630 C   0  0  0  0  0  1  0  0  0  0  0  0
  -25.4100  -36.3150   24.0340 C   0  0  0  0  0  3  0  0  0  0  0  0
  -27.5590  -37.1810   24.8460 C   0  0  0  0  0  1  0  0  0  0  0  0
  -26.4320  -37.3810   23.9400 N   0  0  0  0  0  0  0  0  0  0  0  0
  -26.0240  -38.2900   24.1400 H   0  0  0  0  0  0  0  0  0  0  0  0
  -26.4460  -31.6630   25.0670 C   0  0  1  0  0  0  0  0  0  0  0  0
  -25.3730  -31.3710   26.1430 C   0  0  0  0  0  1  0  0  0  0  0  0
  -27.0230  -30.3050   24.6000 C   0  0  0  0  0  1  0  0  0  0  0  0
  -27.6050  -32.4320   25.7440 C   0  0  0  0  0  1  0  0  0  0  0  0
  1 49  1  0
  1  2  1  0
  3  2  1  0
  3  4  1  0
  5  4  1  0
  5  6  1  0
  7  8  1  0
  7  6  1  0
  8 10  1  0
  9  8  1  0
 11  8  1  0
 12 11  1  0
 13 12  1  0
 14 19  1  0
 15 16  1  0
 15 14  1  0
 17 16  1  0
 17 24  1  0
 17 18  1  0
 19 13  1  0
 19 18  1  0
 20 13  2  0
 21 22  2  0
 22 41  1  0
 23 22  1  0
 23 26  1  0
 24 21  1  0
 24 25  1  0
 25 23  2  0
 26 27  1  0
 27 28  2  0
 29 32  1  0
 29 28  1  0
 30 29  2  0
 31 30  1  0
 31 26  2  0
 32 33  1  0
 33 34  1  0
 34 35  2  0
 36 35  1  0
 36 40  1  0
 37 36  2  0
 38 33  2  0
 38 37  1  0
 39 38  1  0
 41 42  1  0
 42 45  1  0
 42 44  1  0
 43 41  2  0
 46 47  1  0
 46 21  1  0
 48 46  1  0
 49 54  1  0
 49 50  1  0
 50 52  1  0
 50 53  1  0
 51 50  1  0
 55 54  1  0
 56 67  2  0
 57 55  1  0
 57 62  1  0
 58 66  1  0
 58 68  1  0
 59 65  1  0
 59 61  1  0
 60 66  1  0
 61 60  1  0
 62 61  2  0
 63 64  1  0
 63 57  2  0
 64 59  2  0
 65 58  1  0
 66 56  1  0
 68 70  2  0
 69 68  1  0
 71 69  1  0
 72 81  2  0
 72 77  1  0
 73 69  1  0
 73 77  1  0
 74 73  1  0
 75 76  1  0
 75 74  1  0
 76 72  1  0
 77 78  2  0
 78 79  1  0
 80 79  2  0
 81 80  1  0
 82 56  1  0
 82 83  1  0
 82 92  1  0
 83 86  1  0
 84 88  1  0
 84 83  1  0
 85 84  2  0
 88 87  1  0
 90 88  1  0
 90 91  1  0
 90 89  1  0
 92 95  1  1
 92 93  1  0
 94 92  1  0
M  ISO  4  12 100  13 100  54 101  55 101
M  END
>  <TORSDO>  (100) 
F 28

>  <SCORE>  (100) 
20.296

>  <name>  (100) 
99

>  <ligand_id>  (100) 
99

>  <original_smiles>  (100) 
[H]c1c([H])c([H])c2c(c1[H])C([H])([H])C([H])([H])C([H])([H])C2([H])N([H])C(=O)C1([H])N(C(=O)C([H])(N([H])C(=O)C([H])(N([H])C([H])([H])[H])C([H])([H])[H])C(C([H])([H])[H])(C([H])([H])[H])C([H])([H])[H])C([H])([H])c2c([H])c(OC([H])([H])C([H])(C([H])([H])C([H])([H])C([H])([H])C([H])([H])C([H])([H])C([H])([H])C([H])([H])[N+]([H])([H])C([H])([H])C([H])([H])C(=O)N3C([H])([H])C([H])([H])C([H])([H])C([H])(n4nc(-c5c([H])c([H])c(Oc6c([H])c([H])c(F)c([H])c6F)c([H])c5[H])c(C(=O)N([H])[H])c4N([H])[H])C3([H])[H])[N+]([H])([H])[H])c([H])c([H])c2C1([H])[H]

>  <smiles>  (100) 
[H]c1c([H])c([H])c2c(c1[H])C([H])([H])C([H])([H])C([H])([H])C2([H])N([H])C(=O)C1([H])N(C(=O)C([H])(N([H])C(=O)C([H])(N([H])C([H])([H])[H])C([H])([H])[H])C(C([H])([H])[H])(C([H])([H])[H])C([H])([H])[H])C([H])([H])c2c([H])c(OC([H])([H])C([H])(C([H])([H])C([H])([H])C([H])([H])C([H])([H])C([H])([H])C([H])([H])C([H])([H])[N+]([H])([H])C([H])([H])C([H])([H])C(=O)N3C([H])([H])C([H])([H])C([H])([H])C([H])(n4nc(-c5c([H])c([H])c(Oc6c([H])c([H])c(F)c([H])c6F)c([H])c5[H])c(C(=O)N([H])[H])c4N([H])[H])C3([H])[H])[N+]([H])([H])[H])c([H])c([H])c2C1([H])[H]

$$$$
