0:0:0
     RDKit          3D

 96103  0  0  1  0  0  0  0  0999 V2000
  -28.5390  -26.6700   15.3760 N   0  0  0  0  0  4  0  0  0  0  0  0
  -28.7940  -27.6470   15.3170 H   0  0  0  0  0  0  0  0  0  0  0  0
  -29.0590  -26.1660   14.6780 H   0  0  0  0  0  0  0  0  0  0  0  0
  -29.0010  -26.3000   16.7300 C   0  0  0  0  0  3  0  0  0  0  0  0
  -29.5770  -27.5920   17.3170 C   0  0  0  0  0  3  0  0  0  0  0  0
  -30.4610  -28.2520   16.7580 O   0  0  0  0  0  0  0  0  0  0  0  0
  -30.0620  -25.1730   16.6950 C   0  0  0  0  0  2  0  0  0  0  0  0
  -29.4680  -23.7470   16.7720 C   0  0  0  0  0  2  0  0  0  0  0  0
  -30.3480  -22.7770   16.2030 O   0  0  0  0  0  0  0  0  0  0  0  0
  -32.5350  -18.4610   11.0180 C   0  0  0  0  0  0  0  0  0  0  0  0
  -30.2820  -22.5070   14.8510 C   0  0  0  0  0  0  0  0  0  0  0  0
  -31.3290  -20.4900   10.2710 C   0  0  0  0  0  3  0  0  0  0  0  0
  -30.1690  -21.8220   12.1060 C   0  0  0  0  0  0  0  0  0  0  0  0
  -30.8730  -19.4710   12.5700 C   0  0  0  0  0  2  0  0  0  0  0  0
  -30.5450  -20.8650   13.0550 C   0  0  0  0  0  0  0  0  0  0  0  0
  -30.6090  -21.2030   14.4230 C   0  0  0  0  0  3  0  0  0  0  0  0
  -29.8950  -23.4610   13.8780 C   0  0  0  0  0  3  0  0  0  0  0  0
  -29.8480  -23.1260   12.5130 C   0  0  0  0  0  3  0  0  0  0  0  0
  -30.1200  -21.3800   10.6620 C   0  0  0  0  0  2  0  0  0  0  0  0
  -31.6320  -19.4430   11.3000 N   0  0  0  0  0  0  0  0  0  0  0  0
  -33.0840  -18.3980    9.9090 O   0  0  0  0  0  0  0  0  0  0  0  0
  -32.5340  -21.4110    9.9690 C   0  0  0  0  0  0  0  0  0  0  0  0
  -32.7270  -21.7320    8.6790 N   0  0  0  0  0  0  0  0  0  0  0  0
  -33.2520  -21.8360   10.8780 O   0  0  0  0  0  0  0  0  0  0  0  0
  -32.1000  -21.3370    7.9920 H   0  0  0  0  0  0  0  0  0  0  0  0
  -34.7360  -22.4610    5.7700 C   0  0  0  0  0  0  0  0  0  0  0  0
  -33.7740  -22.6130    8.1630 C   0  0  0  0  0  3  0  0  0  0  0  0
  -33.1930  -23.9790    7.7340 C   0  0  0  0  0  2  0  0  0  0  0  0
  -32.8120  -24.0350    6.2520 C   0  0  0  0  0  2  0  0  0  0  0  0
  -34.0350  -23.7500    5.3740 C   0  0  0  0  0  2  0  0  0  0  0  0
  -34.6020  -21.9190    7.0750 C   0  0  0  0  0  0  0  0  0  0  0  0
  -35.2450  -20.7000    7.3800 C   0  0  0  0  0  3  0  0  0  0  0  0
  -36.0140  -20.0290    6.4120 C   0  0  0  0  0  3  0  0  0  0  0  0
  -36.1570  -20.5770    5.1260 C   0  0  0  0  0  3  0  0  0  0  0  0
  -35.5230  -21.7930    4.8090 C   0  0  0  0  0  3  0  0  0  0  0  0
  -32.9040  -17.3640   12.0640 C   0  0  0  0  0  3  0  0  0  0  0  0
  -34.1440  -17.7500   12.9620 C   0  0  1  0  0  0  0  0  0  0  0  0
  -35.4950  -17.2700   12.3880 C   0  0  0  0  0  1  0  0  0  0  0  0
  -34.2270  -19.2820   13.1480 C   0  0  0  0  0  1  0  0  0  0  0  0
  -33.9790  -17.1410   14.3760 C   0  0  0  0  0  1  0  0  0  0  0  0
  -33.1640  -16.1220   11.3270 N   0  0  0  0  0  0  0  0  0  0  0  0
  -32.2230  -15.2370   10.9730 C   0  0  0  0  0  0  0  0  0  0  0  0
  -31.0400  -15.3490   11.3030 O   0  0  0  0  0  0  0  0  0  0  0  0
  -34.1030  -15.9870   10.9810 H   0  0  0  0  0  0  0  0  0  0  0  0
  -31.9510  -14.0900    8.7520 C   0  0  0  0  0  1  0  0  0  0  0  0
  -32.6620  -14.0360   10.1140 C   0  0  0  0  0  3  0  0  0  0  0  0
  -33.2410  -12.5010   11.9380 C   0  0  0  0  0  1  0  0  0  0  0  0
  -32.4120  -12.7290   10.7570 N   0  0  0  0  0  0  0  0  0  0  0  0
  -32.5770  -11.9690   10.1030 H   0  0  0  0  0  0  0  0  0  0  0  0
  -27.0840  -26.5240   15.1280 C   0  0  0  0  0  2  0  0  0  0  0  0
  -26.3480  -27.8560   15.3500 C   0  0  0  0  0  2  0  0  0  0  0  0
  -25.2120  -27.7950   16.3920 C   0  0  0  0  0  2  0  0  0  0  0  0
  -25.0960  -29.0750   17.2400 C   0  0  0  0  0  2  0  0  0  0  0  0
  -24.2250  -28.8660   18.4890 C   0  0  0  0  0  2  0  0  0  0  0  0
  -24.1300  -30.1030   19.3780 C   0  0  0  0  0  2  0  0  0  0  0  0
  -25.2970  -30.1660   20.3740 C   0  0  0  0  0  2  0  0  0  0  0  0
  -25.5690  -28.7910   21.0040 C   0  0  0  0  0  2  0  0  0  0  0  0
  -27.0550  -28.3800   21.0530 C   0  0  0  0  0  2  0  0  0  0  0  0
  -28.2680  -29.0070   23.1150 C   0  0  0  0  0  0  0  0  0  0  0  0
  -30.0350  -27.9740   24.4910 C   0  0  0  0  0  2  0  0  0  0  0  0
  -31.3690  -28.7330   24.3370 C   0  0  0  0  0  2  0  0  0  0  0  0
  -32.1580  -28.2460   23.1080 C   0  0  0  0  0  2  0  0  0  0  0  0
  -31.2820  -28.1600   21.8300 C   0  0  0  0  0  3  0  0  0  0  0  0
  -29.9750  -27.4060   22.1440 C   0  0  0  0  0  2  0  0  0  0  0  0
  -29.2800  -28.1050   23.2390 N   0  0  0  0  0  0  0  0  0  0  0  0
  -27.8440  -29.6810   24.0580 O   0  0  0  0  0  0  0  0  0  0  0  0
  -27.8580  -29.2870   21.8760 N   0  0  0  0  0  0  0  0  0  0  0  0
  -27.5110  -30.2330   21.8150 H   0  0  0  0  0  0  0  0  0  0  0  0
  -32.4240  -28.1040   19.5200 C   0  0  0  0  0  0  0  0  0  0  0  0
  -33.1300  -27.1250   18.8730 C   0  0  0  0  0  0  0  0  0  0  0  0
  -33.1210  -25.9910   19.7430 C   0  0  0  0  0  0  0  0  0  0  0  0
  -32.0100  -27.5460   20.7200 N   0  0  0  0  0  0  0  0  0  0  0  0
  -32.3930  -26.2480   20.8240 N   0  0  0  0  0  0  0  0  0  0  0  0
  -33.8040  -24.6960   19.6370 C   0  0  0  0  0  0  0  0  0  0  0  0
  -33.1120  -23.5330   19.2340 C   0  0  0  0  0  3  0  0  0  0  0  0
  -33.7930  -22.3020   19.1190 C   0  0  0  0  0  3  0  0  0  0  0  0
  -35.1760  -22.2270   19.4050 C   0  0  0  0  0  0  0  0  0  0  0  0
  -35.8550  -23.3830   19.8270 C   0  0  0  0  0  3  0  0  0  0  0  0
  -35.1750  -24.6050   19.9460 C   0  0  0  0  0  3  0  0  0  0  0  0
  -35.9120  -21.0680   19.3480 O   0  0  0  0  0  0  0  0  0  0  0  0
  -36.2410  -20.4800   18.1520 C   0  0  0  0  0  0  0  0  0  0  0  0
  -37.0120  -21.1520   17.1810 C   0  0  0  0  0  3  0  0  0  0  0  0
  -37.3880  -20.4870   15.9970 C   0  0  0  0  0  3  0  0  0  0  0  0
  -37.0050  -19.1510   15.7860 C   0  0  0  0  0  0  0  0  0  0  0  0
  -36.2400  -18.4760   16.7560 C   0  0  0  0  0  3  0  0  0  0  0  0
  -35.8630  -19.1380   17.9380 C   0  0  0  0  0  0  0  0  0  0  0  0
  -35.1460  -18.4780   18.8770 F   0  0  0  0  0  0  0  0  0  0  0  0
  -37.3680  -18.5080   14.6510 F   0  0  0  0  0  0  0  0  0  0  0  0
  -33.8560  -27.2580   17.5660 C   0  0  0  0  0  0  0  0  0  0  0  0
  -33.6030  -26.3540   16.6260 N   0  0  0  0  0  0  0  0  0  0  0  0
  -34.6220  -28.1980   17.3540 O   0  0  0  0  0  0  0  0  0  0  0  0
  -32.9480  -25.6030   16.7910 H   0  0  0  0  0  0  0  0  0  0  0  0
  -34.0620  -26.4170   15.7270 H   0  0  0  0  0  0  0  0  0  0  0  0
  -32.1200  -29.4220   19.1940 N   0  0  0  0  0  0  0  0  0  0  0  0
  -32.4530  -29.8530   18.3410 H   0  0  0  0  0  0  0  0  0  0  0  0
  -31.5760  -30.0500   19.7710 H   0  0  0  0  0  0  0  0  0  0  0  0
  1  4  1  0
  2  1  1  0
  3  1  1  0
  4  7  1  0
  4  5  1  0
  6  5  2  0
  7  8  1  0
  9  8  1  0
 10 20  1  0
 11  9  1  0
 12 22  1  0
 12 19  1  0
 12 20  1  0
 13 18  2  0
 13 15  1  0
 14 15  1  0
 15 16  2  0
 16 11  1  0
 17 11  2  0
 18 17  1  0
 19 13  1  0
 20 14  1  0
 21 10  2  0
 22 24  2  0
 23 22  1  0
 25 23  1  0
 26 31  1  0
 27 23  1  0
 28 27  1  0
 29 28  1  0
 30 26  1  0
 30 29  1  0
 31 32  2  0
 31 27  1  0
 33 32  1  0
 34 33  2  0
 35 34  1  0
 35 26  2  0
 36 10  1  0
 36 37  1  0
 37 39  1  1
 37 40  1  0
 38 37  1  0
 41 36  1  0
 42 43  2  0
 42 41  1  0
 44 41  1  0
 46 45  1  0
 46 48  1  0
 46 42  1  0
 48 47  1  0
 49 48  1  0
 50 51  1  0
 50  1  1  0
 51 52  1  0
 52 53  1  0
 53 54  1  0
 54 55  1  0
 55 56  1  0
 56 57  1  0
 57 58  1  0
 58 67  1  0
 59 65  1  0
 59 66  2  0
 61 60  1  0
 62 61  1  0
 63 72  1  0
 63 64  1  0
 63 62  1  0
 64 65  1  0
 65 60  1  0
 67 59  1  0
 68 67  1  0
 69 72  1  0
 70 69  2  0
 70 71  1  0
 71 73  2  0
 72 73  1  0
 74 71  1  0
 74 79  1  0
 75 74  2  0
 76 75  1  0
 76 77  2  0
 77 78  1  0
 78 79  2  0
 80 77  1  0
 81 80  1  0
 82 81  2  0
 83 82  1  0
 84 83  2  0
 84 85  1  0
 85 86  2  0
 86 81  1  0
 86 87  1  0
 88 84  1  0
 89 70  1  0
 90 92  1  0
 90 89  1  0
 91 89  2  0
 93 90  1  0
 94 69  1  0
 94 96  1  0
 95 94  1  0
M  ISO  4   8 101   9 101  59 100  67 100
M  END
>  <TORSDO>  (1) 
F 29

>  <SCORE>  (1) 
-3.387

>  <name>  (1) 
0

>  <ligand_id>  (1) 
0

>  <original_smiles>  (1) 
[H]C(=O)C([H])(C([H])([H])C([H])([H])Oc1c([H])c([H])c2c(c1[H])C([H])([H])N(C(=O)C([H])(N([H])C(=O)C([H])(N([H])C([H])([H])[H])C([H])([H])[H])C(C([H])([H])[H])(C([H])([H])[H])C([H])([H])[H])C([H])(C(=O)N([H])C1([H])c3c([H])c([H])c([H])c([H])c3C([H])([H])C([H])([H])C1([H])[H])C2([H])[H])[N+]([H])([H])C([H])([H])C([H])([H])C([H])([H])C([H])([H])C([H])([H])C([H])([H])C([H])([H])C([H])([H])C([H])([H])N([H])C(=O)N1C([H])([H])C([H])([H])C([H])([H])C([H])(n2nc(-c3c([H])c([H])c(Oc4c([H])c([H])c(F)c([H])c4F)c([H])c3[H])c(C(=O)N([H])[H])c2N([H])[H])C1([H])[H]

>  <smiles>  (1) 
[H]C(=O)C([H])(C([H])([H])C([H])([H])Oc1c([H])c([H])c2c(c1[H])C([H])([H])N(C(=O)C([H])(N([H])C(=O)C([H])(N([H])C([H])([H])[H])C([H])([H])[H])C(C([H])([H])[H])(C([H])([H])[H])C([H])([H])[H])C([H])(C(=O)N([H])C1([H])c3c([H])c([H])c([H])c([H])c3C([H])([H])C([H])([H])C1([H])[H])C2([H])[H])[N+]([H])([H])C([H])([H])C([H])([H])C([H])([H])C([H])([H])C([H])([H])C([H])([H])C([H])([H])C([H])([H])C([H])([H])N([H])C(=O)N1C([H])([H])C([H])([H])C([H])([H])C([H])(n2nc(-c3c([H])c([H])c(Oc4c([H])c([H])c(F)c([H])c4F)c([H])c3[H])c(C(=O)N([H])[H])c2N([H])[H])C1([H])[H]

$$$$
1:0:0
     RDKit          3D

 94101  0  0  1  0  0  0  0  0999 V2000
  -28.0620  -22.2410   16.8150 C   0  0  0  0  0  2  0  0  0  0  0  0
  -28.6410  -23.2290   19.0800 C   0  0  0  0  0  3  0  0  0  0  0  0
  -28.3790  -23.3750   17.7670 C   0  0  0  0  0  3  0  0  0  0  0  0
  -28.9010  -24.3620   19.9890 C   0  0  0  0  0  0  0  0  0  0  0  0
  -29.2790  -24.1710   21.1480 O   0  0  0  0  0  0  0  0  0  0  0  0
  -28.7070  -25.8060   19.4940 C   0  0  0  0  0  2  0  0  0  0  0  0
  -28.4000  -26.6620   20.5960 O   0  0  0  0  0  0  0  0  0  0  0  0
  -24.6470  -31.9530   23.4800 C   0  0  0  0  0  0  0  0  0  0  0  0
  -27.2150  -27.3620   20.5590 C   0  0  0  0  0  0  0  0  0  0  0  0
  -23.4350  -30.5630   21.8270 C   0  0  0  0  0  3  0  0  0  0  0  0
  -24.8680  -28.9350   20.4870 C   0  0  0  0  0  0  0  0  0  0  0  0
  -25.9790  -30.8100   21.7180 C   0  0  0  0  0  2  0  0  0  0  0  0
  -26.0230  -29.4290   21.1030 C   0  0  0  0  0  0  0  0  0  0  0  0
  -27.1930  -28.6430   21.1480 C   0  0  0  0  0  3  0  0  0  0  0  0
  -26.0280  -26.8580   19.9760 C   0  0  0  0  0  3  0  0  0  0  0  0
  -24.8590  -27.6440   19.9300 C   0  0  0  0  0  3  0  0  0  0  0  0
  -23.6610  -29.8460   20.4710 C   0  0  0  0  0  2  0  0  0  0  0  0
  -24.7020  -31.1240   22.3980 N   0  0  0  0  0  0  0  0  0  0  0  0
  -23.5600  -32.2810   23.9780 O   0  0  0  0  0  0  0  0  0  0  0  0
  -22.7130  -29.5890   22.7840 C   0  0  0  0  0  0  0  0  0  0  0  0
  -21.3900  -29.4450   22.6020 N   0  0  0  0  0  0  0  0  0  0  0  0
  -23.3400  -28.9660   23.6440 O   0  0  0  0  0  0  0  0  0  0  0  0
  -20.9450  -29.9920   21.8790 H   0  0  0  0  0  0  0  0  0  0  0  0
  -17.9630  -28.3850   22.9920 C   0  0  0  0  0  0  0  0  0  0  0  0
  -20.5130  -28.5580   23.3640 C   0  0  0  0  0  3  0  0  0  0  0  0
  -20.5890  -27.1090   22.8310 C   0  0  0  0  0  2  0  0  0  0  0  0
  -19.5190  -26.7970   21.7810 C   0  0  0  0  0  2  0  0  0  0  0  0
  -18.1180  -27.0110   22.3610 C   0  0  0  0  0  2  0  0  0  0  0  0
  -19.0900  -29.1170   23.4490 C   0  0  0  0  0  0  0  0  0  0  0  0
  -18.8940  -30.4050   23.9960 C   0  0  0  0  0  3  0  0  0  0  0  0
  -17.6040  -30.9590   24.0920 C   0  0  0  0  0  3  0  0  0  0  0  0
  -16.4910  -30.2210   23.6540 C   0  0  0  0  0  3  0  0  0  0  0  0
  -16.6690  -28.9360   23.1100 C   0  0  0  0  0  3  0  0  0  0  0  0
  -25.9400  -32.5420   24.1240 C   0  0  0  0  0  3  0  0  0  0  0  0
  -26.3580  -31.8150   25.4610 C   0  0  1  0  0  0  0  0  0  0  0  0
  -25.2080  -31.6940   26.4860 C   0  0  0  0  0  1  0  0  0  0  0  0
  -26.8850  -30.3890   25.1680 C   0  0  0  0  0  1  0  0  0  0  0  0
  -27.5130  -32.5880   26.1400 C   0  0  0  0  0  1  0  0  0  0  0  0
  -25.7000  -33.9700   24.3680 N   0  0  0  0  0  0  0  0  0  0  0  0
  -26.1210  -34.9590   23.5680 C   0  0  0  0  0  0  0  0  0  0  0  0
  -26.8250  -34.7620   22.5740 O   0  0  0  0  0  0  0  0  0  0  0  0
  -25.0890  -34.2020   25.1370 H   0  0  0  0  0  0  0  0  0  0  0  0
  -24.5080  -36.8140   23.0460 C   0  0  0  0  0  1  0  0  0  0  0  0
  -25.6930  -36.3930   23.9310 C   0  0  0  0  0  3  0  0  0  0  0  0
  -27.8370  -37.2090   24.8050 C   0  0  0  0  0  1  0  0  0  0  0  0
  -26.7840  -37.3830   23.8070 N   0  0  0  0  0  0  0  0  0  0  0  0
  -26.4220  -38.3290   23.8940 H   0  0  0  0  0  0  0  0  0  0  0  0
  -29.0160  -22.2090   15.6050 C   0  0  0  0  0  2  0  0  0  0  0  0
  -29.9680  -21.0020   15.5460 C   0  0  0  0  0  2  0  0  0  0  0  0
  -31.2290  -21.1000   16.4290 C   0  0  0  0  0  2  0  0  0  0  0  0
  -30.9790  -20.6770   17.8830 C   0  0  0  0  0  2  0  0  0  0  0  0
  -32.2420  -20.5260   18.7530 C   0  0  0  0  0  2  0  0  0  0  0  0
  -31.9420  -19.7240   20.0340 C   0  0  0  0  0  2  0  0  0  0  0  0
  -31.5770  -18.2490   19.7410 C   0  0  0  0  0  2  0  0  0  0  0  0
  -30.2420  -17.7870   20.3610 C   0  0  0  0  0  2  0  0  0  0  0  0
  -30.3910  -17.0810   21.7300 C   0  0  0  0  0  2  0  0  0  0  0  0
  -30.8040  -14.6870   21.1600 C   0  0  0  0  0  0  0  0  0  0  0  0
  -30.6130  -12.6290   19.8370 C   0  0  0  0  0  2  0  0  0  0  0  0
  -29.7670  -12.9410   18.5860 C   0  0  0  0  0  2  0  0  0  0  0  0
  -28.2630  -12.7750   18.8900 C   0  0  0  0  0  2  0  0  0  0  0  0
  -27.8250  -13.5070   20.1880 C   0  0  0  0  0  3  0  0  0  0  0  0
  -28.7910  -13.1830   21.3510 C   0  0  0  0  0  2  0  0  0  0  0  0
  -30.1560  -13.5230   20.9110 N   0  0  0  0  0  0  0  0  0  0  0  0
  -31.9660  -14.9120   20.8090 O   0  0  0  0  0  0  0  0  0  0  0  0
  -30.0320  -15.6640   21.6570 N   0  0  0  0  0  0  0  0  0  0  0  0
  -29.0840  -15.4130   21.8910 H   0  0  0  0  0  0  0  0  0  0  0  0
  -25.3610  -14.0590   20.6980 C   0  0  0  0  0  0  0  0  0  0  0  0
  -24.2780  -13.2610   20.9480 C   0  0  0  0  0  0  0  0  0  0  0  0
  -24.7610  -11.9190   20.9140 C   0  0  0  0  0  0  0  0  0  0  0  0
  -26.4380  -13.2000   20.5330 N   0  0  0  0  0  0  0  0  0  0  0  0
  -26.0740  -11.9060   20.7170 N   0  0  0  0  0  0  0  0  0  0  0  0
  -24.0440  -10.6400   21.0030 C   0  0  0  0  0  0  0  0  0  0  0  0
  -24.4130   -9.6520   21.9420 C   0  0  0  0  0  3  0  0  0  0  0  0
  -23.6960   -8.4390   22.0210 C   0  0  0  0  0  3  0  0  0  0  0  0
  -22.5990   -8.2060   21.1580 C   0  0  0  0  0  0  0  0  0  0  0  0
  -22.2500   -9.1850   20.2110 C   0  0  0  0  0  3  0  0  0  0  0  0
  -22.9670  -10.3890   20.1300 C   0  0  0  0  0  3  0  0  0  0  0  0
  -21.8640   -7.0460   21.1410 O   0  0  0  0  0  0  0  0  0  0  0  0
  -21.7180   -6.2710   22.2650 C   0  0  0  0  0  0  0  0  0  0  0  0
  -21.1570   -6.7810   23.4540 C   0  0  0  0  0  3  0  0  0  0  0  0
  -20.9590   -5.9310   24.5610 C   0  0  0  0  0  3  0  0  0  0  0  0
  -21.3130   -4.5710   24.4780 C   0  0  0  0  0  0  0  0  0  0  0  0
  -21.8740   -4.0620   23.2930 C   0  0  0  0  0  3  0  0  0  0  0  0
  -22.0700   -4.9080   22.1890 C   0  0  0  0  0  0  0  0  0  0  0  0
  -22.5870   -4.4070   21.0410 F   0  0  0  0  0  0  0  0  0  0  0  0
  -21.1210   -3.7520   25.5380 F   0  0  0  0  0  0  0  0  0  0  0  0
  -22.8540  -13.7110   21.1120 C   0  0  0  0  0  0  0  0  0  0  0  0
  -22.0650  -12.9810   21.8930 N   0  0  0  0  0  0  0  0  0  0  0  0
  -22.4430  -14.7450   20.5850 O   0  0  0  0  0  0  0  0  0  0  0  0
  -22.4090  -12.1510   22.3500 H   0  0  0  0  0  0  0  0  0  0  0  0
  -21.1070  -13.2630   22.0400 H   0  0  0  0  0  0  0  0  0  0  0  0
  -25.5150  -15.4360   20.5830 N   0  0  0  0  0  0  0  0  0  0  0  0
  -24.7260  -16.0690   20.6600 H   0  0  0  0  0  0  0  0  0  0  0  0
  -26.3760  -15.9070   20.3350 H   0  0  0  0  0  0  0  0  0  0  0  0
  1  3  1  0
  2  4  1  0
  3  2  2  0
  4  5  2  0
  6  4  1  0
  6  7  1  0
  8 19  2  0
  9  7  1  0
  9 14  1  0
 10 18  1  0
 10 20  1  0
 11 13  1  0
 12 18  1  0
 13 14  2  0
 13 12  1  0
 15  9  2  0
 16 15  1  0
 16 11  2  0
 17 11  1  0
 17 10  1  0
 18  8  1  0
 20 22  2  0
 21 20  1  0
 23 21  1  0
 24 33  2  0
 24 29  1  0
 25 21  1  0
 25 29  1  0
 26 25  1  0
 27 28  1  0
 27 26  1  0
 28 24  1  0
 29 30  2  0
 30 31  1  0
 32 31  2  0
 33 32  1  0
 34  8  1  0
 34 39  1  0
 34 35  1  0
 35 38  1  1
 35 36  1  0
 37 35  1  0
 39 42  1  0
 40 44  1  0
 40 39  1  0
 41 40  2  0
 44 43  1  0
 46 47  1  0
 46 44  1  0
 46 45  1  0
 48  1  1  0
 49 48  1  0
 49 50  1  0
 50 51  1  0
 51 52  1  0
 52 53  1  0
 54 53  1  0
 54 55  1  0
 55 56  1  0
 57 65  1  0
 58 63  1  0
 59 60  1  0
 59 58  1  0
 61 60  1  0
 61 70  1  0
 61 62  1  0
 63 57  1  0
 63 62  1  0
 64 57  2  0
 65 56  1  0
 65 66  1  0
 67 68  2  0
 68 87  1  0
 69 68  1  0
 69 72  1  0
 70 67  1  0
 70 71  1  0
 71 69  2  0
 72 73  1  0
 73 74  2  0
 75 74  1  0
 76 75  2  0
 77 76  1  0
 77 72  2  0
 78 75  1  0
 78 79  1  0
 79 80  1  0
 80 81  2  0
 82 81  1  0
 82 86  1  0
 83 82  2  0
 84 79  2  0
 84 83  1  0
 85 84  1  0
 87 88  1  0
 88 91  1  0
 88 90  1  0
 89 87  2  0
 92 93  1  0
 92 67  1  0
 94 92  1  0
M  ISO  4   6 101   7 101  57 100  65 100
M  END
>  <TORSDO>  (2) 
F 28

>  <SCORE>  (2) 
-9.646

>  <name>  (2) 
1

>  <ligand_id>  (2) 
1

>  <original_smiles>  (2) 
[H]C(C(=O)C([H])([H])Oc1c([H])c([H])c2c(c1[H])C([H])([H])N(C(=O)C([H])(N([H])C(=O)C([H])(N([H])C([H])([H])[H])C([H])([H])[H])C(C([H])([H])[H])(C([H])([H])[H])C([H])([H])[H])C([H])(C(=O)N([H])C1([H])c3c([H])c([H])c([H])c([H])c3C([H])([H])C([H])([H])C1([H])[H])C2([H])[H])=C([H])C([H])([H])C([H])([H])C([H])([H])C([H])([H])C([H])([H])C([H])([H])C([H])([H])C([H])([H])C([H])([H])C([H])([H])N([H])C(=O)N1C([H])([H])C([H])([H])C([H])([H])C([H])(n2nc(-c3c([H])c([H])c(Oc4c([H])c([H])c(F)c([H])c4F)c([H])c3[H])c(C(=O)N([H])[H])c2N([H])[H])C1([H])[H]

>  <smiles>  (2) 
[H]C(C(=O)C([H])([H])Oc1c([H])c([H])c2c(c1[H])C([H])([H])N(C(=O)C([H])(N([H])C(=O)C([H])(N([H])C([H])([H])[H])C([H])([H])[H])C(C([H])([H])[H])(C([H])([H])[H])C([H])([H])[H])C([H])(C(=O)N([H])C1([H])c3c([H])c([H])c([H])c([H])c3C([H])([H])C([H])([H])C1([H])[H])C2([H])[H])=C([H])C([H])([H])C([H])([H])C([H])([H])C([H])([H])C([H])([H])C([H])([H])C([H])([H])C([H])([H])C([H])([H])C([H])([H])N([H])C(=O)N1C([H])([H])C([H])([H])C([H])([H])C([H])(n2nc(-c3c([H])c([H])c(Oc4c([H])c([H])c(F)c([H])c4F)c([H])c3[H])c(C(=O)N([H])[H])c2N([H])[H])C1([H])[H]

$$$$
2:0:0
     RDKit          3D

104113  0  0  1  0  0  0  0  0999 V2000
  -35.6580  -26.0960   19.8110 C   0  0  0  0  0  3  0  0  0  0  0  0
  -34.7320  -25.5500   17.6190 C   0  0  0  0  0  3  0  0  0  0  0  0
  -36.2330  -24.8090   19.8890 C   0  0  0  0  0  3  0  0  0  0  0  0
  -35.3140  -24.2660   17.6960 C   0  0  0  0  0  3  0  0  0  0  0  0
  -34.8490  -26.4400   18.7070 C   0  0  0  0  0  0  0  0  0  0  0  0
  -35.9810  -23.8560   18.8710 C   0  0  0  0  0  0  0  0  0  0  0  0
  -34.4140  -28.8640   18.5780 C   0  0  0  0  0  3  0  0  0  0  0  0
  -33.9670  -27.6140   18.7930 C   0  0  0  0  0  0  0  0  0  0  0  0
  -33.5520  -30.1130   18.6880 C   0  0  0  0  0  2  0  0  0  0  0  0
  -32.5210  -27.3510   19.1950 C   0  0  0  0  0  2  0  0  0  0  0  0
  -32.0420  -29.7990   18.8310 C   0  0  0  0  0  2  0  0  0  0  0  0
  -31.7390  -28.5750   19.7240 C   0  0  2  0  0  0  0  0  0  0  0  0
  -32.1330  -28.8670   21.1900 C   0  0  0  0  0  1  0  0  0  0  0  0
  -30.2240  -28.2800   19.6390 C   0  0  0  0  0  2  0  0  0  0  0  0
  -29.6610  -27.2350   20.6340 C   0  0  0  0  0  2  0  0  0  0  0  0
  -28.4310  -26.7100   20.1430 O   0  0  0  0  0  0  0  0  0  0  0  0
  -24.6040  -31.8960   23.2170 C   0  0  0  0  0  0  0  0  0  0  0  0
  -27.2910  -27.4840   20.1900 C   0  0  0  0  0  0  0  0  0  0  0  0
  -23.4010  -30.4750   21.5830 C   0  0  0  0  0  3  0  0  0  0  0  0
  -24.8650  -28.9370   20.1670 C   0  0  0  0  0  0  0  0  0  0  0  0
  -25.9150  -30.8740   21.3570 C   0  0  0  0  0  2  0  0  0  0  0  0
  -26.0070  -29.4910   20.7500 C   0  0  0  0  0  0  0  0  0  0  0  0
  -27.2160  -28.7690   20.7770 C   0  0  0  0  0  3  0  0  0  0  0  0
  -26.1310  -26.9320   19.6130 C   0  0  0  0  0  3  0  0  0  0  0  0
  -24.9210  -27.6490   19.5990 C   0  0  0  0  0  3  0  0  0  0  0  0
  -23.6050  -29.7770   20.2090 C   0  0  0  0  0  2  0  0  0  0  0  0
  -24.6570  -31.1000   22.1110 N   0  0  0  0  0  0  0  0  0  0  0  0
  -23.5260  -32.1580   23.7670 O   0  0  0  0  0  0  0  0  0  0  0  0
  -22.7660  -29.4530   22.5490 C   0  0  0  0  0  0  0  0  0  0  0  0
  -21.4400  -29.2700   22.4320 N   0  0  0  0  0  0  0  0  0  0  0  0
  -23.4600  -28.8250   23.3550 O   0  0  0  0  0  0  0  0  0  0  0  0
  -20.9470  -29.8160   21.7400 H   0  0  0  0  0  0  0  0  0  0  0  0
  -18.0740  -28.0900   22.9480 C   0  0  0  0  0  0  0  0  0  0  0  0
  -20.6360  -28.3320   23.2120 C   0  0  0  0  0  3  0  0  0  0  0  0
  -20.7260  -26.9010   22.6280 C   0  0  0  0  0  2  0  0  0  0  0  0
  -19.6160  -26.5870   21.6240 C   0  0  0  0  0  2  0  0  0  0  0  0
  -18.2390  -26.7370   22.2780 C   0  0  0  0  0  2  0  0  0  0  0  0
  -19.2000  -28.8450   23.3750 C   0  0  0  0  0  0  0  0  0  0  0  0
  -18.9870  -30.1130   23.9610 C   0  0  0  0  0  3  0  0  0  0  0  0
  -17.6830  -30.6190   24.1330 C   0  0  0  0  0  3  0  0  0  0  0  0
  -16.5750  -29.8560   23.7310 C   0  0  0  0  0  3  0  0  0  0  0  0
  -16.7690  -28.5970   23.1360 C   0  0  0  0  0  3  0  0  0  0  0  0
  -25.8880  -32.5340   23.8270 C   0  0  0  0  0  3  0  0  0  0  0  0
  -26.4330  -31.7530   25.0850 C   0  0  1  0  0  0  0  0  0  0  0  0
  -25.3550  -31.4700   26.1530 C   0  0  0  0  0  1  0  0  0  0  0  0
  -27.0400  -30.3960   24.6560 C   0  0  0  0  0  1  0  0  0  0  0  0
  -27.5640  -32.5700   25.7510 C   0  0  0  0  0  1  0  0  0  0  0  0
  -25.5710  -33.9220   24.1750 N   0  0  0  0  0  0  0  0  0  0  0  0
  -25.8900  -34.9840   23.4250 C   0  0  0  0  0  0  0  0  0  0  0  0
  -26.5520  -34.8920   22.3870 O   0  0  0  0  0  0  0  0  0  0  0  0
  -24.9700  -34.0530   24.9740 H   0  0  0  0  0  0  0  0  0  0  0  0
  -24.1370  -36.7520   23.0850 C   0  0  0  0  0  1  0  0  0  0  0  0
  -25.3870  -36.3620   23.8920 C   0  0  0  0  0  3  0  0  0  0  0  0
  -27.5250  -37.2650   24.6980 C   0  0  0  0  0  1  0  0  0  0  0  0
  -26.4050  -37.4290   23.7720 N   0  0  0  0  0  0  0  0  0  0  0  0
  -25.9910  -38.3470   23.9210 H   0  0  0  0  0  0  0  0  0  0  0  0
  -36.2680  -22.3960   19.0820 C   0  0  0  0  0  0  0  0  0  0  0  0
  -35.6650  -21.9050   20.1710 N   0  0  0  0  0  0  0  0  0  0  0  0
  -36.8640  -21.7070   18.2470 O   0  0  0  0  0  0  0  0  0  0  0  0
  -35.2250  -22.5990   20.7610 H   0  0  0  0  0  0  0  0  0  0  0  0
  -35.3600  -20.5050   20.4760 C   0  0  0  0  0  2  0  0  0  0  0  0
  -33.8320  -20.3070   20.4980 C   0  0  0  0  0  2  0  0  0  0  0  0
  -33.3790  -18.9610   21.0890 C   0  0  0  0  0  2  0  0  0  0  0  0
  -31.8610  -18.7310   20.9290 C   0  0  0  0  0  2  0  0  0  0  0  0
  -31.3960  -17.4140   21.5830 C   0  0  0  0  0  2  0  0  0  0  0  0
  -30.1410  -16.8210   20.9090 C   0  0  0  0  0  2  0  0  0  0  0  0
  -30.6410  -14.4130   20.4760 C   0  0  0  0  0  0  0  0  0  0  0  0
  -30.3470  -12.2640   19.3120 C   0  0  0  0  0  2  0  0  0  0  0  0
  -29.4260  -12.4990   18.0990 C   0  0  0  0  0  2  0  0  0  0  0  0
  -27.9380  -12.3850   18.4980 C   0  0  0  0  0  2  0  0  0  0  0  0
  -27.5930  -13.2050   19.7730 C   0  0  0  0  0  3  0  0  0  0  0  0
  -28.6330  -12.9410   20.8860 C   0  0  0  0  0  2  0  0  0  0  0  0
  -29.9730  -13.2360   20.3490 N   0  0  0  0  0  0  0  0  0  0  0  0
  -31.7220  -14.6380   19.9250 O   0  0  0  0  0  0  0  0  0  0  0  0
  -29.9670  -15.3790   21.1230 N   0  0  0  0  0  0  0  0  0  0  0  0
  -29.1020  -15.0890   21.5580 H   0  0  0  0  0  0  0  0  0  0  0  0
  -25.1830  -13.8290   20.4310 C   0  0  0  0  0  0  0  0  0  0  0  0
  -24.1090  -13.0690   20.8010 C   0  0  0  0  0  0  0  0  0  0  0  0
  -24.5660  -11.7150   20.8060 C   0  0  0  0  0  0  0  0  0  0  0  0
  -26.2290  -12.9430   20.2310 N   0  0  0  0  0  0  0  0  0  0  0  0
  -25.8560  -11.6670   20.5110 N   0  0  0  0  0  0  0  0  0  0  0  0
  -23.8340  -10.4610   21.0110 C   0  0  0  0  0  0  0  0  0  0  0  0
  -24.2690   -9.4970   21.9490 C   0  0  0  0  0  3  0  0  0  0  0  0
  -23.5390   -8.3050   22.1410 C   0  0  0  0  0  3  0  0  0  0  0  0
  -22.3550   -8.0670   21.4020 C   0  0  0  0  0  0  0  0  0  0  0  0
  -21.9410   -9.0180   20.4500 C   0  0  0  0  0  3  0  0  0  0  0  0
  -22.6710  -10.2030   20.2560 C   0  0  0  0  0  3  0  0  0  0  0  0
  -21.5960   -6.9260   21.5010 O   0  0  0  0  0  0  0  0  0  0  0  0
  -21.5770   -6.1740   22.6510 C   0  0  0  0  0  0  0  0  0  0  0  0
  -21.2100   -6.7280   23.8950 C   0  0  0  0  0  3  0  0  0  0  0  0
  -21.1380   -5.9050   25.0380 C   0  0  0  0  0  3  0  0  0  0  0  0
  -21.4160   -4.5300   24.9340 C   0  0  0  0  0  0  0  0  0  0  0  0
  -21.7710   -3.9750   23.6930 C   0  0  0  0  0  3  0  0  0  0  0  0
  -21.8490   -4.7960   22.5520 C   0  0  0  0  0  0  0  0  0  0  0  0
  -22.1730   -4.2500   21.3560 F   0  0  0  0  0  0  0  0  0  0  0  0
  -21.3350   -3.7380   26.0300 F   0  0  0  0  0  0  0  0  0  0  0  0
  -22.7070  -13.5530   21.0500 C   0  0  0  0  0  0  0  0  0  0  0  0
  -21.9670  -12.8770   21.9180 N   0  0  0  0  0  0  0  0  0  0  0  0
  -22.2780  -14.5730   20.5050 O   0  0  0  0  0  0  0  0  0  0  0  0
  -22.3250  -12.0550   22.3840 H   0  0  0  0  0  0  0  0  0  0  0  0
  -21.0240  -13.1820   22.1160 H   0  0  0  0  0  0  0  0  0  0  0  0
  -25.3540  -15.1950   20.2330 N   0  0  0  0  0  0  0  0  0  0  0  0
  -24.5910  -15.8580   20.3180 H   0  0  0  0  0  0  0  0  0  0  0  0
  -26.2050  -15.6310   19.9020 H   0  0  0  0  0  0  0  0  0  0  0  0
  1  3  1  0
  2  4  2  0
  2  5  1  0
  4  6  1  0
  5  8  1  0
  5  1  2  0
  6 57  1  0
  6  3  2  0
  7  9  1  0
  7  8  2  0
  8 10  1  0
  9 11  1  0
 10 12  1  0
 11 12  1  0
 12 13  1  1
 14 12  1  0
 14 15  1  0
 16 18  1  0
 16 15  1  0
 17 28  2  0
 18 23  1  0
 19 27  1  0
 19 29  1  0
 20 26  1  0
 20 22  1  0
 21 27  1  0
 22 23  2  0
 22 21  1  0
 24 18  2  0
 25 24  1  0
 25 20  2  0
 26 19  1  0
 27 17  1  0
 29 31  2  0
 30 29  1  0
 32 30  1  0
 33 42  2  0
 33 38  1  0
 34 30  1  0
 34 38  1  0
 35 34  1  0
 36 37  1  0
 36 35  1  0
 37 33  1  0
 38 39  2  0
 39 40  1  0
 41 40  2  0
 42 41  1  0
 43 17  1  0
 43 48  1  0
 43 44  1  0
 44 47  1  1
 44 45  1  0
 46 44  1  0
 48 51  1  0
 49 53  1  0
 49 48  1  0
 50 49  2  0
 53 52  1  0
 55 53  1  0
 55 56  1  0
 55 54  1  0
 57 58  1  0
 58 61  1  0
 58 60  1  0
 59 57  2  0
 61 62  1  0
 62 63  1  0
 64 63  1  0
 64 65  1  0
 66 75  1  0
 66 65  1  0
 67 75  1  0
 68 73  1  0
 69 70  1  0
 69 68  1  0
 71 70  1  0
 71 80  1  0
 71 72  1  0
 73 67  1  0
 73 72  1  0
 74 67  2  0
 75 76  1  0
 77 78  2  0
 78 79  1  0
 78 97  1  0
 79 82  1  0
 80 77  1  0
 80 81  1  0
 81 79  2  0
 82 83  1  0
 83 84  2  0
 85 88  1  0
 85 84  1  0
 86 85  2  0
 87 86  1  0
 87 82  2  0
 88 89  1  0
 89 90  1  0
 90 91  2  0
 92 91  1  0
 92 96  1  0
 93 92  2  0
 94 89  2  0
 94 93  1  0
 95 94  1  0
 97 98  1  0
 98101  1  0
 98100  1  0
 99 97  2  0
102103  1  0
102 77  1  0
104102  1  0
M  ISO  4  15 101  16 101  67 100  75 100
M  END
>  <TORSDO>  (3) 
F 26

>  <SCORE>  (3) 
-11.797

>  <name>  (3) 
2

>  <ligand_id>  (3) 
2

>  <original_smiles>  (3) 
[H]C1=C(c2c([H])c([H])c(C(=O)N([H])C([H])([H])C([H])([H])C([H])([H])C([H])([H])C([H])([H])C([H])([H])N([H])C(=O)N3C([H])([H])C([H])([H])C([H])([H])C([H])(n4nc(-c5c([H])c([H])c(Oc6c([H])c([H])c(F)c([H])c6F)c([H])c5[H])c(C(=O)N([H])[H])c4N([H])[H])C3([H])[H])c([H])c2[H])C([H])([H])C(C([H])([H])[H])(C([H])([H])C([H])([H])Oc2c([H])c([H])c3c(c2[H])C([H])([H])N(C(=O)C([H])(N([H])C(=O)C([H])(N([H])C([H])([H])[H])C([H])([H])[H])C(C([H])([H])[H])(C([H])([H])[H])C([H])([H])[H])C([H])(C(=O)N([H])C2([H])c4c([H])c([H])c([H])c([H])c4C([H])([H])C([H])([H])C2([H])[H])C3([H])[H])C([H])([H])C1([H])[H]

>  <smiles>  (3) 
[H]C1=C(c2c([H])c([H])c(C(=O)N([H])C([H])([H])C([H])([H])C([H])([H])C([H])([H])C([H])([H])C([H])([H])N([H])C(=O)N3C([H])([H])C([H])([H])C([H])([H])C([H])(n4nc(-c5c([H])c([H])c(Oc6c([H])c([H])c(F)c([H])c6F)c([H])c5[H])c(C(=O)N([H])[H])c4N([H])[H])C3([H])[H])c([H])c2[H])C([H])([H])C(C([H])([H])[H])(C([H])([H])C([H])([H])Oc2c([H])c([H])c3c(c2[H])C([H])([H])N(C(=O)C([H])(N([H])C(=O)C([H])(N([H])C([H])([H])[H])C([H])([H])[H])C(C([H])([H])[H])(C([H])([H])[H])C([H])([H])[H])C([H])(C(=O)N([H])C2([H])c4c([H])c([H])c([H])c([H])c4C([H])([H])C([H])([H])C2([H])[H])C3([H])[H])C([H])([H])C1([H])[H]

$$$$
3:0:0
     RDKit          3D

 97105  0  0  1  0  0  0  0  0999 V2000
  -27.4440  -21.4570   21.2600 C   0  0  0  0  0  3  0  0  0  0  0  0
  -28.3690  -20.6930   21.9810 C   0  0  0  0  0  3  0  0  0  0  0  0
  -27.6540  -22.8370   21.1130 C   0  0  0  0  0  3  0  0  0  0  0  0
  -29.4980  -21.3100   22.5380 C   0  0  0  0  0  3  0  0  0  0  0  0
  -28.8140  -23.4670   21.6330 C   0  0  0  0  0  0  0  0  0  0  0  0
  -29.7680  -22.6860   22.3630 C   0  0  0  0  0  0  0  0  0  0  0  0
  -28.9180  -24.9450   21.4280 C   0  0  0  0  0  0  0  0  0  0  0  0
  -29.2250  -25.7390   22.3240 O   0  0  0  0  0  0  0  0  0  0  0  0
  -28.6200  -25.4640   20.0100 C   0  0  0  0  0  2  0  0  0  0  0  0
  -28.5010  -26.8820   20.0240 O   0  0  0  0  0  0  0  0  0  0  0  0
  -24.6100  -31.8720   23.2080 C   0  0  0  0  0  0  0  0  0  0  0  0
  -27.2630  -27.4810   20.0900 C   0  0  0  0  0  0  0  0  0  0  0  0
  -23.3950  -30.4910   21.5500 C   0  0  0  0  0  3  0  0  0  0  0  0
  -24.8450  -28.9470   20.1280 C   0  0  0  0  0  0  0  0  0  0  0  0
  -25.9200  -30.8460   21.3570 C   0  0  0  0  0  2  0  0  0  0  0  0
  -25.9990  -29.4790   20.7160 C   0  0  0  0  0  0  0  0  0  0  0  0
  -27.2040  -28.7530   20.6950 C   0  0  0  0  0  3  0  0  0  0  0  0
  -26.0860  -26.9400   19.5160 C   0  0  0  0  0  3  0  0  0  0  0  0
  -24.8800  -27.6710   19.5360 C   0  0  0  0  0  3  0  0  0  0  0  0
  -23.6020  -29.8100   20.1680 C   0  0  0  0  0  2  0  0  0  0  0  0
  -24.6600  -31.0860   22.0970 N   0  0  0  0  0  0  0  0  0  0  0  0
  -23.5320  -32.1450   23.7510 O   0  0  0  0  0  0  0  0  0  0  0  0
  -22.7360  -29.4700   22.5020 C   0  0  0  0  0  0  0  0  0  0  0  0
  -21.4110  -29.3030   22.3730 N   0  0  0  0  0  0  0  0  0  0  0  0
  -23.4140  -28.8270   23.3080 O   0  0  0  0  0  0  0  0  0  0  0  0
  -20.9260  -29.8670   21.6900 H   0  0  0  0  0  0  0  0  0  0  0  0
  -18.0280  -28.1360   22.8510 C   0  0  0  0  0  0  0  0  0  0  0  0
  -20.5870  -28.3660   23.1340 C   0  0  0  0  0  3  0  0  0  0  0  0
  -20.6770  -26.9390   22.5430 C   0  0  0  0  0  2  0  0  0  0  0  0
  -19.5750  -26.6390   21.5210 C   0  0  0  0  0  2  0  0  0  0  0  0
  -18.1920  -26.7920   22.1610 C   0  0  0  0  0  2  0  0  0  0  0  0
  -19.1530  -28.8820   23.2930 C   0  0  0  0  0  0  0  0  0  0  0  0
  -18.9460  -30.1430   23.8930 C   0  0  0  0  0  3  0  0  0  0  0  0
  -17.6470  -30.6580   24.0560 C   0  0  0  0  0  3  0  0  0  0  0  0
  -16.5360  -29.9090   23.6330 C   0  0  0  0  0  3  0  0  0  0  0  0
  -16.7270  -28.6490   23.0370 C   0  0  0  0  0  3  0  0  0  0  0  0
  -25.9020  -32.4830   23.8370 C   0  0  0  0  0  3  0  0  0  0  0  0
  -26.4480  -31.6590   25.0680 C   0  0  1  0  0  0  0  0  0  0  0  0
  -25.3770  -31.3670   26.1440 C   0  0  0  0  0  1  0  0  0  0  0  0
  -27.0300  -30.3040   24.6020 C   0  0  0  0  0  1  0  0  0  0  0  0
  -27.6060  -32.4300   25.7440 C   0  0  0  0  0  1  0  0  0  0  0  0
  -25.5920  -33.8620   24.2310 N   0  0  0  0  0  0  0  0  0  0  0  0
  -25.9040  -34.9500   23.5140 C   0  0  0  0  0  0  0  0  0  0  0  0
  -26.5600  -34.8990   22.4690 O   0  0  0  0  0  0  0  0  0  0  0  0
  -25.0100  -33.9760   25.0490 H   0  0  0  0  0  0  0  0  0  0  0  0
  -24.1480  -36.7300   23.2650 C   0  0  0  0  0  1  0  0  0  0  0  0
  -25.4100  -36.3120   24.0360 C   0  0  0  0  0  3  0  0  0  0  0  0
  -27.5570  -37.1800   24.8480 C   0  0  0  0  0  1  0  0  0  0  0  0
  -26.4280  -37.3800   23.9440 N   0  0  0  0  0  0  0  0  0  0  0  0
  -26.0180  -38.2880   24.1420 H   0  0  0  0  0  0  0  0  0  0  0  0
  -31.0950  -23.2550   22.9070 C   0  0  0  0  0  2  0  0  0  0  0  0
  -31.6930  -22.5980   24.1840 C   0  0  0  0  0  2  0  0  0  0  0  0
  -32.5700  -21.3220   24.0480 C   0  0  0  0  0  2  0  0  0  0  0  0
  -33.7190  -21.4270   23.0310 C   0  0  0  0  0  2  0  0  0  0  0  0
  -33.3990  -20.8470   21.6400 C   0  0  0  0  0  2  0  0  0  0  0  0
  -33.4030  -19.3050   21.5730 C   0  0  0  0  0  2  0  0  0  0  0  0
  -31.9930  -18.6990   21.4840 C   0  0  0  0  0  2  0  0  0  0  0  0
  -31.9260  -17.1820   21.7120 C   0  0  0  0  0  2  0  0  0  0  0  0
  -30.4890  -16.6870   21.4420 C   0  0  0  0  0  2  0  0  0  0  0  0
  -30.7750  -14.3660   20.6290 C   0  0  0  0  0  0  0  0  0  0  0  0
  -30.4160  -12.2640   19.4080 C   0  0  0  0  0  2  0  0  0  0  0  0
  -29.4890  -12.5160   18.2030 C   0  0  0  0  0  2  0  0  0  0  0  0
  -28.0130  -12.3850   18.6180 C   0  0  0  0  0  2  0  0  0  0  0  0
  -27.6730  -13.2070   19.8890 C   0  0  0  0  0  3  0  0  0  0  0  0
  -28.7130  -12.9550   21.0070 C   0  0  0  0  0  2  0  0  0  0  0  0
  -30.0630  -13.2200   20.4700 N   0  0  0  0  0  0  0  0  0  0  0  0
  -31.7840  -14.6280   19.9700 O   0  0  0  0  0  0  0  0  0  0  0  0
  -30.2850  -15.2390   21.5130 N   0  0  0  0  0  0  0  0  0  0  0  0
  -29.5110  -14.9140   22.0740 H   0  0  0  0  0  0  0  0  0  0  0  0
  -25.2620  -13.8150   20.5680 C   0  0  0  0  0  0  0  0  0  0  0  0
  -24.1870  -13.0440   20.9150 C   0  0  0  0  0  0  0  0  0  0  0  0
  -24.6430  -11.6910   20.8720 C   0  0  0  0  0  0  0  0  0  0  0  0
  -26.3100  -12.9350   20.3430 N   0  0  0  0  0  0  0  0  0  0  0  0
  -25.9360  -11.6500   20.5780 N   0  0  0  0  0  0  0  0  0  0  0  0
  -23.9090  -10.4300   21.0410 C   0  0  0  0  0  0  0  0  0  0  0  0
  -24.3640   -9.4210   21.9190 C   0  0  0  0  0  3  0  0  0  0  0  0
  -23.6300   -8.2240   22.0760 C   0  0  0  0  0  3  0  0  0  0  0  0
  -22.4270   -8.0300   21.3560 C   0  0  0  0  0  0  0  0  0  0  0  0
  -21.9920   -9.0270   20.4650 C   0  0  0  0  0  3  0  0  0  0  0  0
  -22.7260  -10.2140   20.3060 C   0  0  0  0  0  3  0  0  0  0  0  0
  -21.6640   -6.8880   21.4250 O   0  0  0  0  0  0  0  0  0  0  0  0
  -21.6860   -6.0740   22.5280 C   0  0  0  0  0  0  0  0  0  0  0  0
  -21.4010   -6.5640   23.8210 C   0  0  0  0  0  3  0  0  0  0  0  0
  -21.3650   -5.6800   24.9180 C   0  0  0  0  0  3  0  0  0  0  0  0
  -21.6040   -4.3060   24.7240 C   0  0  0  0  0  0  0  0  0  0  0  0
  -21.8820   -3.8160   23.4360 C   0  0  0  0  0  3  0  0  0  0  0  0
  -21.9200   -4.6960   22.3420 C   0  0  0  0  0  0  0  0  0  0  0  0
  -22.1670   -4.2150   21.0990 F   0  0  0  0  0  0  0  0  0  0  0  0
  -21.5630   -3.4540   25.7760 F   0  0  0  0  0  0  0  0  0  0  0  0
  -22.7880  -13.5240   21.1820 C   0  0  0  0  0  0  0  0  0  0  0  0
  -22.0520  -12.8240   22.0380 N   0  0  0  0  0  0  0  0  0  0  0  0
  -22.3570  -14.5550   20.6670 O   0  0  0  0  0  0  0  0  0  0  0  0
  -22.4150  -11.9900   22.4770 H   0  0  0  0  0  0  0  0  0  0  0  0
  -21.1140  -13.1260   22.2590 H   0  0  0  0  0  0  0  0  0  0  0  0
  -25.4350  -15.1870   20.4090 N   0  0  0  0  0  0  0  0  0  0  0  0
  -24.6710  -15.8450   20.5130 H   0  0  0  0  0  0  0  0  0  0  0  0
  -26.3010  -15.6280   20.1230 H   0  0  0  0  0  0  0  0  0  0  0  0
  1  2  1  0
  2  4  2  0
  3  1  2  0
  3  5  1  0
  5  6  2  0
  6  4  1  0
  6 51  1  0
  7  5  1  0
  7  8  2  0
  9 10  1  0
  9  7  1  0
 10 12  1  0
 11 22  2  0
 12 17  1  0
 13 21  1  0
 13 23  1  0
 14 20  1  0
 14 16  1  0
 15 21  1  0
 16 15  1  0
 17 16  2  0
 18 19  1  0
 18 12  2  0
 19 14  2  0
 20 13  1  0
 21 11  1  0
 23 25  2  0
 24 23  1  0
 26 24  1  0
 27 36  2  0
 27 32  1  0
 28 24  1  0
 28 32  1  0
 29 28  1  0
 30 31  1  0
 30 29  1  0
 31 27  1  0
 32 33  2  0
 33 34  1  0
 35 34  2  0
 36 35  1  0
 37 11  1  0
 37 42  1  0
 37 38  1  0
 38 41  1  1
 38 39  1  0
 40 38  1  0
 42 45  1  0
 43 47  1  0
 43 42  1  0
 44 43  2  0
 47 46  1  0
 49 47  1  0
 49 50  1  0
 49 48  1  0
 51 52  1  0
 53 52  1  0
 54 53  1  0
 55 54  1  0
 56 55  1  0
 57 56  1  0
 57 58  1  0
 59 68  1  0
 59 58  1  0
 60 68  1  0
 61 66  1  0
 62 63  1  0
 62 61  1  0
 64 63  1  0
 64 73  1  0
 64 65  1  0
 66 60  1  0
 66 65  1  0
 67 60  2  0
 68 69  1  0
 70 71  2  0
 71 90  1  0
 72 71  1  0
 72 75  1  0
 73 70  1  0
 73 74  1  0
 74 72  2  0
 75 76  1  0
 76 77  2  0
 78 81  1  0
 78 77  1  0
 79 78  2  0
 80 79  1  0
 80 75  2  0
 81 82  1  0
 82 83  1  0
 83 84  2  0
 85 84  1  0
 85 89  1  0
 86 85  2  0
 87 82  2  0
 87 86  1  0
 88 87  1  0
 90 91  1  0
 91 94  1  0
 91 93  1  0
 92 90  2  0
 95 96  1  0
 95 70  1  0
 97 95  1  0
M  ISO  4   9 101  10 101  60 100  68 100
M  END
>  <TORSDO>  (4) 
F 27

>  <SCORE>  (4) 
-7.246

>  <name>  (4) 
3

>  <ligand_id>  (4) 
3

>  <original_smiles>  (4) 
[H]c1c([H])c([H])c(C([H])([H])C([H])([H])C([H])([H])C([H])([H])C([H])([H])C([H])([H])C([H])([H])C([H])([H])C([H])([H])N([H])C(=O)N2C([H])([H])C([H])([H])C([H])([H])C([H])(n3nc(-c4c([H])c([H])c(Oc5c([H])c([H])c(F)c([H])c5F)c([H])c4[H])c(C(=O)N([H])[H])c3N([H])[H])C2([H])[H])c(C(=O)C([H])([H])Oc2c([H])c([H])c3c(c2[H])C([H])([H])N(C(=O)C([H])(N([H])C(=O)C([H])(N([H])C([H])([H])[H])C([H])([H])[H])C(C([H])([H])[H])(C([H])([H])[H])C([H])([H])[H])C([H])(C(=O)N([H])C2([H])c4c([H])c([H])c([H])c([H])c4C([H])([H])C([H])([H])C2([H])[H])C3([H])[H])c1[H]

>  <smiles>  (4) 
[H]c1c([H])c([H])c(C([H])([H])C([H])([H])C([H])([H])C([H])([H])C([H])([H])C([H])([H])C([H])([H])C([H])([H])C([H])([H])N([H])C(=O)N2C([H])([H])C([H])([H])C([H])([H])C([H])(n3nc(-c4c([H])c([H])c(Oc5c([H])c([H])c(F)c([H])c5F)c([H])c4[H])c(C(=O)N([H])[H])c3N([H])[H])C2([H])[H])c(C(=O)C([H])([H])Oc2c([H])c([H])c3c(c2[H])C([H])([H])N(C(=O)C([H])(N([H])C(=O)C([H])(N([H])C([H])([H])[H])C([H])([H])[H])C(C([H])([H])[H])(C([H])([H])[H])C([H])([H])[H])C([H])(C(=O)N([H])C2([H])c4c([H])c([H])c([H])c([H])c4C([H])([H])C([H])([H])C2([H])[H])C3([H])[H])c1[H]

$$$$
4:0:0
     RDKit          3D

 92 99  0  0  1  0  0  0  0  0999 V2000
  -32.7460  -21.5900   20.2200 C   0  0  0  0  0  2  0  0  0  0  0  0
  -32.4820  -20.0810   20.1180 C   0  0  0  0  0  2  0  0  0  0  0  0
  -32.6900  -19.2980   21.4270 C   0  0  0  0  0  2  0  0  0  0  0  0
  -31.3750  -19.0640   22.1960 C   0  0  0  0  0  2  0  0  0  0  0  0
  -31.4430  -17.9000   23.2060 C   0  0  0  0  0  2  0  0  0  0  0  0
  -31.2470  -15.4140   23.6770 C   0  0  0  0  0  1  0  0  0  0  0  0
  -30.8770  -16.5480   22.6990 C   0  0  0  0  0  3  0  0  0  0  0  0
  -31.2800  -16.1910   21.2460 C   0  0  0  0  0  2  0  0  0  0  0  0
  -30.9850  -14.2280   19.7400 C   0  0  0  0  0  0  0  0  0  0  0  0
  -30.4580  -12.1510   18.5110 C   0  0  0  0  0  2  0  0  0  0  0  0
  -29.4170  -12.3870   17.3990 C   0  0  0  0  0  2  0  0  0  0  0  0
  -27.9850  -12.3030   17.9560 C   0  0  0  0  0  2  0  0  0  0  0  0
  -27.7950  -13.1790   19.2220 C   0  0  0  0  0  3  0  0  0  0  0  0
  -28.9140  -12.8900   20.2470 C   0  0  0  0  0  2  0  0  0  0  0  0
  -30.2190  -13.1210   19.5880 N   0  0  0  0  0  0  0  0  0  0  0  0
  -31.8990  -14.5510   18.9710 O   0  0  0  0  0  0  0  0  0  0  0  0
  -30.7190  -14.9100   20.8570 N   0  0  0  0  0  0  0  0  0  0  0  0
  -30.0120  -14.5180   21.4610 H   0  0  0  0  0  0  0  0  0  0  0  0
  -25.4910  -13.9330   20.1050 C   0  0  0  0  0  0  0  0  0  0  0  0
  -24.4080  -13.2180   20.5500 C   0  0  0  0  0  0  0  0  0  0  0  0
  -24.7860  -11.8440   20.4730 C   0  0  0  0  0  0  0  0  0  0  0  0
  -26.4630  -12.9930   19.7960 N   0  0  0  0  0  0  0  0  0  0  0  0
  -26.0430  -11.7310   20.0660 N   0  0  0  0  0  0  0  0  0  0  0  0
  -24.0050  -10.6230   20.7100 C   0  0  0  0  0  0  0  0  0  0  0  0
  -24.3840   -9.6820   21.6960 C   0  0  0  0  0  3  0  0  0  0  0  0
  -23.6060   -8.5250   21.9140 C   0  0  0  0  0  3  0  0  0  0  0  0
  -22.4390   -8.2990   21.1490 C   0  0  0  0  0  0  0  0  0  0  0  0
  -22.0800   -9.2260   20.1550 C   0  0  0  0  0  3  0  0  0  0  0  0
  -22.8560  -10.3760   19.9340 C   0  0  0  0  0  3  0  0  0  0  0  0
  -21.6330   -7.1930   21.2780 O   0  0  0  0  0  0  0  0  0  0  0  0
  -21.4430   -6.5790   22.4890 C   0  0  0  0  0  0  0  0  0  0  0  0
  -20.9440   -7.2770   23.6100 C   0  0  0  0  0  3  0  0  0  0  0  0
  -20.7040   -6.5940   24.8180 C   0  0  0  0  0  3  0  0  0  0  0  0
  -20.9480   -5.2090   24.9060 C   0  0  0  0  0  0  0  0  0  0  0  0
  -21.4370   -4.5090   23.7870 C   0  0  0  0  0  3  0  0  0  0  0  0
  -21.6830   -5.1930   22.5840 C   0  0  0  0  0  0  0  0  0  0  0  0
  -22.1380   -4.5100   21.5050 F   0  0  0  0  0  0  0  0  0  0  0  0
  -20.7090   -4.5500   26.0620 F   0  0  0  0  0  0  0  0  0  0  0  0
  -23.0700  -13.7750   20.9390 C   0  0  0  0  0  0  0  0  0  0  0  0
  -22.3930  -13.1350   21.8880 N   0  0  0  0  0  0  0  0  0  0  0  0
  -22.6340  -14.8110   20.4410 O   0  0  0  0  0  0  0  0  0  0  0  0
  -22.7550  -12.2950   22.3130 H   0  0  0  0  0  0  0  0  0  0  0  0
  -21.4960  -13.4920   22.1910 H   0  0  0  0  0  0  0  0  0  0  0  0
  -25.7190  -15.2950   19.9290 N   0  0  0  0  0  0  0  0  0  0  0  0
  -25.0020  -15.9840   20.1330 H   0  0  0  0  0  0  0  0  0  0  0  0
  -26.5780  -15.7090   19.5890 H   0  0  0  0  0  0  0  0  0  0  0  0
  -31.5910  -22.4070   20.8290 C   0  0  0  0  0  2  0  0  0  0  0  0
  -31.7030  -23.9030   20.4910 C   0  0  0  0  0  2  0  0  0  0  0  0
  -30.5410  -24.7510   21.0390 C   0  0  0  0  0  2  0  0  0  0  0  0
  -30.7210  -26.2440   20.7050 C   0  0  0  0  0  2  0  0  0  0  0  0
  -29.5100  -27.1260   21.0420 C   0  0  0  0  0  2  0  0  0  0  0  0
  -28.3970  -26.7580   20.2280 O   0  0  0  0  0  0  0  0  0  0  0  0
  -24.7300  -32.1050   23.2310 C   0  0  0  0  0  0  0  0  0  0  0  0
  -27.2630  -27.5410   20.2800 C   0  0  0  0  0  0  0  0  0  0  0  0
  -23.4590  -30.6440   21.6850 C   0  0  0  0  0  3  0  0  0  0  0  0
  -24.8590  -29.0330   20.2890 C   0  0  0  0  0  0  0  0  0  0  0  0
  -25.9730  -30.9820   21.3930 C   0  0  0  0  0  2  0  0  0  0  0  0
  -26.0300  -29.5830   20.8240 C   0  0  0  0  0  0  0  0  0  0  0  0
  -27.2280  -28.8450   20.8290 C   0  0  0  0  0  3  0  0  0  0  0  0
  -26.0770  -27.0000   19.7410 C   0  0  0  0  0  3  0  0  0  0  0  0
  -24.8750  -27.7350   19.7470 C   0  0  0  0  0  3  0  0  0  0  0  0
  -23.6190  -29.8940   20.3340 C   0  0  0  0  0  2  0  0  0  0  0  0
  -24.7400  -31.2620   22.1620 N   0  0  0  0  0  0  0  0  0  0  0  0
  -23.6690  -32.4130   23.7930 O   0  0  0  0  0  0  0  0  0  0  0  0
  -22.8290  -29.6760   22.7090 C   0  0  0  0  0  0  0  0  0  0  0  0
  -21.5060  -29.4730   22.6030 N   0  0  0  0  0  0  0  0  0  0  0  0
  -23.5260  -29.1050   23.5530 O   0  0  0  0  0  0  0  0  0  0  0  0
  -21.0060  -29.9780   21.8850 H   0  0  0  0  0  0  0  0  0  0  0  0
  -18.1530  -28.2600   23.1710 C   0  0  0  0  0  0  0  0  0  0  0  0
  -20.7050  -28.5740   23.4320 C   0  0  0  0  0  3  0  0  0  0  0  0
  -20.8330  -27.1110   22.9460 C   0  0  0  0  0  2  0  0  0  0  0  0
  -19.7390  -26.7080   21.9530 C   0  0  0  0  0  2  0  0  0  0  0  0
  -18.3530  -26.8740   22.5820 C   0  0  0  0  0  2  0  0  0  0  0  0
  -19.2580  -29.0650   23.5540 C   0  0  0  0  0  0  0  0  0  0  0  0
  -19.0180  -30.3610   24.0600 C   0  0  0  0  0  3  0  0  0  0  0  0
  -17.7050  -30.8520   24.1880 C   0  0  0  0  0  3  0  0  0  0  0  0
  -16.6150  -30.0450   23.8240 C   0  0  0  0  0  3  0  0  0  0  0  0
  -16.8390  -28.7510   23.3220 C   0  0  0  0  0  3  0  0  0  0  0  0
  -26.0420  -32.7440   23.7830 C   0  0  0  0  0  3  0  0  0  0  0  0
  -26.6170  -31.9940   25.0470 C   0  0  1  0  0  0  0  0  0  0  0  0
  -25.5640  -31.7530   26.1530 C   0  0  0  0  0  1  0  0  0  0  0  0
  -27.2050  -30.6200   24.6450 C   0  0  0  0  0  1  0  0  0  0  0  0
  -27.7790  -32.8110   25.6600 C   0  0  0  0  0  1  0  0  0  0  0  0
  -25.7540  -34.1490   24.0970 N   0  0  0  0  0  0  0  0  0  0  0  0
  -26.0810  -35.1850   23.3120 C   0  0  0  0  0  0  0  0  0  0  0  0
  -26.7290  -35.0570   22.2700 O   0  0  0  0  0  0  0  0  0  0  0  0
  -25.1790  -34.3240   24.9090 H   0  0  0  0  0  0  0  0  0  0  0  0
  -24.3620  -36.9840   22.9530 C   0  0  0  0  0  1  0  0  0  0  0  0
  -25.6130  -36.5840   23.7530 C   0  0  0  0  0  3  0  0  0  0  0  0
  -27.7680  -37.4640   24.5360 C   0  0  0  0  0  1  0  0  0  0  0  0
  -26.6520  -37.6260   23.6060 N   0  0  0  0  0  0  0  0  0  0  0  0
  -26.2560  -38.5510   23.7440 H   0  0  0  0  0  0  0  0  0  0  0  0
  1 47  1  0
  2  1  1  0
  2  3  1  0
  3  4  1  0
  4  5  1  0
  7  5  1  0
  7  6  1  0
  8  7  1  0
  9 17  1  0
 10 15  1  0
 11 12  1  0
 11 10  1  0
 13 12  1  0
 13 22  1  0
 13 14  1  0
 15  9  1  0
 15 14  1  0
 16  9  2  0
 17  8  1  0
 17 18  1  0
 19 20  2  0
 20 39  1  0
 21 20  1  0
 21 24  1  0
 22 23  1  0
 22 19  1  0
 23 21  2  0
 24 25  1  0
 25 26  2  0
 27 30  1  0
 27 26  1  0
 28 27  2  0
 29 28  1  0
 29 24  2  0
 30 31  1  0
 31 36  2  0
 31 32  1  0
 32 33  2  0
 33 34  1  0
 34 38  1  0
 35 34  2  0
 36 35  1  0
 37 36  1  0
 39 40  1  0
 40 43  1  0
 40 42  1  0
 41 39  2  0
 44 19  1  0
 44 45  1  0
 46 44  1  0
 48 47  1  0
 48 49  1  0
 50 49  1  0
 50 51  1  0
 52 54  1  0
 52 51  1  0
 53 64  2  0
 54 59  1  0
 55 63  1  0
 55 65  1  0
 56 62  1  0
 56 58  1  0
 57 63  1  0
 58 59  2  0
 58 57  1  0
 60 61  1  0
 60 54  2  0
 61 56  2  0
 62 55  1  0
 63 53  1  0
 65 67  2  0
 66 65  1  0
 68 66  1  0
 69 78  2  0
 69 74  1  0
 70 66  1  0
 70 74  1  0
 71 70  1  0
 72 73  1  0
 72 71  1  0
 73 69  1  0
 74 75  2  0
 75 76  1  0
 77 76  2  0
 78 77  1  0
 79 53  1  0
 79 84  1  0
 79 80  1  0
 80 83  1  1
 80 81  1  0
 82 80  1  0
 84 87  1  0
 85 89  1  0
 85 84  1  0
 86 85  2  0
 89 88  1  0
 91 92  1  0
 91 89  1  0
 91 90  1  0
M  ISO  4   9 100  17 100  51 101  52 101
M  END
>  <TORSDO>  (5) 
F 27

>  <SCORE>  (5) 
-6.887

>  <name>  (5) 
4

>  <ligand_id>  (5) 
4

>  <original_smiles>  (5) 
[H]c1c([H])c([H])c2c(c1[H])C([H])([H])C([H])([H])C([H])([H])C2([H])N([H])C(=O)C1([H])N(C(=O)C([H])(N([H])C(=O)C([H])(N([H])C([H])([H])[H])C([H])([H])[H])C(C([H])([H])[H])(C([H])([H])[H])C([H])([H])[H])C([H])([H])c2c([H])c(OC([H])([H])C([H])([H])C([H])([H])C([H])([H])C([H])([H])C([H])([H])C([H])([H])C([H])([H])C([H])([H])C([H])([H])C([H])(C([H])([H])[H])C([H])([H])N([H])C(=O)N3C([H])([H])C([H])([H])C([H])([H])C([H])(n4nc(-c5c([H])c([H])c(Oc6c([H])c([H])c(F)c([H])c6F)c([H])c5[H])c(C(=O)N([H])[H])c4N([H])[H])C3([H])[H])c([H])c([H])c2C1([H])[H]

>  <smiles>  (5) 
[H]c1c([H])c([H])c2c(c1[H])C([H])([H])C([H])([H])C([H])([H])C2([H])N([H])C(=O)C1([H])N(C(=O)C([H])(N([H])C(=O)C([H])(N([H])C([H])([H])[H])C([H])([H])[H])C(C([H])([H])[H])(C([H])([H])[H])C([H])([H])[H])C([H])([H])c2c([H])c(OC([H])([H])C([H])([H])C([H])([H])C([H])([H])C([H])([H])C([H])([H])C([H])([H])C([H])([H])C([H])([H])C([H])([H])C([H])(C([H])([H])[H])C([H])([H])N([H])C(=O)N3C([H])([H])C([H])([H])C([H])([H])C([H])(n4nc(-c5c([H])c([H])c(Oc6c([H])c([H])c(F)c([H])c6F)c([H])c5[H])c(C(=O)N([H])[H])c4N([H])[H])C3([H])[H])c([H])c([H])c2C1([H])[H]

$$$$
5:0:0
     RDKit          3D

 95104  0  0  1  0  0  0  0  0999 V2000
  -28.2390  -21.4270   19.1830 C   0  0  0  0  0  3  0  0  0  0  0  0
  -25.8470  -21.8190   19.0310 C   0  0  0  0  0  3  0  0  0  0  0  0
  -28.4350  -22.7650   19.5870 C   0  0  0  0  0  3  0  0  0  0  0  0
  -26.0380  -23.1490   19.4490 C   0  0  0  0  0  3  0  0  0  0  0  0
  -26.9420  -20.9400   18.8790 C   0  0  0  0  0  0  0  0  0  0  0  0
  -27.3330  -23.6400   19.7110 C   0  0  0  0  0  0  0  0  0  0  0  0
  -26.6650  -19.5380   18.4340 C   0  0  0  0  0  0  0  0  0  0  0  0
  -25.5440  -19.0240   18.5260 O   0  0  0  0  0  0  0  0  0  0  0  0
  -27.7810  -18.6990   17.7990 C   0  0  0  0  0  2  0  0  0  0  0  0
  -28.3530  -17.6220   18.7510 C   0  0  0  0  0  2  0  0  0  0  0  0
  -32.7860  -14.8170   20.3750 C   0  0  0  0  0  0  0  0  0  0  0  0
  -32.7190  -12.5050   21.2450 C   0  0  0  0  0  2  0  0  0  0  0  0
  -32.0780  -11.5590   20.2080 C   0  0  0  0  0  2  0  0  0  0  0  0
  -30.5410  -11.5550   20.3290 C   0  0  0  0  0  2  0  0  0  0  0  0
  -29.9380  -12.9820   20.3980 C   0  0  0  0  0  3  0  0  0  0  0  0
  -30.7050  -13.8370   21.4330 C   0  0  0  0  0  2  0  0  0  0  0  0
  -32.1330  -13.8410   21.0660 N   0  0  0  0  0  0  0  0  0  0  0  0
  -33.9670  -14.7090   20.0180 O   0  0  0  0  0  0  0  0  0  0  0  0
  -30.4960  -16.3700   18.0780 C   0  0  0  0  0  2  0  0  0  0  0  0
  -30.2540  -17.4530   20.3820 C   0  0  0  0  0  2  0  0  0  0  0  0
  -31.9640  -16.1010   18.4520 C   0  0  0  0  0  2  0  0  0  0  0  0
  -31.7110  -17.0210   20.6570 C   0  0  0  0  0  2  0  0  0  0  0  0
  -29.8920  -17.5490   18.8770 C   0  0  0  0  0  3  0  0  0  0  0  0
  -32.0100  -15.8110   19.8860 N   0  0  0  0  0  0  0  0  0  0  0  0
  -27.5840  -13.9790   20.7450 C   0  0  0  0  0  0  0  0  0  0  0  0
  -26.3710  -13.3990   20.9840 C   0  0  0  0  0  0  0  0  0  0  0  0
  -26.6090  -11.9910   21.0120 C   0  0  0  0  0  0  0  0  0  0  0  0
  -28.5030  -12.9420   20.6780 N   0  0  0  0  0  0  0  0  0  0  0  0
  -27.9060  -11.7390   20.8860 N   0  0  0  0  0  0  0  0  0  0  0  0
  -25.6670  -10.8680   21.0890 C   0  0  0  0  0  0  0  0  0  0  0  0
  -25.7210   -9.9320   22.1440 C   0  0  0  0  0  3  0  0  0  0  0  0
  -24.7910   -8.8710   22.2070 C   0  0  0  0  0  3  0  0  0  0  0  0
  -23.7940   -8.7420   21.2120 C   0  0  0  0  0  0  0  0  0  0  0  0
  -23.7600   -9.6640   20.1510 C   0  0  0  0  0  3  0  0  0  0  0  0
  -24.6900  -10.7140   20.0870 C   0  0  0  0  0  3  0  0  0  0  0  0
  -22.8660   -7.7290   21.1800 O   0  0  0  0  0  0  0  0  0  0  0  0
  -22.3910   -7.1500   22.3300 C   0  0  0  0  0  0  0  0  0  0  0  0
  -21.7370   -7.9040   23.3300 C   0  0  0  0  0  3  0  0  0  0  0  0
  -21.2040   -7.2570   24.4630 C   0  0  0  0  0  3  0  0  0  0  0  0
  -21.3170   -5.8610   24.5960 C   0  0  0  0  0  0  0  0  0  0  0  0
  -21.9620   -5.1080   23.6000 C   0  0  0  0  0  3  0  0  0  0  0  0
  -22.4960   -5.7510   22.4700 C   0  0  0  0  0  0  0  0  0  0  0  0
  -23.0990   -5.0190   21.5020 F   0  0  0  0  0  0  0  0  0  0  0  0
  -20.7990   -5.2400   25.6810 F   0  0  0  0  0  0  0  0  0  0  0  0
  -25.0450  -14.1000   21.0700 C   0  0  0  0  0  0  0  0  0  0  0  0
  -24.1150  -13.5610   21.8470 N   0  0  0  0  0  0  0  0  0  0  0  0
  -24.8470  -15.1660   20.4850 O   0  0  0  0  0  0  0  0  0  0  0  0
  -24.2840  -12.6980   22.3430 H   0  0  0  0  0  0  0  0  0  0  0  0
  -23.2170  -14.0130   21.9460 H   0  0  0  0  0  0  0  0  0  0  0  0
  -27.9690  -15.2990   20.5470 N   0  0  0  0  0  0  0  0  0  0  0  0
  -27.2860  -16.0460   20.5170 H   0  0  0  0  0  0  0  0  0  0  0  0
  -28.8930  -15.5910   20.2630 H   0  0  0  0  0  0  0  0  0  0  0  0
  -27.4840  -25.0970   20.1450 C   0  0  0  0  0  2  0  0  0  0  0  0
  -28.6580  -25.8770   19.5220 C   0  0  0  0  0  2  0  0  0  0  0  0
  -28.6490  -27.2340   19.9930 O   0  0  0  0  0  0  0  0  0  0  0  0
  -24.5900  -32.0150   23.3850 C   0  0  0  0  0  0  0  0  0  0  0  0
  -27.4390  -27.8980   20.0310 C   0  0  0  0  0  0  0  0  0  0  0  0
  -23.4630  -30.6920   21.6250 C   0  0  0  0  0  3  0  0  0  0  0  0
  -24.9920  -29.3180   20.1160 C   0  0  0  0  0  0  0  0  0  0  0  0
  -25.9790  -31.1400   21.5140 C   0  0  0  0  0  2  0  0  0  0  0  0
  -26.1210  -29.8280   20.7710 C   0  0  0  0  0  0  0  0  0  0  0  0
  -27.3450  -29.1250   20.7300 C   0  0  0  0  0  3  0  0  0  0  0  0
  -26.2910  -27.4070   19.3670 C   0  0  0  0  0  3  0  0  0  0  0  0
  -25.0720  -28.1050   19.4120 C   0  0  0  0  0  3  0  0  0  0  0  0
  -23.7220  -30.1320   20.2020 C   0  0  0  0  0  2  0  0  0  0  0  0
  -24.6920  -31.2940   22.2320 N   0  0  0  0  0  0  0  0  0  0  0  0
  -23.4910  -32.2130   23.9230 O   0  0  0  0  0  0  0  0  0  0  0  0
  -22.8310  -29.5800   22.4920 C   0  0  0  0  0  0  0  0  0  0  0  0
  -21.5150  -29.3670   22.3290 N   0  0  0  0  0  0  0  0  0  0  0  0
  -23.5200  -28.9150   23.2690 O   0  0  0  0  0  0  0  0  0  0  0  0
  -21.0170  -29.9480   21.6710 H   0  0  0  0  0  0  0  0  0  0  0  0
  -18.1680  -28.0770   22.7330 C   0  0  0  0  0  0  0  0  0  0  0  0
  -20.7210  -28.3510   23.0190 C   0  0  0  0  0  3  0  0  0  0  0  0
  -20.8460  -26.9810   22.3150 C   0  0  0  0  0  2  0  0  0  0  0  0
  -19.7450  -26.7310   21.2810 C   0  0  0  0  0  2  0  0  0  0  0  0
  -18.3640  -26.7960   21.9400 C   0  0  0  0  0  2  0  0  0  0  0  0
  -19.2750  -28.8150   23.2270 C   0  0  0  0  0  0  0  0  0  0  0  0
  -19.0370  -30.0170   23.9300 C   0  0  0  0  0  3  0  0  0  0  0  0
  -17.7240  -30.4800   24.1420 C   0  0  0  0  0  3  0  0  0  0  0  0
  -16.6310  -29.7350   23.6670 C   0  0  0  0  0  3  0  0  0  0  0  0
  -16.8550  -28.5370   22.9670 C   0  0  0  0  0  3  0  0  0  0  0  0
  -25.8480  -32.6390   24.0660 C   0  0  0  0  0  3  0  0  0  0  0  0
  -25.5460  -34.0460   24.3520 N   0  0  0  0  0  0  0  0  0  0  0  0
  -25.9190  -35.0750   23.5800 C   0  0  0  0  0  0  0  0  0  0  0  0
  -26.6310  -34.9400   22.5800 O   0  0  0  0  0  0  0  0  0  0  0  0
  -24.9410  -34.2310   25.1380 H   0  0  0  0  0  0  0  0  0  0  0  0
  -24.2250  -36.8630   23.1040 C   0  0  0  0  0  1  0  0  0  0  0  0
  -25.4240  -36.4760   23.9810 C   0  0  0  0  0  3  0  0  0  0  0  0
  -27.5280  -37.3680   24.8810 C   0  0  0  0  0  1  0  0  0  0  0  0
  -26.4700  -37.5170   23.8840 N   0  0  0  0  0  0  0  0  0  0  0  0
  -26.0620  -38.4410   23.9920 H   0  0  0  0  0  0  0  0  0  0  0  0
  -26.2830  -31.8840   25.3820 C   0  0  1  0  0  0  0  0  0  0  0  0
  -25.1170  -31.6180   26.3640 C   0  0  0  0  0  1  0  0  0  0  0  0
  -26.9310  -30.5200   25.0390 C   0  0  0  0  0  1  0  0  0  0  0  0
  -27.3600  -32.7080   26.1290 C   0  0  0  0  0  1  0  0  0  0  0  0
  1  3  1  0
  2  4  2  0
  3  6  2  0
  4  6  1  0
  5  2  1  0
  5  1  2  0
  6 53  1  0
  7  8  2  0
  7  5  1  0
  9  7  1  0
  9 10  1  0
 11 17  1  0
 13 14  1  0
 13 12  1  0
 15 14  1  0
 15 28  1  0
 15 16  1  0
 17 12  1  0
 17 16  1  0
 18 11  2  0
 19 21  1  0
 19 23  1  0
 20 22  1  0
 21 24  1  0
 23 10  1  0
 23 20  1  0
 24 11  1  0
 24 22  1  0
 25 26  2  0
 26 27  1  0
 26 45  1  0
 27 30  1  0
 28 25  1  0
 28 29  1  0
 29 27  2  0
 30 31  1  0
 31 32  2  0
 33 32  1  0
 34 33  2  0
 35 34  1  0
 35 30  2  0
 36 33  1  0
 36 37  1  0
 37 42  2  0
 37 38  1  0
 38 39  2  0
 39 40  1  0
 40 44  1  0
 41 40  2  0
 42 41  1  0
 43 42  1  0
 45 46  1  0
 46 49  1  0
 46 48  1  0
 47 45  2  0
 50 25  1  0
 51 50  1  0
 52 50  1  0
 54 55  1  0
 54 53  1  0
 55 57  1  0
 56 67  2  0
 57 62  1  0
 58 66  1  0
 58 68  1  0
 59 65  1  0
 59 61  1  0
 60 66  1  0
 61 60  1  0
 62 61  2  0
 63 64  1  0
 63 57  2  0
 64 59  2  0
 65 58  1  0
 66 56  1  0
 68 70  2  0
 69 68  1  0
 71 69  1  0
 72 81  2  0
 72 77  1  0
 73 69  1  0
 73 77  1  0
 74 73  1  0
 75 76  1  0
 75 74  1  0
 76 72  1  0
 77 78  2  0
 78 79  1  0
 80 79  2  0
 81 80  1  0
 82 56  1  0
 82 83  1  0
 82 92  1  0
 83 86  1  0
 84 88  1  0
 84 83  1  0
 85 84  2  0
 88 87  1  0
 90 88  1  0
 90 91  1  0
 90 89  1  0
 92 95  1  1
 92 93  1  0
 94 92  1  0
M  ISO  4  11 100  24 100  54 101  55 101
M  END
>  <TORSDO>  (6) 
F 21

>  <SCORE>  (6) 
-10.512

>  <name>  (6) 
5

>  <ligand_id>  (6) 
5

>  <original_smiles>  (6) 
[H]c1c([H])c([H])c2c(c1[H])C([H])([H])C([H])([H])C([H])([H])C2([H])N([H])C(=O)C1([H])N(C(=O)C([H])(N([H])C(=O)C([H])(N([H])C([H])([H])[H])C([H])([H])[H])C(C([H])([H])[H])(C([H])([H])[H])C([H])([H])[H])C([H])([H])c2c([H])c(OC([H])([H])C([H])([H])c3c([H])c([H])c(C(=O)C([H])([H])C([H])([H])C4([H])C([H])([H])C([H])([H])N(C(=O)N5C([H])([H])C([H])([H])C([H])([H])C([H])(n6nc(-c7c([H])c([H])c(Oc8c([H])c([H])c(F)c([H])c8F)c([H])c7[H])c(C(=O)N([H])[H])c6N([H])[H])C5([H])[H])C([H])([H])C4([H])[H])c([H])c3[H])c([H])c([H])c2C1([H])[H]

>  <smiles>  (6) 
[H]c1c([H])c([H])c2c(c1[H])C([H])([H])C([H])([H])C([H])([H])C2([H])N([H])C(=O)C1([H])N(C(=O)C([H])(N([H])C(=O)C([H])(N([H])C([H])([H])[H])C([H])([H])[H])C(C([H])([H])[H])(C([H])([H])[H])C([H])([H])[H])C([H])([H])c2c([H])c(OC([H])([H])C([H])([H])c3c([H])c([H])c(C(=O)C([H])([H])C([H])([H])C4([H])C([H])([H])C([H])([H])N(C(=O)N5C([H])([H])C([H])([H])C([H])([H])C([H])(n6nc(-c7c([H])c([H])c(Oc8c([H])c([H])c(F)c([H])c8F)c([H])c7[H])c(C(=O)N([H])[H])c6N([H])[H])C5([H])[H])C([H])([H])C4([H])[H])c([H])c3[H])c([H])c([H])c2C1([H])[H]

$$$$
6:0:0
     RDKit          3D

101109  0  0  1  0  0  0  0  0999 V2000
  -34.9070  -25.1760   15.5200 C   0  0  0  0  0  0  0  0  0  0  0  0
  -35.1140  -24.3140   14.6580 O   0  0  0  0  0  0  0  0  0  0  0  0
  -32.4080  -24.8890   15.5800 C   0  0  0  0  0  3  0  0  0  0  0  0
  -33.3550  -27.0130   16.3080 C   0  0  0  0  0  3  0  0  0  0  0  0
  -31.1090  -25.3830   15.8250 C   0  0  0  0  0  3  0  0  0  0  0  0
  -32.0600  -27.5070   16.5400 C   0  0  0  0  0  3  0  0  0  0  0  0
  -33.5440  -25.7010   15.8200 C   0  0  0  0  0  0  0  0  0  0  0  0
  -30.9320  -26.7040   16.2860 C   0  0  0  0  0  0  0  0  0  0  0  0
  -29.5480  -27.2920   16.4850 C   0  0  0  0  0  2  0  0  0  0  0  0
  -29.2340  -27.6130   17.9510 C   0  0  0  0  0  2  0  0  0  0  0  0
  -28.8680  -26.3730   18.7850 C   0  0  0  0  0  2  0  0  0  0  0  0
  -28.4220  -26.7750   20.0790 O   0  0  0  0  0  0  0  0  0  0  0  0
  -24.6090  -31.8690   23.2080 C   0  0  0  0  0  0  0  0  0  0  0  0
  -27.2340  -27.4650   20.1080 C   0  0  0  0  0  0  0  0  0  0  0  0
  -23.3960  -30.4920   21.5460 C   0  0  0  0  0  3  0  0  0  0  0  0
  -24.8450  -28.9600   20.1130 C   0  0  0  0  0  0  0  0  0  0  0  0
  -25.9170  -30.8470   21.3530 C   0  0  0  0  0  2  0  0  0  0  0  0
  -25.9960  -29.4720   20.7270 C   0  0  0  0  0  0  0  0  0  0  0  0
  -27.1900  -28.7210   20.7420 C   0  0  0  0  0  3  0  0  0  0  0  0
  -26.0670  -26.9560   19.4960 C   0  0  0  0  0  3  0  0  0  0  0  0
  -24.8720  -27.6980   19.4930 C   0  0  0  0  0  3  0  0  0  0  0  0
  -23.6060  -29.8230   20.1570 C   0  0  0  0  0  2  0  0  0  0  0  0
  -24.6590  -31.0840   22.0950 N   0  0  0  0  0  0  0  0  0  0  0  0
  -23.5300  -32.1430   23.7500 O   0  0  0  0  0  0  0  0  0  0  0  0
  -22.7410  -29.4640   22.4970 C   0  0  0  0  0  0  0  0  0  0  0  0
  -21.4140  -29.3000   22.3750 N   0  0  0  0  0  0  0  0  0  0  0  0
  -23.4190  -28.8170   23.3010 O   0  0  0  0  0  0  0  0  0  0  0  0
  -20.9300  -29.8730   21.6980 H   0  0  0  0  0  0  0  0  0  0  0  0
  -18.0270  -28.1380   22.8500 C   0  0  0  0  0  0  0  0  0  0  0  0
  -20.5870  -28.3650   23.1330 C   0  0  0  0  0  3  0  0  0  0  0  0
  -20.6740  -26.9380   22.5410 C   0  0  0  0  0  2  0  0  0  0  0  0
  -19.5710  -26.6400   21.5220 C   0  0  0  0  0  2  0  0  0  0  0  0
  -18.1900  -26.7940   22.1640 C   0  0  0  0  0  2  0  0  0  0  0  0
  -19.1530  -28.8840   23.2900 C   0  0  0  0  0  0  0  0  0  0  0  0
  -18.9440  -30.1460   23.8890 C   0  0  0  0  0  3  0  0  0  0  0  0
  -17.6440  -30.6580   24.0570 C   0  0  0  0  0  3  0  0  0  0  0  0
  -16.5340  -29.9050   23.6380 C   0  0  0  0  0  3  0  0  0  0  0  0
  -16.7260  -28.6490   23.0370 C   0  0  0  0  0  3  0  0  0  0  0  0
  -25.8990  -32.4850   23.8370 C   0  0  0  0  0  3  0  0  0  0  0  0
  -25.5810  -33.8630   24.2310 N   0  0  0  0  0  0  0  0  0  0  0  0
  -25.8990  -34.9500   23.5150 C   0  0  0  0  0  0  0  0  0  0  0  0
  -26.5620  -34.8970   22.4750 O   0  0  0  0  0  0  0  0  0  0  0  0
  -24.9900  -33.9790   25.0420 H   0  0  0  0  0  0  0  0  0  0  0  0
  -24.1480  -36.7330   23.2640 C   0  0  0  0  0  1  0  0  0  0  0  0
  -25.4080  -36.3120   24.0350 C   0  0  0  0  0  3  0  0  0  0  0  0
  -27.5570  -37.1830   24.8480 C   0  0  0  0  0  1  0  0  0  0  0  0
  -26.4270  -37.3800   23.9430 N   0  0  0  0  0  0  0  0  0  0  0  0
  -26.0160  -38.2880   24.1440 H   0  0  0  0  0  0  0  0  0  0  0  0
  -26.4430  -31.6580   25.0670 C   0  0  1  0  0  0  0  0  0  0  0  0
  -25.3680  -31.3620   26.1400 C   0  0  0  0  0  1  0  0  0  0  0  0
  -27.0260  -30.3060   24.5930 C   0  0  0  0  0  1  0  0  0  0  0  0
  -27.6000  -32.4250   25.7510 C   0  0  0  0  0  1  0  0  0  0  0  0
  -36.0780  -25.6770   16.3810 C   0  0  0  0  0  2  0  0  0  0  0  0
  -36.7800  -24.5830   17.2130 C   0  0  0  0  0  2  0  0  0  0  0  0
  -36.0100  -24.1060   18.4610 C   0  0  0  0  0  2  0  0  0  0  0  0
  -34.7890  -23.2230   18.1520 C   0  0  0  0  0  2  0  0  0  0  0  0
  -34.1490  -22.6150   19.4010 C   0  0  0  0  0  2  0  0  0  0  0  0
  -32.9580  -21.7150   19.0440 C   0  0  0  0  0  2  0  0  0  0  0  0
  -32.3850  -20.9880   20.2660 C   0  0  0  0  0  2  0  0  0  0  0  0
  -31.4770  -19.8080   19.8810 C   0  0  0  0  0  2  0  0  0  0  0  0
  -31.1980  -18.8990   21.0850 C   0  0  0  0  0  2  0  0  0  0  0  0
  -30.5430  -17.5640   20.7130 C   0  0  0  0  0  2  0  0  0  0  0  0
  -30.6770  -16.5460   21.8610 C   0  0  0  0  0  2  0  0  0  0  0  0
  -30.7390  -14.3670   20.6530 C   0  0  0  0  0  0  0  0  0  0  0  0
  -30.4160  -12.2740   19.3940 C   0  0  0  0  0  2  0  0  0  0  0  0
  -29.4840  -12.5210   18.1930 C   0  0  0  0  0  2  0  0  0  0  0  0
  -28.0070  -12.3800   18.6080 C   0  0  0  0  0  2  0  0  0  0  0  0
  -27.6660  -13.1970   19.8810 C   0  0  0  0  0  3  0  0  0  0  0  0
  -28.7030  -12.9230   20.9920 C   0  0  0  0  0  2  0  0  0  0  0  0
  -30.0430  -13.2200   20.4530 N   0  0  0  0  0  0  0  0  0  0  0  0
  -31.8000  -14.6300   20.0790 O   0  0  0  0  0  0  0  0  0  0  0  0
  -30.1670  -15.2280   21.5030 N   0  0  0  0  0  0  0  0  0  0  0  0
  -29.3180  -14.9190   21.9530 H   0  0  0  0  0  0  0  0  0  0  0  0
  -25.2600  -13.8130   20.5670 C   0  0  0  0  0  0  0  0  0  0  0  0
  -24.1850  -13.0440   20.9150 C   0  0  0  0  0  0  0  0  0  0  0  0
  -24.6380  -11.6900   20.8720 C   0  0  0  0  0  0  0  0  0  0  0  0
  -26.3040  -12.9300   20.3380 N   0  0  0  0  0  0  0  0  0  0  0  0
  -25.9310  -11.6460   20.5760 N   0  0  0  0  0  0  0  0  0  0  0  0
  -23.9060  -10.4290   21.0400 C   0  0  0  0  0  0  0  0  0  0  0  0
  -24.3610   -9.4210   21.9180 C   0  0  0  0  0  3  0  0  0  0  0  0
  -23.6290   -8.2250   22.0760 C   0  0  0  0  0  3  0  0  0  0  0  0
  -22.4270   -8.0270   21.3540 C   0  0  0  0  0  0  0  0  0  0  0  0
  -21.9900   -9.0250   20.4640 C   0  0  0  0  0  3  0  0  0  0  0  0
  -22.7230  -10.2130   20.3050 C   0  0  0  0  0  3  0  0  0  0  0  0
  -21.6630   -6.8880   21.4240 O   0  0  0  0  0  0  0  0  0  0  0  0
  -21.6850   -6.0730   22.5280 C   0  0  0  0  0  0  0  0  0  0  0  0
  -21.4020   -6.5640   23.8220 C   0  0  0  0  0  3  0  0  0  0  0  0
  -21.3650   -5.6790   24.9170 C   0  0  0  0  0  3  0  0  0  0  0  0
  -21.6050   -4.3060   24.7230 C   0  0  0  0  0  0  0  0  0  0  0  0
  -21.8820   -3.8140   23.4340 C   0  0  0  0  0  3  0  0  0  0  0  0
  -21.9200   -4.6970   22.3400 C   0  0  0  0  0  0  0  0  0  0  0  0
  -22.1660   -4.2150   21.0980 F   0  0  0  0  0  0  0  0  0  0  0  0
  -21.5630   -3.4540   25.7740 F   0  0  0  0  0  0  0  0  0  0  0  0
  -22.7860  -13.5230   21.1830 C   0  0  0  0  0  0  0  0  0  0  0  0
  -22.0520  -12.8220   22.0370 N   0  0  0  0  0  0  0  0  0  0  0  0
  -22.3560  -14.5550   20.6690 O   0  0  0  0  0  0  0  0  0  0  0  0
  -22.4130  -11.9860   22.4720 H   0  0  0  0  0  0  0  0  0  0  0  0
  -21.1140  -13.1240   22.2590 H   0  0  0  0  0  0  0  0  0  0  0  0
  -25.4340  -15.1860   20.4090 N   0  0  0  0  0  0  0  0  0  0  0  0
  -24.6710  -15.8460   20.5180 H   0  0  0  0  0  0  0  0  0  0  0  0
  -26.2970  -15.6250   20.1100 H   0  0  0  0  0  0  0  0  0  0  0  0
  1  7  1  0
  1 53  1  0
  2  1  2  0
  3  7  2  0
  3  5  1  0
  4  6  2  0
  5  8  2  0
  7  4  1  0
  8  9  1  0
  8  6  1  0
  9 10  1  0
 10 11  1  0
 11 12  1  0
 12 14  1  0
 13 24  2  0
 14 19  1  0
 15 23  1  0
 15 25  1  0
 16 22  1  0
 16 18  1  0
 17 23  1  0
 18 19  2  0
 18 17  1  0
 20 14  2  0
 21 20  1  0
 21 16  2  0
 22 15  1  0
 23 13  1  0
 25 27  2  0
 26 25  1  0
 28 26  1  0
 29 38  2  0
 29 34  1  0
 30 26  1  0
 30 34  1  0
 31 30  1  0
 32 33  1  0
 32 31  1  0
 33 29  1  0
 34 35  2  0
 35 36  1  0
 37 36  2  0
 38 37  1  0
 39 13  1  0
 39 40  1  0
 39 49  1  0
 40 43  1  0
 41 45  1  0
 41 40  1  0
 42 41  2  0
 45 44  1  0
 47 45  1  0
 47 48  1  0
 47 46  1  0
 49 52  1  1
 49 50  1  0
 51 49  1  0
 53 54  1  0
 54 55  1  0
 56 55  1  0
 56 57  1  0
 58 57  1  0
 58 59  1  0
 60 59  1  0
 60 61  1  0
 62 61  1  0
 62 63  1  0
 64 72  1  0
 65 70  1  0
 66 67  1  0
 66 65  1  0
 68 67  1  0
 68 77  1  0
 68 69  1  0
 70 64  1  0
 70 69  1  0
 71 64  2  0
 72 63  1  0
 72 73  1  0
 74 75  2  0
 75 94  1  0
 76 75  1  0
 76 79  1  0
 77 74  1  0
 77 78  1  0
 78 76  2  0
 79 80  1  0
 80 81  2  0
 82 85  1  0
 82 81  1  0
 83 82  2  0
 84 83  1  0
 84 79  2  0
 85 86  1  0
 86 87  1  0
 87 88  2  0
 89 88  1  0
 89 93  1  0
 90 89  2  0
 91 86  2  0
 91 90  1  0
 92 91  1  0
 94 95  1  0
 95 98  1  0
 95 97  1  0
 96 94  2  0
 99100  1  0
 99 74  1  0
101 99  1  0
M  ISO  4  11 101  12 101  64 100  72 100
M  END
>  <TORSDO>  (7) 
F 31

>  <SCORE>  (7) 
-10.543

>  <name>  (7) 
6

>  <ligand_id>  (7) 
6

>  <original_smiles>  (7) 
[H]c1c([H])c([H])c2c(c1[H])C([H])([H])C([H])([H])C([H])([H])C2([H])N([H])C(=O)C1([H])N(C(=O)C([H])(N([H])C(=O)C([H])(N([H])C([H])([H])[H])C([H])([H])[H])C(C([H])([H])[H])(C([H])([H])[H])C([H])([H])[H])C([H])([H])c2c([H])c(OC([H])([H])C([H])([H])C([H])([H])c3c([H])c([H])c(C(=O)C([H])([H])C([H])([H])C([H])([H])C([H])([H])C([H])([H])C([H])([H])C([H])([H])C([H])([H])C([H])([H])C([H])([H])C([H])([H])N([H])C(=O)N4C([H])([H])C([H])([H])C([H])([H])C([H])(n5nc(-c6c([H])c([H])c(Oc7c([H])c([H])c(F)c([H])c7F)c([H])c6[H])c(C(=O)N([H])[H])c5N([H])[H])C4([H])[H])c([H])c3[H])c([H])c([H])c2C1([H])[H]

>  <smiles>  (7) 
[H]c1c([H])c([H])c2c(c1[H])C([H])([H])C([H])([H])C([H])([H])C2([H])N([H])C(=O)C1([H])N(C(=O)C([H])(N([H])C(=O)C([H])(N([H])C([H])([H])[H])C([H])([H])[H])C(C([H])([H])[H])(C([H])([H])[H])C([H])([H])[H])C([H])([H])c2c([H])c(OC([H])([H])C([H])([H])C([H])([H])c3c([H])c([H])c(C(=O)C([H])([H])C([H])([H])C([H])([H])C([H])([H])C([H])([H])C([H])([H])C([H])([H])C([H])([H])C([H])([H])C([H])([H])C([H])([H])N([H])C(=O)N4C([H])([H])C([H])([H])C([H])([H])C([H])(n5nc(-c6c([H])c([H])c(Oc7c([H])c([H])c(F)c([H])c7F)c([H])c6[H])c(C(=O)N([H])[H])c5N([H])[H])C4([H])[H])c([H])c3[H])c([H])c([H])c2C1([H])[H]

$$$$
7:0:0
     RDKit          3D

104110  0  0  1  0  0  0  0  0999 V2000
  -24.3790  -21.4970   22.3430 C   0  0  0  0  0  3  0  0  0  0  0  0
  -24.1650  -21.3290   24.7430 C   0  0  0  0  0  3  0  0  0  0  0  0
  -24.5050  -23.0200   22.3040 C   0  0  0  0  0  0  0  0  0  0  0  0
  -24.4320  -23.5930   23.6710 C   0  0  0  0  0  0  0  0  0  0  0  0
  -24.2610  -20.5510   23.5340 C   0  0  0  0  0  0  0  0  0  0  0  0
  -24.2460  -22.7690   24.8360 C   0  0  0  0  0  0  0  0  0  0  0  0
  -24.6660  -24.6520   21.7260 C   0  0  0  0  0  0  0  0  0  0  0  0
  -24.5820  -24.9650   23.0450 C   0  0  0  0  0  0  0  0  0  0  0  0
  -24.8050  -25.6490   20.6350 C   0  0  0  0  0  2  0  0  0  0  0  0
  -24.6140  -26.1200   23.4670 O   0  0  0  0  0  0  0  0  0  0  0  0
  -24.9230  -27.3940   20.4840 C   0  0  0  0  0  2  0  0  0  0  0  0
  -24.6170  -28.5110   19.2980 O   0  0  0  0  0  0  0  0  0  0  0  0
  -27.3480  -33.3600   23.7720 C   0  0  0  0  0  0  0  0  0  0  0  0
  -24.6580  -29.9320   19.5970 C   0  0  0  0  0  0  0  0  0  0  0  0
  -24.9270  -33.2970   23.3490 C   0  0  0  0  0  3  0  0  0  0  0  0
  -24.1870  -32.3210   21.0980 C   0  0  0  0  0  0  0  0  0  0  0  0
  -26.5680  -32.9120   21.4130 C   0  0  0  0  0  2  0  0  0  0  0  0
  -25.5040  -32.0020   20.7670 C   0  0  0  0  0  0  0  0  0  0  0  0
  -25.7540  -30.8100   19.9840 C   0  0  0  0  0  3  0  0  0  0  0  0
  -23.3770  -30.4910   19.7000 C   0  0  0  0  0  3  0  0  0  0  0  0
  -23.1330  -31.6240   20.4910 C   0  0  0  0  0  3  0  0  0  0  0  0
  -23.9380  -33.3850   22.1540 C   0  0  0  0  0  2  0  0  0  0  0  0
  -26.3400  -33.1700   22.8700 N   0  0  0  0  0  0  0  0  0  0  0  0
  -27.1130  -33.6420   24.9540 O   0  0  0  0  0  0  0  0  0  0  0  0
  -24.5140  -32.1490   24.3110 C   0  0  0  0  0  0  0  0  0  0  0  0
  -23.5040  -31.3540   23.9160 N   0  0  0  0  0  0  0  0  0  0  0  0
  -25.1100  -31.9750   25.3790 O   0  0  0  0  0  0  0  0  0  0  0  0
  -23.0710  -31.5500   23.0250 H   0  0  0  0  0  0  0  0  0  0  0  0
  -22.3840  -27.9280   23.5860 C   0  0  0  0  0  0  0  0  0  0  0  0
  -22.9700  -30.2080   24.6550 C   0  0  0  0  0  3  0  0  0  0  0  0
  -24.1060  -29.4580   25.3890 C   0  0  0  0  0  2  0  0  0  0  0  0
  -24.6830  -28.3010   24.5670 C   0  0  0  0  0  2  0  0  0  0  0  0
  -23.5920  -27.2770   24.2390 C   0  0  0  0  0  3  0  0  0  0  0  0
  -22.0990  -29.3080   23.7660 C   0  0  0  0  0  0  0  0  0  0  0  0
  -20.9850  -29.8700   23.1030 C   0  0  0  0  0  3  0  0  0  0  0  0
  -20.1620  -29.0760   22.2810 C   0  0  0  0  0  3  0  0  0  0  0  0
  -20.4470  -27.7100   22.1120 C   0  0  0  0  0  3  0  0  0  0  0  0
  -21.5540  -27.1370   22.7650 C   0  0  0  0  0  3  0  0  0  0  0  0
  -28.8430  -33.2660   23.3500 C   0  0  0  0  0  3  0  0  0  0  0  0
  -29.5090  -34.5030   23.7960 N   0  0  0  0  0  0  0  0  0  0  0  0
  -29.9080  -35.4850   22.9760 C   0  0  0  0  0  0  0  0  0  0  0  0
  -29.8130  -35.4060   21.7490 O   0  0  0  0  0  0  0  0  0  0  0  0
  -29.5660  -34.6600   24.7910 H   0  0  0  0  0  0  0  0  0  0  0  0
  -29.4300  -37.8660   23.6240 C   0  0  0  0  0  1  0  0  0  0  0  0
  -30.4940  -36.7580   23.6180 C   0  0  0  0  0  3  0  0  0  0  0  0
  -32.8720  -36.3710   23.1600 C   0  0  0  0  0  1  0  0  0  0  0  0
  -31.7180  -37.2410   22.9450 N   0  0  0  0  0  0  0  0  0  0  0  0
  -31.9590  -38.1760   23.2620 H   0  0  0  0  0  0  0  0  0  0  0  0
  -29.5690  -31.9960   23.9410 C   0  0  1  0  0  0  0  0  0  0  0  0
  -29.3660  -31.7990   25.4630 C   0  0  0  0  0  1  0  0  0  0  0  0
  -29.0630  -30.7170   23.2290 C   0  0  0  0  0  1  0  0  0  0  0  0
  -31.0860  -32.0720   23.6510 C   0  0  0  0  0  1  0  0  0  0  0  0
  -24.0790  -23.4100   26.2320 C   0  0  0  0  0  2  0  0  0  0  0  0
  -25.2740  -24.3050   26.6420 C   0  0  0  0  0  2  0  0  0  0  0  0
  -25.1790  -25.0270   28.0140 C   0  0  0  0  0  2  0  0  0  0  0  0
  -26.6230  -26.1110   29.8990 C   0  0  0  0  0  1  0  0  0  0  0  0
  -26.4970  -25.0000   28.8350 C   0  0  0  0  0  2  0  0  0  0  0  0
  -23.9540  -18.8290   23.5900 C   0  0  0  0  0  3  0  0  0  0  0  0
  -24.8820  -17.3310   23.6860 C   0  0  0  0  0  3  0  0  0  0  0  0
  -24.4500  -15.6120   23.9730 C   0  0  0  0  0  2  0  0  0  0  0  0
  -24.3970  -14.1460   22.9840 C   0  0  0  0  0  2  0  0  0  0  0  0
  -23.6380  -12.5400   22.4290 C   0  0  0  0  0  1  0  0  0  0  0  0
  -25.3740   -9.9230   21.4910 C   0  0  0  0  0  0  0  0  0  0  0  0
  -26.9850   -9.9120   20.9570 C   0  0  0  0  0  2  0  0  0  0  0  0
  -28.3640  -10.6530   21.5000 C   0  0  0  0  0  2  0  0  0  0  0  0
  -29.3540  -11.2550   20.3700 C   0  0  0  0  0  2  0  0  0  0  0  0
  -31.1840  -13.7390   20.0920 C   0  0  2  0  0  0  0  0  0  0  0  0
  -32.2850  -12.6700   19.6250 C   0  0  0  0  0  1  0  0  0  0  0  0
  -31.1100  -12.3880   18.1620 C   0  0  0  0  0  1  0  0  0  0  0  0
  -29.5230  -13.1700   18.1730 C   0  0  0  0  0  2  0  0  0  0  0  0
  -29.0000  -14.3200   19.4070 C   0  0  0  0  0  2  0  0  0  0  0  0
  -30.1250  -14.6560   20.8820 C   0  0  0  0  0  1  0  0  0  0  0  0
  -31.6910  -13.7920   20.9190 N   0  0  0  0  0  1  0  0  0  0  0  0
  -31.6150  -14.7140   19.1860 O   0  0  0  0  0  1  0  0  0  0  0  0
  -30.3150  -12.4310   20.6600 N   0  0  0  0  0  2  0  0  0  0  0  0
  -30.6760  -12.3100   21.5940 H   0  0  0  0  0  0  0  0  0  0  0  0
  -26.6490  -15.2020   19.8270 C   0  0  0  0  0  0  0  0  0  0  0  0
  -25.4870  -14.6060   20.1720 C   0  0  0  0  0  0  0  0  0  0  0  0
  -25.8480  -13.2520   20.3010 C   0  0  0  0  0  0  0  0  0  0  0  0
  -27.6040  -14.2130   19.7490 N   0  0  0  0  0  0  0  0  0  0  0  0
  -27.0970  -13.0370   20.0750 N   0  0  0  0  0  0  0  0  0  0  0  0
  -25.0880  -12.1480   20.5880 C   0  0  0  0  0  2  0  0  0  0  0  0
  -25.4720  -10.9350   21.7570 C   0  0  0  0  0  2  0  0  0  0  0  0
  -24.3280   -9.7050   21.9970 C   0  0  0  0  0  2  0  0  0  0  0  0
  -22.9150   -9.7260   21.1020 C   0  0  0  0  0  0  0  0  0  0  0  0
  -22.6040  -10.8930   20.0410 C   0  0  0  0  0  3  0  0  0  0  0  0
  -23.6520  -12.0920   19.7630 C   0  0  0  0  0  2  0  0  0  0  0  0
  -22.0330   -8.6790   20.9640 O   0  0  0  0  0  0  0  0  0  0  0  0
  -21.8810   -7.7990   21.9820 C   0  0  0  0  0  0  0  0  0  0  0  0
  -21.8010   -8.2720   23.3040 C   0  0  0  0  0  3  0  0  0  0  0  0
  -21.6690   -7.3630   24.3650 C   0  0  0  0  0  3  0  0  0  0  0  0
  -21.5840   -5.9860   24.0970 C   0  0  0  0  0  0  0  0  0  0  0  0
  -21.6170   -5.5110   22.7730 C   0  0  0  0  0  3  0  0  0  0  0  0
  -21.7560   -6.4200   21.7080 C   0  0  0  0  0  0  0  0  0  0  0  0
  -21.7630   -5.9660   20.4310 F   0  0  0  0  0  0  0  0  0  0  0  0
  -21.4690   -5.1160   25.1250 F   0  0  0  0  0  0  0  0  0  0  0  0
  -24.1510  -15.2840   20.1390 C   0  0  0  0  0  0  0  0  0  0  0  0
  -23.1750  -14.9720   20.9380 N   0  0  0  0  0  0  0  0  0  0  0  0
  -24.0050  -16.3370   19.5520 O   0  0  0  0  0  0  0  0  0  0  0  0
  -23.4760  -14.3960   21.7280 H   0  0  0  0  0  0  0  0  0  0  0  0
  -22.6920  -15.8810   21.0980 H   0  0  0  0  0  0  0  0  0  0  0  0
  -26.9490  -16.5220   19.5410 N   0  0  0  0  0  0  0  0  0  0  0  0
  -26.2130  -17.1680   19.2620 H   0  0  0  0  0  0  0  0  0  0  0  0
  -27.8550  -16.8700   19.2660 H   0  0  0  0  0  0  0  0  0  0  0  0
  1  5  1  0
  2  6  1  0
  3  1  2  0
  3  4  1  0
  4  6  2  0
  5 58  1  0
  5  2  2  0
  6 53  1  0
  7  3  1  0
  7  8  2  0
  8 10  1  0
  8  4  1  0
  9  7  1  0
 10 33  1  0
 11  9  1  0
 12 14  1  0
 12 11  1  0
 13 24  2  0
 14 20  2  0
 14 19  1  0
 15 22  1  0
 15 25  1  0
 16 22  1  0
 17 23  1  0
 18 16  1  0
 18 17  1  0
 19 18  2  0
 20 21  1  0
 21 16  2  0
 23 15  1  0
 23 13  1  0
 25 27  2  0
 26 25  1  0
 26 30  1  0
 28 26  1  0
 29 34  1  0
 29 33  1  0
 30 31  1  0
 32 31  1  0
 33 32  1  0
 34 30  1  0
 35 34  2  0
 36 35  1  0
 37 36  2  0
 37 38  1  0
 38 29  2  0
 39 13  1  0
 39 40  1  0
 39 49  1  0
 40 43  1  0
 41 45  1  0
 41 40  1  0
 42 41  2  0
 45 44  1  0
 47 46  1  0
 47 48  1  0
 47 45  1  0
 49 50  1  1
 51 49  1  0
 52 49  1  0
 53 54  1  0
 54 55  1  0
 55 57  1  0
 57 56  1  0
 58 59  2  0
 59 60  1  0
 61 60  1  0
 62 61  1  0
 63 83  2  0
 63 84  1  0
 64 63  1  0
 64 65  1  0
 66 75  1  0
 66 65  1  0
 67 72  1  1
 67 73  1  0
 68 67  1  0
 69 70  1  0
 70 71  1  0
 71 80  1  0
 74 67  1  0
 75 76  1  0
 77 78  2  0
 78 79  1  0
 79 82  1  0
 80 77  1  0
 80 81  1  0
 81 79  2  0
 85 84  1  0
 86 85  2  0
 87 86  1  0
 87 82  1  0
 88 85  1  0
 88 89  1  0
 89 90  1  0
 90 91  2  0
 92 91  1  0
 92 96  1  0
 93 92  2  0
 94 89  2  0
 94 93  1  0
 95 94  1  0
 97 78  1  0
 97 98  1  0
 98101  1  0
 98100  1  0
 99 97  2  0
102 77  1  0
103102  1  0
104102  1  0
M  ISO  4  11 101  12 101  67 100  75 100
M  END
>  <TORSDO>  (8) 
F 30

>  <SCORE>  (8) 
57.029

>  <name>  (8) 
7

>  <ligand_id>  (8) 
7

>  <original_smiles>  (8) 
[H]C(=C1C(=O)c2c1c([H])c(C([H])([H])C([H])([H])C([H])([H])C([H])([H])C([H])([H])C([H])([H])C([H])([H])C([H])([H])C([H])([H])N([H])C(=O)N1C([H])([H])C([H])([H])C([H])([H])C([H])(n3nc(-c4c([H])c([H])c(Oc5c([H])c([H])c(F)c([H])c5F)c([H])c4[H])c(C(=O)N([H])[H])c3N([H])[H])C1([H])[H])c([H])c2C([H])([H])C([H])([H])C([H])([H])C([H])([H])C([H])([H])[H])C([H])([H])Oc1c([H])c([H])c2c(c1[H])C([H])([H])N(C(=O)C([H])(N([H])C(=O)C([H])(N([H])C([H])([H])[H])C([H])([H])[H])C(C([H])([H])[H])(C([H])([H])[H])C([H])([H])[H])C([H])(C(=O)N([H])C1([H])c3c([H])c([H])c([H])c([H])c3C([H])([H])C([H])([H])C1([H])[H])C2([H])[H]

>  <smiles>  (8) 
[H]C(=C1C(=O)c2c1c([H])c(C([H])([H])C([H])([H])C([H])([H])C([H])([H])C([H])([H])C([H])([H])C([H])([H])C([H])([H])C([H])([H])N([H])C(=O)N1C([H])([H])C([H])([H])C([H])([H])C([H])(n3nc(-c4c([H])c([H])c(Oc5c([H])c([H])c(F)c([H])c5F)c([H])c4[H])c(C(=O)N([H])[H])c3N([H])[H])C1([H])[H])c([H])c2C([H])([H])C([H])([H])C([H])([H])C([H])([H])C([H])([H])[H])C([H])([H])Oc1c([H])c([H])c2c(c1[H])C([H])([H])N(C(=O)C([H])(N([H])C(=O)C([H])(N([H])C([H])([H])[H])C([H])([H])[H])C(C([H])([H])[H])(C([H])([H])[H])C([H])([H])[H])C([H])(C(=O)N([H])C1([H])c3c([H])c([H])c([H])c([H])c3C([H])([H])C([H])([H])C1([H])[H])C2([H])[H]

$$$$
8:0:0
     RDKit          3D

 93102  0  0  1  0  0  0  0  0999 V2000
  -28.9350  -21.9890   23.2640 C   0  0  0  0  0  3  0  0  0  0  0  0
  -28.7060  -20.9150   22.3880 C   0  0  0  0  0  3  0  0  0  0  0  0
  -29.7540  -23.0610   22.8670 C   0  0  0  0  0  3  0  0  0  0  0  0
  -30.0790  -22.0100   20.6930 C   0  0  0  0  0  3  0  0  0  0  0  0
  -29.2880  -20.9140   21.1040 C   0  0  0  0  0  0  0  0  0  0  0  0
  -30.3250  -23.0880   21.5740 C   0  0  0  0  0  0  0  0  0  0  0  0
  -29.1100  -19.7090   20.1970 C   0  0  0  0  0  2  0  0  0  0  0  0
  -32.5450  -15.1770   19.6410 C   0  0  0  0  0  0  0  0  0  0  0  0
  -32.1960  -12.7960   19.1070 C   0  0  0  0  0  2  0  0  0  0  0  0
  -31.2610  -12.6820   17.8860 C   0  0  0  0  0  2  0  0  0  0  0  0
  -29.7800  -12.7120   18.3170 C   0  0  0  0  0  2  0  0  0  0  0  0
  -29.4640  -13.8750   19.2960 C   0  0  0  0  0  3  0  0  0  0  0  0
  -30.5040  -13.9140   20.4330 C   0  0  0  0  0  2  0  0  0  0  0  0
  -31.8410  -14.0280   19.8280 N   0  0  0  0  0  0  0  0  0  0  0  0
  -33.6460  -15.2000   19.0750 O   0  0  0  0  0  0  0  0  0  0  0  0
  -30.6150  -18.1960   18.7790 C   0  0  0  0  0  2  0  0  0  0  0  0
  -30.3860  -17.7220   21.2360 C   0  0  0  0  0  2  0  0  0  0  0  0
  -31.9000  -17.3520   18.7710 C   0  0  0  0  0  2  0  0  0  0  0  0
  -31.6940  -16.9040   21.1590 C   0  0  0  0  0  2  0  0  0  0  0  0
  -30.3780  -18.8270   20.1620 C   0  0  0  0  0  3  0  0  0  0  0  0
  -31.8460  -16.3210   19.8180 N   0  0  0  0  0  0  0  0  0  0  0  0
  -27.2090  -14.8020   20.1270 C   0  0  0  0  0  0  0  0  0  0  0  0
  -26.0530  -14.1780   20.5140 C   0  0  0  0  0  0  0  0  0  0  0  0
  -26.3090  -12.7760   20.4130 C   0  0  0  0  0  0  0  0  0  0  0  0
  -28.1030  -13.7870   19.8180 N   0  0  0  0  0  0  0  0  0  0  0  0
  -27.5640  -12.5610   20.0440 N   0  0  0  0  0  0  0  0  0  0  0  0
  -25.4120  -11.6260   20.5880 C   0  0  0  0  0  0  0  0  0  0  0  0
  -25.6830  -10.6170   21.5390 C   0  0  0  0  0  3  0  0  0  0  0  0
  -24.7980   -9.5300   21.6990 C   0  0  0  0  0  3  0  0  0  0  0  0
  -23.6270   -9.4450   20.9080 C   0  0  0  0  0  0  0  0  0  0  0  0
  -23.3740  -10.4400   19.9480 C   0  0  0  0  0  3  0  0  0  0  0  0
  -24.2600  -11.5190   19.7860 C   0  0  0  0  0  3  0  0  0  0  0  0
  -22.7220   -8.4130   20.9770 O   0  0  0  0  0  0  0  0  0  0  0  0
  -22.3780   -7.8360   22.1740 C   0  0  0  0  0  0  0  0  0  0  0  0
  -21.8940   -8.6000   23.2570 C   0  0  0  0  0  3  0  0  0  0  0  0
  -21.4860   -7.9590   24.4450 C   0  0  0  0  0  3  0  0  0  0  0  0
  -21.5540   -6.5560   24.5470 C   0  0  0  0  0  0  0  0  0  0  0  0
  -22.0320   -5.7930   23.4680 C   0  0  0  0  0  3  0  0  0  0  0  0
  -22.4420   -6.4320   22.2830 C   0  0  0  0  0  0  0  0  0  0  0  0
  -22.8810   -5.6900   21.2380 F   0  0  0  0  0  0  0  0  0  0  0  0
  -21.1560   -5.9400   25.6840 F   0  0  0  0  0  0  0  0  0  0  0  0
  -24.7520  -14.8410   20.8660 C   0  0  0  0  0  0  0  0  0  0  0  0
  -23.9770  -14.2370   21.7600 N   0  0  0  0  0  0  0  0  0  0  0  0
  -24.4370  -15.9270   20.3810 O   0  0  0  0  0  0  0  0  0  0  0  0
  -24.2450  -13.3570   22.1740 H   0  0  0  0  0  0  0  0  0  0  0  0
  -23.1050  -14.6650   22.0360 H   0  0  0  0  0  0  0  0  0  0  0  0
  -27.5680  -16.1380   19.9930 N   0  0  0  0  0  0  0  0  0  0  0  0
  -26.9150  -16.8950   20.1630 H   0  0  0  0  0  0  0  0  0  0  0  0
  -28.4740  -16.4550   19.6720 H   0  0  0  0  0  0  0  0  0  0  0  0
  -31.2410  -24.2290   21.1400 C   0  0  0  0  0  2  0  0  0  0  0  0
  -30.6940  -25.6370   21.4530 C   0  0  0  0  0  2  0  0  0  0  0  0
  -31.4620  -26.7550   20.7320 C   0  0  0  0  0  2  0  0  0  0  0  0
  -30.9980  -28.0330   21.1660 O   0  0  0  0  0  0  0  0  0  0  0  0
  -25.6300  -31.7310   23.9870 C   0  0  0  0  0  0  0  0  0  0  0  0
  -29.6660  -28.3690   21.0490 C   0  0  0  0  0  0  0  0  0  0  0  0
  -25.0250  -30.2380   22.1070 C   0  0  0  0  0  3  0  0  0  0  0  0
  -26.9790  -29.2270   20.8230 C   0  0  0  0  0  0  0  0  0  0  0  0
  -27.3820  -31.2070   22.2970 C   0  0  0  0  0  2  0  0  0  0  0  0
  -27.8850  -29.9610   21.5990 C   0  0  0  0  0  0  0  0  0  0  0  0
  -29.2260  -29.5370   21.7100 C   0  0  0  0  0  3  0  0  0  0  0  0
  -28.7350  -27.6280   20.2820 C   0  0  0  0  0  3  0  0  0  0  0  0
  -27.3990  -28.0560   20.1650 C   0  0  0  0  0  3  0  0  0  0  0  0
  -25.5670  -29.7560   20.7350 C   0  0  0  0  0  2  0  0  0  0  0  0
  -26.0180  -31.0710   22.8600 N   0  0  0  0  0  0  0  0  0  0  0  0
  -24.4560  -31.6880   24.3830 O   0  0  0  0  0  0  0  0  0  0  0  0
  -24.5350  -29.0070   22.9020 C   0  0  0  0  0  0  0  0  0  0  0  0
  -23.3780  -28.4570   22.4960 N   0  0  0  0  0  0  0  0  0  0  0  0
  -25.1990  -28.5510   23.8370 O   0  0  0  0  0  0  0  0  0  0  0  0
  -22.8880  -28.8970   21.7300 H   0  0  0  0  0  0  0  0  0  0  0  0
  -20.5290  -26.2580   22.2050 C   0  0  0  0  0  0  0  0  0  0  0  0
  -22.7440  -27.2710   23.0670 C   0  0  0  0  0  3  0  0  0  0  0  0
  -23.4170  -25.9770   22.5560 C   0  0  0  0  0  2  0  0  0  0  0  0
  -22.7330  -25.3920   21.3150 C   0  0  0  0  0  2  0  0  0  0  0  0
  -21.2660  -25.0700   21.6140 C   0  0  0  0  0  2  0  0  0  0  0  0
  -21.2240  -27.2990   22.8750 C   0  0  0  0  0  0  0  0  0  0  0  0
  -20.4940  -28.4000   23.3760 C   0  0  0  0  0  3  0  0  0  0  0  0
  -19.0980  -28.4690   23.2170 C   0  0  0  0  0  3  0  0  0  0  0  0
  -18.4120  -27.4260   22.5700 C   0  0  0  0  0  3  0  0  0  0  0  0
  -19.1260  -26.3240   22.0690 C   0  0  0  0  0  3  0  0  0  0  0  0
  -26.6330  -32.5880   24.8200 C   0  0  0  0  0  3  0  0  0  0  0  0
  -26.9990  -31.9410   26.2110 C   0  0  1  0  0  0  0  0  0  0  0  0
  -25.7660  -31.4930   27.0310 C   0  0  0  0  0  1  0  0  0  0  0  0
  -27.9110  -30.7070   26.0140 C   0  0  0  0  0  1  0  0  0  0  0  0
  -27.7990  -32.9500   27.0690 C   0  0  0  0  0  1  0  0  0  0  0  0
  -26.0290  -33.9130   25.0080 N   0  0  0  0  0  0  0  0  0  0  0  0
  -26.3240  -34.9930   24.2710 C   0  0  0  0  0  0  0  0  0  0  0  0
  -27.1980  -34.9940   23.4000 O   0  0  0  0  0  0  0  0  0  0  0  0
  -25.2660  -33.9730   25.6650 H   0  0  0  0  0  0  0  0  0  0  0  0
  -24.4220  -36.4380   23.4880 C   0  0  0  0  0  1  0  0  0  0  0  0
  -25.5240  -36.2790   24.5470 C   0  0  0  0  0  3  0  0  0  0  0  0
  -27.2830  -37.5360   25.7120 C   0  0  0  0  0  1  0  0  0  0  0  0
  -26.3610  -37.4980   24.5800 N   0  0  0  0  0  0  0  0  0  0  0  0
  -25.7810  -38.3320   24.6180 H   0  0  0  0  0  0  0  0  0  0  0  0
  2  1  2  0
  3  1  1  0
  4  5  2  0
  4  6  1  0
  5  2  1  0
  6  3  2  0
  7  5  1  0
  8 21  1  0
  8 14  1  0
  9 14  1  0
 10 11  1  0
 10  9  1  0
 12 11  1  0
 12 25  1  0
 12 13  1  0
 14 13  1  0
 15  8  2  0
 16 20  1  0
 18 16  1  0
 18 21  1  0
 19 17  1  0
 20  7  1  0
 20 17  1  0
 21 19  1  0
 22 23  2  0
 23 42  1  0
 24 23  1  0
 24 27  1  0
 25 26  1  0
 25 22  1  0
 26 24  2  0
 27 28  1  0
 28 29  2  0
 30 33  1  0
 30 29  1  0
 31 30  2  0
 32 31  1  0
 32 27  2  0
 33 34  1  0
 34 39  2  0
 34 35  1  0
 35 36  2  0
 36 37  1  0
 37 41  1  0
 38 37  2  0
 39 38  1  0
 40 39  1  0
 42 43  1  0
 43 46  1  0
 43 45  1  0
 44 42  2  0
 47 22  1  0
 47 48  1  0
 49 47  1  0
 50 51  1  0
 50  6  1  0
 52 53  1  0
 52 51  1  0
 54 65  2  0
 55 53  1  0
 55 60  1  0
 56 64  1  0
 56 66  1  0
 57 59  1  0
 58 64  1  0
 59 60  2  0
 59 58  1  0
 61 55  2  0
 62 61  1  0
 62 57  2  0
 63 57  1  0
 63 56  1  0
 64 54  1  0
 66 68  2  0
 67 66  1  0
 69 67  1  0
 70 75  1  0
 71 67  1  0
 72 71  1  0
 73 74  1  0
 73 72  1  0
 74 70  1  0
 75 71  1  0
 75 76  2  0
 77 76  1  0
 78 77  2  0
 79 70  2  0
 79 78  1  0
 80 54  1  0
 80 85  1  0
 80 81  1  0
 81 82  1  1
 81 84  1  0
 83 81  1  0
 85 88  1  0
 86 90  1  0
 86 85  1  0
 87 86  2  0
 90 89  1  0
 90 92  1  0
 92 93  1  0
 92 91  1  0
M  ISO  4   8 100  21 100  52 101  53 101
M  END
>  <TORSDO>  (9) 
F 20

>  <SCORE>  (9) 
-6.962

>  <name>  (9) 
8

>  <ligand_id>  (9) 
8

>  <original_smiles>  (9) 
[H]c1c([H])c([H])c2c(c1[H])C([H])([H])C([H])([H])C([H])([H])C2([H])N([H])C(=O)C1([H])N(C(=O)C([H])(N([H])C(=O)C([H])(N([H])C([H])([H])[H])C([H])([H])[H])C(C([H])([H])[H])(C([H])([H])[H])C([H])([H])[H])C([H])([H])c2c([H])c(OC([H])([H])C([H])([H])C([H])([H])c3c([H])c([H])c([H])c(C([H])([H])C4([H])C([H])([H])C([H])([H])N(C(=O)N5C([H])([H])C([H])([H])C([H])([H])C([H])(n6nc(-c7c([H])c([H])c(Oc8c([H])c([H])c(F)c([H])c8F)c([H])c7[H])c(C(=O)N([H])[H])c6N([H])[H])C5([H])[H])C([H])([H])C4([H])[H])c3[H])c([H])c([H])c2C1([H])[H]

>  <smiles>  (9) 
[H]c1c([H])c([H])c2c(c1[H])C([H])([H])C([H])([H])C([H])([H])C2([H])N([H])C(=O)C1([H])N(C(=O)C([H])(N([H])C(=O)C([H])(N([H])C([H])([H])[H])C([H])([H])[H])C(C([H])([H])[H])(C([H])([H])[H])C([H])([H])[H])C([H])([H])c2c([H])c(OC([H])([H])C([H])([H])C([H])([H])c3c([H])c([H])c([H])c(C([H])([H])C4([H])C([H])([H])C([H])([H])N(C(=O)N5C([H])([H])C([H])([H])C([H])([H])C([H])(n6nc(-c7c([H])c([H])c(Oc8c([H])c([H])c(F)c([H])c8F)c([H])c7[H])c(C(=O)N([H])[H])c6N([H])[H])C5([H])[H])C([H])([H])C4([H])[H])c3[H])c([H])c([H])c2C1([H])[H]

$$$$
9:0:0
     RDKit          3D

100107  0  0  1  0  0  0  0  0999 V2000
  -24.1810  -17.5410   17.9280 C   0  0  0  0  0  2  0  0  0  0  0  0
  -23.5740  -18.3360   16.7550 C   0  0  0  0  0  2  0  0  0  0  0  0
  -24.0520  -19.7990   16.6230 C   0  0  0  0  0  2  0  0  0  0  0  0
  -25.5650  -19.9350   16.3650 C   0  0  0  0  0  2  0  0  0  0  0  0
  -26.1440  -21.3330   16.6420 C   0  0  0  0  0  2  0  0  0  0  0  0
  -26.4680  -21.6310   18.1170 C   0  0  0  0  0  2  0  0  0  0  0  0
  -27.5150  -22.7540   18.2430 C   0  0  0  0  0  2  0  0  0  0  0  0
  -27.7620  -23.2050   19.6900 C   0  0  0  0  0  2  0  0  0  0  0  0
  -28.7180  -24.4110   19.7830 C   0  0  0  0  0  2  0  0  0  0  0  0
  -28.5890  -25.1530   21.1280 C   0  0  0  0  0  2  0  0  0  0  0  0
  -28.6960  -26.5720   20.9840 O   0  0  0  0  0  0  0  0  0  0  0  0
  -24.7400  -31.9420   23.4350 C   0  0  0  0  0  0  0  0  0  0  0  0
  -27.5170  -27.2770   20.8560 C   0  0  0  0  0  0  0  0  0  0  0  0
  -23.6180  -30.4240   21.8380 C   0  0  0  0  0  3  0  0  0  0  0  0
  -25.1370  -28.7830   20.6220 C   0  0  0  0  0  0  0  0  0  0  0  0
  -26.1540  -30.7640   21.7510 C   0  0  0  0  0  2  0  0  0  0  0  0
  -26.2660  -29.3480   21.2260 C   0  0  0  0  0  0  0  0  0  0  0  0
  -27.4610  -28.6040   21.3340 C   0  0  0  0  0  3  0  0  0  0  0  0
  -26.3610  -26.7190   20.2610 C   0  0  0  0  0  3  0  0  0  0  0  0
  -25.1780  -27.4670   20.1370 C   0  0  0  0  0  3  0  0  0  0  0  0
  -23.9020  -29.6450   20.5270 C   0  0  0  0  0  2  0  0  0  0  0  0
  -24.8530  -31.0630   22.4000 N   0  0  0  0  0  0  0  0  0  0  0  0
  -23.6300  -32.2540   23.8900 O   0  0  0  0  0  0  0  0  0  0  0  0
  -22.9090  -29.4770   22.8320 C   0  0  0  0  0  0  0  0  0  0  0  0
  -21.6110  -29.2230   22.5950 N   0  0  0  0  0  0  0  0  0  0  0  0
  -23.5250  -28.9690   23.7730 O   0  0  0  0  0  0  0  0  0  0  0  0
  -21.1750  -29.6880   21.8100 H   0  0  0  0  0  0  0  0  0  0  0  0
  -18.2380  -27.9610   22.8940 C   0  0  0  0  0  0  0  0  0  0  0  0
  -20.7500  -28.3340   23.3750 C   0  0  0  0  0  3  0  0  0  0  0  0
  -20.9450  -26.8590   22.9560 C   0  0  0  0  0  2  0  0  0  0  0  0
  -19.9550  -26.3990   21.8810 C   0  0  0  0  0  2  0  0  0  0  0  0
  -18.5140  -26.5600   22.3760 C   0  0  0  0  0  2  0  0  0  0  0  0
  -19.2900  -28.8000   23.3480 C   0  0  0  0  0  0  0  0  0  0  0  0
  -18.9840  -30.1070   23.7850 C   0  0  0  0  0  3  0  0  0  0  0  0
  -17.6570  -30.5770   23.7750 C   0  0  0  0  0  3  0  0  0  0  0  0
  -16.6180  -29.7370   23.3390 C   0  0  0  0  0  3  0  0  0  0  0  0
  -16.9080  -28.4320   22.9050 C   0  0  0  0  0  3  0  0  0  0  0  0
  -25.9920  -32.6170   24.0770 C   0  0  0  0  0  3  0  0  0  0  0  0
  -25.6710  -34.0330   24.2990 N   0  0  0  0  0  0  0  0  0  0  0  0
  -26.0220  -35.0300   23.4770 C   0  0  0  0  0  0  0  0  0  0  0  0
  -26.7280  -34.8570   22.4780 O   0  0  0  0  0  0  0  0  0  0  0  0
  -25.0580  -34.2430   25.0730 H   0  0  0  0  0  0  0  0  0  0  0  0
  -24.3000  -36.7790   22.9370 C   0  0  0  0  0  1  0  0  0  0  0  0
  -25.5150  -36.4440   23.8160 C   0  0  0  0  0  3  0  0  0  0  0  0
  -27.6130  -37.4070   24.6520 C   0  0  0  0  0  1  0  0  0  0  0  0
  -26.5450  -37.4950   23.6590 N   0  0  0  0  0  0  0  0  0  0  0  0
  -26.1300  -38.4200   23.7190 H   0  0  0  0  0  0  0  0  0  0  0  0
  -26.4430  -31.9290   25.4230 C   0  0  1  0  0  0  0  0  0  0  0  0
  -25.2860  -31.7010   26.4240 C   0  0  0  0  0  1  0  0  0  0  0  0
  -27.0990  -30.5580   25.1370 C   0  0  0  0  0  1  0  0  0  0  0  0
  -27.5160  -32.7970   26.1190 C   0  0  0  0  0  1  0  0  0  0  0  0
  -24.3270  -18.3660   19.2180 C   0  0  0  0  0  2  0  0  0  0  0  0
  -25.4020  -17.8240   20.1920 C   0  0  0  0  0  2  0  0  0  0  0  0
  -26.7590  -17.5250   19.5440 C   0  0  0  0  0  0  0  0  0  0  0  0
  -27.4030  -18.5520   18.9810 N   0  0  0  0  0  0  0  0  0  0  0  0
  -27.2090  -16.3780   19.5540 O   0  0  0  0  0  0  0  0  0  0  0  0
  -26.9470  -19.4510   19.0390 H   0  0  0  0  0  0  0  0  0  0  0  0
  -28.6300  -18.4980   18.1960 C   0  0  0  0  0  2  0  0  0  0  0  0
  -29.5730  -17.3740   18.6570 C   0  0  0  0  0  2  0  0  0  0  0  0
  -29.6350  -17.1830   20.1850 C   0  0  0  0  0  2  0  0  0  0  0  0
  -30.9860  -16.6120   20.6480 C   0  0  0  0  0  2  0  0  0  0  0  0
  -30.8870  -15.5060   21.7220 C   0  0  0  0  0  2  0  0  0  0  0  0
  -30.7960  -13.5410   20.1780 C   0  0  0  0  0  0  0  0  0  0  0  0
  -29.9920  -12.1730   18.3070 C   0  0  0  0  0  2  0  0  0  0  0  0
  -28.9270  -12.9800   17.5370 C   0  0  0  0  0  2  0  0  0  0  0  0
  -27.5320  -12.7680   18.1610 C   0  0  0  0  0  2  0  0  0  0  0  0
  -27.5270  -12.9790   19.6990 C   0  0  0  0  0  3  0  0  0  0  0  0
  -28.6810  -12.1940   20.3610 C   0  0  0  0  0  2  0  0  0  0  0  0
  -29.9390  -12.5990   19.7110 N   0  0  0  0  0  0  0  0  0  0  0  0
  -31.8550  -13.8330   19.6170 O   0  0  0  0  0  0  0  0  0  0  0  0
  -30.3210  -14.2580   21.2070 N   0  0  0  0  0  0  0  0  0  0  0  0
  -29.4400  -13.9550   21.5980 H   0  0  0  0  0  0  0  0  0  0  0  0
  -25.1980  -13.4640   20.6800 C   0  0  0  0  0  0  0  0  0  0  0  0
  -24.1880  -12.6350   21.0880 C   0  0  0  0  0  0  0  0  0  0  0  0
  -24.6830  -11.3050   20.9320 C   0  0  0  0  0  0  0  0  0  0  0  0
  -26.2350  -12.6350   20.2860 N   0  0  0  0  0  0  0  0  0  0  0  0
  -25.9360  -11.3280   20.4980 N   0  0  0  0  0  0  0  0  0  0  0  0
  -24.0190  -10.0090   21.1180 C   0  0  0  0  0  0  0  0  0  0  0  0
  -24.5210   -9.0510   22.0270 C   0  0  0  0  0  3  0  0  0  0  0  0
  -23.8580   -7.8170   22.2040 C   0  0  0  0  0  3  0  0  0  0  0  0
  -22.6780   -7.5370   21.4760 C   0  0  0  0  0  0  0  0  0  0  0  0
  -22.1940   -8.4840   20.5560 C   0  0  0  0  0  3  0  0  0  0  0  0
  -22.8600   -9.7100   20.3760 C   0  0  0  0  0  3  0  0  0  0  0  0
  -21.9810   -6.3550   21.5630 O   0  0  0  0  0  0  0  0  0  0  0  0
  -21.8440   -5.6860   22.7510 C   0  0  0  0  0  0  0  0  0  0  0  0
  -21.3740   -6.3250   23.9200 C   0  0  0  0  0  3  0  0  0  0  0  0
  -21.1850   -5.5830   25.1020 C   0  0  0  0  0  3  0  0  0  0  0  0
  -21.4550   -4.2010   25.1180 C   0  0  0  0  0  0  0  0  0  0  0  0
  -21.9190   -3.5620   23.9540 C   0  0  0  0  0  3  0  0  0  0  0  0
  -22.1110   -4.3020   22.7750 C   0  0  0  0  0  0  0  0  0  0  0  0
  -22.5370   -3.6770   21.6510 F   0  0  0  0  0  0  0  0  0  0  0  0
  -21.2660   -3.4850   26.2500 F   0  0  0  0  0  0  0  0  0  0  0  0
  -22.8100  -13.0460   21.5220 C   0  0  0  0  0  0  0  0  0  0  0  0
  -22.2330  -12.3330   22.4820 N   0  0  0  0  0  0  0  0  0  0  0  0
  -22.2560  -14.0320   21.0370 O   0  0  0  0  0  0  0  0  0  0  0  0
  -22.6940  -11.5330   22.8890 H   0  0  0  0  0  0  0  0  0  0  0  0
  -21.3140  -12.5910   22.8160 H   0  0  0  0  0  0  0  0  0  0  0  0
  -25.3160  -14.8470   20.6000 N   0  0  0  0  0  0  0  0  0  0  0  0
  -24.5500  -15.4640   20.8460 H   0  0  0  0  0  0  0  0  0  0  0  0
  -26.1430  -15.3370   20.2920 H   0  0  0  0  0  0  0  0  0  0  0  0
  1 52  1  0
  2  1  1  0
  3  2  1  0
  4  3  1  0
  4  5  1  0
  5  6  1  0
  6  7  1  0
  7  8  1  0
  8  9  1  0
  9 10  1  0
 11 10  1  0
 12 23  2  0
 13 11  1  0
 13 18  1  0
 14 22  1  0
 14 24  1  0
 15 17  1  0
 16 22  1  0
 17 18  2  0
 17 16  1  0
 19 13  2  0
 20 19  1  0
 20 15  2  0
 21 15  1  0
 21 14  1  0
 22 12  1  0
 24 26  2  0
 25 24  1  0
 27 25  1  0
 28 37  2  0
 28 33  1  0
 29 25  1  0
 30 29  1  0
 31 32  1  0
 31 30  1  0
 32 28  1  0
 33 29  1  0
 33 34  2  0
 35 34  1  0
 36 35  2  0
 37 36  1  0
 38 12  1  0
 38 39  1  0
 38 48  1  0
 39 42  1  0
 40 44  1  0
 40 39  1  0
 41 40  2  0
 44 43  1  0
 46 47  1  0
 46 44  1  0
 46 45  1  0
 48 51  1  1
 48 49  1  0
 50 48  1  0
 52 53  1  0
 54 56  2  0
 54 53  1  0
 55 57  1  0
 55 54  1  0
 58 59  1  0
 58 55  1  0
 59 60  1  0
 60 61  1  0
 61 62  1  0
 63 71  1  0
 64 69  1  0
 65 66  1  0
 65 64  1  0
 67 66  1  0
 67 76  1  0
 67 68  1  0
 69 63  1  0
 69 68  1  0
 70 63  2  0
 71 72  1  0
 71 62  1  0
 73 74  2  0
 74 93  1  0
 75 74  1  0
 75 78  1  0
 76 77  1  0
 76 73  1  0
 77 75  2  0
 78 79  1  0
 79 80  2  0
 81 84  1  0
 81 80  1  0
 82 81  2  0
 83 82  1  0
 83 78  2  0
 84 85  1  0
 85 90  2  0
 85 86  1  0
 86 87  2  0
 87 88  1  0
 88 92  1  0
 89 88  2  0
 90 89  1  0
 91 90  1  0
 93 94  1  0
 94 97  1  0
 94 96  1  0
 95 93  2  0
 98 73  1  0
 98 99  1  0
100 98  1  0
M  ISO  4  10 101  11 101  63 100  71 100
M  END
>  <TORSDO>  (10) 
F 33

>  <SCORE>  (10) 
-1.639

>  <name>  (10) 
9

>  <ligand_id>  (10) 
9

>  <original_smiles>  (10) 
[H]c1c([H])c([H])c2c(c1[H])C([H])([H])C([H])([H])C([H])([H])C2([H])N([H])C(=O)C1([H])N(C(=O)C([H])(N([H])C(=O)C([H])(N([H])C([H])([H])[H])C([H])([H])[H])C(C([H])([H])[H])(C([H])([H])[H])C([H])([H])[H])C([H])([H])c2c([H])c(OC([H])([H])C([H])([H])C([H])([H])C([H])([H])C([H])([H])C([H])([H])C([H])([H])C([H])([H])C([H])([H])C([H])([H])C([H])([H])C([H])([H])C(=O)N([H])C([H])([H])C([H])([H])C([H])([H])C([H])([H])C([H])([H])N([H])C(=O)N3C([H])([H])C([H])([H])C([H])([H])C([H])(n4nc(-c5c([H])c([H])c(Oc6c([H])c([H])c(F)c([H])c6F)c([H])c5[H])c(C(=O)N([H])[H])c4N([H])[H])C3([H])[H])c([H])c([H])c2C1([H])[H]

>  <smiles>  (10) 
[H]c1c([H])c([H])c2c(c1[H])C([H])([H])C([H])([H])C([H])([H])C2([H])N([H])C(=O)C1([H])N(C(=O)C([H])(N([H])C(=O)C([H])(N([H])C([H])([H])[H])C([H])([H])[H])C(C([H])([H])[H])(C([H])([H])[H])C([H])([H])[H])C([H])([H])c2c([H])c(OC([H])([H])C([H])([H])C([H])([H])C([H])([H])C([H])([H])C([H])([H])C([H])([H])C([H])([H])C([H])([H])C([H])([H])C([H])([H])C([H])([H])C(=O)N([H])C([H])([H])C([H])([H])C([H])([H])C([H])([H])C([H])([H])N([H])C(=O)N3C([H])([H])C([H])([H])C([H])([H])C([H])(n4nc(-c5c([H])c([H])c(Oc6c([H])c([H])c(F)c([H])c6F)c([H])c5[H])c(C(=O)N([H])[H])c4N([H])[H])C3([H])[H])c([H])c([H])c2C1([H])[H]

$$$$
10:0:0
     RDKit          3D

 97104  0  0  1  0  0  0  0  0999 V2000
  -28.4480  -21.5910   21.7110 C   0  0  0  0  0  3  0  0  0  0  0  0
  -28.5170  -23.0710   21.8280 N   0  0  0  0  0  4  0  0  0  0  0  0
  -28.6190  -23.4470   20.9000 H   0  0  0  0  0  0  0  0  0  0  0  0
  -27.6360  -23.4020   22.1900 H   0  0  0  0  0  0  0  0  0  0  0  0
  -29.6100  -23.6290   22.6560 C   0  0  0  0  0  2  0  0  0  0  0  0
  -29.7170  -25.1500   22.5090 C   0  0  0  0  0  2  0  0  0  0  0  0
  -31.1800  -25.6290   22.5020 C   0  0  0  0  0  2  0  0  0  0  0  0
  -31.3060  -27.0880   22.0680 C   0  0  0  0  0  2  0  0  0  0  0  0
  -30.6160  -27.2360   20.8250 O   0  0  0  0  0  0  0  0  0  0  0  0
  -25.9620  -31.5390   24.0830 C   0  0  0  0  0  0  0  0  0  0  0  0
  -29.3880  -27.8540   20.8360 C   0  0  0  0  0  0  0  0  0  0  0  0
  -25.0840  -30.2630   22.1480 C   0  0  0  0  0  3  0  0  0  0  0  0
  -26.8350  -29.0610   20.7360 C   0  0  0  0  0  0  0  0  0  0  0  0
  -27.5530  -30.8940   22.2860 C   0  0  0  0  0  2  0  0  0  0  0  0
  -27.8520  -29.6310   21.5100 C   0  0  0  0  0  0  0  0  0  0  0  0
  -29.1260  -29.0410   21.5570 C   0  0  0  0  0  3  0  0  0  0  0  0
  -28.3570  -27.2870   20.0570 C   0  0  0  0  0  3  0  0  0  0  0  0
  -27.0790  -27.8830   20.0070 C   0  0  0  0  0  3  0  0  0  0  0  0
  -25.5070  -29.7810   20.7330 C   0  0  0  0  0  2  0  0  0  0  0  0
  -26.2090  -30.9050   22.9020 N   0  0  0  0  0  0  0  0  0  0  0  0
  -24.8100  -31.6370   24.5260 O   0  0  0  0  0  0  0  0  0  0  0  0
  -24.4470  -29.0710   22.8980 C   0  0  0  0  0  0  0  0  0  0  0  0
  -23.1900  -28.7550   22.5500 N   0  0  0  0  0  0  0  0  0  0  0  0
  -25.0860  -28.4390   23.7430 O   0  0  0  0  0  0  0  0  0  0  0  0
  -22.7350  -29.3260   21.8530 H   0  0  0  0  0  0  0  0  0  0  0  0
  -19.9600  -27.1470   22.4070 C   0  0  0  0  0  0  0  0  0  0  0  0
  -22.4000  -27.6490   23.0910 C   0  0  0  0  0  3  0  0  0  0  0  0
  -22.7630  -26.3170   22.3940 C   0  0  0  0  0  2  0  0  0  0  0  0
  -21.8630  -25.9960   21.1980 C   0  0  0  0  0  2  0  0  0  0  0  0
  -20.3970  -25.9130   21.6350 C   0  0  0  0  0  2  0  0  0  0  0  0
  -20.9030  -27.9700   23.0760 C   0  0  0  0  0  0  0  0  0  0  0  0
  -20.4480  -29.1250   23.7520 C   0  0  0  0  0  3  0  0  0  0  0  0
  -19.0820  -29.4600   23.7640 C   0  0  0  0  0  3  0  0  0  0  0  0
  -18.1500  -28.6330   23.1140 C   0  0  0  0  0  3  0  0  0  0  0  0
  -18.5880  -27.4770   22.4430 C   0  0  0  0  0  3  0  0  0  0  0  0
  -27.1080  -32.1900   24.9220 C   0  0  0  0  0  3  0  0  0  0  0  0
  -27.4260  -31.4100   26.2550 C   0  0  1  0  0  0  0  0  0  0  0  0
  -26.1740  -31.0970   27.1050 C   0  0  0  0  0  1  0  0  0  0  0  0
  -28.1350  -30.0690   25.9430 C   0  0  0  0  0  1  0  0  0  0  0  0
  -28.4020  -32.2350   27.1260 C   0  0  0  0  0  1  0  0  0  0  0  0
  -26.7110  -33.5750   25.2100 N   0  0  0  0  0  0  0  0  0  0  0  0
  -27.1470  -34.6460   24.5320 C   0  0  0  0  0  0  0  0  0  0  0  0
  -27.9910  -34.5740   23.6350 O   0  0  0  0  0  0  0  0  0  0  0  0
  -25.9810  -33.7030   25.8950 H   0  0  0  0  0  0  0  0  0  0  0  0
  -25.4650  -36.4010   23.8910 C   0  0  0  0  0  1  0  0  0  0  0  0
  -26.5490  -36.0150   24.9110 C   0  0  0  0  0  3  0  0  0  0  0  0
  -28.4780  -36.9280   26.1200 C   0  0  0  0  0  1  0  0  0  0  0  0
  -27.5570  -37.0920   24.9980 N   0  0  0  0  0  0  0  0  0  0  0  0
  -27.1070  -37.9980   25.0920 H   0  0  0  0  0  0  0  0  0  0  0  0
  -29.7460  -20.8970   22.1980 C   0  0  0  0  0  2  0  0  0  0  0  0
  -29.7880  -19.3730   22.0570 C   0  0  0  0  0  2  0  0  0  0  0  0
  -31.2030  -18.9210   21.6860 C   0  0  0  0  0  2  0  0  0  0  0  0
  -31.2860  -17.4220   21.4260 C   0  0  0  0  0  2  0  0  0  0  0  0
  -32.5610  -17.0650   20.6490 C   0  0  0  0  0  2  0  0  0  0  0  0
  -32.8830  -15.5680   20.6920 C   0  0  0  0  0  2  0  0  0  0  0  0
  -31.5250  -14.2620   19.0630 C   0  0  0  0  0  0  0  0  0  0  0  0
  -30.8210  -12.0960   18.1520 C   0  0  0  0  0  2  0  0  0  0  0  0
  -29.6950  -12.1440   17.1130 C   0  0  0  0  0  2  0  0  0  0  0  0
  -28.3250  -12.1230   17.8080 C   0  0  0  0  0  2  0  0  0  0  0  0
  -28.2100  -13.2020   18.9140 C   0  0  0  0  0  3  0  0  0  0  0  0
  -29.4230  -13.1590   19.8700 C   0  0  0  0  0  2  0  0  0  0  0  0
  -30.6670  -13.2210   19.0800 N   0  0  0  0  0  0  0  0  0  0  0  0
  -32.2490  -14.5540   18.1060 O   0  0  0  0  0  0  0  0  0  0  0  0
  -31.7440  -14.7500   20.2880 N   0  0  0  0  0  0  0  0  0  0  0  0
  -31.1550  -14.3870   21.0230 H   0  0  0  0  0  0  0  0  0  0  0  0
  -26.1080  -14.0700   20.1270 C   0  0  0  0  0  0  0  0  0  0  0  0
  -25.0230  -13.4210   20.6540 C   0  0  0  0  0  0  0  0  0  0  0  0
  -25.2570  -12.0270   20.4450 C   0  0  0  0  0  0  0  0  0  0  0  0
  -26.9450  -13.0780   19.6390 N   0  0  0  0  0  0  0  0  0  0  0  0
  -26.4440  -11.8380   19.8840 N   0  0  0  0  0  0  0  0  0  0  0  0
  -24.3950  -10.8640   20.6970 C   0  0  0  0  0  0  0  0  0  0  0  0
  -24.8010   -9.8170   21.5540 C   0  0  0  0  0  3  0  0  0  0  0  0
  -23.9470   -8.7180   21.7960 C   0  0  0  0  0  3  0  0  0  0  0  0
  -22.6750   -8.6590   21.1790 C   0  0  0  0  0  0  0  0  0  0  0  0
  -22.2860   -9.6930   20.3090 C   0  0  0  0  0  3  0  0  0  0  0  0
  -23.1380  -10.7840   20.0660 C   0  0  0  0  0  3  0  0  0  0  0  0
  -21.7900   -7.6200   21.3340 O   0  0  0  0  0  0  0  0  0  0  0  0
  -21.7070   -6.9130   22.5070 C   0  0  0  0  0  0  0  0  0  0  0  0
  -21.4290   -7.5460   23.7390 C   0  0  0  0  0  3  0  0  0  0  0  0
  -21.2830   -6.7740   24.9090 C   0  0  0  0  0  3  0  0  0  0  0  0
  -21.4050   -5.3730   24.8490 C   0  0  0  0  0  0  0  0  0  0  0  0
  -21.6760   -4.7420   23.6230 C   0  0  0  0  0  3  0  0  0  0  0  0
  -21.8230   -5.5100   22.4550 C   0  0  0  0  0  0  0  0  0  0  0  0
  -22.0640   -4.8950   21.2720 F   0  0  0  0  0  0  0  0  0  0  0  0
  -21.2570   -4.6310   25.9720 F   0  0  0  0  0  0  0  0  0  0  0  0
  -23.7920  -14.0580   21.2320 C   0  0  0  0  0  0  0  0  0  0  0  0
  -23.1710  -13.4130   22.2130 N   0  0  0  0  0  0  0  0  0  0  0  0
  -23.4010  -15.1590   20.8460 O   0  0  0  0  0  0  0  0  0  0  0  0
  -23.5020  -12.5180   22.5430 H   0  0  0  0  0  0  0  0  0  0  0  0
  -22.3510  -13.8200   22.6410 H   0  0  0  0  0  0  0  0  0  0  0  0
  -26.4450  -15.4140   20.0060 N   0  0  0  0  0  0  0  0  0  0  0  0
  -25.8290  -16.1590   20.3130 H   0  0  0  0  0  0  0  0  0  0  0  0
  -27.2880  -15.7530   19.5630 H   0  0  0  0  0  0  0  0  0  0  0  0
  -28.0550  -21.2060   20.2640 C   0  0  0  0  0  2  0  0  0  0  0  0
  -29.2410  -21.1070   19.2810 C   0  0  0  0  0  2  0  0  0  0  0  0
  -30.0950  -20.1960   17.0620 C   0  0  0  0  0  1  0  0  0  0  0  0
  -28.8700  -20.4290   17.9550 C   0  0  0  0  0  2  0  0  0  0  0  0
  1 94  1  0
  1  2  1  0
  1 50  1  0
  2  4  1  0
  2  5  1  0
  3  2  1  0
  6  5  1  0
  7  6  1  0
  8  7  1  0
  9 11  1  0
  9  8  1  0
 10 21  2  0
 11 16  1  0
 12 22  1  0
 12 20  1  0
 13 15  1  0
 14 20  1  0
 15 16  2  0
 15 14  1  0
 17 11  2  0
 18 17  1  0
 18 13  2  0
 19 13  1  0
 19 12  1  0
 20 10  1  0
 22 24  2  0
 23 22  1  0
 25 23  1  0
 26 35  2  0
 26 31  1  0
 27 23  1  0
 28 27  1  0
 29 30  1  0
 29 28  1  0
 30 26  1  0
 31 27  1  0
 31 32  2  0
 32 33  1  0
 34 33  2  0
 35 34  1  0
 36 10  1  0
 36 41  1  0
 36 37  1  0
 37 38  1  1
 37 40  1  0
 39 37  1  0
 41 44  1  0
 42 46  1  0
 42 41  1  0
 43 42  2  0
 46 45  1  0
 46 48  1  0
 48 49  1  0
 48 47  1  0
 51 50  1  0
 52 51  1  0
 53 52  1  0
 54 55  1  0
 54 53  1  0
 56 62  1  0
 56 64  1  0
 57 62  1  0
 58 59  1  0
 58 57  1  0
 60 59  1  0
 60 69  1  0
 60 61  1  0
 62 61  1  0
 63 56  2  0
 64 55  1  0
 64 65  1  0
 66 67  2  0
 67 86  1  0
 68 67  1  0
 68 71  1  0
 69 70  1  0
 69 66  1  0
 70 68  2  0
 71 72  1  0
 72 73  2  0
 74 77  1  0
 74 73  1  0
 75 74  2  0
 76 75  1  0
 76 71  2  0
 77 78  1  0
 78 79  1  0
 79 80  2  0
 81 80  1  0
 81 85  1  0
 82 81  2  0
 83 78  2  0
 83 82  1  0
 84 83  1  0
 86 87  1  0
 87 89  1  0
 87 90  1  0
 88 86  2  0
 91 66  1  0
 91 92  1  0
 93 91  1  0
 95 94  1  0
 96 97  1  0
 97 95  1  0
M  ISO  4   8 101   9 101  56 100  64 100
M  END
>  <TORSDO>  (11) 
F 30

>  <SCORE>  (11) 
-5.364

>  <name>  (11) 
10

>  <ligand_id>  (11) 
10

>  <original_smiles>  (11) 
[H]c1c([H])c([H])c2c(c1[H])C([H])([H])C([H])([H])C([H])([H])C2([H])N([H])C(=O)C1([H])N(C(=O)C([H])(N([H])C(=O)C([H])(N([H])C([H])([H])[H])C([H])([H])[H])C(C([H])([H])[H])(C([H])([H])[H])C([H])([H])[H])C([H])([H])c2c([H])c(OC([H])([H])C([H])([H])C([H])([H])C([H])([H])[N+]([H])([H])C([H])(C([H])([H])C([H])([H])C([H])([H])C([H])([H])[H])C([H])([H])C([H])([H])C([H])([H])C([H])([H])C([H])([H])C([H])([H])N([H])C(=O)N3C([H])([H])C([H])([H])C([H])([H])C([H])(n4nc(-c5c([H])c([H])c(Oc6c([H])c([H])c(F)c([H])c6F)c([H])c5[H])c(C(=O)N([H])[H])c4N([H])[H])C3([H])[H])c([H])c([H])c2C1([H])[H]

>  <smiles>  (11) 
[H]c1c([H])c([H])c2c(c1[H])C([H])([H])C([H])([H])C([H])([H])C2([H])N([H])C(=O)C1([H])N(C(=O)C([H])(N([H])C(=O)C([H])(N([H])C([H])([H])[H])C([H])([H])[H])C(C([H])([H])[H])(C([H])([H])[H])C([H])([H])[H])C([H])([H])c2c([H])c(OC([H])([H])C([H])([H])C([H])([H])C([H])([H])[N+]([H])([H])C([H])(C([H])([H])C([H])([H])C([H])([H])C([H])([H])[H])C([H])([H])C([H])([H])C([H])([H])C([H])([H])C([H])([H])C([H])([H])N([H])C(=O)N3C([H])([H])C([H])([H])C([H])([H])C([H])(n4nc(-c5c([H])c([H])c(Oc6c([H])c([H])c(F)c([H])c6F)c([H])c5[H])c(C(=O)N([H])[H])c4N([H])[H])C3([H])[H])c([H])c([H])c2C1([H])[H]

$$$$
11:0:0
     RDKit          3D

 89 96  0  0  1  0  0  0  0  0999 V2000
  -27.4340  -22.3420   20.5820 C   0  0  0  0  0  0  0  0  0  0  0  0
  -26.8590  -22.1770   19.5000 O   0  0  0  0  0  0  0  0  0  0  0  0
  -27.7160  -23.6680   21.1320 C   0  0  0  0  0  3  0  0  0  0  0  0
  -28.2680  -24.6150   20.3540 C   0  0  0  0  0  3  0  0  0  0  0  0
  -28.6180  -26.0080   20.8160 C   0  0  0  0  0  2  0  0  0  0  0  0
  -28.3940  -26.9560   19.7820 O   0  0  0  0  0  0  0  0  0  0  0  0
  -24.5960  -31.8510   23.2520 C   0  0  0  0  0  0  0  0  0  0  0  0
  -27.2130  -27.6390   19.8860 C   0  0  0  0  0  0  0  0  0  0  0  0
  -23.3700  -30.5500   21.5390 C   0  0  0  0  0  3  0  0  0  0  0  0
  -24.8090  -29.0960   20.0170 C   0  0  0  0  0  0  0  0  0  0  0  0
  -25.8870  -30.9320   21.3330 C   0  0  0  0  0  2  0  0  0  0  0  0
  -25.9680  -29.6000   20.6220 C   0  0  0  0  0  0  0  0  0  0  0  0
  -27.1750  -28.8750   20.5580 C   0  0  0  0  0  3  0  0  0  0  0  0
  -26.0440  -27.1320   19.2810 C   0  0  0  0  0  3  0  0  0  0  0  0
  -24.8380  -27.8580   19.3480 C   0  0  0  0  0  3  0  0  0  0  0  0
  -23.5650  -29.9480   20.1210 C   0  0  0  0  0  2  0  0  0  0  0  0
  -24.6370  -31.1210   22.1020 N   0  0  0  0  0  0  0  0  0  0  0  0
  -23.5210  -32.0890   23.8200 O   0  0  0  0  0  0  0  0  0  0  0  0
  -22.7300  -29.4730   22.4430 C   0  0  0  0  0  0  0  0  0  0  0  0
  -21.4090  -29.2830   22.3010 N   0  0  0  0  0  0  0  0  0  0  0  0
  -23.4180  -28.8130   23.2280 O   0  0  0  0  0  0  0  0  0  0  0  0
  -20.9140  -29.8710   21.6440 H   0  0  0  0  0  0  0  0  0  0  0  0
  -18.0490  -28.0220   22.7020 C   0  0  0  0  0  0  0  0  0  0  0  0
  -20.5990  -28.2980   23.0150 C   0  0  0  0  0  3  0  0  0  0  0  0
  -20.7280  -26.8980   22.3720 C   0  0  0  0  0  2  0  0  0  0  0  0
  -19.6410  -26.6080   21.3330 C   0  0  0  0  0  2  0  0  0  0  0  0
  -18.2500  -26.7070   21.9670 C   0  0  0  0  0  2  0  0  0  0  0  0
  -19.1520  -28.7760   23.1800 C   0  0  0  0  0  0  0  0  0  0  0  0
  -18.9120  -30.0100   23.8260 C   0  0  0  0  0  3  0  0  0  0  0  0
  -17.5990  -30.4870   24.0000 C   0  0  0  0  0  3  0  0  0  0  0  0
  -16.5100  -29.7290   23.5380 C   0  0  0  0  0  3  0  0  0  0  0  0
  -16.7350  -28.4980   22.8960 C   0  0  0  0  0  3  0  0  0  0  0  0
  -25.8910  -32.4400   23.8950 C   0  0  0  0  0  3  0  0  0  0  0  0
  -25.5860  -33.8090   24.3270 N   0  0  0  0  0  0  0  0  0  0  0  0
  -25.9270  -34.9140   23.6490 C   0  0  0  0  0  0  0  0  0  0  0  0
  -26.6040  -34.8830   22.6170 O   0  0  0  0  0  0  0  0  0  0  0  0
  -24.9870  -33.9070   25.1330 H   0  0  0  0  0  0  0  0  0  0  0  0
  -24.2170  -36.7390   23.4030 C   0  0  0  0  0  1  0  0  0  0  0  0
  -25.4400  -36.2650   24.2040 C   0  0  0  0  0  3  0  0  0  0  0  0
  -27.5650  -37.0660   25.1370 C   0  0  0  0  0  1  0  0  0  0  0  0
  -26.4810  -37.3160   24.1910 N   0  0  0  0  0  0  0  0  0  0  0  0
  -26.0780  -38.2240   24.4040 H   0  0  0  0  0  0  0  0  0  0  0  0
  -26.4340  -31.5790   25.1000 C   0  0  1  0  0  0  0  0  0  0  0  0
  -25.3600  -31.2510   26.1630 C   0  0  0  0  0  1  0  0  0  0  0  0
  -27.0200  -30.2410   24.5930 C   0  0  0  0  0  1  0  0  0  0  0  0
  -27.5880  -32.3310   25.8050 C   0  0  0  0  0  1  0  0  0  0  0  0
  -27.9090  -21.1340   21.3920 C   0  0  0  0  0  2  0  0  0  0  0  0
  -28.4380  -20.0040   20.4940 C   0  0  0  0  0  2  0  0  0  0  0  0
  -29.0840  -18.8470   21.2700 C   0  0  0  0  0  2  0  0  0  0  0  0
  -29.5350  -17.7530   20.2980 C   0  0  0  0  0  2  0  0  0  0  0  0
  -30.2580  -16.5650   20.9490 C   0  0  0  0  0  2  0  0  0  0  0  0
  -31.4630  -14.6120   19.9860 C   0  0  0  0  0  0  0  0  0  0  0  0
  -31.0470  -12.4390   18.9430 C   0  0  0  0  0  2  0  0  0  0  0  0
  -30.0630  -12.6630   17.7750 C   0  0  0  0  0  2  0  0  0  0  0  0
  -28.6030  -12.5990   18.2710 C   0  0  0  0  0  2  0  0  0  0  0  0
  -28.3490  -13.4740   19.5290 C   0  0  0  0  0  3  0  0  0  0  0  0
  -29.4470  -13.2370   20.5920 C   0  0  0  0  0  2  0  0  0  0  0  0
  -30.7510  -13.4610   19.9520 N   0  0  0  0  0  0  0  0  0  0  0  0
  -32.6230  -14.7120   19.5850 O   0  0  0  0  0  0  0  0  0  0  0  0
  -30.7020  -15.7000   19.8690 N   0  0  0  0  0  0  0  0  0  0  0  0
  -31.0540  -16.2610   19.1080 H   0  0  0  0  0  0  0  0  0  0  0  0
  -26.0340  -14.1900   20.3990 C   0  0  0  0  0  0  0  0  0  0  0  0
  -24.9390  -13.4650   20.7870 C   0  0  0  0  0  0  0  0  0  0  0  0
  -25.3140  -12.0920   20.6690 C   0  0  0  0  0  0  0  0  0  0  0  0
  -27.0100  -13.2600   20.0710 N   0  0  0  0  0  0  0  0  0  0  0  0
  -26.5810  -11.9910   20.2880 N   0  0  0  0  0  0  0  0  0  0  0  0
  -24.5240  -10.8670   20.8400 C   0  0  0  0  0  0  0  0  0  0  0  0
  -24.8770   -9.8910   21.7970 C   0  0  0  0  0  3  0  0  0  0  0  0
  -24.0930   -8.7270   21.9540 C   0  0  0  0  0  3  0  0  0  0  0  0
  -22.9400   -8.5360   21.1550 C   0  0  0  0  0  0  0  0  0  0  0  0
  -22.6080   -9.5000   20.1880 C   0  0  0  0  0  3  0  0  0  0  0  0
  -23.3920  -10.6540   20.0290 C   0  0  0  0  0  3  0  0  0  0  0  0
  -22.1320   -7.4280   21.2220 O   0  0  0  0  0  0  0  0  0  0  0  0
  -21.9100   -6.7700   22.4040 C   0  0  0  0  0  0  0  0  0  0  0  0
  -21.3690   -7.4240   23.5330 C   0  0  0  0  0  3  0  0  0  0  0  0
  -21.0920   -6.6930   24.7040 C   0  0  0  0  0  3  0  0  0  0  0  0
  -21.3460   -5.3090   24.7490 C   0  0  0  0  0  0  0  0  0  0  0  0
  -21.8800   -4.6550   23.6260 C   0  0  0  0  0  3  0  0  0  0  0  0
  -22.1580   -5.3840   22.4560 C   0  0  0  0  0  0  0  0  0  0  0  0
  -22.6540   -4.7440   21.3690 F   0  0  0  0  0  0  0  0  0  0  0  0
  -21.0740   -4.6050   25.8730 F   0  0  0  0  0  0  0  0  0  0  0  0
  -23.5900  -14.0100   21.1560 C   0  0  0  0  0  0  0  0  0  0  0  0
  -22.8710  -13.3240   22.0370 N   0  0  0  0  0  0  0  0  0  0  0  0
  -23.1840  -15.0770   20.6980 O   0  0  0  0  0  0  0  0  0  0  0  0
  -23.2130  -12.4580   22.4290 H   0  0  0  0  0  0  0  0  0  0  0  0
  -21.9680  -13.6700   22.3280 H   0  0  0  0  0  0  0  0  0  0  0  0
  -26.2730  -15.5550   20.2810 N   0  0  0  0  0  0  0  0  0  0  0  0
  -25.5630  -16.2500   20.4830 H   0  0  0  0  0  0  0  0  0  0  0  0
  -27.1440  -15.9580   19.9600 H   0  0  0  0  0  0  0  0  0  0  0  0
  1  3  1  0
  1 47  1  0
  2  1  2  0
  4  5  1  0
  4  3  2  0
  6  8  1  0
  6  5  1  0
  7 18  2  0
  8 13  1  0
  9 17  1  0
  9 19  1  0
 10 16  1  0
 10 12  1  0
 11 17  1  0
 12 11  1  0
 13 12  2  0
 14 15  1  0
 14  8  2  0
 15 10  2  0
 16  9  1  0
 17  7  1  0
 19 21  2  0
 20 19  1  0
 22 20  1  0
 23 32  2  0
 23 28  1  0
 24 20  1  0
 24 28  1  0
 25 24  1  0
 26 27  1  0
 26 25  1  0
 27 23  1  0
 28 29  2  0
 29 30  1  0
 31 30  2  0
 32 31  1  0
 33  7  1  0
 33 34  1  0
 33 43  1  0
 34 37  1  0
 35 39  1  0
 35 34  1  0
 36 35  2  0
 39 38  1  0
 41 39  1  0
 41 42  1  0
 41 40  1  0
 43 46  1  1
 43 44  1  0
 45 43  1  0
 48 49  1  0
 48 47  1  0
 50 51  1  0
 50 49  1  0
 53 58  1  0
 54 55  1  0
 54 53  1  0
 56 55  1  0
 56 65  1  0
 56 57  1  0
 58 52  1  0
 58 57  1  0
 59 52  2  0
 60 52  1  0
 60 51  1  0
 61 60  1  0
 62 63  2  0
 63 82  1  0
 64 63  1  0
 64 67  1  0
 65 66  1  0
 65 62  1  0
 66 64  2  0
 67 68  1  0
 68 69  2  0
 70 73  1  0
 70 69  1  0
 71 70  2  0
 72 71  1  0
 72 67  2  0
 73 74  1  0
 74 79  2  0
 74 75  1  0
 75 76  2  0
 76 77  1  0
 77 81  1  0
 78 77  2  0
 79 78  1  0
 80 79  1  0
 82 83  1  0
 83 86  1  0
 83 85  1  0
 84 82  2  0
 87 62  1  0
 87 88  1  0
 89 87  1  0
M  ISO  4   5 101   6 101  52 100  60 100
M  END
>  <TORSDO>  (12) 
F 23

>  <SCORE>  (12) 
-10.986

>  <name>  (12) 
11

>  <ligand_id>  (12) 
11

>  <original_smiles>  (12) 
[H]C(C(=O)C([H])([H])C([H])([H])C([H])([H])C([H])([H])C([H])([H])N([H])C(=O)N1C([H])([H])C([H])([H])C([H])([H])C([H])(n2nc(-c3c([H])c([H])c(Oc4c([H])c([H])c(F)c([H])c4F)c([H])c3[H])c(C(=O)N([H])[H])c2N([H])[H])C1([H])[H])=C([H])C([H])([H])Oc1c([H])c([H])c2c(c1[H])C([H])([H])N(C(=O)C([H])(N([H])C(=O)C([H])(N([H])C([H])([H])[H])C([H])([H])[H])C(C([H])([H])[H])(C([H])([H])[H])C([H])([H])[H])C([H])(C(=O)N([H])C1([H])c3c([H])c([H])c([H])c([H])c3C([H])([H])C([H])([H])C1([H])[H])C2([H])[H]

>  <smiles>  (12) 
[H]C(C(=O)C([H])([H])C([H])([H])C([H])([H])C([H])([H])C([H])([H])N([H])C(=O)N1C([H])([H])C([H])([H])C([H])([H])C([H])(n2nc(-c3c([H])c([H])c(Oc4c([H])c([H])c(F)c([H])c4F)c([H])c3[H])c(C(=O)N([H])[H])c2N([H])[H])C1([H])[H])=C([H])C([H])([H])Oc1c([H])c([H])c2c(c1[H])C([H])([H])N(C(=O)C([H])(N([H])C(=O)C([H])(N([H])C([H])([H])[H])C([H])([H])[H])C(C([H])([H])[H])(C([H])([H])[H])C([H])([H])[H])C([H])(C(=O)N([H])C1([H])c3c([H])c([H])c([H])c([H])c3C([H])([H])C([H])([H])C1([H])[H])C2([H])[H]

$$$$
12:0:0
     RDKit          3D

100107  0  0  1  0  0  0  0  0999 V2000
  -25.1940  -24.7030   11.3900 C   0  0  0  0  0  2  0  0  0  0  0  0
  -24.8810  -25.4660   12.6890 C   0  0  0  0  0  2  0  0  0  0  0  0
  -24.1740  -24.6140   13.7590 C   0  0  0  0  0  2  0  0  0  0  0  0
  -23.8830  -25.3680   15.0700 C   0  0  0  0  0  2  0  0  0  0  0  0
  -25.1330  -25.8670   15.8210 C   0  0  0  0  0  2  0  0  0  0  0  0
  -26.0610  -24.7540   16.3360 C   0  0  0  0  0  2  0  0  0  0  0  0
  -27.4050  -25.3100   16.8270 C   0  0  0  0  0  2  0  0  0  0  0  0
  -28.1770  -24.3000   17.6860 C   0  0  0  0  0  2  0  0  0  0  0  0
  -29.1980  -24.9410   18.6400 C   0  0  0  0  0  2  0  0  0  0  0  0
  -28.6220  -25.3480   20.0120 C   0  0  0  0  0  2  0  0  0  0  0  0
  -28.5480  -26.7640   20.1710 O   0  0  0  0  0  0  0  0  0  0  0  0
  -24.5740  -31.8220   23.1470 C   0  0  0  0  0  0  0  0  0  0  0  0
  -27.3270  -27.4030   20.1570 C   0  0  0  0  0  0  0  0  0  0  0  0
  -23.4130  -30.4000   21.4890 C   0  0  0  0  0  3  0  0  0  0  0  0
  -24.9090  -28.8650   20.1120 C   0  0  0  0  0  0  0  0  0  0  0  0
  -25.9340  -30.7920   21.3310 C   0  0  0  0  0  2  0  0  0  0  0  0
  -26.0480  -29.4180   20.7090 C   0  0  0  0  0  0  0  0  0  0  0  0
  -27.2590  -28.6960   20.7210 C   0  0  0  0  0  3  0  0  0  0  0  0
  -26.1570  -26.8470   19.5970 C   0  0  0  0  0  3  0  0  0  0  0  0
  -24.9560  -27.5800   19.5520 C   0  0  0  0  0  3  0  0  0  0  0  0
  -23.6550  -29.7090   20.1210 C   0  0  0  0  0  2  0  0  0  0  0  0
  -24.6580  -31.0180   22.0500 N   0  0  0  0  0  0  0  0  0  0  0  0
  -23.4790  -32.0870   23.6630 O   0  0  0  0  0  0  0  0  0  0  0  0
  -22.7510  -29.3780   22.4410 C   0  0  0  0  0  0  0  0  0  0  0  0
  -21.4290  -29.1950   22.2920 N   0  0  0  0  0  0  0  0  0  0  0  0
  -23.4230  -28.7500   23.2640 O   0  0  0  0  0  0  0  0  0  0  0  0
  -20.9470  -29.7490   21.5990 H   0  0  0  0  0  0  0  0  0  0  0  0
  -18.0500  -28.0070   22.7460 C   0  0  0  0  0  0  0  0  0  0  0  0
  -20.6030  -28.2590   23.0520 C   0  0  0  0  0  3  0  0  0  0  0  0
  -20.7100  -26.8280   22.4760 C   0  0  0  0  0  2  0  0  0  0  0  0
  -19.6210  -26.5090   21.4470 C   0  0  0  0  0  2  0  0  0  0  0  0
  -18.2310  -26.6570   22.0730 C   0  0  0  0  0  2  0  0  0  0  0  0
  -19.1620  -28.7650   23.1920 C   0  0  0  0  0  0  0  0  0  0  0  0
  -18.9410  -30.0300   23.7780 C   0  0  0  0  0  3  0  0  0  0  0  0
  -17.6340  -30.5360   23.9270 C   0  0  0  0  0  3  0  0  0  0  0  0
  -16.5340  -29.7740   23.4960 C   0  0  0  0  0  3  0  0  0  0  0  0
  -16.7420  -28.5110   22.9120 C   0  0  0  0  0  3  0  0  0  0  0  0
  -25.8420  -32.4660   23.7920 C   0  0  0  0  0  3  0  0  0  0  0  0
  -25.5090  -33.8550   24.1350 N   0  0  0  0  0  0  0  0  0  0  0  0
  -25.8340  -34.9190   23.3890 C   0  0  0  0  0  0  0  0  0  0  0  0
  -26.5230  -34.8350   22.3670 O   0  0  0  0  0  0  0  0  0  0  0  0
  -24.9060  -33.9920   24.9330 H   0  0  0  0  0  0  0  0  0  0  0  0
  -24.0800  -36.6800   23.0200 C   0  0  0  0  0  1  0  0  0  0  0  0
  -25.3160  -36.2940   23.8490 C   0  0  0  0  0  3  0  0  0  0  0  0
  -27.4280  -37.2020   24.7130 C   0  0  0  0  0  1  0  0  0  0  0  0
  -26.3330  -37.3650   23.7600 N   0  0  0  0  0  0  0  0  0  0  0  0
  -25.9100  -38.2770   23.9130 H   0  0  0  0  0  0  0  0  0  0  0  0
  -26.3570  -31.6860   25.0630 C   0  0  1  0  0  0  0  0  0  0  0  0
  -25.2540  -31.4180   26.1120 C   0  0  0  0  0  1  0  0  0  0  0  0
  -26.9640  -30.3230   24.6570 C   0  0  0  0  0  1  0  0  0  0  0  0
  -27.4890  -32.4860   25.7490 C   0  0  0  0  0  1  0  0  0  0  0  0
  -26.2630  -23.5960   11.5090 C   0  0  0  0  0  2  0  0  0  0  0  0
  -27.6560  -24.1080   11.9270 C   0  0  0  0  0  2  0  0  0  0  0  0
  -28.8130  -23.1610   11.5490 C   0  0  0  0  0  2  0  0  0  0  0  0
  -28.8580  -21.8190   12.3080 C   0  0  0  0  0  2  0  0  0  0  0  0
  -29.4360  -21.9050   13.7340 C   0  0  0  0  0  2  0  0  0  0  0  0
  -29.4950  -20.5190   14.4040 C   0  0  0  0  0  2  0  0  0  0  0  0
  -30.0980  -20.5170   15.8210 C   0  0  0  0  0  2  0  0  0  0  0  0
  -30.1130  -19.0970   16.4180 C   0  0  0  0  0  2  0  0  0  0  0  0
  -30.7320  -19.0040   17.8260 C   0  0  0  0  0  2  0  0  0  0  0  0
  -30.6600  -17.5710   18.3900 C   0  0  0  0  0  2  0  0  0  0  0  0
  -31.3430  -17.3950   19.7630 C   0  0  0  0  0  2  0  0  0  0  0  0
  -31.8080  -14.9580   19.9930 C   0  0  0  0  0  0  0  0  0  0  0  0
  -31.3910  -12.7520   19.0080 C   0  0  0  0  0  2  0  0  0  0  0  0
  -30.4890  -12.9730   17.7750 C   0  0  0  0  0  2  0  0  0  0  0  0
  -28.9980  -12.9890   18.1730 C   0  0  0  0  0  2  0  0  0  0  0  0
  -28.7080  -13.9140   19.3860 C   0  0  0  0  0  3  0  0  0  0  0  0
  -29.7220  -13.6560   20.5260 C   0  0  0  0  0  2  0  0  0  0  0  0
  -31.0800  -13.8140   19.9750 N   0  0  0  0  0  0  0  0  0  0  0  0
  -32.9570  -15.0470   19.5480 O   0  0  0  0  0  0  0  0  0  0  0  0
  -31.0930  -16.0520   20.2890 N   0  0  0  0  0  0  0  0  0  0  0  0
  -30.1790  -15.8850   20.6830 H   0  0  0  0  0  0  0  0  0  0  0  0
  -26.3730  -14.7610   20.0660 C   0  0  0  0  0  0  0  0  0  0  0  0
  -25.2310  -14.0980   20.4310 C   0  0  0  0  0  0  0  0  0  0  0  0
  -25.5580  -12.7080   20.4100 C   0  0  0  0  0  0  0  0  0  0  0  0
  -27.3290  -13.7790   19.8490 N   0  0  0  0  0  0  0  0  0  0  0  0
  -26.8410  -12.5400   20.1110 N   0  0  0  0  0  0  0  0  0  0  0  0
  -24.7130  -11.5220   20.5980 C   0  0  0  0  0  0  0  0  0  0  0  0
  -25.0580  -10.5080   21.5210 C   0  0  0  0  0  3  0  0  0  0  0  0
  -24.2170   -9.3880   21.6980 C   0  0  0  0  0  3  0  0  0  0  0  0
  -23.0190   -9.2730   20.9550 C   0  0  0  0  0  0  0  0  0  0  0  0
  -22.6920  -10.2750   20.0220 C   0  0  0  0  0  3  0  0  0  0  0  0
  -23.5310  -11.3850   19.8430 C   0  0  0  0  0  3  0  0  0  0  0  0
  -22.1580   -8.2060   21.0410 O   0  0  0  0  0  0  0  0  0  0  0  0
  -22.0470   -7.4610   22.1870 C   0  0  0  0  0  0  0  0  0  0  0  0
  -21.7240   -8.0480   23.4310 C   0  0  0  0  0  3  0  0  0  0  0  0
  -21.5500   -7.2340   24.5680 C   0  0  0  0  0  3  0  0  0  0  0  0
  -21.6930   -5.8380   24.4650 C   0  0  0  0  0  0  0  0  0  0  0  0
  -22.0100   -5.2520   23.2260 C   0  0  0  0  0  3  0  0  0  0  0  0
  -22.1830   -6.0610   22.0900 C   0  0  0  0  0  0  0  0  0  0  0  0
  -22.4680   -5.4900   20.8960 F   0  0  0  0  0  0  0  0  0  0  0  0
  -21.5180   -5.0560   25.5560 F   0  0  0  0  0  0  0  0  0  0  0  0
  -23.8840  -14.7100   20.6890 C   0  0  0  0  0  0  0  0  0  0  0  0
  -23.0880  -14.1010   21.5590 N   0  0  0  0  0  0  0  0  0  0  0  0
  -23.5470  -15.7650   20.1500 O   0  0  0  0  0  0  0  0  0  0  0  0
  -23.3740  -13.2520   22.0220 H   0  0  0  0  0  0  0  0  0  0  0  0
  -22.1810  -14.4930   21.7700 H   0  0  0  0  0  0  0  0  0  0  0  0
  -26.6720  -16.1070   19.8870 N   0  0  0  0  0  0  0  0  0  0  0  0
  -25.9710  -16.8320   19.9830 H   0  0  0  0  0  0  0  0  0  0  0  0
  -27.5640  -16.4600   19.5660 H   0  0  0  0  0  0  0  0  0  0  0  0
  1 52  1  0
  1  2  1  0
  2  3  1  0
  3  4  1  0
  4  5  1  0
  5  6  1  0
  6  7  1  0
  7  8  1  0
  8  9  1  0
  9 10  1  0
 10 11  1  0
 12 23  2  0
 13 11  1  0
 13 18  1  0
 14 22  1  0
 14 24  1  0
 15 21  1  0
 15 17  1  0
 16 22  1  0
 17 18  2  0
 17 16  1  0
 19 13  2  0
 20 19  1  0
 20 15  2  0
 21 14  1  0
 22 12  1  0
 24 26  2  0
 25 24  1  0
 27 25  1  0
 28 37  2  0
 28 33  1  0
 29 25  1  0
 29 33  1  0
 30 29  1  0
 31 32  1  0
 31 30  1  0
 32 28  1  0
 33 34  2  0
 34 35  1  0
 36 35  2  0
 37 36  1  0
 38 12  1  0
 38 39  1  0
 38 48  1  0
 39 42  1  0
 40 44  1  0
 40 39  1  0
 41 40  2  0
 44 43  1  0
 46 44  1  0
 46 47  1  0
 46 45  1  0
 48 51  1  1
 48 49  1  0
 50 48  1  0
 52 53  1  0
 54 53  1  0
 54 55  1  0
 55 56  1  0
 56 57  1  0
 57 58  1  0
 58 59  1  0
 59 60  1  0
 60 61  1  0
 61 62  1  0
 62 71  1  0
 63 71  1  0
 64 69  1  0
 65 66  1  0
 65 64  1  0
 67 66  1  0
 67 76  1  0
 67 68  1  0
 69 63  1  0
 69 68  1  0
 70 63  2  0
 71 72  1  0
 73 74  2  0
 74 93  1  0
 75 74  1  0
 75 78  1  0
 76 73  1  0
 76 77  1  0
 77 75  2  0
 78 79  1  0
 79 80  2  0
 81 84  1  0
 81 80  1  0
 82 81  2  0
 83 82  1  0
 83 78  2  0
 84 85  1  0
 85 86  1  0
 86 87  2  0
 88 87  1  0
 88 92  1  0
 89 88  2  0
 90 85  2  0
 90 89  1  0
 91 90  1  0
 93 94  1  0
 94 97  1  0
 94 96  1  0
 95 93  2  0
 98 99  1  0
 98 73  1  0
100 98  1  0
M  ISO  4  10 101  11 101  63 100  71 100
M  END
>  <TORSDO>  (13) 
F 36

>  <SCORE>  (13) 
-7.315

>  <name>  (13) 
12

>  <ligand_id>  (13) 
12

>  <original_smiles>  (13) 
[H]c1c([H])c([H])c2c(c1[H])C([H])([H])C([H])([H])C([H])([H])C2([H])N([H])C(=O)C1([H])N(C(=O)C([H])(N([H])C(=O)C([H])(N([H])C([H])([H])[H])C([H])([H])[H])C(C([H])([H])[H])(C([H])([H])[H])C([H])([H])[H])C([H])([H])c2c([H])c(OC([H])([H])C([H])([H])C([H])([H])C([H])([H])C([H])([H])C([H])([H])C([H])([H])C([H])([H])C([H])([H])C([H])([H])C([H])([H])C([H])([H])C([H])([H])C([H])([H])C([H])([H])C([H])([H])C([H])([H])C([H])([H])C([H])([H])C([H])([H])C([H])([H])N([H])C(=O)N3C([H])([H])C([H])([H])C([H])([H])C([H])(n4nc(-c5c([H])c([H])c(Oc6c([H])c([H])c(F)c([H])c6F)c([H])c5[H])c(C(=O)N([H])[H])c4N([H])[H])C3([H])[H])c([H])c([H])c2C1([H])[H]

>  <smiles>  (13) 
[H]c1c([H])c([H])c2c(c1[H])C([H])([H])C([H])([H])C([H])([H])C2([H])N([H])C(=O)C1([H])N(C(=O)C([H])(N([H])C(=O)C([H])(N([H])C([H])([H])[H])C([H])([H])[H])C(C([H])([H])[H])(C([H])([H])[H])C([H])([H])[H])C([H])([H])c2c([H])c(OC([H])([H])C([H])([H])C([H])([H])C([H])([H])C([H])([H])C([H])([H])C([H])([H])C([H])([H])C([H])([H])C([H])([H])C([H])([H])C([H])([H])C([H])([H])C([H])([H])C([H])([H])C([H])([H])C([H])([H])C([H])([H])C([H])([H])C([H])([H])C([H])([H])N([H])C(=O)N3C([H])([H])C([H])([H])C([H])([H])C([H])(n4nc(-c5c([H])c([H])c(Oc6c([H])c([H])c(F)c([H])c6F)c([H])c5[H])c(C(=O)N([H])[H])c4N([H])[H])C3([H])[H])c([H])c([H])c2C1([H])[H]

$$$$
13:0:0
     RDKit          3D

 94101  0  0  1  0  0  0  0  0999 V2000
  -28.9480  -21.6420   20.4190 C   0  0  0  0  0  1  0  0  0  0  0  0
  -27.8270  -22.4530   19.7260 C   0  0  0  0  0  3  0  0  0  0  0  0
  -26.5050  -21.7690   19.7260 N   0  0  0  0  0  4  0  0  0  0  0  0
  -26.1040  -21.7750   20.6500 H   0  0  0  0  0  0  0  0  0  0  0  0
  -25.8900  -22.3150   19.1420 H   0  0  0  0  0  0  0  0  0  0  0  0
  -26.4680  -20.3880   19.1960 C   0  0  0  0  0  2  0  0  0  0  0  0
  -27.4310  -19.4560   19.9640 C   0  0  0  0  0  2  0  0  0  0  0  0
  -28.3790  -18.6460   19.0650 C   0  0  0  0  0  2  0  0  0  0  0  0
  -29.7970  -18.5730   19.6520 C   0  0  0  0  0  2  0  0  0  0  0  0
  -30.4370  -17.2140   19.3940 C   0  0  0  0  0  2  0  0  0  0  0  0
  -31.8290  -17.0570   20.0270 C   0  0  0  0  0  2  0  0  0  0  0  0
  -32.2720  -14.6280   19.7560 C   0  0  0  0  0  0  0  0  0  0  0  0
  -31.9140  -12.1920   19.5970 C   0  0  0  0  0  2  0  0  0  0  0  0
  -30.9910  -11.8270   18.4190 C   0  0  0  0  0  2  0  0  0  0  0  0
  -29.5080  -11.9180   18.8240 C   0  0  0  0  0  2  0  0  0  0  0  0
  -29.1700  -13.2630   19.5130 C   0  0  0  0  0  3  0  0  0  0  0  0
  -30.1840  -13.5570   20.6410 C   0  0  0  0  0  2  0  0  0  0  0  0
  -31.5530  -13.5270   20.0810 N   0  0  0  0  0  0  0  0  0  0  0  0
  -33.1950  -14.6490   18.9330 O   0  0  0  0  0  0  0  0  0  0  0  0
  -31.9360  -15.6870   20.4920 N   0  0  0  0  0  0  0  0  0  0  0  0
  -31.3400  -15.4620   21.2740 H   0  0  0  0  0  0  0  0  0  0  0  0
  -26.9750  -14.3510   20.3270 C   0  0  0  0  0  0  0  0  0  0  0  0
  -25.7660  -13.8150   20.6750 C   0  0  0  0  0  0  0  0  0  0  0  0
  -25.9050  -12.4000   20.5350 C   0  0  0  0  0  0  0  0  0  0  0  0
  -27.7920  -13.2750   20.0070 N   0  0  0  0  0  0  0  0  0  0  0  0
  -27.1460  -12.0930   20.1800 N   0  0  0  0  0  0  0  0  0  0  0  0
  -24.9140  -11.3220   20.6600 C   0  0  0  0  0  0  0  0  0  0  0  0
  -25.1100  -10.2410   21.5460 C   0  0  0  0  0  3  0  0  0  0  0  0
  -24.1380   -9.2260   21.6630 C   0  0  0  0  0  3  0  0  0  0  0  0
  -22.9510   -9.2890   20.8940 C   0  0  0  0  0  0  0  0  0  0  0  0
  -22.7710  -10.3570   19.9990 C   0  0  0  0  0  3  0  0  0  0  0  0
  -23.7420  -11.3630   19.8790 C   0  0  0  0  0  3  0  0  0  0  0  0
  -21.9640   -8.3350   20.9220 O   0  0  0  0  0  0  0  0  0  0  0  0
  -21.7030   -7.6000   22.0510 C   0  0  0  0  0  0  0  0  0  0  0  0
  -21.3370   -8.2130   23.2700 C   0  0  0  0  0  3  0  0  0  0  0  0
  -21.0100   -7.4180   24.3870 C   0  0  0  0  0  3  0  0  0  0  0  0
  -21.0400   -6.0140   24.2850 C   0  0  0  0  0  0  0  0  0  0  0  0
  -21.3980   -5.4030   23.0700 C   0  0  0  0  0  3  0  0  0  0  0  0
  -21.7270   -6.1940   21.9560 C   0  0  0  0  0  0  0  0  0  0  0  0
  -22.0510   -5.6010   20.7820 F   0  0  0  0  0  0  0  0  0  0  0  0
  -20.7180   -5.2500   25.3540 F   0  0  0  0  0  0  0  0  0  0  0  0
  -24.5160  -14.5720   21.0280 C   0  0  0  0  0  0  0  0  0  0  0  0
  -23.6760  -14.0020   21.8830 N   0  0  0  0  0  0  0  0  0  0  0  0
  -24.3040  -15.6980   20.5810 O   0  0  0  0  0  0  0  0  0  0  0  0
  -23.8590  -13.0850   22.2600 H   0  0  0  0  0  0  0  0  0  0  0  0
  -22.8350  -14.4890   22.1610 H   0  0  0  0  0  0  0  0  0  0  0  0
  -27.4410  -15.6590   20.2370 N   0  0  0  0  0  0  0  0  0  0  0  0
  -26.8350  -16.4550   20.4030 H   0  0  0  0  0  0  0  0  0  0  0  0
  -28.3620  -15.9210   19.9100 H   0  0  0  0  0  0  0  0  0  0  0  0
  -27.6870  -23.8540   20.3610 C   0  0  0  0  0  2  0  0  0  0  0  0
  -28.6650  -24.9030   19.8310 C   0  0  0  0  0  0  0  0  0  0  0  0
  -29.2570  -24.7680   18.7550 O   0  0  0  0  0  0  0  0  0  0  0  0
  -28.8570  -26.1490   20.6970 C   0  0  0  0  0  2  0  0  0  0  0  0
  -28.7850  -27.3270   19.8980 O   0  0  0  0  0  0  0  0  0  0  0  0
  -24.6460  -31.9610   23.3480 C   0  0  0  0  0  0  0  0  0  0  0  0
  -27.5710  -27.9590   19.9730 C   0  0  0  0  0  0  0  0  0  0  0  0
  -23.5410  -30.6400   21.5700 C   0  0  0  0  0  3  0  0  0  0  0  0
  -25.0960  -29.2950   20.0640 C   0  0  0  0  0  0  0  0  0  0  0  0
  -26.0430  -31.1440   21.4570 C   0  0  0  0  0  2  0  0  0  0  0  0
  -26.2090  -29.8340   20.7200 C   0  0  0  0  0  0  0  0  0  0  0  0
  -27.4510  -29.1680   20.6830 C   0  0  0  0  0  3  0  0  0  0  0  0
  -26.4480  -27.4210   19.3110 C   0  0  0  0  0  3  0  0  0  0  0  0
  -25.2060  -28.0820   19.3610 C   0  0  0  0  0  3  0  0  0  0  0  0
  -23.8100  -30.0820   20.1450 C   0  0  0  0  0  2  0  0  0  0  0  0
  -24.7600  -31.2580   22.1860 N   0  0  0  0  0  0  0  0  0  0  0  0
  -23.5450  -32.1340   23.8860 O   0  0  0  0  0  0  0  0  0  0  0  0
  -22.9260  -29.5130   22.4300 C   0  0  0  0  0  0  0  0  0  0  0  0
  -21.6130  -29.2880   22.2670 N   0  0  0  0  0  0  0  0  0  0  0  0
  -23.6270  -28.8490   23.1980 O   0  0  0  0  0  0  0  0  0  0  0  0
  -21.1070  -29.8800   21.6250 H   0  0  0  0  0  0  0  0  0  0  0  0
  -18.2750  -27.9650   22.6590 C   0  0  0  0  0  0  0  0  0  0  0  0
  -20.8280  -28.2540   22.9410 C   0  0  0  0  0  3  0  0  0  0  0  0
  -20.9590  -26.8940   22.2170 C   0  0  0  0  0  2  0  0  0  0  0  0
  -19.8560  -26.6530   21.1820 C   0  0  0  0  0  2  0  0  0  0  0  0
  -18.4770  -26.6970   21.8470 C   0  0  0  0  0  2  0  0  0  0  0  0
  -19.3790  -28.7050   23.1590 C   0  0  0  0  0  0  0  0  0  0  0  0
  -19.1350  -29.8960   23.8770 C   0  0  0  0  0  3  0  0  0  0  0  0
  -17.8210  -30.3470   24.1000 C   0  0  0  0  0  3  0  0  0  0  0  0
  -16.7320  -29.6030   23.6170 C   0  0  0  0  0  3  0  0  0  0  0  0
  -16.9590  -28.4140   22.9010 C   0  0  0  0  0  3  0  0  0  0  0  0
  -25.8900  -32.5980   24.0440 C   0  0  0  0  0  3  0  0  0  0  0  0
  -26.3260  -31.8380   25.3570 C   0  0  1  0  0  0  0  0  0  0  0  0
  -25.1610  -31.5790   26.3410 C   0  0  0  0  0  1  0  0  0  0  0  0
  -26.9640  -30.4720   25.0100 C   0  0  0  0  0  1  0  0  0  0  0  0
  -27.4070  -32.6530   26.1010 C   0  0  0  0  0  1  0  0  0  0  0  0
  -25.5630  -33.9990   24.3380 N   0  0  0  0  0  0  0  0  0  0  0  0
  -25.9410  -35.0410   23.5850 C   0  0  0  0  0  0  0  0  0  0  0  0
  -26.6740  -34.9240   22.5990 O   0  0  0  0  0  0  0  0  0  0  0  0
  -24.9220  -34.1640   25.0990 H   0  0  0  0  0  0  0  0  0  0  0  0
  -24.2330  -36.8210   23.1000 C   0  0  0  0  0  1  0  0  0  0  0  0
  -25.4250  -36.4340   23.9910 C   0  0  0  0  0  3  0  0  0  0  0  0
  -27.5080  -37.3340   24.9290 C   0  0  0  0  0  1  0  0  0  0  0  0
  -26.4620  -37.4880   23.9230 N   0  0  0  0  0  0  0  0  0  0  0  0
  -26.0470  -38.4090   24.0350 H   0  0  0  0  0  0  0  0  0  0  0  0
  2  3  1  0
  2 50  1  0
  2  1  1  0
  3  4  1  0
  5  3  1  0
  6  3  1  0
  6  7  1  0
  8  9  1  0
  8  7  1  0
 10  9  1  0
 10 11  1  0
 11 20  1  0
 12 18  1  0
 12 20  1  0
 13 18  1  0
 14 15  1  0
 14 13  1  0
 16 15  1  0
 16 25  1  0
 16 17  1  0
 18 17  1  0
 19 12  2  0
 20 21  1  0
 22 23  2  0
 23 42  1  0
 24 27  1  0
 24 23  1  0
 25 26  1  0
 25 22  1  0
 26 24  2  0
 27 28  1  0
 28 29  2  0
 30 33  1  0
 30 29  1  0
 31 30  2  0
 32 31  1  0
 32 27  2  0
 33 34  1  0
 34 35  1  0
 35 36  2  0
 37 36  1  0
 37 41  1  0
 38 37  2  0
 39 34  2  0
 39 38  1  0
 40 39  1  0
 42 43  1  0
 43 46  1  0
 43 45  1  0
 44 42  2  0
 47 22  1  0
 47 48  1  0
 49 47  1  0
 51 50  1  0
 51 53  1  0
 52 51  2  0
 54 56  1  0
 54 53  1  0
 55 66  2  0
 56 61  1  0
 57 65  1  0
 57 67  1  0
 58 64  1  0
 58 60  1  0
 59 65  1  0
 60 59  1  0
 61 60  2  0
 62 63  1  0
 62 56  2  0
 63 58  2  0
 64 57  1  0
 65 55  1  0
 67 69  2  0
 68 67  1  0
 70 68  1  0
 71 80  2  0
 71 76  1  0
 72 68  1  0
 72 76  1  0
 73 72  1  0
 74 75  1  0
 74 73  1  0
 75 71  1  0
 76 77  2  0
 77 78  1  0
 79 78  2  0
 80 79  1  0
 81 55  1  0
 81 86  1  0
 81 82  1  0
 82 85  1  1
 82 83  1  0
 84 82  1  0
 86 89  1  0
 87 91  1  0
 87 86  1  0
 88 87  2  0
 91 90  1  0
 93 91  1  0
 93 94  1  0
 93 92  1  0
M  ISO  4  12 100  20 100  53 101  54 101
M  END
>  <TORSDO>  (14) 
F 26

>  <SCORE>  (14) 
-9.503

>  <name>  (14) 
13

>  <ligand_id>  (14) 
13

>  <original_smiles>  (14) 
[H]c1c([H])c([H])c2c(c1[H])C([H])([H])C([H])([H])C([H])([H])C2([H])N([H])C(=O)C1([H])N(C(=O)C([H])(N([H])C(=O)C([H])(N([H])C([H])([H])[H])C([H])([H])[H])C(C([H])([H])[H])(C([H])([H])[H])C([H])([H])[H])C([H])([H])c2c([H])c(OC([H])([H])C(=O)C([H])([H])C([H])(C([H])([H])[H])[N+]([H])([H])C([H])([H])C([H])([H])C([H])([H])C([H])([H])C([H])([H])C([H])([H])N([H])C(=O)N3C([H])([H])C([H])([H])C([H])([H])C([H])(n4nc(-c5c([H])c([H])c(Oc6c([H])c([H])c(F)c([H])c6F)c([H])c5[H])c(C(=O)N([H])[H])c4N([H])[H])C3([H])[H])c([H])c([H])c2C1([H])[H]

>  <smiles>  (14) 
[H]c1c([H])c([H])c2c(c1[H])C([H])([H])C([H])([H])C([H])([H])C2([H])N([H])C(=O)C1([H])N(C(=O)C([H])(N([H])C(=O)C([H])(N([H])C([H])([H])[H])C([H])([H])[H])C(C([H])([H])[H])(C([H])([H])[H])C([H])([H])[H])C([H])([H])c2c([H])c(OC([H])([H])C(=O)C([H])([H])C([H])(C([H])([H])[H])[N+]([H])([H])C([H])([H])C([H])([H])C([H])([H])C([H])([H])C([H])([H])C([H])([H])N([H])C(=O)N3C([H])([H])C([H])([H])C([H])([H])C([H])(n4nc(-c5c([H])c([H])c(Oc6c([H])c([H])c(F)c([H])c6F)c([H])c5[H])c(C(=O)N([H])[H])c4N([H])[H])C3([H])[H])c([H])c([H])c2C1([H])[H]

$$$$
14:0:0
     RDKit          3D

 92 99  0  0  1  0  0  0  0  0999 V2000
  -30.6960  -22.8780   17.6010 C   0  0  0  0  0  2  0  0  0  0  0  0
  -32.5310  -24.0170   16.2440 C   0  0  0  0  0  1  0  0  0  0  0  0
  -31.6910  -24.0610   17.5300 C   0  0  0  0  0  3  0  0  0  0  0  0
  -31.0440  -25.4530   17.7110 C   0  0  0  0  0  2  0  0  0  0  0  0
  -30.2530  -25.6380   19.0200 C   0  0  0  0  0  2  0  0  0  0  0  0
  -29.1240  -26.6630   18.8780 C   0  0  0  0  0  2  0  0  0  0  0  0
  -28.5030  -26.8000   20.1450 O   0  0  0  0  0  0  0  0  0  0  0  0
  -24.6500  -31.8840   23.2290 C   0  0  0  0  0  0  0  0  0  0  0  0
  -27.3270  -27.4990   20.1370 C   0  0  0  0  0  0  0  0  0  0  0  0
  -23.4470  -30.4750   21.5860 C   0  0  0  0  0  3  0  0  0  0  0  0
  -24.9120  -28.9470   20.1600 C   0  0  0  0  0  0  0  0  0  0  0  0
  -25.9640  -30.8570   21.3830 C   0  0  0  0  0  2  0  0  0  0  0  0
  -26.0600  -29.4880   20.7510 C   0  0  0  0  0  0  0  0  0  0  0  0
  -27.2680  -28.7640   20.7530 C   0  0  0  0  0  3  0  0  0  0  0  0
  -26.1660  -26.9510   19.5540 C   0  0  0  0  0  3  0  0  0  0  0  0
  -24.9560  -27.6730   19.5640 C   0  0  0  0  0  3  0  0  0  0  0  0
  -23.6590  -29.7930   20.2060 C   0  0  0  0  0  2  0  0  0  0  0  0
  -24.7040  -31.0870   22.1250 N   0  0  0  0  0  0  0  0  0  0  0  0
  -23.5690  -32.1490   23.7720 O   0  0  0  0  0  0  0  0  0  0  0  0
  -22.8040  -29.4510   22.5480 C   0  0  0  0  0  0  0  0  0  0  0  0
  -21.4810  -29.2630   22.4200 N   0  0  0  0  0  0  0  0  0  0  0  0
  -23.4920  -28.8280   23.3610 O   0  0  0  0  0  0  0  0  0  0  0  0
  -20.9880  -29.8180   21.7340 H   0  0  0  0  0  0  0  0  0  0  0  0
  -18.1090  -28.0730   22.9290 C   0  0  0  0  0  0  0  0  0  0  0  0
  -20.6690  -28.3230   23.1910 C   0  0  0  0  0  3  0  0  0  0  0  0
  -20.7660  -26.8950   22.6080 C   0  0  0  0  0  2  0  0  0  0  0  0
  -19.6590  -26.5800   21.5960 C   0  0  0  0  0  2  0  0  0  0  0  0
  -18.2810  -26.7250   22.2460 C   0  0  0  0  0  2  0  0  0  0  0  0
  -19.2320  -28.8290   23.3580 C   0  0  0  0  0  0  0  0  0  0  0  0
  -19.0190  -30.0920   23.9540 C   0  0  0  0  0  3  0  0  0  0  0  0
  -17.7160  -30.5950   24.1270 C   0  0  0  0  0  3  0  0  0  0  0  0
  -16.6080  -29.8350   23.7150 C   0  0  0  0  0  3  0  0  0  0  0  0
  -16.8060  -28.5750   23.1220 C   0  0  0  0  0  3  0  0  0  0  0  0
  -25.9360  -32.5170   23.8480 C   0  0  0  0  0  3  0  0  0  0  0  0
  -26.4620  -31.7460   25.1200 C   0  0  1  0  0  0  0  0  0  0  0  0
  -25.3730  -31.4990   26.1910 C   0  0  0  0  0  1  0  0  0  0  0  0
  -27.0520  -30.3740   24.7180 C   0  0  0  0  0  1  0  0  0  0  0  0
  -27.6100  -32.5450   25.7810 C   0  0  0  0  0  1  0  0  0  0  0  0
  -25.6250  -33.9160   24.1750 N   0  0  0  0  0  0  0  0  0  0  0  0
  -25.9580  -34.9670   23.4140 C   0  0  0  0  0  0  0  0  0  0  0  0
  -26.6300  -34.8620   22.3830 O   0  0  0  0  0  0  0  0  0  0  0  0
  -25.0290  -34.0700   24.9760 H   0  0  0  0  0  0  0  0  0  0  0  0
  -24.2330  -36.7570   23.0420 C   0  0  0  0  0  1  0  0  0  0  0  0
  -25.4660  -36.3540   23.8670 C   0  0  0  0  0  3  0  0  0  0  0  0
  -27.5920  -37.2380   24.7190 C   0  0  0  0  0  1  0  0  0  0  0  0
  -26.5000  -37.4070   23.7650 N   0  0  0  0  0  0  0  0  0  0  0  0
  -26.0920  -38.3270   23.9080 H   0  0  0  0  0  0  0  0  0  0  0  0
  -29.4560  -22.9450   16.6760 C   0  0  0  0  0  2  0  0  0  0  0  0
  -28.2980  -22.0770   17.2080 C   0  0  0  0  0  2  0  0  0  0  0  0
  -28.6100  -20.5640   17.2090 C   0  0  0  0  0  2  0  0  0  0  0  0
  -28.2490  -19.8320   18.5210 C   0  0  0  0  0  2  0  0  0  0  0  0
  -29.2430  -18.6920   18.8440 C   0  0  0  0  0  2  0  0  0  0  0  0
  -28.8540  -17.8070   20.0520 C   0  0  0  0  0  2  0  0  0  0  0  0
  -30.0660  -17.0960   20.7120 C   0  0  0  0  0  2  0  0  0  0  0  0
  -30.6080  -14.6530   20.7680 C   0  0  0  0  0  0  0  0  0  0  0  0
  -30.4180  -12.4770   19.6500 C   0  0  0  0  0  2  0  0  0  0  0  0
  -29.5260  -12.6800   18.4070 C   0  0  0  0  0  2  0  0  0  0  0  0
  -28.0340  -12.5330   18.7670 C   0  0  0  0  0  2  0  0  0  0  0  0
  -27.6340  -13.3550   20.0230 C   0  0  0  0  0  3  0  0  0  0  0  0
  -28.6440  -13.1360   21.1750 C   0  0  0  0  0  2  0  0  0  0  0  0
  -29.9840  -13.4500   20.6590 N   0  0  0  0  0  0  0  0  0  0  0  0
  -31.7760  -14.8400   20.4220 O   0  0  0  0  0  0  0  0  0  0  0  0
  -29.7860  -15.6850   21.0290 N   0  0  0  0  0  0  0  0  0  0  0  0
  -28.8430  -15.4530   21.3080 H   0  0  0  0  0  0  0  0  0  0  0  0
  -25.1970  -13.9210   20.6160 C   0  0  0  0  0  0  0  0  0  0  0  0
  -24.1310  -13.1320   20.9510 C   0  0  0  0  0  0  0  0  0  0  0  0
  -24.6200  -11.7890   20.9530 C   0  0  0  0  0  0  0  0  0  0  0  0
  -26.2690  -13.0590   20.4460 N   0  0  0  0  0  0  0  0  0  0  0  0
  -25.9240  -11.7730   20.7060 N   0  0  0  0  0  0  0  0  0  0  0  0
  -23.9120  -10.5140   21.1270 C   0  0  0  0  0  0  0  0  0  0  0  0
  -24.3200   -9.5670   22.0910 C   0  0  0  0  0  3  0  0  0  0  0  0
  -23.6120   -8.3570   22.2480 C   0  0  0  0  0  3  0  0  0  0  0  0
  -22.4820   -8.0850   21.4430 C   0  0  0  0  0  0  0  0  0  0  0  0
  -22.0930   -9.0210   20.4680 C   0  0  0  0  0  3  0  0  0  0  0  0
  -22.8020  -10.2240   20.3070 C   0  0  0  0  0  3  0  0  0  0  0  0
  -21.7460   -6.9260   21.5110 O   0  0  0  0  0  0  0  0  0  0  0  0
  -21.6580   -6.1960   22.6680 C   0  0  0  0  0  0  0  0  0  0  0  0
  -21.1450   -6.7480   23.8630 C   0  0  0  0  0  3  0  0  0  0  0  0
  -21.0070   -5.9410   25.0100 C   0  0  0  0  0  3  0  0  0  0  0  0
  -21.3710   -4.5820   24.9630 C   0  0  0  0  0  0  0  0  0  0  0  0
  -21.8810   -4.0290   23.7740 C   0  0  0  0  0  3  0  0  0  0  0  0
  -22.0190   -4.8340   22.6290 C   0  0  0  0  0  0  0  0  0  0  0  0
  -22.4880   -4.2900   21.4790 F   0  0  0  0  0  0  0  0  0  0  0  0
  -21.2350   -3.8020   26.0620 F   0  0  0  0  0  0  0  0  0  0  0  0
  -22.7130  -13.5800   21.1530 C   0  0  0  0  0  0  0  0  0  0  0  0
  -21.9600  -12.8750   21.9890 N   0  0  0  0  0  0  0  0  0  0  0  0
  -22.2780  -14.5920   20.6010 O   0  0  0  0  0  0  0  0  0  0  0  0
  -22.3190  -12.0580   22.4610 H   0  0  0  0  0  0  0  0  0  0  0  0
  -21.0060  -13.1560   22.1620 H   0  0  0  0  0  0  0  0  0  0  0  0
  -25.3380  -15.2940   20.4250 N   0  0  0  0  0  0  0  0  0  0  0  0
  -24.5490  -15.9260   20.4900 H   0  0  0  0  0  0  0  0  0  0  0  0
  -26.1840  -15.7540   20.1170 H   0  0  0  0  0  0  0  0  0  0  0  0
  3  2  1  0
  3  1  1  0
  3  4  1  0
  4  5  1  0
  6  5  1  0
  6  7  1  0
  8 19  2  0
  9  7  1  0
  9 14  1  0
 10 18  1  0
 10 20  1  0
 11 17  1  0
 11 13  1  0
 12 18  1  0
 13 14  2  0
 13 12  1  0
 15 16  1  0
 15  9  2  0
 16 11  2  0
 17 10  1  0
 18  8  1  0
 20 22  2  0
 21 20  1  0
 23 21  1  0
 24 33  2  0
 24 29  1  0
 25 21  1  0
 25 29  1  0
 26 25  1  0
 27 28  1  0
 27 26  1  0
 28 24  1  0
 29 30  2  0
 30 31  1  0
 32 31  2  0
 33 32  1  0
 34  8  1  0
 34 39  1  0
 34 35  1  0
 35 38  1  1
 35 36  1  0
 37 35  1  0
 39 42  1  0
 40 44  1  0
 40 39  1  0
 41 40  2  0
 44 43  1  0
 46 44  1  0
 46 47  1  0
 46 45  1  0
 48 49  1  0
 48  1  1  0
 49 50  1  0
 50 51  1  0
 51 52  1  0
 52 53  1  0
 53 54  1  0
 54 63  1  0
 55 63  1  0
 56 61  1  0
 57 58  1  0
 57 56  1  0
 59 58  1  0
 59 68  1  0
 59 60  1  0
 61 55  1  0
 61 60  1  0
 62 55  2  0
 63 64  1  0
 65 66  2  0
 66 67  1  0
 66 85  1  0
 67 70  1  0
 68 65  1  0
 68 69  1  0
 69 67  2  0
 70 71  1  0
 71 72  2  0
 73 76  1  0
 73 72  1  0
 74 73  2  0
 75 74  1  0
 75 70  2  0
 76 77  1  0
 77 78  1  0
 78 79  2  0
 80 79  1  0
 80 84  1  0
 81 80  2  0
 82 77  2  0
 82 81  1  0
 83 82  1  0
 85 86  1  0
 86 89  1  0
 86 88  1  0
 87 85  2  0
 90 91  1  0
 90 65  1  0
 92 90  1  0
M  ISO  4   6 101   7 101  55 100  63 100
M  END
>  <TORSDO>  (15) 
F 27

>  <SCORE>  (15) 
-11.295

>  <name>  (15) 
14

>  <ligand_id>  (15) 
14

>  <original_smiles>  (15) 
[H]c1c([H])c([H])c2c(c1[H])C([H])([H])C([H])([H])C([H])([H])C2([H])N([H])C(=O)C1([H])N(C(=O)C([H])(N([H])C(=O)C([H])(N([H])C([H])([H])[H])C([H])([H])[H])C(C([H])([H])[H])(C([H])([H])[H])C([H])([H])[H])C([H])([H])c2c([H])c(OC([H])([H])C([H])([H])C([H])([H])C([H])(C([H])([H])[H])C([H])([H])C([H])([H])C([H])([H])C([H])([H])C([H])([H])C([H])([H])C([H])([H])C([H])([H])N([H])C(=O)N3C([H])([H])C([H])([H])C([H])([H])C([H])(n4nc(-c5c([H])c([H])c(Oc6c([H])c([H])c(F)c([H])c6F)c([H])c5[H])c(C(=O)N([H])[H])c4N([H])[H])C3([H])[H])c([H])c([H])c2C1([H])[H]

>  <smiles>  (15) 
[H]c1c([H])c([H])c2c(c1[H])C([H])([H])C([H])([H])C([H])([H])C2([H])N([H])C(=O)C1([H])N(C(=O)C([H])(N([H])C(=O)C([H])(N([H])C([H])([H])[H])C([H])([H])[H])C(C([H])([H])[H])(C([H])([H])[H])C([H])([H])[H])C([H])([H])c2c([H])c(OC([H])([H])C([H])([H])C([H])([H])C([H])(C([H])([H])[H])C([H])([H])C([H])([H])C([H])([H])C([H])([H])C([H])([H])C([H])([H])C([H])([H])C([H])([H])N([H])C(=O)N3C([H])([H])C([H])([H])C([H])([H])C([H])(n4nc(-c5c([H])c([H])c(Oc6c([H])c([H])c(F)c([H])c6F)c([H])c5[H])c(C(=O)N([H])[H])c4N([H])[H])C3([H])[H])c([H])c([H])c2C1([H])[H]

$$$$
15:0:0
     RDKit          3D

 95103  0  0  1  0  0  0  0  0999 V2000
  -30.8450  -20.3220   24.1840 C   0  0  0  0  0  3  0  0  0  0  0  0
  -30.7110  -21.5550   23.5280 C   0  0  0  0  0  3  0  0  0  0  0  0
  -30.7940  -19.1220   23.4500 C   0  0  0  0  0  3  0  0  0  0  0  0
  -30.4510  -20.3890   21.4020 C   0  0  0  0  0  3  0  0  0  0  0  0
  -30.5330  -21.6010   22.1310 C   0  0  0  0  0  0  0  0  0  0  0  0
  -30.5900  -19.1310   22.0480 C   0  0  0  0  0  0  0  0  0  0  0  0
  -30.4930  -22.9610   21.4380 C   0  0  0  0  0  2  0  0  0  0  0  0
  -29.3520  -23.1530   20.4210 C   0  0  0  0  0  2  0  0  0  0  0  0
  -29.2860  -24.5880   19.8550 C   0  0  0  0  0  2  0  0  0  0  0  0
  -28.5570  -25.5910   20.7630 C   0  0  0  0  0  2  0  0  0  0  0  0
  -28.5820  -26.8810   20.1520 O   0  0  0  0  0  0  0  0  0  0  0  0
  -24.6280  -31.9080   23.2240 C   0  0  0  0  0  0  0  0  0  0  0  0
  -27.3890  -27.5590   20.1540 C   0  0  0  0  0  0  0  0  0  0  0  0
  -23.4610  -30.4910   21.5640 C   0  0  0  0  0  3  0  0  0  0  0  0
  -24.9560  -28.9870   20.1500 C   0  0  0  0  0  0  0  0  0  0  0  0
  -25.9740  -30.9140   21.3800 C   0  0  0  0  0  2  0  0  0  0  0  0
  -26.0950  -29.5450   20.7440 C   0  0  0  0  0  0  0  0  0  0  0  0
  -27.3170  -28.8400   20.7370 C   0  0  0  0  0  3  0  0  0  0  0  0
  -26.2360  -27.0060   19.5520 C   0  0  0  0  0  3  0  0  0  0  0  0
  -25.0190  -27.7150   19.5540 C   0  0  0  0  0  3  0  0  0  0  0  0
  -23.6940  -29.8170   20.1850 C   0  0  0  0  0  2  0  0  0  0  0  0
  -24.7050  -31.1190   22.1150 N   0  0  0  0  0  0  0  0  0  0  0  0
  -23.5370  -32.1530   23.7610 O   0  0  0  0  0  0  0  0  0  0  0  0
  -22.8240  -29.4540   22.5170 C   0  0  0  0  0  0  0  0  0  0  0  0
  -21.5030  -29.2530   22.3810 N   0  0  0  0  0  0  0  0  0  0  0  0
  -23.5140  -28.8340   23.3290 O   0  0  0  0  0  0  0  0  0  0  0  0
  -21.0090  -29.8060   21.6970 H   0  0  0  0  0  0  0  0  0  0  0  0
  -18.1430  -28.0180   22.8590 C   0  0  0  0  0  0  0  0  0  0  0  0
  -20.6970  -28.2970   23.1400 C   0  0  0  0  0  3  0  0  0  0  0  0
  -20.8150  -26.8760   22.5450 C   0  0  0  0  0  2  0  0  0  0  0  0
  -19.7170  -26.5540   21.5260 C   0  0  0  0  0  2  0  0  0  0  0  0
  -18.3340  -26.6780   22.1700 C   0  0  0  0  0  2  0  0  0  0  0  0
  -19.2520  -28.7860   23.3010 C   0  0  0  0  0  0  0  0  0  0  0  0
  -19.0190  -30.0430   23.9040 C   0  0  0  0  0  3  0  0  0  0  0  0
  -17.7080  -30.5270   24.0740 C   0  0  0  0  0  3  0  0  0  0  0  0
  -16.6130  -29.7560   23.6480 C   0  0  0  0  0  3  0  0  0  0  0  0
  -16.8320  -28.5040   23.0470 C   0  0  0  0  0  3  0  0  0  0  0  0
  -25.8960  -32.5590   23.8600 C   0  0  0  0  0  3  0  0  0  0  0  0
  -26.4090  -31.7970   25.1420 C   0  0  1  0  0  0  0  0  0  0  0  0
  -25.3080  -31.5410   26.1980 C   0  0  0  0  0  1  0  0  0  0  0  0
  -27.0160  -30.4290   24.7510 C   0  0  0  0  0  1  0  0  0  0  0  0
  -27.5400  -32.6070   25.8170 C   0  0  0  0  0  1  0  0  0  0  0  0
  -25.5650  -33.9540   24.1790 N   0  0  0  0  0  0  0  0  0  0  0  0
  -25.9020  -35.0070   23.4220 C   0  0  0  0  0  0  0  0  0  0  0  0
  -26.5920  -34.9060   22.4040 O   0  0  0  0  0  0  0  0  0  0  0  0
  -24.9540  -34.1040   24.9680 H   0  0  0  0  0  0  0  0  0  0  0  0
  -24.1610  -36.7780   23.0160 C   0  0  0  0  0  1  0  0  0  0  0  0
  -25.3860  -36.3910   23.8620 C   0  0  0  0  0  3  0  0  0  0  0  0
  -27.4930  -37.3000   24.7390 C   0  0  0  0  0  1  0  0  0  0  0  0
  -26.4090  -37.4560   23.7720 N   0  0  0  0  0  0  0  0  0  0  0  0
  -25.9900  -38.3730   23.9080 H   0  0  0  0  0  0  0  0  0  0  0  0
  -30.4350  -17.8150   21.2500 C   0  0  0  0  0  3  0  0  0  0  0  0
  -30.9650  -17.9470   19.8800 N   0  0  0  0  0  4  0  0  0  0  0  0
  -31.9470  -18.1600   19.9010 H   0  0  0  0  0  0  0  0  0  0  0  0
  -30.4840  -18.6740   19.3860 H   0  0  0  0  0  0  0  0  0  0  0  0
  -30.8380  -17.0870   19.3790 H   0  0  0  0  0  0  0  0  0  0  0  0
  -31.0390  -16.5470   21.9220 C   0  0  0  0  0  2  0  0  0  0  0  0
  -30.9740  -14.4920   20.4650 C   0  0  0  0  0  0  0  0  0  0  0  0
  -30.6020  -12.4310   19.1700 C   0  0  0  0  0  2  0  0  0  0  0  0
  -29.6530  -12.6900   17.9850 C   0  0  0  0  0  2  0  0  0  0  0  0
  -28.1790  -12.5660   18.4120 C   0  0  0  0  0  2  0  0  0  0  0  0
  -27.8630  -13.3670   19.7050 C   0  0  0  0  0  3  0  0  0  0  0  0
  -28.9140  -13.0720   20.7980 C   0  0  0  0  0  2  0  0  0  0  0  0
  -30.2530  -13.3640   20.2480 N   0  0  0  0  0  0  0  0  0  0  0  0
  -31.9960  -14.7920   19.8440 O   0  0  0  0  0  0  0  0  0  0  0  0
  -30.4720  -15.2990   21.4050 N   0  0  0  0  0  0  0  0  0  0  0  0
  -29.6450  -14.9570   21.8690 H   0  0  0  0  0  0  0  0  0  0  0  0
  -25.4620  -13.9970   20.3990 C   0  0  0  0  0  0  0  0  0  0  0  0
  -24.3890  -13.2340   20.7740 C   0  0  0  0  0  0  0  0  0  0  0  0
  -24.8420  -11.8790   20.7550 C   0  0  0  0  0  0  0  0  0  0  0  0
  -26.5040  -13.1070   20.1790 N   0  0  0  0  0  0  0  0  0  0  0  0
  -26.1330  -11.8290   20.4460 N   0  0  0  0  0  0  0  0  0  0  0  0
  -24.1080  -10.6230   20.9590 C   0  0  0  0  0  0  0  0  0  0  0  0
  -24.5320   -9.6650   21.9060 C   0  0  0  0  0  3  0  0  0  0  0  0
  -23.8000   -8.4720   22.0930 C   0  0  0  0  0  3  0  0  0  0  0  0
  -22.6320   -8.2280   21.3310 C   0  0  0  0  0  0  0  0  0  0  0  0
  -22.2280   -9.1760   20.3740 C   0  0  0  0  0  3  0  0  0  0  0  0
  -22.9590  -10.3600   20.1860 C   0  0  0  0  0  3  0  0  0  0  0  0
  -21.8710   -7.0900   21.4290 O   0  0  0  0  0  0  0  0  0  0  0  0
  -21.7990   -6.3690   22.5940 C   0  0  0  0  0  0  0  0  0  0  0  0
  -21.3610   -6.9510   23.8040 C   0  0  0  0  0  3  0  0  0  0  0  0
  -21.2350   -6.1560   24.9610 C   0  0  0  0  0  3  0  0  0  0  0  0
  -21.5360   -4.7840   24.9100 C   0  0  0  0  0  0  0  0  0  0  0  0
  -21.9650   -4.2010   23.7050 C   0  0  0  0  0  3  0  0  0  0  0  0
  -22.0930   -4.9910   22.5500 C   0  0  0  0  0  0  0  0  0  0  0  0
  -22.4870   -4.4200   21.3860 F   0  0  0  0  0  0  0  0  0  0  0  0
  -21.4060   -4.0190   26.0190 F   0  0  0  0  0  0  0  0  0  0  0  0
  -22.9930  -13.7220   21.0390 C   0  0  0  0  0  0  0  0  0  0  0  0
  -22.2610  -13.0450   21.9180 N   0  0  0  0  0  0  0  0  0  0  0  0
  -22.5580  -14.7390   20.5010 O   0  0  0  0  0  0  0  0  0  0  0  0
  -22.6220  -12.2250   22.3820 H   0  0  0  0  0  0  0  0  0  0  0  0
  -21.3240  -13.3540   22.1330 H   0  0  0  0  0  0  0  0  0  0  0  0
  -25.6300  -15.3660   20.2100 N   0  0  0  0  0  0  0  0  0  0  0  0
  -24.8570  -16.0170   20.3010 H   0  0  0  0  0  0  0  0  0  0  0  0
  -26.4790  -15.8050   19.8750 H   0  0  0  0  0  0  0  0  0  0  0  0
  2  1  1  0
  3  1  2  0
  4  6  2  0
  4  5  1  0
  5  2  2  0
  6  3  1  0
  7  5  1  0
  8  7  1  0
  9  8  1  0
  9 10  1  0
 11 13  1  0
 11 10  1  0
 12 23  2  0
 13 18  1  0
 14 22  1  0
 14 24  1  0
 15 21  1  0
 15 17  1  0
 16 22  1  0
 17 16  1  0
 18 17  2  0
 19 20  1  0
 19 13  2  0
 20 15  2  0
 21 14  1  0
 22 12  1  0
 24 26  2  0
 25 24  1  0
 27 25  1  0
 28 37  2  0
 28 33  1  0
 29 25  1  0
 29 33  1  0
 30 29  1  0
 31 32  1  0
 31 30  1  0
 32 28  1  0
 33 34  2  0
 34 35  1  0
 36 35  2  0
 37 36  1  0
 38 12  1  0
 38 43  1  0
 38 39  1  0
 39 42  1  1
 39 40  1  0
 41 39  1  0
 43 46  1  0
 44 48  1  0
 44 43  1  0
 45 44  2  0
 48 47  1  0
 50 48  1  0
 50 51  1  0
 50 49  1  0
 52 57  1  0
 52  6  1  0
 53 54  1  0
 53 52  1  0
 55 53  1  0
 56 53  1  0
 58 66  1  0
 59 64  1  0
 60 61  1  0
 60 59  1  0
 62 61  1  0
 62 71  1  0
 62 63  1  0
 64 58  1  0
 64 63  1  0
 65 58  2  0
 66 67  1  0
 66 57  1  0
 68 69  2  0
 69 88  1  0
 70 69  1  0
 70 73  1  0
 71 68  1  0
 71 72  1  0
 72 70  2  0
 73 74  1  0
 74 75  2  0
 76 79  1  0
 76 75  1  0
 77 76  2  0
 78 77  1  0
 78 73  2  0
 79 80  1  0
 80 81  1  0
 81 82  2  0
 83 82  1  0
 83 87  1  0
 84 83  2  0
 85 80  2  0
 85 84  1  0
 86 85  1  0
 88 89  1  0
 89 92  1  0
 89 91  1  0
 90 88  2  0
 93 94  1  0
 93 68  1  0
 95 93  1  0
M  ISO  4  10 101  11 101  58 100  66 100
M  END
>  <TORSDO>  (16) 
F 23

>  <SCORE>  (16) 
-12.879

>  <name>  (16) 
15

>  <ligand_id>  (16) 
15

>  <original_smiles>  (16) 
[H]c1c([H])c([H])c2c(c1[H])C([H])([H])C([H])([H])C([H])([H])C2([H])N([H])C(=O)C1([H])N(C(=O)C([H])(N([H])C(=O)C([H])(N([H])C([H])([H])[H])C([H])([H])[H])C(C([H])([H])[H])(C([H])([H])[H])C([H])([H])[H])C([H])([H])c2c([H])c(OC([H])([H])C([H])([H])C([H])([H])C([H])([H])c3c([H])c([H])c([H])c(C([H])(C([H])([H])N([H])C(=O)N4C([H])([H])C([H])([H])C([H])([H])C([H])(n5nc(-c6c([H])c([H])c(Oc7c([H])c([H])c(F)c([H])c7F)c([H])c6[H])c(C(=O)N([H])[H])c5N([H])[H])C4([H])[H])[N+]([H])([H])[H])c3[H])c([H])c([H])c2C1([H])[H]

>  <smiles>  (16) 
[H]c1c([H])c([H])c2c(c1[H])C([H])([H])C([H])([H])C([H])([H])C2([H])N([H])C(=O)C1([H])N(C(=O)C([H])(N([H])C(=O)C([H])(N([H])C([H])([H])[H])C([H])([H])[H])C(C([H])([H])[H])(C([H])([H])[H])C([H])([H])[H])C([H])([H])c2c([H])c(OC([H])([H])C([H])([H])C([H])([H])C([H])([H])c3c([H])c([H])c([H])c(C([H])(C([H])([H])N([H])C(=O)N4C([H])([H])C([H])([H])C([H])([H])C([H])(n5nc(-c6c([H])c([H])c(Oc7c([H])c([H])c(F)c([H])c7F)c([H])c6[H])c(C(=O)N([H])[H])c5N([H])[H])C4([H])[H])[N+]([H])([H])[H])c3[H])c([H])c([H])c2C1([H])[H]

$$$$
16:0:0
     RDKit          3D

 96103  0  0  1  0  0  0  0  0999 V2000
  -31.8780  -23.8130   22.4340 C   0  0  0  0  0  2  0  0  0  0  0  0
  -31.2210  -22.6140   21.7340 C   0  0  0  0  0  2  0  0  0  0  0  0
  -32.1200  -21.9270   20.6970 C   0  0  0  0  0  2  0  0  0  0  0  0
  -31.3720  -21.7130   19.3680 C   0  0  0  0  0  2  0  0  0  0  0  0
  -32.0800  -22.3240   18.2270 N   0  0  0  0  0  4  0  0  0  0  0  0
  -32.6450  -21.6240   17.7710 H   0  0  0  0  0  0  0  0  0  0  0  0
  -32.6970  -23.0300   18.5910 H   0  0  0  0  0  0  0  0  0  0  0  0
  -31.1870  -22.9510   17.2290 C   0  0  0  0  0  2  0  0  0  0  0  0
  -31.6380  -24.3850   16.9110 C   0  0  0  0  0  2  0  0  0  0  0  0
  -30.6280  -25.2090   16.0930 C   0  0  0  0  0  2  0  0  0  0  0  0
  -28.8030  -25.8150   17.6780 C   0  0  0  0  0  0  0  0  0  0  0  0
  -27.3610  -27.7510   18.1480 C   0  0  0  0  0  2  0  0  0  0  0  0
  -26.2470  -27.5300   19.1790 C   0  0  0  0  0  2  0  0  0  0  0  0
  -24.9930  -26.9670   18.4950 C   0  0  0  0  0  2  0  0  0  0  0  0
  -25.3080  -25.7260   17.6200 C   0  0  0  0  0  3  0  0  0  0  0  0
  -26.5020  -25.9880   16.6760 C   0  0  0  0  0  2  0  0  0  0  0  0
  -27.6440  -26.4800   17.4680 N   0  0  0  0  0  0  0  0  0  0  0  0
  -29.5410  -26.0080   18.6500 O   0  0  0  0  0  0  0  0  0  0  0  0
  -29.2410  -25.1940   16.5740 N   0  0  0  0  0  0  0  0  0  0  0  0
  -28.5380  -25.1000   15.8540 H   0  0  0  0  0  0  0  0  0  0  0  0
  -23.4060  -24.1040   16.9990 C   0  0  0  0  0  0  0  0  0  0  0  0
  -22.3450  -24.2230   16.1420 C   0  0  0  0  0  0  0  0  0  0  0  0
  -22.4670  -25.5130   15.5400 C   0  0  0  0  0  0  0  0  0  0  0  0
  -24.1220  -25.2860   16.8860 N   0  0  0  0  0  0  0  0  0  0  0  0
  -23.5750  -26.1140   15.9580 N   0  0  0  0  0  0  0  0  0  0  0  0
  -21.5660  -26.2310   14.6290 C   0  0  0  0  0  0  0  0  0  0  0  0
  -22.0170  -26.7350   13.3880 C   0  0  0  0  0  3  0  0  0  0  0  0
  -21.1270  -27.4060   12.5220 C   0  0  0  0  0  3  0  0  0  0  0  0
  -19.7710  -27.5770   12.8910 C   0  0  0  0  0  0  0  0  0  0  0  0
  -19.3340  -27.0940   14.1370 C   0  0  0  0  0  3  0  0  0  0  0  0
  -20.2210  -26.4300   14.9990 C   0  0  0  0  0  3  0  0  0  0  0  0
  -18.8410  -28.2390   12.1250 O   0  0  0  0  0  0  0  0  0  0  0  0
  -18.9370  -28.2850   10.7570 C   0  0  0  0  0  0  0  0  0  0  0  0
  -18.9590  -27.1120    9.9720 C   0  0  0  0  0  3  0  0  0  0  0  0
  -18.9860  -27.2070    8.5670 C   0  0  0  0  0  3  0  0  0  0  0  0
  -18.9840  -28.4690    7.9450 C   0  0  0  0  0  0  0  0  0  0  0  0
  -18.9570  -29.6390    8.7250 C   0  0  0  0  0  3  0  0  0  0  0  0
  -18.9320  -29.5470   10.1280 C   0  0  0  0  0  0  0  0  0  0  0  0
  -18.8850  -30.6750   10.8750 F   0  0  0  0  0  0  0  0  0  0  0  0
  -19.0040  -28.5620    6.5950 F   0  0  0  0  0  0  0  0  0  0  0  0
  -21.2260  -23.2370   15.9600 C   0  0  0  0  0  0  0  0  0  0  0  0
  -20.6770  -23.1500   14.7540 N   0  0  0  0  0  0  0  0  0  0  0  0
  -20.8670  -22.5030   16.8790 O   0  0  0  0  0  0  0  0  0  0  0  0
  -20.9820  -23.7430   13.9960 H   0  0  0  0  0  0  0  0  0  0  0  0
  -19.9380  -22.4820   14.5860 H   0  0  0  0  0  0  0  0  0  0  0  0
  -23.8140  -23.1030   17.8770 N   0  0  0  0  0  0  0  0  0  0  0  0
  -23.2810  -22.2520   18.0230 H   0  0  0  0  0  0  0  0  0  0  0  0
  -24.6250  -23.1690   18.4800 H   0  0  0  0  0  0  0  0  0  0  0  0
  -30.9270  -25.0180   22.4440 C   0  0  0  0  0  2  0  0  0  0  0  0
  -31.6440  -26.3720   22.3050 C   0  0  0  0  0  2  0  0  0  0  0  0
  -30.7390  -27.5040   22.5990 N   0  0  0  0  0  4  0  0  0  0  0  0
  -31.2770  -28.3540   22.5250 H   0  0  0  0  0  0  0  0  0  0  0  0
  -30.4340  -27.4250   23.5560 H   0  0  0  0  0  0  0  0  0  0  0  0
  -29.5540  -27.6210   21.7130 C   0  0  0  0  0  2  0  0  0  0  0  0
  -28.3630  -28.2390   22.4580 C   0  0  0  0  0  2  0  0  0  0  0  0
  -27.9470  -27.3190   23.4690 O   0  0  0  0  0  0  0  0  0  0  0  0
  -27.7640  -31.7010   29.0870 C   0  0  0  0  0  0  0  0  0  0  0  0
  -27.2330  -27.8530   24.5130 C   0  0  0  0  0  0  0  0  0  0  0  0
  -25.8480  -30.1480   28.8620 C   0  0  0  0  0  3  0  0  0  0  0  0
  -25.7030  -28.8900   26.6460 C   0  0  0  0  0  0  0  0  0  0  0  0
  -27.1460  -30.9290   26.8060 C   0  0  0  0  0  2  0  0  0  0  0  0
  -26.8070  -29.6010   26.1640 C   0  0  0  0  0  0  0  0  0  0  0  0
  -27.5780  -29.0870   25.1050 C   0  0  0  0  0  3  0  0  0  0  0  0
  -26.1380  -27.1270   25.0250 C   0  0  0  0  0  3  0  0  0  0  0  0
  -25.3660  -27.6430   26.0870 C   0  0  0  0  0  3  0  0  0  0  0  0
  -24.9250  -29.5270   27.7760 C   0  0  0  0  0  2  0  0  0  0  0  0
  -26.9770  -30.9410   28.2750 N   0  0  0  0  0  0  0  0  0  0  0  0
  -27.5380  -31.7860   30.3020 O   0  0  0  0  0  0  0  0  0  0  0  0
  -26.3180  -29.0220   29.8080 C   0  0  0  0  0  0  0  0  0  0  0  0
  -25.5030  -28.7250   30.8340 N   0  0  0  0  0  0  0  0  0  0  0  0
  -27.3750  -28.4200   29.6000 O   0  0  0  0  0  0  0  0  0  0  0  0
  -24.6590  -29.2710   30.9380 H   0  0  0  0  0  0  0  0  0  0  0  0
  -24.1400  -27.2290   33.8260 C   0  0  0  0  0  0  0  0  0  0  0  0
  -25.7200  -27.6760   31.8290 C   0  0  0  0  0  3  0  0  0  0  0  0
  -25.2690  -26.3000   31.2920 C   0  0  0  0  0  2  0  0  0  0  0  0
  -23.8230  -25.9520   31.6620 C   0  0  0  0  0  2  0  0  0  0  0  0
  -23.6430  -25.9440   33.1830 C   0  0  0  0  0  2  0  0  0  0  0  0
  -25.1030  -28.0510   33.1820 C   0  0  0  0  0  0  0  0  0  0  0  0
  -25.5040  -29.2520   33.8030 C   0  0  0  0  0  3  0  0  0  0  0  0
  -24.9630  -29.6360   35.0450 C   0  0  0  0  0  3  0  0  0  0  0  0
  -24.0240  -28.8100   35.6870 C   0  0  0  0  0  3  0  0  0  0  0  0
  -23.6170  -27.6080   35.0790 C   0  0  0  0  0  3  0  0  0  0  0  0
  -28.9730  -32.5180   28.5260 C   0  0  0  0  0  3  0  0  0  0  0  0
  -29.1650  -33.6810   29.4010 N   0  0  0  0  0  0  0  0  0  0  0  0
  -28.7190  -34.9150   29.1310 C   0  0  0  0  0  0  0  0  0  0  0  0
  -28.1610  -35.2090   28.0700 O   0  0  0  0  0  0  0  0  0  0  0  0
  -29.5620  -33.5030   30.3120 H   0  0  0  0  0  0  0  0  0  0  0  0
  -27.6040  -36.2320   30.9600 C   0  0  0  0  0  1  0  0  0  0  0  0
  -28.9240  -35.9980   30.2090 C   0  0  0  0  0  3  0  0  0  0  0  0
  -30.7650  -37.1780   29.0940 C   0  0  0  0  0  1  0  0  0  0  0  0
  -29.4260  -37.2800   29.6690 N   0  0  0  0  0  0  0  0  0  0  0  0
  -29.4460  -37.9930   30.3930 H   0  0  0  0  0  0  0  0  0  0  0  0
  -30.3010  -31.6730   28.4200 C   0  0  1  0  0  0  0  0  0  0  0  0
  -30.6770  -30.9430   29.7310 C   0  0  0  0  0  1  0  0  0  0  0  0
  -30.1830  -30.6090   27.3030 C   0  0  0  0  0  1  0  0  0  0  0  0
  -31.4800  -32.5940   28.0300 C   0  0  0  0  0  1  0  0  0  0  0  0
  1 49  1  0
  2  1  1  0
  3  2  1  0
  4  3  1  0
  5  7  1  0
  5  4  1  0
  6  5  1  0
  8  5  1  0
  9  8  1  0
 10 19  1  0
 10  9  1  0
 11 18  2  0
 12 13  1  0
 14 13  1  0
 15 16  1  0
 15 14  1  0
 16 17  1  0
 17 11  1  0
 17 12  1  0
 19 11  1  0
 20 19  1  0
 21 46  1  0
 22 21  2  0
 23 25  2  0
 23 22  1  0
 24 21  1  0
 24 15  1  0
 25 24  1  0
 26 31  1  0
 26 23  1  0
 27 26  2  0
 28 29  2  0
 28 27  1  0
 29 30  1  0
 30 31  2  0
 32 29  1  0
 33 32  1  0
 34 33  2  0
 35 34  1  0
 36 35  2  0
 36 37  1  0
 37 38  2  0
 38 33  1  0
 38 39  1  0
 40 36  1  0
 41 22  1  0
 41 43  2  0
 42 41  1  0
 44 42  1  0
 45 42  1  0
 46 47  1  0
 46 48  1  0
 50 49  1  0
 50 51  1  0
 51 53  1  0
 52 51  1  0
 54 55  1  0
 54 51  1  0
 55 56  1  0
 56 58  1  0
 57 68  2  0
 58 64  2  0
 58 63  1  0
 59 69  1  0
 60 66  1  0
 61 67  1  0
 62 60  1  0
 62 61  1  0
 63 62  2  0
 64 65  1  0
 65 60  2  0
 66 59  1  0
 67 59  1  0
 67 57  1  0
 69 70  1  0
 70 72  1  0
 71 69  2  0
 73 82  1  0
 74 70  1  0
 74 78  1  0
 75 76  1  0
 75 74  1  0
 76 77  1  0
 77 73  1  0
 78 79  1  0
 78 73  2  0
 79 80  2  0
 80 81  1  0
 82 81  2  0
 83 57  1  0
 83 84  1  0
 84 87  1  0
 85 84  1  0
 85 89  1  0
 86 85  2  0
 89 88  1  0
 90 91  1  0
 91 89  1  0
 91 92  1  0
 93 83  1  0
 93 94  1  1
 95 93  1  0
 96 93  1  0
M  ISO  4  11 100  19 100  55 101  56 101
M  END
>  <TORSDO>  (17) 
F 28

>  <SCORE>  (17) 
-0.045

>  <name>  (17) 
16

>  <ligand_id>  (17) 
16

>  <original_smiles>  (17) 
[H]c1c([H])c([H])c2c(c1[H])C([H])([H])C([H])([H])C([H])([H])C2([H])N([H])C(=O)C1([H])N(C(=O)C([H])(N([H])C(=O)C([H])(N([H])C([H])([H])[H])C([H])([H])[H])C(C([H])([H])[H])(C([H])([H])[H])C([H])([H])[H])C([H])([H])c2c([H])c(OC([H])([H])C([H])([H])[N+]([H])([H])C([H])([H])C([H])([H])C([H])([H])C([H])([H])C([H])([H])C([H])([H])[N+]([H])([H])C([H])([H])C([H])([H])C([H])([H])N([H])C(=O)N3C([H])([H])C([H])([H])C([H])([H])C([H])(n4nc(-c5c([H])c([H])c(Oc6c([H])c([H])c(F)c([H])c6F)c([H])c5[H])c(C(=O)N([H])[H])c4N([H])[H])C3([H])[H])c([H])c([H])c2C1([H])[H]

>  <smiles>  (17) 
[H]c1c([H])c([H])c2c(c1[H])C([H])([H])C([H])([H])C([H])([H])C2([H])N([H])C(=O)C1([H])N(C(=O)C([H])(N([H])C(=O)C([H])(N([H])C([H])([H])[H])C([H])([H])[H])C(C([H])([H])[H])(C([H])([H])[H])C([H])([H])[H])C([H])([H])c2c([H])c(OC([H])([H])C([H])([H])[N+]([H])([H])C([H])([H])C([H])([H])C([H])([H])C([H])([H])C([H])([H])C([H])([H])[N+]([H])([H])C([H])([H])C([H])([H])C([H])([H])N([H])C(=O)N3C([H])([H])C([H])([H])C([H])([H])C([H])(n4nc(-c5c([H])c([H])c(Oc6c([H])c([H])c(F)c([H])c6F)c([H])c5[H])c(C(=O)N([H])[H])c4N([H])[H])C3([H])[H])c([H])c([H])c2C1([H])[H]

$$$$
17:0:0
     RDKit          3D

 95103  0  0  1  0  0  0  0  0999 V2000
  -26.8340  -23.2650   22.3200 C   0  0  0  0  0  3  0  0  0  0  0  0
  -27.0360  -24.6340   22.5420 C   0  0  0  0  0  3  0  0  0  0  0  0
  -28.4910  -23.3290   20.5470 C   0  0  0  0  0  3  0  0  0  0  0  0
  -27.5380  -22.6020   21.2960 C   0  0  0  0  0  0  0  0  0  0  0  0
  -28.6750  -24.7220   20.7230 C   0  0  0  0  0  0  0  0  0  0  0  0
  -27.9270  -25.3760   21.7400 C   0  0  0  0  0  0  0  0  0  0  0  0
  -27.9700  -26.7170   21.9610 O   0  0  0  0  0  0  0  0  0  0  0  0
  -27.2600  -27.0110   22.5220 H   0  0  0  0  0  0  0  0  0  0  0  0
  -27.1350  -21.1640   20.9740 C   0  0  0  0  0  2  0  0  0  0  0  0
  -27.8880  -20.4290   19.8500 C   0  0  0  0  0  2  0  0  0  0  0  0
  -29.2380  -19.9040   20.3450 C   0  0  0  0  0  2  0  0  0  0  0  0
  -29.8090  -18.7110   19.5650 C   0  0  0  0  0  2  0  0  0  0  0  0
  -30.9270  -18.0530   20.3930 C   0  0  0  0  0  2  0  0  0  0  0  0
  -31.7190  -16.9450   19.6860 C   0  0  0  0  0  2  0  0  0  0  0  0
  -31.6820  -14.4930   19.4470 C   0  0  0  0  0  0  0  0  0  0  0  0
  -31.3830  -12.0580   19.2360 C   0  0  0  0  0  2  0  0  0  0  0  0
  -30.3900  -11.7480   18.1020 C   0  0  0  0  0  2  0  0  0  0  0  0
  -28.9360  -11.7870   18.6160 C   0  0  0  0  0  2  0  0  0  0  0  0
  -28.6290  -13.0630   19.4440 C   0  0  0  0  0  3  0  0  0  0  0  0
  -29.7260  -13.3040   20.5030 C   0  0  0  0  0  2  0  0  0  0  0  0
  -31.0220  -13.3640   19.8030 N   0  0  0  0  0  0  0  0  0  0  0  0
  -32.7200  -14.5000   18.7800 O   0  0  0  0  0  0  0  0  0  0  0  0
  -31.1070  -15.6340   19.8430 N   0  0  0  0  0  0  0  0  0  0  0  0
  -30.2340  -15.5670   20.3440 H   0  0  0  0  0  0  0  0  0  0  0  0
  -26.4670  -14.0320   20.4560 C   0  0  0  0  0  0  0  0  0  0  0  0
  -25.3120  -13.4340   20.8780 C   0  0  0  0  0  0  0  0  0  0  0  0
  -25.5020  -12.0300   20.6910 C   0  0  0  0  0  0  0  0  0  0  0  0
  -27.3000  -13.0020   20.0470 N   0  0  0  0  0  0  0  0  0  0  0  0
  -26.7250  -11.7880   20.2430 N   0  0  0  0  0  0  0  0  0  0  0  0
  -24.5720  -10.9060   20.8580 C   0  0  0  0  0  0  0  0  0  0  0  0
  -24.8890   -9.8040   21.6820 C   0  0  0  0  0  3  0  0  0  0  0  0
  -23.9750   -8.7420   21.8440 C   0  0  0  0  0  3  0  0  0  0  0  0
  -22.7270   -8.7760   21.1760 C   0  0  0  0  0  0  0  0  0  0  0  0
  -22.4230   -9.8670   20.3410 C   0  0  0  0  0  3  0  0  0  0  0  0
  -23.3370  -10.9210   20.1810 C   0  0  0  0  0  3  0  0  0  0  0  0
  -21.7850   -7.7790   21.2510 O   0  0  0  0  0  0  0  0  0  0  0  0
  -21.6090   -7.0400   22.3920 C   0  0  0  0  0  0  0  0  0  0  0  0
  -21.3100   -7.6440   23.6330 C   0  0  0  0  0  3  0  0  0  0  0  0
  -21.0680   -6.8440   24.7660 C   0  0  0  0  0  3  0  0  0  0  0  0
  -21.1140   -5.4400   24.6610 C   0  0  0  0  0  0  0  0  0  0  0  0
  -21.4060   -4.8360   23.4250 C   0  0  0  0  0  3  0  0  0  0  0  0
  -21.6490   -5.6340   22.2930 C   0  0  0  0  0  0  0  0  0  0  0  0
  -21.9080   -5.0470   21.1000 F   0  0  0  0  0  0  0  0  0  0  0  0
  -20.8740   -4.6690   25.7470 F   0  0  0  0  0  0  0  0  0  0  0  0
  -24.0600  -14.1240   21.3400 C   0  0  0  0  0  0  0  0  0  0  0  0
  -23.3210  -13.5090   22.2560 N   0  0  0  0  0  0  0  0  0  0  0  0
  -23.7560  -15.2430   20.9250 O   0  0  0  0  0  0  0  0  0  0  0  0
  -23.5770  -12.6000   22.6100 H   0  0  0  0  0  0  0  0  0  0  0  0
  -22.4850  -13.9580   22.6070 H   0  0  0  0  0  0  0  0  0  0  0  0
  -26.8740  -15.3610   20.3660 N   0  0  0  0  0  0  0  0  0  0  0  0
  -26.2640  -16.1320   20.6140 H   0  0  0  0  0  0  0  0  0  0  0  0
  -27.7670  -15.6660   20.0010 H   0  0  0  0  0  0  0  0  0  0  0  0
  -29.5370  -25.4010   19.6470 C   0  0  0  0  0  2  0  0  0  0  0  0
  -30.3880  -26.6580   19.9300 C   0  0  0  0  0  2  0  0  0  0  0  0
  -29.8830  -27.7320   19.1340 O   0  0  0  0  0  0  0  0  0  0  0  0
  -25.7010  -30.3500   24.2660 C   0  0  0  0  0  0  0  0  0  0  0  0
  -28.6320  -28.1580   19.5080 C   0  0  0  0  0  0  0  0  0  0  0  0
  -24.5470  -29.5670   22.2200 C   0  0  0  0  0  3  0  0  0  0  0  0
  -26.0550  -29.0270   20.2350 C   0  0  0  0  0  0  0  0  0  0  0  0
  -26.9520  -30.4160   22.1170 C   0  0  0  0  0  2  0  0  0  0  0  0
  -27.1710  -29.4640   20.9620 C   0  0  0  0  0  0  0  0  0  0  0  0
  -28.4610  -29.0230   20.6100 C   0  0  0  0  0  3  0  0  0  0  0  0
  -27.5070  -27.7500   18.7630 C   0  0  0  0  0  3  0  0  0  0  0  0
  -26.2140  -28.1620   19.1380 C   0  0  0  0  0  3  0  0  0  0  0  0
  -24.7110  -29.5520   20.6760 C   0  0  0  0  0  2  0  0  0  0  0  0
  -25.7560  -30.1010   22.9270 N   0  0  0  0  0  0  0  0  0  0  0  0
  -24.6520  -30.1850   24.9040 O   0  0  0  0  0  0  0  0  0  0  0  0
  -24.1470  -28.1490   22.6870 C   0  0  0  0  0  0  0  0  0  0  0  0
  -22.9840  -27.6700   22.2150 N   0  0  0  0  0  0  0  0  0  0  0  0
  -24.8850  -27.4970   23.4320 O   0  0  0  0  0  0  0  0  0  0  0  0
  -22.4400  -28.2620   21.6040 H   0  0  0  0  0  0  0  0  0  0  0  0
  -20.3140  -25.4010   21.3370 C   0  0  0  0  0  0  0  0  0  0  0  0
  -22.4330  -26.3410   22.4810 C   0  0  0  0  0  3  0  0  0  0  0  0
  -23.2100  -25.2540   21.7010 C   0  0  0  0  0  2  0  0  0  0  0  0
  -22.5860  -24.9270   20.3410 C   0  0  0  0  0  2  0  0  0  0  0  0
  -21.1520  -24.4300   20.5220 C   0  0  0  0  0  2  0  0  0  0  0  0
  -20.9170  -26.3080   22.2480 C   0  0  0  0  0  0  0  0  0  0  0  0
  -20.0960  -27.2070   22.9630 C   0  0  0  0  0  3  0  0  0  0  0  0
  -18.6980  -27.2070   22.7840 C   0  0  0  0  0  3  0  0  0  0  0  0
  -18.1070  -26.2940   21.8950 C   0  0  0  0  0  3  0  0  0  0  0  0
  -18.9110  -25.3930   21.1740 C   0  0  0  0  0  3  0  0  0  0  0  0
  -26.9440  -30.8770   25.0520 C   0  0  0  0  0  3  0  0  0  0  0  0
  -27.3900  -29.9200   26.2230 C   0  0  1  0  0  0  0  0  0  0  0  0
  -26.2190  -29.4250   27.1030 C   0  0  0  0  0  1  0  0  0  0  0  0
  -28.1190  -28.6780   25.6620 C   0  0  0  0  0  1  0  0  0  0  0  0
  -28.4010  -30.6500   27.1400 C   0  0  0  0  0  1  0  0  0  0  0  0
  -26.6060  -32.2090   25.5700 N   0  0  0  0  0  0  0  0  0  0  0  0
  -27.0350  -33.3620   25.0400 C   0  0  0  0  0  0  0  0  0  0  0  0
  -27.8260  -33.4090   24.0950 O   0  0  0  0  0  0  0  0  0  0  0  0
  -25.9140  -32.2490   26.3020 H   0  0  0  0  0  0  0  0  0  0  0  0
  -25.4140  -35.2620   24.7510 C   0  0  0  0  0  1  0  0  0  0  0  0
  -26.5050  -34.6710   25.6560 C   0  0  0  0  0  3  0  0  0  0  0  0
  -28.5340  -35.2810   26.8950 C   0  0  0  0  0  1  0  0  0  0  0  0
  -27.5600  -35.6830   25.8840 N   0  0  0  0  0  0  0  0  0  0  0  0
  -27.1510  -36.5700   26.1670 H   0  0  0  0  0  0  0  0  0  0  0  0
  1  2  1  0
  3  5  2  0
  3  4  1  0
  4  1  2  0
  5  6  1  0
  6  7  1  0
  6  2  2  0
  7  8  1  0
  9  4  1  0
 10 11  1  0
 10  9  1  0
 12 11  1  0
 12 13  1  0
 14 23  1  0
 14 13  1  0
 15 21  1  0
 15 23  1  0
 16 21  1  0
 17 18  1  0
 17 16  1  0
 19 18  1  0
 19 28  1  0
 19 20  1  0
 21 20  1  0
 22 15  2  0
 23 24  1  0
 25 26  2  0
 26 45  1  0
 27 30  1  0
 27 26  1  0
 28 29  1  0
 28 25  1  0
 29 27  2  0
 30 31  1  0
 31 32  2  0
 33 36  1  0
 33 32  1  0
 34 33  2  0
 35 34  1  0
 35 30  2  0
 36 37  1  0
 37 38  1  0
 38 39  2  0
 40 39  1  0
 40 44  1  0
 41 40  2  0
 42 37  2  0
 42 41  1  0
 43 42  1  0
 45 46  1  0
 46 49  1  0
 46 48  1  0
 47 45  2  0
 50 25  1  0
 50 51  1  0
 52 50  1  0
 53 54  1  0
 53  5  1  0
 55 57  1  0
 55 54  1  0
 56 67  2  0
 57 62  1  0
 58 68  1  0
 58 66  1  0
 59 65  1  0
 59 61  1  0
 60 66  1  0
 61 60  1  0
 62 61  2  0
 63 64  1  0
 63 57  2  0
 64 59  2  0
 65 58  1  0
 66 56  1  0
 68 70  2  0
 69 68  1  0
 71 69  1  0
 72 77  1  0
 73 69  1  0
 74 73  1  0
 75 76  1  0
 75 74  1  0
 76 72  1  0
 77 73  1  0
 77 78  2  0
 79 78  1  0
 80 79  2  0
 81 72  2  0
 81 80  1  0
 82 56  1  0
 82 87  1  0
 82 83  1  0
 83 84  1  1
 83 86  1  0
 85 83  1  0
 87 90  1  0
 88 87  1  0
 88 92  1  0
 89 88  2  0
 92 91  1  0
 92 94  1  0
 94 95  1  0
 94 93  1  0
M  ISO  4  15 100  23 100  54 101  55 101
M  END
>  <TORSDO>  (18) 
F 25

>  <SCORE>  (18) 
-6.599

>  <name>  (18) 
17

>  <ligand_id>  (18) 
17

>  <original_smiles>  (18) 
[H]Oc1c([H])c([H])c(C([H])([H])C([H])([H])C([H])([H])C([H])([H])C([H])([H])C([H])([H])N([H])C(=O)N2C([H])([H])C([H])([H])C([H])([H])C([H])(n3nc(-c4c([H])c([H])c(Oc5c([H])c([H])c(F)c([H])c5F)c([H])c4[H])c(C(=O)N([H])[H])c3N([H])[H])C2([H])[H])c([H])c1C([H])([H])C([H])([H])Oc1c([H])c([H])c2c(c1[H])C([H])([H])N(C(=O)C([H])(N([H])C(=O)C([H])(N([H])C([H])([H])[H])C([H])([H])[H])C(C([H])([H])[H])(C([H])([H])[H])C([H])([H])[H])C([H])(C(=O)N([H])C1([H])c3c([H])c([H])c([H])c([H])c3C([H])([H])C([H])([H])C1([H])[H])C2([H])[H]

>  <smiles>  (18) 
[H]Oc1c([H])c([H])c(C([H])([H])C([H])([H])C([H])([H])C([H])([H])C([H])([H])C([H])([H])N([H])C(=O)N2C([H])([H])C([H])([H])C([H])([H])C([H])(n3nc(-c4c([H])c([H])c(Oc5c([H])c([H])c(F)c([H])c5F)c([H])c4[H])c(C(=O)N([H])[H])c3N([H])[H])C2([H])[H])c([H])c1C([H])([H])C([H])([H])Oc1c([H])c([H])c2c(c1[H])C([H])([H])N(C(=O)C([H])(N([H])C(=O)C([H])(N([H])C([H])([H])[H])C([H])([H])[H])C(C([H])([H])[H])(C([H])([H])[H])C([H])([H])[H])C([H])(C(=O)N([H])C1([H])c3c([H])c([H])c([H])c([H])c3C([H])([H])C([H])([H])C1([H])[H])C2([H])[H]

$$$$
18:0:0
     RDKit          3D

 95 99  0  0  1  0  0  0  0  0999 V2000
  -25.4350  -29.7390   24.7230 C   0  0  0  0  0  0  0  0  0  0  0  0
  -25.6910  -31.3790   25.6260 C   0  0  0  0  0  0  0  0  0  0  0  0
  -27.6700  -29.6770   23.5060 C   0  0  0  0  0  3  0  0  0  0  0  0
  -26.4930  -28.6670   23.7810 C   0  0  0  0  0  3  0  0  0  0  0  0
  -28.3000  -31.0700   24.1140 C   0  0  0  0  0  0  0  0  0  0  0  0
  -27.4020  -32.1170   25.2980 C   0  0  0  0  0  0  0  0  0  0  0  0
  -27.1620  -33.8400   27.0310 C   0  0  0  0  0  1  0  0  0  0  0  0
  -27.9180  -33.2850   25.9070 N   0  0  0  0  0  0  0  0  0  0  0  0
  -28.9060  -33.5000   25.8120 H   0  0  0  0  0  0  0  0  0  0  0  0
  -26.6580  -26.5400   23.1830 C   0  0  0  0  0 15  0  0  0  0  0  0
  -27.7440  -24.5660   22.4910 C   0  0  0  0  0 15  0  0  0  0  0  0
  -27.8820  -22.2910   21.8700 C   0  0  0  0  0 15  0  0  0  0  0  0
  -28.9740  -20.2900   21.2540 C   0  0  0  0  0 15  0  0  0  0  0  0
  -29.8750  -16.6850   20.3780 C   0  0  0  0  0  0  0  0  0  0  0  0
  -30.2910  -14.0010   19.2860 C   0  0  0  0  0  2  0  0  0  0  0  0
  -29.5070  -13.1900   18.1510 C   0  0  0  0  0  2  0  0  0  0  0  0
  -28.2070  -12.5670   18.6630 C   0  0  0  0  0  2  0  0  0  0  0  0
  -27.5920  -13.5660   19.6510 C   0  0  0  0  0  3  0  0  0  0  0  0
  -28.5540  -14.1740   20.7360 C   0  0  0  0  0  2  0  0  0  0  0  0
  -29.5170  -15.1590   20.1150 N   0  0  0  0  0  0  0  0  0  0  0  0
  -31.0920  -16.5620   20.0250 O   0  0  0  0  0  0  0  0  0  0  0  0
  -29.0860  -18.2230   20.8340 N   0  0  0  0  0  2  0  0  0  0  0  0
  -28.1330  -17.9070   20.9700 H   0  0  0  0  0  0  0  0  0  0  0  0
  -25.3180  -13.9680   20.6250 C   0  0  0  0  0  0  0  0  0  0  0  0
  -24.3020  -13.1580   21.0290 C   0  0  0  0  0  0  0  0  0  0  0  0
  -24.7570  -11.8170   20.8350 C   0  0  0  0  0  0  0  0  0  0  0  0
  -26.3300  -13.1290   20.2160 N   0  0  0  0  0  0  0  0  0  0  0  0
  -26.0160  -11.8150   20.3920 N   0  0  0  0  0  0  0  0  0  0  0  0
  -24.0360  -10.5460   20.9990 C   0  0  0  0  0  0  0  0  0  0  0  0
  -24.4810   -9.5470   21.8910 C   0  0  0  0  0  3  0  0  0  0  0  0
  -23.7480   -8.3500   22.0510 C   0  0  0  0  0  3  0  0  0  0  0  0
  -22.5550   -8.1430   21.3180 C   0  0  0  0  0  0  0  0  0  0  0  0
  -22.1280   -9.1320   20.4140 C   0  0  0  0  0  3  0  0  0  0  0  0
  -22.8600  -10.3200   20.2540 C   0  0  0  0  0  3  0  0  0  0  0  0
  -21.7930   -7.0020   21.3880 O   0  0  0  0  0  0  0  0  0  0  0  0
  -21.7070   -6.2620   22.5400 C   0  0  0  0  0  0  0  0  0  0  0  0
  -21.2390   -6.8180   23.7500 C   0  0  0  0  0  3  0  0  0  0  0  0
  -21.1000   -6.0050   24.8930 C   0  0  0  0  0  3  0  0  0  0  0  0
  -21.4200   -4.6360   24.8260 C   0  0  0  0  0  0  0  0  0  0  0  0
  -21.8790   -4.0780   23.6190 C   0  0  0  0  0  3  0  0  0  0  0  0
  -22.0210   -4.8880   22.4790 C   0  0  0  0  0  0  0  0  0  0  0  0
  -22.4440   -4.3420   21.3150 F   0  0  0  0  0  0  0  0  0  0  0  0
  -21.2800   -3.8520   25.9210 F   0  0  0  0  0  0  0  0  0  0  0  0
  -22.9480  -13.6180   21.4750 C   0  0  0  0  0  0  0  0  0  0  0  0
  -22.3110  -12.8730   22.3700 N   0  0  0  0  0  0  0  0  0  0  0  0
  -22.4720  -14.6780   21.0690 O   0  0  0  0  0  0  0  0  0  0  0  0
  -22.7150  -12.0180   22.7210 H   0  0  0  0  0  0  0  0  0  0  0  0
  -21.4060  -13.1630   22.7100 H   0  0  0  0  0  0  0  0  0  0  0  0
  -25.4650  -15.3510   20.5440 N   0  0  0  0  0  0  0  0  0  0  0  0
  -24.7060  -15.9850   20.7700 H   0  0  0  0  0  0  0  0  0  0  0  0
  -26.2670  -15.8210   20.1460 H   0  0  0  0  0  0  0  0  0  0  0  0
  -29.7330  -31.0500   23.4320 C   0  0  0  0  0  2  0  0  0  0  0  0
  -30.1840  -30.0370   22.1410 C   0  0  0  0  0  2  0  0  0  0  0  0
  -29.9620  -28.3890   21.7840 C   0  0  0  0  0  2  0  0  0  0  0  0
  -29.1630  -27.5760   20.7310 O   0  0  0  0  0  0  0  0  0  0  0  0
  -24.2610  -31.0070   23.0550 C   0  0  0  0  0  0  0  0  0  0  0  0
  -27.8790  -27.9340   20.3370 C   0  0  0  0  0  0  0  0  0  0  0  0
  -23.3540  -30.0790   21.0600 C   0  0  0  0  0  3  0  0  0  0  0  0
  -25.2500  -28.9150   19.8240 C   0  0  0  0  0  0  0  0  0  0  0  0
  -25.7070  -30.9210   21.0970 C   0  0  0  0  0  2  0  0  0  0  0  0
  -26.1570  -29.6080   20.5980 C   0  0  0  0  0  0  0  0  0  0  0  0
  -27.4320  -29.1530   20.8090 C   0  0  0  0  0  3  0  0  0  0  0  0
  -26.9890  -27.2310   19.4590 C   0  0  0  0  0  3  0  0  0  0  0  0
  -25.6730  -27.7290   19.2020 C   0  0  0  0  0  3  0  0  0  0  0  0
  -23.8750  -29.5600   19.6980 C   0  0  0  0  0  2  0  0  0  0  0  0
  -24.4210  -30.7420   21.7930 N   0  0  0  0  0  0  0  0  0  0  0  0
  -23.1610  -31.1540   23.6530 O   0  0  0  0  0  0  0  0  0  0  0  0
  -22.6460  -28.9230   21.7830 C   0  0  0  0  0  0  0  0  0  0  0  0
  -21.3270  -28.9730   21.7270 N   0  0  0  0  0  0  0  0  0  0  0  0
  -23.2410  -27.9650   22.2650 O   0  0  0  0  0  0  0  0  0  0  0  0
  -20.8880  -29.7790   21.3050 H   0  0  0  0  0  0  0  0  0  0  0  0
  -17.9050  -28.2200   22.0160 C   0  0  0  0  0  0  0  0  0  0  0  0
  -20.4480  -27.9120   22.1590 C   0  0  0  0  0  3  0  0  0  0  0  0
  -20.2900  -26.8480   21.0470 C   0  0  0  0  0  2  0  0  0  0  0  0
  -19.1530  -27.1690   20.0750 C   0  0  0  0  0  2  0  0  0  0  0  0
  -17.8260  -27.2680   20.8330 C   0  0  0  0  0  2  0  0  0  0  0  0
  -19.1420  -28.5290   22.6320 C   0  0  0  0  0  0  0  0  0  0  0  0
  -19.1790  -29.4620   23.6900 C   0  0  0  0  0  3  0  0  0  0  0  0
  -17.9970  -30.0710   24.1480 C   0  0  0  0  0  3  0  0  0  0  0  0
  -16.7660  -29.7370   23.5560 C   0  0  0  0  0  3  0  0  0  0  0  0
  -16.7210  -28.8140   22.4970 C   0  0  0  0  0  3  0  0  0  0  0  0
  -25.6300  -30.9630   23.7210 C   0  0  1  0  0  0  0  0  0  0  0  0
  -25.3550  -32.6730   23.7300 N   0  0  0  0  0  0  0  0  0  0  0  0
  -25.9600  -33.8840   23.3670 C   0  0  0  0  0  0  0  0  0  0  0  0
  -26.9190  -33.8580   22.6090 O   0  0  0  0  0  0  0  0  0  0  0  0
  -24.4580  -32.8240   24.1750 H   0  0  0  0  0  0  0  0  0  0  0  0
  -24.2960  -35.8610   22.9840 C   0  0  0  0  0  1  0  0  0  0  0  0
  -25.4890  -35.3570   23.8200 C   0  0  0  0  0  3  0  0  0  0  0  0
  -27.5540  -36.4850   24.7430 C   0  0  0  0  0  1  0  0  0  0  0  0
  -26.5230  -36.4490   23.7120 N   0  0  0  0  0  0  0  0  0  0  0  0
  -26.0830  -37.3630   23.6780 H   0  0  0  0  0  0  0  0  0  0  0  0
  -26.3650  -29.6790   26.6330 C   0  0  0  0  0  3  0  0  0  0  0  0
  -25.1820  -29.7620   27.8160 C   0  0  0  0  0  1  0  0  0  0  0  0
  -26.9960  -28.3440   26.8940 C   0  0  0  0  0  1  0  0  0  0  0  0
  -27.3640  -30.5410   27.6480 C   0  0  0  0  0  1  0  0  0  0  0  0
  1  2  1  0
  3  4  1  0
  3  5  2  0
  4  1  2  3
  5  6  1  0
  6  2  2  3
  6  8  1  0
  8  7  1  0
  9  8  1  0
 14 22  1  0
 15 20  1  0
 16 17  1  0
 16 15  1  0
 18 17  1  0
 18 27  1  0
 18 19  1  0
 20 14  1  0
 20 19  1  0
 21 14  2  0
 22 23  1  0
 24 25  2  0
 25 44  1  0
 26 29  1  0
 26 25  1  0
 27 28  1  0
 27 24  1  0
 28 26  2  0
 29 30  1  0
 30 31  2  0
 32 35  1  0
 32 31  1  0
 33 32  2  0
 34 33  1  0
 34 29  2  0
 35 36  1  0
 36 37  1  0
 37 38  2  0
 39 38  1  0
 39 43  1  0
 40 39  2  0
 41 36  2  0
 41 40  1  0
 42 41  1  0
 44 45  1  0
 45 48  1  0
 45 47  1  0
 46 44  2  0
 49 24  1  0
 49 50  1  0
 51 49  1  0
 52  5  1  0
 53 52  1  0
 54 53  1  0
 55 54  1  0
 56 67  2  0
 56 82  1  0
 57 55  1  0
 57 62  1  0
 58 68  1  0
 58 66  1  0
 59 61  1  0
 60 66  1  0
 61 62  2  0
 61 60  1  0
 63 57  2  0
 64 63  1  0
 64 59  2  0
 65 59  1  0
 65 58  1  0
 66 56  1  0
 68 70  2  0
 69 68  1  0
 71 69  1  0
 72 81  2  0
 72 77  1  0
 73 69  1  0
 73 77  1  0
 74 73  1  0
 75 76  1  0
 75 74  1  0
 76 72  1  0
 77 78  2  0
 78 79  1  0
 80 79  2  0
 81 80  1  0
 82 83  1  1
 82  1  1  0
 82  2  1  0
 83 86  1  0
 84 83  1  0
 84 88  1  0
 85 84  2  0
 88 87  1  0
 90 88  1  0
 90 89  1  0
 91 90  1  0
 92 94  1  0
 92 95  1  0
 92 93  1  0
M  ISO  4  14 100  22 100  54 101  55 101
M  END
>  <TORSDO>  (19) 
F 24

>  <SCORE>  (19) 
-14.336

>  <name>  (19) 
18

>  <ligand_id>  (19) 
18

>  <original_smiles>  (19) 
[H]c1c([H])c([H])c2c(c1[H])C([H])([H])C([H])([H])C([H])([H])C2([H])N([H])C(=O)C1([H])N(C(=O)C([H])(N([H])C(=O)C([H])(N([H])C([H])([H])[H])C([H])([H])[H])C(C([H])([H])[H])(C([H])([H])[H])C([H])([H])[H])C([H])([H])c2c([H])c(OC([H])([H])C([H])([H])C([H])([H])c3c([H])c(C([H])([H])C([H])([H])C([H])([H])C([H])([H])N([H])C(=O)N4C([H])([H])C([H])([H])C([H])([H])C([H])(n5nc(-c6c([H])c([H])c(Oc7c([H])c([H])c(F)c([H])c7F)c([H])c6[H])c(C(=O)N([H])[H])c5N([H])[H])C4([H])[H])c([H])c([H])c3N([H])C([H])([H])[H])c([H])c([H])c2C1([H])[H]

>  <smiles>  (19) 
[H]c1c([H])c([H])c2c(c1[H])C([H])([H])C([H])([H])C([H])([H])C2([H])N([H])C(=O)C1([H])N(C(=O)C([H])(N([H])C(=O)C([H])(N([H])C([H])([H])[H])C([H])([H])[H])C(C([H])([H])[H])(C([H])([H])[H])C([H])([H])[H])C([H])([H])c2c([H])c(OC([H])([H])C([H])([H])C([H])([H])c3c([H])c(C([H])([H])C([H])([H])C([H])([H])C([H])([H])N([H])C(=O)N4C([H])([H])C([H])([H])C([H])([H])C([H])(n5nc(-c6c([H])c([H])c(Oc7c([H])c([H])c(F)c([H])c7F)c([H])c6[H])c(C(=O)N([H])[H])c5N([H])[H])C4([H])[H])c([H])c([H])c3N([H])C([H])([H])[H])c([H])c([H])c2C1([H])[H]

$$$$
19:0:0
     RDKit          3D

 95102  0  0  1  0  0  0  0  0999 V2000
  -30.1170  -25.5550   21.8270 C   0  0  0  0  0  2  0  0  0  0  0  0
  -28.7090  -25.5230   22.3310 N   0  0  2  0  0  4  0  0  0  0  0  0
  -28.4780  -26.5090   22.3590 H   0  0  0  0  0  0  0  0  0  0  0  0
  -29.1230  -23.7240   24.0900 C   0  0  0  0  0  1  0  0  0  0  0  0
  -28.5610  -25.1170   23.7550 C   0  0  0  0  0  2  0  0  0  0  0  0
  -27.6640  -24.9530   21.4240 C   0  0  0  0  0  2  0  0  0  0  0  0
  -27.8140  -25.3860   19.9480 C   0  0  0  0  0  2  0  0  0  0  0  0
  -27.8670  -26.8080   19.8420 O   0  0  0  0  0  0  0  0  0  0  0  0
  -24.5270  -31.9900   23.3370 C   0  0  0  0  0  0  0  0  0  0  0  0
  -26.6990  -27.5310   19.9480 C   0  0  0  0  0  0  0  0  0  0  0  0
  -23.1240  -30.6890   21.7700 C   0  0  0  0  0  3  0  0  0  0  0  0
  -24.3810  -29.1220   20.2010 C   0  0  0  0  0  0  0  0  0  0  0  0
  -25.6380  -30.9400   21.3710 C   0  0  0  0  0  2  0  0  0  0  0  0
  -25.6040  -29.5860   20.6970 C   0  0  0  0  0  0  0  0  0  0  0  0
  -26.7650  -28.7980   20.5670 C   0  0  0  0  0  3  0  0  0  0  0  0
  -25.4540  -27.0710   19.4610 C   0  0  0  0  0  3  0  0  0  0  0  0
  -24.2980  -27.8610   19.5880 C   0  0  0  0  0  3  0  0  0  0  0  0
  -23.1860  -30.0330   20.3650 C   0  0  0  0  0  2  0  0  0  0  0  0
  -24.4530  -31.2180   22.2170 N   0  0  0  0  0  0  0  0  0  0  0  0
  -23.5080  -32.2980   23.9690 O   0  0  0  0  0  0  0  0  0  0  0  0
  -22.5080  -29.6700   22.7560 C   0  0  0  0  0  0  0  0  0  0  0  0
  -21.2020  -29.4020   22.5960 N   0  0  0  0  0  0  0  0  0  0  0  0
  -23.2040  -29.1210   23.6140 O   0  0  0  0  0  0  0  0  0  0  0  0
  -20.7010  -29.8980   21.8730 H   0  0  0  0  0  0  0  0  0  0  0  0
  -17.9450  -27.8770   22.9030 C   0  0  0  0  0  0  0  0  0  0  0  0
  -20.4170  -28.4530   23.3850 C   0  0  0  0  0  3  0  0  0  0  0  0
  -20.7320  -26.9960   22.9740 C   0  0  0  0  0  2  0  0  0  0  0  0
  -19.7820  -26.4530   21.9020 C   0  0  0  0  0  2  0  0  0  0  0  0
  -18.3320  -26.4980   22.3940 C   0  0  0  0  0  2  0  0  0  0  0  0
  -18.9260  -28.8000   23.3520 C   0  0  0  0  0  0  0  0  0  0  0  0
  -18.5140  -30.0820   23.7780 C   0  0  0  0  0  3  0  0  0  0  0  0
  -17.1540  -30.4440   23.7650 C   0  0  0  0  0  3  0  0  0  0  0  0
  -16.1870  -29.5180   23.3360 C   0  0  0  0  0  3  0  0  0  0  0  0
  -16.5820  -28.2380   22.9100 C   0  0  0  0  0  3  0  0  0  0  0  0
  -25.8890  -32.5420   23.8620 C   0  0  0  0  0  3  0  0  0  0  0  0
  -25.6880  -33.9550   24.2060 N   0  0  0  0  0  0  0  0  0  0  0  0
  -26.0240  -34.9840   23.4160 C   0  0  0  0  0  0  0  0  0  0  0  0
  -26.6100  -34.8400   22.3400 O   0  0  0  0  0  0  0  0  0  0  0  0
  -25.1630  -34.1470   25.0470 H   0  0  0  0  0  0  0  0  0  0  0  0
  -24.3760  -36.8670   23.1790 C   0  0  0  0  0  1  0  0  0  0  0  0
  -25.6500  -36.3980   23.8990 C   0  0  0  0  0  3  0  0  0  0  0  0
  -27.8800  -37.1740   24.5730 C   0  0  0  0  0  1  0  0  0  0  0  0
  -26.7280  -37.3910   23.7010 N   0  0  0  0  0  0  0  0  0  0  0  0
  -26.3830  -38.3350   23.8610 H   0  0  0  0  0  0  0  0  0  0  0  0
  -26.4510  -31.7390   25.0990 C   0  0  1  0  0  0  0  0  0  0  0  0
  -25.4130  -31.5290   26.2260 C   0  0  0  0  0  1  0  0  0  0  0  0
  -26.9620  -30.3470   24.6600 C   0  0  0  0  0  1  0  0  0  0  0  0
  -27.6650  -32.4850   25.7020 C   0  0  0  0  0  1  0  0  0  0  0  0
  -30.5370  -24.3360   20.9800 C   0  0  0  0  0  2  0  0  0  0  0  0
  -31.1690  -24.7110   19.6280 C   0  0  0  0  0  2  0  0  0  0  0  0
  -31.4130  -23.5200   18.6760 C   0  0  0  0  0  2  0  0  0  0  0  0
  -30.1360  -22.7540   18.2690 C   0  0  0  0  0  2  0  0  0  0  0  0
  -29.7110  -21.7040   19.3130 C   0  0  0  0  0  2  0  0  0  0  0  0
  -30.1800  -20.2820   18.9970 C   0  0  0  0  0  2  0  0  0  0  0  0
  -30.1160  -19.3990   20.2460 C   0  0  0  0  0  2  0  0  0  0  0  0
  -30.2890  -17.9130   19.9360 C   0  0  0  0  0  2  0  0  0  0  0  0
  -30.5210  -17.0940   21.2140 C   0  0  0  0  0  2  0  0  0  0  0  0
  -30.8830  -14.7580   20.3500 C   0  0  0  0  0  0  0  0  0  0  0  0
  -30.7180  -12.4770   19.4300 C   0  0  0  0  0  2  0  0  0  0  0  0
  -29.7880  -12.4580   18.2000 C   0  0  0  0  0  2  0  0  0  0  0  0
  -28.3120  -12.3080   18.6210 C   0  0  0  0  0  2  0  0  0  0  0  0
  -27.9080  -13.3020   19.7400 C   0  0  0  0  0  3  0  0  0  0  0  0
  -28.9370  -13.2550   20.8890 C   0  0  0  0  0  2  0  0  0  0  0  0
  -30.2680  -13.5500   20.3230 N   0  0  0  0  0  0  0  0  0  0  0  0
  -31.9380  -15.0050   19.7570 O   0  0  0  0  0  0  0  0  0  0  0  0
  -30.2160  -15.6810   21.0490 N   0  0  0  0  0  0  0  0  0  0  0  0
  -29.3730  -15.3540   21.4970 H   0  0  0  0  0  0  0  0  0  0  0  0
  -25.5280  -13.9350   20.5000 C   0  0  0  0  0  0  0  0  0  0  0  0
  -24.4470  -13.1680   20.8480 C   0  0  0  0  0  0  0  0  0  0  0  0
  -24.8810  -11.8110   20.7530 C   0  0  0  0  0  0  0  0  0  0  0  0
  -26.5520  -13.0420   20.2200 N   0  0  0  0  0  0  0  0  0  0  0  0
  -26.1650  -11.7580   20.4250 N   0  0  0  0  0  0  0  0  0  0  0  0
  -24.1330  -10.5560   20.8980 C   0  0  0  0  0  0  0  0  0  0  0  0
  -24.4750   -9.6020   21.8830 C   0  0  0  0  0  3  0  0  0  0  0  0
  -23.7320   -8.4090   22.0140 C   0  0  0  0  0  3  0  0  0  0  0  0
  -22.6320   -8.1620   21.1590 C   0  0  0  0  0  0  0  0  0  0  0  0
  -22.3100   -9.1020   20.1650 C   0  0  0  0  0  3  0  0  0  0  0  0
  -23.0530  -10.2870   20.0330 C   0  0  0  0  0  3  0  0  0  0  0  0
  -21.8680   -7.0200   21.1970 O   0  0  0  0  0  0  0  0  0  0  0  0
  -21.6190   -6.3600   22.3720 C   0  0  0  0  0  0  0  0  0  0  0  0
  -20.9410   -6.9780   23.4440 C   0  0  0  0  0  3  0  0  0  0  0  0
  -20.6460   -6.2410   24.6090 C   0  0  0  0  0  3  0  0  0  0  0  0
  -21.0170   -4.8870   24.6980 C   0  0  0  0  0  0  0  0  0  0  0  0
  -21.6870   -4.2670   23.6300 C   0  0  0  0  0  3  0  0  0  0  0  0
  -21.9850   -5.0030   22.4680 C   0  0  0  0  0  0  0  0  0  0  0  0
  -22.6130   -4.3960   21.4320 F   0  0  0  0  0  0  0  0  0  0  0  0
  -20.7260   -4.1750   25.8130 F   0  0  0  0  0  0  0  0  0  0  0  0
  -23.0630  -13.6600   21.1620 C   0  0  0  0  0  0  0  0  0  0  0  0
  -22.3320  -12.9320   22.0000 N   0  0  0  0  0  0  0  0  0  0  0  0
  -22.6410  -14.7200   20.7030 O   0  0  0  0  0  0  0  0  0  0  0  0
  -22.6890  -12.0720   22.3920 H   0  0  0  0  0  0  0  0  0  0  0  0
  -21.4030  -13.2370   22.2540 H   0  0  0  0  0  0  0  0  0  0  0  0
  -25.7230  -15.3070   20.3780 N   0  0  0  0  0  0  0  0  0  0  0  0
  -24.9800  -15.9810   20.5260 H   0  0  0  0  0  0  0  0  0  0  0  0
  -26.5900  -15.7330   20.0730 H   0  0  0  0  0  0  0  0  0  0  0  0
  1  2  1  0
  2  3  1  1
  2  5  1  0
  5  4  1  0
  6  2  1  0
  7  6  1  0
  8 10  1  0
  8  7  1  0
  9 20  2  0
 10 15  1  0
 11 19  1  0
 11 21  1  0
 12 18  1  0
 12 14  1  0
 13 19  1  0
 14 13  1  0
 15 14  2  0
 16 17  1  0
 16 10  2  0
 17 12  2  0
 18 11  1  0
 19  9  1  0
 21 23  2  0
 22 21  1  0
 24 22  1  0
 25 34  2  0
 25 30  1  0
 26 22  1  0
 27 26  1  0
 28 29  1  0
 28 27  1  0
 29 25  1  0
 30 26  1  0
 30 31  2  0
 32 31  1  0
 33 32  2  0
 34 33  1  0
 35  9  1  0
 35 36  1  0
 35 45  1  0
 36 39  1  0
 37 41  1  0
 37 36  1  0
 38 37  2  0
 41 40  1  0
 43 44  1  0
 43 41  1  0
 43 42  1  0
 45 48  1  1
 45 46  1  0
 47 45  1  0
 49  1  1  0
 50 49  1  0
 51 50  1  0
 52 51  1  0
 52 53  1  0
 54 53  1  0
 54 55  1  0
 56 55  1  0
 56 57  1  0
 58 66  1  0
 59 64  1  0
 60 61  1  0
 60 59  1  0
 62 61  1  0
 62 71  1  0
 62 63  1  0
 64 58  1  0
 64 63  1  0
 65 58  2  0
 66 57  1  0
 66 67  1  0
 68 69  2  0
 69 88  1  0
 70 69  1  0
 70 73  1  0
 71 72  1  0
 71 68  1  0
 72 70  2  0
 73 74  1  0
 74 75  2  0
 76 79  1  0
 76 75  1  0
 77 76  2  0
 78 77  1  0
 78 73  2  0
 79 80  1  0
 80 85  2  0
 80 81  1  0
 81 82  2  0
 82 83  1  0
 83 87  1  0
 84 83  2  0
 85 84  1  0
 86 85  1  0
 88 89  1  0
 89 92  1  0
 89 91  1  0
 90 88  2  0
 93 68  1  0
 93 94  1  0
 95 93  1  0
M  ISO  4   7 101   8 101  58 100  66 100
M  END
>  <TORSDO>  (20) 
F 29

>  <SCORE>  (20) 
-9.887

>  <name>  (20) 
19

>  <ligand_id>  (20) 
19

>  <original_smiles>  (20) 
[H]c1c([H])c([H])c2c(c1[H])C([H])([H])C([H])([H])C([H])([H])C2([H])N([H])C(=O)C1([H])N(C(=O)C([H])(N([H])C(=O)C([H])(N([H])C([H])([H])[H])C([H])([H])[H])C(C([H])([H])[H])(C([H])([H])[H])C([H])([H])[H])C([H])([H])c2c([H])c(OC([H])([H])C([H])([H])[N+]([H])(C([H])([H])C([H])([H])[H])C([H])([H])C([H])([H])C([H])([H])C([H])([H])C([H])([H])C([H])([H])C([H])([H])C([H])([H])C([H])([H])C([H])([H])N([H])C(=O)N3C([H])([H])C([H])([H])C([H])([H])C([H])(n4nc(-c5c([H])c([H])c(Oc6c([H])c([H])c(F)c([H])c6F)c([H])c5[H])c(C(=O)N([H])[H])c4N([H])[H])C3([H])[H])c([H])c([H])c2C1([H])[H]

>  <smiles>  (20) 
[H]c1c([H])c([H])c2c(c1[H])C([H])([H])C([H])([H])C([H])([H])C2([H])N([H])C(=O)C1([H])N(C(=O)C([H])(N([H])C(=O)C([H])(N([H])C([H])([H])[H])C([H])([H])[H])C(C([H])([H])[H])(C([H])([H])[H])C([H])([H])[H])C([H])([H])c2c([H])c(OC([H])([H])C([H])([H])[N+]([H])(C([H])([H])C([H])([H])[H])C([H])([H])C([H])([H])C([H])([H])C([H])([H])C([H])([H])C([H])([H])C([H])([H])C([H])([H])C([H])([H])C([H])([H])N([H])C(=O)N3C([H])([H])C([H])([H])C([H])([H])C([H])(n4nc(-c5c([H])c([H])c(Oc6c([H])c([H])c(F)c([H])c6F)c([H])c5[H])c(C(=O)N([H])[H])c4N([H])[H])C3([H])[H])c([H])c([H])c2C1([H])[H]

$$$$
20:0:0
     RDKit          3D

 93102  0  0  1  0  0  0  0  0999 V2000
  -31.4980  -19.9820   20.2280 C   0  0  0  0  0  3  0  0  0  0  0  0
  -29.2300  -20.1850   19.4250 C   0  0  0  0  0  3  0  0  0  0  0  0
  -31.5970  -21.3970   20.2570 C   0  0  0  0  0  3  0  0  0  0  0  0
  -29.3230  -21.5920   19.4560 C   0  0  0  0  0  3  0  0  0  0  0  0
  -30.3200  -19.3410   19.7790 C   0  0  0  0  0  0  0  0  0  0  0  0
  -30.5200  -22.2180   19.8430 C   0  0  0  0  0  0  0  0  0  0  0  0
  -27.9390  -17.2360   19.1090 C   0  0  0  0  0  2  0  0  0  0  0  0
  -29.3200  -17.4020   18.4530 C   0  0  0  0  0  2  0  0  0  0  0  0
  -28.1880  -17.2760   20.6340 C   0  0  0  0  0  2  0  0  0  0  0  0
  -30.2750  -17.7900   19.5950 C   0  0  0  0  0  3  0  0  0  0  0  0
  -29.6900  -16.9960   20.8040 C   0  0  0  0  0  3  0  0  0  0  0  0
  -30.5960  -14.5690   20.2900 C   0  0  0  0  0  0  0  0  0  0  0  0
  -30.3510  -12.4080   19.1090 C   0  0  0  0  0  2  0  0  0  0  0  0
  -29.3640  -12.6260   17.9410 C   0  0  0  0  0  2  0  0  0  0  0  0
  -27.8980  -12.4690   18.4030 C   0  0  0  0  0  2  0  0  0  0  0  0
  -27.5950  -13.2570   19.7040 C   0  0  0  0  0  3  0  0  0  0  0  0
  -28.6830  -12.9930   20.7690 C   0  0  0  0  0  2  0  0  0  0  0  0
  -29.9890  -13.3510   20.1790 N   0  0  0  0  0  0  0  0  0  0  0  0
  -31.7050  -14.8200   19.8110 O   0  0  0  0  0  0  0  0  0  0  0  0
  -29.7790  -15.5100   20.8090 N   0  0  0  0  0  0  0  0  0  0  0  0
  -28.9490  -15.0820   21.1880 H   0  0  0  0  0  0  0  0  0  0  0  0
  -25.2050  -13.8790   20.4540 C   0  0  0  0  0  0  0  0  0  0  0  0
  -24.1430  -13.1090   20.8390 C   0  0  0  0  0  0  0  0  0  0  0  0
  -24.6010  -11.7580   20.7910 C   0  0  0  0  0  0  0  0  0  0  0  0
  -26.2480  -12.9950   20.2020 N   0  0  0  0  0  0  0  0  0  0  0  0
  -25.8850  -11.7150   20.4570 N   0  0  0  0  0  0  0  0  0  0  0  0
  -23.8770  -10.4980   20.9880 C   0  0  0  0  0  0  0  0  0  0  0  0
  -24.3110   -9.5370   21.9260 C   0  0  0  0  0  3  0  0  0  0  0  0
  -23.5870   -8.3400   22.1080 C   0  0  0  0  0  3  0  0  0  0  0  0
  -22.4160   -8.0980   21.3530 C   0  0  0  0  0  0  0  0  0  0  0  0
  -22.0000   -9.0490   20.4050 C   0  0  0  0  0  3  0  0  0  0  0  0
  -22.7250  -10.2370   20.2200 C   0  0  0  0  0  3  0  0  0  0  0  0
  -21.6630   -6.9520   21.4470 O   0  0  0  0  0  0  0  0  0  0  0  0
  -21.5970   -6.2280   22.6100 C   0  0  0  0  0  0  0  0  0  0  0  0
  -21.1260   -6.7940   23.8140 C   0  0  0  0  0  3  0  0  0  0  0  0
  -21.0100   -5.9960   24.9690 C   0  0  0  0  0  3  0  0  0  0  0  0
  -21.3540   -4.6310   24.9200 C   0  0  0  0  0  0  0  0  0  0  0  0
  -21.8180   -4.0640   23.7200 C   0  0  0  0  0  3  0  0  0  0  0  0
  -21.9360   -4.8600   22.5670 C   0  0  0  0  0  0  0  0  0  0  0  0
  -22.3640   -4.3050   21.4080 F   0  0  0  0  0  0  0  0  0  0  0  0
  -21.2340   -3.8600   26.0260 F   0  0  0  0  0  0  0  0  0  0  0  0
  -22.7530  -13.5910   21.1430 C   0  0  0  0  0  0  0  0  0  0  0  0
  -22.0380  -12.8880   22.0130 N   0  0  0  0  0  0  0  0  0  0  0  0
  -22.3110  -14.6250   20.6450 O   0  0  0  0  0  0  0  0  0  0  0  0
  -22.4050  -12.0490   22.4370 H   0  0  0  0  0  0  0  0  0  0  0  0
  -21.1080  -13.1970   22.2600 H   0  0  0  0  0  0  0  0  0  0  0  0
  -25.3560  -15.2490   20.2860 N   0  0  0  0  0  0  0  0  0  0  0  0
  -24.5870  -15.8950   20.4240 H   0  0  0  0  0  0  0  0  0  0  0  0
  -26.2010  -15.7040   19.9660 H   0  0  0  0  0  0  0  0  0  0  0  0
  -30.6840  -23.7370   19.6920 C   0  0  0  0  0  2  0  0  0  0  0  0
  -29.7530  -24.6610   20.5310 C   0  0  0  0  0  2  0  0  0  0  0  0
  -28.5940  -25.3800   19.7790 C   0  0  0  0  0  2  0  0  0  0  0  0
  -28.4950  -26.7520   20.2130 O   0  0  0  0  0  0  0  0  0  0  0  0
  -24.6100  -31.8900   23.2280 C   0  0  0  0  0  0  0  0  0  0  0  0
  -27.2940  -27.4430   20.1640 C   0  0  0  0  0  0  0  0  0  0  0  0
  -23.4150  -30.4800   21.5830 C   0  0  0  0  0  3  0  0  0  0  0  0
  -24.8810  -28.9420   20.1650 C   0  0  0  0  0  0  0  0  0  0  0  0
  -25.9390  -30.8470   21.3940 C   0  0  0  0  0  2  0  0  0  0  0  0
  -26.0330  -29.4720   20.7590 C   0  0  0  0  0  0  0  0  0  0  0  0
  -27.2350  -28.7270   20.7560 C   0  0  0  0  0  3  0  0  0  0  0  0
  -26.1220  -26.9330   19.5560 C   0  0  0  0  0  3  0  0  0  0  0  0
  -24.9210  -27.6730   19.5620 C   0  0  0  0  0  3  0  0  0  0  0  0
  -23.6320  -29.7950   20.2060 C   0  0  0  0  0  2  0  0  0  0  0  0
  -24.6730  -31.0880   22.1280 N   0  0  0  0  0  0  0  0  0  0  0  0
  -23.5260  -32.1590   23.7640 O   0  0  0  0  0  0  0  0  0  0  0  0
  -22.7630  -29.4600   22.5450 C   0  0  0  0  0  0  0  0  0  0  0  0
  -21.4390  -29.2800   22.4200 N   0  0  0  0  0  0  0  0  0  0  0  0
  -23.4480  -28.8320   23.3580 O   0  0  0  0  0  0  0  0  0  0  0  0
  -20.9480  -29.8390   21.7360 H   0  0  0  0  0  0  0  0  0  0  0  0
  -18.0600  -28.1100   22.9380 C   0  0  0  0  0  0  0  0  0  0  0  0
  -20.6220  -28.3430   23.1900 C   0  0  0  0  0  3  0  0  0  0  0  0
  -20.7080  -26.9160   22.5980 C   0  0  0  0  0  2  0  0  0  0  0  0
  -19.5940  -26.6140   21.5910 C   0  0  0  0  0  2  0  0  0  0  0  0
  -18.2180  -26.7650   22.2490 C   0  0  0  0  0  2  0  0  0  0  0  0
  -19.1890  -28.8570   23.3660 C   0  0  0  0  0  0  0  0  0  0  0  0
  -18.9870  -30.1180   23.9710 C   0  0  0  0  0  3  0  0  0  0  0  0
  -17.6880  -30.6300   24.1510 C   0  0  0  0  0  3  0  0  0  0  0  0
  -16.5740  -29.8780   23.7400 C   0  0  0  0  0  3  0  0  0  0  0  0
  -16.7600  -28.6200   23.1410 C   0  0  0  0  0  3  0  0  0  0  0  0
  -25.8920  -32.5260   23.8520 C   0  0  0  0  0  3  0  0  0  0  0  0
  -26.4090  -31.7600   25.1310 C   0  0  1  0  0  0  0  0  0  0  0  0
  -25.3130  -31.5160   26.1940 C   0  0  0  0  0  1  0  0  0  0  0  0
  -27.0010  -30.3860   24.7390 C   0  0  0  0  0  1  0  0  0  0  0  0
  -27.5530  -32.5610   25.7970 C   0  0  0  0  0  1  0  0  0  0  0  0
  -25.5790  -33.9250   24.1760 N   0  0  0  0  0  0  0  0  0  0  0  0
  -25.9170  -34.9750   23.4160 C   0  0  0  0  0  0  0  0  0  0  0  0
  -26.5970  -34.8700   22.3910 O   0  0  0  0  0  0  0  0  0  0  0  0
  -24.9790  -34.0810   24.9730 H   0  0  0  0  0  0  0  0  0  0  0  0
  -24.2000  -36.7700   23.0300 C   0  0  0  0  0  1  0  0  0  0  0  0
  -25.4240  -36.3650   23.8660 C   0  0  0  0  0  3  0  0  0  0  0  0
  -27.5420  -37.2460   24.7390 C   0  0  0  0  0  1  0  0  0  0  0  0
  -26.4610  -37.4150   23.7730 N   0  0  0  0  0  0  0  0  0  0  0  0
  -26.0540  -38.3360   23.9100 H   0  0  0  0  0  0  0  0  0  0  0  0
  1  3  1  0
  2  4  2  0
  2  5  1  0
  4  6  1  0
  5  1  2  0
  6  3  2  0
  7  9  1  0
  8  7  1  0
  8 10  1  0
  9 11  1  0
 10  5  1  0
 10 11  1  0
 11 20  1  0
 12 20  1  0
 13 18  1  0
 14 15  1  0
 14 13  1  0
 16 15  1  0
 16 25  1  0
 16 17  1  0
 18 12  1  0
 18 17  1  0
 19 12  2  0
 20 21  1  0
 22 23  2  0
 23 42  1  0
 24 23  1  0
 24 27  1  0
 25 22  1  0
 25 26  1  0
 26 24  2  0
 27 28  1  0
 28 29  2  0
 30 33  1  0
 30 29  1  0
 31 30  2  0
 32 31  1  0
 32 27  2  0
 33 34  1  0
 34 35  1  0
 35 36  2  0
 37 36  1  0
 37 41  1  0
 38 37  2  0
 39 34  2  0
 39 38  1  0
 40 39  1  0
 42 43  1  0
 43 46  1  0
 43 45  1  0
 44 42  2  0
 47 48  1  0
 47 22  1  0
 49 47  1  0
 50  6  1  0
 50 51  1  0
 52 53  1  0
 52 51  1  0
 54 65  2  0
 55 53  1  0
 55 60  1  0
 56 64  1  0
 56 66  1  0
 57 63  1  0
 57 59  1  0
 58 64  1  0
 59 58  1  0
 60 59  2  0
 61 62  1  0
 61 55  2  0
 62 57  2  0
 63 56  1  0
 64 54  1  0
 66 68  2  0
 67 66  1  0
 69 67  1  0
 70 79  2  0
 70 75  1  0
 71 67  1  0
 71 75  1  0
 72 71  1  0
 73 74  1  0
 73 72  1  0
 74 70  1  0
 75 76  2  0
 76 77  1  0
 78 77  2  0
 79 78  1  0
 80 54  1  0
 80 85  1  0
 80 81  1  0
 81 84  1  1
 81 82  1  0
 83 81  1  0
 85 88  1  0
 86 90  1  0
 86 85  1  0
 87 86  2  0
 90 89  1  0
 92 90  1  0
 92 93  1  0
 92 91  1  0
M  ISO  4  12 100  20 100  52 101  53 101
M  END
>  <TORSDO>  (21) 
F 20

>  <SCORE>  (21) 
-14.053

>  <name>  (21) 
20

>  <ligand_id>  (21) 
20

>  <original_smiles>  (21) 
[H]c1c([H])c([H])c2c(c1[H])C([H])([H])C([H])([H])C([H])([H])C2([H])N([H])C(=O)C1([H])N(C(=O)C([H])(N([H])C(=O)C([H])(N([H])C([H])([H])[H])C([H])([H])[H])C(C([H])([H])[H])(C([H])([H])[H])C([H])([H])[H])C([H])([H])c2c([H])c(OC([H])([H])C([H])([H])C([H])([H])c3c([H])c([H])c(C4([H])C([H])([H])C([H])([H])C([H])([H])C4([H])N([H])C(=O)N4C([H])([H])C([H])([H])C([H])([H])C([H])(n5nc(-c6c([H])c([H])c(Oc7c([H])c([H])c(F)c([H])c7F)c([H])c6[H])c(C(=O)N([H])[H])c5N([H])[H])C4([H])[H])c([H])c3[H])c([H])c([H])c2C1([H])[H]

>  <smiles>  (21) 
[H]c1c([H])c([H])c2c(c1[H])C([H])([H])C([H])([H])C([H])([H])C2([H])N([H])C(=O)C1([H])N(C(=O)C([H])(N([H])C(=O)C([H])(N([H])C([H])([H])[H])C([H])([H])[H])C(C([H])([H])[H])(C([H])([H])[H])C([H])([H])[H])C([H])([H])c2c([H])c(OC([H])([H])C([H])([H])C([H])([H])c3c([H])c([H])c(C4([H])C([H])([H])C([H])([H])C([H])([H])C4([H])N([H])C(=O)N4C([H])([H])C([H])([H])C([H])([H])C([H])(n5nc(-c6c([H])c([H])c(Oc7c([H])c([H])c(F)c([H])c7F)c([H])c6[H])c(C(=O)N([H])[H])c5N([H])[H])C4([H])[H])c([H])c3[H])c([H])c([H])c2C1([H])[H]

$$$$
21:0:0
     RDKit          3D

 96105  0  0  1  0  0  0  0  0999 V2000
  -28.0070  -21.3090   21.9850 C   0  0  0  0  0  3  0  0  0  0  0  0
  -27.0720  -22.2710   22.0980 C   0  0  0  0  0  3  0  0  0  0  0  0
  -27.5850  -21.2030   19.4840 C   0  0  0  0  0  2  0  0  0  0  0  0
  -27.2010  -22.6810   19.6100 C   0  0  0  0  0  2  0  0  0  0  0  0
  -28.4680  -20.7180   20.6560 C   0  0  0  0  0  3  0  0  0  0  0  0
  -26.3910  -22.9160   20.9020 C   0  0  0  0  0  3  0  0  0  0  0  0
  -28.4790  -19.1740   20.6990 C   0  0  0  0  0  2  0  0  0  0  0  0
  -31.8850  -14.8070   19.7990 C   0  0  0  0  0  0  0  0  0  0  0  0
  -31.4520  -12.5060   19.0260 C   0  0  0  0  0  2  0  0  0  0  0  0
  -30.4980  -12.5250   17.8150 C   0  0  0  0  0  2  0  0  0  0  0  0
  -29.0300  -12.5060   18.2830 C   0  0  0  0  0  2  0  0  0  0  0  0
  -28.7370  -13.5640   19.3820 C   0  0  0  0  0  3  0  0  0  0  0  0
  -29.8070  -13.5240   20.4930 C   0  0  0  0  0  2  0  0  0  0  0  0
  -31.1310  -13.6720   19.8660 N   0  0  0  0  0  0  0  0  0  0  0  0
  -32.9820  -14.8330   19.2300 O   0  0  0  0  0  0  0  0  0  0  0  0
  -30.2090  -18.0220   19.2210 C   0  0  0  0  0  2  0  0  0  0  0  0
  -29.9030  -17.3160   21.6420 C   0  0  0  0  0  2  0  0  0  0  0  0
  -31.4540  -17.1210   19.1990 C   0  0  0  0  0  2  0  0  0  0  0  0
  -31.1600  -16.4390   21.4860 C   0  0  0  0  0  2  0  0  0  0  0  0
  -29.8660  -18.5010   20.6490 C   0  0  0  0  0  3  0  0  0  0  0  0
  -31.2630  -15.9720   20.0990 N   0  0  0  0  0  0  0  0  0  0  0  0
  -26.4530  -14.3850   20.2400 C   0  0  0  0  0  0  0  0  0  0  0  0
  -25.3310  -13.7120   20.6400 C   0  0  0  0  0  0  0  0  0  0  0  0
  -25.6450  -12.3220   20.5390 C   0  0  0  0  0  0  0  0  0  0  0  0
  -27.3890  -13.4100   19.9240 N   0  0  0  0  0  0  0  0  0  0  0  0
  -26.9070  -12.1630   20.1590 N   0  0  0  0  0  0  0  0  0  0  0  0
  -24.8010  -11.1350   20.7260 C   0  0  0  0  0  0  0  0  0  0  0  0
  -25.1610  -10.1080   21.6250 C   0  0  0  0  0  3  0  0  0  0  0  0
  -24.3230   -8.9850   21.8010 C   0  0  0  0  0  3  0  0  0  0  0  0
  -23.1110   -8.8830   21.0770 C   0  0  0  0  0  0  0  0  0  0  0  0
  -22.7680   -9.8980   20.1670 C   0  0  0  0  0  3  0  0  0  0  0  0
  -23.6050  -11.0120   19.9900 C   0  0  0  0  0  3  0  0  0  0  0  0
  -22.2480   -7.8170   21.1640 O   0  0  0  0  0  0  0  0  0  0  0  0
  -22.1150   -7.0910   22.3190 C   0  0  0  0  0  0  0  0  0  0  0  0
  -21.7570   -7.6980   23.5440 C   0  0  0  0  0  3  0  0  0  0  0  0
  -21.5630   -6.9040   24.6920 C   0  0  0  0  0  3  0  0  0  0  0  0
  -21.7160   -5.5070   24.6190 C   0  0  0  0  0  0  0  0  0  0  0  0
  -22.0670   -4.9000   23.3990 C   0  0  0  0  0  3  0  0  0  0  0  0
  -22.2620   -5.6900   22.2530 C   0  0  0  0  0  0  0  0  0  0  0  0
  -22.5780   -5.0990   21.0750 F   0  0  0  0  0  0  0  0  0  0  0  0
  -21.5240   -4.7440   25.7190 F   0  0  0  0  0  0  0  0  0  0  0  0
  -24.0070  -14.3180   21.0070 C   0  0  0  0  0  0  0  0  0  0  0  0
  -23.2650  -13.6810   21.9060 N   0  0  0  0  0  0  0  0  0  0  0  0
  -23.6430  -15.3920   20.5290 O   0  0  0  0  0  0  0  0  0  0  0  0
  -23.5700  -12.8100   22.3170 H   0  0  0  0  0  0  0  0  0  0  0  0
  -22.3750  -14.0690   22.1900 H   0  0  0  0  0  0  0  0  0  0  0  0
  -26.7500  -15.7370   20.0980 N   0  0  0  0  0  0  0  0  0  0  0  0
  -26.0680  -16.4620   20.2880 H   0  0  0  0  0  0  0  0  0  0  0  0
  -27.6430  -16.0980   19.7890 H   0  0  0  0  0  0  0  0  0  0  0  0
  -25.9960  -24.3930   21.1220 C   0  0  0  0  0  2  0  0  0  0  0  0
  -27.0940  -25.4580   20.9040 C   0  0  0  0  0  2  0  0  0  0  0  0
  -28.1230  -25.5980   22.0280 C   0  0  0  0  0  0  0  0  0  0  0  0
  -27.7800  -25.6200   23.2120 O   0  0  0  0  0  0  0  0  0  0  0  0
  -29.5950  -25.7240   21.6330 C   0  0  0  0  0  2  0  0  0  0  0  0
  -30.0510  -27.1600   21.2990 C   0  0  0  0  0  2  0  0  0  0  0  0
  -29.5010  -27.6060   20.0570 O   0  0  0  0  0  0  0  0  0  0  0  0
  -24.9160  -31.9030   23.4340 C   0  0  0  0  0  0  0  0  0  0  0  0
  -28.2710  -28.2160   20.1010 C   0  0  0  0  0  0  0  0  0  0  0  0
  -23.9910  -30.5790   21.5580 C   0  0  0  0  0  3  0  0  0  0  0  0
  -25.7100  -29.4010   20.0870 C   0  0  0  0  0  0  0  0  0  0  0  0
  -26.4540  -31.2510   21.5900 C   0  0  0  0  0  2  0  0  0  0  0  0
  -26.7460  -29.9790   20.8280 C   0  0  0  0  0  0  0  0  0  0  0  0
  -28.0260  -29.3890   20.8480 C   0  0  0  0  0  3  0  0  0  0  0  0
  -27.2320  -27.6640   19.3250 C   0  0  0  0  0  3  0  0  0  0  0  0
  -25.9460  -28.2370   19.3320 C   0  0  0  0  0  3  0  0  0  0  0  0
  -24.3660  -30.0940   20.1300 C   0  0  0  0  0  2  0  0  0  0  0  0
  -25.1320  -31.2550   22.2560 N   0  0  0  0  0  0  0  0  0  0  0  0
  -23.7790  -31.9810   23.9210 O   0  0  0  0  0  0  0  0  0  0  0  0
  -23.4130  -29.3830   22.3480 C   0  0  0  0  0  0  0  0  0  0  0  0
  -22.1190  -29.1000   22.1350 N   0  0  0  0  0  0  0  0  0  0  0  0
  -24.1250  -28.7190   23.1040 O   0  0  0  0  0  0  0  0  0  0  0  0
  -21.5990  -29.7050   21.5140 H   0  0  0  0  0  0  0  0  0  0  0  0
  -18.8450  -27.5920   22.3600 C   0  0  0  0  0  0  0  0  0  0  0  0
  -21.3700  -27.9980   22.7370 C   0  0  0  0  0  3  0  0  0  0  0  0
  -21.5960  -26.6800   21.9630 C   0  0  0  0  0  2  0  0  0  0  0  0
  -20.5400  -26.4270   20.8840 C   0  0  0  0  0  2  0  0  0  0  0  0
  -19.1410  -26.3700   21.5050 C   0  0  0  0  0  2  0  0  0  0  0  0
  -19.8930  -28.3620   22.9280 C   0  0  0  0  0  0  0  0  0  0  0  0
  -19.5660  -29.5050   23.6890 C   0  0  0  0  0  3  0  0  0  0  0  0
  -18.2240  -29.8800   23.8870 C   0  0  0  0  0  3  0  0  0  0  0  0
  -17.1890  -29.1050   23.3340 C   0  0  0  0  0  3  0  0  0  0  0  0
  -17.5000  -27.9620   22.5770 C   0  0  0  0  0  3  0  0  0  0  0  0
  -26.0780  -32.5960   24.2130 C   0  0  0  0  0  3  0  0  0  0  0  0
  -25.6480  -33.9650   24.5220 N   0  0  0  0  0  0  0  0  0  0  0  0
  -26.0050  -35.0510   23.8220 C   0  0  0  0  0  0  0  0  0  0  0  0
  -26.7990  -35.0080   22.8790 O   0  0  0  0  0  0  0  0  0  0  0  0
  -24.9500  -34.0680   25.2460 H   0  0  0  0  0  0  0  0  0  0  0  0
  -24.2170  -36.7380   23.2910 C   0  0  0  0  0  1  0  0  0  0  0  0
  -25.3820  -36.3980   24.2350 C   0  0  0  0  0  3  0  0  0  0  0  0
  -27.3560  -37.3890   25.3040 C   0  0  0  0  0  1  0  0  0  0  0  0
  -26.3490  -37.5140   24.2550 N   0  0  0  0  0  0  0  0  0  0  0  0
  -25.8710  -38.4040   24.3800 H   0  0  0  0  0  0  0  0  0  0  0  0
  -26.4930  -31.8260   25.5280 C   0  0  1  0  0  0  0  0  0  0  0  0
  -25.2970  -31.4870   26.4470 C   0  0  0  0  0  1  0  0  0  0  0  0
  -27.2160  -30.5030   25.1830 C   0  0  0  0  0  1  0  0  0  0  0  0
  -27.4930  -32.6790   26.3420 C   0  0  0  0  0  1  0  0  0  0  0  0
  1  2  2  0
  3  4  1  0
  3  5  1  0
  4  6  1  0
  5  7  1  0
  5  1  1  0
  6 50  1  0
  6  2  1  0
  8 14  1  0
  8 21  1  0
  9 14  1  0
 10 11  1  0
 10  9  1  0
 12 11  1  0
 12 25  1  0
 12 13  1  0
 14 13  1  0
 15  8  2  0
 16 20  1  0
 18 16  1  0
 18 21  1  0
 19 17  1  0
 20  7  1  0
 20 17  1  0
 21 19  1  0
 22 23  2  0
 23 42  1  0
 24 23  1  0
 24 27  1  0
 25 26  1  0
 25 22  1  0
 26 24  2  0
 27 28  1  0
 28 29  2  0
 30 33  1  0
 30 29  1  0
 31 30  2  0
 32 31  1  0
 32 27  2  0
 33 34  1  0
 34 35  1  0
 35 36  2  0
 37 36  1  0
 37 41  1  0
 38 37  2  0
 39 34  2  0
 39 38  1  0
 40 39  1  0
 42 43  1  0
 43 46  1  0
 43 45  1  0
 44 42  2  0
 47 22  1  0
 47 48  1  0
 49 47  1  0
 51 50  1  0
 51 52  1  0
 52 53  2  0
 54 52  1  0
 55 54  1  0
 56 58  1  0
 56 55  1  0
 57 68  2  0
 58 63  1  0
 59 67  1  0
 59 69  1  0
 60 66  1  0
 60 62  1  0
 61 67  1  0
 62 63  2  0
 62 61  1  0
 64 65  1  0
 64 58  2  0
 65 60  2  0
 66 59  1  0
 67 57  1  0
 69 71  2  0
 70 69  1  0
 72 70  1  0
 73 82  2  0
 73 78  1  0
 74 70  1  0
 74 78  1  0
 75 74  1  0
 76 77  1  0
 76 75  1  0
 77 73  1  0
 78 79  2  0
 79 80  1  0
 81 80  2  0
 82 81  1  0
 83 57  1  0
 83 84  1  0
 83 93  1  0
 84 87  1  0
 85 89  1  0
 85 84  1  0
 86 85  2  0
 89 88  1  0
 89 91  1  0
 91 92  1  0
 91 90  1  0
 93 96  1  1
 93 94  1  0
 95 93  1  0
M  ISO  4   8 100  21 100  55 101  56 101
M  END
>  <TORSDO>  (22) 
F 22

>  <SCORE>  (22) 
-8.839

>  <name>  (22) 
21

>  <ligand_id>  (22) 
21

>  <original_smiles>  (22) 
[H]C1=C([H])C([H])(C([H])([H])C2([H])C([H])([H])C([H])([H])N(C(=O)N3C([H])([H])C([H])([H])C([H])([H])C([H])(n4nc(-c5c([H])c([H])c(Oc6c([H])c([H])c(F)c([H])c6F)c([H])c5[H])c(C(=O)N([H])[H])c4N([H])[H])C3([H])[H])C([H])([H])C2([H])[H])C([H])([H])C([H])([H])C1([H])C([H])([H])C([H])([H])C(=O)C([H])([H])C([H])([H])Oc1c([H])c([H])c2c(c1[H])C([H])([H])N(C(=O)C([H])(N([H])C(=O)C([H])(N([H])C([H])([H])[H])C([H])([H])[H])C(C([H])([H])[H])(C([H])([H])[H])C([H])([H])[H])C([H])(C(=O)N([H])C1([H])c3c([H])c([H])c([H])c([H])c3C([H])([H])C([H])([H])C1([H])[H])C2([H])[H]

>  <smiles>  (22) 
[H]C1=C([H])C([H])(C([H])([H])C2([H])C([H])([H])C([H])([H])N(C(=O)N3C([H])([H])C([H])([H])C([H])([H])C([H])(n4nc(-c5c([H])c([H])c(Oc6c([H])c([H])c(F)c([H])c6F)c([H])c5[H])c(C(=O)N([H])[H])c4N([H])[H])C3([H])[H])C([H])([H])C2([H])[H])C([H])([H])C([H])([H])C1([H])C([H])([H])C([H])([H])C(=O)C([H])([H])C([H])([H])Oc1c([H])c([H])c2c(c1[H])C([H])([H])N(C(=O)C([H])(N([H])C(=O)C([H])(N([H])C([H])([H])[H])C([H])([H])[H])C(C([H])([H])[H])(C([H])([H])[H])C([H])([H])[H])C([H])(C(=O)N([H])C1([H])c3c([H])c([H])c([H])c([H])c3C([H])([H])C([H])([H])C1([H])[H])C2([H])[H]

$$$$
22:0:0
     RDKit          3D

 96104  0  0  1  0  0  0  0  0999 V2000
  -27.0720  -23.9840   20.0990 C   0  0  0  0  0  0  0  0  0  0  0  0
  -25.8810  -23.1710   19.8630 C   0  0  0  0  0  0  0  0  0  0  0  0
  -28.1000  -23.5690   20.8680 C   0  0  0  0  0  3  0  0  0  0  0  0
  -26.8090  -25.3620   19.5330 C   0  0  0  0  0  2  0  0  0  0  0  0
  -25.2800  -25.4940   19.4600 C   0  0  0  0  0  2  0  0  0  0  0  0
  -24.6860  -24.0700   19.5450 C   0  0  0  0  0  3  0  0  0  0  0  0
  -25.7940  -21.9460   19.9730 O   0  0  0  0  0  0  0  0  0  0  0  0
  -23.8310  -23.6640   18.3220 C   0  0  0  0  0  2  0  0  0  0  0  0
  -22.3670  -24.1490   18.3260 C   0  0  0  0  0  2  0  0  0  0  0  0
  -22.0630  -25.2410   17.2880 C   0  0  0  0  0  2  0  0  0  0  0  0
  -22.9800  -26.4630   17.4250 C   0  0  0  0  0  2  0  0  0  0  0  0
  -23.7980  -26.7030   16.1530 C   0  0  0  0  0  2  0  0  0  0  0  0
  -25.2630  -27.0420   16.4500 C   0  0  0  0  0  2  0  0  0  0  0  0
  -26.2090  -26.3220   15.4840 C   0  0  0  0  0  2  0  0  0  0  0  0
  -27.6230  -26.1370   16.0590 C   0  0  0  0  0  2  0  0  0  0  0  0
  -28.3560  -24.9190   15.4710 C   0  0  0  0  0  2  0  0  0  0  0  0
  -29.0230  -26.0710   13.3600 C   0  0  0  0  0  0  0  0  0  0  0  0
  -30.0440  -26.6830   11.2070 C   0  0  0  0  0  2  0  0  0  0  0  0
  -29.2300  -27.7110   10.4050 C   0  0  0  0  0  2  0  0  0  0  0  0
  -28.1720  -27.0070    9.5400 C   0  0  0  0  0  2  0  0  0  0  0  0
  -27.3150  -26.0070   10.3570 C   0  0  0  0  0  3  0  0  0  0  0  0
  -28.2070  -25.0670   11.2010 C   0  0  0  0  0  2  0  0  0  0  0  0
  -29.1260  -25.8790   12.0240 N   0  0  0  0  0  0  0  0  0  0  0  0
  -29.5110  -27.0360   13.9570 O   0  0  0  0  0  0  0  0  0  0  0  0
  -28.5060  -25.0290   14.0210 N   0  0  0  0  0  0  0  0  0  0  0  0
  -28.2140  -24.2400   13.4620 H   0  0  0  0  0  0  0  0  0  0  0  0
  -25.0260  -25.2930    9.4110 C   0  0  0  0  0  0  0  0  0  0  0  0
  -24.6810  -24.4520    8.3860 C   0  0  0  0  0  0  0  0  0  0  0  0
  -25.9090  -23.9380    7.8680 C   0  0  0  0  0  0  0  0  0  0  0  0
  -26.4110  -25.2550    9.4870 N   0  0  0  0  0  0  0  0  0  0  0  0
  -26.9340  -24.3900    8.5790 N   0  0  0  0  0  0  0  0  0  0  0  0
  -26.1720  -23.0840    6.7020 C   0  0  0  0  0  0  0  0  0  0  0  0
  -27.1040  -22.0240    6.7570 C   0  0  0  0  0  3  0  0  0  0  0  0
  -27.3250  -21.2060    5.6280 C   0  0  0  0  0  3  0  0  0  0  0  0
  -26.6110  -21.4410    4.4300 C   0  0  0  0  0  0  0  0  0  0  0  0
  -25.7010  -22.5120    4.3730 C   0  0  0  0  0  3  0  0  0  0  0  0
  -25.4850  -23.3290    5.4960 C   0  0  0  0  0  3  0  0  0  0  0  0
  -26.7800  -20.7150    3.2750 O   0  0  0  0  0  0  0  0  0  0  0  0
  -27.3740  -19.4790    3.2840 C   0  0  0  0  0  0  0  0  0  0  0  0
  -26.8520  -18.4060    4.0380 C   0  0  0  0  0  3  0  0  0  0  0  0
  -27.4540  -17.1340    3.9630 C   0  0  0  0  0  3  0  0  0  0  0  0
  -28.5690  -16.9300    3.1290 C   0  0  0  0  0  0  0  0  0  0  0  0
  -29.0860  -17.9960    2.3720 C   0  0  0  0  0  3  0  0  0  0  0  0
  -28.4880  -19.2660    2.4470 C   0  0  0  0  0  0  0  0  0  0  0  0
  -28.9780  -20.2830    1.6990 F   0  0  0  0  0  0  0  0  0  0  0  0
  -29.1420  -15.7060    3.0500 F   0  0  0  0  0  0  0  0  0  0  0  0
  -23.2990  -24.2120    7.8530 C   0  0  0  0  0  0  0  0  0  0  0  0
  -23.0250  -22.9980    7.3860 N   0  0  0  0  0  0  0  0  0  0  0  0
  -22.4350  -25.0860    7.8910 O   0  0  0  0  0  0  0  0  0  0  0  0
  -23.7280  -22.2730    7.3730 H   0  0  0  0  0  0  0  0  0  0  0  0
  -22.1000  -22.7900    7.0380 H   0  0  0  0  0  0  0  0  0  0  0  0
  -24.2830  -26.0960   10.2700 N   0  0  0  0  0  0  0  0  0  0  0  0
  -23.2750  -26.1780   10.2000 H   0  0  0  0  0  0  0  0  0  0  0  0
  -24.6820  -26.6980   10.9810 H   0  0  0  0  0  0  0  0  0  0  0  0
  -29.2250  -24.4530   21.3920 C   0  0  0  0  0  2  0  0  0  0  0  0
  -28.9240  -25.0580   22.6580 O   0  0  0  0  0  0  0  0  0  0  0  0
  -24.2690  -28.0490   27.1080 C   0  0  0  0  0  0  0  0  0  0  0  0
  -27.8810  -25.9600   22.7710 C   0  0  0  0  0  0  0  0  0  0  0  0
  -23.8340  -28.4150   24.7030 C   0  0  0  0  0  3  0  0  0  0  0  0
  -25.7210  -27.7550   23.1240 C   0  0  0  0  0  0  0  0  0  0  0  0
  -26.2150  -28.0310   25.5560 C   0  0  0  0  0  2  0  0  0  0  0  0
  -26.5320  -27.4110   24.2120 C   0  0  0  0  0  0  0  0  0  0  0  0
  -27.6060  -26.5100   24.0420 C   0  0  0  0  0  3  0  0  0  0  0  0
  -27.0740  -26.3590   21.6800 C   0  0  0  0  0  3  0  0  0  0  0  0
  -25.9860  -27.2270   21.8530 C   0  0  0  0  0  3  0  0  0  0  0  0
  -24.5870  -28.7200   23.3820 C   0  0  0  0  0  2  0  0  0  0  0  0
  -24.7650  -28.1340   25.8420 N   0  0  0  0  0  0  0  0  0  0  0  0
  -23.0680  -28.2380   27.3400 O   0  0  0  0  0  0  0  0  0  0  0  0
  -22.8250  -27.2740   24.4420 C   0  0  0  0  0  0  0  0  0  0  0  0
  -21.8290  -27.5410   23.5810 N   0  0  0  0  0  0  0  0  0  0  0  0
  -22.9580  -26.1750   24.9850 O   0  0  0  0  0  0  0  0  0  0  0  0
  -21.7840  -28.4690   23.1830 H   0  0  0  0  0  0  0  0  0  0  0  0
  -18.9690  -27.1750   21.4070 C   0  0  0  0  0  0  0  0  0  0  0  0
  -20.7840  -26.6100   23.1560 C   0  0  0  0  0  3  0  0  0  0  0  0
  -21.3270  -25.6000   22.1180 C   0  0  0  0  0  2  0  0  0  0  0  0
  -21.1130  -26.0480   20.6700 C   0  0  0  0  0  2  0  0  0  0  0  0
  -19.6220  -26.2560   20.3880 C   0  0  0  0  0  2  0  0  0  0  0  0
  -19.5250  -27.3530   22.7020 C   0  0  0  0  0  0  0  0  0  0  0  0
  -18.8990  -28.2460   23.5980 C   0  0  0  0  0  3  0  0  0  0  0  0
  -17.7390  -28.9490   23.2230 C   0  0  0  0  0  3  0  0  0  0  0  0
  -17.1830  -28.7550   21.9480 C   0  0  0  0  0  3  0  0  0  0  0  0
  -17.7960  -27.8680   21.0440 C   0  0  0  0  0  3  0  0  0  0  0  0
  -25.1920  -27.7340   28.3270 C   0  0  0  0  0  3  0  0  0  0  0  0
  -25.9870  -26.3800   28.1710 C   0  0  1  0  0  0  0  0  0  0  0  0
  -25.1190  -25.2020   27.6710 C   0  0  0  0  0  1  0  0  0  0  0  0
  -27.1650  -26.5500   27.1840 C   0  0  0  0  0  1  0  0  0  0  0  0
  -26.6050  -25.9770   29.5300 C   0  0  0  0  0  1  0  0  0  0  0  0
  -24.3430  -27.7050   29.5250 N   0  0  0  0  0  0  0  0  0  0  0  0
  -24.2200  -28.7190   30.3930 C   0  0  0  0  0  0  0  0  0  0  0  0
  -24.8750  -29.7610   30.3040 O   0  0  0  0  0  0  0  0  0  0  0  0
  -23.7380  -26.9040   29.6320 H   0  0  0  0  0  0  0  0  0  0  0  0
  -21.8550  -29.1450   31.1290 C   0  0  0  0  0  1  0  0  0  0  0  0
  -23.2100  -28.5500   31.5430 C   0  0  0  0  0  3  0  0  0  0  0  0
  -24.7970  -28.4740   33.4140 C   0  0  0  0  0  1  0  0  0  0  0  0
  -23.6570  -29.1610   32.8130 N   0  0  0  0  0  0  0  0  0  0  0  0
  -22.9010  -29.1730   33.4930 H   0  0  0  0  0  0  0  0  0  0  0  0
  1  3  2  0
  2  7  2  0
  2  1  1  0
  3 55  1  0
  4  1  1  0
  5  4  1  0
  5  6  1  0
  6  8  1  0
  6  2  1  0
  8  9  1  0
 10 11  1  0
 10  9  1  0
 12 13  1  0
 12 11  1  0
 14 15  1  0
 14 13  1  0
 16 15  1  0
 17 24  2  0
 17 25  1  0
 18 23  1  0
 19 18  1  0
 20 21  1  0
 20 19  1  0
 21 30  1  0
 21 22  1  0
 22 23  1  0
 23 17  1  0
 25 16  1  0
 26 25  1  0
 27 30  1  0
 27 52  1  0
 28 27  2  0
 29 28  1  0
 29 31  2  0
 31 30  1  0
 32 33  1  0
 32 29  1  0
 34 33  2  0
 35 34  1  0
 36 35  2  0
 36 37  1  0
 37 32  2  0
 38 39  1  0
 38 35  1  0
 39 40  1  0
 41 40  2  0
 42 41  1  0
 43 44  1  0
 43 42  2  0
 44 39  2  0
 45 44  1  0
 46 42  1  0
 47 49  2  0
 47 28  1  0
 48 47  1  0
 50 48  1  0
 51 48  1  0
 52 54  1  0
 53 52  1  0
 55 56  1  0
 56 58  1  0
 57 68  2  0
 58 63  1  0
 59 69  1  0
 59 67  1  0
 60 66  1  0
 60 62  1  0
 61 67  1  0
 62 61  1  0
 63 62  2  0
 64 65  1  0
 64 58  2  0
 65 60  2  0
 66 59  1  0
 67 57  1  0
 69 71  2  0
 70 69  1  0
 72 70  1  0
 73 78  1  0
 74 70  1  0
 75 74  1  0
 76 75  1  0
 77 76  1  0
 77 73  1  0
 78 74  1  0
 78 79  2  0
 80 79  1  0
 81 80  2  0
 82 73  2  0
 82 81  1  0
 83 57  1  0
 83 88  1  0
 84 83  1  0
 84 87  1  1
 85 84  1  0
 86 84  1  0
 88 91  1  0
 88 89  1  0
 89 93  1  0
 90 89  2  0
 93 92  1  0
 93 95  1  0
 95 94  1  0
 95 96  1  0
M  ISO  4  17 100  25 100  55 101  56 101
M  END
>  <TORSDO>  (23) 
F 26

>  <SCORE>  (23) 
-2.710

>  <name>  (23) 
22

>  <ligand_id>  (23) 
22

>  <original_smiles>  (23) 
[H]C(=C1C(=O)C([H])(C([H])([H])C([H])([H])C([H])([H])C([H])([H])C([H])([H])C([H])([H])C([H])([H])C([H])([H])C([H])([H])N([H])C(=O)N2C([H])([H])C([H])([H])C([H])([H])C([H])(n3nc(-c4c([H])c([H])c(Oc5c([H])c([H])c(F)c([H])c5F)c([H])c4[H])c(C(=O)N([H])[H])c3N([H])[H])C2([H])[H])C([H])([H])C1([H])[H])C([H])([H])Oc1c([H])c([H])c2c(c1[H])C([H])([H])N(C(=O)C([H])(N([H])C(=O)C([H])(N([H])C([H])([H])[H])C([H])([H])[H])C(C([H])([H])[H])(C([H])([H])[H])C([H])([H])[H])C([H])(C(=O)N([H])C1([H])c3c([H])c([H])c([H])c([H])c3C([H])([H])C([H])([H])C1([H])[H])C2([H])[H]

>  <smiles>  (23) 
[H]C(=C1C(=O)C([H])(C([H])([H])C([H])([H])C([H])([H])C([H])([H])C([H])([H])C([H])([H])C([H])([H])C([H])([H])C([H])([H])N([H])C(=O)N2C([H])([H])C([H])([H])C([H])([H])C([H])(n3nc(-c4c([H])c([H])c(Oc5c([H])c([H])c(F)c([H])c5F)c([H])c4[H])c(C(=O)N([H])[H])c3N([H])[H])C2([H])[H])C([H])([H])C1([H])[H])C([H])([H])Oc1c([H])c([H])c2c(c1[H])C([H])([H])N(C(=O)C([H])(N([H])C(=O)C([H])(N([H])C([H])([H])[H])C([H])([H])[H])C(C([H])([H])[H])(C([H])([H])[H])C([H])([H])[H])C([H])(C(=O)N([H])C1([H])c3c([H])c([H])c([H])c([H])c3C([H])([H])C([H])([H])C1([H])[H])C2([H])[H]

$$$$
23:0:0
     RDKit          3D

 89 96  0  0  1  0  0  0  0  0999 V2000
  -30.6000  -24.4510   20.1210 C   0  0  0  0  0  3  0  0  0  0  0  0
  -30.9550  -23.2270   20.0600 N   0  0  0  0  0  0  0  0  0  0  0  0
  -29.9340  -25.1760   18.9700 C   0  0  0  0  0  2  0  0  0  0  0  0
  -28.4830  -25.6000   19.2430 C   0  0  0  0  0  2  0  0  0  0  0  0
  -28.4090  -26.7660   20.0700 O   0  0  0  0  0  0  0  0  0  0  0  0
  -24.5910  -31.8800   23.2400 C   0  0  0  0  0  0  0  0  0  0  0  0
  -27.2070  -27.4470   20.1130 C   0  0  0  0  0  0  0  0  0  0  0  0
  -23.3690  -30.4850   21.6050 C   0  0  0  0  0  3  0  0  0  0  0  0
  -24.8050  -28.9450   20.1730 C   0  0  0  0  0  0  0  0  0  0  0  0
  -25.8940  -30.8370   21.3880 C   0  0  0  0  0  2  0  0  0  0  0  0
  -25.9700  -29.4670   20.7490 C   0  0  0  0  0  0  0  0  0  0  0  0
  -27.1700  -28.7210   20.7230 C   0  0  0  0  0  3  0  0  0  0  0  0
  -26.0100  -26.9270   19.5620 C   0  0  0  0  0  3  0  0  0  0  0  0
  -24.8170  -27.6700   19.5860 C   0  0  0  0  0  3  0  0  0  0  0  0
  -23.5670  -29.8070   20.2240 C   0  0  0  0  0  2  0  0  0  0  0  0
  -24.6370  -31.0820   22.1350 N   0  0  0  0  0  0  0  0  0  0  0  0
  -23.5150  -32.1540   23.7890 O   0  0  0  0  0  0  0  0  0  0  0  0
  -22.7230  -29.4630   22.5680 C   0  0  0  0  0  0  0  0  0  0  0  0
  -21.3990  -29.2760   22.4430 N   0  0  0  0  0  0  0  0  0  0  0  0
  -23.4110  -28.8390   23.3820 O   0  0  0  0  0  0  0  0  0  0  0  0
  -20.9080  -29.8300   21.7540 H   0  0  0  0  0  0  0  0  0  0  0  0
  -18.0300  -28.0690   22.9350 C   0  0  0  0  0  0  0  0  0  0  0  0
  -20.5850  -28.3390   23.2160 C   0  0  0  0  0  3  0  0  0  0  0  0
  -20.6960  -26.9070   22.6480 C   0  0  0  0  0  2  0  0  0  0  0  0
  -19.6000  -26.5730   21.6320 C   0  0  0  0  0  2  0  0  0  0  0  0
  -18.2150  -26.7160   22.2700 C   0  0  0  0  0  2  0  0  0  0  0  0
  -19.1440  -28.8390   23.3660 C   0  0  0  0  0  0  0  0  0  0  0  0
  -18.9180  -30.1050   23.9470 C   0  0  0  0  0  3  0  0  0  0  0  0
  -17.6110  -30.6030   24.1040 C   0  0  0  0  0  3  0  0  0  0  0  0
  -16.5120  -29.8310   23.6900 C   0  0  0  0  0  3  0  0  0  0  0  0
  -16.7210  -28.5660   23.1130 C   0  0  0  0  0  3  0  0  0  0  0  0
  -25.8850  -32.5060   23.8490 C   0  0  0  0  0  3  0  0  0  0  0  0
  -25.5830  -33.9040   24.1840 N   0  0  0  0  0  0  0  0  0  0  0  0
  -25.9170  -34.9550   23.4240 C   0  0  0  0  0  0  0  0  0  0  0  0
  -26.5820  -34.8510   22.3900 O   0  0  0  0  0  0  0  0  0  0  0  0
  -24.9940  -34.0600   24.9870 H   0  0  0  0  0  0  0  0  0  0  0  0
  -24.1930  -36.7520   23.0740 C   0  0  0  0  0  1  0  0  0  0  0  0
  -25.4350  -36.3450   23.8830 C   0  0  0  0  0  3  0  0  0  0  0  0
  -27.5760  -37.2170   24.7080 C   0  0  0  0  0  1  0  0  0  0  0  0
  -26.4710  -37.3950   23.7690 N   0  0  0  0  0  0  0  0  0  0  0  0
  -26.0700  -38.3160   23.9230 H   0  0  0  0  0  0  0  0  0  0  0  0
  -26.4120  -31.7310   25.1190 C   0  0  1  0  0  0  0  0  0  0  0  0
  -25.3290  -31.4950   26.1970 C   0  0  0  0  0  1  0  0  0  0  0  0
  -26.9860  -30.3520   24.7140 C   0  0  0  0  0  1  0  0  0  0  0  0
  -27.5720  -32.5200   25.7700 C   0  0  0  0  0  1  0  0  0  0  0  0
  -31.7240  -22.6890   21.1700 C   0  0  0  0  0  2  0  0  0  0  0  0
  -31.0290  -21.4820   21.8270 C   0  0  0  0  0  2  0  0  0  0  0  0
  -30.8800  -20.2380   20.9240 C   0  0  0  0  0  2  0  0  0  0  0  0
  -30.9270  -18.9310   21.7390 C   0  0  0  0  0  2  0  0  0  0  0  0
  -30.5580  -17.6630   20.9490 C   0  0  0  0  0  2  0  0  0  0  0  0
  -30.8680  -16.3910   21.7630 C   0  0  0  0  0  2  0  0  0  0  0  0
  -30.7300  -14.3810   20.2640 C   0  0  0  0  0  0  0  0  0  0  0  0
  -30.3020  -12.3400   18.9440 C   0  0  0  0  0  2  0  0  0  0  0  0
  -29.3000  -12.6160   17.8070 C   0  0  0  0  0  2  0  0  0  0  0  0
  -27.8470  -12.4840   18.3060 C   0  0  0  0  0  2  0  0  0  0  0  0
  -27.5940  -13.2710   19.6180 C   0  0  0  0  0  3  0  0  0  0  0  0
  -28.6900  -12.9520   20.6570 C   0  0  0  0  0  2  0  0  0  0  0  0
  -30.0000  -13.2570   20.0500 N   0  0  0  0  0  0  0  0  0  0  0  0
  -31.7590  -14.6560   19.6390 O   0  0  0  0  0  0  0  0  0  0  0  0
  -30.2460  -15.1860   21.2180 N   0  0  0  0  0  0  0  0  0  0  0  0
  -29.3940  -14.8730   21.6630 H   0  0  0  0  0  0  0  0  0  0  0  0
  -25.2310  -13.9080   20.4270 C   0  0  0  0  0  0  0  0  0  0  0  0
  -24.1700  -13.1460   20.8370 C   0  0  0  0  0  0  0  0  0  0  0  0
  -24.6130  -11.7900   20.7780 C   0  0  0  0  0  0  0  0  0  0  0  0
  -26.2560  -13.0140   20.1490 N   0  0  0  0  0  0  0  0  0  0  0  0
  -25.8880  -11.7350   20.4130 N   0  0  0  0  0  0  0  0  0  0  0  0
  -23.8830  -10.5340   20.9930 C   0  0  0  0  0  0  0  0  0  0  0  0
  -24.3480   -9.5530   21.8980 C   0  0  0  0  0  3  0  0  0  0  0  0
  -23.6190   -8.3620   22.0990 C   0  0  0  0  0  3  0  0  0  0  0  0
  -22.4100   -8.1430   21.3970 C   0  0  0  0  0  0  0  0  0  0  0  0
  -21.9630   -9.1120   20.4810 C   0  0  0  0  0  3  0  0  0  0  0  0
  -22.6930  -10.2940   20.2770 C   0  0  0  0  0  3  0  0  0  0  0  0
  -21.6480   -7.0050   21.5090 O   0  0  0  0  0  0  0  0  0  0  0  0
  -21.6520   -6.2470   22.6530 C   0  0  0  0  0  0  0  0  0  0  0  0
  -21.3120   -6.7930   23.9090 C   0  0  0  0  0  3  0  0  0  0  0  0
  -21.2600   -5.9630   25.0480 C   0  0  0  0  0  3  0  0  0  0  0  0
  -21.5370   -4.5870   24.9290 C   0  0  0  0  0  0  0  0  0  0  0  0
  -21.8710   -4.0420   23.6770 C   0  0  0  0  0  3  0  0  0  0  0  0
  -21.9250   -4.8690   22.5420 C   0  0  0  0  0  0  0  0  0  0  0  0
  -22.2260   -4.3340   21.3350 F   0  0  0  0  0  0  0  0  0  0  0  0
  -21.4800   -3.7880   26.0190 F   0  0  0  0  0  0  0  0  0  0  0  0
  -22.7910  -13.6380   21.1720 C   0  0  0  0  0  0  0  0  0  0  0  0
  -22.0930  -12.9450   22.0660 N   0  0  0  0  0  0  0  0  0  0  0  0
  -22.3410  -14.6700   20.6770 O   0  0  0  0  0  0  0  0  0  0  0  0
  -22.4710  -12.1110   22.4910 H   0  0  0  0  0  0  0  0  0  0  0  0
  -21.1690  -13.2540   22.3310 H   0  0  0  0  0  0  0  0  0  0  0  0
  -25.4070  -15.2770   20.2510 N   0  0  0  0  0  0  0  0  0  0  0  0
  -24.6590  -15.9460   20.4050 H   0  0  0  0  0  0  0  0  0  0  0  0
  -26.2550  -15.7060   19.9040 H   0  0  0  0  0  0  0  0  0  0  0  0
  2  1  2  0
  2 46  1  0
  3  4  1  0
  3  1  1  0
  4  5  1  0
  5  7  1  0
  6 17  2  0
  7 12  1  0
  8 16  1  0
  8 18  1  0
  9 15  1  0
  9 11  1  0
 10 16  1  0
 11 10  1  0
 12 11  2  0
 13 14  1  0
 13  7  2  0
 14  9  2  0
 15  8  1  0
 16  6  1  0
 18 20  2  0
 19 18  1  0
 21 19  1  0
 22 31  2  0
 22 27  1  0
 23 19  1  0
 23 27  1  0
 24 23  1  0
 25 26  1  0
 25 24  1  0
 26 22  1  0
 27 28  2  0
 28 29  1  0
 30 29  2  0
 31 30  1  0
 32  6  1  0
 32 33  1  0
 32 42  1  0
 33 36  1  0
 34 38  1  0
 34 33  1  0
 35 34  2  0
 38 37  1  0
 40 38  1  0
 40 41  1  0
 40 39  1  0
 42 45  1  1
 42 43  1  0
 44 42  1  0
 46 47  1  0
 48 49  1  0
 48 47  1  0
 50 49  1  0
 50 51  1  0
 52 60  1  0
 53 58  1  0
 54 55  1  0
 54 53  1  0
 56 55  1  0
 56 65  1  0
 56 57  1  0
 58 52  1  0
 58 57  1  0
 59 52  2  0
 60 61  1  0
 60 51  1  0
 62 63  2  0
 63 82  1  0
 64 63  1  0
 64 67  1  0
 65 66  1  0
 65 62  1  0
 66 64  2  0
 67 68  1  0
 68 69  2  0
 70 73  1  0
 70 69  1  0
 71 70  2  0
 72 71  1  0
 72 67  2  0
 73 74  1  0
 74 75  1  0
 75 76  2  0
 77 76  1  0
 77 81  1  0
 78 77  2  0
 79 74  2  0
 79 78  1  0
 80 79  1  0
 82 83  1  0
 83 86  1  0
 83 85  1  0
 84 82  2  0
 87 88  1  0
 87 62  1  0
 89 87  1  0
M  ISO  4   4 101   5 101  52 100  60 100
M  END
>  <TORSDO>  (24) 
F 24

>  <SCORE>  (24) 
-12.220

>  <name>  (24) 
23

>  <ligand_id>  (24) 
23

>  <original_smiles>  (24) 
[H]C(=NC([H])([H])C([H])([H])C([H])([H])C([H])([H])C([H])([H])C([H])([H])N([H])C(=O)N1C([H])([H])C([H])([H])C([H])([H])C([H])(n2nc(-c3c([H])c([H])c(Oc4c([H])c([H])c(F)c([H])c4F)c([H])c3[H])c(C(=O)N([H])[H])c2N([H])[H])C1([H])[H])C([H])([H])C([H])([H])Oc1c([H])c([H])c2c(c1[H])C([H])([H])N(C(=O)C([H])(N([H])C(=O)C([H])(N([H])C([H])([H])[H])C([H])([H])[H])C(C([H])([H])[H])(C([H])([H])[H])C([H])([H])[H])C([H])(C(=O)N([H])C1([H])c3c([H])c([H])c([H])c([H])c3C([H])([H])C([H])([H])C1([H])[H])C2([H])[H]

>  <smiles>  (24) 
[H]C(=NC([H])([H])C([H])([H])C([H])([H])C([H])([H])C([H])([H])C([H])([H])N([H])C(=O)N1C([H])([H])C([H])([H])C([H])([H])C([H])(n2nc(-c3c([H])c([H])c(Oc4c([H])c([H])c(F)c([H])c4F)c([H])c3[H])c(C(=O)N([H])[H])c2N([H])[H])C1([H])[H])C([H])([H])C([H])([H])Oc1c([H])c([H])c2c(c1[H])C([H])([H])N(C(=O)C([H])(N([H])C(=O)C([H])(N([H])C([H])([H])[H])C([H])([H])[H])C(C([H])([H])[H])(C([H])([H])[H])C([H])([H])[H])C([H])(C(=O)N([H])C1([H])c3c([H])c([H])c([H])c([H])c3C([H])([H])C([H])([H])C1([H])[H])C2([H])[H]

$$$$
24:0:0
     RDKit          3D

 91 98  0  0  1  0  0  0  0  0999 V2000
  -29.2930  -23.2190   18.8990 N   0  0  0  0  0  4  0  0  0  0  0  0
  -28.3720  -23.5490   18.6550 H   0  0  0  0  0  0  0  0  0  0  0  0
  -29.8120  -23.1070   18.0430 H   0  0  0  0  0  0  0  0  0  0  0  0
  -29.9950  -24.2140   19.7460 C   0  0  0  0  0  2  0  0  0  0  0  0
  -30.2190  -25.5760   19.0540 C   0  0  0  0  0  2  0  0  0  0  0  0
  -28.9430  -26.4040   18.8410 C   0  0  0  0  0  2  0  0  0  0  0  0
  -28.4360  -26.7870   20.1110 O   0  0  0  0  0  0  0  0  0  0  0  0
  -24.6250  -31.8930   23.2160 C   0  0  0  0  0  0  0  0  0  0  0  0
  -27.2570  -27.4880   20.1040 C   0  0  0  0  0  0  0  0  0  0  0  0
  -23.4020  -30.4880   21.5870 C   0  0  0  0  0  3  0  0  0  0  0  0
  -24.8450  -28.9510   20.1500 C   0  0  0  0  0  0  0  0  0  0  0  0
  -25.9190  -30.8570   21.3600 C   0  0  0  0  0  2  0  0  0  0  0  0
  -26.0030  -29.4850   20.7280 C   0  0  0  0  0  0  0  0  0  0  0  0
  -27.2070  -28.7550   20.7180 C   0  0  0  0  0  3  0  0  0  0  0  0
  -26.0850  -26.9510   19.5260 C   0  0  0  0  0  3  0  0  0  0  0  0
  -24.8800  -27.6780   19.5480 C   0  0  0  0  0  3  0  0  0  0  0  0
  -23.5970  -29.8030   20.2060 C   0  0  0  0  0  2  0  0  0  0  0  0
  -24.6680  -31.0920   22.1140 N   0  0  0  0  0  0  0  0  0  0  0  0
  -23.5500  -32.1640   23.7690 O   0  0  0  0  0  0  0  0  0  0  0  0
  -22.7650  -29.4650   22.5560 C   0  0  0  0  0  0  0  0  0  0  0  0
  -21.4400  -29.2820   22.4420 N   0  0  0  0  0  0  0  0  0  0  0  0
  -23.4580  -28.8430   23.3630 O   0  0  0  0  0  0  0  0  0  0  0  0
  -20.9410  -29.8400   21.7620 H   0  0  0  0  0  0  0  0  0  0  0  0
  -18.0730  -28.0870   22.9630 C   0  0  0  0  0  0  0  0  0  0  0  0
  -20.6310  -28.3470   23.2220 C   0  0  0  0  0  3  0  0  0  0  0  0
  -20.7320  -26.9150   22.6520 C   0  0  0  0  0  2  0  0  0  0  0  0
  -19.6270  -26.5850   21.6440 C   0  0  0  0  0  2  0  0  0  0  0  0
  -18.2470  -26.7350   22.2950 C   0  0  0  0  0  2  0  0  0  0  0  0
  -19.1920  -28.8520   23.3850 C   0  0  0  0  0  0  0  0  0  0  0  0
  -18.9770  -30.1190   23.9680 C   0  0  0  0  0  3  0  0  0  0  0  0
  -17.6720  -30.6210   24.1370 C   0  0  0  0  0  3  0  0  0  0  0  0
  -16.5660  -29.8540   23.7330 C   0  0  0  0  0  3  0  0  0  0  0  0
  -16.7680  -28.5890   23.1510 C   0  0  0  0  0  3  0  0  0  0  0  0
  -25.9210  -32.5250   23.8190 C   0  0  0  0  0  3  0  0  0  0  0  0
  -26.4640  -31.7450   25.0770 C   0  0  1  0  0  0  0  0  0  0  0  0
  -25.3930  -31.4930   26.1630 C   0  0  0  0  0  1  0  0  0  0  0  0
  -27.0460  -30.3770   24.6560 C   0  0  0  0  0  1  0  0  0  0  0  0
  -27.6230  -32.5380   25.7270 C   0  0  0  0  0  1  0  0  0  0  0  0
  -25.6130  -33.9190   24.1650 N   0  0  0  0  0  0  0  0  0  0  0  0
  -25.9310  -34.9780   23.4090 C   0  0  0  0  0  0  0  0  0  0  0  0
  -26.5870  -34.8850   22.3680 O   0  0  0  0  0  0  0  0  0  0  0  0
  -25.0340  -34.0640   24.9790 H   0  0  0  0  0  0  0  0  0  0  0  0
  -24.1920  -36.7620   23.0880 C   0  0  0  0  0  1  0  0  0  0  0  0
  -25.4440  -36.3600   23.8840 C   0  0  0  0  0  3  0  0  0  0  0  0
  -27.5850  -37.2430   24.6940 C   0  0  0  0  0  1  0  0  0  0  0  0
  -26.4700  -37.4170   23.7690 N   0  0  0  0  0  0  0  0  0  0  0  0
  -26.0610  -38.3320   23.9340 H   0  0  0  0  0  0  0  0  0  0  0  0
  -29.1370  -21.8940   19.5400 C   0  0  0  0  0  2  0  0  0  0  0  0
  -29.0290  -20.7510   18.5110 C   0  0  0  0  0  2  0  0  0  0  0  0
  -28.5430  -19.4130   19.1030 C   0  0  0  0  0  2  0  0  0  0  0  0
  -29.3500  -18.8880   20.3110 C   0  0  0  0  0  2  0  0  0  0  0  0
  -29.4840  -17.3610   20.2740 C   0  0  0  0  0  2  0  0  0  0  0  0
  -30.1560  -16.7300   21.5090 C   0  0  0  0  0  2  0  0  0  0  0  0
  -30.6550  -14.4230   20.6340 C   0  0  0  0  0  0  0  0  0  0  0  0
  -30.3780  -12.3350   19.3480 C   0  0  0  0  0  2  0  0  0  0  0  0
  -29.4290  -12.5730   18.1540 C   0  0  0  0  0  2  0  0  0  0  0  0
  -27.9490  -12.4260   18.5630 C   0  0  0  0  0  2  0  0  0  0  0  0
  -27.6170  -13.2160   19.8560 C   0  0  0  0  0  3  0  0  0  0  0  0
  -28.6580  -12.9210   20.9600 C   0  0  0  0  0  2  0  0  0  0  0  0
  -29.9940  -13.2510   20.4290 N   0  0  0  0  0  0  0  0  0  0  0  0
  -31.7070  -14.7200   20.0570 O   0  0  0  0  0  0  0  0  0  0  0  0
  -30.0150  -15.2750   21.4500 N   0  0  0  0  0  0  0  0  0  0  0  0
  -29.2150  -14.8960   21.9370 H   0  0  0  0  0  0  0  0  0  0  0  0
  -25.2090  -13.8410   20.5150 C   0  0  0  0  0  0  0  0  0  0  0  0
  -24.1350  -13.0770   20.8790 C   0  0  0  0  0  0  0  0  0  0  0  0
  -24.5900  -11.7230   20.8690 C   0  0  0  0  0  0  0  0  0  0  0  0
  -26.2530  -12.9530   20.3120 N   0  0  0  0  0  0  0  0  0  0  0  0
  -25.8820  -11.6740   20.5760 N   0  0  0  0  0  0  0  0  0  0  0  0
  -23.8590  -10.4640   21.0630 C   0  0  0  0  0  0  0  0  0  0  0  0
  -24.3030   -9.4900   21.9840 C   0  0  0  0  0  3  0  0  0  0  0  0
  -23.5740   -8.2960   22.1680 C   0  0  0  0  0  3  0  0  0  0  0  0
  -22.3880   -8.0710   21.4250 C   0  0  0  0  0  0  0  0  0  0  0  0
  -21.9650   -9.0320   20.4910 C   0  0  0  0  0  3  0  0  0  0  0  0
  -22.6950  -10.2190   20.3080 C   0  0  0  0  0  3  0  0  0  0  0  0
  -21.6240   -6.9320   21.5170 O   0  0  0  0  0  0  0  0  0  0  0  0
  -21.6030   -6.1680   22.6570 C   0  0  0  0  0  0  0  0  0  0  0  0
  -21.2350   -6.7050   23.9100 C   0  0  0  0  0  3  0  0  0  0  0  0
  -21.1680   -5.8680   25.0400 C   0  0  0  0  0  3  0  0  0  0  0  0
  -21.4510   -4.4930   24.9170 C   0  0  0  0  0  0  0  0  0  0  0  0
  -21.8150   -3.9550   23.6710 C   0  0  0  0  0  3  0  0  0  0  0  0
  -21.8870   -4.7900   22.5430 C   0  0  0  0  0  0  0  0  0  0  0  0
  -22.2130   -4.2640   21.3380 F   0  0  0  0  0  0  0  0  0  0  0  0
  -21.3750   -3.6890   26.0020 F   0  0  0  0  0  0  0  0  0  0  0  0
  -22.7400  -13.5590   21.1400 C   0  0  0  0  0  0  0  0  0  0  0  0
  -22.0050  -12.8720   22.0100 N   0  0  0  0  0  0  0  0  0  0  0  0
  -22.3090  -14.5810   20.6080 O   0  0  0  0  0  0  0  0  0  0  0  0
  -22.3640  -12.0460   22.4630 H   0  0  0  0  0  0  0  0  0  0  0  0
  -21.0680  -13.1790   22.2220 H   0  0  0  0  0  0  0  0  0  0  0  0
  -25.3790  -15.2110   20.3290 N   0  0  0  0  0  0  0  0  0  0  0  0
  -24.6080  -15.8650   20.4190 H   0  0  0  0  0  0  0  0  0  0  0  0
  -26.2420  -15.6570   20.0480 H   0  0  0  0  0  0  0  0  0  0  0  0
  1 48  1  0
  1  4  1  0
  2  1  1  0
  3  1  1  0
  5  4  1  0
  6  5  1  0
  6  7  1  0
  8 19  2  0
  9  7  1  0
  9 14  1  0
 10 18  1  0
 10 20  1  0
 11 17  1  0
 11 13  1  0
 12 18  1  0
 13 12  1  0
 14 13  2  0
 15 16  1  0
 15  9  2  0
 16 11  2  0
 17 10  1  0
 18  8  1  0
 20 22  2  0
 21 20  1  0
 23 21  1  0
 24 33  2  0
 24 29  1  0
 25 21  1  0
 25 29  1  0
 26 25  1  0
 27 28  1  0
 27 26  1  0
 28 24  1  0
 29 30  2  0
 30 31  1  0
 32 31  2  0
 33 32  1  0
 34  8  1  0
 34 39  1  0
 34 35  1  0
 35 38  1  1
 35 36  1  0
 37 35  1  0
 39 42  1  0
 40 44  1  0
 40 39  1  0
 41 40  2  0
 44 43  1  0
 46 44  1  0
 46 47  1  0
 46 45  1  0
 49 50  1  0
 49 48  1  0
 50 51  1  0
 52 51  1  0
 52 53  1  0
 54 62  1  0
 55 60  1  0
 56 57  1  0
 56 55  1  0
 58 57  1  0
 58 67  1  0
 58 59  1  0
 60 54  1  0
 60 59  1  0
 61 54  2  0
 62 53  1  0
 62 63  1  0
 64 65  2  0
 65 84  1  0
 66 65  1  0
 66 69  1  0
 67 64  1  0
 67 68  1  0
 68 66  2  0
 69 70  1  0
 70 71  2  0
 72 75  1  0
 72 71  1  0
 73 72  2  0
 74 73  1  0
 74 69  2  0
 75 76  1  0
 76 77  1  0
 77 78  2  0
 79 78  1  0
 79 83  1  0
 80 79  2  0
 81 76  2  0
 81 80  1  0
 82 81  1  0
 84 85  1  0
 85 88  1  0
 85 87  1  0
 86 84  2  0
 89 90  1  0
 89 64  1  0
 91 89  1  0
M  ISO  4   6 101   7 101  54 100  62 100
M  END
>  <TORSDO>  (25) 
F 25

>  <SCORE>  (25) 
-12.077

>  <name>  (25) 
24

>  <ligand_id>  (25) 
24

>  <original_smiles>  (25) 
[H]c1c([H])c([H])c2c(c1[H])C([H])([H])C([H])([H])C([H])([H])C2([H])N([H])C(=O)C1([H])N(C(=O)C([H])(N([H])C(=O)C([H])(N([H])C([H])([H])[H])C([H])([H])[H])C(C([H])([H])[H])(C([H])([H])[H])C([H])([H])[H])C([H])([H])c2c([H])c(OC([H])([H])C([H])([H])C([H])([H])[N+]([H])([H])C([H])([H])C([H])([H])C([H])([H])C([H])([H])C([H])([H])C([H])([H])N([H])C(=O)N3C([H])([H])C([H])([H])C([H])([H])C([H])(n4nc(-c5c([H])c([H])c(Oc6c([H])c([H])c(F)c([H])c6F)c([H])c5[H])c(C(=O)N([H])[H])c4N([H])[H])C3([H])[H])c([H])c([H])c2C1([H])[H]

>  <smiles>  (25) 
[H]c1c([H])c([H])c2c(c1[H])C([H])([H])C([H])([H])C([H])([H])C2([H])N([H])C(=O)C1([H])N(C(=O)C([H])(N([H])C(=O)C([H])(N([H])C([H])([H])[H])C([H])([H])[H])C(C([H])([H])[H])(C([H])([H])[H])C([H])([H])[H])C([H])([H])c2c([H])c(OC([H])([H])C([H])([H])C([H])([H])[N+]([H])([H])C([H])([H])C([H])([H])C([H])([H])C([H])([H])C([H])([H])C([H])([H])N([H])C(=O)N3C([H])([H])C([H])([H])C([H])([H])C([H])(n4nc(-c5c([H])c([H])c(Oc6c([H])c([H])c(F)c([H])c6F)c([H])c5[H])c(C(=O)N([H])[H])c4N([H])[H])C3([H])[H])c([H])c([H])c2C1([H])[H]

$$$$
25:0:0
     RDKit          3D

 99106  0  0  1  0  0  0  0  0999 V2000
  -32.7700  -26.1050   21.4260 N   0  0  0  0  0  4  0  0  0  0  0  0
  -32.6470  -25.1440   21.1560 H   0  0  0  0  0  0  0  0  0  0  0  0
  -33.7620  -26.2780   21.4830 H   0  0  0  0  0  0  0  0  0  0  0  0
  -32.2070  -26.9750   20.3660 C   0  0  0  0  0  3  0  0  0  0  0  0
  -33.5600  -25.9080   18.4180 C   0  0  0  0  0  1  0  0  0  0  0  0
  -32.8660  -28.3430   18.2970 C   0  0  0  0  0  1  0  0  0  0  0  0
  -33.2450  -27.1800   19.2280 C   0  0  0  0  0  3  0  0  0  0  0  0
  -30.8190  -26.4530   19.8950 C   0  0  0  0  0  2  0  0  0  0  0  0
  -29.6610  -27.4020   20.2370 C   0  0  0  0  0  2  0  0  0  0  0  0
  -28.4200  -26.7480   19.9770 O   0  0  0  0  0  0  0  0  0  0  0  0
  -24.6080  -31.8720   23.2150 C   0  0  0  0  0  0  0  0  0  0  0  0
  -27.2690  -27.4970   20.0750 C   0  0  0  0  0  0  0  0  0  0  0  0
  -23.3940  -30.4910   21.5520 C   0  0  0  0  0  3  0  0  0  0  0  0
  -24.8460  -28.9570   20.1240 C   0  0  0  0  0  0  0  0  0  0  0  0
  -25.9140  -30.8580   21.3560 C   0  0  0  0  0  2  0  0  0  0  0  0
  -25.9990  -29.4920   20.7090 C   0  0  0  0  0  0  0  0  0  0  0  0
  -27.2090  -28.7730   20.6870 C   0  0  0  0  0  3  0  0  0  0  0  0
  -26.0930  -26.9590   19.5130 C   0  0  0  0  0  3  0  0  0  0  0  0
  -24.8830  -27.6820   19.5290 C   0  0  0  0  0  3  0  0  0  0  0  0
  -23.6010  -29.8140   20.1690 C   0  0  0  0  0  2  0  0  0  0  0  0
  -24.6560  -31.0880   22.1000 N   0  0  0  0  0  0  0  0  0  0  0  0
  -23.5290  -32.1470   23.7560 O   0  0  0  0  0  0  0  0  0  0  0  0
  -22.7380  -29.4660   22.5030 C   0  0  0  0  0  0  0  0  0  0  0  0
  -21.4120  -29.3020   22.3770 N   0  0  0  0  0  0  0  0  0  0  0  0
  -23.4170  -28.8200   23.3060 O   0  0  0  0  0  0  0  0  0  0  0  0
  -20.9270  -29.8820   21.7060 H   0  0  0  0  0  0  0  0  0  0  0  0
  -18.0260  -28.1360   22.8460 C   0  0  0  0  0  0  0  0  0  0  0  0
  -20.5840  -28.3630   23.1330 C   0  0  0  0  0  3  0  0  0  0  0  0
  -20.6740  -26.9370   22.5420 C   0  0  0  0  0  2  0  0  0  0  0  0
  -19.5730  -26.6370   21.5180 C   0  0  0  0  0  2  0  0  0  0  0  0
  -18.1900  -26.7910   22.1580 C   0  0  0  0  0  2  0  0  0  0  0  0
  -19.1510  -28.8810   23.2890 C   0  0  0  0  0  0  0  0  0  0  0  0
  -18.9450  -30.1410   23.8890 C   0  0  0  0  0  3  0  0  0  0  0  0
  -17.6450  -30.6550   24.0550 C   0  0  0  0  0  3  0  0  0  0  0  0
  -16.5340  -29.9050   23.6310 C   0  0  0  0  0  3  0  0  0  0  0  0
  -16.7260  -28.6480   23.0310 C   0  0  0  0  0  3  0  0  0  0  0  0
  -25.9010  -32.4840   23.8450 C   0  0  0  0  0  3  0  0  0  0  0  0
  -25.5890  -33.8640   24.2370 N   0  0  0  0  0  0  0  0  0  0  0  0
  -25.9020  -34.9480   23.5150 C   0  0  0  0  0  0  0  0  0  0  0  0
  -26.5560  -34.8910   22.4700 O   0  0  0  0  0  0  0  0  0  0  0  0
  -25.0120  -33.9840   25.0560 H   0  0  0  0  0  0  0  0  0  0  0  0
  -24.1470  -36.7310   23.2640 C   0  0  0  0  0  1  0  0  0  0  0  0
  -25.4100  -36.3120   24.0350 C   0  0  0  0  0  3  0  0  0  0  0  0
  -27.5580  -37.1800   24.8480 C   0  0  0  0  0  1  0  0  0  0  0  0
  -26.4290  -37.3790   23.9410 N   0  0  0  0  0  0  0  0  0  0  0  0
  -26.0180  -38.2860   24.1410 H   0  0  0  0  0  0  0  0  0  0  0  0
  -26.4480  -31.6600   25.0740 C   0  0  1  0  0  0  0  0  0  0  0  0
  -25.3780  -31.3670   26.1510 C   0  0  0  0  0  1  0  0  0  0  0  0
  -27.0330  -30.3060   24.6050 C   0  0  0  0  0  1  0  0  0  0  0  0
  -27.6080  -32.4320   25.7470 C   0  0  0  0  0  1  0  0  0  0  0  0
  -32.2020  -26.3240   22.7750 C   0  0  0  0  0  2  0  0  0  0  0  0
  -32.5780  -25.1980   23.7510 C   0  0  0  0  0  2  0  0  0  0  0  0
  -31.7550  -23.9180   23.5340 C   0  0  0  0  0  2  0  0  0  0  0  0
  -32.1520  -22.8030   24.5070 C   0  0  0  0  0  2  0  0  0  0  0  0
  -31.3710  -21.5090   24.2610 C   0  0  0  0  0  2  0  0  0  0  0  0
  -31.8210  -20.3790   25.2020 C   0  0  0  0  0  2  0  0  0  0  0  0
  -31.0720  -19.0560   24.9770 C   0  0  0  0  0  2  0  0  0  0  0  0
  -31.4610  -18.3750   23.6520 C   0  0  0  0  0  2  0  0  0  0  0  0
  -30.7400  -17.1070   23.4390 N   0  0  0  0  0  4  0  0  0  0  0  0
  -30.9180  -16.4940   24.2190 H   0  0  0  0  0  0  0  0  0  0  0  0
  -29.7520  -17.3020   23.4140 H   0  0  0  0  0  0  0  0  0  0  0  0
  -31.1350  -16.4250   22.1860 C   0  0  0  0  0  2  0  0  0  0  0  0
  -30.2430  -15.2110   21.8890 C   0  0  0  0  0  2  0  0  0  0  0  0
  -30.7380  -14.3330   20.7270 C   0  0  0  0  0  0  0  0  0  0  0  0
  -30.4220  -12.2900   19.3670 C   0  0  0  0  0  2  0  0  0  0  0  0
  -29.4800  -12.5410   18.1770 C   0  0  0  0  0  2  0  0  0  0  0  0
  -28.0030  -12.3920   18.5960 C   0  0  0  0  0  2  0  0  0  0  0  0
  -27.6680  -13.1930   19.8820 C   0  0  0  0  0  3  0  0  0  0  0  0
  -28.7060  -12.8910   20.9840 C   0  0  0  0  0  2  0  0  0  0  0  0
  -30.0410  -13.2050   20.4500 N   0  0  0  0  0  0  0  0  0  0  0  0
  -31.7530  -14.6610   20.1000 O   0  0  0  0  0  0  0  0  0  0  0  0
  -25.2620  -13.8140   20.5660 C   0  0  0  0  0  0  0  0  0  0  0  0
  -24.1850  -13.0430   20.9160 C   0  0  0  0  0  0  0  0  0  0  0  0
  -24.6380  -11.6890   20.8720 C   0  0  0  0  0  0  0  0  0  0  0  0
  -26.3040  -12.9280   20.3380 N   0  0  0  0  0  0  0  0  0  0  0  0
  -25.9300  -11.6450   20.5740 N   0  0  0  0  0  0  0  0  0  0  0  0
  -23.9040  -10.4290   21.0400 C   0  0  0  0  0  0  0  0  0  0  0  0
  -24.3600   -9.4210   21.9190 C   0  0  0  0  0  3  0  0  0  0  0  0
  -23.6280   -8.2240   22.0760 C   0  0  0  0  0  3  0  0  0  0  0  0
  -22.4270   -8.0280   21.3550 C   0  0  0  0  0  0  0  0  0  0  0  0
  -21.9890   -9.0250   20.4650 C   0  0  0  0  0  3  0  0  0  0  0  0
  -22.7220  -10.2130   20.3060 C   0  0  0  0  0  3  0  0  0  0  0  0
  -21.6630   -6.8880   21.4240 O   0  0  0  0  0  0  0  0  0  0  0  0
  -21.6850   -6.0740   22.5280 C   0  0  0  0  0  0  0  0  0  0  0  0
  -21.4010   -6.5640   23.8220 C   0  0  0  0  0  3  0  0  0  0  0  0
  -21.3660   -5.6790   24.9180 C   0  0  0  0  0  3  0  0  0  0  0  0
  -21.6050   -4.3060   24.7230 C   0  0  0  0  0  0  0  0  0  0  0  0
  -21.8820   -3.8150   23.4350 C   0  0  0  0  0  3  0  0  0  0  0  0
  -21.9190   -4.6970   22.3400 C   0  0  0  0  0  0  0  0  0  0  0  0
  -22.1660   -4.2150   21.0980 F   0  0  0  0  0  0  0  0  0  0  0  0
  -21.5630   -3.4540   25.7740 F   0  0  0  0  0  0  0  0  0  0  0  0
  -22.7880  -13.5250   21.1830 C   0  0  0  0  0  0  0  0  0  0  0  0
  -22.0500  -12.8250   22.0390 N   0  0  0  0  0  0  0  0  0  0  0  0
  -22.3580  -14.5550   20.6690 O   0  0  0  0  0  0  0  0  0  0  0  0
  -22.4090  -11.9890   22.4760 H   0  0  0  0  0  0  0  0  0  0  0  0
  -21.1130  -13.1300   22.2590 H   0  0  0  0  0  0  0  0  0  0  0  0
  -25.4360  -15.1850   20.4080 N   0  0  0  0  0  0  0  0  0  0  0  0
  -24.6720  -15.8440   20.5120 H   0  0  0  0  0  0  0  0  0  0  0  0
  -26.2940  -15.6220   20.0940 H   0  0  0  0  0  0  0  0  0  0  0  0
  1  3  1  0
  1 51  1  0
  2  1  1  0
  4  8  1  0
  4  1  1  0
  5  7  1  0
  6  7  1  0
  7  4  1  0
  8  9  1  0
 10 12  1  0
 10  9  1  0
 11 22  2  0
 12 17  1  0
 13 21  1  0
 13 23  1  0
 14 20  1  0
 14 16  1  0
 15 21  1  0
 16 15  1  0
 17 16  2  0
 18 19  1  0
 18 12  2  0
 19 14  2  0
 20 13  1  0
 21 11  1  0
 23 25  2  0
 24 23  1  0
 26 24  1  0
 27 36  2  0
 27 32  1  0
 28 24  1  0
 28 32  1  0
 29 28  1  0
 30 31  1  0
 30 29  1  0
 31 27  1  0
 32 33  2  0
 33 34  1  0
 35 34  2  0
 36 35  1  0
 37 11  1  0
 37 38  1  0
 37 47  1  0
 38 41  1  0
 39 43  1  0
 39 38  1  0
 40 39  2  0
 43 42  1  0
 45 43  1  0
 45 46  1  0
 45 44  1  0
 47 50  1  1
 47 48  1  0
 49 47  1  0
 51 52  1  0
 53 52  1  0
 53 54  1  0
 55 54  1  0
 55 56  1  0
 57 56  1  0
 58 57  1  0
 59 58  1  0
 59 60  1  0
 61 59  1  0
 62 59  1  0
 63 62  1  0
 64 63  1  0
 65 70  1  0
 66 67  1  0
 66 65  1  0
 68 67  1  0
 68 75  1  0
 68 69  1  0
 70 64  1  0
 70 69  1  0
 71 64  2  0
 72 73  2  0
 73 92  1  0
 74 73  1  0
 74 77  1  0
 75 72  1  0
 75 76  1  0
 76 74  2  0
 77 78  1  0
 78 79  2  0
 80 83  1  0
 80 79  1  0
 81 80  2  0
 82 81  1  0
 82 77  2  0
 83 84  1  0
 84 85  1  0
 85 86  2  0
 87 86  1  0
 87 91  1  0
 88 87  2  0
 89 84  2  0
 89 88  1  0
 90 89  1  0
 92 93  1  0
 93 96  1  0
 93 95  1  0
 94 92  2  0
 97 98  1  0
 97 72  1  0
 99 97  1  0
M  ISO  4   9 101  10 101  63 100  64 100
M  END
>  <TORSDO>  (26) 
F 31

>  <SCORE>  (26) 
5.935

>  <name>  (26) 
25

>  <ligand_id>  (26) 
25

>  <original_smiles>  (26) 
[H]c1c([H])c([H])c2c(c1[H])C([H])([H])C([H])([H])C([H])([H])C2([H])N([H])C(=O)C1([H])N(C(=O)C([H])(N([H])C(=O)C([H])(N([H])C([H])([H])[H])C([H])([H])[H])C(C([H])([H])[H])(C([H])([H])[H])C([H])([H])[H])C([H])([H])c2c([H])c(OC([H])([H])C([H])([H])C([H])(C([H])(C([H])([H])[H])C([H])([H])[H])[N+]([H])([H])C([H])([H])C([H])([H])C([H])([H])C([H])([H])C([H])([H])C([H])([H])C([H])([H])C([H])([H])[N+]([H])([H])C([H])([H])C([H])([H])C(=O)N3C([H])([H])C([H])([H])C([H])([H])C([H])(n4nc(-c5c([H])c([H])c(Oc6c([H])c([H])c(F)c([H])c6F)c([H])c5[H])c(C(=O)N([H])[H])c4N([H])[H])C3([H])[H])c([H])c([H])c2C1([H])[H]

>  <smiles>  (26) 
[H]c1c([H])c([H])c2c(c1[H])C([H])([H])C([H])([H])C([H])([H])C2([H])N([H])C(=O)C1([H])N(C(=O)C([H])(N([H])C(=O)C([H])(N([H])C([H])([H])[H])C([H])([H])[H])C(C([H])([H])[H])(C([H])([H])[H])C([H])([H])[H])C([H])([H])c2c([H])c(OC([H])([H])C([H])([H])C([H])(C([H])(C([H])([H])[H])C([H])([H])[H])[N+]([H])([H])C([H])([H])C([H])([H])C([H])([H])C([H])([H])C([H])([H])C([H])([H])C([H])([H])C([H])([H])[N+]([H])([H])C([H])([H])C([H])([H])C(=O)N3C([H])([H])C([H])([H])C([H])([H])C([H])(n4nc(-c5c([H])c([H])c(Oc6c([H])c([H])c(F)c([H])c6F)c([H])c5[H])c(C(=O)N([H])[H])c4N([H])[H])C3([H])[H])c([H])c([H])c2C1([H])[H]

$$$$
26:0:0
     RDKit          3D

 96103  0  0  1  0  0  0  0  0999 V2000
  -28.0980  -24.0280   20.9530 C   0  0  0  0  0  2  0  0  0  0  0  0
  -28.2120  -22.6120   21.5350 C   0  0  0  0  0  0  0  0  0  0  0  0
  -27.6050  -21.6180   20.8720 N   0  0  0  0  0  0  0  0  0  0  0  0
  -28.9010  -22.4050   22.5360 O   0  0  0  0  0  0  0  0  0  0  0  0
  -27.0760  -21.8510   20.0420 H   0  0  0  0  0  0  0  0  0  0  0  0
  -27.8260  -20.1990   21.1450 C   0  0  0  0  0  2  0  0  0  0  0  0
  -28.9920  -19.6860   20.2800 C   0  0  0  0  0  2  0  0  0  0  0  0
  -29.6960  -18.4790   20.9030 C   0  0  0  0  0  2  0  0  0  0  0  0
  -30.8870  -17.9800   20.0700 C   0  0  0  0  0  2  0  0  0  0  0  0
  -31.7530  -16.9850   20.8680 C   0  0  0  0  0  2  0  0  0  0  0  0
  -31.6860  -14.6370   20.0710 C   0  0  0  0  0  0  0  0  0  0  0  0
  -31.1800  -12.4770   18.9980 C   0  0  0  0  0  2  0  0  0  0  0  0
  -30.2400  -12.6870   17.7920 C   0  0  0  0  0  2  0  0  0  0  0  0
  -28.7680  -12.6690   18.2450 C   0  0  0  0  0  2  0  0  0  0  0  0
  -28.5100  -13.5920   19.4660 C   0  0  0  0  0  3  0  0  0  0  0  0
  -29.5610  -13.3720   20.5780 C   0  0  0  0  0  2  0  0  0  0  0  0
  -30.9020  -13.5290   19.9860 N   0  0  0  0  0  0  0  0  0  0  0  0
  -32.7470  -14.7600   19.4550 O   0  0  0  0  0  0  0  0  0  0  0  0
  -31.2000  -15.6330   20.8210 N   0  0  0  0  0  0  0  0  0  0  0  0
  -30.3410  -15.4560   21.3200 H   0  0  0  0  0  0  0  0  0  0  0  0
  -26.1860  -14.3940   20.2180 C   0  0  0  0  0  0  0  0  0  0  0  0
  -25.0630  -13.7070   20.6050 C   0  0  0  0  0  0  0  0  0  0  0  0
  -25.4140  -12.3240   20.5710 C   0  0  0  0  0  0  0  0  0  0  0  0
  -27.1510  -13.4310   19.9740 N   0  0  0  0  0  0  0  0  0  0  0  0
  -26.6920  -12.1800   20.2420 N   0  0  0  0  0  0  0  0  0  0  0  0
  -24.5900  -11.1250   20.7750 C   0  0  0  0  0  0  0  0  0  0  0  0
  -24.9360  -10.1390   21.7260 C   0  0  0  0  0  3  0  0  0  0  0  0
  -24.1140   -9.0070   21.9130 C   0  0  0  0  0  3  0  0  0  0  0  0
  -22.9330   -8.8510   21.1500 C   0  0  0  0  0  0  0  0  0  0  0  0
  -22.6050   -9.8240   20.1910 C   0  0  0  0  0  3  0  0  0  0  0  0
  -23.4250  -10.9480   20.0020 C   0  0  0  0  0  3  0  0  0  0  0  0
  -22.0900   -7.7700   21.2490 O   0  0  0  0  0  0  0  0  0  0  0  0
  -21.9360   -7.0800   22.4250 C   0  0  0  0  0  0  0  0  0  0  0  0
  -21.5280   -7.7210   23.6140 C   0  0  0  0  0  3  0  0  0  0  0  0
  -21.3120   -6.9630   24.7830 C   0  0  0  0  0  3  0  0  0  0  0  0
  -21.5000   -5.5680   24.7640 C   0  0  0  0  0  0  0  0  0  0  0  0
  -21.9020   -4.9280   23.5790 C   0  0  0  0  0  3  0  0  0  0  0  0
  -22.1160   -5.6810   22.4120 C   0  0  0  0  0  0  0  0  0  0  0  0
  -22.4820   -5.0570   21.2660 F   0  0  0  0  0  0  0  0  0  0  0  0
  -21.2880   -4.8400   25.8850 F   0  0  0  0  0  0  0  0  0  0  0  0
  -23.7180  -14.3020   20.8960 C   0  0  0  0  0  0  0  0  0  0  0  0
  -22.9530  -13.6840   21.7940 N   0  0  0  0  0  0  0  0  0  0  0  0
  -23.3510  -15.3480   20.3650 O   0  0  0  0  0  0  0  0  0  0  0  0
  -23.2620  -12.8420   22.2570 H   0  0  0  0  0  0  0  0  0  0  0  0
  -22.0490  -14.0680   22.0260 H   0  0  0  0  0  0  0  0  0  0  0  0
  -26.4600  -15.7430   20.0330 N   0  0  0  0  0  0  0  0  0  0  0  0
  -25.7580  -16.4660   20.1580 H   0  0  0  0  0  0  0  0  0  0  0  0
  -27.3520  -16.1020   19.7130 H   0  0  0  0  0  0  0  0  0  0  0  0
  -28.1860  -25.1610   22.0160 C   0  0  0  0  0  3  0  0  0  0  0  0
  -28.9480  -26.3940   21.4580 C   0  0  0  0  0  2  0  0  0  0  0  0
  -28.4770  -26.8600   20.1910 O   0  0  0  0  0  0  0  0  0  0  0  0
  -24.5930  -31.9480   23.3190 C   0  0  0  0  0  0  0  0  0  0  0  0
  -27.3370  -27.6190   20.2040 C   0  0  0  0  0  0  0  0  0  0  0  0
  -23.4330  -30.5620   21.6340 C   0  0  0  0  0  3  0  0  0  0  0  0
  -24.9240  -29.0760   20.2020 C   0  0  0  0  0  0  0  0  0  0  0  0
  -25.9520  -30.9620   21.4800 C   0  0  0  0  0  2  0  0  0  0  0  0
  -26.0640  -29.6060   20.8190 C   0  0  0  0  0  0  0  0  0  0  0  0
  -27.2760  -28.8880   20.8200 C   0  0  0  0  0  3  0  0  0  0  0  0
  -26.1890  -27.1000   19.5760 C   0  0  0  0  0  3  0  0  0  0  0  0
  -24.9780  -27.8130   19.5840 C   0  0  0  0  0  3  0  0  0  0  0  0
  -23.6670  -29.9120   20.2460 C   0  0  0  0  0  2  0  0  0  0  0  0
  -24.6790  -31.1690   22.2050 N   0  0  0  0  0  0  0  0  0  0  0  0
  -23.4970  -32.1980   23.8400 O   0  0  0  0  0  0  0  0  0  0  0  0
  -22.7830  -29.5100   22.5570 C   0  0  0  0  0  0  0  0  0  0  0  0
  -21.4610  -29.3340   22.4160 N   0  0  0  0  0  0  0  0  0  0  0  0
  -23.4670  -28.8610   23.3560 O   0  0  0  0  0  0  0  0  0  0  0  0
  -20.9620  -29.9230   21.7630 H   0  0  0  0  0  0  0  0  0  0  0  0
  -18.0940  -28.1260   22.8250 C   0  0  0  0  0  0  0  0  0  0  0  0
  -20.6440  -28.3790   23.1620 C   0  0  0  0  0  3  0  0  0  0  0  0
  -20.7560  -26.9540   22.5820 C   0  0  0  0  0  2  0  0  0  0  0  0
  -19.7080  -26.6670   21.5040 C   0  0  0  0  0  2  0  0  0  0  0  0
  -18.2870  -26.8270   22.0580 C   0  0  0  0  0  2  0  0  0  0  0  0
  -19.2030  -28.8720   23.3060 C   0  0  0  0  0  0  0  0  0  0  0  0
  -18.9690  -30.1150   23.9360 C   0  0  0  0  0  3  0  0  0  0  0  0
  -17.6580  -30.5960   24.1100 C   0  0  0  0  0  3  0  0  0  0  0  0
  -16.5620  -29.8390   23.6590 C   0  0  0  0  0  3  0  0  0  0  0  0
  -16.7850  -28.6030   23.0270 C   0  0  0  0  0  3  0  0  0  0  0  0
  -25.8610  -32.5870   23.9740 C   0  0  0  0  0  3  0  0  0  0  0  0
  -26.3610  -31.8230   25.2590 C   0  0  1  0  0  0  0  0  0  0  0  0
  -25.2450  -31.5720   26.2960 C   0  0  0  0  0  1  0  0  0  0  0  0
  -26.9590  -30.4490   24.8810 C   0  0  0  0  0  1  0  0  0  0  0  0
  -27.5010  -32.6250   25.9390 C   0  0  0  0  0  1  0  0  0  0  0  0
  -25.5350  -33.9810   24.2940 N   0  0  0  0  0  0  0  0  0  0  0  0
  -25.8850  -35.0360   23.5450 C   0  0  0  0  0  0  0  0  0  0  0  0
  -26.5850  -34.9360   22.5340 O   0  0  0  0  0  0  0  0  0  0  0  0
  -24.8940  -34.1390   25.0560 H   0  0  0  0  0  0  0  0  0  0  0  0
  -24.1540  -36.8210   23.1550 C   0  0  0  0  0  1  0  0  0  0  0  0
  -25.3750  -36.4160   23.9940 C   0  0  0  0  0  3  0  0  0  0  0  0
  -27.4820  -37.3090   24.8780 C   0  0  0  0  0  1  0  0  0  0  0  0
  -26.4000  -37.4770   23.9120 N   0  0  0  0  0  0  0  0  0  0  0  0
  -25.9830  -38.3930   24.0560 H   0  0  0  0  0  0  0  0  0  0  0  0
  -26.8650  -25.5440   22.7520 C   0  0  0  0  0  3  0  0  0  0  0  0
  -27.1940  -26.3210   24.0490 C   0  0  0  0  0  3  0  0  0  0  0  0
  -27.4590  -25.7310   25.1030 O   0  0  0  0  0  0  0  0  0  0  0  0
  -26.0550  -24.4100   23.0560 O   0  0  0  0  0  0  0  0  0  0  0  0
  -25.2460  -24.7310   23.4430 H   0  0  0  0  0  0  0  0  0  0  0  0
  1  2  1  0
  2  4  2  0
  3  6  1  0
  3  2  1  0
  5  3  1  0
  7  8  1  0
  7  6  1  0
  9 10  1  0
  9  8  1  0
 11 19  1  0
 12 17  1  0
 13 14  1  0
 13 12  1  0
 15 14  1  0
 15 24  1  0
 15 16  1  0
 17 11  1  0
 17 16  1  0
 18 11  2  0
 19 10  1  0
 19 20  1  0
 21 22  2  0
 22 41  1  0
 23 22  1  0
 23 26  1  0
 24 21  1  0
 24 25  1  0
 25 23  2  0
 26 27  1  0
 27 28  2  0
 29 32  1  0
 29 28  1  0
 30 29  2  0
 31 30  1  0
 31 26  2  0
 32 33  1  0
 33 34  1  0
 34 35  2  0
 36 35  1  0
 36 40  1  0
 37 36  2  0
 38 33  2  0
 38 37  1  0
 39 38  1  0
 41 42  1  0
 42 45  1  0
 42 44  1  0
 43 41  2  0
 46 47  1  0
 46 21  1  0
 48 46  1  0
 49  1  1  0
 49 92  1  0
 50 49  1  0
 51 53  1  0
 51 50  1  0
 52 63  2  0
 53 58  1  0
 54 62  1  0
 54 64  1  0
 55 61  1  0
 55 57  1  0
 56 62  1  0
 57 58  2  0
 57 56  1  0
 59 60  1  0
 59 53  2  0
 60 55  2  0
 61 54  1  0
 62 52  1  0
 64 66  2  0
 65 64  1  0
 67 65  1  0
 68 77  2  0
 68 73  1  0
 69 65  1  0
 69 73  1  0
 70 69  1  0
 71 72  1  0
 71 70  1  0
 72 68  1  0
 73 74  2  0
 74 75  1  0
 76 75  2  0
 77 76  1  0
 78 52  1  0
 78 83  1  0
 78 79  1  0
 79 82  1  1
 79 80  1  0
 81 79  1  0
 83 86  1  0
 84 88  1  0
 84 83  1  0
 85 84  2  0
 88 87  1  0
 90 88  1  0
 90 91  1  0
 90 89  1  0
 92 95  1  0
 92 93  1  0
 93 94  2  0
 95 96  1  0
M  ISO  4  11 100  19 100  50 101  51 101
M  END
>  <TORSDO>  (27) 
F 27

>  <SCORE>  (27) 
-10.393

>  <name>  (27) 
26

>  <ligand_id>  (27) 
26

>  <original_smiles>  (27) 
[H]OC([H])(C([H])=O)C([H])(C([H])([H])Oc1c([H])c([H])c2c(c1[H])C([H])([H])N(C(=O)C([H])(N([H])C(=O)C([H])(N([H])C([H])([H])[H])C([H])([H])[H])C(C([H])([H])[H])(C([H])([H])[H])C([H])([H])[H])C([H])(C(=O)N([H])C1([H])c3c([H])c([H])c([H])c([H])c3C([H])([H])C([H])([H])C1([H])[H])C2([H])[H])C([H])([H])C(=O)N([H])C([H])([H])C([H])([H])C([H])([H])C([H])([H])C([H])([H])N([H])C(=O)N1C([H])([H])C([H])([H])C([H])([H])C([H])(n2nc(-c3c([H])c([H])c(Oc4c([H])c([H])c(F)c([H])c4F)c([H])c3[H])c(C(=O)N([H])[H])c2N([H])[H])C1([H])[H]

>  <smiles>  (27) 
[H]OC([H])(C([H])=O)C([H])(C([H])([H])Oc1c([H])c([H])c2c(c1[H])C([H])([H])N(C(=O)C([H])(N([H])C(=O)C([H])(N([H])C([H])([H])[H])C([H])([H])[H])C(C([H])([H])[H])(C([H])([H])[H])C([H])([H])[H])C([H])(C(=O)N([H])C1([H])c3c([H])c([H])c([H])c([H])c3C([H])([H])C([H])([H])C1([H])[H])C2([H])[H])C([H])([H])C(=O)N([H])C([H])([H])C([H])([H])C([H])([H])C([H])([H])C([H])([H])N([H])C(=O)N1C([H])([H])C([H])([H])C([H])([H])C([H])(n2nc(-c3c([H])c([H])c(Oc4c([H])c([H])c(F)c([H])c4F)c([H])c3[H])c(C(=O)N([H])[H])c2N([H])[H])C1([H])[H]

$$$$
27:0:0
     RDKit          3D

 93100  0  0  1  0  0  0  0  0999 V2000
  -27.1730  -24.4760   21.8860 C   0  0  0  0  0  3  0  0  0  0  0  0
  -25.7690  -24.9450   21.4210 C   0  0  0  0  0  2  0  0  0  0  0  0
  -24.6380  -23.9630   21.7580 C   0  0  0  0  0  2  0  0  0  0  0  0
  -22.3090  -23.6670   21.7880 C   0  0  0  0  0  1  0  0  0  0  0  0
  -23.3810  -24.5200   21.4110 O   0  0  0  0  0  0  0  0  0  0  0  0
  -28.1900  -25.6390   21.9560 C   0  0  0  0  0  2  0  0  0  0  0  0
  -28.8740  -26.0140   20.6180 C   0  0  0  0  0  2  0  0  0  0  0  0
  -28.9860  -27.4310   20.4540 O   0  0  0  0  0  0  0  0  0  0  0  0
  -24.8440  -32.1160   23.7780 C   0  0  0  0  0  0  0  0  0  0  0  0
  -27.7940  -28.1140   20.4150 C   0  0  0  0  0  0  0  0  0  0  0  0
  -23.7690  -30.8430   21.9480 C   0  0  0  0  0  3  0  0  0  0  0  0
  -25.3450  -29.5090   20.4530 C   0  0  0  0  0  0  0  0  0  0  0  0
  -26.2800  -31.3140   21.9080 C   0  0  0  0  0  2  0  0  0  0  0  0
  -26.4500  -30.0180   21.1460 C   0  0  0  0  0  0  0  0  0  0  0  0
  -27.6780  -29.3270   21.1260 C   0  0  0  0  0  3  0  0  0  0  0  0
  -26.6790  -27.6240   19.6990 C   0  0  0  0  0  3  0  0  0  0  0  0
  -25.4530  -28.3110   19.7270 C   0  0  0  0  0  3  0  0  0  0  0  0
  -24.0680  -30.3110   20.5200 C   0  0  0  0  0  2  0  0  0  0  0  0
  -24.9790  -31.4320   22.6070 N   0  0  0  0  0  0  0  0  0  0  0  0
  -23.7270  -32.3010   24.2830 O   0  0  0  0  0  0  0  0  0  0  0  0
  -23.1090  -29.7130   22.7720 C   0  0  0  0  0  0  0  0  0  0  0  0
  -21.8130  -29.4680   22.5180 N   0  0  0  0  0  0  0  0  0  0  0  0
  -23.7620  -29.0660   23.5940 O   0  0  0  0  0  0  0  0  0  0  0  0
  -21.3500  -30.0460   21.8310 H   0  0  0  0  0  0  0  0  0  0  0  0
  -18.4940  -28.0370   22.6050 C   0  0  0  0  0  0  0  0  0  0  0  0
  -20.9930  -28.4310   23.1450 C   0  0  0  0  0  3  0  0  0  0  0  0
  -21.2450  -27.0560   22.4880 C   0  0  0  0  0  2  0  0  0  0  0  0
  -20.2670  -26.7460   21.3490 C   0  0  0  0  0  2  0  0  0  0  0  0
  -18.8260  -26.7500   21.8700 C   0  0  0  0  0  2  0  0  0  0  0  0
  -19.5130  -28.8340   23.1900 C   0  0  0  0  0  0  0  0  0  0  0  0
  -19.1530  -30.0380   23.8320 C   0  0  0  0  0  3  0  0  0  0  0  0
  -17.8070  -30.4450   23.9010 C   0  0  0  0  0  3  0  0  0  0  0  0
  -16.8020  -29.6440   23.3320 C   0  0  0  0  0  3  0  0  0  0  0  0
  -17.1460  -28.4420   22.6900 C   0  0  0  0  0  3  0  0  0  0  0  0
  -26.0740  -32.7170   24.5260 C   0  0  0  0  0  3  0  0  0  0  0  0
  -26.4690  -31.9130   25.8260 C   0  0  1  0  0  0  0  0  0  0  0  0
  -25.2770  -31.6340   26.7700 C   0  0  0  0  0  1  0  0  0  0  0  0
  -27.1060  -30.5550   25.4490 C   0  0  0  0  0  1  0  0  0  0  0  0
  -27.5370  -32.6990   26.6220 C   0  0  0  0  0  1  0  0  0  0  0  0
  -25.7530  -34.1130   24.8540 N   0  0  0  0  0  0  0  0  0  0  0  0
  -26.1690  -35.1730   24.1490 C   0  0  0  0  0  0  0  0  0  0  0  0
  -26.9300  -35.0780   23.1820 O   0  0  0  0  0  0  0  0  0  0  0  0
  -25.0910  -34.2650   25.6010 H   0  0  0  0  0  0  0  0  0  0  0  0
  -24.5020  -36.9920   23.6670 C   0  0  0  0  0  1  0  0  0  0  0  0
  -25.6580  -36.5600   24.5830 C   0  0  0  0  0  3  0  0  0  0  0  0
  -27.7250  -37.3950   25.6120 C   0  0  0  0  0  1  0  0  0  0  0  0
  -26.7090  -37.6010   24.5840 N   0  0  0  0  0  0  0  0  0  0  0  0
  -26.3050  -38.5250   24.7170 H   0  0  0  0  0  0  0  0  0  0  0  0
  -27.7120  -23.2900   21.0540 C   0  0  0  0  0  2  0  0  0  0  0  0
  -27.5470  -21.9290   21.7560 C   0  0  0  0  0  2  0  0  0  0  0  0
  -27.5870  -20.7460   20.7830 C   0  0  0  0  0  2  0  0  0  0  0  0
  -29.0060  -20.3410   20.3650 C   0  0  0  0  0  2  0  0  0  0  0  0
  -29.0230  -18.9350   19.7540 C   0  0  0  0  0  2  0  0  0  0  0  0
  -30.3510  -18.1980   19.9630 C   0  0  0  0  0  2  0  0  0  0  0  0
  -30.1580  -16.6830   19.8350 C   0  0  0  0  0  2  0  0  0  0  0  0
  -31.7840  -14.8450   19.6330 C   0  0  0  0  0  0  0  0  0  0  0  0
  -31.3980  -12.4660   19.1170 C   0  0  0  0  0  2  0  0  0  0  0  0
  -30.4220  -12.3180   17.9360 C   0  0  0  0  0  2  0  0  0  0  0  0
  -28.9620  -12.3220   18.4310 C   0  0  0  0  0  2  0  0  0  0  0  0
  -28.6660  -13.5030   19.3940 C   0  0  0  0  0  3  0  0  0  0  0  0
  -29.7510  -13.5950   20.4910 C   0  0  0  0  0  2  0  0  0  0  0  0
  -31.0620  -13.7080   19.8290 N   0  0  0  0  0  0  0  0  0  0  0  0
  -32.8400  -14.8750   19.0000 O   0  0  0  0  0  0  0  0  0  0  0  0
  -31.3590  -15.9560   20.2440 N   0  0  0  0  0  0  0  0  0  0  0  0
  -32.1280  -16.5870   20.4200 H   0  0  0  0  0  0  0  0  0  0  0  0
  -26.4560  -14.4280   20.3390 C   0  0  0  0  0  0  0  0  0  0  0  0
  -25.3020  -13.8050   20.7330 C   0  0  0  0  0  0  0  0  0  0  0  0
  -25.5290  -12.4060   20.5570 C   0  0  0  0  0  0  0  0  0  0  0  0
  -27.3220  -13.4150   19.9570 N   0  0  0  0  0  0  0  0  0  0  0  0
  -26.7700  -12.1890   20.1400 N   0  0  0  0  0  0  0  0  0  0  0  0
  -24.6180  -11.2640   20.7040 C   0  0  0  0  0  0  0  0  0  0  0  0
  -24.9520  -10.1560   21.5150 C   0  0  0  0  0  3  0  0  0  0  0  0
  -24.0540   -9.0750   21.6530 C   0  0  0  0  0  3  0  0  0  0  0  0
  -22.8080   -9.0970   20.9830 C   0  0  0  0  0  0  0  0  0  0  0  0
  -22.4910  -10.1920   20.1590 C   0  0  0  0  0  3  0  0  0  0  0  0
  -23.3880  -11.2640   20.0180 C   0  0  0  0  0  3  0  0  0  0  0  0
  -21.8840   -8.0830   21.0410 O   0  0  0  0  0  0  0  0  0  0  0  0
  -21.7750   -7.2710   22.1410 C   0  0  0  0  0  0  0  0  0  0  0  0
  -21.5240   -7.7900   23.4300 C   0  0  0  0  0  3  0  0  0  0  0  0
  -21.3510   -6.9150   24.5190 C   0  0  0  0  0  3  0  0  0  0  0  0
  -21.4190   -5.5230   24.3230 C   0  0  0  0  0  0  0  0  0  0  0  0
  -21.6630   -5.0030   23.0380 C   0  0  0  0  0  3  0  0  0  0  0  0
  -21.8390   -5.8760   21.9500 C   0  0  0  0  0  0  0  0  0  0  0  0
  -22.0540   -5.3700   20.7120 F   0  0  0  0  0  0  0  0  0  0  0  0
  -21.2420   -4.6800   25.3670 F   0  0  0  0  0  0  0  0  0  0  0  0
  -24.0250  -14.4720   21.1580 C   0  0  0  0  0  0  0  0  0  0  0  0
  -23.2600  -13.8330   22.0380 N   0  0  0  0  0  0  0  0  0  0  0  0
  -23.7200  -15.5910   20.7470 O   0  0  0  0  0  0  0  0  0  0  0  0
  -23.5160  -12.9230   22.3910 H   0  0  0  0  0  0  0  0  0  0  0  0
  -22.4040  -14.2610   22.3600 H   0  0  0  0  0  0  0  0  0  0  0  0
  -26.8310  -15.7670   20.2620 N   0  0  0  0  0  0  0  0  0  0  0  0
  -26.1980  -16.5180   20.5110 H   0  0  0  0  0  0  0  0  0  0  0  0
  -27.7250  -16.1030   19.9240 H   0  0  0  0  0  0  0  0  0  0  0  0
  1 49  1  0
  1  6  1  0
  2  3  1  0
  2  1  1  0
  5  3  1  0
  5  4  1  0
  7  6  1  0
  8  7  1  0
  9 20  2  0
 10  8  1  0
 10 15  1  0
 11 19  1  0
 11 21  1  0
 12 18  1  0
 12 14  1  0
 13 19  1  0
 14 13  1  0
 15 14  2  0
 16 17  1  0
 16 10  2  0
 17 12  2  0
 18 11  1  0
 19  9  1  0
 21 23  2  0
 22 21  1  0
 24 22  1  0
 25 34  2  0
 25 30  1  0
 26 22  1  0
 26 30  1  0
 27 26  1  0
 28 29  1  0
 28 27  1  0
 29 25  1  0
 30 31  2  0
 31 32  1  0
 33 32  2  0
 34 33  1  0
 35  9  1  0
 35 40  1  0
 35 36  1  0
 36 39  1  1
 36 37  1  0
 38 36  1  0
 40 43  1  0
 41 45  1  0
 41 40  1  0
 42 41  2  0
 45 44  1  0
 45 47  1  0
 47 48  1  0
 47 46  1  0
 49 50  1  0
 51 50  1  0
 52 51  1  0
 53 54  1  0
 53 52  1  0
 55 54  1  0
 55 64  1  0
 56 62  1  0
 56 64  1  0
 57 62  1  0
 58 59  1  0
 58 57  1  0
 60 59  1  0
 60 69  1  0
 60 61  1  0
 62 61  1  0
 63 56  2  0
 64 65  1  0
 66 67  2  0
 67 86  1  0
 68 71  1  0
 68 67  1  0
 69 70  1  0
 69 66  1  0
 70 68  2  0
 71 72  1  0
 72 73  2  0
 74 77  1  0
 74 73  1  0
 75 74  2  0
 76 75  1  0
 76 71  2  0
 77 78  1  0
 78 79  1  0
 79 80  2  0
 81 80  1  0
 81 85  1  0
 82 81  2  0
 83 78  2  0
 83 82  1  0
 84 83  1  0
 86 87  1  0
 87 90  1  0
 87 89  1  0
 88 86  2  0
 91 66  1  0
 91 92  1  0
 93 91  1  0
M  ISO  4   7 101   8 101  56 100  64 100
M  END
>  <TORSDO>  (28) 
F 28

>  <SCORE>  (28) 
-8.386

>  <name>  (28) 
27

>  <ligand_id>  (28) 
27

>  <original_smiles>  (28) 
[H]c1c([H])c([H])c2c(c1[H])C([H])([H])C([H])([H])C([H])([H])C2([H])N([H])C(=O)C1([H])N(C(=O)C([H])(N([H])C(=O)C([H])(N([H])C([H])([H])[H])C([H])([H])[H])C(C([H])([H])[H])(C([H])([H])[H])C([H])([H])[H])C([H])([H])c2c([H])c(OC([H])([H])C([H])([H])C([H])(C([H])([H])C([H])([H])OC([H])([H])[H])C([H])([H])C([H])([H])C([H])([H])C([H])([H])C([H])([H])C([H])([H])C([H])([H])N([H])C(=O)N3C([H])([H])C([H])([H])C([H])([H])C([H])(n4nc(-c5c([H])c([H])c(Oc6c([H])c([H])c(F)c([H])c6F)c([H])c5[H])c(C(=O)N([H])[H])c4N([H])[H])C3([H])[H])c([H])c([H])c2C1([H])[H]

>  <smiles>  (28) 
[H]c1c([H])c([H])c2c(c1[H])C([H])([H])C([H])([H])C([H])([H])C2([H])N([H])C(=O)C1([H])N(C(=O)C([H])(N([H])C(=O)C([H])(N([H])C([H])([H])[H])C([H])([H])[H])C(C([H])([H])[H])(C([H])([H])[H])C([H])([H])[H])C([H])([H])c2c([H])c(OC([H])([H])C([H])([H])C([H])(C([H])([H])C([H])([H])OC([H])([H])[H])C([H])([H])C([H])([H])C([H])([H])C([H])([H])C([H])([H])C([H])([H])C([H])([H])N([H])C(=O)N3C([H])([H])C([H])([H])C([H])([H])C([H])(n4nc(-c5c([H])c([H])c(Oc6c([H])c([H])c(F)c([H])c6F)c([H])c5[H])c(C(=O)N([H])[H])c4N([H])[H])C3([H])[H])c([H])c([H])c2C1([H])[H]

$$$$
28:0:0
     RDKit          3D

 94101  0  0  1  0  0  0  0  0999 V2000
  -27.4770  -24.0220   21.1230 C   0  0  0  0  0  0  0  0  0  0  0  0
  -27.4560  -23.7480   19.8130 N   0  0  0  0  0  0  0  0  0  0  0  0
  -26.4670  -23.9960   21.8290 O   0  0  0  0  0  0  0  0  0  0  0  0
  -28.3250  -23.8400   19.3070 H   0  0  0  0  0  0  0  0  0  0  0  0
  -28.8390  -24.3310   21.7470 C   0  0  0  0  0  2  0  0  0  0  0  0
  -28.9830  -25.7920   22.2270 C   0  0  0  0  0  2  0  0  0  0  0  0
  -29.3720  -26.7730   21.1120 C   0  0  0  0  0  2  0  0  0  0  0  0
  -28.4140  -26.7540   20.0600 O   0  0  0  0  0  0  0  0  0  0  0  0
  -24.5740  -31.9010   23.2310 C   0  0  0  0  0  0  0  0  0  0  0  0
  -27.2610  -27.4990   20.1700 C   0  0  0  0  0  0  0  0  0  0  0  0
  -23.3710  -30.4850   21.5950 C   0  0  0  0  0  3  0  0  0  0  0  0
  -24.8340  -28.9460   20.1840 C   0  0  0  0  0  0  0  0  0  0  0  0
  -25.8870  -30.8670   21.3890 C   0  0  0  0  0  2  0  0  0  0  0  0
  -25.9810  -29.4900   20.7760 C   0  0  0  0  0  0  0  0  0  0  0  0
  -27.1920  -28.7710   20.7810 C   0  0  0  0  0  3  0  0  0  0  0  0
  -26.0990  -26.9680   19.5730 C   0  0  0  0  0  3  0  0  0  0  0  0
  -24.8830  -27.6750   19.5870 C   0  0  0  0  0  3  0  0  0  0  0  0
  -23.5820  -29.7920   20.2210 C   0  0  0  0  0  2  0  0  0  0  0  0
  -24.6290  -31.0970   22.1320 N   0  0  0  0  0  0  0  0  0  0  0  0
  -23.4930  -32.1710   23.7710 O   0  0  0  0  0  0  0  0  0  0  0  0
  -22.7280  -29.4650   22.5610 C   0  0  0  0  0  0  0  0  0  0  0  0
  -21.4030  -29.2860   22.4410 N   0  0  0  0  0  0  0  0  0  0  0  0
  -23.4160  -28.8400   23.3730 O   0  0  0  0  0  0  0  0  0  0  0  0
  -20.9090  -29.8420   21.7580 H   0  0  0  0  0  0  0  0  0  0  0  0
  -18.0300  -28.1080   22.9630 C   0  0  0  0  0  0  0  0  0  0  0  0
  -20.5900  -28.3520   23.2190 C   0  0  0  0  0  3  0  0  0  0  0  0
  -20.6830  -26.9210   22.6390 C   0  0  0  0  0  2  0  0  0  0  0  0
  -19.5720  -26.6060   21.6320 C   0  0  0  0  0  2  0  0  0  0  0  0
  -18.1960  -26.7580   22.2850 C   0  0  0  0  0  2  0  0  0  0  0  0
  -19.1550  -28.8630   23.3860 C   0  0  0  0  0  0  0  0  0  0  0  0
  -18.9480  -30.1280   23.9790 C   0  0  0  0  0  3  0  0  0  0  0  0
  -17.6480  -30.6380   24.1510 C   0  0  0  0  0  3  0  0  0  0  0  0
  -16.5360  -29.8810   23.7440 C   0  0  0  0  0  3  0  0  0  0  0  0
  -16.7290  -28.6170   23.1570 C   0  0  0  0  0  3  0  0  0  0  0  0
  -25.8600  -32.5380   23.8450 C   0  0  0  0  0  3  0  0  0  0  0  0
  -26.3890  -31.7700   25.1180 C   0  0  1  0  0  0  0  0  0  0  0  0
  -25.3040  -31.5260   26.1940 C   0  0  0  0  0  1  0  0  0  0  0  0
  -26.9730  -30.3940   24.7170 C   0  0  0  0  0  1  0  0  0  0  0  0
  -27.5410  -32.5680   25.7740 C   0  0  0  0  0  1  0  0  0  0  0  0
  -25.5470  -33.9350   24.1730 N   0  0  0  0  0  0  0  0  0  0  0  0
  -25.8730  -34.9860   23.4100 C   0  0  0  0  0  0  0  0  0  0  0  0
  -26.5410  -34.8820   22.3760 O   0  0  0  0  0  0  0  0  0  0  0  0
  -24.9510  -34.0880   24.9730 H   0  0  0  0  0  0  0  0  0  0  0  0
  -24.1280  -36.7630   23.0590 C   0  0  0  0  0  1  0  0  0  0  0  0
  -25.3780  -36.3730   23.8620 C   0  0  0  0  0  3  0  0  0  0  0  0
  -27.5190  -37.2730   24.6640 C   0  0  0  0  0  1  0  0  0  0  0  0
  -26.4020  -37.4330   23.7350 N   0  0  0  0  0  0  0  0  0  0  0  0
  -25.9890  -38.3490   23.8940 H   0  0  0  0  0  0  0  0  0  0  0  0
  -26.3100  -23.2380   19.0600 C   0  0  0  0  0  2  0  0  0  0  0  0
  -26.1520  -21.7140   19.2400 C   0  0  0  0  0  2  0  0  0  0  0  0
  -27.4090  -20.9080   18.8500 C   0  0  0  0  0  2  0  0  0  0  0  0
  -27.5490  -19.5900   19.6300 C   0  0  0  0  0  2  0  0  0  0  0  0
  -28.9800  -19.0380   19.5610 C   0  0  0  0  0  2  0  0  0  0  0  0
  -29.2560  -17.9330   20.5900 C   0  0  0  0  0  2  0  0  0  0  0  0
  -30.7560  -17.5990   20.6760 C   0  0  0  0  0  2  0  0  0  0  0  0
  -31.0850  -16.5010   21.7040 C   0  0  0  0  0  2  0  0  0  0  0  0
  -30.9130  -14.3910   20.4070 C   0  0  0  0  0  0  0  0  0  0  0  0
  -30.4990  -12.2960   19.1800 C   0  0  0  0  0  2  0  0  0  0  0  0
  -29.5580  -12.5280   17.9830 C   0  0  0  0  0  2  0  0  0  0  0  0
  -28.0840  -12.4330   18.4170 C   0  0  0  0  0  2  0  0  0  0  0  0
  -27.7750  -13.2930   19.6710 C   0  0  0  0  0  3  0  0  0  0  0  0
  -28.8180  -13.0340   20.7810 C   0  0  0  0  0  2  0  0  0  0  0  0
  -30.1640  -13.2750   20.2240 N   0  0  0  0  0  0  0  0  0  0  0  0
  -31.9420  -14.6330   19.7690 O   0  0  0  0  0  0  0  0  0  0  0  0
  -30.4680  -15.2260   21.3530 N   0  0  0  0  0  0  0  0  0  0  0  0
  -29.6330  -14.9540   21.8500 H   0  0  0  0  0  0  0  0  0  0  0  0
  -25.3900  -13.9770   20.3620 C   0  0  0  0  0  0  0  0  0  0  0  0
  -24.3020  -13.2380   20.7430 C   0  0  0  0  0  0  0  0  0  0  0  0
  -24.7280  -11.8740   20.7320 C   0  0  0  0  0  0  0  0  0  0  0  0
  -26.4130  -13.0660   20.1490 N   0  0  0  0  0  0  0  0  0  0  0  0
  -26.0170  -11.7960   20.4260 N   0  0  0  0  0  0  0  0  0  0  0  0
  -23.9700  -10.6350   20.9410 C   0  0  0  0  0  0  0  0  0  0  0  0
  -24.3840   -9.6640   21.8800 C   0  0  0  0  0  3  0  0  0  0  0  0
  -23.6280   -8.4870   22.0750 C   0  0  0  0  0  3  0  0  0  0  0  0
  -22.4430   -8.2750   21.3320 C   0  0  0  0  0  0  0  0  0  0  0  0
  -22.0480   -9.2330   20.3820 C   0  0  0  0  0  3  0  0  0  0  0  0
  -22.8040  -10.3990   20.1850 C   0  0  0  0  0  3  0  0  0  0  0  0
  -21.6590   -7.1510   21.4360 O   0  0  0  0  0  0  0  0  0  0  0  0
  -21.6030   -6.4170   22.5930 C   0  0  0  0  0  0  0  0  0  0  0  0
  -21.2330   -6.9960   23.8270 C   0  0  0  0  0  3  0  0  0  0  0  0
  -21.1220   -6.1910   24.9780 C   0  0  0  0  0  3  0  0  0  0  0  0
  -21.3700   -4.8070   24.8970 C   0  0  0  0  0  0  0  0  0  0  0  0
  -21.7340   -4.2280   23.6680 C   0  0  0  0  0  3  0  0  0  0  0  0
  -21.8470   -5.0310   22.5200 C   0  0  0  0  0  0  0  0  0  0  0  0
  -22.1770   -4.4640   21.3350 F   0  0  0  0  0  0  0  0  0  0  0  0
  -21.2560   -4.0320   26.0000 F   0  0  0  0  0  0  0  0  0  0  0  0
  -22.9170  -13.7550   21.0110 C   0  0  0  0  0  0  0  0  0  0  0  0
  -22.1760  -13.0940   21.8930 N   0  0  0  0  0  0  0  0  0  0  0  0
  -22.5020  -14.7800   20.4720 O   0  0  0  0  0  0  0  0  0  0  0  0
  -22.5230  -12.2640   22.3510 H   0  0  0  0  0  0  0  0  0  0  0  0
  -21.2470  -13.4230   22.1160 H   0  0  0  0  0  0  0  0  0  0  0  0
  -25.5920  -15.3390   20.1630 N   0  0  0  0  0  0  0  0  0  0  0  0
  -24.8480  -16.0200   20.2630 H   0  0  0  0  0  0  0  0  0  0  0  0
  -26.4620  -15.7470   19.8450 H   0  0  0  0  0  0  0  0  0  0  0  0
  1  5  1  0
  1  3  2  0
  2  1  1  0
  4  2  1  0
  5  6  1  0
  7  6  1  0
  8 10  1  0
  8  7  1  0
  9 20  2  0
 10 15  1  0
 11 19  1  0
 11 21  1  0
 12 18  1  0
 12 14  1  0
 13 19  1  0
 14 15  2  0
 14 13  1  0
 16 17  1  0
 16 10  2  0
 17 12  2  0
 18 11  1  0
 19  9  1  0
 21 23  2  0
 22 21  1  0
 24 22  1  0
 25 34  2  0
 25 30  1  0
 26 22  1  0
 26 30  1  0
 27 26  1  0
 28 29  1  0
 28 27  1  0
 29 25  1  0
 30 31  2  0
 31 32  1  0
 33 32  2  0
 34 33  1  0
 35  9  1  0
 35 40  1  0
 35 36  1  0
 36 39  1  1
 36 37  1  0
 38 36  1  0
 40 43  1  0
 41 45  1  0
 41 40  1  0
 42 41  2  0
 45 44  1  0
 47 45  1  0
 47 48  1  0
 47 46  1  0
 49 50  1  0
 49  2  1  0
 51 50  1  0
 51 52  1  0
 53 52  1  0
 53 54  1  0
 54 55  1  0
 55 56  1  0
 57 65  1  0
 58 63  1  0
 59 60  1  0
 59 58  1  0
 61 60  1  0
 61 70  1  0
 61 62  1  0
 63 57  1  0
 63 62  1  0
 64 57  2  0
 65 56  1  0
 65 66  1  0
 67 68  2  0
 68 87  1  0
 69 68  1  0
 69 72  1  0
 70 67  1  0
 70 71  1  0
 71 69  2  0
 72 73  1  0
 73 74  2  0
 75 78  1  0
 75 74  1  0
 76 75  2  0
 77 76  1  0
 77 72  2  0
 78 79  1  0
 79 80  1  0
 80 81  2  0
 82 81  1  0
 82 86  1  0
 83 82  2  0
 84 79  2  0
 84 83  1  0
 85 84  1  0
 87 88  1  0
 88 91  1  0
 88 90  1  0
 89 87  2  0
 92 93  1  0
 92 67  1  0
 94 92  1  0
M  ISO  4   7 101   8 101  57 100  65 100
M  END
>  <TORSDO>  (29) 
F 27

>  <SCORE>  (29) 
-11.614

>  <name>  (29) 
28

>  <ligand_id>  (29) 
28

>  <original_smiles>  (29) 
[H]c1c([H])c([H])c2c(c1[H])C([H])([H])C([H])([H])C([H])([H])C2([H])N([H])C(=O)C1([H])N(C(=O)C([H])(N([H])C(=O)C([H])(N([H])C([H])([H])[H])C([H])([H])[H])C(C([H])([H])[H])(C([H])([H])[H])C([H])([H])[H])C([H])([H])c2c([H])c(OC([H])([H])C([H])([H])C([H])([H])C(=O)N([H])C([H])([H])C([H])([H])C([H])([H])C([H])([H])C([H])([H])C([H])([H])C([H])([H])C([H])([H])N([H])C(=O)N3C([H])([H])C([H])([H])C([H])([H])C([H])(n4nc(-c5c([H])c([H])c(Oc6c([H])c([H])c(F)c([H])c6F)c([H])c5[H])c(C(=O)N([H])[H])c4N([H])[H])C3([H])[H])c([H])c([H])c2C1([H])[H]

>  <smiles>  (29) 
[H]c1c([H])c([H])c2c(c1[H])C([H])([H])C([H])([H])C([H])([H])C2([H])N([H])C(=O)C1([H])N(C(=O)C([H])(N([H])C(=O)C([H])(N([H])C([H])([H])[H])C([H])([H])[H])C(C([H])([H])[H])(C([H])([H])[H])C([H])([H])[H])C([H])([H])c2c([H])c(OC([H])([H])C([H])([H])C([H])([H])C(=O)N([H])C([H])([H])C([H])([H])C([H])([H])C([H])([H])C([H])([H])C([H])([H])C([H])([H])C([H])([H])N([H])C(=O)N3C([H])([H])C([H])([H])C([H])([H])C([H])(n4nc(-c5c([H])c([H])c(Oc6c([H])c([H])c(F)c([H])c6F)c([H])c5[H])c(C(=O)N([H])[H])c4N([H])[H])C3([H])[H])c([H])c([H])c2C1([H])[H]

$$$$
29:0:0
     RDKit          3D

 84 91  0  0  1  0  0  0  0  0999 V2000
  -28.9290  -22.3250   20.3150 C   0  0  0  0  0  0  0  0  0  0  0  0
  -30.1190  -22.6080   20.4870 O   0  0  0  0  0  0  0  0  0  0  0  0
  -28.6810  -20.4720   20.2460 C   0  0  0  0  0  3  0  0  0  0  0  0
  -29.7290  -18.8360   20.2590 C   0  0  0  0  0  3  0  0  0  0  0  0
  -30.2820  -15.7060   20.1560 C   0  0  0  0  0  0  0  0  0  0  0  0
  -30.3700  -13.1820   19.2930 C   0  0  0  0  0  2  0  0  0  0  0  0
  -29.4540  -12.7990   18.0960 C   0  0  0  0  0  2  0  0  0  0  0  0
  -28.0420  -12.4340   18.5770 C   0  0  0  0  0  2  0  0  0  0  0  0
  -27.5510  -13.4120   19.6680 C   0  0  0  0  0  3  0  0  0  0  0  0
  -28.6050  -13.7100   20.7610 C   0  0  0  0  0  2  0  0  0  0  0  0
  -29.7580  -14.3440   20.0820 N   0  0  0  0  0  0  0  0  0  0  0  0
  -31.5100  -15.6540   19.9590 O   0  0  0  0  0  0  0  0  0  0  0  0
  -29.5240  -17.0650   20.2570 N   0  0  0  0  0  0  0  0  0  0  0  0
  -28.5420  -16.8470   20.3570 H   0  0  0  0  0  0  0  0  0  0  0  0
  -25.2000  -13.9020   20.4920 C   0  0  0  0  0  0  0  0  0  0  0  0
  -24.1590  -13.1030   20.8720 C   0  0  0  0  0  0  0  0  0  0  0  0
  -24.6490  -11.7610   20.8150 C   0  0  0  0  0  0  0  0  0  0  0  0
  -26.2500  -13.0500   20.2140 N   0  0  0  0  0  0  0  0  0  0  0  0
  -25.9360  -11.7530   20.4760 N   0  0  0  0  0  0  0  0  0  0  0  0
  -23.9430  -10.4860   21.0020 C   0  0  0  0  0  0  0  0  0  0  0  0
  -24.3880   -9.5230   21.9350 C   0  0  0  0  0  3  0  0  0  0  0  0
  -23.6770   -8.3180   22.1130 C   0  0  0  0  0  3  0  0  0  0  0  0
  -22.5060   -8.0640   21.3590 C   0  0  0  0  0  0  0  0  0  0  0  0
  -22.0810   -9.0150   20.4150 C   0  0  0  0  0  3  0  0  0  0  0  0
  -22.7920  -10.2130   20.2350 C   0  0  0  0  0  3  0  0  0  0  0  0
  -21.7670   -6.9090   21.4470 O   0  0  0  0  0  0  0  0  0  0  0  0
  -21.7050   -6.1800   22.6080 C   0  0  0  0  0  0  0  0  0  0  0  0
  -21.2100   -6.7330   23.8090 C   0  0  0  0  0  3  0  0  0  0  0  0
  -21.0980   -5.9280   24.9610 C   0  0  0  0  0  3  0  0  0  0  0  0
  -21.4720   -4.5720   24.9120 C   0  0  0  0  0  0  0  0  0  0  0  0
  -21.9610   -4.0190   23.7150 C   0  0  0  0  0  3  0  0  0  0  0  0
  -22.0730   -4.8210   22.5660 C   0  0  0  0  0  0  0  0  0  0  0  0
  -22.5240   -4.2760   21.4100 F   0  0  0  0  0  0  0  0  0  0  0  0
  -21.3590   -3.7970   26.0170 F   0  0  0  0  0  0  0  0  0  0  0  0
  -22.7610  -13.5560   21.1680 C   0  0  0  0  0  0  0  0  0  0  0  0
  -22.0590  -12.8450   22.0430 N   0  0  0  0  0  0  0  0  0  0  0  0
  -22.3000  -14.5770   20.6600 O   0  0  0  0  0  0  0  0  0  0  0  0
  -22.4460  -12.0200   22.4760 H   0  0  0  0  0  0  0  0  0  0  0  0
  -21.1210  -13.1310   22.2850 H   0  0  0  0  0  0  0  0  0  0  0  0
  -25.3330  -15.2780   20.3250 N   0  0  0  0  0  0  0  0  0  0  0  0
  -24.5540  -15.9140   20.4550 H   0  0  0  0  0  0  0  0  0  0  0  0
  -26.1560  -15.7320   19.9520 H   0  0  0  0  0  0  0  0  0  0  0  0
  -27.8660  -23.8530   20.1900 C   0  0  0  0  0  2  0  0  0  0  0  0
  -28.1260  -25.5870   20.3250 O   0  0  0  0  0  0  0  0  0  0  0  0
  -24.6470  -31.8900   23.2360 C   0  0  0  0  0  0  0  0  0  0  0  0
  -27.1600  -26.8020   20.2670 C   0  0  0  0  0  0  0  0  0  0  0  0
  -23.4550  -30.4910   21.6040 C   0  0  0  0  0  3  0  0  0  0  0  0
  -24.8980  -28.8350   20.1990 C   0  0  0  0  0  0  0  0  0  0  0  0
  -26.0340  -30.6270   21.4820 C   0  0  0  0  0  2  0  0  0  0  0  0
  -26.0940  -29.1930   20.8310 C   0  0  0  0  0  0  0  0  0  0  0  0
  -27.2110  -28.2050   20.8310 C   0  0  0  0  0  3  0  0  0  0  0  0
  -25.9300  -26.6510   19.5790 C   0  0  0  0  0  3  0  0  0  0  0  0
  -24.8530  -27.5900   19.5490 C   0  0  0  0  0  3  0  0  0  0  0  0
  -23.6930  -29.7880   20.2360 C   0  0  0  0  0  2  0  0  0  0  0  0
  -24.7360  -31.0350   22.1600 N   0  0  0  0  0  0  0  0  0  0  0  0
  -23.5540  -32.1960   23.7450 O   0  0  0  0  0  0  0  0  0  0  0  0
  -22.7350  -29.5200   22.5780 C   0  0  0  0  0  0  0  0  0  0  0  0
  -21.4030  -29.3660   22.4500 N   0  0  0  0  0  0  0  0  0  0  0  0
  -23.3870  -28.9010   23.4230 O   0  0  0  0  0  0  0  0  0  0  0  0
  -20.9270  -29.9150   21.7480 H   0  0  0  0  0  0  0  0  0  0  0  0
  -18.0130  -28.1600   22.9590 C   0  0  0  0  0  0  0  0  0  0  0  0
  -20.5720  -28.4360   23.2260 C   0  0  0  0  0  3  0  0  0  0  0  0
  -20.6760  -26.9980   22.6650 C   0  0  0  0  0  2  0  0  0  0  0  0
  -19.5790  -26.6660   21.6490 C   0  0  0  0  0  2  0  0  0  0  0  0
  -18.1940  -26.8100   22.2870 C   0  0  0  0  0  2  0  0  0  0  0  0
  -19.1270  -28.9300   23.3850 C   0  0  0  0  0  0  0  0  0  0  0  0
  -18.9000  -30.1920   23.9780 C   0  0  0  0  0  3  0  0  0  0  0  0
  -17.5910  -30.6830   24.1450 C   0  0  0  0  0  3  0  0  0  0  0  0
  -16.4920  -29.9120   23.7320 C   0  0  0  0  0  3  0  0  0  0  0  0
  -16.7030  -28.6520   23.1450 C   0  0  0  0  0  3  0  0  0  0  0  0
  -25.9130  -32.5390   23.8750 C   0  0  0  0  0  3  0  0  0  0  0  0
  -26.4060  -31.7830   25.1720 C   0  0  1  0  0  0  0  0  0  0  0  0
  -25.2980  -31.5720   26.2310 C   0  0  0  0  0  1  0  0  0  0  0  0
  -26.9810  -30.3930   24.8190 C   0  0  0  0  0  1  0  0  0  0  0  0
  -27.5560  -32.5770   25.8340 C   0  0  0  0  0  1  0  0  0  0  0  0
  -25.5940  -33.9410   24.2060 N   0  0  0  0  0  0  0  0  0  0  0  0
  -25.9060  -35.0040   23.4510 C   0  0  0  0  0  0  0  0  0  0  0  0
  -26.5500  -34.9060   22.4040 O   0  0  0  0  0  0  0  0  0  0  0  0
  -25.0160  -34.0890   25.0210 H   0  0  0  0  0  0  0  0  0  0  0  0
  -24.1560  -36.7980   23.1750 C   0  0  0  0  0  1  0  0  0  0  0  0
  -25.4340  -36.3940   23.9300 C   0  0  0  0  0  3  0  0  0  0  0  0
  -27.5920  -37.3000   24.6750 C   0  0  0  0  0  1  0  0  0  0  0  0
  -26.4550  -37.4530   23.7720 N   0  0  0  0  0  0  0  0  0  0  0  0
  -26.0490  -38.3710   23.9270 H   0  0  0  0  0  0  0  0  0  0  0  0
  1  2  2  0
  3  4  2  0
  3  1  1  0
  5 13  1  0
  6 11  1  0
  7  8  1  0
  7  6  1  0
  9  8  1  0
  9 18  1  0
  9 10  1  0
 11  5  1  0
 11 10  1  0
 12  5  2  0
 13  4  1  0
 13 14  1  0
 15 16  2  0
 16 35  1  0
 17 16  1  0
 17 20  1  0
 18 19  1  0
 18 15  1  0
 19 17  2  0
 20 21  1  0
 21 22  2  0
 23 26  1  0
 23 22  1  0
 24 23  2  0
 25 24  1  0
 25 20  2  0
 26 27  1  0
 27 28  1  0
 28 29  2  0
 30 29  1  0
 30 34  1  0
 31 30  2  0
 32 27  2  0
 32 31  1  0
 33 32  1  0
 35 36  1  0
 36 39  1  0
 36 38  1  0
 37 35  2  0
 40 41  1  0
 40 15  1  0
 42 40  1  0
 43  1  1  0
 43 44  1  0
 45 56  2  0
 46 44  1  0
 46 51  1  0
 47 55  1  0
 47 57  1  0
 48 54  1  0
 48 50  1  0
 49 55  1  0
 50 51  2  0
 50 49  1  0
 52 46  2  0
 53 52  1  0
 53 48  2  0
 54 47  1  0
 55 45  1  0
 57 59  2  0
 58 57  1  0
 60 58  1  0
 61 70  2  0
 61 66  1  0
 62 58  1  0
 62 66  1  0
 63 62  1  0
 64 65  1  0
 64 63  1  0
 65 61  1  0
 66 67  2  0
 67 68  1  0
 69 68  2  0
 70 69  1  0
 71 45  1  0
 71 76  1  0
 71 72  1  0
 72 75  1  1
 72 73  1  0
 74 72  1  0
 76 79  1  0
 77 81  1  0
 77 76  1  0
 78 77  2  0
 81 80  1  0
 83 84  1  0
 83 81  1  0
 83 82  1  0
M  ISO  4   5 100  13 100  43 101  44 101
M  END
>  <TORSDO>  (30) 
F 19

>  <SCORE>  (30) 
-16.362

>  <name>  (30) 
29

>  <ligand_id>  (30) 
29

>  <original_smiles>  (30) 
[H]c1c([H])c([H])c2c(c1[H])C([H])([H])C([H])([H])C([H])([H])C2([H])N([H])C(=O)C1([H])N(C(=O)C([H])(N([H])C(=O)C([H])(N([H])C([H])([H])[H])C([H])([H])[H])C(C([H])([H])[H])(C([H])([H])[H])C([H])([H])[H])C([H])([H])c2c([H])c(OC([H])([H])C(=O)C([H])([H])C([H])([H])N([H])C(=O)N3C([H])([H])C([H])([H])C([H])([H])C([H])(n4nc(-c5c([H])c([H])c(Oc6c([H])c([H])c(F)c([H])c6F)c([H])c5[H])c(C(=O)N([H])[H])c4N([H])[H])C3([H])[H])c([H])c([H])c2C1([H])[H]

>  <smiles>  (30) 
[H]c1c([H])c([H])c2c(c1[H])C([H])([H])C([H])([H])C([H])([H])C2([H])N([H])C(=O)C1([H])N(C(=O)C([H])(N([H])C(=O)C([H])(N([H])C([H])([H])[H])C([H])([H])[H])C(C([H])([H])[H])(C([H])([H])[H])C([H])([H])[H])C([H])([H])c2c([H])c(OC([H])([H])C(=O)C([H])([H])C([H])([H])N([H])C(=O)N3C([H])([H])C([H])([H])C([H])([H])C([H])(n4nc(-c5c([H])c([H])c(Oc6c([H])c([H])c(F)c([H])c6F)c([H])c5[H])c(C(=O)N([H])[H])c4N([H])[H])C3([H])[H])c([H])c([H])c2C1([H])[H]

$$$$
30:0:0
     RDKit          3D

100108  0  0  1  0  0  0  0  0999 V2000
  -29.2880  -23.5170   26.6960 C   0  0  0  0  0  0  0  0  0  0  0  0
  -30.5060  -23.3790   26.5510 O   0  0  0  0  0  0  0  0  0  0  0  0
  -26.1890  -24.6200   24.7310 C   0  0  0  0  0  3  0  0  0  0  0  0
  -26.9970  -24.0590   25.7360 C   0  0  0  0  0  3  0  0  0  0  0  0
  -26.7790  -25.2700   23.6340 C   0  0  0  0  0  3  0  0  0  0  0  0
  -28.9940  -24.7470   24.5160 C   0  0  0  0  0  3  0  0  0  0  0  0
  -28.4100  -24.1100   25.6400 C   0  0  0  0  0  0  0  0  0  0  0  0
  -28.1840  -25.3480   23.5270 C   0  0  0  0  0  0  0  0  0  0  0  0
  -28.7990  -26.1650   22.4000 C   0  0  0  0  0  2  0  0  0  0  0  0
  -28.4400  -25.6700   20.9830 C   0  0  0  0  0  2  0  0  0  0  0  0
  -28.4170  -26.7640   20.0630 O   0  0  0  0  0  0  0  0  0  0  0  0
  -24.6100  -31.8710   23.2080 C   0  0  0  0  0  0  0  0  0  0  0  0
  -27.2480  -27.4810   20.0870 C   0  0  0  0  0  0  0  0  0  0  0  0
  -23.3970  -30.4910   21.5490 C   0  0  0  0  0  3  0  0  0  0  0  0
  -24.8450  -28.9590   20.1160 C   0  0  0  0  0  0  0  0  0  0  0  0
  -25.9180  -30.8540   21.3470 C   0  0  0  0  0  2  0  0  0  0  0  0
  -26.0020  -29.4870   20.7040 C   0  0  0  0  0  0  0  0  0  0  0  0
  -27.2070  -28.7570   20.6840 C   0  0  0  0  0  3  0  0  0  0  0  0
  -26.0780  -26.9530   19.4990 C   0  0  0  0  0  3  0  0  0  0  0  0
  -24.8750  -27.6860   19.5140 C   0  0  0  0  0  3  0  0  0  0  0  0
  -23.6030  -29.8200   20.1650 C   0  0  0  0  0  2  0  0  0  0  0  0
  -24.6600  -31.0870   22.0940 N   0  0  0  0  0  0  0  0  0  0  0  0
  -23.5310  -32.1430   23.7510 O   0  0  0  0  0  0  0  0  0  0  0  0
  -22.7380  -29.4650   22.5000 C   0  0  0  0  0  0  0  0  0  0  0  0
  -21.4110  -29.3040   22.3760 N   0  0  0  0  0  0  0  0  0  0  0  0
  -23.4160  -28.8190   23.3010 O   0  0  0  0  0  0  0  0  0  0  0  0
  -20.9260  -29.8810   21.7030 H   0  0  0  0  0  0  0  0  0  0  0  0
  -18.0260  -28.1390   22.8490 C   0  0  0  0  0  0  0  0  0  0  0  0
  -20.5850  -28.3660   23.1350 C   0  0  0  0  0  3  0  0  0  0  0  0
  -20.6750  -26.9390   22.5430 C   0  0  0  0  0  2  0  0  0  0  0  0
  -19.5730  -26.6390   21.5210 C   0  0  0  0  0  2  0  0  0  0  0  0
  -18.1910  -26.7930   22.1630 C   0  0  0  0  0  2  0  0  0  0  0  0
  -19.1510  -28.8830   23.2910 C   0  0  0  0  0  0  0  0  0  0  0  0
  -18.9450  -30.1450   23.8910 C   0  0  0  0  0  3  0  0  0  0  0  0
  -17.6460  -30.6580   24.0580 C   0  0  0  0  0  3  0  0  0  0  0  0
  -16.5340  -29.9090   23.6330 C   0  0  0  0  0  3  0  0  0  0  0  0
  -16.7250  -28.6510   23.0330 C   0  0  0  0  0  3  0  0  0  0  0  0
  -25.9010  -32.4850   23.8370 C   0  0  0  0  0  3  0  0  0  0  0  0
  -25.5870  -33.8630   24.2320 N   0  0  0  0  0  0  0  0  0  0  0  0
  -25.9040  -34.9490   23.5140 C   0  0  0  0  0  0  0  0  0  0  0  0
  -26.5620  -34.8940   22.4720 O   0  0  0  0  0  0  0  0  0  0  0  0
  -24.9960  -33.9790   25.0410 H   0  0  0  0  0  0  0  0  0  0  0  0
  -24.1480  -36.7330   23.2650 C   0  0  0  0  0  1  0  0  0  0  0  0
  -25.4100  -36.3120   24.0340 C   0  0  0  0  0  3  0  0  0  0  0  0
  -27.5560  -37.1810   24.8470 C   0  0  0  0  0  1  0  0  0  0  0  0
  -26.4290  -37.3820   23.9420 N   0  0  0  0  0  0  0  0  0  0  0  0
  -26.0180  -38.2900   24.1420 H   0  0  0  0  0  0  0  0  0  0  0  0
  -26.4440  -31.6610   25.0690 C   0  0  1  0  0  0  0  0  0  0  0  0
  -25.3730  -31.3680   26.1460 C   0  0  0  0  0  1  0  0  0  0  0  0
  -27.0280  -30.3080   24.6010 C   0  0  0  0  0  1  0  0  0  0  0  0
  -27.6010  -32.4320   25.7470 C   0  0  0  0  0  1  0  0  0  0  0  0
  -28.6610  -23.1260   28.0430 C   0  0  0  0  0  2  0  0  0  0  0  0
  -27.9250  -21.7650   28.0900 C   0  0  0  0  0  2  0  0  0  0  0  0
  -28.8270  -20.5300   28.2870 C   0  0  0  0  0  2  0  0  0  0  0  0
  -29.4330  -19.9730   26.9920 C   0  0  0  0  0  2  0  0  0  0  0  0
  -30.4650  -18.8670   27.2580 C   0  0  0  0  0  2  0  0  0  0  0  0
  -31.0250  -18.2920   25.9530 C   0  0  0  0  0  2  0  0  0  0  0  0
  -32.1530  -17.2640   26.1610 C   0  0  0  0  0  2  0  0  0  0  0  0
  -32.6540  -16.6700   24.8310 C   0  0  0  0  0  2  0  0  0  0  0  0
  -31.5780  -15.9040   24.1710 N   0  0  0  0  0  4  0  0  0  0  0  0
  -31.4210  -15.0550   24.6910 H   0  0  0  0  0  0  0  0  0  0  0  0
  -30.7400  -16.4590   24.2240 H   0  0  0  0  0  0  0  0  0  0  0  0
  -31.8170  -15.5750   22.7490 C   0  0  0  0  0  2  0  0  0  0  0  0
  -30.5530  -14.9610   22.1180 C   0  0  0  0  0  2  0  0  0  0  0  0
  -30.8080  -14.2790   20.7680 C   0  0  0  0  0  0  0  0  0  0  0  0
  -30.4100  -12.2920   19.3570 C   0  0  0  0  0  2  0  0  0  0  0  0
  -29.4700  -12.5450   18.1690 C   0  0  0  0  0  2  0  0  0  0  0  0
  -28.0000  -12.3790   18.5950 C   0  0  0  0  0  2  0  0  0  0  0  0
  -27.6630  -13.1950   19.8680 C   0  0  0  0  0  3  0  0  0  0  0  0
  -28.7000  -12.9300   20.9790 C   0  0  0  0  0  2  0  0  0  0  0  0
  -30.0450  -13.2080   20.4430 N   0  0  0  0  0  0  0  0  0  0  0  0
  -31.7570  -14.6590   20.0720 O   0  0  0  0  0  0  0  0  0  0  0  0
  -25.2610  -13.8140   20.5650 C   0  0  0  0  0  0  0  0  0  0  0  0
  -24.1850  -13.0430   20.9150 C   0  0  0  0  0  0  0  0  0  0  0  0
  -24.6380  -11.6890   20.8700 C   0  0  0  0  0  0  0  0  0  0  0  0
  -26.3020  -12.9280   20.3310 N   0  0  0  0  0  0  0  0  0  0  0  0
  -25.9300  -11.6450   20.5700 N   0  0  0  0  0  0  0  0  0  0  0  0
  -23.9040  -10.4290   21.0390 C   0  0  0  0  0  0  0  0  0  0  0  0
  -24.3600   -9.4210   21.9170 C   0  0  0  0  0  3  0  0  0  0  0  0
  -23.6280   -8.2240   22.0750 C   0  0  0  0  0  3  0  0  0  0  0  0
  -22.4260   -8.0270   21.3540 C   0  0  0  0  0  0  0  0  0  0  0  0
  -21.9890   -9.0240   20.4640 C   0  0  0  0  0  3  0  0  0  0  0  0
  -22.7210  -10.2120   20.3050 C   0  0  0  0  0  3  0  0  0  0  0  0
  -21.6630   -6.8870   21.4240 O   0  0  0  0  0  0  0  0  0  0  0  0
  -21.6850   -6.0730   22.5280 C   0  0  0  0  0  0  0  0  0  0  0  0
  -21.4010   -6.5640   23.8210 C   0  0  0  0  0  3  0  0  0  0  0  0
  -21.3660   -5.6790   24.9180 C   0  0  0  0  0  3  0  0  0  0  0  0
  -21.6040   -4.3050   24.7230 C   0  0  0  0  0  0  0  0  0  0  0  0
  -21.8820   -3.8140   23.4350 C   0  0  0  0  0  3  0  0  0  0  0  0
  -21.9190   -4.6960   22.3400 C   0  0  0  0  0  0  0  0  0  0  0  0
  -22.1660   -4.2140   21.0980 F   0  0  0  0  0  0  0  0  0  0  0  0
  -21.5630   -3.4540   25.7740 F   0  0  0  0  0  0  0  0  0  0  0  0
  -22.7880  -13.5240   21.1830 C   0  0  0  0  0  0  0  0  0  0  0  0
  -22.0520  -12.8230   22.0400 N   0  0  0  0  0  0  0  0  0  0  0  0
  -22.3560  -14.5550   20.6700 O   0  0  0  0  0  0  0  0  0  0  0  0
  -22.4130  -11.9880   22.4770 H   0  0  0  0  0  0  0  0  0  0  0  0
  -21.1130  -13.1260   22.2610 H   0  0  0  0  0  0  0  0  0  0  0  0
  -25.4360  -15.1850   20.4080 N   0  0  0  0  0  0  0  0  0  0  0  0
  -24.6750  -15.8470   20.5170 H   0  0  0  0  0  0  0  0  0  0  0  0
  -26.3000  -15.6210   20.1090 H   0  0  0  0  0  0  0  0  0  0  0  0
  1 52  1  0
  2  1  2  0
  3  4  1  0
  5  3  2  0
  6  7  1  0
  7  4  2  0
  7  1  1  0
  8  5  1  0
  8  6  2  0
  9  8  1  0
 10  9  1  0
 11 13  1  0
 11 10  1  0
 12 23  2  0
 13 18  1  0
 14 22  1  0
 14 24  1  0
 15 21  1  0
 15 17  1  0
 16 22  1  0
 17 16  1  0
 18 17  2  0
 19 20  1  0
 19 13  2  0
 20 15  2  0
 21 14  1  0
 22 12  1  0
 24 26  2  0
 25 24  1  0
 27 25  1  0
 28 37  2  0
 28 33  1  0
 29 25  1  0
 29 33  1  0
 30 29  1  0
 31 32  1  0
 31 30  1  0
 32 28  1  0
 33 34  2  0
 34 35  1  0
 36 35  2  0
 37 36  1  0
 38 12  1  0
 38 39  1  0
 38 48  1  0
 39 42  1  0
 40 44  1  0
 40 39  1  0
 41 40  2  0
 44 43  1  0
 46 44  1  0
 46 47  1  0
 46 45  1  0
 48 51  1  1
 48 49  1  0
 50 48  1  0
 52 53  1  0
 53 54  1  0
 55 56  1  0
 55 54  1  0
 57 58  1  0
 57 56  1  0
 59 58  1  0
 60 62  1  0
 60 61  1  0
 60 59  1  0
 63 60  1  0
 64 63  1  0
 65 64  1  0
 66 71  1  0
 67 68  1  0
 67 66  1  0
 69 68  1  0
 69 76  1  0
 69 70  1  0
 71 65  1  0
 71 70  1  0
 72 65  2  0
 73 74  2  0
 74 93  1  0
 75 74  1  0
 75 78  1  0
 76 73  1  0
 76 77  1  0
 77 75  2  0
 78 79  1  0
 79 80  2  0
 81 84  1  0
 81 80  1  0
 82 81  2  0
 83 82  1  0
 83 78  2  0
 84 85  1  0
 85 86  1  0
 86 87  2  0
 88 87  1  0
 88 92  1  0
 89 88  2  0
 90 85  2  0
 90 89  1  0
 91 90  1  0
 93 94  1  0
 94 97  1  0
 94 96  1  0
 95 93  2  0
 98 99  1  0
 98 73  1  0
100 98  1  0
M  ISO  4  10 101  11 101  64 100  65 100
M  END
>  <TORSDO>  (31) 
F 30

>  <SCORE>  (31) 
53.408

>  <name>  (31) 
30

>  <ligand_id>  (31) 
30

>  <original_smiles>  (31) 
[H]c1c([H])c(C(=O)C([H])([H])C([H])([H])C([H])([H])C([H])([H])C([H])([H])C([H])([H])C([H])([H])C([H])([H])[N+]([H])([H])C([H])([H])C([H])([H])C(=O)N2C([H])([H])C([H])([H])C([H])([H])C([H])(n3nc(-c4c([H])c([H])c(Oc5c([H])c([H])c(F)c([H])c5F)c([H])c4[H])c(C(=O)N([H])[H])c3N([H])[H])C2([H])[H])c([H])c(C([H])([H])C([H])([H])Oc2c([H])c([H])c3c(c2[H])C([H])([H])N(C(=O)C([H])(N([H])C(=O)C([H])(N([H])C([H])([H])[H])C([H])([H])[H])C(C([H])([H])[H])(C([H])([H])[H])C([H])([H])[H])C([H])(C(=O)N([H])C2([H])c4c([H])c([H])c([H])c([H])c4C([H])([H])C([H])([H])C2([H])[H])C3([H])[H])c1[H]

>  <smiles>  (31) 
[H]c1c([H])c(C(=O)C([H])([H])C([H])([H])C([H])([H])C([H])([H])C([H])([H])C([H])([H])C([H])([H])C([H])([H])[N+]([H])([H])C([H])([H])C([H])([H])C(=O)N2C([H])([H])C([H])([H])C([H])([H])C([H])(n3nc(-c4c([H])c([H])c(Oc5c([H])c([H])c(F)c([H])c5F)c([H])c4[H])c(C(=O)N([H])[H])c3N([H])[H])C2([H])[H])c([H])c(C([H])([H])C([H])([H])Oc2c([H])c([H])c3c(c2[H])C([H])([H])N(C(=O)C([H])(N([H])C(=O)C([H])(N([H])C([H])([H])[H])C([H])([H])[H])C(C([H])([H])[H])(C([H])([H])[H])C([H])([H])[H])C([H])(C(=O)N([H])C2([H])c4c([H])c([H])c([H])c([H])c4C([H])([H])C([H])([H])C2([H])[H])C3([H])[H])c1[H]

$$$$
31:0:0
     RDKit          3D

 95103  0  0  1  0  0  0  0  0999 V2000
  -26.9540  -18.8600   17.8580 C   0  0  0  0  0  3  0  0  0  0  0  0
  -25.9880  -19.7910   18.2870 C   0  0  0  0  0  3  0  0  0  0  0  0
  -28.3950  -20.6910   17.1490 C   0  0  0  0  0  3  0  0  0  0  0  0
  -28.1580  -19.3100   17.2790 C   0  0  0  0  0  0  0  0  0  0  0  0
  -26.2260  -21.1770   18.1620 C   0  0  0  0  0  0  0  0  0  0  0  0
  -27.4520  -21.6240   17.6120 C   0  0  0  0  0  0  0  0  0  0  0  0
  -25.1690  -22.1620   18.6400 C   0  0  0  0  0  1  0  0  0  0  0  0
  -29.2280  -18.3300   16.8300 C   0  0  0  0  0  2  0  0  0  0  0  0
  -30.5870  -18.5640   17.5240 C   0  0  0  0  0  2  0  0  0  0  0  0
  -30.5520  -18.4790   19.0650 C   0  0  0  0  0  2  0  0  0  0  0  0
  -30.0910  -17.0990   19.5460 C   0  0  0  0  0  2  0  0  0  0  0  0
  -30.4600  -16.7560   21.0030 C   0  0  0  0  0  2  0  0  0  0  0  0
  -30.8040  -14.3490   20.6760 C   0  0  0  0  0  0  0  0  0  0  0  0
  -30.4090  -12.2890   19.4050 C   0  0  0  0  0  2  0  0  0  0  0  0
  -29.4850  -12.6220   18.2180 C   0  0  0  0  0  2  0  0  0  0  0  0
  -28.0040  -12.5150   18.6310 C   0  0  0  0  0  2  0  0  0  0  0  0
  -27.6890  -13.2770   19.9480 C   0  0  0  0  0  3  0  0  0  0  0  0
  -28.7360  -12.9530   21.0410 C   0  0  0  0  0  2  0  0  0  0  0  0
  -30.0790  -13.2150   20.4960 N   0  0  0  0  0  0  0  0  0  0  0  0
  -31.9130  -14.5360   20.1680 O   0  0  0  0  0  0  0  0  0  0  0  0
  -30.1460  -15.3530   21.2650 N   0  0  0  0  0  0  0  0  0  0  0  0
  -29.2500  -15.1360   21.6780 H   0  0  0  0  0  0  0  0  0  0  0  0
  -25.2920  -13.8980   20.6600 C   0  0  0  0  0  0  0  0  0  0  0  0
  -24.2150  -13.1300   21.0130 C   0  0  0  0  0  0  0  0  0  0  0  0
  -24.6600  -11.7740   20.9560 C   0  0  0  0  0  0  0  0  0  0  0  0
  -26.3280  -13.0100   20.4120 N   0  0  0  0  0  0  0  0  0  0  0  0
  -25.9500  -11.7260   20.6460 N   0  0  0  0  0  0  0  0  0  0  0  0
  -23.9190  -10.5160   21.1200 C   0  0  0  0  0  0  0  0  0  0  0  0
  -24.3420   -9.5250   22.0340 C   0  0  0  0  0  3  0  0  0  0  0  0
  -23.6030   -8.3310   22.1880 C   0  0  0  0  0  3  0  0  0  0  0  0
  -22.4270   -8.1220   21.4290 C   0  0  0  0  0  0  0  0  0  0  0  0
  -22.0240   -9.1020   20.5060 C   0  0  0  0  0  3  0  0  0  0  0  0
  -22.7630  -10.2870   20.3490 C   0  0  0  0  0  3  0  0  0  0  0  0
  -21.6580   -6.9840   21.4950 O   0  0  0  0  0  0  0  0  0  0  0  0
  -21.6000   -6.2170   22.6310 C   0  0  0  0  0  0  0  0  0  0  0  0
  -21.1700   -6.7480   23.8670 C   0  0  0  0  0  3  0  0  0  0  0  0
  -21.0630   -5.9090   24.9940 C   0  0  0  0  0  3  0  0  0  0  0  0
  -21.3700   -4.5390   24.8840 C   0  0  0  0  0  0  0  0  0  0  0  0
  -21.7910   -4.0080   23.6520 C   0  0  0  0  0  3  0  0  0  0  0  0
  -21.9030   -4.8450   22.5280 C   0  0  0  0  0  0  0  0  0  0  0  0
  -22.2880   -4.3230   21.3380 F   0  0  0  0  0  0  0  0  0  0  0  0
  -21.2560   -3.7300   25.9640 F   0  0  0  0  0  0  0  0  0  0  0  0
  -22.8220  -13.6170   21.2930 C   0  0  0  0  0  0  0  0  0  0  0  0
  -22.0840  -12.9140   22.1450 N   0  0  0  0  0  0  0  0  0  0  0  0
  -22.3930  -14.6550   20.7920 O   0  0  0  0  0  0  0  0  0  0  0  0
  -22.4380  -12.0730   22.5770 H   0  0  0  0  0  0  0  0  0  0  0  0
  -21.1490  -13.2230   22.3700 H   0  0  0  0  0  0  0  0  0  0  0  0
  -25.4750  -15.2700   20.5130 N   0  0  0  0  0  0  0  0  0  0  0  0
  -24.7200  -15.9360   20.6340 H   0  0  0  0  0  0  0  0  0  0  0  0
  -26.3410  -15.7070   20.2220 H   0  0  0  0  0  0  0  0  0  0  0  0
  -27.8440  -23.0900   17.6190 C   0  0  0  0  0  2  0  0  0  0  0  0
  -28.4630  -23.4340   18.9800 C   0  0  0  0  0  2  0  0  0  0  0  0
  -28.8140  -24.9140   19.1470 C   0  0  0  0  0  2  0  0  0  0  0  0
  -28.7000  -25.3310   20.6220 C   0  0  0  0  0  2  0  0  0  0  0  0
  -28.6580  -26.7420   20.7790 O   0  0  0  0  0  0  0  0  0  0  0  0
  -24.6220  -31.9350   23.3930 C   0  0  0  0  0  0  0  0  0  0  0  0
  -27.4370  -27.3760   20.6980 C   0  0  0  0  0  0  0  0  0  0  0  0
  -23.4990  -30.4340   21.7790 C   0  0  0  0  0  3  0  0  0  0  0  0
  -25.0220  -28.8300   20.5210 C   0  0  0  0  0  0  0  0  0  0  0  0
  -26.0250  -30.8130   21.6670 C   0  0  0  0  0  2  0  0  0  0  0  0
  -26.1480  -29.4100   21.1150 C   0  0  0  0  0  0  0  0  0  0  0  0
  -27.3570  -28.6920   21.1950 C   0  0  0  0  0  3  0  0  0  0  0  0
  -26.2780  -26.7870   20.1360 C   0  0  0  0  0  3  0  0  0  0  0  0
  -25.0790  -27.5140   20.0310 C   0  0  0  0  0  3  0  0  0  0  0  0
  -23.7720  -29.6750   20.4530 C   0  0  0  0  0  2  0  0  0  0  0  0
  -24.7320  -31.0780   22.3400 N   0  0  0  0  0  0  0  0  0  0  0  0
  -23.5170  -32.2270   23.8690 O   0  0  0  0  0  0  0  0  0  0  0  0
  -22.8130  -29.4630   22.7650 C   0  0  0  0  0  0  0  0  0  0  0  0
  -21.5030  -29.2430   22.5730 N   0  0  0  0  0  0  0  0  0  0  0  0
  -23.4590  -28.9060   23.6560 O   0  0  0  0  0  0  0  0  0  0  0  0
  -21.0460  -29.7430   21.8210 H   0  0  0  0  0  0  0  0  0  0  0  0
  -18.1240  -28.0250   22.9480 C   0  0  0  0  0  0  0  0  0  0  0  0
  -20.6560  -28.3420   23.3530 C   0  0  0  0  0  3  0  0  0  0  0  0
  -20.8130  -26.8800   22.8760 C   0  0  0  0  0  2  0  0  0  0  0  0
  -19.7770  -26.4740   21.8240 C   0  0  0  0  0  2  0  0  0  0  0  0
  -18.3580  -26.6380   22.3740 C   0  0  0  0  0  2  0  0  0  0  0  0
  -19.2040  -28.8300   23.3930 C   0  0  0  0  0  0  0  0  0  0  0  0
  -18.9330  -30.1260   23.8850 C   0  0  0  0  0  3  0  0  0  0  0  0
  -17.6160  -30.6140   23.9410 C   0  0  0  0  0  3  0  0  0  0  0  0
  -16.5480  -29.8060   23.5130 C   0  0  0  0  0  3  0  0  0  0  0  0
  -16.8030  -28.5140   23.0220 C   0  0  0  0  0  3  0  0  0  0  0  0
  -25.8770  -32.6080   24.0330 C   0  0  0  0  0  3  0  0  0  0  0  0
  -26.3590  -31.8950   25.3550 C   0  0  1  0  0  0  0  0  0  0  0  0
  -25.2270  -31.6560   26.3800 C   0  0  0  0  0  1  0  0  0  0  0  0
  -27.0020  -30.5260   25.0300 C   0  0  0  0  0  1  0  0  0  0  0  0
  -27.4520  -32.7480   26.0430 C   0  0  0  0  0  1  0  0  0  0  0  0
  -25.5390  -34.0130   24.2970 N   0  0  0  0  0  0  0  0  0  0  0  0
  -25.8720  -35.0370   23.4990 C   0  0  0  0  0  0  0  0  0  0  0  0
  -26.5700  -34.9010   22.4900 O   0  0  0  0  0  0  0  0  0  0  0  0
  -24.9320  -34.1920   25.0820 H   0  0  0  0  0  0  0  0  0  0  0  0
  -24.1210  -36.7750   23.0220 C   0  0  0  0  0  1  0  0  0  0  0  0
  -25.3480  -36.4330   23.8830 C   0  0  0  0  0  3  0  0  0  0  0  0
  -27.4430  -37.3950   24.7280 C   0  0  0  0  0  1  0  0  0  0  0  0
  -26.3640  -37.5000   23.7480 N   0  0  0  0  0  0  0  0  0  0  0  0
  -25.9360  -38.4170   23.8420 H   0  0  0  0  0  0  0  0  0  0  0  0
  1  2  1  0
  3  4  1  0
  3  6  2  0
  4  1  2  0
  5  2  2  0
  5  7  1  0
  6 51  1  0
  6  5  1  0
  8  4  1  0
  8  9  1  0
  9 10  1  0
 10 11  1  0
 11 12  1  0
 12 21  1  0
 13 21  1  0
 14 19  1  0
 15 16  1  0
 15 14  1  0
 17 16  1  0
 17 26  1  0
 17 18  1  0
 19 13  1  0
 19 18  1  0
 20 13  2  0
 21 22  1  0
 23 24  2  0
 24 43  1  0
 25 24  1  0
 25 28  1  0
 26 27  1  0
 26 23  1  0
 27 25  2  0
 28 29  1  0
 29 30  2  0
 31 34  1  0
 31 30  1  0
 32 31  2  0
 33 32  1  0
 33 28  2  0
 34 35  1  0
 35 36  1  0
 36 37  2  0
 38 37  1  0
 38 42  1  0
 39 38  2  0
 40 35  2  0
 40 39  1  0
 41 40  1  0
 43 44  1  0
 44 47  1  0
 44 46  1  0
 45 43  2  0
 48 49  1  0
 48 23  1  0
 50 48  1  0
 51 52  1  0
 52 53  1  0
 53 54  1  0
 54 55  1  0
 56 67  2  0
 57 55  1  0
 57 62  1  0
 58 66  1  0
 58 68  1  0
 59 61  1  0
 60 66  1  0
 61 62  2  0
 61 60  1  0
 63 57  2  0
 64 63  1  0
 64 59  2  0
 65 59  1  0
 65 58  1  0
 66 56  1  0
 68 70  2  0
 69 68  1  0
 71 69  1  0
 72 81  2  0
 72 77  1  0
 73 69  1  0
 73 77  1  0
 74 73  1  0
 75 76  1  0
 75 74  1  0
 76 72  1  0
 77 78  2  0
 78 79  1  0
 80 79  2  0
 81 80  1  0
 82 56  1  0
 82 87  1  0
 82 83  1  0
 83 86  1  1
 83 84  1  0
 85 83  1  0
 87 90  1  0
 88 92  1  0
 88 87  1  0
 89 88  2  0
 92 91  1  0
 94 95  1  0
 94 92  1  0
 94 93  1  0
M  ISO  4  13 100  21 100  54 101  55 101
M  END
>  <TORSDO>  (32) 
F 25

>  <SCORE>  (32) 
-11.502

>  <name>  (32) 
31

>  <ligand_id>  (32) 
31

>  <original_smiles>  (32) 
[H]c1c([H])c([H])c2c(c1[H])C([H])([H])C([H])([H])C([H])([H])C2([H])N([H])C(=O)C1([H])N(C(=O)C([H])(N([H])C(=O)C([H])(N([H])C([H])([H])[H])C([H])([H])[H])C(C([H])([H])[H])(C([H])([H])[H])C([H])([H])[H])C([H])([H])c2c([H])c(OC([H])([H])C([H])([H])C([H])([H])C([H])([H])c3c([H])c(C([H])([H])C([H])([H])C([H])([H])C([H])([H])C([H])([H])N([H])C(=O)N4C([H])([H])C([H])([H])C([H])([H])C([H])(n5nc(-c6c([H])c([H])c(Oc7c([H])c([H])c(F)c([H])c7F)c([H])c6[H])c(C(=O)N([H])[H])c5N([H])[H])C4([H])[H])c([H])c([H])c3C([H])([H])[H])c([H])c([H])c2C1([H])[H]

>  <smiles>  (32) 
[H]c1c([H])c([H])c2c(c1[H])C([H])([H])C([H])([H])C([H])([H])C2([H])N([H])C(=O)C1([H])N(C(=O)C([H])(N([H])C(=O)C([H])(N([H])C([H])([H])[H])C([H])([H])[H])C(C([H])([H])[H])(C([H])([H])[H])C([H])([H])[H])C([H])([H])c2c([H])c(OC([H])([H])C([H])([H])C([H])([H])C([H])([H])c3c([H])c(C([H])([H])C([H])([H])C([H])([H])C([H])([H])C([H])([H])N([H])C(=O)N4C([H])([H])C([H])([H])C([H])([H])C([H])(n5nc(-c6c([H])c([H])c(Oc7c([H])c([H])c(F)c([H])c7F)c([H])c6[H])c(C(=O)N([H])[H])c5N([H])[H])C4([H])[H])c([H])c([H])c3C([H])([H])[H])c([H])c([H])c2C1([H])[H]

$$$$
32:0:0
     RDKit          3D

104113  0  0  1  0  0  0  0  0999 V2000
  -26.6650  -32.2510   21.3520 C   0  0  0  0  0  3  0  0  0  0  0  0
  -26.9570  -31.0700   22.5440 C   0  0  0  0  0  2  0  0  0  0  0  0
  -25.5410  -32.1450   20.1090 C   0  0  0  0  0  3  0  0  0  0  0  0
  -24.9050  -29.3220   21.7410 C   0  0  0  0  0  2  0  0  0  0  0  0
  -26.1270  -29.6060   22.7410 C   0  0  0  0  0  3  0  0  0  0  0  0
  -24.5960  -30.7510   19.9620 C   0  0  0  0  0  3  0  0  0  0  0  0
  -25.5590  -26.4600   24.9590 C   0  0  0  0  0  0  0  0  0  0  0  0
  -26.1840  -27.8350   24.6540 C   0  0  0  0  0  2  0  0  0  0  0  0
  -26.2270  -25.2100   24.3780 C   0  0  0  0  0  2  0  0  0  0  0  0
  -26.7760  -28.1870   23.2520 C   0  0  0  0  0  3  0  0  0  0  0  0
  -27.2910  -25.5580   23.3330 C   0  0  0  0  0  3  0  0  0  0  0  0
  -26.7420  -26.7280   22.4670 C   0  0  0  0  0  3  0  0  0  0  0  0
  -27.6450  -24.2860   22.5080 C   0  0  0  0  0  1  0  0  0  0  0  0
  -24.5240  -26.3700   25.6250 O   0  0  0  0  0  0  0  0  0  0  0  0
  -27.2560  -26.3430   21.1490 O   0  0  0  0  0  0  0  0  0  0  0  0
  -23.7950  -31.7160   23.5240 C   0  0  0  0  0  0  0  0  0  0  0  0
  -26.2750  -26.5040   20.2690 C   0  0  0  0  0  3  0  0  0  0  0  0
  -22.3630  -30.1060   22.0040 C   0  0  0  0  0  3  0  0  0  0  0  0
  -23.8200  -27.8410   19.9840 C   0  0  0  0  0  3  0  0  0  0  0  0
  -25.9820  -29.8840   20.5700 C   0  0  0  0  0  3  0  0  0  0  0  0
  -25.3550  -28.4370   19.8290 C   0  0  0  0  0  3  0  0  0  0  0  0
  -26.4650  -27.7210   19.7930 C   0  0  0  0  0  2  0  0  0  0  0  0
  -25.0340  -25.8470   20.2730 C   0  0  0  0  0  3  0  0  0  0  0  0
  -23.7990  -26.4840   20.0890 C   0  0  0  0  0  3  0  0  0  0  0  0
  -22.3460  -28.6380   20.7520 C   0  0  0  0  0  2  0  0  0  0  0  0
  -23.9200  -31.0080   22.3210 N   0  0  0  0  0  2  0  0  0  0  0  0
  -22.6710  -31.9280   24.0040 O   0  0  0  0  0  0  0  0  0  0  0  0
  -21.7060  -29.3120   23.1230 C   0  0  0  0  0  0  0  0  0  0  0  0
  -20.4050  -29.0740   22.9120 N   0  0  0  0  0  0  0  0  0  0  0  0
  -22.3750  -28.7310   23.9710 O   0  0  0  0  0  0  0  0  0  0  0  0
  -19.9500  -29.5670   22.1570 H   0  0  0  0  0  0  0  0  0  0  0  0
  -17.0960  -27.7310   23.1690 C   0  0  0  0  0  0  0  0  0  0  0  0
  -19.5920  -28.1320   23.6600 C   0  0  0  0  0  3  0  0  0  0  0  0
  -19.8210  -26.6790   23.1850 C   0  0  0  0  0  2  0  0  0  0  0  0
  -18.8230  -26.2150   22.1160 C   0  0  0  0  0  2  0  0  0  0  0  0
  -17.3880  -26.3370   22.6350 C   0  0  0  0  0  2  0  0  0  0  0  0
  -18.1360  -28.5780   23.6310 C   0  0  0  0  0  0  0  0  0  0  0  0
  -17.8270  -29.8770   24.0820 C   0  0  0  0  0  3  0  0  0  0  0  0
  -16.5020  -30.3420   24.0800 C   0  0  0  0  0  3  0  0  0  0  0  0
  -15.4680  -29.4980   23.6440 C   0  0  0  0  0  3  0  0  0  0  0  0
  -15.7610  -28.1940   23.1960 C   0  0  0  0  0  3  0  0  0  0  0  0
  -24.9910  -32.3410   24.3360 C   0  0  0  0  0  3  0  0  0  0  0  0
  -24.7220  -33.7650   24.4170 N   0  0  0  0  0  0  0  0  0  0  0  0
  -25.2990  -34.6910   23.6300 C   0  0  0  0  0  0  0  0  0  0  0  0
  -26.0870  -34.4530   22.7070 O   0  0  0  0  0  0  0  0  0  0  0  0
  -24.0390  -34.0680   25.0900 H   0  0  0  0  0  0  0  0  0  0  0  0
  -23.8540  -36.5610   22.9220 C   0  0  0  0  0  1  0  0  0  0  0  0
  -24.9430  -36.1410   23.9210 C   0  0  0  0  0  3  0  0  0  0  0  0
  -27.1040  -36.7650   24.9080 C   0  0  0  0  0  1  0  0  0  0  0  0
  -26.1210  -37.0390   23.8590 N   0  0  0  0  0  0  0  0  0  0  0  0
  -25.8420  -38.0110   23.9370 H   0  0  0  0  0  0  0  0  0  0  0  0
  -25.4240  -31.6930   25.7200 C   0  0  1  0  0  0  0  0  0  0  0  0
  -24.1980  -31.4480   26.6240 C   0  0  0  0  0  1  0  0  0  0  0  0
  -26.2770  -30.4050   25.7920 C   0  0  0  0  0  1  0  0  0  0  0  0
  -26.4010  -32.6860   26.3810 C   0  0  0  0  0  1  0  0  0  0  0  0
  -24.2720  -30.3680   18.2810 C   0  0  0  0  0  2  0  0  0  0  0  0
  -25.0290  -29.1850   17.1770 C   0  0  0  0  0  2  0  0  0  0  0  0
  -24.9150  -27.4560   16.9100 C   0  0  0  0  0  2  0  0  0  0  0  0
  -26.0350  -26.1070   16.8390 C   0  0  0  0  0  2  0  0  0  0  0  0
  -25.9260  -24.4660   17.4240 C   0  0  0  0  0  3  0  0  0  0  0  0
  -27.1100  -23.2070   17.5790 C   0  0  0  0  0  3  0  0  0  0  0  0
  -26.9610  -21.6110   18.2240 C   0  0  0  0  0  3  0  0  0  0  0  0
  -28.2140  -20.4480   18.4580 C   0  0  0  0  0  3  0  0  0  0  0  0
  -28.0990  -19.0120   19.1860 N   0  0  0  0  0  4  0  0  0  0  0  0
  -27.9500  -19.1940   20.1680 H   0  0  0  0  0  0  0  0  0  0  0  0
  -27.2320  -18.6180   18.8610 H   0  0  0  0  0  0  0  0  0  0  0  0
  -29.1850  -17.8160   19.0870 C   0  0  0  0  0  3  0  0  0  0  0  0
  -29.3150  -16.4750   20.1600 C   0  0  0  0  0  3  0  0  0  0  0  0
  -30.3420  -15.1190   20.1370 C   0  0  0  0  0  0  0  0  0  0  0  0
  -30.4650  -12.7080   19.3960 C   0  0  0  0  0  2  0  0  0  0  0  0
  -29.5500  -12.6060   18.1560 C   0  0  0  0  0  2  0  0  0  0  0  0
  -28.0840  -12.3780   18.5780 C   0  0  0  0  0  2  0  0  0  0  0  0
  -27.6360  -13.3100   19.7300 C   0  0  0  0  0  3  0  0  0  0  0  0
  -28.6710  -13.3520   20.8650 C   0  0  0  0  0  2  0  0  0  0  0  0
  -29.9210  -13.7960   20.2520 N   0  0  0  0  0  0  0  0  0  0  0  0
  -31.5600  -15.2580   19.9430 O   0  0  0  0  0  0  0  0  0  0  0  0
  -25.2500  -13.8840   20.4460 C   0  0  0  0  0  0  0  0  0  0  0  0
  -24.1920  -13.1040   20.8160 C   0  0  0  0  0  0  0  0  0  0  0  0
  -24.6740  -11.7580   20.8050 C   0  0  0  0  0  0  0  0  0  0  0  0
  -26.3020  -13.0120   20.2210 N   0  0  0  0  0  0  0  0  0  0  0  0
  -25.9670  -11.7300   20.5110 N   0  0  0  0  0  0  0  0  0  0  0  0
  -23.9620  -10.4920   20.9880 C   0  0  0  0  0  0  0  0  0  0  0  0
  -24.3980   -9.5340   21.9270 C   0  0  0  0  0  3  0  0  0  0  0  0
  -23.6870   -8.3260   22.0950 C   0  0  0  0  0  3  0  0  0  0  0  0
  -22.5280   -8.0700   21.3210 C   0  0  0  0  0  0  0  0  0  0  0  0
  -22.1140   -9.0220   20.3700 C   0  0  0  0  0  3  0  0  0  0  0  0
  -22.8270  -10.2210   20.2010 C   0  0  0  0  0  3  0  0  0  0  0  0
  -21.7880   -6.9170   21.3990 O   0  0  0  0  0  0  0  0  0  0  0  0
  -21.7330   -6.1770   22.5520 C   0  0  0  0  0  0  0  0  0  0  0  0
  -21.2970   -6.7320   23.7750 C   0  0  0  0  0  3  0  0  0  0  0  0
  -21.1800   -5.9150   24.9160 C   0  0  0  0  0  3  0  0  0  0  0  0
  -21.4960   -4.5450   24.8410 C   0  0  0  0  0  0  0  0  0  0  0  0
  -21.9280   -3.9900   23.6230 C   0  0  0  0  0  3  0  0  0  0  0  0
  -22.0410   -4.8040   22.4820 C   0  0  0  0  0  0  0  0  0  0  0  0
  -22.4340   -4.2570   21.3060 F   0  0  0  0  0  0  0  0  0  0  0  0
  -21.3820   -3.7600   25.9380 F   0  0  0  0  0  0  0  0  0  0  0  0
  -22.7880  -13.5680   21.0570 C   0  0  0  0  0  0  0  0  0  0  0  0
  -22.0550  -12.8770   21.9210 N   0  0  0  0  0  0  0  0  0  0  0  0
  -22.3460  -14.5810   20.5160 O   0  0  0  0  0  0  0  0  0  0  0  0
  -22.4180  -12.0510   22.3750 H   0  0  0  0  0  0  0  0  0  0  0  0
  -21.1140  -13.1810   22.1220 H   0  0  0  0  0  0  0  0  0  0  0  0
  -25.3960  -15.2550   20.2500 N   0  0  0  0  0  0  0  0  0  0  0  0
  -24.5900  -15.8720   20.2490 H   0  0  0  0  0  0  0  0  0  0  0  0
  -26.2080  -15.6760   19.8210 H   0  0  0  0  0  0  0  0  0  0  0  0
  1  2  1  0
  2  5  1  0
  3  1  2  0
  5  4  1  0
  5 10  1  0
  6 56  1  0
  6  3  1  0
  6 20  1  0
  7 14  2  0
  8  7  1  0
  9  7  1  0
 10  8  1  0
 11 13  1  0
 11  9  1  0
 12 15  1  0
 12 10  1  0
 12 11  1  0
 16 27  2  0
 17 22  1  0
 17 23  1  0
 17 15  1  0
 18 25  1  0
 18 26  1  0
 18 28  1  0
 19 24  1  0
 19 25  1  0
 20  4  1  0
 21 22  1  0
 21 19  1  0
 21 20  1  0
 24 23  2  0
 26 16  1  0
 28 30  2  0
 29 28  1  0
 31 29  1  0
 32 41  2  0
 32 37  1  0
 33 29  1  0
 34 33  1  0
 35 36  1  0
 35 34  1  0
 36 32  1  0
 37 33  1  0
 37 38  2  0
 39 38  1  0
 40 39  2  0
 41 40  1  0
 42 16  1  0
 42 43  1  0
 42 52  1  0
 43 46  1  0
 44 48  1  0
 44 43  1  0
 45 44  2  0
 48 47  1  0
 50 48  1  0
 50 51  1  0
 50 49  1  0
 52 54  1  6
 52 55  1  0
 52 53  1  0
 57 56  1  0
 58 57  1  0
 59 58  1  0
 59 60  1  0
 60 61  2  0
 61 62  1  0
 62 63  2  0
 63 64  1  0
 64 65  1  0
 66 64  1  0
 67 64  1  0
 67 68  2  0
 69 68  1  0
 69 75  1  0
 70 75  1  0
 71 72  1  0
 71 70  1  0
 73 72  1  0
 73 80  1  0
 73 74  1  0
 75 74  1  0
 76 69  2  0
 77 78  2  0
 78 97  1  0
 79 78  1  0
 79 82  1  0
 80 77  1  0
 80 81  1  0
 81 79  2  0
 82 83  1  0
 83 84  2  0
 85 88  1  0
 85 84  1  0
 86 85  2  0
 87 86  1  0
 87 82  2  0
 88 89  1  0
 89 90  1  0
 90 91  2  0
 92 91  1  0
 92 96  1  0
 93 92  2  0
 94 89  2  0
 94 93  1  0
 95 94  1  0
 97 98  1  0
 98101  1  0
 98100  1  0
 99 97  2  0
102 77  1  0
103102  1  0
104102  1  0
M  ISO  4  12 101  15 101  68 100  69 100
M  END
>  <TORSDO>  (33) 
F 28

>  <SCORE>  (33) 
-5.031

>  <name>  (33) 
32

>  <ligand_id>  (33) 
32

>  <original_smiles>  (33) 
[H]c1c([H])c([H])c2c(c1[H])C([H])([H])C([H])([H])C([H])([H])C2([H])N([H])C(=O)C1([H])N(C(=O)C([H])(N([H])C(=O)C([H])(N([H])C([H])([H])[H])C([H])([H])[H])C(C([H])([H])[H])(C([H])([H])[H])C([H])([H])[H])C([H])([H])c2c([H])c(OC3([H])C([H])(c4c([H])c([H])c([H])c(C([H])([H])C([H])([H])C([H])([H])C([H])([H])C([H])([H])C([H])([H])C([H])([H])C([H])([H])[N+]([H])([H])C([H])([H])C([H])([H])C(=O)N5C([H])([H])C([H])([H])C([H])([H])C([H])(n6nc(-c7c([H])c([H])c(Oc8c([H])c([H])c(F)c([H])c8F)c([H])c7[H])c(C(=O)N([H])[H])c6N([H])[H])C5([H])[H])c4[H])C([H])([H])C(=O)C([H])([H])C3([H])C([H])([H])[H])c([H])c([H])c2C1([H])[H]

>  <smiles>  (33) 
[H]c1c([H])c([H])c2c(c1[H])C([H])([H])C([H])([H])C([H])([H])C2([H])N([H])C(=O)C1([H])N(C(=O)C([H])(N([H])C(=O)C([H])(N([H])C([H])([H])[H])C([H])([H])[H])C(C([H])([H])[H])(C([H])([H])[H])C([H])([H])[H])C([H])([H])c2c([H])c(OC3([H])C([H])(c4c([H])c([H])c([H])c(C([H])([H])C([H])([H])C([H])([H])C([H])([H])C([H])([H])C([H])([H])C([H])([H])C([H])([H])[N+]([H])([H])C([H])([H])C([H])([H])C(=O)N5C([H])([H])C([H])([H])C([H])([H])C([H])(n6nc(-c7c([H])c([H])c(Oc8c([H])c([H])c(F)c([H])c8F)c([H])c7[H])c(C(=O)N([H])[H])c6N([H])[H])C5([H])[H])c4[H])C([H])([H])C(=O)C([H])([H])C3([H])C([H])([H])[H])c([H])c([H])c2C1([H])[H]

$$$$
33:0:0
     RDKit          3D

103107  0  0  1  0  0  0  0  0999 V2000
  -25.9610  -23.9320   19.6570 C   0  0  0  0  0  3  0  0  0  0  0  0
  -27.5930  -22.1610   19.8710 C   0  0  0  0  0  3  0  0  0  0  0  0
  -27.3050  -23.5760   19.8860 C   0  0  0  0  0  0  0  0  0  0  0  0
  -24.9700  -22.9620   19.3690 C   0  0  0  0  0  0  0  0  0  0  0  0
  -26.6090  -21.1150   19.6580 C   0  0  0  0  0  0  0  0  0  0  0  0
  -25.2850  -21.5680   19.3310 C   0  0  0  0  0  0  0  0  0  0  0  0
  -23.5610  -23.4850   19.0870 C   0  0  0  0  0  1  0  0  0  0  0  0
  -28.3810  -24.6940   20.0150 C   0  0  0  0  0  0  0  0  0  0  0  0
  -29.5280  -24.5000   19.6040 O   0  0  0  0  0  0  0  0  0  0  0  0
  -28.0780  -26.0790   20.7360 C   0  0  0  0  0  2  0  0  0  0  0  0
  -28.5270  -27.3580   20.0880 O   0  0  0  0  0  0  0  0  0  0  0  0
  -24.4980  -32.2460   23.3200 C   0  0  0  0  0  0  0  0  0  0  0  0
  -27.4470  -28.2100   19.9530 C   0  0  0  0  0  0  0  0  0  0  0  0
  -23.3920  -30.7200   21.7260 C   0  0  0  0  0  3  0  0  0  0  0  0
  -24.9340  -29.4800   20.1040 C   0  0  0  0  0  0  0  0  0  0  0  0
  -25.8250  -31.4430   21.3630 C   0  0  0  0  0  2  0  0  0  0  0  0
  -26.0560  -30.1150   20.6530 C   0  0  0  0  0  0  0  0  0  0  0  0
  -27.3300  -29.4870   20.5730 C   0  0  0  0  0  3  0  0  0  0  0  0
  -26.3240  -27.6600   19.3200 C   0  0  0  0  0  3  0  0  0  0  0  0
  -25.0690  -28.2680   19.4120 C   0  0  0  0  0  3  0  0  0  0  0  0
  -23.5840  -30.1460   20.2980 C   0  0  0  0  0  2  0  0  0  0  0  0
  -24.5930  -31.4890   22.1910 N   0  0  0  0  0  0  0  0  0  0  0  0
  -23.4340  -32.3290   23.9520 O   0  0  0  0  0  0  0  0  0  0  0  0
  -22.9940  -29.5760   22.6890 C   0  0  0  0  0  0  0  0  0  0  0  0
  -21.7570  -29.0680   22.5440 N   0  0  0  0  0  0  0  0  0  0  0  0
  -23.7920  -29.1490   23.5280 O   0  0  0  0  0  0  0  0  0  0  0  0
  -21.1580  -29.4760   21.8400 H   0  0  0  0  0  0  0  0  0  0  0  0
  -18.7830  -27.0600   22.9900 C   0  0  0  0  0  0  0  0  0  0  0  0
  -21.1790  -27.9720   23.3240 C   0  0  0  0  0  3  0  0  0  0  0  0
  -21.6630  -26.6010   22.7980 C   0  0  0  0  0  2  0  0  0  0  0  0
  -20.7180  -25.9810   21.7640 C   0  0  0  0  0  2  0  0  0  0  0  0
  -19.3220  -25.7850   22.3630 C   0  0  0  0  0  2  0  0  0  0  0  0
  -19.6540  -28.0950   23.4250 C   0  0  0  0  0  0  0  0  0  0  0  0
  -19.0990  -29.2730   23.9700 C   0  0  0  0  0  3  0  0  0  0  0  0
  -17.7040  -29.4280   24.0830 C   0  0  0  0  0  3  0  0  0  0  0  0
  -16.8470  -28.3960   23.6610 C   0  0  0  0  0  3  0  0  0  0  0  0
  -17.3870  -27.2130   23.1230 C   0  0  0  0  0  3  0  0  0  0  0  0
  -25.7130  -33.0630   23.8570 C   0  0  0  0  0  3  0  0  0  0  0  0
  -25.2160  -34.3870   24.2490 N   0  0  0  0  0  0  0  0  0  0  0  0
  -25.2930  -35.4880   23.4890 C   0  0  0  0  0  0  0  0  0  0  0  0
  -25.8630  -35.5050   22.3950 O   0  0  0  0  0  0  0  0  0  0  0  0
  -24.6910  -34.4340   25.1110 H   0  0  0  0  0  0  0  0  0  0  0  0
  -23.2650  -36.9710   23.3580 C   0  0  0  0  0  1  0  0  0  0  0  0
  -24.6350  -36.7720   24.0270 C   0  0  0  0  0  3  0  0  0  0  0  0
  -26.6880  -37.9770   24.6310 C   0  0  0  0  0  1  0  0  0  0  0  0
  -25.4620  -37.9840   23.8370 N   0  0  0  0  0  0  0  0  0  0  0  0
  -24.9350  -38.8200   24.0740 H   0  0  0  0  0  0  0  0  0  0  0  0
  -26.4490  -32.3620   25.0660 C   0  0  1  0  0  0  0  0  0  0  0  0
  -25.4850  -31.8120   26.1430 C   0  0  0  0  0  1  0  0  0  0  0  0
  -27.3220  -31.1870   24.5700 C   0  0  0  0  0  1  0  0  0  0  0  0
  -27.4040  -33.3680   25.7490 C   0  0  0  0  0  1  0  0  0  0  0  0
  -22.9880  -20.5520   19.8620 C   0  0  0  0  0  1  0  0  0  0  0  0
  -24.1790  -20.6030   18.8960 C   0  0  0  0  0  2  0  0  0  0  0  0
  -27.0330  -19.5880   19.9200 C   0  0  0  0  0  2  0  0  0  0  0  0
  -26.8420  -18.3610   18.8940 C   0  0  0  0  0  2  0  0  0  0  0  0
  -26.0830  -17.0170   19.2970 C   0  0  0  0  0  0  0  0  0  0  0  0
  -26.5690  -15.8470   18.7760 N   0  0  0  0  0  0  0  0  0  0  0  0
  -25.0810  -17.0500   20.0160 O   0  0  0  0  0  0  0  0  0  0  0  0
  -27.4860  -16.0670   18.3890 H   0  0  0  0  0  0  0  0  0  0  0  0
  -26.4810  -14.2900   18.9340 C   0  0  0  0  0  1  0  0  0  0  0  0
  -29.1980  -12.2140   17.7570 C   0  0  0  0  0  1  0  0  0  0  0  0
  -29.2490  -10.6240   18.1450 C   0  0  0  0  0  3  0  0  0  0  0  0
  -29.8720   -9.9430   19.4860 C   0  0  0  0  0  3  0  0  0  0  0  0
  -30.8370  -10.5860   20.6780 C   0  0  0  0  0  2  0  0  0  0  0  0
  -33.0470  -12.2190   20.6190 C   0  0  0  0  0  1  0  0  0  0  0  0
  -34.1800  -11.1900   22.2370 C   0  0  0  0  0  0  0  0  0  0  0  0
  -33.6070   -9.9830   20.1490 C   0  0  0  0  0  1  0  0  0  0  0  0
  -32.6270  -10.9290   18.7040 C   0  0  0  0  0 15  0  0  0  0  0  0
  -31.1820  -12.1760   19.2400 C   0  0  0  0  0 15  0  0  0  0  0  0
  -30.8100  -12.3130   21.2180 C   0  0  0  0  0  3  0  0  0  0  0  0
  -31.7800  -11.2630   22.4640 C   0  0  0  0  0  2  0  0  0  0  0  0
  -33.1820  -10.3680   21.8640 N   0  0  0  0  0  0  0  0  0  0  0  0
  -35.3710  -10.9620   22.3700 O   0  0  0  0  0  0  0  0  0  0  0  0
  -33.9150  -12.3650   21.7670 N   0  0  0  0  0  0  0  0  0  0  0  0
  -34.6420  -13.0620   21.7650 H   0  0  0  0  0  0  0  0  0  0  0  0
  -28.5040  -13.5260   21.2860 C   0  0  0  0  0  0  0  0  0  0  0  0
  -27.0540  -12.9880   21.5540 C   0  0  0  0  0  0  0  0  0  0  0  0
  -27.1270  -11.3910   21.9960 C   0  0  0  0  0  0  0  0  0  0  0  0
  -29.5430  -12.2920   21.5960 N   0  0  0  0  0  0  0  0  0  0  0  0
  -28.6680  -10.9410   22.0800 N   0  0  0  0  0  0  0  0  0  0  0  0
  -26.0960  -10.4110   21.6760 C   0  0  0  0  0  0  0  0  0  0  0  0
  -26.0170   -9.2150   22.3940 C   0  0  0  0  0  3  0  0  0  0  0  0
  -24.9740   -8.3230   22.1220 C   0  0  0  0  0  3  0  0  0  0  0  0
  -24.0280   -8.6090   21.1060 C   0  0  0  0  0  0  0  0  0  0  0  0
  -24.1910   -9.7520   20.3060 C   0  0  0  0  0  3  0  0  0  0  0  0
  -25.2250  -10.6470   20.5880 C   0  0  0  0  0  3  0  0  0  0  0  0
  -22.9470   -7.8190   20.8350 O   0  0  0  0  0  0  0  0  0  0  0  0
  -22.2260   -7.2660   21.8560 C   0  0  0  0  0  0  0  0  0  0  0  0
  -21.6640   -8.0470   22.8930 C   0  0  0  0  0  3  0  0  0  0  0  0
  -20.8910   -7.4290   23.8950 C   0  0  0  0  0  3  0  0  0  0  0  0
  -20.6690   -6.0390   23.8540 C   0  0  0  0  0  0  0  0  0  0  0  0
  -21.2240   -5.2660   22.8220 C   0  0  0  0  0  3  0  0  0  0  0  0
  -22.0030   -5.8790   21.8260 C   0  0  0  0  0  0  0  0  0  0  0  0
  -22.5290   -5.1350   20.8240 F   0  0  0  0  0  0  0  0  0  0  0  0
  -19.9150   -5.4470   24.8100 F   0  0  0  0  0  0  0  0  0  0  0  0
  -25.8980  -13.8430   21.8390 C   0  0  0  0  0  0  0  0  0  0  0  0
  -24.8870  -13.2850   22.4940 N   0  0  0  0  0  0  0  0  0  0  0  0
  -25.9460  -15.0330   21.5660 O   0  0  0  0  0  0  0  0  0  0  0  0
  -24.8670  -12.2990   22.7090 H   0  0  0  0  0  0  0  0  0  0  0  0
  -24.0910  -13.8490   22.7490 H   0  0  0  0  0  0  0  0  0  0  0  0
  -29.0490  -14.7870   21.1230 N   0  0  0  0  0  0  0  0  0  0  0  0
  -28.4590  -15.5080   20.7170 H   0  0  0  0  0  0  0  0  0  0  0  0
  -30.0010  -14.8650   20.7960 H   0  0  0  0  0  0  0  0  0  0  0  0
  1  3  1  0
  2  3  2  0
  3  8  1  0
  4  1  2  0
  5  2  1  0
  5 54  1  0
  6  4  1  0
  6  5  2  0
  7  4  1  0
  8 10  1  0
  9  8  2  0
 11 10  1  0
 12 23  2  0
 13 11  1  0
 13 18  1  0
 14 22  1  0
 14 24  1  0
 15 21  1  0
 15 17  1  0
 16 22  1  0
 17 16  1  0
 18 17  2  0
 19 20  1  0
 19 13  2  0
 20 15  2  0
 21 14  1  0
 22 12  1  0
 24 26  2  0
 25 24  1  0
 27 25  1  0
 28 37  2  0
 28 33  1  0
 29 25  1  0
 29 33  1  0
 30 29  1  0
 31 32  1  0
 31 30  1  0
 32 28  1  0
 33 34  2  0
 34 35  1  0
 36 35  2  0
 37 36  1  0
 38 12  1  0
 38 39  1  0
 38 48  1  0
 39 42  1  0
 40 44  1  0
 40 39  1  0
 41 40  2  0
 44 43  1  0
 46 44  1  0
 46 47  1  0
 46 45  1  0
 48 51  1  1
 48 49  1  0
 50 48  1  0
 53  6  1  0
 53 52  1  0
 55 56  1  0
 55 54  1  0
 56 58  2  0
 57 60  1  0
 57 56  1  0
 59 57  1  0
 61 62  1  0
 62 63  2  0
 63 64  1  0
 65 74  1  0
 66 73  2  0
 67 72  1  0
 70 64  1  0
 70 79  1  0
 70 71  1  0
 72 66  1  0
 72 71  1  0
 74 66  1  0
 75 74  1  0
 76 77  2  0
 76 79  1  0
 77 96  1  0
 77 78  1  0
 78 80  2  0
 79 80  1  0
 81 78  1  0
 81 82  1  0
 83 82  2  0
 84 83  1  0
 85 86  1  0
 85 84  2  0
 86 81  2  0
 87 84  1  0
 87 88  1  0
 88 89  1  0
 89 90  2  0
 91 90  1  0
 91 95  1  0
 92 91  2  0
 93 88  2  0
 93 92  1  0
 94 93  1  0
 96 97  1  0
 97 99  1  0
 97100  1  0
 98 96  2  0
101 76  1  0
102101  1  0
103101  1  0
M  ISO  4  10 101  11 101  66 100  74 100
M  END
>  <TORSDO>  (34) 
F 28

>  <SCORE>  (34) 
2.145

>  <name>  (34) 
33

>  <ligand_id>  (34) 
33

>  <original_smiles>  (34) 
[H]c1c([H])c([H])c2c(c1[H])C([H])([H])C([H])([H])C([H])([H])C2([H])N([H])C(=O)C1([H])N(C(=O)C([H])(N([H])C(=O)C([H])(N([H])C([H])([H])[H])C([H])([H])[H])C(C([H])([H])[H])(C([H])([H])[H])C([H])([H])[H])C([H])([H])c2c([H])c(OC([H])([H])C(=O)c3c([H])c(C([H])([H])[H])c(C([H])([H])C([H])([H])[H])c(C([H])([H])C([H])([H])C(=O)N([H])C([H])([H])C([H])([H])C([H])([H])C([H])([H])C([H])([H])C([H])([H])N([H])C(=O)N4C([H])([H])C([H])([H])C([H])([H])C([H])(n5nc(-c6c([H])c([H])c(Oc7c([H])c([H])c(F)c([H])c7F)c([H])c6[H])c(C(=O)N([H])[H])c5N([H])[H])C4([H])[H])c3[H])c([H])c([H])c2C1([H])[H]

>  <smiles>  (34) 
[H]c1c([H])c([H])c2c(c1[H])C([H])([H])C([H])([H])C([H])([H])C2([H])N([H])C(=O)C1([H])N(C(=O)C([H])(N([H])C(=O)C([H])(N([H])C([H])([H])[H])C([H])([H])[H])C(C([H])([H])[H])(C([H])([H])[H])C([H])([H])[H])C([H])([H])c2c([H])c(OC([H])([H])C(=O)c3c([H])c(C([H])([H])[H])c(C([H])([H])C([H])([H])[H])c(C([H])([H])C([H])([H])C(=O)N([H])C([H])([H])C([H])([H])C([H])([H])C([H])([H])C([H])([H])C([H])([H])N([H])C(=O)N4C([H])([H])C([H])([H])C([H])([H])C([H])(n5nc(-c6c([H])c([H])c(Oc7c([H])c([H])c(F)c([H])c7F)c([H])c6[H])c(C(=O)N([H])[H])c5N([H])[H])C4([H])[H])c3[H])c([H])c([H])c2C1([H])[H]

$$$$
34:0:0
     RDKit          3D

 94103  0  0  1  0  0  0  0  0999 V2000
  -30.0520  -22.9380   18.1960 C   0  0  0  0  0  3  0  0  0  0  0  0
  -30.3260  -21.7790   18.9590 C   0  0  0  0  0  3  0  0  0  0  0  0
  -29.3990  -24.0530   18.7680 C   0  0  0  0  0  3  0  0  0  0  0  0
  -29.2920  -22.8540   20.8810 C   0  0  0  0  0  3  0  0  0  0  0  0
  -29.9370  -21.7130   20.3150 C   0  0  0  0  0  0  0  0  0  0  0  0
  -29.0220  -24.0330   20.1290 C   0  0  0  0  0  0  0  0  0  0  0  0
  -30.2730  -20.4800   21.1890 C   0  0  0  0  0  3  0  0  0  0  0  0
  -29.9060  -19.0310   20.6760 C   0  0  0  0  0  3  0  0  0  0  0  0
  -27.6990  -17.8250   23.1010 C   0  0  0  0  0  2  0  0  0  0  0  0
  -27.1340  -17.5820   21.7020 C   0  0  0  0  0  2  0  0  0  0  0  0
  -29.1980  -18.1930   23.0860 C   0  0  0  0  0  2  0  0  0  0  0  0
  -27.9440  -16.5000   20.9570 C   0  0  0  0  0  2  0  0  0  0  0  0
  -29.9460  -17.8620   21.7530 C   0  0  0  0  0  3  0  0  0  0  0  0
  -29.4330  -16.4230   21.3300 C   0  0  0  0  0  3  0  0  0  0  0  0
  -30.8430  -14.5240   20.2860 C   0  0  0  0  0  0  0  0  0  0  0  0
  -30.5420  -12.3410   19.1500 C   0  0  0  0  0  2  0  0  0  0  0  0
  -29.6280  -12.5090   17.9200 C   0  0  0  0  0  2  0  0  0  0  0  0
  -28.1530  -12.3310   18.3250 C   0  0  0  0  0  2  0  0  0  0  0  0
  -27.7660  -13.1660   19.5790 C   0  0  0  0  0  3  0  0  0  0  0  0
  -28.8190  -13.0200   20.7060 C   0  0  0  0  0  2  0  0  0  0  0  0
  -30.1270  -13.3650   20.1340 N   0  0  0  0  0  0  0  0  0  0  0  0
  -32.0220  -14.5870   19.9450 O   0  0  0  0  0  0  0  0  0  0  0  0
  -30.1990  -15.7210   20.2800 N   0  0  0  0  0  0  0  0  0  0  0  0
  -30.7880  -16.3820   19.8000 H   0  0  0  0  0  0  0  0  0  0  0  0
  -25.3350  -13.6920   20.2570 C   0  0  0  0  0  0  0  0  0  0  0  0
  -24.2880  -12.8900   20.6100 C   0  0  0  0  0  0  0  0  0  0  0  0
  -24.7770  -11.5530   20.5370 C   0  0  0  0  0  0  0  0  0  0  0  0
  -26.4120  -12.8460   20.0330 N   0  0  0  0  0  0  0  0  0  0  0  0
  -26.0750  -11.5480   20.2510 N   0  0  0  0  0  0  0  0  0  0  0  0
  -24.0620  -10.2790   20.6580 C   0  0  0  0  0  0  0  0  0  0  0  0
  -24.5240   -9.2520   21.5060 C   0  0  0  0  0  3  0  0  0  0  0  0
  -23.8040   -8.0420   21.6220 C   0  0  0  0  0  3  0  0  0  0  0  0
  -22.6100   -7.8540   20.8900 C   0  0  0  0  0  0  0  0  0  0  0  0
  -22.1650   -8.8740   20.0290 C   0  0  0  0  0  3  0  0  0  0  0  0
  -22.8850  -10.0740   19.9100 C   0  0  0  0  0  3  0  0  0  0  0  0
  -21.8560   -6.7070   20.9230 O   0  0  0  0  0  0  0  0  0  0  0  0
  -21.8820   -5.8610   22.0030 C   0  0  0  0  0  0  0  0  0  0  0  0
  -21.5890   -6.3090   23.3080 C   0  0  0  0  0  3  0  0  0  0  0  0
  -21.5600   -5.3930   24.3780 C   0  0  0  0  0  3  0  0  0  0  0  0
  -21.8170   -4.0290   24.1440 C   0  0  0  0  0  0  0  0  0  0  0  0
  -22.1030   -3.5780   22.8430 C   0  0  0  0  0  3  0  0  0  0  0  0
  -22.1360   -4.4940   21.7750 C   0  0  0  0  0  0  0  0  0  0  0  0
  -22.3940   -4.0530   20.5220 F   0  0  0  0  0  0  0  0  0  0  0  0
  -21.7810   -3.1450   25.1690 F   0  0  0  0  0  0  0  0  0  0  0  0
  -22.8850  -13.3440   20.8820 C   0  0  0  0  0  0  0  0  0  0  0  0
  -22.1590  -12.6110   21.7230 N   0  0  0  0  0  0  0  0  0  0  0  0
  -22.4410  -14.3840   20.3970 O   0  0  0  0  0  0  0  0  0  0  0  0
  -22.5310  -11.7770   22.1510 H   0  0  0  0  0  0  0  0  0  0  0  0
  -21.2130  -12.8900   21.9400 H   0  0  0  0  0  0  0  0  0  0  0  0
  -25.4230  -15.0580   20.0670 N   0  0  0  0  0  0  0  0  0  0  0  0
  -24.6180  -15.6660   20.1830 H   0  0  0  0  0  0  0  0  0  0  0  0
  -26.2580  -15.5500   19.7770 H   0  0  0  0  0  0  0  0  0  0  0  0
  -28.2400  -25.2020   20.7730 C   0  0  0  0  0  2  0  0  0  0  0  0
  -28.3600  -26.5280   20.1710 O   0  0  0  0  0  0  0  0  0  0  0  0
  -24.5210  -31.6910   23.3710 C   0  0  0  0  0  0  0  0  0  0  0  0
  -27.2120  -27.3080   20.1970 C   0  0  0  0  0  0  0  0  0  0  0  0
  -23.3450  -30.3420   21.6660 C   0  0  0  0  0  3  0  0  0  0  0  0
  -24.8230  -28.8500   20.2160 C   0  0  0  0  0  0  0  0  0  0  0  0
  -25.8780  -30.6980   21.5230 C   0  0  0  0  0  2  0  0  0  0  0  0
  -25.9760  -29.3430   20.8390 C   0  0  0  0  0  0  0  0  0  0  0  0
  -27.1780  -28.5830   20.8190 C   0  0  0  0  0  3  0  0  0  0  0  0
  -26.0420  -26.8470   19.5590 C   0  0  0  0  0  3  0  0  0  0  0  0
  -24.8510  -27.6000   19.5730 C   0  0  0  0  0  3  0  0  0  0  0  0
  -23.5780  -29.7120   20.2680 C   0  0  0  0  0  2  0  0  0  0  0  0
  -24.5990  -30.9240   22.2450 N   0  0  0  0  0  0  0  0  0  0  0  0
  -23.4300  -31.9460   23.9010 O   0  0  0  0  0  0  0  0  0  0  0  0
  -22.6750  -29.2930   22.5830 C   0  0  0  0  0  0  0  0  0  0  0  0
  -21.3510  -29.1220   22.4340 N   0  0  0  0  0  0  0  0  0  0  0  0
  -23.3460  -28.6350   23.3820 O   0  0  0  0  0  0  0  0  0  0  0  0
  -20.8690  -29.7040   21.7640 H   0  0  0  0  0  0  0  0  0  0  0  0
  -17.9700  -27.9080   22.8390 C   0  0  0  0  0  0  0  0  0  0  0  0
  -20.5220  -28.1610   23.1620 C   0  0  0  0  0  3  0  0  0  0  0  0
  -20.6380  -26.7480   22.5430 C   0  0  0  0  0  2  0  0  0  0  0  0
  -19.5540  -26.4570   21.5010 C   0  0  0  0  0  2  0  0  0  0  0  0
  -18.1600  -26.5810   22.1250 C   0  0  0  0  0  2  0  0  0  0  0  0
  -19.0800  -28.6580   23.3110 C   0  0  0  0  0  0  0  0  0  0  0  0
  -18.8500  -29.9020   23.9380 C   0  0  0  0  0  3  0  0  0  0  0  0
  -17.5420  -30.3980   24.0960 C   0  0  0  0  0  3  0  0  0  0  0  0
  -16.4460  -29.6450   23.6400 C   0  0  0  0  0  3  0  0  0  0  0  0
  -16.6610  -28.4030   23.0170 C   0  0  0  0  0  3  0  0  0  0  0  0
  -25.7960  -32.3040   24.0330 C   0  0  0  0  0  3  0  0  0  0  0  0
  -26.3290  -31.4590   25.2560 C   0  0  1  0  0  0  0  0  0  0  0  0
  -25.2420  -31.1400   26.3080 C   0  0  0  0  0  1  0  0  0  0  0  0
  -26.9280  -30.1180   24.7750 C   0  0  0  0  0  1  0  0  0  0  0  0
  -27.4700  -32.2260   25.9630 C   0  0  0  0  0  1  0  0  0  0  0  0
  -25.4630  -33.6730   24.4520 N   0  0  0  0  0  0  0  0  0  0  0  0
  -25.7780  -34.7760   23.7600 C   0  0  0  0  0  0  0  0  0  0  0  0
  -26.4490  -34.7490   22.7240 O   0  0  0  0  0  0  0  0  0  0  0  0
  -24.8680  -33.7670   25.2620 H   0  0  0  0  0  0  0  0  0  0  0  0
  -24.0130  -36.5520   23.5290 C   0  0  0  0  0  1  0  0  0  0  0  0
  -25.2690  -36.1230   24.3050 C   0  0  0  0  0  3  0  0  0  0  0  0
  -27.3980  -36.9930   25.1650 C   0  0  0  0  0  1  0  0  0  0  0  0
  -26.2800  -37.2010   24.2470 N   0  0  0  0  0  0  0  0  0  0  0  0
  -25.8590  -38.1020   24.4600 H   0  0  0  0  0  0  0  0  0  0  0  0
  1  3  2  0
  1  2  1  0
  2  5  2  0
  3  6  1  0
  5  4  1  0
  5  7  1  0
  6 53  1  0
  6  4  2  0
  8  7  2  0
 10  9  1  0
 11  9  1  0
 12 14  1  0
 12 10  1  0
 13  8  1  0
 13 11  1  0
 14 23  1  0
 14 13  1  0
 16 21  1  0
 17 18  1  0
 17 16  1  0
 19 18  1  0
 19 28  1  0
 19 20  1  0
 21 15  1  0
 21 20  1  0
 22 15  2  0
 23 15  1  0
 24 23  1  0
 25 26  2  0
 26 45  1  0
 27 26  1  0
 27 30  1  0
 28 29  1  0
 28 25  1  0
 29 27  2  0
 30 31  1  0
 31 32  2  0
 33 36  1  0
 33 32  1  0
 34 33  2  0
 35 34  1  0
 35 30  2  0
 36 37  1  0
 37 38  1  0
 38 39  2  0
 40 39  1  0
 40 44  1  0
 41 40  2  0
 42 37  2  0
 42 41  1  0
 43 42  1  0
 45 46  1  0
 46 49  1  0
 46 48  1  0
 47 45  2  0
 50 51  1  0
 50 25  1  0
 52 50  1  0
 54 56  1  0
 54 53  1  0
 55 66  2  0
 56 61  1  0
 57 65  1  0
 57 67  1  0
 58 64  1  0
 58 60  1  0
 59 65  1  0
 60 59  1  0
 61 60  2  0
 62 63  1  0
 62 56  2  0
 63 58  2  0
 64 57  1  0
 65 55  1  0
 67 69  2  0
 68 67  1  0
 70 68  1  0
 71 80  2  0
 71 76  1  0
 72 68  1  0
 72 76  1  0
 73 72  1  0
 74 75  1  0
 74 73  1  0
 75 71  1  0
 76 77  2  0
 77 78  1  0
 79 78  2  0
 80 79  1  0
 81 55  1  0
 81 86  1  0
 81 82  1  0
 82 85  1  1
 82 83  1  0
 84 82  1  0
 86 89  1  0
 87 91  1  0
 87 86  1  0
 88 87  2  0
 91 90  1  0
 93 91  1  0
 93 94  1  0
 93 92  1  0
M  ISO  4  15 100  23 100  53 101  54 101
M  END
>  <TORSDO>  (35) 
F 20

>  <SCORE>  (35) 
3.537

>  <name>  (35) 
34

>  <ligand_id>  (35) 
34

>  <original_smiles>  (35) 
[H]c1c([H])c([H])c2c(c1[H])C([H])([H])C([H])([H])C([H])([H])C2([H])N([H])C(=O)C1([H])N(C(=O)C([H])(N([H])C(=O)C([H])(N([H])C([H])([H])[H])C([H])([H])[H])C(C([H])([H])[H])(C([H])([H])[H])C([H])([H])[H])C([H])([H])c2c([H])c(OC([H])([H])c3c([H])c([H])c([H])c(C([H])([H])C([H])([H])C4([H])C([H])([H])C([H])([H])C([H])([H])C([H])([H])C4([H])N([H])C(=O)N4C([H])([H])C([H])([H])C([H])([H])C([H])(n5nc(-c6c([H])c([H])c(Oc7c([H])c([H])c(F)c([H])c7F)c([H])c6[H])c(C(=O)N([H])[H])c5N([H])[H])C4([H])[H])c3[H])c([H])c([H])c2C1([H])[H]

>  <smiles>  (35) 
[H]c1c([H])c([H])c2c(c1[H])C([H])([H])C([H])([H])C([H])([H])C2([H])N([H])C(=O)C1([H])N(C(=O)C([H])(N([H])C(=O)C([H])(N([H])C([H])([H])[H])C([H])([H])[H])C(C([H])([H])[H])(C([H])([H])[H])C([H])([H])[H])C([H])([H])c2c([H])c(OC([H])([H])c3c([H])c([H])c([H])c(C([H])([H])C([H])([H])C4([H])C([H])([H])C([H])([H])C([H])([H])C([H])([H])C4([H])N([H])C(=O)N4C([H])([H])C([H])([H])C([H])([H])C([H])(n5nc(-c6c([H])c([H])c(Oc7c([H])c([H])c(F)c([H])c7F)c([H])c6[H])c(C(=O)N([H])[H])c5N([H])[H])C4([H])[H])c3[H])c([H])c([H])c2C1([H])[H]

$$$$
35:0:0
     RDKit          3D

 96104  0  0  1  0  0  0  0  0999 V2000
  -27.4780  -27.8990   22.1060 C   0  0  0  0  0  3  0  0  0  0  0  0
  -27.7210  -28.6750   20.6920 C   0  0  0  0  0  3  0  0  0  0  0  0
  -24.3000  -28.6840   21.3060 C   0  0  0  0  0  0  0  0  0  0  0  0
  -25.9570  -27.6580   22.7440 C   0  0  0  0  0  3  0  0  0  0  0  0
  -26.5830  -29.2120   19.6590 C   0  0  0  0  0  3  0  0  0  0  0  0
  -24.9590  -29.2810   19.8980 C   0  0  0  0  0  0  0  0  0  0  0  0
  -24.0210  -29.6820   18.7680 C   0  0  0  0  0  1  0  0  0  0  0  0
  -27.1100  -29.2570   18.2090 C   0  0  0  0  0  2  0  0  0  0  0  0
  -26.6640  -28.0440   17.2500 C   0  0  0  0  0  2  0  0  0  0  0  0
  -27.0620  -26.4770   17.3610 C   0  0  0  0  0  2  0  0  0  0  0  0
  -26.0490  -25.3220   16.8500 C   0  0  0  0  0  2  0  0  0  0  0  0
  -25.0630  -24.6210   17.7300 O   0  0  0  0  0  0  0  0  0  0  0  0
  -22.7910  -28.9110   24.2740 C   0  0  0  0  0  0  0  0  0  0  0  0
  -23.9960  -25.3580   18.1660 C   0  0  0  0  0  0  0  0  0  0  0  0
  -21.1310  -28.1930   22.2800 C   0  0  0  0  0  3  0  0  0  0  0  0
  -22.0620  -27.0350   19.3130 C   0  0  0  0  0  0  0  0  0  0  0  0
  -24.1960  -28.2140   22.2820 C   0  0  0  0  0  0  0  0  0  0  0  0
  -23.6800  -27.1440   19.5530 C   0  0  0  0  0  3  0  0  0  0  0  0
  -24.4670  -26.3710   18.8430 C   0  0  0  0  0  3  0  0  0  0  0  0
  -22.6070  -25.1910   17.9490 C   0  0  0  0  0  3  0  0  0  0  0  0
  -21.6400  -26.0880   18.4390 C   0  0  0  0  0  3  0  0  0  0  0  0
  -20.8240  -27.5610   20.5330 C   0  0  0  0  0  2  0  0  0  0  0  0
  -22.6680  -28.4330   23.0490 N   0  0  0  0  0  0  0  0  0  0  0  0
  -21.8090  -29.2270   24.9530 O   0  0  0  0  0  0  0  0  0  0  0  0
  -20.2820  -27.2520   23.0540 C   0  0  0  0  0  0  0  0  0  0  0  0
  -18.9760  -27.2820   22.7850 N   0  0  0  0  0  0  0  0  0  0  0  0
  -20.8160  -26.4160   23.7750 O   0  0  0  0  0  0  0  0  0  0  0  0
  -18.6070  -27.9630   22.1400 H   0  0  0  0  0  0  0  0  0  0  0  0
  -15.5180  -26.3280   22.7850 C   0  0  0  0  0  0  0  0  0  0  0  0
  -18.0410  -26.2760   23.2500 C   0  0  0  0  0  3  0  0  0  0  0  0
  -18.1010  -25.0330   22.3390 C   0  0  0  0  0  2  0  0  0  0  0  0
  -17.0610  -25.0890   21.2220 C   0  0  0  0  0  2  0  0  0  0  0  0
  -15.6510  -25.1650   21.8150 C   0  0  0  0  0  2  0  0  0  0  0  0
  -16.6530  -26.8750   23.4330 C   0  0  0  0  0  0  0  0  0  0  0  0
  -16.5070  -28.0090   24.2650 C   0  0  0  0  0  3  0  0  0  0  0  0
  -15.2360  -28.5620   24.4950 C   0  0  0  0  0  3  0  0  0  0  0  0
  -14.1020  -27.9960   23.8760 C   0  0  0  0  0  3  0  0  0  0  0  0
  -14.2480  -26.8910   23.0210 C   0  0  0  0  0  3  0  0  0  0  0  0
  -24.2300  -28.9880   24.8650 C   0  0  0  0  0  3  0  0  0  0  0  0
  -24.4160  -28.0320   26.1100 C   0  0  1  0  0  0  0  0  0  0  0  0
  -23.4170  -28.4010   27.2230 C   0  0  0  0  0  1  0  0  0  0  0  0
  -24.2310  -26.4880   25.9410 C   0  0  0  0  0  1  0  0  0  0  0  0
  -25.8770  -28.1710   26.5820 C   0  0  0  0  0  1  0  0  0  0  0  0
  -24.5300  -30.3900   25.0920 N   0  0  0  0  0  0  0  0  0  0  0  0
  -25.3790  -31.1230   24.3450 C   0  0  0  0  0  0  0  0  0  0  0  0
  -26.0650  -30.6670   23.4190 O   0  0  0  0  0  0  0  0  0  0  0  0
  -23.9890  -30.8530   25.8070 H   0  0  0  0  0  0  0  0  0  0  0  0
  -24.7600  -33.4810   23.6590 C   0  0  0  0  0  1  0  0  0  0  0  0
  -25.4850  -32.6110   24.7010 C   0  0  0  0  0  3  0  0  0  0  0  0
  -27.5840  -32.4810   25.9770 C   0  0  0  0  0  1  0  0  0  0  0  0
  -26.8770  -33.0840   24.8520 N   0  0  0  0  0  0  0  0  0  0  0  0
  -26.8900  -34.0900   24.9880 H   0  0  0  0  0  0  0  0  0  0  0  0
  -26.4710  -25.9420   23.3190 C   0  0  0  0  0  2  0  0  0  0  0  0
  -27.6760  -24.4500   22.8790 C   0  0  0  0  0  2  0  0  0  0  0  0
  -27.9570  -22.8250   21.8240 C   0  0  0  0  0  2  0  0  0  0  0  0
  -28.8460  -21.0990   21.8880 C   0  0  0  0  0  3  0  0  0  0  0  0
  -29.0540  -19.4680   20.8680 C   0  0  0  0  0  3  0  0  0  0  0  0
  -30.0130  -17.7880   20.8440 C   0  0  0  0  0  2  0  0  0  0  0  0
  -30.6320  -14.8030   19.9440 C   0  0  0  0  0  0  0  0  0  0  0  0
  -30.5380  -12.3520   18.8760 C   0  0  0  0  0  2  0  0  0  0  0  0
  -29.5290  -12.0580   17.7270 C   0  0  0  0  0  2  0  0  0  0  0  0
  -28.1200  -11.8050   18.2780 C   0  0  0  0  0  2  0  0  0  0  0  0
  -27.7770  -12.8040   19.4050 C   0  0  0  0  0  3  0  0  0  0  0  0
  -28.8770  -12.9440   20.4650 C   0  0  0  0  0  2  0  0  0  0  0  0
  -30.0440  -13.4910   19.7700 N   0  0  0  0  0  0  0  0  0  0  0  0
  -31.8450  -14.7310   19.6560 O   0  0  0  0  0  0  0  0  0  0  0  0
  -29.8780  -16.1250   20.2690 N   0  0  0  0  0  0  0  0  0  0  0  0
  -28.9000  -15.8970   20.2320 H   0  0  0  0  0  0  0  0  0  0  0  0
  -25.5330  -13.5270   20.3320 C   0  0  0  0  0  0  0  0  0  0  0  0
  -24.4590  -12.8290   20.8000 C   0  0  0  0  0  0  0  0  0  0  0  0
  -24.8340  -11.4510   20.7620 C   0  0  0  0  0  0  0  0  0  0  0  0
  -26.4840  -12.5750   20.0130 N   0  0  0  0  0  0  0  0  0  0  0  0
  -26.0860  -11.3210   20.3380 N   0  0  0  0  0  0  0  0  0  0  0  0
  -24.0450  -10.2470   21.0380 C   0  0  0  0  0  0  0  0  0  0  0  0
  -24.4720   -9.2840   21.9790 C   0  0  0  0  0  3  0  0  0  0  0  0
  -23.6840   -8.1440   22.2440 C   0  0  0  0  0  3  0  0  0  0  0  0
  -22.4510   -7.9630   21.5710 C   0  0  0  0  0  0  0  0  0  0  0  0
  -22.0410   -8.9140   20.6180 C   0  0  0  0  0  3  0  0  0  0  0  0
  -22.8300  -10.0460   20.3520 C   0  0  0  0  0  3  0  0  0  0  0  0
  -21.6350   -6.8720   21.7390 O   0  0  0  0  0  0  0  0  0  0  0  0
  -21.5740   -6.1990   22.9330 C   0  0  0  0  0  0  0  0  0  0  0  0
  -21.2100   -6.8450   24.1340 C   0  0  0  0  0  3  0  0  0  0  0  0
  -21.0880   -6.1000   25.3250 C   0  0  0  0  0  3  0  0  0  0  0  0
  -21.3240   -4.7120   25.3160 C   0  0  0  0  0  0  0  0  0  0  0  0
  -21.6840   -4.0670   24.1200 C   0  0  0  0  0  3  0  0  0  0  0  0
  -21.8060   -4.8080   22.9320 C   0  0  0  0  0  0  0  0  0  0  0  0
  -22.1280   -4.1780   21.7780 F   0  0  0  0  0  0  0  0  0  0  0  0
  -21.2050   -3.9950   26.4590 F   0  0  0  0  0  0  0  0  0  0  0  0
  -23.1250  -13.4130   21.1550 C   0  0  0  0  0  0  0  0  0  0  0  0
  -22.4170  -12.8100   22.1030 N   0  0  0  0  0  0  0  0  0  0  0  0
  -22.7200  -14.4440   20.6200 O   0  0  0  0  0  0  0  0  0  0  0  0
  -22.7580  -11.9790   22.5660 H   0  0  0  0  0  0  0  0  0  0  0  0
  -21.5230  -13.1970   22.3730 H   0  0  0  0  0  0  0  0  0  0  0  0
  -25.7670  -14.8840   20.1290 N   0  0  0  0  0  0  0  0  0  0  0  0
  -25.0270  -15.5610   20.2780 H   0  0  0  0  0  0  0  0  0  0  0  0
  -26.5740  -15.2930   19.6800 H   0  0  0  0  0  0  0  0  0  0  0  0
  1  4  1  0
  2  1  2  0
  3 17  2  0
  4 53  1  0
  5  8  1  0
  5  6  1  0
  5  2  1  0
  6  3  2  0
  7  6  1  0
  9 10  1  0
  9  8  1  0
 11 10  1  0
 11 12  1  0
 12 14  1  0
 13 24  2  0
 14 19  1  0
 15 23  1  0
 15 25  1  0
 16 18  1  0
 16 22  1  0
 17  4  1  0
 17 23  1  0
 19 18  2  0
 20 14  2  0
 20 21  1  0
 21 16  2  0
 22 15  1  0
 23 13  1  0
 25 27  2  0
 26 25  1  0
 28 26  1  0
 29 38  2  0
 29 34  1  0
 30 26  1  0
 30 34  1  0
 31 30  1  0
 32 33  1  0
 32 31  1  0
 33 29  1  0
 34 35  2  0
 35 36  1  0
 37 36  2  0
 38 37  1  0
 39 13  1  0
 39 44  1  0
 39 40  1  0
 40 43  1  1
 40 41  1  0
 42 40  1  0
 44 47  1  0
 45 49  1  0
 45 44  1  0
 46 45  2  0
 49 48  1  0
 49 51  1  0
 51 52  1  0
 51 50  1  0
 54 53  1  0
 55 56  1  0
 55 54  1  0
 57 56  2  0
 58 57  1  0
 59 67  1  0
 60 65  1  0
 61 62  1  0
 61 60  1  0
 63 62  1  0
 63 72  1  0
 63 64  1  0
 65 59  1  0
 65 64  1  0
 66 59  2  0
 67 58  1  0
 68 67  1  0
 69 70  2  0
 70 89  1  0
 71 70  1  0
 71 74  1  0
 72 69  1  0
 72 73  1  0
 73 71  2  0
 74 75  1  0
 75 76  2  0
 77 80  1  0
 77 76  1  0
 78 77  2  0
 79 78  1  0
 79 74  2  0
 80 81  1  0
 81 82  1  0
 82 83  2  0
 84 83  1  0
 84 88  1  0
 85 84  2  0
 86 81  2  0
 86 85  1  0
 87 86  1  0
 89 90  1  0
 90 93  1  0
 90 92  1  0
 91 89  2  0
 94 95  1  0
 94 69  1  0
 96 94  1  0
M  ISO  4  11 101  12 101  59 100  67 100
M  END
>  <TORSDO>  (36) 
F 26

>  <SCORE>  (36) 
-6.508

>  <name>  (36) 
35

>  <ligand_id>  (36) 
35

>  <original_smiles>  (36) 
[H]c1c([H])c([H])c2c(c1[H])C([H])([H])C([H])([H])C([H])([H])C2([H])N([H])C(=O)C1([H])N(C(=O)C([H])(N([H])C(=O)C([H])(N([H])C([H])([H])[H])C([H])([H])[H])C(C([H])([H])[H])(C([H])([H])[H])C([H])([H])[H])C([H])([H])c2c([H])c(OC([H])([H])C([H])([H])C([H])([H])C([H])([H])c3c([H])c([H])c(C([H])([H])C([H])([H])C([H])([H])C([H])([H])C([H])([H])C([H])([H])N([H])C(=O)N4C([H])([H])C([H])([H])C([H])([H])C([H])(n5nc(-c6c([H])c([H])c(Oc7c([H])c([H])c(F)c([H])c7F)c([H])c6[H])c(C(=O)N([H])[H])c5N([H])[H])C4([H])[H])c([H])c3C([H])([H])[H])c([H])c([H])c2C1([H])[H]

>  <smiles>  (36) 
[H]c1c([H])c([H])c2c(c1[H])C([H])([H])C([H])([H])C([H])([H])C2([H])N([H])C(=O)C1([H])N(C(=O)C([H])(N([H])C(=O)C([H])(N([H])C([H])([H])[H])C([H])([H])[H])C(C([H])([H])[H])(C([H])([H])[H])C([H])([H])[H])C([H])([H])c2c([H])c(OC([H])([H])C([H])([H])C([H])([H])C([H])([H])c3c([H])c([H])c(C([H])([H])C([H])([H])C([H])([H])C([H])([H])C([H])([H])C([H])([H])N([H])C(=O)N4C([H])([H])C([H])([H])C([H])([H])C([H])(n5nc(-c6c([H])c([H])c(Oc7c([H])c([H])c(F)c([H])c7F)c([H])c6[H])c(C(=O)N([H])[H])c5N([H])[H])C4([H])[H])c([H])c3C([H])([H])[H])c([H])c([H])c2C1([H])[H]

$$$$
36:0:0
     RDKit          3D

 89 96  0  0  1  0  0  0  0  0999 V2000
  -28.2310  -22.9870   20.2460 C   0  0  0  0  0  0  0  0  0  0  0  0
  -27.8370  -22.8000   21.4020 O   0  0  0  0  0  0  0  0  0  0  0  0
  -28.5090  -21.8150   19.3060 C   0  0  0  0  0  2  0  0  0  0  0  0
  -27.5620  -20.6190   19.5330 C   0  0  0  0  0  2  0  0  0  0  0  0
  -27.8630  -19.4370   18.6010 C   0  0  0  0  0  2  0  0  0  0  0  0
  -29.1260  -18.6520   19.0010 C   0  0  0  0  0  2  0  0  0  0  0  0
  -28.8390  -17.4790   19.9530 C   0  0  0  0  0  2  0  0  0  0  0  0
  -30.1230  -16.8530   20.5330 C   0  0  0  0  0  2  0  0  0  0  0  0
  -30.6570  -14.4310   20.4590 C   0  0  0  0  0  0  0  0  0  0  0  0
  -30.3530  -12.2890   19.3090 C   0  0  0  0  0  2  0  0  0  0  0  0
  -29.4160  -12.5400   18.1080 C   0  0  0  0  0  2  0  0  0  0  0  0
  -27.9370  -12.4220   18.5310 C   0  0  0  0  0  2  0  0  0  0  0  0
  -27.6100  -13.2400   19.8090 C   0  0  0  0  0  3  0  0  0  0  0  0
  -28.6590  -12.9690   20.9130 C   0  0  0  0  0  2  0  0  0  0  0  0
  -29.9920  -13.2540   20.3540 N   0  0  0  0  0  0  0  0  0  0  0  0
  -31.7860  -14.6200   19.9960 O   0  0  0  0  0  0  0  0  0  0  0  0
  -29.9050  -15.4520   20.8950 N   0  0  0  0  0  0  0  0  0  0  0  0
  -29.0070  -15.2090   21.2840 H   0  0  0  0  0  0  0  0  0  0  0  0
  -25.2090  -13.8690   20.5040 C   0  0  0  0  0  0  0  0  0  0  0  0
  -24.1360  -13.1050   20.8740 C   0  0  0  0  0  0  0  0  0  0  0  0
  -24.5900  -11.7500   20.8540 C   0  0  0  0  0  0  0  0  0  0  0  0
  -26.2520  -12.9800   20.2820 N   0  0  0  0  0  0  0  0  0  0  0  0
  -25.8800  -11.7000   20.5460 N   0  0  0  0  0  0  0  0  0  0  0  0
  -23.8560  -10.4920   21.0500 C   0  0  0  0  0  0  0  0  0  0  0  0
  -24.2980   -9.5150   21.9700 C   0  0  0  0  0  3  0  0  0  0  0  0
  -23.5650   -8.3250   22.1560 C   0  0  0  0  0  3  0  0  0  0  0  0
  -22.3770   -8.1010   21.4210 C   0  0  0  0  0  0  0  0  0  0  0  0
  -21.9530   -9.0660   20.4910 C   0  0  0  0  0  3  0  0  0  0  0  0
  -22.6860  -10.2500   20.3040 C   0  0  0  0  0  3  0  0  0  0  0  0
  -21.6140   -6.9610   21.5150 O   0  0  0  0  0  0  0  0  0  0  0  0
  -21.6000   -6.1980   22.6550 C   0  0  0  0  0  0  0  0  0  0  0  0
  -21.2450   -6.7400   23.9090 C   0  0  0  0  0  3  0  0  0  0  0  0
  -21.1760   -5.9050   25.0440 C   0  0  0  0  0  3  0  0  0  0  0  0
  -21.4520   -4.5290   24.9240 C   0  0  0  0  0  0  0  0  0  0  0  0
  -21.8010   -3.9870   23.6740 C   0  0  0  0  0  3  0  0  0  0  0  0
  -21.8720   -4.8200   22.5430 C   0  0  0  0  0  0  0  0  0  0  0  0
  -22.1910   -4.2900   21.3370 F   0  0  0  0  0  0  0  0  0  0  0  0
  -21.3790   -3.7240   26.0090 F   0  0  0  0  0  0  0  0  0  0  0  0
  -22.7400  -13.5920   21.1410 C   0  0  0  0  0  0  0  0  0  0  0  0
  -22.0100  -12.9070   22.0140 N   0  0  0  0  0  0  0  0  0  0  0  0
  -22.3070  -14.6140   20.6100 O   0  0  0  0  0  0  0  0  0  0  0  0
  -22.3740  -12.0840   22.4690 H   0  0  0  0  0  0  0  0  0  0  0  0
  -21.0720  -13.2120   22.2340 H   0  0  0  0  0  0  0  0  0  0  0  0
  -25.3850  -15.2360   20.3210 N   0  0  0  0  0  0  0  0  0  0  0  0
  -24.6250  -15.8990   20.4270 H   0  0  0  0  0  0  0  0  0  0  0  0
  -26.2440  -15.6640   19.9990 H   0  0  0  0  0  0  0  0  0  0  0  0
  -28.4680  -24.3910   19.6870 C   0  0  0  0  0  2  0  0  0  0  0  0
  -28.3360  -25.4940   20.7460 C   0  0  0  0  0  2  0  0  0  0  0  0
  -28.4060  -26.7820   20.1390 O   0  0  0  0  0  0  0  0  0  0  0  0
  -24.5800  -31.8760   23.2300 C   0  0  0  0  0  0  0  0  0  0  0  0
  -27.2230  -27.4780   20.1360 C   0  0  0  0  0  0  0  0  0  0  0  0
  -23.3670  -30.4740   21.5900 C   0  0  0  0  0  3  0  0  0  0  0  0
  -24.8150  -28.9410   20.1590 C   0  0  0  0  0  0  0  0  0  0  0  0
  -25.8850  -30.8500   21.3750 C   0  0  0  0  0  2  0  0  0  0  0  0
  -25.9720  -29.4810   20.7370 C   0  0  0  0  0  0  0  0  0  0  0  0
  -27.1810  -28.7590   20.7180 C   0  0  0  0  0  3  0  0  0  0  0  0
  -26.0540  -26.9390   19.5550 C   0  0  0  0  0  3  0  0  0  0  0  0
  -24.8490  -27.6670   19.5650 C   0  0  0  0  0  3  0  0  0  0  0  0
  -23.5680  -29.7940   20.2090 C   0  0  0  0  0  2  0  0  0  0  0  0
  -24.6290  -31.0800   22.1240 N   0  0  0  0  0  0  0  0  0  0  0  0
  -23.5010  -32.1470   23.7750 O   0  0  0  0  0  0  0  0  0  0  0  0
  -22.7230  -29.4520   22.5530 C   0  0  0  0  0  0  0  0  0  0  0  0
  -21.4000  -29.2680   22.4280 N   0  0  0  0  0  0  0  0  0  0  0  0
  -23.4120  -28.8280   23.3640 O   0  0  0  0  0  0  0  0  0  0  0  0
  -20.9060  -29.8280   21.7470 H   0  0  0  0  0  0  0  0  0  0  0  0
  -18.0290  -28.0640   22.9230 C   0  0  0  0  0  0  0  0  0  0  0  0
  -20.5860  -28.3280   23.1980 C   0  0  0  0  0  3  0  0  0  0  0  0
  -20.6920  -26.8960   22.6240 C   0  0  0  0  0  2  0  0  0  0  0  0
  -19.5910  -26.5690   21.6090 C   0  0  0  0  0  2  0  0  0  0  0  0
  -18.2090  -26.7120   22.2500 C   0  0  0  0  0  2  0  0  0  0  0  0
  -19.1450  -28.8270   23.3540 C   0  0  0  0  0  0  0  0  0  0  0  0
  -18.9240  -30.0940   23.9390 C   0  0  0  0  0  3  0  0  0  0  0  0
  -17.6180  -30.5930   24.1000 C   0  0  0  0  0  3  0  0  0  0  0  0
  -16.5160  -29.8260   23.6850 C   0  0  0  0  0  3  0  0  0  0  0  0
  -16.7220  -28.5620   23.1030 C   0  0  0  0  0  3  0  0  0  0  0  0
  -25.8710  -32.5050   23.8470 C   0  0  0  0  0  3  0  0  0  0  0  0
  -25.5650  -33.9020   24.1860 N   0  0  0  0  0  0  0  0  0  0  0  0
  -25.8910  -34.9570   23.4270 C   0  0  0  0  0  0  0  0  0  0  0  0
  -26.5560  -34.8570   22.3930 O   0  0  0  0  0  0  0  0  0  0  0  0
  -24.9780  -34.0550   24.9920 H   0  0  0  0  0  0  0  0  0  0  0  0
  -24.1560  -36.7450   23.0800 C   0  0  0  0  0  1  0  0  0  0  0  0
  -25.4010  -36.3430   23.8890 C   0  0  0  0  0  3  0  0  0  0  0  0
  -27.5390  -37.2240   24.7100 C   0  0  0  0  0  1  0  0  0  0  0  0
  -26.4310  -37.3980   23.7760 N   0  0  0  0  0  0  0  0  0  0  0  0
  -26.0250  -38.3200   23.9270 H   0  0  0  0  0  0  0  0  0  0  0  0
  -26.3980  -31.7270   25.1140 C   0  0  1  0  0  0  0  0  0  0  0  0
  -25.3150  -31.4810   26.1920 C   0  0  0  0  0  1  0  0  0  0  0  0
  -26.9770  -30.3540   24.7050 C   0  0  0  0  0  1  0  0  0  0  0  0
  -27.5550  -32.5170   25.7730 C   0  0  0  0  0  1  0  0  0  0  0  0
  1  2  2  0
  3  4  1  0
  3  1  1  0
  5  6  1  0
  5  4  1  0
  6  7  1  0
  7  8  1  0
  8 17  1  0
  9 17  1  0
 10 15  1  0
 11 12  1  0
 11 10  1  0
 13 12  1  0
 13 22  1  0
 13 14  1  0
 15  9  1  0
 15 14  1  0
 16  9  2  0
 17 18  1  0
 19 20  2  0
 20 39  1  0
 21 20  1  0
 21 24  1  0
 22 19  1  0
 22 23  1  0
 23 21  2  0
 24 25  1  0
 25 26  2  0
 27 30  1  0
 27 26  1  0
 28 27  2  0
 29 28  1  0
 29 24  2  0
 30 31  1  0
 31 32  1  0
 32 33  2  0
 34 33  1  0
 34 38  1  0
 35 34  2  0
 36 31  2  0
 36 35  1  0
 37 36  1  0
 39 40  1  0
 40 43  1  0
 40 42  1  0
 41 39  2  0
 44 45  1  0
 44 19  1  0
 46 44  1  0
 47  1  1  0
 47 48  1  0
 49 48  1  0
 50 61  2  0
 51 49  1  0
 51 56  1  0
 52 60  1  0
 52 62  1  0
 53 59  1  0
 53 55  1  0
 54 60  1  0
 55 54  1  0
 56 55  2  0
 57 58  1  0
 57 51  2  0
 58 53  2  0
 59 52  1  0
 60 50  1  0
 62 64  2  0
 63 62  1  0
 65 63  1  0
 66 75  2  0
 66 71  1  0
 67 63  1  0
 67 71  1  0
 68 67  1  0
 69 70  1  0
 69 68  1  0
 70 66  1  0
 71 72  2  0
 72 73  1  0
 74 73  2  0
 75 74  1  0
 76 50  1  0
 76 77  1  0
 76 86  1  0
 77 80  1  0
 78 82  1  0
 78 77  1  0
 79 78  2  0
 82 81  1  0
 84 82  1  0
 84 85  1  0
 84 83  1  0
 86 89  1  1
 86 87  1  0
 88 86  1  0
M  ISO  4   9 100  17 100  48 101  49 101
M  END
>  <TORSDO>  (37) 
F 24

>  <SCORE>  (37) 
-12.390

>  <name>  (37) 
36

>  <ligand_id>  (37) 
36

>  <original_smiles>  (37) 
[H]c1c([H])c([H])c2c(c1[H])C([H])([H])C([H])([H])C([H])([H])C2([H])N([H])C(=O)C1([H])N(C(=O)C([H])(N([H])C(=O)C([H])(N([H])C([H])([H])[H])C([H])([H])[H])C(C([H])([H])[H])(C([H])([H])[H])C([H])([H])[H])C([H])([H])c2c([H])c(OC([H])([H])C([H])([H])C(=O)C([H])([H])C([H])([H])C([H])([H])C([H])([H])C([H])([H])C([H])([H])N([H])C(=O)N3C([H])([H])C([H])([H])C([H])([H])C([H])(n4nc(-c5c([H])c([H])c(Oc6c([H])c([H])c(F)c([H])c6F)c([H])c5[H])c(C(=O)N([H])[H])c4N([H])[H])C3([H])[H])c([H])c([H])c2C1([H])[H]

>  <smiles>  (37) 
[H]c1c([H])c([H])c2c(c1[H])C([H])([H])C([H])([H])C([H])([H])C2([H])N([H])C(=O)C1([H])N(C(=O)C([H])(N([H])C(=O)C([H])(N([H])C([H])([H])[H])C([H])([H])[H])C(C([H])([H])[H])(C([H])([H])[H])C([H])([H])[H])C([H])([H])c2c([H])c(OC([H])([H])C([H])([H])C(=O)C([H])([H])C([H])([H])C([H])([H])C([H])([H])C([H])([H])C([H])([H])N([H])C(=O)N3C([H])([H])C([H])([H])C([H])([H])C([H])(n4nc(-c5c([H])c([H])c(Oc6c([H])c([H])c(F)c([H])c6F)c([H])c5[H])c(C(=O)N([H])[H])c4N([H])[H])C3([H])[H])c([H])c([H])c2C1([H])[H]

$$$$
37:0:0
     RDKit          3D

 97105  0  0  1  0  0  0  0  0999 V2000
  -23.6950  -24.0580   23.5980 C   0  0  0  0  0  3  0  0  0  0  0  0
  -24.7950  -24.2990   22.7540 C   0  0  0  0  0  3  0  0  0  0  0  0
  -22.4520  -23.6910   23.0510 C   0  0  0  0  0  3  0  0  0  0  0  0
  -23.4000  -23.8290   20.8120 C   0  0  0  0  0  3  0  0  0  0  0  0
  -24.6630  -24.1680   21.3530 C   0  0  0  0  0  0  0  0  0  0  0  0
  -22.2960  -23.5750   21.6540 C   0  0  0  0  0  0  0  0  0  0  0  0
  -25.7870  -24.4580   20.4210 C   0  0  0  0  0  0  0  0  0  0  0  0
  -25.5990  -24.7400   19.2340 O   0  0  0  0  0  0  0  0  0  0  0  0
  -27.2290  -24.2710   20.9130 C   0  0  0  0  0  2  0  0  0  0  0  0
  -28.1560  -23.4110   20.0310 C   0  0  0  0  0  2  0  0  0  0  0  0
  -29.3370  -24.1100   19.6410 O   0  0  0  0  0  0  0  0  0  0  0  0
  -36.4520  -23.9470   19.5180 C   0  0  0  0  0  0  0  0  0  0  0  0
  -30.4910  -23.5060   20.0700 C   0  0  0  0  0  0  0  0  0  0  0  0
  -35.3330  -21.9620   20.4840 C   0  0  0  0  0  3  0  0  0  0  0  0
  -32.8360  -22.2110   20.9370 C   0  0  0  0  0  0  0  0  0  0  0  0
  -34.2200  -24.2620   20.5710 C   0  0  0  0  0  2  0  0  0  0  0  0
  -32.8870  -23.5490   20.5280 C   0  0  0  0  0  0  0  0  0  0  0  0
  -31.7180  -24.2030   20.0880 C   0  0  0  0  0  3  0  0  0  0  0  0
  -30.4450  -22.1660   20.4970 C   0  0  0  0  0  3  0  0  0  0  0  0
  -31.6160  -21.5100   20.9160 C   0  0  0  0  0  3  0  0  0  0  0  0
  -34.1330  -21.5850   21.3950 C   0  0  0  0  0  2  0  0  0  0  0  0
  -35.3620  -23.4220   20.1440 N   0  0  0  0  0  0  0  0  0  0  0  0
  -37.4420  -23.2480   19.2630 O   0  0  0  0  0  0  0  0  0  0  0  0
  -35.3150  -21.0460   19.2400 C   0  0  0  0  0  0  0  0  0  0  0  0
  -34.6800  -21.5250   18.1570 N   0  0  0  0  0  0  0  0  0  0  0  0
  -35.8790  -19.9490   19.2540 O   0  0  0  0  0  0  0  0  0  0  0  0
  -34.2340  -22.4280   18.2290 H   0  0  0  0  0  0  0  0  0  0  0  0
  -36.4360  -20.8520   15.0720 C   0  0  0  0  0  0  0  0  0  0  0  0
  -34.5690  -20.8560   16.8620 C   0  0  0  0  0  3  0  0  0  0  0  0
  -34.8310  -19.3380   16.9930 C   0  0  0  0  0  2  0  0  0  0  0  0
  -36.2920  -18.9520   16.7370 C   0  0  0  0  0  2  0  0  0  0  0  0
  -36.7220  -19.3830   15.3320 C   0  0  0  0  0  2  0  0  0  0  0  0
  -35.4330  -21.5460   15.7990 C   0  0  0  0  0  0  0  0  0  0  0  0
  -35.2250  -22.9190   15.5370 C   0  0  0  0  0  3  0  0  0  0  0  0
  -35.9940  -23.5930   14.5700 C   0  0  0  0  0  3  0  0  0  0  0  0
  -36.9760  -22.8960   13.8440 C   0  0  0  0  0  3  0  0  0  0  0  0
  -37.1910  -21.5290   14.0930 C   0  0  0  0  0  3  0  0  0  0  0  0
  -36.5180  -25.4540   19.1170 C   0  0  0  0  0  3  0  0  0  0  0  0
  -37.5230  -25.7400   17.9330 C   0  0  1  0  0  0  0  0  0  0  0  0
  -38.9210  -25.1130   18.1400 C   0  0  0  0  0  1  0  0  0  0  0  0
  -36.9590  -25.2030   16.5970 C   0  0  0  0  0  1  0  0  0  0  0  0
  -37.7040  -27.2650   17.7540 C   0  0  0  0  0  1  0  0  0  0  0  0
  -36.8990  -26.2140   20.3140 N   0  0  0  0  0  0  0  0  0  0  0  0
  -36.4820  -27.4580   20.5870 C   0  0  0  0  0  0  0  0  0  0  0  0
  -35.7860  -28.1180   19.8110 O   0  0  0  0  0  0  0  0  0  0  0  0
  -37.4270  -25.7190   21.0170 H   0  0  0  0  0  0  0  0  0  0  0  0
  -35.6570  -28.3310   22.7950 C   0  0  0  0  0  1  0  0  0  0  0  0
  -36.9050  -28.0660   21.9380 C   0  0  0  0  0  3  0  0  0  0  0  0
  -39.0000  -29.1040   21.1900 C   0  0  0  0  0  1  0  0  0  0  0  0
  -37.6900  -29.3110   21.8020 N   0  0  0  0  0  0  0  0  0  0  0  0
  -37.8290  -29.7520   22.7070 H   0  0  0  0  0  0  0  0  0  0  0  0
  -20.9410  -23.2010   21.0730 C   0  0  0  0  0  2  0  0  0  0  0  0
  -19.9710  -24.3960   20.9700 C   0  0  0  0  0  2  0  0  0  0  0  0
  -18.6320  -24.2250   21.7100 C   0  0  0  0  0  2  0  0  0  0  0  0
  -18.7220  -24.3370   23.2400 C   0  0  0  0  0  2  0  0  0  0  0  0
  -17.4570  -24.9560   23.8550 C   0  0  0  0  0  2  0  0  0  0  0  0
  -16.1890  -24.1450   23.5330 C   0  0  0  0  0  2  0  0  0  0  0  0
  -15.6460  -24.3670   22.1110 C   0  0  0  0  0  2  0  0  0  0  0  0
  -14.4440  -23.4790   21.7480 C   0  0  0  0  0  2  0  0  0  0  0  0
  -13.2900  -25.6210   21.5210 C   0  0  0  0  0  0  0  0  0  0  0  0
  -12.5970  -27.4490   23.0280 C   0  0  0  0  0  2  0  0  0  0  0  0
  -13.7390  -27.8950   23.9580 C   0  0  0  0  0  2  0  0  0  0  0  0
  -13.7950  -27.0150   25.2220 C   0  0  0  0  0  2  0  0  0  0  0  0
  -13.7600  -25.4990   24.8940 C   0  0  0  0  0  3  0  0  0  0  0  0
  -12.6050  -25.1890   23.9160 C   0  0  0  0  0  2  0  0  0  0  0  0
  -12.7810  -26.0230   22.7150 N   0  0  0  0  0  0  0  0  0  0  0  0
  -13.5840  -26.3980   20.6100 O   0  0  0  0  0  0  0  0  0  0  0  0
  -13.3190  -24.3020   21.3050 N   0  0  0  0  0  0  0  0  0  0  0  0
  -13.0780  -24.0890   20.3480 H   0  0  0  0  0  0  0  0  0  0  0  0
  -14.3170  -24.8570   27.3270 C   0  0  0  0  0  0  0  0  0  0  0  0
  -13.8270  -23.8760   28.1480 C   0  0  0  0  0  0  0  0  0  0  0  0
  -12.8730  -23.1510   27.3700 C   0  0  0  0  0  0  0  0  0  0  0  0
  -13.6710  -24.6940   26.1110 N   0  0  0  0  0  0  0  0  0  0  0  0
  -12.8330  -23.6260   26.1310 N   0  0  0  0  0  0  0  0  0  0  0  0
  -11.9520  -22.0710   27.7500 C   0  0  0  0  0  0  0  0  0  0  0  0
  -12.4240  -20.7850   28.0950 C   0  0  0  0  0  3  0  0  0  0  0  0
  -11.5220  -19.7680   28.4730 C   0  0  0  0  0  3  0  0  0  0  0  0
  -10.1330  -20.0310   28.5140 C   0  0  0  0  0  0  0  0  0  0  0  0
   -9.6660  -21.3060   28.1470 C   0  0  0  0  0  3  0  0  0  0  0  0
  -10.5650  -22.3150   27.7650 C   0  0  0  0  0  3  0  0  0  0  0  0
   -9.1810  -19.0970   28.8440 O   0  0  0  0  0  0  0  0  0  0  0  0
   -8.7240  -18.9600   30.1310 C   0  0  0  0  0  0  0  0  0  0  0  0
   -8.1570  -20.0400   30.8400 C   0  0  0  0  0  3  0  0  0  0  0  0
   -7.6370  -19.8370   32.1350 C   0  0  0  0  0  3  0  0  0  0  0  0
   -7.6770  -18.5540   32.7150 C   0  0  0  0  0  0  0  0  0  0  0  0
   -8.2370  -17.4770   32.0080 C   0  0  0  0  0  3  0  0  0  0  0  0
   -8.7570  -17.6790   30.7170 C   0  0  0  0  0  0  0  0  0  0  0  0
   -9.2780  -16.6330   30.0310 F   0  0  0  0  0  0  0  0  0  0  0  0
   -7.1690  -18.3560   33.9540 F   0  0  0  0  0  0  0  0  0  0  0  0
  -14.1520  -23.6790   29.6010 C   0  0  0  0  0  0  0  0  0  0  0  0
  -14.1670  -22.4340   30.0650 N   0  0  0  0  0  0  0  0  0  0  0  0
  -14.4410  -24.6300   30.3270 O   0  0  0  0  0  0  0  0  0  0  0  0
  -13.9460  -21.6490   29.4690 H   0  0  0  0  0  0  0  0  0  0  0  0
  -14.4020  -22.2610   31.0320 H   0  0  0  0  0  0  0  0  0  0  0  0
  -15.2420  -25.8810   27.5200 N   0  0  0  0  0  0  0  0  0  0  0  0
  -15.6850  -26.0360   28.4190 H   0  0  0  0  0  0  0  0  0  0  0  0
  -15.4810  -26.5820   26.8320 H   0  0  0  0  0  0  0  0  0  0  0  0
  2  1  2  0
  3  1  1  0
  4  5  2  0
  4  6  1  0
  5  2  1  0
  6  3  2  0
  7  9  1  0
  7  5  1  0
  8  7  2  0
 10  9  1  0
 11 10  1  0
 11 13  1  0
 12 22  1  0
 13 18  2  0
 13 19  1  0
 14 24  1  0
 14 21  1  0
 15 21  1  0
 17 16  1  0
 17 15  2  0
 18 17  1  0
 19 20  2  0
 20 15  1  0
 22 14  1  0
 22 16  1  0
 23 12  2  0
 24 26  2  0
 25 27  1  0
 25 24  1  0
 28 32  1  0
 28 33  1  0
 29 30  1  0
 29 25  1  0
 31 30  1  0
 32 31  1  0
 33 29  1  0
 34 33  2  0
 35 34  1  0
 36 37  1  0
 36 35  2  0
 37 28  2  0
 38 12  1  0
 38 43  1  0
 39 40  1  1
 39 38  1  0
 41 39  1  0
 42 39  1  0
 43 44  1  0
 43 46  1  0
 44 48  1  0
 45 44  2  0
 48 47  1  0
 49 50  1  0
 50 48  1  0
 50 51  1  0
 52  6  1  0
 53 52  1  0
 53 54  1  0
 54 55  1  0
 55 56  1  0
 57 56  1  0
 58 57  1  0
 59 58  1  0
 60 66  1  0
 61 62  1  0
 62 63  1  0
 64 65  1  0
 64 63  1  0
 64 73  1  0
 66 61  1  0
 66 65  1  0
 67 60  2  0
 68 60  1  0
 68 59  1  0
 69 68  1  0
 70 95  1  0
 70 71  2  0
 71 90  1  0
 72 75  1  0
 72 71  1  0
 73 74  1  0
 73 70  1  0
 74 72  2  0
 75 80  2  0
 75 76  1  0
 76 77  2  0
 77 78  1  0
 78 81  1  0
 79 78  2  0
 80 79  1  0
 81 82  1  0
 82 87  2  0
 82 83  1  0
 83 84  2  0
 84 85  1  0
 85 89  1  0
 86 85  2  0
 87 86  1  0
 88 87  1  0
 90 91  1  0
 90 92  2  0
 91 94  1  0
 93 91  1  0
 95 96  1  0
 97 95  1  0
M  ISO  4  10 101  11 101  60 100  68 100
M  END
>  <TORSDO>  (38) 
F 27

>  <SCORE>  (38) 
12.598

>  <name>  (38) 
37

>  <ligand_id>  (38) 
37

>  <original_smiles>  (38) 
[H]c1c([H])c([H])c2c(c1[H])C([H])([H])C([H])([H])C([H])([H])C2([H])N([H])C(=O)C1([H])N(C(=O)C([H])(N([H])C(=O)C([H])(N([H])C([H])([H])[H])C([H])([H])[H])C(C([H])([H])[H])(C([H])([H])[H])C([H])([H])[H])C([H])([H])c2c([H])c(OC([H])([H])C([H])([H])C(=O)c3c([H])c([H])c([H])c(C([H])([H])C([H])([H])C([H])([H])C([H])([H])C([H])([H])C([H])([H])C([H])([H])C([H])([H])N([H])C(=O)N4C([H])([H])C([H])([H])C([H])([H])C([H])(n5nc(-c6c([H])c([H])c(Oc7c([H])c([H])c(F)c([H])c7F)c([H])c6[H])c(C(=O)N([H])[H])c5N([H])[H])C4([H])[H])c3[H])c([H])c([H])c2C1([H])[H]

>  <smiles>  (38) 
[H]c1c([H])c([H])c2c(c1[H])C([H])([H])C([H])([H])C([H])([H])C2([H])N([H])C(=O)C1([H])N(C(=O)C([H])(N([H])C(=O)C([H])(N([H])C([H])([H])[H])C([H])([H])[H])C(C([H])([H])[H])(C([H])([H])[H])C([H])([H])[H])C([H])([H])c2c([H])c(OC([H])([H])C([H])([H])C(=O)c3c([H])c([H])c([H])c(C([H])([H])C([H])([H])C([H])([H])C([H])([H])C([H])([H])C([H])([H])C([H])([H])C([H])([H])N([H])C(=O)N4C([H])([H])C([H])([H])C([H])([H])C([H])(n5nc(-c6c([H])c([H])c(Oc7c([H])c([H])c(F)c([H])c7F)c([H])c6[H])c(C(=O)N([H])[H])c5N([H])[H])C4([H])[H])c3[H])c([H])c([H])c2C1([H])[H]

$$$$
38:0:0
     RDKit          3D

 97102  0  0  1  0  0  0  0  0999 V2000
  -27.5050  -14.6350   21.8670 C   0  0  0  0  0  3  0  0  0  0  0  0
  -27.6760  -14.4330   18.9860 C   0  0  0  0  0  3  0  0  0  0  0  0
  -27.5770  -15.5610   20.3080 C   0  0  0  0  0  2  0  0  0  0  0  0
  -27.5620  -12.7770   22.1730 C   0  0  0  0  0  0  0  0  0  0  0  0
  -27.8260  -12.6190   18.9660 C   0  0  0  0  0  0  0  0  0  0  0  0
  -27.8230  -11.6580   20.6850 C   0  0  2  0  0  0  0  0  0  0  0  0
  -27.4280  -12.1510   23.5460 C   0  0  0  0  0  1  0  0  0  0  0  0
  -27.8580  -10.3030   20.8090 F   0  0  0  0  0  0  0  0  0  0  0  0
  -27.1930  -12.4320   16.5240 C   0  0  0  0  0  1  0  0  0  0  0  0
  -28.3190  -12.2360   17.5590 C   0  0  0  0  0  3  0  0  0  0  0  0
  -29.5140  -13.1690   17.2090 N   0  0  0  0  0  4  0  0  0  0  0  0
  -29.5970  -13.1130   16.2060 H   0  0  0  0  0  0  0  0  0  0  0  0
  -29.1840  -14.0910   17.4310 H   0  0  0  0  0  0  0  0  0  0  0  0
  -30.9770  -13.1390   17.7110 C   0  0  0  0  0  2  0  0  0  0  0  0
  -31.4820  -13.8130   19.1250 C   0  0  0  0  0  2  0  0  0  0  0  0
  -31.9950  -12.6790   21.5400 C   0  0  0  0  0  0  0  0  0  0  0  0
  -31.4880  -10.3220   21.2130 C   0  0  0  0  0  2  0  0  0  0  0  0
  -31.1880  -10.4740   19.7700 C   0  0  0  0  0  2  0  0  0  0  0  0
  -29.9190  -11.2060   19.7140 C   0  0  0  0  0  2  0  0  0  0  0  0
  -29.1780  -12.5450   20.7420 C   0  0  0  0  0  3  0  0  0  0  0  0
  -29.8770  -11.8590   22.0700 C   0  0  0  0  0  2  0  0  0  0  0  0
  -31.2140  -11.6250   21.7890 N   0  0  0  0  0  0  0  0  0  0  0  0
  -32.8240  -12.9490   22.3700 O   0  0  0  0  0  0  0  0  0  0  0  0
  -32.2370  -13.0640   20.2240 N   0  0  0  0  0  0  0  0  0  0  0  0
  -33.2210  -13.2730   20.1400 H   0  0  0  0  0  0  0  0  0  0  0  0
  -25.3360  -13.5600   21.0170 C   0  0  0  0  0  3  0  0  0  0  0  0
  -24.3110  -12.6730   21.2800 C   0  0  1  0  0  0  0  0  0  0  0  0
  -24.6830  -11.3240   21.1280 C   0  0  0  0  0  3  0  0  0  0  0  0
  -26.3440  -12.9130   20.4730 N   0  0  0  0  0  2  0  0  0  0  0  0
  -25.3860  -11.7750   20.1200 N   0  0  0  0  0  0  0  0  0  0  0  0
  -23.9230   -9.9850   21.1540 C   0  0  0  0  0  0  0  0  0  0  0  0
  -24.0520   -8.9730   22.1640 C   0  0  0  0  0  3  0  0  0  0  0  0
  -23.1680   -7.8510   22.2460 C   0  0  0  0  0  3  0  0  0  0  0  0
  -22.1100   -7.7010   21.3170 C   0  0  0  0  0  0  0  0  0  0  0  0
  -22.0160   -8.6560   20.2870 C   0  0  0  0  0  3  0  0  0  0  0  0
  -22.9030   -9.7560   20.2030 C   0  0  0  0  0  3  0  0  0  0  0  0
  -21.1920   -6.6630   21.3010 O   0  0  0  0  0  0  0  0  0  0  0  0
  -20.7810   -5.9940   22.4350 C   0  0  0  0  0  0  0  0  0  0  0  0
  -20.2430   -6.6690   23.5540 C   0  0  0  0  0  3  0  0  0  0  0  0
  -19.7900   -5.9400   24.6730 C   0  0  0  0  0  3  0  0  0  0  0  0
  -19.8470   -4.5330   24.6730 C   0  0  0  0  0  0  0  0  0  0  0  0
  -20.3560   -3.8540   23.5530 C   0  0  0  0  0  3  0  0  0  0  0  0
  -20.8150   -4.5810   22.4370 C   0  0  0  0  0  0  0  0  0  0  0  0
  -21.2820   -3.9120   21.3550 F   0  0  0  0  0  0  0  0  0  0  0  0
  -19.4130   -3.8340   25.7480 F   0  0  0  0  0  0  0  0  0  0  0  0
  -22.9570  -13.1170   21.0020 C   0  0  0  0  0  0  0  0  0  0  0  0
  -21.9980  -12.5270   21.6860 N   0  0  0  0  0  0  0  0  0  0  0  0
  -22.7710  -13.9840   20.1500 O   0  0  0  0  0  0  0  0  0  0  0  0
  -22.2010  -11.8190   22.3740 H   0  0  0  0  0  0  0  0  0  0  0  0
  -21.0360  -12.7930   21.5270 H   0  0  0  0  0  0  0  0  0  0  0  0
  -25.4580  -14.9080   20.9850 N   0  0  0  0  0  0  0  0  0  0  0  0
  -24.8170  -15.5140   21.4790 H   0  0  0  0  0  0  0  0  0  0  0  0
  -26.3920  -15.2870   20.8710 H   0  0  0  0  0  0  0  0  0  0  0  0
  -27.2620  -17.6340   19.9730 C   0  0  0  0  0 15  0  0  0  0  0  0
  -27.8500  -19.7610   19.6280 C   0  0  0  0  0 15  0  0  0  0  0  0
  -27.3950  -21.9470   19.4680 C   0  0  0  0  0 15  0  0  0  0  0  0
  -27.8980  -23.8810   19.3690 O   0  0  0  0  0  1  0  0  0  0  0  0
  -24.9780  -30.7830   22.5520 C   0  0  0  0  0  0  0  0  0  0  0  0
  -27.2420  -25.4150   19.3860 C   0  0  0  0  0  0  0  0  0  0  0  0
  -23.8340  -29.4770   20.8310 C   0  0  0  0  0  3  0  0  0  0  0  0
  -25.2610  -27.8460   19.3510 C   0  0  0  0  0  0  0  0  0  0  0  0
  -26.4270  -29.4560   20.8130 C   0  0  0  0  0  2  0  0  0  0  0  0
  -26.4440  -28.0180   20.0750 C   0  0  0  0  0  0  0  0  0  0  0  0
  -27.4310  -26.8390   20.0430 C   0  0  0  0  0  3  0  0  0  0  0  0
  -26.1100  -25.6130   18.5620 C   0  0  0  0  0  3  0  0  0  0  0  0
  -25.1750  -26.6940   18.5550 C   0  0  0  0  0  3  0  0  0  0  0  0
  -24.1080  -28.8660   19.4250 C   0  0  0  0  0  2  0  0  0  0  0  0
  -25.1130  -29.9530   21.4500 N   0  0  0  0  0  0  0  0  0  0  0  0
  -23.8650  -31.0680   23.0350 O   0  0  0  0  0  0  0  0  0  0  0  0
  -23.0850  -28.4580   21.7340 C   0  0  0  0  0  0  0  0  0  0  0  0
  -21.7410  -28.3820   21.6480 N   0  0  0  0  0  0  0  0  0  0  0  0
  -23.7280  -27.7330   22.4960 O   0  0  0  0  0  0  0  0  0  0  0  0
  -21.2690  -29.0190   21.0210 H   0  0  0  0  0  0  0  0  0  0  0  0
  -18.3140  -27.2950   22.2280 C   0  0  0  0  0  0  0  0  0  0  0  0
  -20.8980  -27.4130   22.3620 C   0  0  0  0  0  3  0  0  0  0  0  0
  -20.8840  -26.0450   21.6370 C   0  0  0  0  0  2  0  0  0  0  0  0
  -19.7160  -25.8930   20.6570 C   0  0  0  0  0  2  0  0  0  0  0  0
  -18.3800  -26.0300   21.3920 C   0  0  0  0  0  2  0  0  0  0  0  0
  -19.4940  -27.9540   22.6710 C   0  0  0  0  0  0  0  0  0  0  0  0
  -19.3680  -29.1410   23.4240 C   0  0  0  0  0  3  0  0  0  0  0  0
  -18.1000  -29.6700   23.7300 C   0  0  0  0  0  3  0  0  0  0  0  0
  -16.9380  -29.0100   23.2940 C   0  0  0  0  0  3  0  0  0  0  0  0
  -17.0470  -27.8220   22.5510 C   0  0  0  0  0  3  0  0  0  0  0  0
  -26.2030  -31.4290   23.2670 C   0  0  0  0  0  3  0  0  0  0  0  0
  -25.7820  -32.7250   23.8470 N   0  0  0  0  0  0  0  0  0  0  0  0
  -26.0750  -33.9370   23.3520 C   0  0  0  0  0  0  0  0  0  0  0  0
  -26.7750  -34.0860   22.3490 O   0  0  0  0  0  0  0  0  0  0  0  0
  -25.1480  -32.6760   24.6300 H   0  0  0  0  0  0  0  0  0  0  0  0
  -24.2840  -35.7200   23.3170 C   0  0  0  0  0  1  0  0  0  0  0  0
  -25.5070  -35.1790   24.0770 C   0  0  0  0  0  3  0  0  0  0  0  0
  -27.5610  -35.9470   25.1910 C   0  0  0  0  0  1  0  0  0  0  0  0
  -26.4910  -36.2710   24.2510 N   0  0  0  0  0  0  0  0  0  0  0  0
  -26.0320  -37.1180   24.5740 H   0  0  0  0  0  0  0  0  0  0  0  0
  -26.7970  -30.5200   24.4160 C   0  0  1  0  0  0  0  0  0  0  0  0
  -25.7460  -30.0490   25.4500 C   0  0  0  0  0  1  0  0  0  0  0  0
  -27.4610  -29.2530   23.8380 C   0  0  0  0  0  1  0  0  0  0  0  0
  -27.9040  -31.2910   25.1710 C   0  0  0  0  0  1  0  0  0  0  0  0
  1  4  2  0
  2  3  1  0
  3  1  1  0
  4  7  1  0
  5  2  2  0
  5  6  1  0
  6 20  1  0
  6  8  1  6
  6  4  1  0
 10  9  1  0
 10  5  1  0
 11 13  1  0
 11 10  1  0
 11 14  1  0
 12 11  1  0
 14 15  1  0
 15 24  1  0
 16 22  1  0
 16 23  2  0
 17 22  1  0
 18 17  1  0
 19 18  1  0
 20 19  1  0
 20 21  1  0
 22 21  1  0
 24 16  1  0
 25 24  1  0
 26 51  1  0
 26 27  1  0
 27 46  1  1
 28 31  1  0
 28 27  1  0
 29 26  1  0
 30 29  1  0
 30 28  1  0
 30 27  1  0
 31 32  1  0
 32 33  2  0
 34 33  1  0
 35 34  2  0
 36 35  1  0
 36 31  2  0
 37 34  1  0
 37 38  1  0
 38 43  2  0
 38 39  1  0
 39 40  2  0
 41 40  1  0
 41 45  1  0
 42 41  2  0
 43 42  1  0
 44 43  1  0
 46 47  1  0
 47 49  1  0
 48 46  2  0
 50 47  1  0
 51 52  1  0
 53 51  1  0
 57 59  1  0
 58 69  2  0
 59 64  1  0
 60 68  1  0
 60 70  1  0
 61 67  1  0
 61 63  1  0
 62 68  1  0
 63 62  1  0
 64 63  2  0
 65 59  2  0
 66 65  1  0
 66 61  2  0
 67 60  1  0
 68 58  1  0
 70 72  2  0
 71 70  1  0
 73 71  1  0
 74 83  2  0
 74 79  1  0
 75 71  1  0
 75 79  1  0
 76 75  1  0
 77 78  1  0
 77 76  1  0
 78 74  1  0
 79 80  2  0
 80 81  1  0
 82 81  2  0
 83 82  1  0
 84 58  1  0
 84 85  1  0
 84 94  1  0
 85 88  1  0
 86 85  1  0
 86 90  1  0
 87 86  2  0
 90 89  1  0
 90 92  1  0
 92 93  1  0
 92 91  1  0
 94 97  1  1
 94 95  1  0
 96 94  1  0
M  ISO  4  16 100  24 100  56 101  57 101
M  END
>  <TORSDO>  (39) 
F 23

>  <SCORE>  (39) 
-4.436

>  <name>  (39) 
38

>  <ligand_id>  (39) 
38

>  <original_smiles>  (39) 
[H]c1c([H])c([H])c2c(c1[H])C([H])([H])C([H])([H])C([H])([H])C2([H])N([H])C(=O)C1([H])N(C(=O)C([H])(N([H])C(=O)C([H])(N([H])C([H])([H])[H])C([H])([H])[H])C(C([H])([H])[H])(C([H])([H])[H])C([H])([H])[H])C([H])([H])c2c([H])c(OC([H])([H])C([H])([H])C([H])([H])c3c([H])c(C([H])([H])[H])c(F)c(C([H])(C([H])([H])[H])[N+]([H])([H])C([H])([H])C([H])([H])N([H])C(=O)N4C([H])([H])C([H])([H])C([H])([H])C([H])(n5nc(-c6c([H])c([H])c(Oc7c([H])c([H])c(F)c([H])c7F)c([H])c6[H])c(C(=O)N([H])[H])c5N([H])[H])C4([H])[H])c3[H])c([H])c([H])c2C1([H])[H]

>  <smiles>  (39) 
[H]c1c([H])c([H])c2c(c1[H])C([H])([H])C([H])([H])C([H])([H])C2([H])N([H])C(=O)C1([H])N(C(=O)C([H])(N([H])C(=O)C([H])(N([H])C([H])([H])[H])C([H])([H])[H])C(C([H])([H])[H])(C([H])([H])[H])C([H])([H])[H])C([H])([H])c2c([H])c(OC([H])([H])C([H])([H])C([H])([H])c3c([H])c(C([H])([H])[H])c(F)c(C([H])(C([H])([H])[H])[N+]([H])([H])C([H])([H])C([H])([H])N([H])C(=O)N4C([H])([H])C([H])([H])C([H])([H])C([H])(n5nc(-c6c([H])c([H])c(Oc7c([H])c([H])c(F)c([H])c7F)c([H])c6[H])c(C(=O)N([H])[H])c5N([H])[H])C4([H])[H])c3[H])c([H])c([H])c2C1([H])[H]

$$$$
39:0:0
     RDKit          3D

101110  0  0  1  0  0  0  0  0999 V2000
  -31.9650  -20.2780   18.9960 C   0  0  0  0  0  2  0  0  0  0  0  0
  -31.0060  -14.8800   20.4240 C   0  0  0  0  0  0  0  0  0  0  0  0
  -30.7980  -12.5710   19.6260 C   0  0  0  0  0  2  0  0  0  0  0  0
  -29.9090  -12.5700   18.3620 C   0  0  0  0  0  2  0  0  0  0  0  0
  -28.4210  -12.4300   18.7400 C   0  0  0  0  0  2  0  0  0  0  0  0
  -27.9900  -13.4010   19.8710 C   0  0  0  0  0  3  0  0  0  0  0  0
  -29.0140  -13.4050   21.0340 C   0  0  0  0  0  2  0  0  0  0  0  0
  -30.3360  -13.6910   20.4570 N   0  0  0  0  0  0  0  0  0  0  0  0
  -32.2370  -14.9000   20.3570 O   0  0  0  0  0  0  0  0  0  0  0  0
  -31.9450  -18.4890   20.8440 C   0  0  0  0  0  0  0  0  0  0  0  0
  -31.8540  -17.6760   18.4740 C   0  0  0  0  0  2  0  0  0  0  0  0
  -30.9410  -16.3960   18.4760 C   0  0  0  0  0  2  0  0  0  0  0  0
  -29.6420  -17.7420   21.4390 C   0  0  0  0  0  2  0  0  0  0  0  0
  -31.4840  -18.8570   19.4220 C   0  0  0  0  0  3  0  0  0  0  0  0
  -29.2280  -16.7050   20.3420 C   0  0  0  0  0  3  0  0  0  0  0  0
  -31.0740  -17.9070   21.6720 N   0  0  0  0  0  0  0  0  0  0  0  0
  -30.3640  -15.9080   19.7740 N   0  0  0  0  0  0  0  0  0  0  0  0
  -33.1100  -18.6870   21.1900 O   0  0  0  0  0  0  0  0  0  0  0  0
  -31.4280  -17.6460   22.5820 H   0  0  0  0  0  0  0  0  0  0  0  0
  -25.5910  -14.0170   20.5670 C   0  0  0  0  0  0  0  0  0  0  0  0
  -24.4980  -13.2560   20.8730 C   0  0  0  0  0  0  0  0  0  0  0  0
  -24.9360  -11.8990   20.8060 C   0  0  0  0  0  0  0  0  0  0  0  0
  -26.6280  -13.1280   20.3280 N   0  0  0  0  0  0  0  0  0  0  0  0
  -26.2380  -11.8450   20.5390 N   0  0  0  0  0  0  0  0  0  0  0  0
  -24.1780  -10.6500   20.9340 C   0  0  0  0  0  0  0  0  0  0  0  0
  -24.5230   -9.6710   21.8920 C   0  0  0  0  0  3  0  0  0  0  0  0
  -23.7680   -8.4820   22.0010 C   0  0  0  0  0  3  0  0  0  0  0  0
  -22.6540   -8.2670   21.1580 C   0  0  0  0  0  0  0  0  0  0  0  0
  -22.3290   -9.2330   20.1900 C   0  0  0  0  0  3  0  0  0  0  0  0
  -23.0840  -10.4120   20.0770 C   0  0  0  0  0  3  0  0  0  0  0  0
  -21.8770   -7.1310   21.1810 O   0  0  0  0  0  0  0  0  0  0  0  0
  -21.6600   -6.4360   22.3430 C   0  0  0  0  0  0  0  0  0  0  0  0
  -20.9150   -6.9830   23.4080 C   0  0  0  0  0  3  0  0  0  0  0  0
  -20.6590   -6.2050   24.5550 C   0  0  0  0  0  3  0  0  0  0  0  0
  -21.1380   -4.8830   24.6330 C   0  0  0  0  0  0  0  0  0  0  0  0
  -21.8780   -4.3400   23.5690 C   0  0  0  0  0  3  0  0  0  0  0  0
  -22.1380   -5.1120   22.4250 C   0  0  0  0  0  0  0  0  0  0  0  0
  -22.8310   -4.5770   21.3900 F   0  0  0  0  0  0  0  0  0  0  0  0
  -20.8790   -4.1310   25.7290 F   0  0  0  0  0  0  0  0  0  0  0  0
  -23.1050  -13.7590   21.1230 C   0  0  0  0  0  0  0  0  0  0  0  0
  -22.3780  -13.0920   22.0110 N   0  0  0  0  0  0  0  0  0  0  0  0
  -22.6760  -14.7710   20.5710 O   0  0  0  0  0  0  0  0  0  0  0  0
  -22.7510  -12.2710   22.4630 H   0  0  0  0  0  0  0  0  0  0  0  0
  -21.4410  -13.3940   22.2320 H   0  0  0  0  0  0  0  0  0  0  0  0
  -25.7710  -15.3830   20.4510 N   0  0  0  0  0  0  0  0  0  0  0  0
  -24.9910  -16.0260   20.5320 H   0  0  0  0  0  0  0  0  0  0  0  0
  -26.6370  -15.8480   20.2210 H   0  0  0  0  0  0  0  0  0  0  0  0
  -28.2960  -17.3010   19.2280 C   0  0  0  0  0  2  0  0  0  0  0  0
  -27.4670  -18.5450   19.5940 C   0  0  0  0  0  2  0  0  0  0  0  0
  -26.0270  -20.3930   18.5870 C   0  0  0  0  0  1  0  0  0  0  0  0
  -26.5220  -18.9520   18.4520 C   0  0  0  0  0  2  0  0  0  0  0  0
  -31.5160  -21.3900   19.9930 C   0  0  0  0  0  2  0  0  0  0  0  0
  -31.7960  -23.9180   19.9980 C   0  0  0  0  0  3  0  0  0  0  0  0
  -30.2300  -22.9460   18.4140 C   0  0  0  0  0  3  0  0  0  0  0  0
  -31.4050  -25.2130   19.5980 C   0  0  0  0  0  3  0  0  0  0  0  0
  -29.8450  -24.2400   18.0030 C   0  0  0  0  0  3  0  0  0  0  0  0
  -31.2020  -22.7750   19.4240 C   0  0  0  0  0  0  0  0  0  0  0  0
  -30.4150  -25.3780   18.6120 C   0  0  0  0  0  0  0  0  0  0  0  0
  -29.9710  -26.7710   18.2070 C   0  0  0  0  0  2  0  0  0  0  0  0
  -29.0410  -27.4430   19.2270 C   0  0  0  0  0  2  0  0  0  0  0  0
  -27.7540  -26.8150   19.2160 O   0  0  0  0  0  0  0  0  0  0  0  0
  -24.4810  -31.6940   23.2880 C   0  0  0  0  0  0  0  0  0  0  0  0
  -26.6440  -27.5860   19.4900 C   0  0  0  0  0  0  0  0  0  0  0  0
  -23.0600  -30.5650   21.5970 C   0  0  0  0  0  3  0  0  0  0  0  0
  -24.3060  -29.1320   19.8910 C   0  0  0  0  0  0  0  0  0  0  0  0
  -25.5720  -30.8290   21.2330 C   0  0  0  0  0  2  0  0  0  0  0  0
  -25.5230  -29.5440   20.4400 C   0  0  0  0  0  0  0  0  0  0  0  0
  -26.6850  -28.7720   20.2600 C   0  0  0  0  0  3  0  0  0  0  0  0
  -25.4050  -27.1690   18.9580 C   0  0  0  0  0  3  0  0  0  0  0  0
  -24.2350  -27.9350   19.1550 C   0  0  0  0  0  3  0  0  0  0  0  0
  -23.1160  -30.0320   20.1380 C   0  0  0  0  0  2  0  0  0  0  0  0
  -24.3920  -31.0370   22.0970 N   0  0  0  0  0  0  0  0  0  0  0  0
  -23.4660  -31.9520   23.9480 O   0  0  0  0  0  0  0  0  0  0  0  0
  -22.4270  -29.4730   22.4830 C   0  0  0  0  0  0  0  0  0  0  0  0
  -21.0990  -29.3190   22.3810 N   0  0  0  0  0  0  0  0  0  0  0  0
  -23.1260  -28.7680   23.2150 O   0  0  0  0  0  0  0  0  0  0  0  0
  -20.5940  -29.9350   21.7600 H   0  0  0  0  0  0  0  0  0  0  0  0
  -17.7450  -28.0490   22.7760 C   0  0  0  0  0  0  0  0  0  0  0  0
  -20.2940  -28.3260   23.0880 C   0  0  0  0  0  3  0  0  0  0  0  0
  -20.4240  -26.9330   22.4300 C   0  0  0  0  0  2  0  0  0  0  0  0
  -19.3360  -26.6530   21.3880 C   0  0  0  0  0  2  0  0  0  0  0  0
  -17.9470  -26.7440   22.0230 C   0  0  0  0  0  2  0  0  0  0  0  0
  -18.8480  -28.7990   23.2600 C   0  0  0  0  0  0  0  0  0  0  0  0
  -18.6100  -30.0250   23.9170 C   0  0  0  0  0  3  0  0  0  0  0  0
  -17.2980  -30.5010   24.0970 C   0  0  0  0  0  3  0  0  0  0  0  0
  -16.2060  -29.7450   23.6360 C   0  0  0  0  0  3  0  0  0  0  0  0
  -16.4300  -28.5210   22.9800 C   0  0  0  0  0  3  0  0  0  0  0  0
  -25.8540  -32.1700   23.8630 C   0  0  0  0  0  3  0  0  0  0  0  0
  -25.6840  -33.5480   24.3370 N   0  0  0  0  0  0  0  0  0  0  0  0
  -26.1100  -34.6340   23.6780 C   0  0  0  0  0  0  0  0  0  0  0  0
  -26.7580  -34.5740   22.6300 O   0  0  0  0  0  0  0  0  0  0  0  0
  -25.1150  -33.6750   25.1610 H   0  0  0  0  0  0  0  0  0  0  0  0
  -24.6150  -36.6460   23.4590 C   0  0  0  0  0  1  0  0  0  0  0  0
  -25.7510  -36.0090   24.2750 C   0  0  0  0  0  3  0  0  0  0  0  0
  -27.9020  -36.5530   25.3310 C   0  0  0  0  0  1  0  0  0  0  0  0
  -26.9000  -36.9400   24.3390 N   0  0  0  0  0  0  0  0  0  0  0  0
  -26.5890  -37.8840   24.5530 H   0  0  0  0  0  0  0  0  0  0  0  0
  -26.4050  -31.2410   25.0150 C   0  0  1  0  0  0  0  0  0  0  0  0
  -25.3710  -30.9630   26.1310 C   0  0  0  0  0  1  0  0  0  0  0  0
  -26.8680  -29.8760   24.4520 C   0  0  0  0  0  1  0  0  0  0  0  0
  -27.6490  -31.8910   25.6640 C   0  0  0  0  0  1  0  0  0  0  0  0
  1 52  1  0
  2  8  1  0
  3  8  1  0
  4  5  1  0
  4  3  1  0
  6  5  1  0
  6 23  1  0
  6  7  1  0
  8  7  1  0
  9  2  2  0
 10 18  2  0
 10 16  1  0
 11 12  1  0
 11 14  1  0
 12 17  1  0
 13 16  1  0
 14  1  1  0
 14 10  1  0
 15 48  1  0
 15 13  1  0
 16 19  1  0
 17 15  1  0
 17  2  1  0
 20 21  2  0
 21 40  1  0
 22 21  1  0
 22 25  1  0
 23 24  1  0
 23 20  1  0
 24 22  2  0
 25 26  1  0
 26 27  2  0
 28 31  1  0
 28 27  1  0
 29 28  2  0
 30 29  1  0
 30 25  2  0
 31 32  1  0
 32 37  2  0
 32 33  1  0
 33 34  2  0
 34 35  1  0
 35 39  1  0
 36 35  2  0
 37 36  1  0
 38 37  1  0
 40 41  1  0
 41 44  1  0
 41 43  1  0
 42 40  2  0
 45 46  1  0
 45 20  1  0
 47 45  1  0
 48 49  1  0
 51 50  1  0
 51 49  1  0
 54 57  1  0
 55 53  1  0
 56 54  2  0
 56 58  1  0
 57 52  1  0
 57 53  2  0
 58 55  2  0
 59 58  1  0
 59 60  1  0
 61 60  1  0
 61 63  1  0
 62 73  2  0
 63 68  1  0
 64 72  1  0
 64 74  1  0
 65 71  1  0
 65 67  1  0
 66 72  1  0
 67 66  1  0
 68 67  2  0
 69 70  1  0
 69 63  2  0
 70 65  2  0
 71 64  1  0
 72 62  1  0
 74 76  2  0
 75 74  1  0
 77 75  1  0
 78 87  2  0
 78 83  1  0
 79 75  1  0
 79 83  1  0
 80 79  1  0
 81 82  1  0
 81 80  1  0
 82 78  1  0
 83 84  2  0
 84 85  1  0
 86 85  2  0
 87 86  1  0
 88 62  1  0
 88 89  1  0
 88 98  1  0
 89 92  1  0
 90 94  1  0
 90 89  1  0
 91 90  2  0
 94 93  1  0
 94 96  1  0
 96 97  1  0
 96 95  1  0
 98101  1  1
 98 99  1  0
100 98  1  0
M  ISO  4   2 100  17 100  60 101  61 101
M  END
>  <TORSDO>  (40) 
F 23

>  <SCORE>  (40) 
-11.887

>  <name>  (40) 
39

>  <ligand_id>  (40) 
39

>  <original_smiles>  (40) 
[H]c1c([H])c([H])c2c(c1[H])C([H])([H])C([H])([H])C([H])([H])C2([H])N([H])C(=O)C1([H])N(C(=O)C([H])(N([H])C(=O)C([H])(N([H])C([H])([H])[H])C([H])([H])[H])C(C([H])([H])[H])(C([H])([H])[H])C([H])([H])[H])C([H])([H])c2c([H])c(OC([H])([H])C([H])([H])c3c([H])c([H])c(C([H])([H])C([H])([H])C4([H])C(=O)N([H])C([H])([H])C([H])(C([H])([H])C([H])([H])C([H])([H])C([H])([H])[H])N(C(=O)N5C([H])([H])C([H])([H])C([H])([H])C([H])(n6nc(-c7c([H])c([H])c(Oc8c([H])c([H])c(F)c([H])c8F)c([H])c7[H])c(C(=O)N([H])[H])c6N([H])[H])C5([H])[H])C([H])([H])C4([H])[H])c([H])c3[H])c([H])c([H])c2C1([H])[H]

>  <smiles>  (40) 
[H]c1c([H])c([H])c2c(c1[H])C([H])([H])C([H])([H])C([H])([H])C2([H])N([H])C(=O)C1([H])N(C(=O)C([H])(N([H])C(=O)C([H])(N([H])C([H])([H])[H])C([H])([H])[H])C(C([H])([H])[H])(C([H])([H])[H])C([H])([H])[H])C([H])([H])c2c([H])c(OC([H])([H])C([H])([H])c3c([H])c([H])c(C([H])([H])C([H])([H])C4([H])C(=O)N([H])C([H])([H])C([H])(C([H])([H])C([H])([H])C([H])([H])C([H])([H])[H])N(C(=O)N5C([H])([H])C([H])([H])C([H])([H])C([H])(n6nc(-c7c([H])c([H])c(Oc8c([H])c([H])c(F)c([H])c8F)c([H])c7[H])c(C(=O)N([H])[H])c6N([H])[H])C5([H])[H])C([H])([H])C4([H])[H])c([H])c3[H])c([H])c([H])c2C1([H])[H]

$$$$
40:0:0
     RDKit          3D

 95103  0  0  1  0  0  0  0  0999 V2000
  -30.4240  -23.8620   17.2220 C   0  0  0  0  0  3  0  0  0  0  0  0
  -29.7070  -24.2070   18.3720 C   0  0  0  0  0  3  0  0  0  0  0  0
  -30.4260  -22.5330   16.7960 C   0  0  0  0  0  3  0  0  0  0  0  0
  -29.0620  -23.2350   19.1800 C   0  0  0  0  0  0  0  0  0  0  0  0
  -29.2350  -21.8200   18.8460 C   0  0  0  0  0  0  0  0  0  0  0  0
  -29.7980  -21.5280   17.5550 C   0  0  0  0  0  0  0  0  0  0  0  0
  -28.9350  -20.6210   19.7370 C   0  0  0  0  0  3  0  0  0  0  0  0
  -29.7120  -19.4830   19.7640 C   0  0  0  0  0  3  0  0  0  0  0  0
  -29.4350  -18.1510   20.4230 C   0  0  0  0  0  0  0  0  0  0  0  0
  -28.4030  -17.9230   21.0590 O   0  0  0  0  0  0  0  0  0  0  0  0
  -30.4890  -16.9950   20.2660 C   0  0  0  0  0  2  0  0  0  0  0  0
  -30.7220  -14.4780   20.0660 C   0  0  0  0  0  0  0  0  0  0  0  0
  -30.4120  -12.2780   18.9740 C   0  0  0  0  0  2  0  0  0  0  0  0
  -29.4100  -12.4280   17.8110 C   0  0  0  0  0  2  0  0  0  0  0  0
  -27.9610  -12.2780   18.3120 C   0  0  0  0  0  2  0  0  0  0  0  0
  -27.6750  -13.1190   19.5840 C   0  0  0  0  0  3  0  0  0  0  0  0
  -28.7870  -12.9540   20.6400 C   0  0  0  0  0  2  0  0  0  0  0  0
  -30.0620  -13.2850   19.9920 N   0  0  0  0  0  0  0  0  0  0  0  0
  -31.8760  -14.5990   19.6460 O   0  0  0  0  0  0  0  0  0  0  0  0
  -30.0010  -15.5830   20.4080 N   0  0  0  0  0  0  0  0  0  0  0  0
  -29.0400  -15.4610   20.6930 H   0  0  0  0  0  0  0  0  0  0  0  0
  -25.3340  -13.7140   20.4570 C   0  0  0  0  0  0  0  0  0  0  0  0
  -24.2850  -12.9380   20.8660 C   0  0  0  0  0  0  0  0  0  0  0  0
  -24.7330  -11.5850   20.7740 C   0  0  0  0  0  0  0  0  0  0  0  0
  -26.3550  -12.8330   20.1390 N   0  0  0  0  0  0  0  0  0  0  0  0
  -26.0040  -11.5460   20.3920 N   0  0  0  0  0  0  0  0  0  0  0  0
  -24.0100  -10.3210   20.9690 C   0  0  0  0  0  0  0  0  0  0  0  0
  -24.4540   -9.3540   21.8970 C   0  0  0  0  0  3  0  0  0  0  0  0
  -23.7300   -8.1560   22.0820 C   0  0  0  0  0  3  0  0  0  0  0  0
  -22.5490   -7.9170   21.3410 C   0  0  0  0  0  0  0  0  0  0  0  0
  -22.1240   -8.8730   20.4020 C   0  0  0  0  0  3  0  0  0  0  0  0
  -22.8490  -10.0620   20.2140 C   0  0  0  0  0  3  0  0  0  0  0  0
  -21.7950   -6.7720   21.4390 O   0  0  0  0  0  0  0  0  0  0  0  0
  -21.7210   -6.0560   22.6080 C   0  0  0  0  0  0  0  0  0  0  0  0
  -21.2120   -6.6220   23.7980 C   0  0  0  0  0  3  0  0  0  0  0  0
  -21.0880   -5.8280   24.9560 C   0  0  0  0  0  3  0  0  0  0  0  0
  -21.4620   -4.4720   24.9250 C   0  0  0  0  0  0  0  0  0  0  0  0
  -21.9640   -3.9070   23.7390 C   0  0  0  0  0  3  0  0  0  0  0  0
  -22.0900   -4.6980   22.5840 C   0  0  0  0  0  0  0  0  0  0  0  0
  -22.5540   -4.1420   21.4390 F   0  0  0  0  0  0  0  0  0  0  0  0
  -21.3340   -3.7090   26.0360 F   0  0  0  0  0  0  0  0  0  0  0  0
  -22.9070  -13.4160   21.2250 C   0  0  0  0  0  0  0  0  0  0  0  0
  -22.2250  -12.7050   22.1180 N   0  0  0  0  0  0  0  0  0  0  0  0
  -22.4460  -14.4530   20.7520 O   0  0  0  0  0  0  0  0  0  0  0  0
  -22.6100  -11.8660   22.5250 H   0  0  0  0  0  0  0  0  0  0  0  0
  -21.3020  -13.0050   22.3990 H   0  0  0  0  0  0  0  0  0  0  0  0
  -25.4980  -15.0860   20.3030 N   0  0  0  0  0  0  0  0  0  0  0  0
  -24.7490  -15.7430   20.4870 H   0  0  0  0  0  0  0  0  0  0  0  0
  -26.3260  -15.5340   19.9280 H   0  0  0  0  0  0  0  0  0  0  0  0
  -28.1190  -23.8150   20.2280 C   0  0  0  0  0  0  0  0  0  0  0  0
  -27.1470  -23.1690   20.6290 O   0  0  0  0  0  0  0  0  0  0  0  0
  -28.3560  -25.2400   20.8770 C   0  0  0  0  0  2  0  0  0  0  0  0
  -28.2660  -26.4290   20.0280 O   0  0  0  0  0  0  0  0  0  0  0  0
  -24.5040  -31.7440   23.1240 C   0  0  0  0  0  0  0  0  0  0  0  0
  -27.1270  -27.2180   20.0900 C   0  0  0  0  0  0  0  0  0  0  0  0
  -23.3110  -30.3690   21.4500 C   0  0  0  0  0  3  0  0  0  0  0  0
  -24.7680  -28.8070   20.0510 C   0  0  0  0  0  0  0  0  0  0  0  0
  -25.8490  -30.6760   21.3050 C   0  0  0  0  0  2  0  0  0  0  0  0
  -25.9270  -29.2990   20.6650 C   0  0  0  0  0  0  0  0  0  0  0  0
  -27.1130  -28.5150   20.6790 C   0  0  0  0  0  3  0  0  0  0  0  0
  -25.9510  -26.7540   19.4700 C   0  0  0  0  0  3  0  0  0  0  0  0
  -24.7770  -27.5350   19.4490 C   0  0  0  0  0  3  0  0  0  0  0  0
  -23.5400  -29.6930   20.0710 C   0  0  0  0  0  2  0  0  0  0  0  0
  -24.5730  -30.9460   22.0170 N   0  0  0  0  0  0  0  0  0  0  0  0
  -23.4170  -32.0280   23.6450 O   0  0  0  0  0  0  0  0  0  0  0  0
  -22.6260  -29.3540   22.3930 C   0  0  0  0  0  0  0  0  0  0  0  0
  -21.2930  -29.2250   22.2770 N   0  0  0  0  0  0  0  0  0  0  0  0
  -23.2920  -28.6820   23.1860 O   0  0  0  0  0  0  0  0  0  0  0  0
  -20.8160  -29.8180   21.6120 H   0  0  0  0  0  0  0  0  0  0  0  0
  -17.8730  -28.1970   22.8360 C   0  0  0  0  0  0  0  0  0  0  0  0
  -20.4490  -28.3000   23.0330 C   0  0  0  0  0  3  0  0  0  0  0  0
  -20.4530  -26.8930   22.3930 C   0  0  0  0  0  2  0  0  0  0  0  0
  -19.3050  -26.6780   21.4020 C   0  0  0  0  0  2  0  0  0  0  0  0
  -17.9530  -26.8710   22.0970 C   0  0  0  0  0  2  0  0  0  0  0  0
  -19.0470  -28.8730   23.2630 C   0  0  0  0  0  0  0  0  0  0  0  0
  -18.9190  -30.1190   23.9170 C   0  0  0  0  0  3  0  0  0  0  0  0
  -17.6510  -30.6840   24.1460 C   0  0  0  0  0  3  0  0  0  0  0  0
  -16.4940  -30.0030   23.7360 C   0  0  0  0  0  3  0  0  0  0  0  0
  -16.6060  -28.7590   23.0870 C   0  0  0  0  0  3  0  0  0  0  0  0
  -25.7860  -32.3550   23.7700 C   0  0  0  0  0  3  0  0  0  0  0  0
  -25.4860  -33.7510   24.1130 N   0  0  0  0  0  0  0  0  0  0  0  0
  -25.8370  -34.8110   23.3720 C   0  0  0  0  0  0  0  0  0  0  0  0
  -26.5190  -34.7140   22.3480 O   0  0  0  0  0  0  0  0  0  0  0  0
  -24.8810  -33.9010   24.9090 H   0  0  0  0  0  0  0  0  0  0  0  0
  -24.1390  -36.6310   23.0080 C   0  0  0  0  0  1  0  0  0  0  0  0
  -25.3560  -36.1980   23.8400 C   0  0  0  0  0  3  0  0  0  0  0  0
  -27.4760  -37.0500   24.7410 C   0  0  0  0  0  1  0  0  0  0  0  0
  -26.4030  -37.2400   23.7680 N   0  0  0  0  0  0  0  0  0  0  0  0
  -26.0030  -38.1620   23.9150 H   0  0  0  0  0  0  0  0  0  0  0  0
  -26.2790  -31.5620   25.0430 C   0  0  1  0  0  0  0  0  0  0  0  0
  -25.1700  -31.3210   26.0930 C   0  0  0  0  0  1  0  0  0  0  0  0
  -26.8570  -30.1850   24.6390 C   0  0  0  0  0  1  0  0  0  0  0  0
  -27.4250  -32.3370   25.7330 C   0  0  0  0  0  1  0  0  0  0  0  0
  -29.1160  -20.2250   15.4470 C   0  0  0  0  0  1  0  0  0  0  0  0
  -29.6910  -20.1540   16.8730 C   0  0  0  0  0  2  0  0  0  0  0  0
  1  2  1  0
  2  4  2  0
  3  1  2  0
  3  6  1  0
  4 50  1  0
  5  4  1  0
  5  7  1  0
  6  5  2  0
  7  8  2  0
  8  9  1  0
  9 10  2  0
 11 20  1  0
 11  9  1  0
 12 20  1  0
 13 18  1  0
 14 15  1  0
 14 13  1  0
 16 15  1  0
 16 25  1  0
 16 17  1  0
 18 12  1  0
 18 17  1  0
 19 12  2  0
 20 21  1  0
 22 23  2  0
 23 42  1  0
 24 23  1  0
 24 27  1  0
 25 26  1  0
 25 22  1  0
 26 24  2  0
 27 28  1  0
 28 29  2  0
 30 33  1  0
 30 29  1  0
 31 30  2  0
 32 31  1  0
 32 27  2  0
 33 34  1  0
 34 35  1  0
 35 36  2  0
 37 36  1  0
 37 41  1  0
 38 37  2  0
 39 34  2  0
 39 38  1  0
 40 39  1  0
 42 43  1  0
 43 46  1  0
 43 45  1  0
 44 42  2  0
 47 22  1  0
 47 48  1  0
 49 47  1  0
 50 51  2  0
 50 52  1  0
 53 55  1  0
 53 52  1  0
 54 65  2  0
 55 60  1  0
 56 64  1  0
 56 66  1  0
 57 63  1  0
 57 59  1  0
 58 64  1  0
 59 60  2  0
 59 58  1  0
 61 55  2  0
 62 61  1  0
 62 57  2  0
 63 56  1  0
 64 54  1  0
 66 68  2  0
 67 66  1  0
 69 67  1  0
 70 79  2  0
 70 75  1  0
 71 67  1  0
 71 75  1  0
 72 71  1  0
 73 74  1  0
 73 72  1  0
 74 70  1  0
 75 76  2  0
 76 77  1  0
 78 77  2  0
 79 78  1  0
 80 54  1  0
 80 81  1  0
 80 90  1  0
 81 84  1  0
 82 86  1  0
 82 81  1  0
 83 82  2  0
 86 85  1  0
 88 86  1  0
 88 89  1  0
 88 87  1  0
 90 93  1  1
 90 91  1  0
 92 90  1  0
 94 95  1  0
 95  6  1  0
M  ISO  4  12 100  20 100  52 101  53 101
M  END
>  <TORSDO>  (41) 
F 22

>  <SCORE>  (41) 
-12.622

>  <name>  (41) 
40

>  <ligand_id>  (41) 
40

>  <original_smiles>  (41) 
[H]C(C(=O)C([H])([H])N([H])C(=O)N1C([H])([H])C([H])([H])C([H])([H])C([H])(n2nc(-c3c([H])c([H])c(Oc4c([H])c([H])c(F)c([H])c4F)c([H])c3[H])c(C(=O)N([H])[H])c2N([H])[H])C1([H])[H])=C([H])c1c(C(=O)C([H])([H])Oc2c([H])c([H])c3c(c2[H])C([H])([H])N(C(=O)C([H])(N([H])C(=O)C([H])(N([H])C([H])([H])[H])C([H])([H])[H])C(C([H])([H])[H])(C([H])([H])[H])C([H])([H])[H])C([H])(C(=O)N([H])C2([H])c4c([H])c([H])c([H])c([H])c4C([H])([H])C([H])([H])C2([H])[H])C3([H])[H])c([H])c([H])c([H])c1C([H])([H])C([H])([H])[H]

>  <smiles>  (41) 
[H]C(C(=O)C([H])([H])N([H])C(=O)N1C([H])([H])C([H])([H])C([H])([H])C([H])(n2nc(-c3c([H])c([H])c(Oc4c([H])c([H])c(F)c([H])c4F)c([H])c3[H])c(C(=O)N([H])[H])c2N([H])[H])C1([H])[H])=C([H])c1c(C(=O)C([H])([H])Oc2c([H])c([H])c3c(c2[H])C([H])([H])N(C(=O)C([H])(N([H])C(=O)C([H])(N([H])C([H])([H])[H])C([H])([H])[H])C(C([H])([H])[H])(C([H])([H])[H])C([H])([H])[H])C([H])(C(=O)N([H])C2([H])c4c([H])c([H])c([H])c([H])c4C([H])([H])C([H])([H])C2([H])[H])C3([H])[H])c([H])c([H])c([H])c1C([H])([H])C([H])([H])[H]

$$$$
41:0:0
     RDKit          3D

 94101  0  0  1  0  0  0  0  0999 V2000
  -26.3260  -23.1410   19.7760 C   0  0  0  0  0  0  0  0  0  0  0  0
  -26.1590  -22.8140   18.4880 N   0  0  0  0  0  0  0  0  0  0  0  0
  -25.6680  -22.6440   20.6910 O   0  0  0  0  0  0  0  0  0  0  0  0
  -26.7370  -23.3010   17.8170 H   0  0  0  0  0  0  0  0  0  0  0  0
  -27.3400  -24.1640   19.9240 C   0  0  0  0  0  3  0  0  0  0  0  0
  -27.5800  -24.7480   21.1140 C   0  0  0  0  0  3  0  0  0  0  0  0
  -28.5350  -25.9120   21.3080 C   0  0  0  0  0  2  0  0  0  0  0  0
  -28.4500  -26.8630   20.2430 O   0  0  0  0  0  0  0  0  0  0  0  0
  -24.5890  -31.9700   23.3470 C   0  0  0  0  0  0  0  0  0  0  0  0
  -27.2900  -27.5990   20.2490 C   0  0  0  0  0  0  0  0  0  0  0  0
  -23.4080  -30.5800   21.6750 C   0  0  0  0  0  3  0  0  0  0  0  0
  -24.8870  -29.0710   20.2530 C   0  0  0  0  0  0  0  0  0  0  0  0
  -25.9320  -30.9560   21.5150 C   0  0  0  0  0  2  0  0  0  0  0  0
  -26.0320  -29.5940   20.8690 C   0  0  0  0  0  0  0  0  0  0  0  0
  -27.2360  -28.8590   20.8780 C   0  0  0  0  0  3  0  0  0  0  0  0
  -26.1400  -27.1010   19.6020 C   0  0  0  0  0  3  0  0  0  0  0  0
  -24.9330  -27.8180   19.6210 C   0  0  0  0  0  3  0  0  0  0  0  0
  -23.6370  -29.9180   20.2910 C   0  0  0  0  0  2  0  0  0  0  0  0
  -24.6600  -31.1820   22.2380 N   0  0  0  0  0  0  0  0  0  0  0  0
  -23.5000  -32.2350   23.8750 O   0  0  0  0  0  0  0  0  0  0  0  0
  -22.7510  -29.5450   22.6150 C   0  0  0  0  0  0  0  0  0  0  0  0
  -21.4310  -29.3520   22.4610 N   0  0  0  0  0  0  0  0  0  0  0  0
  -23.4250  -28.9190   23.4380 O   0  0  0  0  0  0  0  0  0  0  0  0
  -20.9500  -29.9110   21.7700 H   0  0  0  0  0  0  0  0  0  0  0  0
  -18.0500  -28.1640   22.9100 C   0  0  0  0  0  0  0  0  0  0  0  0
  -20.6070  -28.4040   23.2080 C   0  0  0  0  0  3  0  0  0  0  0  0
  -20.7070  -26.9830   22.6080 C   0  0  0  0  0  2  0  0  0  0  0  0
  -19.6130  -26.6830   21.5780 C   0  0  0  0  0  2  0  0  0  0  0  0
  -18.2270  -26.8240   22.2140 C   0  0  0  0  0  2  0  0  0  0  0  0
  -19.1690  -28.9130   23.3610 C   0  0  0  0  0  0  0  0  0  0  0  0
  -18.9510  -30.1680   23.9690 C   0  0  0  0  0  3  0  0  0  0  0  0
  -17.6480  -30.6730   24.1320 C   0  0  0  0  0  3  0  0  0  0  0  0
  -16.5430  -29.9210   23.6970 C   0  0  0  0  0  3  0  0  0  0  0  0
  -16.7450  -28.6680   23.0920 C   0  0  0  0  0  3  0  0  0  0  0  0
  -25.8670  -32.5960   23.9880 C   0  0  0  0  0  3  0  0  0  0  0  0
  -26.3400  -31.8440   25.2920 C   0  0  1  0  0  0  0  0  0  0  0  0
  -25.2150  -31.6310   26.3300 C   0  0  0  0  0  1  0  0  0  0  0  0
  -26.9270  -30.4570   24.9400 C   0  0  0  0  0  1  0  0  0  0  0  0
  -27.4750  -32.6440   25.9740 C   0  0  0  0  0  1  0  0  0  0  0  0
  -25.5700  -34.0050   24.2770 N   0  0  0  0  0  0  0  0  0  0  0  0
  -25.9380  -35.0330   23.5000 C   0  0  0  0  0  0  0  0  0  0  0  0
  -26.6360  -34.8950   22.4920 O   0  0  0  0  0  0  0  0  0  0  0  0
  -24.9560  -34.1860   25.0570 H   0  0  0  0  0  0  0  0  0  0  0  0
  -24.2520  -36.8410   23.0420 C   0  0  0  0  0  1  0  0  0  0  0  0
  -25.4570  -36.4380   23.9080 C   0  0  0  0  0  3  0  0  0  0  0  0
  -27.5670  -37.3160   24.8030 C   0  0  0  0  0  1  0  0  0  0  0  0
  -26.5090  -37.4730   23.8080 N   0  0  0  0  0  0  0  0  0  0  0  0
  -26.1120  -38.4020   23.9130 H   0  0  0  0  0  0  0  0  0  0  0  0
  -25.2310  -21.8240   17.9410 C   0  0  0  0  0  2  0  0  0  0  0  0
  -25.5460  -20.3810   18.3820 C   0  0  0  0  0  2  0  0  0  0  0  0
  -27.0240  -19.9820   18.2210 C   0  0  0  0  0  2  0  0  0  0  0  0
  -27.3970  -18.7710   19.0850 C   0  0  0  0  0  2  0  0  0  0  0  0
  -28.9060  -18.6930   19.3370 C   0  0  0  0  0  2  0  0  0  0  0  0
  -29.2480  -17.6830   20.4330 C   0  0  0  0  0  2  0  0  0  0  0  0
  -30.7420  -17.6980   20.7950 C   0  0  0  0  0  2  0  0  0  0  0  0
  -31.1150  -16.6740   21.8830 C   0  0  0  0  0  2  0  0  0  0  0  0
  -31.0420  -14.5840   20.5350 C   0  0  0  0  0  0  0  0  0  0  0  0
  -30.6980  -12.4840   19.2960 C   0  0  0  0  0  2  0  0  0  0  0  0
  -29.7580  -12.6780   18.0920 C   0  0  0  0  0  2  0  0  0  0  0  0
  -28.2880  -12.5230   18.5190 C   0  0  0  0  0  2  0  0  0  0  0  0
  -27.9380  -13.3830   19.7610 C   0  0  0  0  0  3  0  0  0  0  0  0
  -28.9800  -13.1740   20.8810 C   0  0  0  0  0  2  0  0  0  0  0  0
  -30.3250  -13.4500   20.3380 N   0  0  0  0  0  0  0  0  0  0  0  0
  -32.0260  -14.8980   19.8580 O   0  0  0  0  0  0  0  0  0  0  0  0
  -30.6270  -15.3380   21.5580 N   0  0  0  0  0  0  0  0  0  0  0  0
  -29.8520  -14.9810   22.0970 H   0  0  0  0  0  0  0  0  0  0  0  0
  -25.5350  -13.9890   20.4710 C   0  0  0  0  0  0  0  0  0  0  0  0
  -24.4650  -13.2130   20.8280 C   0  0  0  0  0  0  0  0  0  0  0  0
  -24.9220  -11.8620   20.7770 C   0  0  0  0  0  0  0  0  0  0  0  0
  -26.5790  -13.1090   20.2300 N   0  0  0  0  0  0  0  0  0  0  0  0
  -26.2110  -11.8230   20.4670 N   0  0  0  0  0  0  0  0  0  0  0  0
  -24.1940  -10.5980   20.9490 C   0  0  0  0  0  0  0  0  0  0  0  0
  -24.5830   -9.6470   21.9190 C   0  0  0  0  0  3  0  0  0  0  0  0
  -23.8560   -8.4470   22.0770 C   0  0  0  0  0  3  0  0  0  0  0  0
  -22.7260   -8.1890   21.2650 C   0  0  0  0  0  0  0  0  0  0  0  0
  -22.3560   -9.1300   20.2870 C   0  0  0  0  0  3  0  0  0  0  0  0
  -23.0840  -10.3200   20.1260 C   0  0  0  0  0  3  0  0  0  0  0  0
  -21.9750   -7.0410   21.3300 O   0  0  0  0  0  0  0  0  0  0  0  0
  -21.8200   -6.3490   22.5050 C   0  0  0  0  0  0  0  0  0  0  0  0
  -21.2420   -6.9430   23.6480 C   0  0  0  0  0  3  0  0  0  0  0  0
  -21.0360   -6.1750   24.8120 C   0  0  0  0  0  3  0  0  0  0  0  0
  -21.3970   -4.8150   24.8320 C   0  0  0  0  0  0  0  0  0  0  0  0
  -21.9670   -4.2210   23.6930 C   0  0  0  0  0  3  0  0  0  0  0  0
  -22.1740   -4.9860   22.5310 C   0  0  0  0  0  0  0  0  0  0  0  0
  -22.7040   -4.4020   21.4290 F   0  0  0  0  0  0  0  0  0  0  0  0
  -21.1930   -4.0750   25.9470 F   0  0  0  0  0  0  0  0  0  0  0  0
  -23.0680  -13.6890   21.1110 C   0  0  0  0  0  0  0  0  0  0  0  0
  -22.3490  -12.9950   21.9860 N   0  0  0  0  0  0  0  0  0  0  0  0
  -22.6230  -14.7110   20.5900 O   0  0  0  0  0  0  0  0  0  0  0  0
  -22.7220  -12.1680   22.4290 H   0  0  0  0  0  0  0  0  0  0  0  0
  -21.4130  -13.2950   22.2180 H   0  0  0  0  0  0  0  0  0  0  0  0
  -25.7030  -15.3610   20.3150 N   0  0  0  0  0  0  0  0  0  0  0  0
  -24.9420  -16.0180   20.4390 H   0  0  0  0  0  0  0  0  0  0  0  0
  -26.5660  -15.8020   20.0250 H   0  0  0  0  0  0  0  0  0  0  0  0
  1  5  1  0
  1  3  2  0
  2  1  1  0
  4  2  1  0
  5  6  2  0
  6  7  1  0
  8 10  1  0
  8  7  1  0
  9 20  2  0
 10 15  1  0
 11 19  1  0
 11 21  1  0
 12 18  1  0
 12 14  1  0
 13 19  1  0
 14 15  2  0
 14 13  1  0
 16 17  1  0
 16 10  2  0
 17 12  2  0
 18 11  1  0
 19  9  1  0
 21 23  2  0
 22 21  1  0
 24 22  1  0
 25 34  2  0
 25 30  1  0
 26 22  1  0
 26 30  1  0
 27 26  1  0
 28 29  1  0
 28 27  1  0
 29 25  1  0
 30 31  2  0
 31 32  1  0
 33 32  2  0
 34 33  1  0
 35  9  1  0
 35 40  1  0
 35 36  1  0
 36 39  1  1
 36 37  1  0
 38 36  1  0
 40 43  1  0
 41 45  1  0
 41 40  1  0
 42 41  2  0
 45 44  1  0
 47 45  1  0
 47 48  1  0
 47 46  1  0
 49 50  1  0
 49  2  1  0
 51 50  1  0
 51 52  1  0
 52 53  1  0
 53 54  1  0
 54 55  1  0
 55 56  1  0
 57 65  1  0
 58 63  1  0
 59 60  1  0
 59 58  1  0
 61 60  1  0
 61 70  1  0
 61 62  1  0
 63 57  1  0
 63 62  1  0
 64 57  2  0
 65 56  1  0
 65 66  1  0
 67 68  2  0
 68 87  1  0
 69 68  1  0
 69 72  1  0
 70 71  1  0
 70 67  1  0
 71 69  2  0
 72 73  1  0
 73 74  2  0
 75 78  1  0
 75 74  1  0
 76 75  2  0
 77 76  1  0
 77 72  2  0
 78 79  1  0
 79 84  2  0
 79 80  1  0
 80 81  2  0
 81 82  1  0
 82 86  1  0
 83 82  2  0
 84 83  1  0
 85 84  1  0
 87 88  1  0
 88 91  1  0
 88 90  1  0
 89 87  2  0
 92 93  1  0
 92 67  1  0
 94 92  1  0
M  ISO  4   7 101   8 101  57 100  65 100
M  END
>  <TORSDO>  (42) 
F 26

>  <SCORE>  (42) 
-11.741

>  <name>  (42) 
41

>  <ligand_id>  (42) 
41

>  <original_smiles>  (42) 
[H]C(C(=O)N([H])C([H])([H])C([H])([H])C([H])([H])C([H])([H])C([H])([H])C([H])([H])C([H])([H])C([H])([H])N([H])C(=O)N1C([H])([H])C([H])([H])C([H])([H])C([H])(n2nc(-c3c([H])c([H])c(Oc4c([H])c([H])c(F)c([H])c4F)c([H])c3[H])c(C(=O)N([H])[H])c2N([H])[H])C1([H])[H])=C([H])C([H])([H])Oc1c([H])c([H])c2c(c1[H])C([H])([H])N(C(=O)C([H])(N([H])C(=O)C([H])(N([H])C([H])([H])[H])C([H])([H])[H])C(C([H])([H])[H])(C([H])([H])[H])C([H])([H])[H])C([H])(C(=O)N([H])C1([H])c3c([H])c([H])c([H])c([H])c3C([H])([H])C([H])([H])C1([H])[H])C2([H])[H]

>  <smiles>  (42) 
[H]C(C(=O)N([H])C([H])([H])C([H])([H])C([H])([H])C([H])([H])C([H])([H])C([H])([H])C([H])([H])C([H])([H])N([H])C(=O)N1C([H])([H])C([H])([H])C([H])([H])C([H])(n2nc(-c3c([H])c([H])c(Oc4c([H])c([H])c(F)c([H])c4F)c([H])c3[H])c(C(=O)N([H])[H])c2N([H])[H])C1([H])[H])=C([H])C([H])([H])Oc1c([H])c([H])c2c(c1[H])C([H])([H])N(C(=O)C([H])(N([H])C(=O)C([H])(N([H])C([H])([H])[H])C([H])([H])[H])C(C([H])([H])[H])(C([H])([H])[H])C([H])([H])[H])C([H])(C(=O)N([H])C1([H])c3c([H])c([H])c([H])c([H])c3C([H])([H])C([H])([H])C1([H])[H])C2([H])[H]

$$$$
42:0:0
     RDKit          3D

 96104  0  0  1  0  0  0  0  0999 V2000
  -25.2050  -21.6030   18.3420 C   0  0  0  0  0  3  0  0  0  0  0  0
  -24.3260  -22.5840   18.8360 C   0  0  0  0  0  3  0  0  0  0  0  0
  -26.9150  -22.3750   19.8950 C   0  0  0  0  0  3  0  0  0  0  0  0
  -26.5020  -21.4930   18.8780 C   0  0  0  0  0  0  0  0  0  0  0  0
  -26.0500  -23.3760   20.3880 C   0  0  0  0  0  0  0  0  0  0  0  0
  -24.7370  -23.4620   19.8600 C   0  0  0  0  0  0  0  0  0  0  0  0
  -23.8520  -24.3850   20.3350 O   0  0  0  0  0  0  0  0  0  0  0  0
  -23.0000  -24.3330   19.9120 H   0  0  0  0  0  0  0  0  0  0  0  0
  -26.5320  -24.3210   21.4900 C   0  0  0  0  0  2  0  0  0  0  0  0
  -28.0080  -24.7710   21.3770 C   0  0  0  0  0  2  0  0  0  0  0  0
  -28.4340  -25.3850   20.0230 C   0  0  0  0  0  2  0  0  0  0  0  0
  -28.4280  -26.8120   20.0540 O   0  0  0  0  0  0  0  0  0  0  0  0
  -24.5740  -31.8550   23.1990 C   0  0  0  0  0  0  0  0  0  0  0  0
  -27.2260  -27.4800   20.0550 C   0  0  0  0  0  0  0  0  0  0  0  0
  -23.3640  -30.4670   21.5440 C   0  0  0  0  0  3  0  0  0  0  0  0
  -24.8170  -28.9550   20.0970 C   0  0  0  0  0  0  0  0  0  0  0  0
  -25.8840  -30.8450   21.3390 C   0  0  0  0  0  2  0  0  0  0  0  0
  -25.9730  -29.4830   20.6840 C   0  0  0  0  0  0  0  0  0  0  0  0
  -27.1780  -28.7520   20.6610 C   0  0  0  0  0  3  0  0  0  0  0  0
  -26.0550  -26.9620   19.4550 C   0  0  0  0  0  3  0  0  0  0  0  0
  -24.8520  -27.6900   19.4830 C   0  0  0  0  0  3  0  0  0  0  0  0
  -23.5690  -29.8030   20.1570 C   0  0  0  0  0  2  0  0  0  0  0  0
  -24.6260  -31.0690   22.0860 N   0  0  0  0  0  0  0  0  0  0  0  0
  -23.4940  -32.1190   23.7460 O   0  0  0  0  0  0  0  0  0  0  0  0
  -22.7220  -29.4330   22.4950 C   0  0  0  0  0  0  0  0  0  0  0  0
  -21.3960  -29.2620   22.3800 N   0  0  0  0  0  0  0  0  0  0  0  0
  -23.4120  -28.7910   23.2910 O   0  0  0  0  0  0  0  0  0  0  0  0
  -20.9020  -29.8320   21.7080 H   0  0  0  0  0  0  0  0  0  0  0  0
  -18.0180  -28.0910   22.9000 C   0  0  0  0  0  0  0  0  0  0  0  0
  -20.5820  -28.3170   23.1440 C   0  0  0  0  0  3  0  0  0  0  0  0
  -20.6630  -26.8970   22.5380 C   0  0  0  0  0  2  0  0  0  0  0  0
  -19.5440  -26.6040   21.5340 C   0  0  0  0  0  2  0  0  0  0  0  0
  -18.1730  -26.7520   22.1990 C   0  0  0  0  0  2  0  0  0  0  0  0
  -19.1500  -28.8330   23.3300 C   0  0  0  0  0  0  0  0  0  0  0  0
  -18.9520  -30.0880   23.9450 C   0  0  0  0  0  3  0  0  0  0  0  0
  -17.6550  -30.6000   24.1370 C   0  0  0  0  0  3  0  0  0  0  0  0
  -16.5380  -29.8540   23.7230 C   0  0  0  0  0  3  0  0  0  0  0  0
  -16.7210  -28.6020   23.1110 C   0  0  0  0  0  3  0  0  0  0  0  0
  -25.8620  -32.4800   23.8200 C   0  0  0  0  0  3  0  0  0  0  0  0
  -26.3890  -31.6940   25.0830 C   0  0  1  0  0  0  0  0  0  0  0  0
  -25.3050  -31.4410   26.1550 C   0  0  0  0  0  1  0  0  0  0  0  0
  -26.9720  -30.3230   24.6670 C   0  0  0  0  0  1  0  0  0  0  0  0
  -27.5440  -32.4820   25.7470 C   0  0  0  0  0  1  0  0  0  0  0  0
  -25.5520  -33.8730   24.1660 N   0  0  0  0  0  0  0  0  0  0  0  0
  -25.8730  -34.9320   23.4110 C   0  0  0  0  0  0  0  0  0  0  0  0
  -26.5320  -34.8410   22.3720 O   0  0  0  0  0  0  0  0  0  0  0  0
  -24.9650  -34.0190   24.9740 H   0  0  0  0  0  0  0  0  0  0  0  0
  -24.1270  -36.7160   23.0950 C   0  0  0  0  0  1  0  0  0  0  0  0
  -25.3830  -36.3150   23.8850 C   0  0  0  0  0  3  0  0  0  0  0  0
  -27.5260  -37.2060   24.6870 C   0  0  0  0  0  1  0  0  0  0  0  0
  -26.4060  -37.3750   23.7640 N   0  0  0  0  0  0  0  0  0  0  0  0
  -25.9970  -38.2910   23.9280 H   0  0  0  0  0  0  0  0  0  0  0  0
  -27.4670  -20.4320   18.3880 C   0  0  0  0  0  2  0  0  0  0  0  0
  -27.6760  -19.3190   19.4310 C   0  0  0  0  0  2  0  0  0  0  0  0
  -29.1300  -18.8350   19.4980 C   0  0  0  0  0  2  0  0  0  0  0  0
  -29.3410  -17.7690   20.5800 C   0  0  0  0  0  2  0  0  0  0  0  0
  -30.8310  -17.4750   20.8170 C   0  0  0  0  0  2  0  0  0  0  0  0
  -31.0770  -16.3280   21.8170 C   0  0  0  0  0  2  0  0  0  0  0  0
  -30.8290  -14.3110   20.3780 C   0  0  0  0  0  0  0  0  0  0  0  0
  -30.3830  -12.2540   19.0970 C   0  0  0  0  0  2  0  0  0  0  0  0
  -29.4240  -12.5190   17.9220 C   0  0  0  0  0  2  0  0  0  0  0  0
  -27.9580  -12.4090   18.3790 C   0  0  0  0  0  2  0  0  0  0  0  0
  -27.6710  -13.2390   19.6560 C   0  0  0  0  0  3  0  0  0  0  0  0
  -28.7320  -12.9570   20.7430 C   0  0  0  0  0  2  0  0  0  0  0  0
  -30.0700  -13.2060   20.1720 N   0  0  0  0  0  0  0  0  0  0  0  0
  -31.8310  -14.5840   19.7090 O   0  0  0  0  0  0  0  0  0  0  0  0
  -30.4410  -15.0830   21.3990 N   0  0  0  0  0  0  0  0  0  0  0  0
  -29.6300  -14.7770   21.9170 H   0  0  0  0  0  0  0  0  0  0  0  0
  -25.2900  -13.9030   20.3830 C   0  0  0  0  0  0  0  0  0  0  0  0
  -24.2120  -13.1550   20.7740 C   0  0  0  0  0  0  0  0  0  0  0  0
  -24.6460  -11.7950   20.7510 C   0  0  0  0  0  0  0  0  0  0  0  0
  -26.3160  -13.0000   20.1510 N   0  0  0  0  0  0  0  0  0  0  0  0
  -25.9300  -11.7270   20.4260 N   0  0  0  0  0  0  0  0  0  0  0  0
  -23.8980  -10.5490   20.9650 C   0  0  0  0  0  0  0  0  0  0  0  0
  -24.3330   -9.5760   21.8930 C   0  0  0  0  0  3  0  0  0  0  0  0
  -23.5880   -8.3950   22.0930 C   0  0  0  0  0  3  0  0  0  0  0  0
  -22.3930   -8.1760   21.3650 C   0  0  0  0  0  0  0  0  0  0  0  0
  -21.9780   -9.1370   20.4270 C   0  0  0  0  0  3  0  0  0  0  0  0
  -22.7230  -10.3110   20.2240 C   0  0  0  0  0  3  0  0  0  0  0  0
  -21.6190   -7.0470   21.4750 O   0  0  0  0  0  0  0  0  0  0  0  0
  -21.5890   -6.3040   22.6280 C   0  0  0  0  0  0  0  0  0  0  0  0
  -21.2280   -6.8700   23.8700 C   0  0  0  0  0  3  0  0  0  0  0  0
  -21.1430   -6.0540   25.0160 C   0  0  0  0  0  3  0  0  0  0  0  0
  -21.4080   -4.6760   24.9230 C   0  0  0  0  0  0  0  0  0  0  0  0
  -21.7630   -4.1100   23.6850 C   0  0  0  0  0  3  0  0  0  0  0  0
  -21.8500   -4.9220   22.5410 C   0  0  0  0  0  0  0  0  0  0  0  0
  -22.1710   -4.3670   21.3470 F   0  0  0  0  0  0  0  0  0  0  0  0
  -21.3200   -3.8910   26.0220 F   0  0  0  0  0  0  0  0  0  0  0  0
  -22.8270  -13.6620   21.0620 C   0  0  0  0  0  0  0  0  0  0  0  0
  -22.1010  -12.9880   21.9470 N   0  0  0  0  0  0  0  0  0  0  0  0
  -22.4000  -14.6900   20.5390 O   0  0  0  0  0  0  0  0  0  0  0  0
  -22.4590  -12.1570   22.3930 H   0  0  0  0  0  0  0  0  0  0  0  0
  -21.1730  -13.3110   22.1840 H   0  0  0  0  0  0  0  0  0  0  0  0
  -25.4800  -15.2680   20.1890 N   0  0  0  0  0  0  0  0  0  0  0  0
  -24.7300  -15.9420   20.3050 H   0  0  0  0  0  0  0  0  0  0  0  0
  -26.3420  -15.6860   19.8630 H   0  0  0  0  0  0  0  0  0  0  0  0
  1  2  2  0
  1  4  1  0
  2  6  1  0
  3  5  1  0
  4  3  2  0
  5  9  1  0
  6  7  1  0
  6  5  2  0
  8  7  1  0
 10  9  1  0
 11 12  1  0
 11 10  1  0
 12 14  1  0
 13 24  2  0
 14 19  1  0
 15 23  1  0
 15 25  1  0
 16 22  1  0
 16 18  1  0
 17 23  1  0
 18 17  1  0
 19 18  2  0
 20 21  1  0
 20 14  2  0
 21 16  2  0
 22 15  1  0
 23 13  1  0
 25 27  2  0
 26 25  1  0
 28 26  1  0
 29 38  2  0
 29 34  1  0
 30 26  1  0
 30 34  1  0
 31 30  1  0
 32 33  1  0
 32 31  1  0
 33 29  1  0
 34 35  2  0
 35 36  1  0
 37 36  2  0
 38 37  1  0
 39 13  1  0
 39 44  1  0
 39 40  1  0
 40 43  1  1
 40 41  1  0
 42 40  1  0
 44 47  1  0
 45 49  1  0
 45 44  1  0
 46 45  2  0
 49 48  1  0
 51 49  1  0
 51 52  1  0
 51 50  1  0
 53  4  1  0
 53 54  1  0
 54 55  1  0
 55 56  1  0
 56 57  1  0
 57 58  1  0
 59 67  1  0
 60 65  1  0
 61 62  1  0
 61 60  1  0
 63 62  1  0
 63 72  1  0
 63 64  1  0
 65 59  1  0
 65 64  1  0
 66 59  2  0
 67 58  1  0
 67 68  1  0
 69 70  2  0
 70 89  1  0
 71 70  1  0
 71 74  1  0
 72 69  1  0
 72 73  1  0
 73 71  2  0
 74 75  1  0
 75 76  2  0
 77 80  1  0
 77 76  1  0
 78 77  2  0
 79 78  1  0
 79 74  2  0
 80 81  1  0
 81 82  1  0
 82 83  2  0
 84 83  1  0
 84 88  1  0
 85 84  2  0
 86 81  2  0
 86 85  1  0
 87 86  1  0
 89 90  1  0
 90 93  1  0
 90 92  1  0
 91 89  2  0
 94 95  1  0
 94 69  1  0
 96 94  1  0
M  ISO  4  11 101  12 101  59 100  67 100
M  END
>  <TORSDO>  (43) 
F 26

>  <SCORE>  (43) 
-12.412

>  <name>  (43) 
42

>  <ligand_id>  (43) 
42

>  <original_smiles>  (43) 
[H]Oc1c([H])c([H])c(C([H])([H])C([H])([H])C([H])([H])C([H])([H])C([H])([H])C([H])([H])N([H])C(=O)N2C([H])([H])C([H])([H])C([H])([H])C([H])(n3nc(-c4c([H])c([H])c(Oc5c([H])c([H])c(F)c([H])c5F)c([H])c4[H])c(C(=O)N([H])[H])c3N([H])[H])C2([H])[H])c([H])c1C([H])([H])C([H])([H])C([H])([H])Oc1c([H])c([H])c2c(c1[H])C([H])([H])N(C(=O)C([H])(N([H])C(=O)C([H])(N([H])C([H])([H])[H])C([H])([H])[H])C(C([H])([H])[H])(C([H])([H])[H])C([H])([H])[H])C([H])(C(=O)N([H])C1([H])c3c([H])c([H])c([H])c([H])c3C([H])([H])C([H])([H])C1([H])[H])C2([H])[H]

>  <smiles>  (43) 
[H]Oc1c([H])c([H])c(C([H])([H])C([H])([H])C([H])([H])C([H])([H])C([H])([H])C([H])([H])N([H])C(=O)N2C([H])([H])C([H])([H])C([H])([H])C([H])(n3nc(-c4c([H])c([H])c(Oc5c([H])c([H])c(F)c([H])c5F)c([H])c4[H])c(C(=O)N([H])[H])c3N([H])[H])C2([H])[H])c([H])c1C([H])([H])C([H])([H])C([H])([H])Oc1c([H])c([H])c2c(c1[H])C([H])([H])N(C(=O)C([H])(N([H])C(=O)C([H])(N([H])C([H])([H])[H])C([H])([H])[H])C(C([H])([H])[H])(C([H])([H])[H])C([H])([H])[H])C([H])(C(=O)N([H])C1([H])c3c([H])c([H])c([H])c([H])c3C([H])([H])C([H])([H])C1([H])[H])C2([H])[H]

$$$$
43:0:0
     RDKit          3D

 95102  0  0  1  0  0  0  0  0999 V2000
  -29.5160  -23.1270   22.8870 C   0  0  0  0  0  3  0  0  0  0  0  0
  -28.5290  -23.5760   21.8830 N   0  0  0  0  0  4  0  0  0  0  0  0
  -28.6690  -23.0460   21.0380 H   0  0  0  0  0  0  0  0  0  0  0  0
  -27.6140  -23.3450   22.2390 H   0  0  0  0  0  0  0  0  0  0  0  0
  -28.5510  -25.0330   21.6020 C   0  0  0  0  0  2  0  0  0  0  0  0
  -28.1020  -25.3570   20.1710 C   0  0  0  0  0  2  0  0  0  0  0  0
  -28.1570  -26.7730   19.9920 O   0  0  0  0  0  0  0  0  0  0  0  0
  -24.7000  -31.9480   23.4350 C   0  0  0  0  0  0  0  0  0  0  0  0
  -26.9930  -27.4990   20.1080 C   0  0  0  0  0  0  0  0  0  0  0  0
  -23.3580  -30.6560   21.8070 C   0  0  0  0  0  3  0  0  0  0  0  0
  -24.6720  -29.0970   20.2900 C   0  0  0  0  0  0  0  0  0  0  0  0
  -25.8890  -30.8990   21.5160 C   0  0  0  0  0  2  0  0  0  0  0  0
  -25.8800  -29.5500   20.8370 C   0  0  0  0  0  0  0  0  0  0  0  0
  -27.0420  -28.7570   20.7430 C   0  0  0  0  0  3  0  0  0  0  0  0
  -25.7660  -27.0580   19.5570 C   0  0  0  0  0  3  0  0  0  0  0  0
  -24.6080  -27.8470   19.6550 C   0  0  0  0  0  3  0  0  0  0  0  0
  -23.4770  -30.0120   20.4020 C   0  0  0  0  0  2  0  0  0  0  0  0
  -24.6700  -31.1820   22.3090 N   0  0  0  0  0  0  0  0  0  0  0  0
  -23.6570  -32.2590   24.0270 O   0  0  0  0  0  0  0  0  0  0  0  0
  -22.7010  -29.6360   22.7650 C   0  0  0  0  0  0  0  0  0  0  0  0
  -21.3750  -29.4640   22.6330 N   0  0  0  0  0  0  0  0  0  0  0  0
  -23.3780  -29.0040   23.5810 O   0  0  0  0  0  0  0  0  0  0  0  0
  -20.8890  -30.0280   21.9500 H   0  0  0  0  0  0  0  0  0  0  0  0
  -18.0050  -28.2320   23.0490 C   0  0  0  0  0  0  0  0  0  0  0  0
  -20.5470  -28.5330   23.3980 C   0  0  0  0  0  3  0  0  0  0  0  0
  -20.6890  -27.0890   22.8610 C   0  0  0  0  0  2  0  0  0  0  0  0
  -19.6260  -26.7260   21.8180 C   0  0  0  0  0  2  0  0  0  0  0  0
  -18.2230  -26.8690   22.4140 C   0  0  0  0  0  2  0  0  0  0  0  0
  -19.0990  -29.0200   23.4970 C   0  0  0  0  0  0  0  0  0  0  0  0
  -18.8440  -30.2950   24.0470 C   0  0  0  0  0  3  0  0  0  0  0  0
  -17.5290  -30.7840   24.1540 C   0  0  0  0  0  3  0  0  0  0  0  0
  -16.4480  -29.9940   23.7240 C   0  0  0  0  0  3  0  0  0  0  0  0
  -16.6870  -28.7200   23.1790 C   0  0  0  0  0  3  0  0  0  0  0  0
  -26.0420  -32.4940   24.0170 C   0  0  0  0  0  3  0  0  0  0  0  0
  -26.5680  -31.6670   25.2530 C   0  0  1  0  0  0  0  0  0  0  0  0
  -25.5050  -31.4580   26.3560 C   0  0  0  0  0  1  0  0  0  0  0  0
  -27.0650  -30.2720   24.8050 C   0  0  0  0  0  1  0  0  0  0  0  0
  -27.7810  -32.3880   25.8910 C   0  0  0  0  0  1  0  0  0  0  0  0
  -25.8230  -33.8980   24.3870 N   0  0  0  0  0  0  0  0  0  0  0  0
  -26.1980  -34.9470   23.6430 C   0  0  0  0  0  0  0  0  0  0  0  0
  -26.8390  -34.8300   22.5940 O   0  0  0  0  0  0  0  0  0  0  0  0
  -25.2590  -34.0680   25.2070 H   0  0  0  0  0  0  0  0  0  0  0  0
  -24.5640  -36.8370   23.3670 C   0  0  0  0  0  1  0  0  0  0  0  0
  -25.7980  -36.3480   24.1420 C   0  0  0  0  0  3  0  0  0  0  0  0
  -27.9930  -37.0950   24.9480 C   0  0  0  0  0  1  0  0  0  0  0  0
  -26.8850  -37.3460   24.0290 N   0  0  0  0  0  0  0  0  0  0  0  0
  -26.5320  -38.2820   24.2050 H   0  0  0  0  0  0  0  0  0  0  0  0
  -29.1560  -21.7280   23.4510 C   0  0  0  0  0  2  0  0  0  0  0  0
  -29.8660  -21.4960   24.6540 O   0  0  0  0  0  0  0  0  0  0  0  0
  -29.5500  -20.6790   25.0280 H   0  0  0  0  0  0  0  0  0  0  0  0
  -30.9690  -23.2610   22.3600 C   0  0  0  0  0  2  0  0  0  0  0  0
  -31.5410  -22.1440   21.4610 C   0  0  0  0  0  2  0  0  0  0  0  0
  -30.8380  -21.8590   20.1140 C   0  0  0  0  0  2  0  0  0  0  0  0
  -30.0830  -20.5200   20.0650 C   0  0  0  0  0  2  0  0  0  0  0  0
  -31.0220  -19.3300   20.3130 C   0  0  0  0  0  2  0  0  0  0  0  0
  -30.3340  -17.9610   20.3120 C   0  0  0  0  0  2  0  0  0  0  0  0
  -31.0150  -17.0430   21.3400 C   0  0  0  0  0  2  0  0  0  0  0  0
  -31.2710  -14.7770   20.3760 C   0  0  0  0  0  0  0  0  0  0  0  0
  -31.0610  -12.5610   19.3240 C   0  0  0  0  0  2  0  0  0  0  0  0
  -30.1580  -12.6580   18.0780 C   0  0  0  0  0  2  0  0  0  0  0  0
  -28.6690  -12.5350   18.4600 C   0  0  0  0  0  2  0  0  0  0  0  0
  -28.2750  -13.4780   19.6290 C   0  0  0  0  0  3  0  0  0  0  0  0
  -29.2740  -13.3050   20.7940 C   0  0  0  0  0  2  0  0  0  0  0  0
  -30.6290  -13.5880   20.2770 N   0  0  0  0  0  0  0  0  0  0  0  0
  -32.3190  -15.0510   19.7800 O   0  0  0  0  0  0  0  0  0  0  0  0
  -30.6420  -15.6560   21.1580 N   0  0  0  0  0  0  0  0  0  0  0  0
  -29.8090  -15.3300   21.6290 H   0  0  0  0  0  0  0  0  0  0  0  0
  -25.8570  -14.1440   20.2360 C   0  0  0  0  0  0  0  0  0  0  0  0
  -24.7700  -13.3980   20.6020 C   0  0  0  0  0  0  0  0  0  0  0  0
  -25.2180  -12.0400   20.6380 C   0  0  0  0  0  0  0  0  0  0  0  0
  -26.9020  -13.2440   20.0700 N   0  0  0  0  0  0  0  0  0  0  0  0
  -26.5140  -11.9760   20.3640 N   0  0  0  0  0  0  0  0  0  0  0  0
  -24.4770  -10.7940   20.8580 C   0  0  0  0  0  0  0  0  0  0  0  0
  -24.8200   -9.9080   21.9040 C   0  0  0  0  0  3  0  0  0  0  0  0
  -24.0830   -8.7210   22.1080 C   0  0  0  0  0  3  0  0  0  0  0  0
  -22.9910   -8.4120   21.2630 C   0  0  0  0  0  0  0  0  0  0  0  0
  -22.6680   -9.2860   20.2100 C   0  0  0  0  0  3  0  0  0  0  0  0
  -23.4050  -10.4640   20.0050 C   0  0  0  0  0  3  0  0  0  0  0  0
  -22.2340   -7.2700   21.3680 O   0  0  0  0  0  0  0  0  0  0  0  0
  -22.0010   -6.6720   22.5810 C   0  0  0  0  0  0  0  0  0  0  0  0
  -21.3570   -7.3540   23.6370 C   0  0  0  0  0  3  0  0  0  0  0  0
  -21.0750   -6.6780   24.8400 C   0  0  0  0  0  3  0  0  0  0  0  0
  -21.4230   -5.3210   24.9860 C   0  0  0  0  0  0  0  0  0  0  0  0
  -22.0580   -4.6410   23.9320 C   0  0  0  0  0  3  0  0  0  0  0  0
  -22.3440   -5.3140   22.7320 C   0  0  0  0  0  0  0  0  0  0  0  0
  -22.9360   -4.6470   21.7110 F   0  0  0  0  0  0  0  0  0  0  0  0
  -21.1440   -4.6690   26.1380 F   0  0  0  0  0  0  0  0  0  0  0  0
  -23.3690  -13.8960   20.8160 C   0  0  0  0  0  0  0  0  0  0  0  0
  -22.6100  -13.2450   21.6880 N   0  0  0  0  0  0  0  0  0  0  0  0
  -22.9540  -14.9010   20.2390 O   0  0  0  0  0  0  0  0  0  0  0  0
  -22.9600  -12.4370   22.1810 H   0  0  0  0  0  0  0  0  0  0  0  0
  -21.6680  -13.5640   21.8650 H   0  0  0  0  0  0  0  0  0  0  0  0
  -26.0430  -15.5060   20.0100 N   0  0  0  0  0  0  0  0  0  0  0  0
  -25.2840  -16.1740   20.0970 H   0  0  0  0  0  0  0  0  0  0  0  0
  -26.9140  -15.9250   19.7070 H   0  0  0  0  0  0  0  0  0  0  0  0
  1 51  1  0
  1 48  1  0
  2  4  1  0
  2  1  1  0
  3  2  1  0
  5  2  1  0
  6  5  1  0
  7  9  1  0
  7  6  1  0
  8 19  2  0
  9 14  1  0
 10 18  1  0
 10 20  1  0
 11 17  1  0
 11 13  1  0
 12 18  1  0
 13 12  1  0
 14 13  2  0
 15 16  1  0
 15  9  2  0
 16 11  2  0
 17 10  1  0
 18  8  1  0
 20 22  2  0
 21 20  1  0
 23 21  1  0
 24 33  2  0
 24 29  1  0
 25 21  1  0
 25 29  1  0
 26 25  1  0
 27 28  1  0
 27 26  1  0
 28 24  1  0
 29 30  2  0
 30 31  1  0
 32 31  2  0
 33 32  1  0
 34  8  1  0
 34 39  1  0
 34 35  1  0
 35 38  1  1
 35 36  1  0
 37 35  1  0
 39 42  1  0
 40 44  1  0
 40 39  1  0
 41 40  2  0
 44 43  1  0
 46 44  1  0
 46 47  1  0
 46 45  1  0
 48 49  1  0
 49 50  1  0
 52 51  1  0
 53 52  1  0
 54 53  1  0
 54 55  1  0
 56 55  1  0
 56 57  1  0
 58 66  1  0
 59 64  1  0
 60 61  1  0
 60 59  1  0
 62 61  1  0
 62 71  1  0
 62 63  1  0
 64 58  1  0
 64 63  1  0
 65 58  2  0
 66 57  1  0
 66 67  1  0
 68 69  2  0
 69 70  1  0
 69 88  1  0
 70 73  1  0
 71 68  1  0
 71 72  1  0
 72 70  2  0
 73 74  1  0
 74 75  2  0
 76 79  1  0
 76 75  1  0
 77 76  2  0
 78 77  1  0
 78 73  2  0
 79 80  1  0
 80 85  2  0
 80 81  1  0
 81 82  2  0
 82 83  1  0
 83 87  1  0
 84 83  2  0
 85 84  1  0
 86 85  1  0
 88 89  1  0
 89 92  1  0
 89 91  1  0
 90 88  2  0
 93 94  1  0
 93 68  1  0
 95 93  1  0
M  ISO  4   6 101   7 101  58 100  66 100
M  END
>  <TORSDO>  (44) 
F 28

>  <SCORE>  (44) 
-9.974

>  <name>  (44) 
43

>  <ligand_id>  (44) 
43

>  <original_smiles>  (44) 
[H]OC([H])([H])C([H])(C([H])([H])C([H])([H])C([H])([H])C([H])([H])C([H])([H])C([H])([H])C([H])([H])N([H])C(=O)N1C([H])([H])C([H])([H])C([H])([H])C([H])(n2nc(-c3c([H])c([H])c(Oc4c([H])c([H])c(F)c([H])c4F)c([H])c3[H])c(C(=O)N([H])[H])c2N([H])[H])C1([H])[H])[N+]([H])([H])C([H])([H])C([H])([H])Oc1c([H])c([H])c2c(c1[H])C([H])([H])N(C(=O)C([H])(N([H])C(=O)C([H])(N([H])C([H])([H])[H])C([H])([H])[H])C(C([H])([H])[H])(C([H])([H])[H])C([H])([H])[H])C([H])(C(=O)N([H])C1([H])c3c([H])c([H])c([H])c([H])c3C([H])([H])C([H])([H])C1([H])[H])C2([H])[H]

>  <smiles>  (44) 
[H]OC([H])([H])C([H])(C([H])([H])C([H])([H])C([H])([H])C([H])([H])C([H])([H])C([H])([H])C([H])([H])N([H])C(=O)N1C([H])([H])C([H])([H])C([H])([H])C([H])(n2nc(-c3c([H])c([H])c(Oc4c([H])c([H])c(F)c([H])c4F)c([H])c3[H])c(C(=O)N([H])[H])c2N([H])[H])C1([H])[H])[N+]([H])([H])C([H])([H])C([H])([H])Oc1c([H])c([H])c2c(c1[H])C([H])([H])N(C(=O)C([H])(N([H])C(=O)C([H])(N([H])C([H])([H])[H])C([H])([H])[H])C(C([H])([H])[H])(C([H])([H])[H])C([H])([H])[H])C([H])(C(=O)N([H])C1([H])c3c([H])c([H])c([H])c([H])c3C([H])([H])C([H])([H])C1([H])[H])C2([H])[H]

$$$$
44:0:0
     RDKit          3D

 96101  0  0  1  0  0  0  0  0999 V2000
  -31.0300  -17.0820   18.3370 C   0  0  0  0  0  2  0  0  0  0  0  0
  -28.8880  -15.3780   18.4670 C   0  0  0  0  0  1  0  0  0  0  0  0
  -32.1720  -15.9120   17.9710 C   0  0  0  0  0  3  0  0  0  0  0  0
  -30.4410  -13.5820   18.1070 C   0  0  0  0  0  3  0  0  0  0  0  0
  -29.4520  -17.1600   18.6930 C   0  0  0  0  0  2  0  0  0  0  0  0
  -32.0160  -14.2140   17.9350 C   0  0  0  0  0  0  0  0  0  0  0  0
  -33.4140  -12.4120   16.7500 C   0  0  0  0  0  1  0  0  0  0  0  0
  -33.2980  -13.2890   18.0050 C   0  0  0  0  0  3  0  0  0  0  0  0
  -33.4460  -12.3630   19.2780 C   0  0  0  0  0  0  0  0  0  0  0  0
  -34.4220  -12.6140   20.2010 N   0  0  0  0  0  0  0  0  0  0  0  0
  -32.5860  -11.4990   19.4840 O   0  0  0  0  0  0  0  0  0  0  0  0
  -35.1060  -13.2940   19.8840 H   0  0  0  0  0  0  0  0  0  0  0  0
  -34.4110  -12.5190   21.7010 C   0  0  0  0  0  2  0  0  0  0  0  0
  -33.0880  -12.1890   22.4740 C   0  0  0  0  0  2  0  0  0  0  0  0
  -32.1040  -13.3870   22.7670 C   0  0  0  0  0  2  0  0  0  0  0  0
  -30.8980  -13.6490   20.6220 C   0  0  0  0  0  0  0  0  0  0  0  0
  -29.1340  -14.0210   16.9810 C   0  0  0  0  0  2  0  0  0  0  0  0
  -27.6790  -12.8130   16.6670 C   0  0  0  0  0  2  0  0  0  0  0  0
  -26.9270  -11.7740   17.9100 C   0  0  0  0  0  2  0  0  0  0  0  0
  -27.1060  -12.0590   19.6160 C   0  0  0  0  0  3  0  0  0  0  0  0
  -28.5050  -12.7450   20.6040 C   0  0  0  0  0  2  0  0  0  0  0  0
  -29.7760  -13.8460   19.8790 N   0  0  0  0  0  0  0  0  0  0  0  0
  -31.9880  -13.8760   20.1530 O   0  0  0  0  0  0  0  0  0  0  0  0
  -30.8670  -13.4100   21.9390 N   0  0  0  0  0  0  0  0  0  0  0  0
  -29.9670  -13.2590   22.3780 H   0  0  0  0  0  0  0  0  0  0  0  0
  -24.9720  -12.6270   20.8270 C   0  0  0  0  0  0  0  0  0  0  0  0
  -23.9470  -11.8810   21.2830 C   0  0  0  0  0  0  0  0  0  0  0  0
  -24.3370  -10.5090   21.1040 C   0  0  0  0  0  0  0  0  0  0  0  0
  -25.9370  -11.7200   20.3880 N   0  0  0  0  0  0  0  0  0  0  0  0
  -25.5520  -10.4260   20.5550 N   0  0  0  0  0  0  0  0  0  0  0  0
  -23.5930   -9.2870   21.3900 C   0  0  0  0  0  0  0  0  0  0  0  0
  -24.1190   -8.3060   22.2560 C   0  0  0  0  0  3  0  0  0  0  0  0
  -23.3700   -7.1540   22.5700 C   0  0  0  0  0  3  0  0  0  0  0  0
  -22.0800   -6.9800   22.0130 C   0  0  0  0  0  0  0  0  0  0  0  0
  -21.5650   -7.9530   21.1400 C   0  0  0  0  0  3  0  0  0  0  0  0
  -22.3150   -9.0970   20.8260 C   0  0  0  0  0  3  0  0  0  0  0  0
  -21.2930   -5.8790   22.2290 O   0  0  0  0  0  0  0  0  0  0  0  0
  -21.4320   -5.1190   23.3610 C   0  0  0  0  0  0  0  0  0  0  0  0
  -21.1020   -5.6160   24.6410 C   0  0  0  0  0  3  0  0  0  0  0  0
  -21.1970   -4.7760   25.7680 C   0  0  0  0  0  3  0  0  0  0  0  0
  -21.6060   -3.4360   25.6130 C   0  0  0  0  0  0  0  0  0  0  0  0
  -21.9360   -2.9410   24.3380 C   0  0  0  0  0  3  0  0  0  0  0  0
  -21.8430   -3.7800   23.2150 C   0  0  0  0  0  0  0  0  0  0  0  0
  -22.1400   -3.2980   21.9840 F   0  0  0  0  0  0  0  0  0  0  0  0
  -21.6890   -2.6230   26.6910 F   0  0  0  0  0  0  0  0  0  0  0  0
  -22.6580  -12.4270   21.8110 C   0  0  0  0  0  0  0  0  0  0  0  0
  -22.0450  -11.7330   22.7560 N   0  0  0  0  0  0  0  0  0  0  0  0
  -22.2200  -13.5170   21.4270 O   0  0  0  0  0  0  0  0  0  0  0  0
  -22.4510  -10.8670   23.0910 H   0  0  0  0  0  0  0  0  0  0  0  0
  -21.1910  -12.0840   23.1700 H   0  0  0  0  0  0  0  0  0  0  0  0
  -25.1210  -14.0090   20.7080 N   0  0  0  0  0  0  0  0  0  0  0  0
  -24.3570  -14.6500   20.9410 H   0  0  0  0  0  0  0  0  0  0  0  0
  -25.9630  -14.4700   20.3950 H   0  0  0  0  0  0  0  0  0  0  0  0
  -28.7140  -19.1770   19.4580 C   0  0  0  0  0 15  0  0  0  0  0  0
  -28.1680  -21.5770   19.5580 C   0  0  0  0  0 15  0  0  0  0  0  0
  -27.9000  -23.6360   20.3070 O   0  0  0  0  0  1  0  0  0  0  0  0
  -24.4460  -30.9450   23.4330 C   0  0  0  0  0  0  0  0  0  0  0  0
  -27.0650  -25.2340   20.3630 C   0  0  0  0  0  0  0  0  0  0  0  0
  -23.3890  -29.5360   21.7400 C   0  0  0  0  0  3  0  0  0  0  0  0
  -24.8940  -27.7670   20.3820 C   0  0  0  0  0  0  0  0  0  0  0  0
  -25.9890  -29.4380   21.8280 C   0  0  0  0  0  2  0  0  0  0  0  0
  -26.0700  -27.9370   21.1160 C   0  0  0  0  0  0  0  0  0  0  0  0
  -27.0930  -26.7180   21.0750 C   0  0  0  0  0  3  0  0  0  0  0  0
  -25.8500  -25.4920   19.6110 C   0  0  0  0  0  3  0  0  0  0  0  0
  -24.8680  -26.5770   19.6230 C   0  0  0  0  0  3  0  0  0  0  0  0
  -23.7290  -28.8200   20.3900 C   0  0  0  0  0  2  0  0  0  0  0  0
  -24.6460  -30.0280   22.3910 N   0  0  0  0  0  0  0  0  0  0  0  0
  -23.3090  -31.2550   23.8430 O   0  0  0  0  0  0  0  0  0  0  0  0
  -22.5740  -28.5970   22.6720 C   0  0  0  0  0  0  0  0  0  0  0  0
  -21.2810  -28.3450   22.3880 N   0  0  0  0  0  0  0  0  0  0  0  0
  -23.1310  -28.0940   23.6480 O   0  0  0  0  0  0  0  0  0  0  0  0
  -20.8610  -28.8050   21.5950 H   0  0  0  0  0  0  0  0  0  0  0  0
  -18.0040  -26.7300   22.4750 C   0  0  0  0  0  0  0  0  0  0  0  0
  -20.4390  -27.3700   23.1010 C   0  0  0  0  0  3  0  0  0  0  0  0
  -20.8010  -25.9210   22.6920 C   0  0  0  0  0  2  0  0  0  0  0  0
  -19.9350  -25.3830   21.5490 C   0  0  0  0  0  2  0  0  0  0  0  0
  -18.4580  -25.3770   21.9520 C   0  0  0  0  0  2  0  0  0  0  0  0
  -18.9340  -27.6700   22.9980 C   0  0  0  0  0  0  0  0  0  0  0  0
  -18.4540  -28.9200   23.4470 C   0  0  0  0  0  3  0  0  0  0  0  0
  -17.0830  -29.2360   23.3770 C   0  0  0  0  0  3  0  0  0  0  0  0
  -16.1690  -28.2970   22.8680 C   0  0  0  0  0  3  0  0  0  0  0  0
  -16.6290  -27.0460   22.4220 C   0  0  0  0  0  3  0  0  0  0  0  0
  -25.6090  -31.6660   24.1890 C   0  0  0  0  0  3  0  0  0  0  0  0
  -25.3560  -33.1320   24.2240 N   0  0  0  0  0  0  0  0  0  0  0  0
  -25.9130  -34.0540   23.4250 C   0  0  0  0  0  0  0  0  0  0  0  0
  -26.7370  -33.7560   22.5580 O   0  0  0  0  0  0  0  0  0  0  0  0
  -24.6520  -33.4370   24.8790 H   0  0  0  0  0  0  0  0  0  0  0  0
  -24.4780  -35.9380   22.5290 C   0  0  0  0  0  1  0  0  0  0  0  0
  -25.5030  -35.5360   23.6040 C   0  0  0  0  0  3  0  0  0  0  0  0
  -27.5430  -36.3770   24.6950 C   0  0  0  0  0  1  0  0  0  0  0  0
  -26.6410  -36.4810   23.5530 N   0  0  0  0  0  0  0  0  0  0  0  0
  -26.3120  -37.4410   23.4970 H   0  0  0  0  0  0  0  0  0  0  0  0
  -25.7760  -31.1580   25.6760 C   0  0  1  0  0  0  0  0  0  0  0  0
  -24.4680  -31.1650   26.5060 C   0  0  0  0  0  1  0  0  0  0  0  0
  -26.3360  -29.7210   25.6950 C   0  0  0  0  0  1  0  0  0  0  0  0
  -26.8000  -32.0440   26.4300 C   0  0  0  0  0  1  0  0  0  0  0  0
  1  5  1  0
  2  5  1  0
  3  1  1  0
  4 17  1  0
  4 22  1  0
  6  3  2  0
  6  8  1  0
  6  4  1  0
  8  7  1  0
  8  9  1  0
  9 11  2  0
  9 10  1  0
 10 13  1  0
 12 10  1  0
 13 14  1  0
 14 15  1  0
 16 24  1  0
 18 17  1  0
 18 19  1  0
 20 19  1  0
 20 29  1  0
 20 21  1  0
 22 21  1  0
 22 16  1  0
 23 16  2  0
 24 25  1  0
 24 15  1  0
 26 27  2  0
 27 46  1  0
 28 27  1  0
 28 31  1  0
 29 30  1  0
 29 26  1  0
 30 28  2  0
 31 32  1  0
 32 33  2  0
 34 37  1  0
 34 33  1  0
 35 34  2  0
 36 35  1  0
 36 31  2  0
 37 38  1  0
 38 39  1  0
 39 40  2  0
 41 40  1  0
 41 45  1  0
 42 41  2  0
 43 38  2  0
 43 42  1  0
 44 43  1  0
 46 47  1  0
 47 49  1  0
 47 50  1  0
 48 46  2  0
 51 26  1  0
 51 52  1  0
 53 51  1  0
 56 58  1  0
 57 68  2  0
 58 63  1  0
 59 67  1  0
 59 69  1  0
 60 66  1  0
 60 62  1  0
 61 67  1  0
 62 61  1  0
 63 62  2  0
 64 65  1  0
 64 58  2  0
 65 60  2  0
 66 59  1  0
 67 57  1  0
 69 71  2  0
 70 69  1  0
 72 70  1  0
 73 78  1  0
 74 70  1  0
 75 74  1  0
 76 77  1  0
 76 75  1  0
 77 73  1  0
 78 74  1  0
 78 79  2  0
 80 79  1  0
 81 80  2  0
 82 73  2  0
 82 81  1  0
 83 57  1  0
 83 84  1  0
 83 93  1  0
 84 87  1  0
 85 89  1  0
 85 84  1  0
 86 85  2  0
 89 88  1  0
 91 89  1  0
 91 90  1  0
 92 91  1  0
 93 95  1  6
 93 96  1  0
 93 94  1  0
M  ISO  4  16 100  24 100  55 101  56 101
M  END
>  <TORSDO>  (45) 
F 23

>  <SCORE>  (45) 
1.303

>  <name>  (45) 
44

>  <ligand_id>  (45) 
44

>  <original_smiles>  (45) 
[H]c1c([H])c([H])c2c(c1[H])C([H])([H])C([H])([H])C([H])([H])C2([H])N([H])C(=O)C1([H])N(C(=O)C([H])(N([H])C(=O)C([H])(N([H])C([H])([H])[H])C([H])([H])[H])C(C([H])([H])[H])(C([H])([H])[H])C([H])([H])[H])C([H])([H])c2c([H])c(OC([H])([H])C([H])([H])c3c([H])c([H])c(C([H])(C(=O)N([H])C([H])([H])C([H])([H])C([H])([H])N([H])C(=O)N4C([H])([H])C([H])([H])C([H])([H])C([H])(n5nc(-c6c([H])c([H])c(Oc7c([H])c([H])c(F)c([H])c7F)c([H])c6[H])c(C(=O)N([H])[H])c5N([H])[H])C4([H])[H])C([H])([H])[H])c([H])c3[H])c([H])c([H])c2C1([H])[H]

>  <smiles>  (45) 
[H]c1c([H])c([H])c2c(c1[H])C([H])([H])C([H])([H])C([H])([H])C2([H])N([H])C(=O)C1([H])N(C(=O)C([H])(N([H])C(=O)C([H])(N([H])C([H])([H])[H])C([H])([H])[H])C(C([H])([H])[H])(C([H])([H])[H])C([H])([H])[H])C([H])([H])c2c([H])c(OC([H])([H])C([H])([H])c3c([H])c([H])c(C([H])(C(=O)N([H])C([H])([H])C([H])([H])C([H])([H])N([H])C(=O)N4C([H])([H])C([H])([H])C([H])([H])C([H])(n5nc(-c6c([H])c([H])c(Oc7c([H])c([H])c(F)c([H])c7F)c([H])c6[H])c(C(=O)N([H])[H])c5N([H])[H])C4([H])[H])C([H])([H])[H])c([H])c3[H])c([H])c([H])c2C1([H])[H]

$$$$
45:0:0
     RDKit          3D

 97105  0  0  1  0  0  0  0  0999 V2000
  -32.4800  -21.6220   23.3960 C   0  0  0  0  0  3  0  0  0  0  0  0
  -33.1290  -22.0770   22.2300 C   0  0  0  0  0  3  0  0  0  0  0  0
  -30.3410  -22.2980   22.4500 C   0  0  0  0  0  3  0  0  0  0  0  0
  -31.0770  -21.7140   23.5010 C   0  0  0  0  0  0  0  0  0  0  0  0
  -30.9840  -22.7710   21.2880 C   0  0  0  0  0  0  0  0  0  0  0  0
  -32.3880  -22.6460   21.1750 C   0  0  0  0  0  0  0  0  0  0  0  0
  -33.0390  -23.0750   20.0530 O   0  0  0  0  0  0  0  0  0  0  0  0
  -33.9690  -22.8700   20.0680 H   0  0  0  0  0  0  0  0  0  0  0  0
  -30.3500  -21.1560   24.7160 C   0  0  0  0  0  2  0  0  0  0  0  0
  -30.5960  -19.6510   24.9760 C   0  0  0  0  0  2  0  0  0  0  0  0
  -30.9400  -18.7920   23.7400 C   0  0  0  0  0  2  0  0  0  0  0  0
  -29.9660  -18.9580   22.5630 C   0  0  0  0  0  2  0  0  0  0  0  0
  -30.5590  -18.5320   21.2080 C   0  0  0  0  0  2  0  0  0  0  0  0
  -30.4290  -17.0400   20.8680 C   0  0  0  0  0  2  0  0  0  0  0  0
  -31.6750  -16.1790   21.1390 C   0  0  0  0  0  2  0  0  0  0  0  0
  -31.6910  -13.9270   20.0100 C   0  0  0  0  0  0  0  0  0  0  0  0
  -31.0790  -11.8330   18.8470 C   0  0  0  0  0  2  0  0  0  0  0  0
  -30.1050  -12.1120   17.6850 C   0  0  0  0  0  2  0  0  0  0  0  0
  -28.6450  -12.1740   18.1780 C   0  0  0  0  0  2  0  0  0  0  0  0
  -28.4770  -13.0940   19.4150 C   0  0  0  0  0  3  0  0  0  0  0  0
  -29.5250  -12.7330   20.4890 C   0  0  0  0  0  2  0  0  0  0  0  0
  -30.8710  -12.8520   19.8850 N   0  0  0  0  0  0  0  0  0  0  0  0
  -32.6940  -14.1140   19.3150 O   0  0  0  0  0  0  0  0  0  0  0  0
  -31.3020  -14.7820   20.9650 N   0  0  0  0  0  0  0  0  0  0  0  0
  -30.5290  -14.4580   21.5290 H   0  0  0  0  0  0  0  0  0  0  0  0
  -26.2320  -14.0570   20.2410 C   0  0  0  0  0  0  0  0  0  0  0  0
  -25.0730  -13.4510   20.6500 C   0  0  0  0  0  0  0  0  0  0  0  0
  -25.3150  -12.0440   20.5730 C   0  0  0  0  0  0  0  0  0  0  0  0
  -27.1170  -13.0290   19.9470 N   0  0  0  0  0  0  0  0  0  0  0  0
  -26.5670  -11.8140   20.1990 N   0  0  0  0  0  0  0  0  0  0  0  0
  -24.4130  -10.9050   20.7790 C   0  0  0  0  0  0  0  0  0  0  0  0
  -24.7630   -9.8290   21.6240 C   0  0  0  0  0  3  0  0  0  0  0  0
  -23.8720   -8.7510   21.8190 C   0  0  0  0  0  3  0  0  0  0  0  0
  -22.6150   -8.7430   21.1690 C   0  0  0  0  0  0  0  0  0  0  0  0
  -22.2810   -9.8060   20.3100 C   0  0  0  0  0  3  0  0  0  0  0  0
  -23.1720  -10.8740   20.1130 C   0  0  0  0  0  3  0  0  0  0  0  0
  -21.6960   -7.7280   21.2780 O   0  0  0  0  0  0  0  0  0  0  0  0
  -21.6500   -6.9170   22.3830 C   0  0  0  0  0  0  0  0  0  0  0  0
  -21.4880   -7.4400   23.6850 C   0  0  0  0  0  3  0  0  0  0  0  0
  -21.3750   -6.5660   24.7840 C   0  0  0  0  0  3  0  0  0  0  0  0
  -21.4140   -5.1730   24.5850 C   0  0  0  0  0  0  0  0  0  0  0  0
  -21.5710   -4.6510   23.2880 C   0  0  0  0  0  3  0  0  0  0  0  0
  -21.6850   -5.5210   22.1900 C   0  0  0  0  0  0  0  0  0  0  0  0
  -21.8160   -5.0140   20.9410 F   0  0  0  0  0  0  0  0  0  0  0  0
  -21.2950   -4.3330   25.6390 F   0  0  0  0  0  0  0  0  0  0  0  0
  -23.7830  -14.1310   21.0040 C   0  0  0  0  0  0  0  0  0  0  0  0
  -23.0060  -13.5410   21.9060 N   0  0  0  0  0  0  0  0  0  0  0  0
  -23.4780  -15.2190   20.5160 O   0  0  0  0  0  0  0  0  0  0  0  0
  -23.2640  -12.6590   22.3230 H   0  0  0  0  0  0  0  0  0  0  0  0
  -22.1360  -13.9790   22.1810 H   0  0  0  0  0  0  0  0  0  0  0  0
  -26.6000  -15.3890   20.0830 N   0  0  0  0  0  0  0  0  0  0  0  0
  -25.9600  -16.1540   20.2680 H   0  0  0  0  0  0  0  0  0  0  0  0
  -27.5070  -15.7010   19.7590 H   0  0  0  0  0  0  0  0  0  0  0  0
  -30.1330  -23.4050   20.1960 C   0  0  0  0  0  2  0  0  0  0  0  0
  -29.9310  -24.9120   20.4180 C   0  0  0  0  0  2  0  0  0  0  0  0
  -28.6760  -25.4690   19.7380 C   0  0  0  0  0  2  0  0  0  0  0  0
  -28.6410  -26.8710   19.9780 O   0  0  0  0  0  0  0  0  0  0  0  0
  -24.6820  -31.8180   23.1390 C   0  0  0  0  0  0  0  0  0  0  0  0
  -27.4220  -27.5110   19.9780 C   0  0  0  0  0  0  0  0  0  0  0  0
  -23.4970  -30.4130   21.4820 C   0  0  0  0  0  3  0  0  0  0  0  0
  -24.9780  -28.9340   20.0270 C   0  0  0  0  0  0  0  0  0  0  0  0
  -26.0090  -30.8440   21.2700 C   0  0  0  0  0  2  0  0  0  0  0  0
  -26.1230  -29.4860   20.6140 C   0  0  0  0  0  0  0  0  0  0  0  0
  -27.3450  -28.7820   20.5820 C   0  0  0  0  0  3  0  0  0  0  0  0
  -26.2570  -26.9620   19.3890 C   0  0  0  0  0  3  0  0  0  0  0  0
  -25.0400  -27.6700   19.4130 C   0  0  0  0  0  3  0  0  0  0  0  0
  -23.7110  -29.7590   20.0910 C   0  0  0  0  0  2  0  0  0  0  0  0
  -24.7470  -31.0400   22.0230 N   0  0  0  0  0  0  0  0  0  0  0  0
  -23.5970  -32.0540   23.6900 O   0  0  0  0  0  0  0  0  0  0  0  0
  -22.8790  -29.3620   22.4300 C   0  0  0  0  0  0  0  0  0  0  0  0
  -21.5540  -29.1700   22.3230 N   0  0  0  0  0  0  0  0  0  0  0  0
  -23.5840  -28.7230   23.2140 O   0  0  0  0  0  0  0  0  0  0  0  0
  -21.0460  -29.7340   21.6570 H   0  0  0  0  0  0  0  0  0  0  0  0
  -18.1970  -27.9510   22.8550 C   0  0  0  0  0  0  0  0  0  0  0  0
  -20.7590  -28.2090   23.0850 C   0  0  0  0  0  3  0  0  0  0  0  0
  -20.8570  -26.7950   22.4660 C   0  0  0  0  0  2  0  0  0  0  0  0
  -19.7330  -26.4980   21.4670 C   0  0  0  0  0  2  0  0  0  0  0  0
  -18.3640  -26.6210   22.1410 C   0  0  0  0  0  2  0  0  0  0  0  0
  -19.3210  -28.7050   23.2850 C   0  0  0  0  0  0  0  0  0  0  0  0
  -19.1100  -29.9530   23.9100 C   0  0  0  0  0  3  0  0  0  0  0  0
  -17.8070  -30.4440   24.1170 C   0  0  0  0  0  3  0  0  0  0  0  0
  -16.6970  -29.6850   23.7060 C   0  0  0  0  0  3  0  0  0  0  0  0
  -16.8930  -28.4430   23.0780 C   0  0  0  0  0  3  0  0  0  0  0  0
  -25.9590  -32.4650   23.7610 C   0  0  0  0  0  3  0  0  0  0  0  0
  -26.5010  -31.6850   25.0200 C   0  0  1  0  0  0  0  0  0  0  0  0
  -25.4220  -31.4100   26.0940 C   0  0  0  0  0  1  0  0  0  0  0  0
  -27.1060  -30.3260   24.5980 C   0  0  0  0  0  1  0  0  0  0  0  0
  -27.6400  -32.4910   25.6870 C   0  0  0  0  0  1  0  0  0  0  0  0
  -25.6230  -33.8510   24.1130 N   0  0  0  0  0  0  0  0  0  0  0  0
  -25.9320  -34.9200   23.3680 C   0  0  0  0  0  0  0  0  0  0  0  0
  -26.6020  -34.8470   22.3340 O   0  0  0  0  0  0  0  0  0  0  0  0
  -25.0310  -33.9830   24.9210 H   0  0  0  0  0  0  0  0  0  0  0  0
  -24.1590  -36.6740   23.0480 C   0  0  0  0  0  1  0  0  0  0  0  0
  -25.4160  -36.2910   23.8460 C   0  0  0  0  0  3  0  0  0  0  0  0
  -27.5370  -37.2120   24.6690 C   0  0  0  0  0  1  0  0  0  0  0  0
  -26.4220  -37.3690   23.7380 N   0  0  0  0  0  0  0  0  0  0  0  0
  -25.9950  -38.2770   23.9050 H   0  0  0  0  0  0  0  0  0  0  0  0
  1  4  1  0
  2  1  2  0
  3  4  2  0
  4  9  1  0
  5  3  1  0
  6  5  2  0
  6  2  1  0
  7  8  1  0
  7  6  1  0
  9 10  1  0
 11 10  1  0
 12 11  1  0
 13 12  1  0
 14 15  1  0
 14 13  1  0
 16 24  1  0
 17 22  1  0
 18 19  1  0
 18 17  1  0
 20 19  1  0
 20 29  1  0
 20 21  1  0
 22 16  1  0
 22 21  1  0
 23 16  2  0
 24 15  1  0
 24 25  1  0
 26 27  2  0
 27 46  1  0
 28 27  1  0
 28 31  1  0
 29 30  1  0
 29 26  1  0
 30 28  2  0
 31 32  1  0
 32 33  2  0
 34 37  1  0
 34 33  1  0
 35 34  2  0
 36 35  1  0
 36 31  2  0
 37 38  1  0
 38 39  1  0
 39 40  2  0
 41 40  1  0
 41 45  1  0
 42 41  2  0
 43 38  2  0
 43 42  1  0
 44 43  1  0
 46 47  1  0
 47 50  1  0
 47 49  1  0
 48 46  2  0
 51 26  1  0
 51 52  1  0
 53 51  1  0
 54 55  1  0
 54  5  1  0
 56 57  1  0
 56 55  1  0
 58 69  2  0
 59 57  1  0
 59 64  1  0
 60 68  1  0
 60 70  1  0
 61 67  1  0
 61 63  1  0
 62 68  1  0
 63 62  1  0
 64 63  2  0
 65 66  1  0
 65 59  2  0
 66 61  2  0
 67 60  1  0
 68 58  1  0
 70 72  2  0
 71 70  1  0
 73 71  1  0
 74 83  2  0
 74 79  1  0
 75 71  1  0
 75 79  1  0
 76 75  1  0
 77 78  1  0
 77 76  1  0
 78 74  1  0
 79 80  2  0
 80 81  1  0
 82 81  2  0
 83 82  1  0
 84 58  1  0
 84 89  1  0
 84 85  1  0
 85 88  1  1
 85 86  1  0
 87 85  1  0
 89 92  1  0
 90 94  1  0
 90 89  1  0
 91 90  2  0
 94 93  1  0
 96 94  1  0
 96 97  1  0
 96 95  1  0
M  ISO  4  16 100  24 100  56 101  57 101
M  END
>  <TORSDO>  (46) 
F 27

>  <SCORE>  (46) 
-7.786

>  <name>  (46) 
45

>  <ligand_id>  (46) 
45

>  <original_smiles>  (46) 
[H]Oc1c([H])c([H])c(C([H])([H])C([H])([H])C([H])([H])C([H])([H])C([H])([H])C([H])([H])C([H])([H])N([H])C(=O)N2C([H])([H])C([H])([H])C([H])([H])C([H])(n3nc(-c4c([H])c([H])c(Oc5c([H])c([H])c(F)c([H])c5F)c([H])c4[H])c(C(=O)N([H])[H])c3N([H])[H])C2([H])[H])c([H])c1C([H])([H])C([H])([H])C([H])([H])Oc1c([H])c([H])c2c(c1[H])C([H])([H])N(C(=O)C([H])(N([H])C(=O)C([H])(N([H])C([H])([H])[H])C([H])([H])[H])C(C([H])([H])[H])(C([H])([H])[H])C([H])([H])[H])C([H])(C(=O)N([H])C1([H])c3c([H])c([H])c([H])c([H])c3C([H])([H])C([H])([H])C1([H])[H])C2([H])[H]

>  <smiles>  (46) 
[H]Oc1c([H])c([H])c(C([H])([H])C([H])([H])C([H])([H])C([H])([H])C([H])([H])C([H])([H])C([H])([H])N([H])C(=O)N2C([H])([H])C([H])([H])C([H])([H])C([H])(n3nc(-c4c([H])c([H])c(Oc5c([H])c([H])c(F)c([H])c5F)c([H])c4[H])c(C(=O)N([H])[H])c3N([H])[H])C2([H])[H])c([H])c1C([H])([H])C([H])([H])C([H])([H])Oc1c([H])c([H])c2c(c1[H])C([H])([H])N(C(=O)C([H])(N([H])C(=O)C([H])(N([H])C([H])([H])[H])C([H])([H])[H])C(C([H])([H])[H])(C([H])([H])[H])C([H])([H])[H])C([H])(C(=O)N([H])C1([H])c3c([H])c([H])c([H])c([H])c3C([H])([H])C([H])([H])C1([H])[H])C2([H])[H]

$$$$
46:0:0
     RDKit          3D

100107  0  0  1  0  0  0  0  0999 V2000
  -28.0280  -24.5050   22.4960 C   0  0  0  0  0  3  0  0  0  0  0  0
  -27.4680  -23.8500   21.2910 N   0  0  0  0  0  4  0  0  0  0  0  0
  -28.0590  -24.0200   20.4910 H   0  0  0  0  0  0  0  0  0  0  0  0
  -27.4870  -22.8570   21.4680 H   0  0  0  0  0  0  0  0  0  0  0  0
  -26.0680  -24.2100   20.9760 C   0  0  0  0  0  2  0  0  0  0  0  0
  -25.5590  -23.4690   19.7220 C   0  0  0  0  0  2  0  0  0  0  0  0
  -24.7950  -24.3540   18.9080 O   0  0  0  0  0  0  0  0  0  0  0  0
  -18.3970  -26.2010   21.3170 C   0  0  0  0  0  0  0  0  0  0  0  0
  -23.4440  -24.1150   18.8400 C   0  0  0  0  0  0  0  0  0  0  0  0
  -18.4670  -24.1470   19.9370 C   0  0  0  0  0  3  0  0  0  0  0  0
  -20.6580  -23.7100   18.7140 C   0  0  0  0  0  0  0  0  0  0  0  0
  -20.1930  -26.0010   19.6070 C   0  0  0  0  0  2  0  0  0  0  0  0
  -21.1690  -24.9280   19.1770 C   0  0  0  0  0  0  0  0  0  0  0  0
  -22.5610  -25.1410   19.2320 C   0  0  0  0  0  3  0  0  0  0  0  0
  -22.9200  -22.8840   18.3790 C   0  0  0  0  0  3  0  0  0  0  0  0
  -21.5280  -22.6820   18.3140 C   0  0  0  0  0  3  0  0  0  0  0  0
  -19.1530  -23.5770   18.6670 C   0  0  0  0  0  2  0  0  0  0  0  0
  -19.0210  -25.4770   20.3440 N   0  0  0  0  0  0  0  0  0  0  0  0
  -17.3510  -25.7940   21.8440 O   0  0  0  0  0  0  0  0  0  0  0  0
  -18.5420  -23.0830   21.0570 C   0  0  0  0  0  0  0  0  0  0  0  0
  -17.3960  -22.8190   21.7040 N   0  0  0  0  0  0  0  0  0  0  0  0
  -19.6020  -22.5020   21.3070 O   0  0  0  0  0  0  0  0  0  0  0  0
  -16.5690  -23.3400   21.4430 H   0  0  0  0  0  0  0  0  0  0  0  0
  -14.9440  -21.2810   23.8650 C   0  0  0  0  0  0  0  0  0  0  0  0
  -17.2200  -21.8340   22.7720 C   0  0  0  0  0  3  0  0  0  0  0  0
  -17.1810  -20.4000   22.1990 C   0  0  0  0  0  2  0  0  0  0  0  0
  -15.7600  -19.9100   21.9020 C   0  0  0  0  0  2  0  0  0  0  0  0
  -14.9070  -19.9300   23.1730 C   0  0  0  0  0  2  0  0  0  0  0  0
  -16.0240  -22.1810   23.6650 C   0  0  0  0  0  0  0  0  0  0  0  0
  -15.9930  -23.4410   24.3020 C   0  0  0  0  0  3  0  0  0  0  0  0
  -14.9150  -23.8030   25.1310 C   0  0  0  0  0  3  0  0  0  0  0  0
  -13.8580  -22.9010   25.3420 C   0  0  0  0  0  3  0  0  0  0  0  0
  -13.8740  -21.6430   24.7110 C   0  0  0  0  0  3  0  0  0  0  0  0
  -18.9540  -27.5760   21.7970 C   0  0  0  0  0  3  0  0  0  0  0  0
  -18.0540  -28.0740   22.8460 N   0  0  0  0  0  0  0  0  0  0  0  0
  -16.8780  -28.6760   22.6160 C   0  0  0  0  0  0  0  0  0  0  0  0
  -16.4720  -28.9410   21.4820 O   0  0  0  0  0  0  0  0  0  0  0  0
  -18.2940  -27.8460   23.7990 H   0  0  0  0  0  0  0  0  0  0  0  0
  -14.6400  -28.3770   23.7190 C   0  0  0  0  0  1  0  0  0  0  0  0
  -16.0190  -29.0460   23.8390 C   0  0  0  0  0  3  0  0  0  0  0  0
  -17.1100  -31.2400   23.9700 C   0  0  0  0  0  1  0  0  0  0  0  0
  -15.8500  -30.5030   24.0230 N   0  0  0  0  0  0  0  0  0  0  0  0
  -15.4040  -30.7040   24.9130 H   0  0  0  0  0  0  0  0  0  0  0  0
  -20.4380  -27.5010   22.3220 C   0  0  1  0  0  0  0  0  0  0  0  0
  -20.9510  -26.0570   22.5230 C   0  0  0  0  0  1  0  0  0  0  0  0
  -21.4000  -28.2110   21.3400 C   0  0  0  0  0  1  0  0  0  0  0  0
  -20.5570  -28.2440   23.6740 C   0  0  0  0  0  1  0  0  0  0  0  0
  -28.5190  -25.9500   22.2170 C   0  0  0  0  0  2  0  0  0  0  0  0
  -28.1580  -26.9570   23.3310 C   0  0  0  0  0  2  0  0  0  0  0  0
  -28.7440  -28.3510   23.0470 C   0  0  0  0  0  2  0  0  0  0  0  0
  -28.2010  -29.4000   23.9240 N   0  0  0  0  0  4  0  0  0  0  0  0
  -27.2210  -29.5490   23.7590 H   0  0  0  0  0  0  0  0  0  0  0  0
  -28.6760  -30.2660   23.7400 H   0  0  0  0  0  0  0  0  0  0  0  0
  -28.3360  -29.1670   24.8920 H   0  0  0  0  0  0  0  0  0  0  0  0
  -29.1150  -23.5980   23.1110 C   0  0  0  0  0  2  0  0  0  0  0  0
  -30.1560  -23.0580   22.1160 C   0  0  0  0  0  2  0  0  0  0  0  0
  -30.6380  -21.6610   22.5110 C   0  0  0  0  0  2  0  0  0  0  0  0
  -32.1100  -21.4350   22.1690 C   0  0  0  0  0  2  0  0  0  0  0  0
  -32.4240  -19.9530   21.9490 C   0  0  0  0  0  2  0  0  0  0  0  0
  -33.1100  -19.7090   20.6100 C   0  0  0  0  0  2  0  0  0  0  0  0
  -32.3110  -20.1530   19.3650 C   0  0  0  0  0  2  0  0  0  0  0  0
  -33.1760  -19.9990   18.1130 C   0  0  0  0  0  2  0  0  0  0  0  0
  -34.1750  -18.0010   17.0470 C   0  0  0  0  0  0  0  0  0  0  0  0
  -34.6350  -15.8210   16.0250 C   0  0  0  0  0  2  0  0  0  0  0  0
  -33.3740  -15.2430   15.3550 C   0  0  0  0  0  2  0  0  0  0  0  0
  -32.4700  -14.5040   16.3680 C   0  0  0  0  0  2  0  0  0  0  0  0
  -32.2360  -15.2960   17.6830 C   0  0  0  0  0  3  0  0  0  0  0  0
  -33.5810  -15.8400   18.2150 C   0  0  0  0  0  2  0  0  0  0  0  0
  -34.2030  -16.6520   17.1490 N   0  0  0  0  0  0  0  0  0  0  0  0
  -34.6650  -18.6510   16.1210 O   0  0  0  0  0  0  0  0  0  0  0  0
  -33.4750  -18.5890   17.9980 N   0  0  0  0  0  0  0  0  0  0  0  0
  -33.0540  -17.9760   18.6780 H   0  0  0  0  0  0  0  0  0  0  0  0
  -30.3860  -14.7550   19.4020 C   0  0  0  0  0  0  0  0  0  0  0  0
  -30.1050  -13.6240   20.1170 C   0  0  0  0  0  0  0  0  0  0  0  0
  -31.1250  -12.6820   19.7820 C   0  0  0  0  0  0  0  0  0  0  0  0
  -31.5350  -14.4760   18.6750 N   0  0  0  0  0  0  0  0  0  0  0  0
  -32.0080  -13.2330   18.9590 N   0  0  0  0  0  0  0  0  0  0  0  0
  -31.2840  -11.2700   20.1540 C   0  0  0  0  0  0  0  0  0  0  0  0
  -32.5050  -10.7770   20.6640 C   0  0  0  0  0  3  0  0  0  0  0  0
  -32.6290   -9.4200   21.0300 C   0  0  0  0  0  3  0  0  0  0  0  0
  -31.5250   -8.5450   20.8970 C   0  0  0  0  0  0  0  0  0  0  0  0
  -30.3170   -9.0360   20.3670 C   0  0  0  0  0  3  0  0  0  0  0  0
  -30.1970  -10.3850   19.9990 C   0  0  0  0  0  3  0  0  0  0  0  0
  -31.5590   -7.2060   21.2040 O   0  0  0  0  0  0  0  0  0  0  0  0
  -32.4330   -6.7050   22.1360 C   0  0  0  0  0  0  0  0  0  0  0  0
  -32.2080   -6.8460   23.5220 C   0  0  0  0  0  3  0  0  0  0  0  0
  -33.0940   -6.2540   24.4440 C   0  0  0  0  0  3  0  0  0  0  0  0
  -34.2020   -5.5180   23.9840 C   0  0  0  0  0  0  0  0  0  0  0  0
  -34.4260   -5.3750   22.6030 C   0  0  0  0  0  3  0  0  0  0  0  0
  -33.5430   -5.9640   21.6830 C   0  0  0  0  0  0  0  0  0  0  0  0
  -33.7510   -5.8050   20.3540 F   0  0  0  0  0  0  0  0  0  0  0  0
  -35.0490   -4.9430   24.8680 F   0  0  0  0  0  0  0  0  0  0  0  0
  -28.9070  -13.3900   20.9950 C   0  0  0  0  0  0  0  0  0  0  0  0
  -29.0530  -12.5720   22.0320 N   0  0  0  0  0  0  0  0  0  0  0  0
  -27.8420  -13.9740   20.7930 O   0  0  0  0  0  0  0  0  0  0  0  0
  -29.9250  -12.0930   22.2050 H   0  0  0  0  0  0  0  0  0  0  0  0
  -28.2740  -12.4100   22.6550 H   0  0  0  0  0  0  0  0  0  0  0  0
  -29.7430  -15.9860   19.2890 N   0  0  0  0  0  0  0  0  0  0  0  0
  -28.8770  -16.1750   19.7830 H   0  0  0  0  0  0  0  0  0  0  0  0
  -29.9980  -16.7250   18.6480 H   0  0  0  0  0  0  0  0  0  0  0  0
  1 48  1  0
  1 55  1  0
  2  4  1  0
  2  1  1  0
  3  2  1  0
  5  2  1  0
  6  5  1  0
  7  6  1  0
  8 19  2  0
  9  7  1  0
  9 14  1  0
 10 18  1  0
 10 20  1  0
 11 13  1  0
 12 18  1  0
 13 14  2  0
 13 12  1  0
 15  9  2  0
 16 15  1  0
 16 11  2  0
 17 11  1  0
 17 10  1  0
 18  8  1  0
 20 22  2  0
 20 21  1  0
 23 21  1  0
 24 33  1  0
 25 21  1  0
 25 29  1  0
 26 25  1  0
 27 26  1  0
 27 28  1  0
 28 24  1  0
 29 24  2  0
 29 30  1  0
 30 31  2  0
 31 32  1  0
 33 32  2  0
 34  8  1  0
 34 44  1  0
 34 35  1  0
 35 38  1  0
 36 35  1  0
 36 40  1  0
 37 36  2  0
 40 39  1  0
 40 42  1  0
 41 42  1  0
 42 43  1  0
 44 45  1  1
 44 47  1  0
 46 44  1  0
 48 49  1  0
 50 49  1  0
 50 51  1  0
 51 54  1  0
 52 51  1  0
 53 51  1  0
 56 57  1  0
 56 55  1  0
 58 57  1  0
 59 58  1  0
 60 59  1  0
 61 60  1  0
 62 61  1  0
 63 69  1  0
 63 71  1  0
 64 69  1  0
 65 64  1  0
 65 66  1  0
 67 66  1  0
 67 68  1  0
 67 76  1  0
 69 68  1  0
 70 63  2  0
 71 62  1  0
 71 72  1  0
 73 74  2  0
 74 93  1  0
 75 74  1  0
 75 78  1  0
 76 77  1  0
 76 73  1  0
 77 75  2  0
 78 79  1  0
 79 80  2  0
 81 80  1  0
 81 84  1  0
 82 81  2  0
 83 78  2  0
 83 82  1  0
 84 85  1  0
 85 86  1  0
 86 87  2  0
 88 87  1  0
 88 92  1  0
 89 88  2  0
 90 85  2  0
 90 89  1  0
 91 90  1  0
 93 94  1  0
 94 96  1  0
 94 97  1  0
 95 93  2  0
 98 73  1  0
 98 99  1  0
100 98  1  0
M  ISO  4   6 101   7 101  63 100  71 100
M  END
>  <TORSDO>  (47) 
F 31

>  <SCORE>  (47) 
-4.251

>  <name>  (47) 
46

>  <ligand_id>  (47) 
46

>  <original_smiles>  (47) 
[H]c1c([H])c([H])c2c(c1[H])C([H])([H])C([H])([H])C([H])([H])C2([H])N([H])C(=O)C1([H])N(C(=O)C([H])(N([H])C(=O)C([H])(N([H])C([H])([H])[H])C([H])([H])[H])C(C([H])([H])[H])(C([H])([H])[H])C([H])([H])[H])C([H])([H])c2c([H])c(OC([H])([H])C([H])([H])[N+]([H])([H])C([H])(C([H])([H])C([H])([H])C([H])([H])C([H])([H])C([H])([H])C([H])([H])C([H])([H])C([H])([H])N([H])C(=O)N3C([H])([H])C([H])([H])C([H])([H])C([H])(n4nc(-c5c([H])c([H])c(Oc6c([H])c([H])c(F)c([H])c6F)c([H])c5[H])c(C(=O)N([H])[H])c4N([H])[H])C3([H])[H])C([H])([H])C([H])([H])C([H])([H])[N+]([H])([H])[H])c([H])c([H])c2C1([H])[H]

>  <smiles>  (47) 
[H]c1c([H])c([H])c2c(c1[H])C([H])([H])C([H])([H])C([H])([H])C2([H])N([H])C(=O)C1([H])N(C(=O)C([H])(N([H])C(=O)C([H])(N([H])C([H])([H])[H])C([H])([H])[H])C(C([H])([H])[H])(C([H])([H])[H])C([H])([H])[H])C([H])([H])c2c([H])c(OC([H])([H])C([H])([H])[N+]([H])([H])C([H])(C([H])([H])C([H])([H])C([H])([H])C([H])([H])C([H])([H])C([H])([H])C([H])([H])C([H])([H])N([H])C(=O)N3C([H])([H])C([H])([H])C([H])([H])C([H])(n4nc(-c5c([H])c([H])c(Oc6c([H])c([H])c(F)c([H])c6F)c([H])c5[H])c(C(=O)N([H])[H])c4N([H])[H])C3([H])[H])C([H])([H])C([H])([H])C([H])([H])[N+]([H])([H])[H])c([H])c([H])c2C1([H])[H]

$$$$
47:0:0
     RDKit          3D

 95103  0  0  1  0  0  0  0  0999 V2000
  -29.3350  -22.1980   24.4780 C   0  0  0  0  0  3  0  0  0  0  0  0
  -30.5300  -20.8440   22.8500 C   0  0  0  0  0  3  0  0  0  0  0  0
  -29.2050  -23.2290   23.5270 C   0  0  0  0  0  3  0  0  0  0  0  0
  -30.4210  -21.8800   21.9060 C   0  0  0  0  0  3  0  0  0  0  0  0
  -30.0090  -21.0030   24.1560 C   0  0  0  0  0  0  0  0  0  0  0  0
  -29.7680  -23.0830   22.2420 C   0  0  0  0  0  0  0  0  0  0  0  0
  -29.6780  -24.2130   21.2260 C   0  0  0  0  0  2  0  0  0  0  0  0
  -30.5600  -25.4310   21.5600 C   0  0  0  0  0  2  0  0  0  0  0  0
  -32.0670  -25.1150   21.7000 C   0  0  0  0  0  2  0  0  0  0  0  0
  -32.9780  -26.3270   21.4470 C   0  0  0  0  0  2  0  0  0  0  0  0
  -32.7990  -27.4740   22.4600 C   0  0  0  0  0  2  0  0  0  0  0  0
  -32.4720  -28.6880   21.7930 O   0  0  0  0  0  0  0  0  0  0  0  0
  -26.7620  -31.5620   24.9050 C   0  0  0  0  0  0  0  0  0  0  0  0
  -31.1240  -28.9380   21.7220 C   0  0  0  0  0  0  0  0  0  0  0  0
  -26.3140  -30.1780   22.9010 C   0  0  0  0  0  3  0  0  0  0  0  0
  -28.3670  -29.5000   21.5480 C   0  0  0  0  0  0  0  0  0  0  0  0
  -28.5530  -31.3810   23.1860 C   0  0  0  0  0  2  0  0  0  0  0  0
  -29.1850  -30.2600   22.3930 C   0  0  0  0  0  0  0  0  0  0  0  0
  -30.5650  -29.9830   22.4850 C   0  0  0  0  0  3  0  0  0  0  0  0
  -30.2920  -28.1810   20.8710 C   0  0  0  0  0  3  0  0  0  0  0  0
  -28.9150  -28.4530   20.7850 C   0  0  0  0  0  3  0  0  0  0  0  0
  -26.9030  -29.8730   21.4970 C   0  0  0  0  0  2  0  0  0  0  0  0
  -27.2150  -31.0490   23.7270 N   0  0  0  0  0  0  0  0  0  0  0  0
  -25.6010  -31.3580   25.2880 O   0  0  0  0  0  0  0  0  0  0  0  0
  -25.9610  -28.8390   23.5860 C   0  0  0  0  0  0  0  0  0  0  0  0
  -24.8860  -28.1900   23.1100 N   0  0  0  0  0  0  0  0  0  0  0  0
  -26.6590  -28.3920   24.5010 O   0  0  0  0  0  0  0  0  0  0  0  0
  -24.3610  -28.6270   22.3660 H   0  0  0  0  0  0  0  0  0  0  0  0
  -22.3610  -25.6730   22.5360 C   0  0  0  0  0  0  0  0  0  0  0  0
  -24.3880  -26.8950   23.5730 C   0  0  0  0  0  3  0  0  0  0  0  0
  -25.2440  -25.7360   23.0120 C   0  0  0  0  0  2  0  0  0  0  0  0
  -24.6950  -25.1580   21.7050 C   0  0  0  0  0  2  0  0  0  0  0  0
  -23.2700  -24.6320   21.9080 C   0  0  0  0  0  2  0  0  0  0  0  0
  -22.8870  -26.7450   23.3050 C   0  0  0  0  0  0  0  0  0  0  0  0
  -22.0010  -27.7070   23.8380 C   0  0  0  0  0  3  0  0  0  0  0  0
  -20.6140  -27.6070   23.6180 C   0  0  0  0  0  3  0  0  0  0  0  0
  -20.0970  -26.5350   22.8710 C   0  0  0  0  0  3  0  0  0  0  0  0
  -20.9680  -25.5700   22.3350 C   0  0  0  0  0  3  0  0  0  0  0  0
  -27.6690  -32.4470   25.8150 C   0  0  0  0  0  3  0  0  0  0  0  0
  -27.9790  -31.7870   27.2140 C   0  0  1  0  0  0  0  0  0  0  0  0
  -26.7220  -31.2780   27.9550 C   0  0  0  0  0  1  0  0  0  0  0  0
  -28.9470  -30.5910   27.0490 C   0  0  0  0  0  1  0  0  0  0  0  0
  -28.6890  -32.8110   28.1310 C   0  0  0  0  0  1  0  0  0  0  0  0
  -26.9930  -33.7400   25.9880 N   0  0  0  0  0  0  0  0  0  0  0  0
  -27.2730  -34.8450   25.2820 C   0  0  0  0  0  0  0  0  0  0  0  0
  -28.1910  -34.8990   24.4600 O   0  0  0  0  0  0  0  0  0  0  0  0
  -26.1930  -33.7520   26.6030 H   0  0  0  0  0  0  0  0  0  0  0  0
  -25.3350  -36.2010   24.4280 C   0  0  0  0  0  1  0  0  0  0  0  0
  -26.3960  -36.0860   25.5330 C   0  0  0  0  0  3  0  0  0  0  0  0
  -28.0440  -37.4120   26.7790 C   0  0  0  0  0  1  0  0  0  0  0  0
  -27.1680  -37.3450   25.6130 N   0  0  0  0  0  0  0  0  0  0  0  0
  -26.5450  -38.1480   25.6380 H   0  0  0  0  0  0  0  0  0  0  0  0
  -30.1420  -19.9230   25.2310 C   0  0  0  0  0  2  0  0  0  0  0  0
  -30.1790  -18.4640   24.7360 C   0  0  0  0  0  2  0  0  0  0  0  0
  -30.8640  -18.2670   23.3670 C   0  0  0  0  0  2  0  0  0  0  0  0
  -30.5490  -16.8810   22.7930 C   0  0  0  0  0  2  0  0  0  0  0  0
  -31.0150  -16.6600   21.3430 C   0  0  0  0  0  2  0  0  0  0  0  0
  -30.9520  -14.6250   19.8660 C   0  0  0  0  0  0  0  0  0  0  0  0
  -30.6150  -12.4430   18.7520 C   0  0  0  0  0  2  0  0  0  0  0  0
  -29.6050  -12.5220   17.5930 C   0  0  0  0  0  2  0  0  0  0  0  0
  -28.1600  -12.3690   18.1070 C   0  0  0  0  0  2  0  0  0  0  0  0
  -27.8580  -13.3180   19.2960 C   0  0  0  0  0  3  0  0  0  0  0  0
  -28.9530  -13.1850   20.3720 C   0  0  0  0  0  2  0  0  0  0  0  0
  -30.2660  -13.4620   19.7500 N   0  0  0  0  0  0  0  0  0  0  0  0
  -31.8730  -14.9710   19.1160 O   0  0  0  0  0  0  0  0  0  0  0  0
  -30.5910  -15.3310   20.9390 N   0  0  0  0  0  0  0  0  0  0  0  0
  -29.8820  -14.8960   21.5110 H   0  0  0  0  0  0  0  0  0  0  0  0
  -25.5200  -13.9720   20.1640 C   0  0  0  0  0  0  0  0  0  0  0  0
  -24.4600  -13.2170   20.5880 C   0  0  0  0  0  0  0  0  0  0  0  0
  -24.8870  -11.8550   20.5010 C   0  0  0  0  0  0  0  0  0  0  0  0
  -26.5280  -13.0710   19.8510 N   0  0  0  0  0  0  0  0  0  0  0  0
  -26.1520  -11.7930   20.1070 N   0  0  0  0  0  0  0  0  0  0  0  0
  -24.1480  -10.6070   20.7160 C   0  0  0  0  0  0  0  0  0  0  0  0
  -24.5820   -9.6430   21.6510 C   0  0  0  0  0  3  0  0  0  0  0  0
  -23.8460   -8.4550   21.8520 C   0  0  0  0  0  3  0  0  0  0  0  0
  -22.6600   -8.2240   21.1140 C   0  0  0  0  0  0  0  0  0  0  0  0
  -22.2450   -9.1750   20.1660 C   0  0  0  0  0  3  0  0  0  0  0  0
  -22.9810  -10.3550   19.9650 C   0  0  0  0  0  3  0  0  0  0  0  0
  -21.8930   -7.0900   21.2240 O   0  0  0  0  0  0  0  0  0  0  0  0
  -21.7430   -6.4350   22.4210 C   0  0  0  0  0  0  0  0  0  0  0  0
  -21.2930   -7.1000   23.5820 C   0  0  0  0  0  3  0  0  0  0  0  0
  -21.0850   -6.3750   24.7720 C   0  0  0  0  0  3  0  0  0  0  0  0
  -21.3170   -4.9860   24.8010 C   0  0  0  0  0  0  0  0  0  0  0  0
  -21.7570   -4.3220   23.6430 C   0  0  0  0  0  3  0  0  0  0  0  0
  -21.9660   -5.0440   22.4560 C   0  0  0  0  0  0  0  0  0  0  0  0
  -22.3710   -4.3960   21.3370 F   0  0  0  0  0  0  0  0  0  0  0  0
  -21.1080   -4.2880   25.9410 F   0  0  0  0  0  0  0  0  0  0  0  0
  -23.0960  -13.7170   20.9660 C   0  0  0  0  0  0  0  0  0  0  0  0
  -22.4340  -13.0410   21.8990 N   0  0  0  0  0  0  0  0  0  0  0  0
  -22.6280  -14.7390   20.4680 O   0  0  0  0  0  0  0  0  0  0  0  0
  -22.8300  -12.2150   22.3230 H   0  0  0  0  0  0  0  0  0  0  0  0
  -21.5200  -13.3530   22.1950 H   0  0  0  0  0  0  0  0  0  0  0  0
  -25.7050  -15.3420   20.0020 N   0  0  0  0  0  0  0  0  0  0  0  0
  -24.9650  -16.0130   20.1740 H   0  0  0  0  0  0  0  0  0  0  0  0
  -26.5530  -15.7670   19.6470 H   0  0  0  0  0  0  0  0  0  0  0  0
  2  5  2  0
  3  1  2  0
  4  6  2  0
  4  2  1  0
  5  1  1  0
  5 53  1  0
  6  3  1  0
  7  8  1  0
  7  6  1  0
  8  9  1  0
 10  9  1  0
 10 11  1  0
 12 11  1  0
 13 24  2  0
 14 12  1  0
 14 19  1  0
 15 25  1  0
 15 23  1  0
 16 18  1  0
 17 23  1  0
 18 19  2  0
 18 17  1  0
 20 14  2  0
 21 20  1  0
 21 16  2  0
 22 16  1  0
 22 15  1  0
 23 13  1  0
 25 27  2  0
 26 25  1  0
 28 26  1  0
 29 34  1  0
 30 26  1  0
 31 30  1  0
 32 33  1  0
 32 31  1  0
 33 29  1  0
 34 30  1  0
 34 35  2  0
 36 35  1  0
 37 36  2  0
 38 29  2  0
 38 37  1  0
 39 13  1  0
 39 44  1  0
 39 40  1  0
 40 41  1  1
 40 43  1  0
 42 40  1  0
 44 47  1  0
 45 49  1  0
 45 44  1  0
 46 45  2  0
 49 48  1  0
 49 51  1  0
 51 52  1  0
 51 50  1  0
 54 53  1  0
 55 54  1  0
 56 55  1  0
 57 56  1  0
 58 66  1  0
 59 64  1  0
 60 61  1  0
 60 59  1  0
 62 61  1  0
 62 71  1  0
 62 63  1  0
 64 58  1  0
 64 63  1  0
 65 58  2  0
 66 57  1  0
 66 67  1  0
 68 69  2  0
 69 88  1  0
 70 69  1  0
 70 73  1  0
 71 72  1  0
 71 68  1  0
 72 70  2  0
 73 74  1  0
 74 75  2  0
 76 79  1  0
 76 75  1  0
 77 76  2  0
 78 77  1  0
 78 73  2  0
 79 80  1  0
 80 85  2  0
 80 81  1  0
 81 82  2  0
 82 83  1  0
 83 87  1  0
 84 83  2  0
 85 84  1  0
 86 85  1  0
 88 89  1  0
 89 92  1  0
 89 91  1  0
 90 88  2  0
 93 68  1  0
 93 94  1  0
 95 93  1  0
M  ISO  4  11 101  12 101  58 100  66 100
M  END
>  <TORSDO>  (48) 
F 26

>  <SCORE>  (48) 
-3.204

>  <name>  (48) 
47

>  <ligand_id>  (48) 
47

>  <original_smiles>  (48) 
[H]c1c([H])c([H])c2c(c1[H])C([H])([H])C([H])([H])C([H])([H])C2([H])N([H])C(=O)C1([H])N(C(=O)C([H])(N([H])C(=O)C([H])(N([H])C([H])([H])[H])C([H])([H])[H])C(C([H])([H])[H])(C([H])([H])[H])C([H])([H])[H])C([H])([H])c2c([H])c(OC([H])([H])C([H])([H])C([H])([H])C([H])([H])C([H])([H])c3c([H])c([H])c(C([H])([H])C([H])([H])C([H])([H])C([H])([H])C([H])([H])N([H])C(=O)N4C([H])([H])C([H])([H])C([H])([H])C([H])(n5nc(-c6c([H])c([H])c(Oc7c([H])c([H])c(F)c([H])c7F)c([H])c6[H])c(C(=O)N([H])[H])c5N([H])[H])C4([H])[H])c([H])c3[H])c([H])c([H])c2C1([H])[H]

>  <smiles>  (48) 
[H]c1c([H])c([H])c2c(c1[H])C([H])([H])C([H])([H])C([H])([H])C2([H])N([H])C(=O)C1([H])N(C(=O)C([H])(N([H])C(=O)C([H])(N([H])C([H])([H])[H])C([H])([H])[H])C(C([H])([H])[H])(C([H])([H])[H])C([H])([H])[H])C([H])([H])c2c([H])c(OC([H])([H])C([H])([H])C([H])([H])C([H])([H])C([H])([H])c3c([H])c([H])c(C([H])([H])C([H])([H])C([H])([H])C([H])([H])C([H])([H])N([H])C(=O)N4C([H])([H])C([H])([H])C([H])([H])C([H])(n5nc(-c6c([H])c([H])c(Oc7c([H])c([H])c(F)c([H])c7F)c([H])c6[H])c(C(=O)N([H])[H])c5N([H])[H])C4([H])[H])c([H])c3[H])c([H])c([H])c2C1([H])[H]

$$$$
48:0:0
     RDKit          3D

102111  0  0  1  0  0  0  0  0999 V2000
  -32.6640  -20.9350   18.5510 C   0  0  0  0  0  2  0  0  0  0  0  0
  -30.4840  -20.0140   19.5180 C   0  0  0  0  0  2  0  0  0  0  0  0
  -33.2520  -19.5110   18.5450 C   0  0  0  0  0  2  0  0  0  0  0  0
  -31.0910  -18.5990   19.4850 C   0  0  0  0  0  2  0  0  0  0  0  0
  -31.1210  -20.9390   18.4600 C   0  0  0  0  0  3  0  0  0  0  0  0
  -32.6270  -18.6150   19.6330 C   0  0  0  0  0  3  0  0  0  0  0  0
  -29.7750  -22.8830   17.5200 C   0  0  0  0  0  3  0  0  0  0  0  0
  -29.2540  -24.1860   17.6220 C   0  0  0  0  0  3  0  0  0  0  0  0
  -30.8100  -23.1390   19.7060 C   0  0  0  0  0  3  0  0  0  0  0  0
  -30.5580  -22.3510   18.5630 C   0  0  0  0  0  0  0  0  0  0  0  0
  -29.5050  -24.9810   18.7630 C   0  0  0  0  0  0  0  0  0  0  0  0
  -30.3050  -24.4510   19.8110 C   0  0  0  0  0  0  0  0  0  0  0  0
  -30.6490  -25.2530   21.0550 C   0  0  0  0  0  1  0  0  0  0  0  0
  -28.9440  -26.4000   18.7940 C   0  0  0  0  0  2  0  0  0  0  0  0
  -28.4180  -26.7670   20.0680 O   0  0  0  0  0  0  0  0  0  0  0  0
  -24.6100  -31.8700   23.2110 C   0  0  0  0  0  0  0  0  0  0  0  0
  -27.2470  -27.4800   20.0680 C   0  0  0  0  0  0  0  0  0  0  0  0
  -23.3980  -30.4910   21.5500 C   0  0  0  0  0  3  0  0  0  0  0  0
  -24.8460  -28.9580   20.1140 C   0  0  0  0  0  0  0  0  0  0  0  0
  -25.9220  -30.8420   21.3620 C   0  0  0  0  0  2  0  0  0  0  0  0
  -26.0000  -29.4760   20.7150 C   0  0  0  0  0  0  0  0  0  0  0  0
  -27.2000  -28.7350   20.7070 C   0  0  0  0  0  3  0  0  0  0  0  0
  -26.0780  -26.9590   19.4750 C   0  0  0  0  0  3  0  0  0  0  0  0
  -24.8760  -27.6940   19.4970 C   0  0  0  0  0  3  0  0  0  0  0  0
  -23.6040  -29.8180   20.1660 C   0  0  0  0  0  2  0  0  0  0  0  0
  -24.6610  -31.0820   22.1000 N   0  0  0  0  0  0  0  0  0  0  0  0
  -23.5300  -32.1440   23.7520 O   0  0  0  0  0  0  0  0  0  0  0  0
  -22.7390  -29.4660   22.5010 C   0  0  0  0  0  0  0  0  0  0  0  0
  -21.4120  -29.3030   22.3750 N   0  0  0  0  0  0  0  0  0  0  0  0
  -23.4170  -28.8210   23.3040 O   0  0  0  0  0  0  0  0  0  0  0  0
  -20.9270  -29.8760   21.6980 H   0  0  0  0  0  0  0  0  0  0  0  0
  -18.0270  -28.1370   22.8500 C   0  0  0  0  0  0  0  0  0  0  0  0
  -20.5850  -28.3650   23.1330 C   0  0  0  0  0  3  0  0  0  0  0  0
  -20.6750  -26.9390   22.5420 C   0  0  0  0  0  2  0  0  0  0  0  0
  -19.5740  -26.6380   21.5210 C   0  0  0  0  0  2  0  0  0  0  0  0
  -18.1910  -26.7920   22.1620 C   0  0  0  0  0  2  0  0  0  0  0  0
  -19.1510  -28.8830   23.2910 C   0  0  0  0  0  0  0  0  0  0  0  0
  -18.9450  -30.1430   23.8920 C   0  0  0  0  0  3  0  0  0  0  0  0
  -17.6450  -30.6580   24.0560 C   0  0  0  0  0  3  0  0  0  0  0  0
  -16.5340  -29.9080   23.6330 C   0  0  0  0  0  3  0  0  0  0  0  0
  -16.7260  -28.6500   23.0350 C   0  0  0  0  0  3  0  0  0  0  0  0
  -25.9010  -32.4830   23.8400 C   0  0  0  0  0  3  0  0  0  0  0  0
  -26.4460  -31.6600   25.0710 C   0  0  1  0  0  0  0  0  0  0  0  0
  -25.3730  -31.3690   26.1460 C   0  0  0  0  0  1  0  0  0  0  0  0
  -27.0290  -30.3050   24.6060 C   0  0  0  0  0  1  0  0  0  0  0  0
  -27.6050  -32.4310   25.7470 C   0  0  0  0  0  1  0  0  0  0  0  0
  -25.5880  -33.8630   24.2330 N   0  0  0  0  0  0  0  0  0  0  0  0
  -25.9030  -34.9480   23.5140 C   0  0  0  0  0  0  0  0  0  0  0  0
  -26.5590  -34.8930   22.4700 O   0  0  0  0  0  0  0  0  0  0  0  0
  -25.0040  -33.9790   25.0480 H   0  0  0  0  0  0  0  0  0  0  0  0
  -24.1490  -36.7320   23.2640 C   0  0  0  0  0  1  0  0  0  0  0  0
  -25.4100  -36.3120   24.0340 C   0  0  0  0  0  3  0  0  0  0  0  0
  -27.5590  -37.1810   24.8460 C   0  0  0  0  0  1  0  0  0  0  0  0
  -26.4300  -37.3800   23.9410 N   0  0  0  0  0  0  0  0  0  0  0  0
  -26.0190  -38.2880   24.1410 H   0  0  0  0  0  0  0  0  0  0  0  0
  -33.0270  -19.0730   20.9850 N   0  0  0  0  0  4  0  0  0  0  0  0
  -32.1970  -19.1860   21.5430 H   0  0  0  0  0  0  0  0  0  0  0  0
  -33.4570  -19.9800   20.8960 H   0  0  0  0  0  0  0  0  0  0  0  0
  -33.9510  -18.1820   21.7180 C   0  0  0  0  0  2  0  0  0  0  0  0
  -34.1420  -18.6360   23.1790 C   0  0  0  0  0  2  0  0  0  0  0  0
  -32.8790  -18.5930   24.0660 C   0  0  0  0  0  2  0  0  0  0  0  0
  -32.3720  -17.1730   24.3760 C   0  0  0  0  0  2  0  0  0  0  0  0
  -31.3660  -16.5990   23.3580 C   0  0  0  0  0  2  0  0  0  0  0  0
  -31.6870  -15.1390   23.0020 C   0  0  0  0  0  2  0  0  0  0  0  0
  -30.8350  -14.2450   20.8180 C   0  0  0  0  0  0  0  0  0  0  0  0
  -30.4140  -12.3120   19.3480 C   0  0  0  0  0  2  0  0  0  0  0  0
  -29.4660  -12.5730   18.1700 C   0  0  0  0  0  2  0  0  0  0  0  0
  -28.0030  -12.3860   18.6050 C   0  0  0  0  0  2  0  0  0  0  0  0
  -27.6630  -13.2080   19.8720 C   0  0  0  0  0  3  0  0  0  0  0  0
  -28.7000  -12.9440   20.9830 C   0  0  0  0  0  2  0  0  0  0  0  0
  -30.0510  -13.2070   20.4530 N   0  0  0  0  0  0  0  0  0  0  0  0
  -31.7480  -14.7040   20.1240 O   0  0  0  0  0  0  0  0  0  0  0  0
  -30.6930  -14.5420   22.1190 N   0  0  0  0  0  0  0  0  0  0  0  0
  -29.9250  -14.0700   22.5740 H   0  0  0  0  0  0  0  0  0  0  0  0
  -25.2580  -13.8180   20.5690 C   0  0  0  0  0  0  0  0  0  0  0  0
  -24.1850  -13.0460   20.9230 C   0  0  0  0  0  0  0  0  0  0  0  0
  -24.6420  -11.6930   20.8810 C   0  0  0  0  0  0  0  0  0  0  0  0
  -26.3030  -12.9360   20.3360 N   0  0  0  0  0  0  0  0  0  0  0  0
  -25.9330  -11.6520   20.5760 N   0  0  0  0  0  0  0  0  0  0  0  0
  -23.9110  -10.4320   21.0460 C   0  0  0  0  0  0  0  0  0  0  0  0
  -24.3650   -9.4220   21.9220 C   0  0  0  0  0  3  0  0  0  0  0  0
  -23.6320   -8.2250   22.0770 C   0  0  0  0  0  3  0  0  0  0  0  0
  -22.4280   -8.0320   21.3570 C   0  0  0  0  0  0  0  0  0  0  0  0
  -21.9950   -9.0310   20.4670 C   0  0  0  0  0  3  0  0  0  0  0  0
  -22.7300  -10.2170   20.3090 C   0  0  0  0  0  3  0  0  0  0  0  0
  -21.6630   -6.8930   21.4270 O   0  0  0  0  0  0  0  0  0  0  0  0
  -21.6840   -6.0790   22.5310 C   0  0  0  0  0  0  0  0  0  0  0  0
  -21.4010   -6.5670   23.8260 C   0  0  0  0  0  3  0  0  0  0  0  0
  -21.3650   -5.6800   24.9210 C   0  0  0  0  0  3  0  0  0  0  0  0
  -21.6040   -4.3070   24.7240 C   0  0  0  0  0  0  0  0  0  0  0  0
  -21.8810   -3.8180   23.4360 C   0  0  0  0  0  3  0  0  0  0  0  0
  -21.9180   -4.7020   22.3430 C   0  0  0  0  0  0  0  0  0  0  0  0
  -22.1650   -4.2220   21.1000 F   0  0  0  0  0  0  0  0  0  0  0  0
  -21.5620   -3.4540   25.7740 F   0  0  0  0  0  0  0  0  0  0  0  0
  -22.7850  -13.5240   21.1870 C   0  0  0  0  0  0  0  0  0  0  0  0
  -22.0440  -12.8250   22.0420 N   0  0  0  0  0  0  0  0  0  0  0  0
  -22.3550  -14.5540   20.6710 O   0  0  0  0  0  0  0  0  0  0  0  0
  -22.3940  -11.9890   22.4850 H   0  0  0  0  0  0  0  0  0  0  0  0
  -21.1080  -13.1370   22.2580 H   0  0  0  0  0  0  0  0  0  0  0  0
  -25.4270  -15.1910   20.4110 N   0  0  0  0  0  0  0  0  0  0  0  0
  -24.6600  -15.8460   20.5170 H   0  0  0  0  0  0  0  0  0  0  0  0
  -26.2860  -15.6370   20.1150 H   0  0  0  0  0  0  0  0  0  0  0  0
  3  1  1  0
  3  6  1  0
  4  2  1  0
  4  6  1  0
  5  1  1  0
  5 10  1  0
  5  2  1  0
  6 56  1  0
  7  8  2  0
  7 10  1  0
  8 11  1  0
  9 12  1  0
 10  9  2  0
 11 14  1  0
 11 12  2  0
 12 13  1  0
 14 15  1  0
 16 27  2  0
 17 15  1  0
 17 22  1  0
 18 26  1  0
 18 28  1  0
 19 25  1  0
 19 21  1  0
 20 26  1  0
 21 20  1  0
 22 21  2  0
 23 24  1  0
 23 17  2  0
 24 19  2  0
 25 18  1  0
 26 16  1  0
 28 30  2  0
 29 28  1  0
 31 29  1  0
 32 41  2  0
 32 37  1  0
 33 29  1  0
 33 37  1  0
 34 33  1  0
 35 36  1  0
 35 34  1  0
 36 32  1  0
 37 38  2  0
 38 39  1  0
 40 39  2  0
 41 40  1  0
 42 16  1  0
 42 47  1  0
 42 43  1  0
 43 46  1  1
 43 44  1  0
 45 43  1  0
 47 50  1  0
 48 52  1  0
 48 47  1  0
 49 48  2  0
 52 51  1  0
 54 52  1  0
 54 55  1  0
 54 53  1  0
 56 57  1  0
 56 59  1  0
 58 56  1  0
 59 60  1  0
 60 61  1  0
 61 62  1  0
 63 62  1  0
 64 63  1  0
 65 73  1  0
 66 71  1  0
 67 68  1  0
 67 66  1  0
 69 68  1  0
 69 78  1  0
 69 70  1  0
 71 65  1  0
 71 70  1  0
 72 65  2  0
 73 74  1  0
 73 64  1  0
 75 76  2  0
 76 95  1  0
 77 76  1  0
 77 80  1  0
 78 75  1  0
 78 79  1  0
 79 77  2  0
 80 81  1  0
 81 82  2  0
 83 86  1  0
 83 82  1  0
 84 83  2  0
 85 84  1  0
 85 80  2  0
 86 87  1  0
 87 88  1  0
 88 89  2  0
 90 89  1  0
 90 94  1  0
 91 90  2  0
 92 87  2  0
 92 91  1  0
 93 92  1  0
 95 96  1  0
 96 99  1  0
 96 98  1  0
 97 95  2  0
100101  1  0
100 75  1  0
102100  1  0
M  ISO  4  14 101  15 101  65 100  73 100
M  END
>  <TORSDO>  (49) 
F 25

>  <SCORE>  (49) 
4.618

>  <name>  (49) 
48

>  <ligand_id>  (49) 
48

>  <original_smiles>  (49) 
[H]c1c([H])c([H])c2c(c1[H])C([H])([H])C([H])([H])C([H])([H])C2([H])N([H])C(=O)C1([H])N(C(=O)C([H])(N([H])C(=O)C([H])(N([H])C([H])([H])[H])C([H])([H])[H])C(C([H])([H])[H])(C([H])([H])[H])C([H])([H])[H])C([H])([H])c2c([H])c(OC([H])([H])c3c([H])c([H])c(C4([H])C([H])([H])C([H])([H])C([H])([N+]([H])([H])C([H])([H])C([H])([H])C([H])([H])C([H])([H])C([H])([H])C([H])([H])N([H])C(=O)N5C([H])([H])C([H])([H])C([H])([H])C([H])(n6nc(-c7c([H])c([H])c(Oc8c([H])c([H])c(F)c([H])c8F)c([H])c7[H])c(C(=O)N([H])[H])c6N([H])[H])C5([H])[H])C([H])([H])C4([H])[H])c([H])c3C([H])([H])[H])c([H])c([H])c2C1([H])[H]

>  <smiles>  (49) 
[H]c1c([H])c([H])c2c(c1[H])C([H])([H])C([H])([H])C([H])([H])C2([H])N([H])C(=O)C1([H])N(C(=O)C([H])(N([H])C(=O)C([H])(N([H])C([H])([H])[H])C([H])([H])[H])C(C([H])([H])[H])(C([H])([H])[H])C([H])([H])[H])C([H])([H])c2c([H])c(OC([H])([H])c3c([H])c([H])c(C4([H])C([H])([H])C([H])([H])C([H])([N+]([H])([H])C([H])([H])C([H])([H])C([H])([H])C([H])([H])C([H])([H])C([H])([H])N([H])C(=O)N5C([H])([H])C([H])([H])C([H])([H])C([H])(n6nc(-c7c([H])c([H])c(Oc8c([H])c([H])c(F)c([H])c8F)c([H])c7[H])c(C(=O)N([H])[H])c6N([H])[H])C5([H])[H])C([H])([H])C4([H])[H])c([H])c3C([H])([H])[H])c([H])c([H])c2C1([H])[H]

$$$$
49:0:0
     RDKit          3D

 95102  0  0  1  0  0  0  0  0999 V2000
  -26.7480  -21.7840   20.0910 C   0  0  0  0  0  3  0  0  0  0  0  0
  -25.3080  -21.6520   19.7820 N   0  0  0  0  0  4  0  0  0  0  0  0
  -25.0430  -22.2210   18.9960 H   0  0  0  0  0  0  0  0  0  0  0  0
  -24.7460  -21.9200   20.5700 H   0  0  0  0  0  0  0  0  0  0  0  0
  -25.0800  -20.6960   19.5660 H   0  0  0  0  0  0  0  0  0  0  0  0
  -27.6160  -21.2800   18.9070 C   0  0  0  0  0  2  0  0  0  0  0  0
  -27.7760  -19.7440   18.8340 C   0  0  0  0  0  2  0  0  0  0  0  0
  -28.7640  -19.1480   19.8560 C   0  0  0  0  0  2  0  0  0  0  0  0
  -30.0880  -18.6820   19.2270 C   0  0  0  0  0  2  0  0  0  0  0  0
  -31.2120  -18.5260   20.2700 C   0  0  0  0  0  2  0  0  0  0  0  0
  -32.2990  -17.5150   19.8630 C   0  0  0  0  0  2  0  0  0  0  0  0
  -32.5410  -15.0320   19.8570 C   0  0  0  0  0  0  0  0  0  0  0  0
  -32.3830  -12.5730   19.7550 C   0  0  0  0  0  2  0  0  0  0  0  0
  -31.4800  -12.1390   18.5840 C   0  0  0  0  0  2  0  0  0  0  0  0
  -29.9980  -12.1240   19.0080 C   0  0  0  0  0  2  0  0  0  0  0  0
  -29.5680  -13.4290   19.7260 C   0  0  0  0  0  3  0  0  0  0  0  0
  -30.5780  -13.7900   20.8380 C   0  0  0  0  0  2  0  0  0  0  0  0
  -31.9180  -13.8850   20.2260 N   0  0  0  0  0  0  0  0  0  0  0  0
  -33.6060  -15.0630   19.2320 O   0  0  0  0  0  0  0  0  0  0  0  0
  -31.8950  -16.1530   20.1950 N   0  0  0  0  0  0  0  0  0  0  0  0
  -31.0320  -16.0370   20.7060 H   0  0  0  0  0  0  0  0  0  0  0  0
  -27.3080  -14.3350   20.5710 C   0  0  0  0  0  0  0  0  0  0  0  0
  -26.1530  -13.7030   20.9450 C   0  0  0  0  0  0  0  0  0  0  0  0
  -26.4100  -12.3040   20.8170 C   0  0  0  0  0  0  0  0  0  0  0  0
  -28.2060  -13.3290   20.2470 N   0  0  0  0  0  0  0  0  0  0  0  0
  -27.6680  -12.0980   20.4490 N   0  0  0  0  0  0  0  0  0  0  0  0
  -25.5160  -11.1490   20.9710 C   0  0  0  0  0  0  0  0  0  0  0  0
  -25.7300  -10.1770   21.9740 C   0  0  0  0  0  3  0  0  0  0  0  0
  -24.8470   -9.0850   22.1110 C   0  0  0  0  0  3  0  0  0  0  0  0
  -23.7340   -8.9590   21.2470 C   0  0  0  0  0  0  0  0  0  0  0  0
  -23.5390   -9.9170   20.2360 C   0  0  0  0  0  3  0  0  0  0  0  0
  -24.4230  -11.0000   20.0960 C   0  0  0  0  0  3  0  0  0  0  0  0
  -22.8380   -7.9180   21.2900 O   0  0  0  0  0  0  0  0  0  0  0  0
  -22.4310   -7.3690   22.4790 C   0  0  0  0  0  0  0  0  0  0  0  0
  -21.7680   -8.1330   23.4650 C   0  0  0  0  0  3  0  0  0  0  0  0
  -21.3050   -7.5130   24.6430 C   0  0  0  0  0  3  0  0  0  0  0  0
  -21.4940   -6.1300   24.8330 C   0  0  0  0  0  0  0  0  0  0  0  0
  -22.1480   -5.3680   23.8500 C   0  0  0  0  0  3  0  0  0  0  0  0
  -22.6120   -5.9860   22.6750 C   0  0  0  0  0  0  0  0  0  0  0  0
  -23.2230   -5.2410   21.7220 F   0  0  0  0  0  0  0  0  0  0  0  0
  -21.0420   -5.5330   25.9600 F   0  0  0  0  0  0  0  0  0  0  0  0
  -24.8510  -14.3590   21.3080 C   0  0  0  0  0  0  0  0  0  0  0  0
  -24.0750  -13.7340   22.1870 N   0  0  0  0  0  0  0  0  0  0  0  0
  -24.5370  -15.4550   20.8490 O   0  0  0  0  0  0  0  0  0  0  0  0
  -24.3430  -12.8450   22.5810 H   0  0  0  0  0  0  0  0  0  0  0  0
  -23.2030  -14.1560   22.4720 H   0  0  0  0  0  0  0  0  0  0  0  0
  -27.6660  -15.6750   20.4640 N   0  0  0  0  0  0  0  0  0  0  0  0
  -27.0120  -16.4260   20.6550 H   0  0  0  0  0  0  0  0  0  0  0  0
  -28.5680  -16.0030   20.1460 H   0  0  0  0  0  0  0  0  0  0  0  0
  -27.0770  -23.2440   20.5000 C   0  0  0  0  0  2  0  0  0  0  0  0
  -28.3920  -23.4240   21.2700 C   0  0  0  0  0  0  0  0  0  0  0  0
  -29.1670  -22.4880   21.4800 O   0  0  0  0  0  0  0  0  0  0  0  0
  -28.7090  -24.8310   21.7720 C   0  0  0  0  0  2  0  0  0  0  0  0
  -29.5690  -25.6320   20.7780 C   0  0  0  0  0  2  0  0  0  0  0  0
  -29.4470  -27.0330   21.0300 O   0  0  0  0  0  0  0  0  0  0  0  0
  -24.9090  -31.7890   23.6990 C   0  0  0  0  0  0  0  0  0  0  0  0
  -28.2120  -27.6280   20.8890 C   0  0  0  0  0  0  0  0  0  0  0  0
  -24.0110  -30.3610   21.8890 C   0  0  0  0  0  3  0  0  0  0  0  0
  -25.7290  -28.9580   20.6330 C   0  0  0  0  0  0  0  0  0  0  0  0
  -26.5100  -30.8880   22.0190 C   0  0  0  0  0  2  0  0  0  0  0  0
  -26.7650  -29.5440   21.3710 C   0  0  0  0  0  0  0  0  0  0  0  0
  -28.0060  -28.8850   21.4960 C   0  0  0  0  0  3  0  0  0  0  0  0
  -27.1520  -27.0480   20.1500 C   0  0  0  0  0  3  0  0  0  0  0  0
  -25.9160  -27.7070   20.0230 C   0  0  0  0  0  3  0  0  0  0  0  0
  -24.4360  -29.7330   20.5350 C   0  0  0  0  0  2  0  0  0  0  0  0
  -25.1530  -31.0260   22.5970 N   0  0  0  0  0  0  0  0  0  0  0  0
  -23.7520  -31.9780   24.1040 O   0  0  0  0  0  0  0  0  0  0  0  0
  -23.3160  -29.2730   22.7370 C   0  0  0  0  0  0  0  0  0  0  0  0
  -22.0350  -29.0070   22.4350 N   0  0  0  0  0  0  0  0  0  0  0  0
  -23.9310  -28.6710   23.6230 O   0  0  0  0  0  0  0  0  0  0  0  0
  -21.6000  -29.5490   21.7020 H   0  0  0  0  0  0  0  0  0  0  0  0
  -18.6930  -27.6440   22.5180 C   0  0  0  0  0  0  0  0  0  0  0  0
  -21.1910  -27.9990   23.0750 C   0  0  0  0  0  3  0  0  0  0  0  0
  -21.4250  -26.6040   22.4550 C   0  0  0  0  0  2  0  0  0  0  0  0
  -20.4530  -26.2800   21.3150 C   0  0  0  0  0  2  0  0  0  0  0  0
  -19.0050  -26.3360   21.8120 C   0  0  0  0  0  2  0  0  0  0  0  0
  -19.7210  -28.4330   23.0980 C   0  0  0  0  0  0  0  0  0  0  0  0
  -19.3810  -29.6580   23.7100 C   0  0  0  0  0  3  0  0  0  0  0  0
  -18.0440  -30.0960   23.7530 C   0  0  0  0  0  3  0  0  0  0  0  0
  -17.0270  -29.3020   23.1930 C   0  0  0  0  0  3  0  0  0  0  0  0
  -17.3520  -28.0790   22.5810 C   0  0  0  0  0  3  0  0  0  0  0  0
  -26.0640  -32.4810   24.4890 C   0  0  0  0  0  3  0  0  0  0  0  0
  -26.3850  -31.7770   25.8630 C   0  0  1  0  0  0  0  0  0  0  0  0
  -25.1340  -31.5020   26.7290 C   0  0  0  0  0  1  0  0  0  0  0  0
  -27.1020  -30.4270   25.6280 C   0  0  0  0  0  1  0  0  0  0  0  0
  -27.3530  -32.6560   26.6910 C   0  0  0  0  0  1  0  0  0  0  0  0
  -25.6790  -33.8830   24.6980 N   0  0  0  0  0  0  0  0  0  0  0  0
  -26.1000  -34.9070   23.9440 C   0  0  0  0  0  0  0  0  0  0  0  0
  -26.9210  -34.7740   23.0320 O   0  0  0  0  0  0  0  0  0  0  0  0
  -24.9700  -34.0570   25.3940 H   0  0  0  0  0  0  0  0  0  0  0  0
  -24.4120  -36.6280   23.2320 C   0  0  0  0  0  1  0  0  0  0  0  0
  -25.5170  -36.2990   24.2490 C   0  0  0  0  0  3  0  0  0  0  0  0
  -27.4730  -37.2810   25.3600 C   0  0  0  0  0  1  0  0  0  0  0  0
  -26.5320  -37.3750   24.2480 N   0  0  0  0  0  0  0  0  0  0  0  0
  -26.0870  -38.2890   24.2860 H   0  0  0  0  0  0  0  0  0  0  0  0
  1  6  1  0
  1 50  1  0
  2  1  1  0
  2  4  1  0
  3  2  1  0
  5  2  1  0
  7  6  1  0
  7  8  1  0
  9  8  1  0
  9 10  1  0
 11 20  1  0
 11 10  1  0
 12 20  1  0
 12 18  1  0
 13 18  1  0
 14 15  1  0
 14 13  1  0
 16 15  1  0
 16 25  1  0
 16 17  1  0
 18 17  1  0
 19 12  2  0
 20 21  1  0
 22 23  2  0
 23 42  1  0
 24 23  1  0
 24 27  1  0
 25 26  1  0
 25 22  1  0
 26 24  2  0
 27 28  1  0
 28 29  2  0
 30 33  1  0
 30 29  1  0
 31 30  2  0
 32 31  1  0
 32 27  2  0
 33 34  1  0
 34 39  2  0
 34 35  1  0
 35 36  2  0
 36 37  1  0
 37 41  1  0
 38 37  2  0
 39 38  1  0
 40 39  1  0
 42 43  1  0
 43 46  1  0
 43 45  1  0
 44 42  2  0
 47 22  1  0
 47 48  1  0
 49 47  1  0
 50 51  1  0
 51 52  2  0
 51 53  1  0
 54 55  1  0
 54 53  1  0
 56 67  2  0
 57 55  1  0
 57 62  1  0
 58 66  1  0
 58 68  1  0
 59 61  1  0
 60 66  1  0
 61 62  2  0
 61 60  1  0
 63 57  2  0
 64 63  1  0
 64 59  2  0
 65 59  1  0
 65 58  1  0
 66 56  1  0
 68 70  2  0
 69 68  1  0
 71 69  1  0
 72 81  2  0
 72 77  1  0
 73 69  1  0
 73 77  1  0
 74 73  1  0
 75 76  1  0
 75 74  1  0
 76 72  1  0
 77 78  2  0
 78 79  1  0
 80 79  2  0
 81 80  1  0
 82 56  1  0
 82 87  1  0
 82 83  1  0
 83 86  1  1
 83 84  1  0
 85 83  1  0
 87 90  1  0
 88 92  1  0
 88 87  1  0
 89 88  2  0
 92 91  1  0
 94 92  1  0
 94 95  1  0
 94 93  1  0
M  ISO  4  12 100  20 100  54 101  55 101
M  END
>  <TORSDO>  (50) 
F 27

>  <SCORE>  (50) 
-8.302

>  <name>  (50) 
49

>  <ligand_id>  (50) 
49

>  <original_smiles>  (50) 
[H]c1c([H])c([H])c2c(c1[H])C([H])([H])C([H])([H])C([H])([H])C2([H])N([H])C(=O)C1([H])N(C(=O)C([H])(N([H])C(=O)C([H])(N([H])C([H])([H])[H])C([H])([H])[H])C(C([H])([H])[H])(C([H])([H])[H])C([H])([H])[H])C([H])([H])c2c([H])c(OC([H])([H])C([H])([H])C(=O)C([H])([H])C([H])(C([H])([H])C([H])([H])C([H])([H])C([H])([H])C([H])([H])C([H])([H])N([H])C(=O)N3C([H])([H])C([H])([H])C([H])([H])C([H])(n4nc(-c5c([H])c([H])c(Oc6c([H])c([H])c(F)c([H])c6F)c([H])c5[H])c(C(=O)N([H])[H])c4N([H])[H])C3([H])[H])[N+]([H])([H])[H])c([H])c([H])c2C1([H])[H]

>  <smiles>  (50) 
[H]c1c([H])c([H])c2c(c1[H])C([H])([H])C([H])([H])C([H])([H])C2([H])N([H])C(=O)C1([H])N(C(=O)C([H])(N([H])C(=O)C([H])(N([H])C([H])([H])[H])C([H])([H])[H])C(C([H])([H])[H])(C([H])([H])[H])C([H])([H])[H])C([H])([H])c2c([H])c(OC([H])([H])C([H])([H])C(=O)C([H])([H])C([H])(C([H])([H])C([H])([H])C([H])([H])C([H])([H])C([H])([H])C([H])([H])N([H])C(=O)N3C([H])([H])C([H])([H])C([H])([H])C([H])(n4nc(-c5c([H])c([H])c(Oc6c([H])c([H])c(F)c([H])c6F)c([H])c5[H])c(C(=O)N([H])[H])c4N([H])[H])C3([H])[H])[N+]([H])([H])[H])c([H])c([H])c2C1([H])[H]

$$$$
50:0:0
     RDKit          3D

 94101  0  0  1  0  0  0  0  0999 V2000
  -31.4960  -22.5060   15.9010 C   0  0  0  0  0  2  0  0  0  0  0  0
  -30.4970  -23.6250   16.2560 C   0  0  0  0  0  2  0  0  0  0  0  0
  -31.1240  -24.8330   16.9760 C   0  0  0  0  0  2  0  0  0  0  0  0
  -30.0660  -25.6550   17.7460 C   0  0  0  0  0  2  0  0  0  0  0  0
  -31.2300  -25.7260   20.0380 C   0  0  0  0  0  1  0  0  0  0  0  0
  -30.6120  -26.5440   18.8880 C   0  0  0  0  0  3  0  0  0  0  0  0
  -29.5230  -27.4900   19.4390 C   0  0  0  0  0  2  0  0  0  0  0  0
  -28.4460  -26.7500   20.0190 O   0  0  0  0  0  0  0  0  0  0  0  0
  -24.6030  -31.8560   23.2380 C   0  0  0  0  0  0  0  0  0  0  0  0
  -27.2740  -27.4580   20.1310 C   0  0  0  0  0  0  0  0  0  0  0  0
  -23.3950  -30.4440   21.6020 C   0  0  0  0  0  3  0  0  0  0  0  0
  -24.8510  -28.9010   20.1880 C   0  0  0  0  0  0  0  0  0  0  0  0
  -25.9150  -30.8210   21.3910 C   0  0  0  0  0  2  0  0  0  0  0  0
  -26.0060  -29.4490   20.7610 C   0  0  0  0  0  0  0  0  0  0  0  0
  -27.2190  -28.7310   20.7390 C   0  0  0  0  0  3  0  0  0  0  0  0
  -26.1000  -26.8990   19.5920 C   0  0  0  0  0  3  0  0  0  0  0  0
  -24.8890  -27.6170   19.6090 C   0  0  0  0  0  3  0  0  0  0  0  0
  -23.6030  -29.7530   20.2280 C   0  0  0  0  0  2  0  0  0  0  0  0
  -24.6560  -31.0550   22.1370 N   0  0  0  0  0  0  0  0  0  0  0  0
  -23.5230  -32.1260   23.7810 O   0  0  0  0  0  0  0  0  0  0  0  0
  -22.7500  -29.4260   22.5700 C   0  0  0  0  0  0  0  0  0  0  0  0
  -21.4250  -29.2450   22.4480 N   0  0  0  0  0  0  0  0  0  0  0  0
  -23.4370  -28.8010   23.3810 O   0  0  0  0  0  0  0  0  0  0  0  0
  -20.9320  -29.8000   21.7630 H   0  0  0  0  0  0  0  0  0  0  0  0
  -18.0530  -28.0600   22.9540 C   0  0  0  0  0  0  0  0  0  0  0  0
  -20.6100  -28.3100   23.2210 C   0  0  0  0  0  3  0  0  0  0  0  0
  -20.7100  -26.8780   22.6440 C   0  0  0  0  0  2  0  0  0  0  0  0
  -19.6050  -26.5580   21.6330 C   0  0  0  0  0  2  0  0  0  0  0  0
  -18.2250  -26.7090   22.2800 C   0  0  0  0  0  2  0  0  0  0  0  0
  -19.1740  -28.8190   23.3810 C   0  0  0  0  0  0  0  0  0  0  0  0
  -18.9600  -30.0840   23.9690 C   0  0  0  0  0  3  0  0  0  0  0  0
  -17.6570  -30.5900   24.1360 C   0  0  0  0  0  3  0  0  0  0  0  0
  -16.5510  -29.8270   23.7270 C   0  0  0  0  0  3  0  0  0  0  0  0
  -16.7490  -28.5630   23.1410 C   0  0  0  0  0  3  0  0  0  0  0  0
  -25.8910  -32.4890   23.8510 C   0  0  0  0  0  3  0  0  0  0  0  0
  -26.4200  -31.7160   25.1200 C   0  0  1  0  0  0  0  0  0  0  0  0
  -25.3380  -31.4680   26.1950 C   0  0  0  0  0  1  0  0  0  0  0  0
  -27.0010  -30.3410   24.7120 C   0  0  0  0  0  1  0  0  0  0  0  0
  -27.5740  -32.5090   25.7760 C   0  0  0  0  0  1  0  0  0  0  0  0
  -25.5820  -33.8860   24.1850 N   0  0  0  0  0  0  0  0  0  0  0  0
  -25.9130  -34.9390   23.4260 C   0  0  0  0  0  0  0  0  0  0  0  0
  -26.5830  -34.8370   22.3940 O   0  0  0  0  0  0  0  0  0  0  0  0
  -24.9910  -34.0390   24.9900 H   0  0  0  0  0  0  0  0  0  0  0  0
  -24.1810  -36.7260   23.0700 C   0  0  0  0  0  1  0  0  0  0  0  0
  -25.4230  -36.3260   23.8840 C   0  0  0  0  0  3  0  0  0  0  0  0
  -27.5580  -37.2090   24.7130 C   0  0  0  0  0  1  0  0  0  0  0  0
  -26.4530  -37.3810   23.7730 N   0  0  0  0  0  0  0  0  0  0  0  0
  -26.0460  -38.3000   23.9280 H   0  0  0  0  0  0  0  0  0  0  0  0
  -30.8010  -21.1370   15.7240 C   0  0  0  0  0  2  0  0  0  0  0  0
  -31.5030  -19.9890   16.4760 C   0  0  0  0  0  2  0  0  0  0  0  0
  -30.5330  -18.8630   16.8630 C   0  0  0  0  0  2  0  0  0  0  0  0
  -31.2100  -17.7200   17.6440 C   0  0  0  0  0  2  0  0  0  0  0  0
  -30.2050  -16.8570   18.4310 C   0  0  0  0  0  2  0  0  0  0  0  0
  -29.7540  -17.4720   19.7820 C   0  0  0  0  0  2  0  0  0  0  0  0
  -30.6340  -17.1410   20.9350 N   0  0  0  0  0  4  0  0  0  0  0  0
  -31.5900  -17.0610   20.6230 H   0  0  0  0  0  0  0  0  0  0  0  0
  -30.5830  -17.9030   21.5900 H   0  0  0  0  0  0  0  0  0  0  0  0
  -30.3060  -15.8960   21.6700 C   0  0  0  0  0  2  0  0  0  0  0  0
  -30.9510  -14.6900   20.9820 C   0  0  0  0  0  0  0  0  0  0  0  0
  -30.7160  -12.5420   19.8100 C   0  0  0  0  0  2  0  0  0  0  0  0
  -29.8700  -12.7480   18.5380 C   0  0  0  0  0  2  0  0  0  0  0  0
  -28.3680  -12.6050   18.8530 C   0  0  0  0  0  2  0  0  0  0  0  0
  -27.9300  -13.4530   20.0780 C   0  0  0  0  0  3  0  0  0  0  0  0
  -28.9020  -13.2470   21.2660 C   0  0  0  0  0  2  0  0  0  0  0  0
  -30.2680  -13.5310   20.8010 N   0  0  0  0  0  0  0  0  0  0  0  0
  -32.0840  -14.8730   20.5280 O   0  0  0  0  0  0  0  0  0  0  0  0
  -25.4740  -14.0490   20.5880 C   0  0  0  0  0  0  0  0  0  0  0  0
  -24.3880  -13.2730   20.8890 C   0  0  0  0  0  0  0  0  0  0  0  0
  -24.8640  -11.9250   20.9230 C   0  0  0  0  0  0  0  0  0  0  0  0
  -26.5440  -13.1750   20.4550 N   0  0  0  0  0  0  0  0  0  0  0  0
  -26.1730  -11.8940   20.7130 N   0  0  0  0  0  0  0  0  0  0  0  0
  -24.1370  -10.6590   21.0850 C   0  0  0  0  0  0  0  0  0  0  0  0
  -24.5190   -9.7040   22.0540 C   0  0  0  0  0  3  0  0  0  0  0  0
  -23.7920   -8.5050   22.2020 C   0  0  0  0  0  3  0  0  0  0  0  0
  -22.6670   -8.2490   21.3830 C   0  0  0  0  0  0  0  0  0  0  0  0
  -22.3020   -9.1930   20.4080 C   0  0  0  0  0  3  0  0  0  0  0  0
  -23.0310  -10.3850   20.2560 C   0  0  0  0  0  3  0  0  0  0  0  0
  -21.9180   -7.0980   21.4390 O   0  0  0  0  0  0  0  0  0  0  0  0
  -21.8190   -6.3570   22.5890 C   0  0  0  0  0  0  0  0  0  0  0  0
  -21.3470   -6.9180   23.7970 C   0  0  0  0  0  3  0  0  0  0  0  0
  -21.1920   -6.1050   24.9380 C   0  0  0  0  0  3  0  0  0  0  0  0
  -21.5020   -4.7330   24.8730 C   0  0  0  0  0  0  0  0  0  0  0  0
  -21.9690   -4.1720   23.6710 C   0  0  0  0  0  3  0  0  0  0  0  0
  -22.1230   -4.9820   22.5320 C   0  0  0  0  0  0  0  0  0  0  0  0
  -22.5520   -4.4320   21.3690 F   0  0  0  0  0  0  0  0  0  0  0  0
  -21.3490   -3.9510   25.9660 F   0  0  0  0  0  0  0  0  0  0  0  0
  -22.9710  -13.7390   21.0440 C   0  0  0  0  0  0  0  0  0  0  0  0
  -22.1860  -13.0590   21.8720 N   0  0  0  0  0  0  0  0  0  0  0  0
  -22.5620  -14.7450   20.4640 O   0  0  0  0  0  0  0  0  0  0  0  0
  -22.5270  -12.2490   22.3680 H   0  0  0  0  0  0  0  0  0  0  0  0
  -21.2330  -13.3590   22.0140 H   0  0  0  0  0  0  0  0  0  0  0  0
  -25.6350  -15.4210   20.4000 N   0  0  0  0  0  0  0  0  0  0  0  0
  -24.8470  -16.0580   20.4360 H   0  0  0  0  0  0  0  0  0  0  0  0
  -26.4940  -15.8730   20.1210 H   0  0  0  0  0  0  0  0  0  0  0  0
  1  2  1  0
  2  3  1  0
  3  4  1  0
  4  6  1  0
  6  7  1  0
  6  5  1  0
  7  8  1  0
  8 10  1  0
  9 20  2  0
 10 15  1  0
 11 19  1  0
 11 21  1  0
 12 18  1  0
 12 14  1  0
 13 19  1  0
 14 13  1  0
 15 14  2  0
 16 17  1  0
 16 10  2  0
 17 12  2  0
 18 11  1  0
 19  9  1  0
 21 23  2  0
 22 21  1  0
 24 22  1  0
 25 34  2  0
 25 30  1  0
 26 22  1  0
 26 30  1  0
 27 26  1  0
 28 29  1  0
 28 27  1  0
 29 25  1  0
 30 31  2  0
 31 32  1  0
 33 32  2  0
 34 33  1  0
 35  9  1  0
 35 40  1  0
 35 36  1  0
 36 39  1  1
 36 37  1  0
 38 36  1  0
 40 43  1  0
 41 45  1  0
 41 40  1  0
 42 41  2  0
 45 44  1  0
 47 45  1  0
 47 48  1  0
 47 46  1  0
 49  1  1  0
 49 50  1  0
 50 51  1  0
 51 52  1  0
 52 53  1  0
 53 54  1  0
 54 55  1  0
 55 57  1  0
 55 58  1  0
 56 55  1  0
 59 58  1  0
 60 65  1  0
 61 62  1  0
 61 60  1  0
 63 62  1  0
 63 70  1  0
 63 64  1  0
 65 59  1  0
 65 64  1  0
 66 59  2  0
 67 68  2  0
 68 69  1  0
 68 87  1  0
 69 72  1  0
 70 67  1  0
 70 71  1  0
 71 69  2  0
 72 73  1  0
 73 74  2  0
 75 78  1  0
 75 74  1  0
 76 75  2  0
 77 76  1  0
 77 72  2  0
 78 79  1  0
 79 80  1  0
 80 81  2  0
 82 81  1  0
 82 86  1  0
 83 82  2  0
 84 79  2  0
 84 83  1  0
 85 84  1  0
 87 88  1  0
 88 91  1  0
 88 90  1  0
 89 87  2  0
 92 93  1  0
 92 67  1  0
 94 92  1  0
M  ISO  4   7 101   8 101  58 100  59 100
M  END
>  <TORSDO>  (51) 
F 29

>  <SCORE>  (51) 
-10.661

>  <name>  (51) 
50

>  <ligand_id>  (51) 
50

>  <original_smiles>  (51) 
[H]c1c([H])c([H])c2c(c1[H])C([H])([H])C([H])([H])C([H])([H])C2([H])N([H])C(=O)C1([H])N(C(=O)C([H])(N([H])C(=O)C([H])(N([H])C([H])([H])[H])C([H])([H])[H])C(C([H])([H])[H])(C([H])([H])[H])C([H])([H])[H])C([H])([H])c2c([H])c(OC([H])([H])C([H])(C([H])([H])[H])C([H])([H])C([H])([H])C([H])([H])C([H])([H])C([H])([H])C([H])([H])C([H])([H])C([H])([H])C([H])([H])C([H])([H])[N+]([H])([H])C([H])([H])C(=O)N3C([H])([H])C([H])([H])C([H])([H])C([H])(n4nc(-c5c([H])c([H])c(Oc6c([H])c([H])c(F)c([H])c6F)c([H])c5[H])c(C(=O)N([H])[H])c4N([H])[H])C3([H])[H])c([H])c([H])c2C1([H])[H]

>  <smiles>  (51) 
[H]c1c([H])c([H])c2c(c1[H])C([H])([H])C([H])([H])C([H])([H])C2([H])N([H])C(=O)C1([H])N(C(=O)C([H])(N([H])C(=O)C([H])(N([H])C([H])([H])[H])C([H])([H])[H])C(C([H])([H])[H])(C([H])([H])[H])C([H])([H])[H])C([H])([H])c2c([H])c(OC([H])([H])C([H])(C([H])([H])[H])C([H])([H])C([H])([H])C([H])([H])C([H])([H])C([H])([H])C([H])([H])C([H])([H])C([H])([H])C([H])([H])C([H])([H])[N+]([H])([H])C([H])([H])C(=O)N3C([H])([H])C([H])([H])C([H])([H])C([H])(n4nc(-c5c([H])c([H])c(Oc6c([H])c([H])c(F)c([H])c6F)c([H])c5[H])c(C(=O)N([H])[H])c4N([H])[H])C3([H])[H])c([H])c([H])c2C1([H])[H]

$$$$
51:0:0
     RDKit          3D

 90 97  0  0  1  0  0  0  0  0999 V2000
  -30.5850  -23.3290   22.4620 C   0  0  0  0  0  3  0  0  0  0  0  0
  -30.1900  -23.8340   21.2780 C   0  0  0  0  0  3  0  0  0  0  0  0
  -31.1070  -21.9630   22.6310 C   0  0  0  0  0  0  0  0  0  0  0  0
  -31.0790  -21.3960   23.7250 O   0  0  0  0  0  0  0  0  0  0  0  0
  -31.7460  -21.2370   21.4380 C   0  0  0  0  0  2  0  0  0  0  0  0
  -30.9760  -19.9860   20.9770 C   0  0  0  0  0  2  0  0  0  0  0  0
  -31.2790  -18.7350   21.8190 C   0  0  0  0  0  2  0  0  0  0  0  0
  -30.5950  -17.4780   21.2700 C   0  0  0  0  0  2  0  0  0  0  0  0
  -30.9930  -16.2160   22.0520 C   0  0  0  0  0  2  0  0  0  0  0  0
  -30.7180  -14.3390   20.4360 C   0  0  0  0  0  0  0  0  0  0  0  0
  -30.3150  -12.3210   19.0770 C   0  0  0  0  0  2  0  0  0  0  0  0
  -29.3420  -12.5990   17.9170 C   0  0  0  0  0  2  0  0  0  0  0  0
  -27.8820  -12.4400   18.3780 C   0  0  0  0  0  2  0  0  0  0  0  0
  -27.5840  -13.2210   19.6850 C   0  0  0  0  0  3  0  0  0  0  0  0
  -28.6560  -12.9230   20.7560 C   0  0  0  0  0  2  0  0  0  0  0  0
  -29.9840  -13.2260   20.1870 N   0  0  0  0  0  0  0  0  0  0  0  0
  -31.6990  -14.6770   19.7660 O   0  0  0  0  0  0  0  0  0  0  0  0
  -30.3380  -15.0280   21.5190 N   0  0  0  0  0  0  0  0  0  0  0  0
  -29.5480  -14.6620   22.0300 H   0  0  0  0  0  0  0  0  0  0  0  0
  -25.1850  -13.8070   20.4250 C   0  0  0  0  0  0  0  0  0  0  0  0
  -24.1310  -13.0230   20.8120 C   0  0  0  0  0  0  0  0  0  0  0  0
  -24.6070  -11.6770   20.7750 C   0  0  0  0  0  0  0  0  0  0  0  0
  -26.2370  -12.9370   20.1800 N   0  0  0  0  0  0  0  0  0  0  0  0
  -25.8910  -11.6510   20.4450 N   0  0  0  0  0  0  0  0  0  0  0  0
  -23.8980  -10.4070   20.9780 C   0  0  0  0  0  0  0  0  0  0  0  0
  -24.3520   -9.4500   21.9120 C   0  0  0  0  0  3  0  0  0  0  0  0
  -23.6440   -8.2430   22.1020 C   0  0  0  0  0  3  0  0  0  0  0  0
  -22.4670   -7.9860   21.3590 C   0  0  0  0  0  0  0  0  0  0  0  0
  -22.0330   -8.9320   20.4140 C   0  0  0  0  0  3  0  0  0  0  0  0
  -22.7410  -10.1300   20.2220 C   0  0  0  0  0  3  0  0  0  0  0  0
  -21.7290   -6.8320   21.4570 O   0  0  0  0  0  0  0  0  0  0  0  0
  -21.6980   -6.0940   22.6150 C   0  0  0  0  0  0  0  0  0  0  0  0
  -21.2880   -6.6540   23.8450 C   0  0  0  0  0  3  0  0  0  0  0  0
  -21.2050   -5.8420   24.9940 C   0  0  0  0  0  3  0  0  0  0  0  0
  -21.5210   -4.4730   24.9140 C   0  0  0  0  0  0  0  0  0  0  0  0
  -21.9230   -3.9130   23.6890 C   0  0  0  0  0  3  0  0  0  0  0  0
  -22.0080   -4.7210   22.5420 C   0  0  0  0  0  0  0  0  0  0  0  0
  -22.3760   -4.1720   21.3600 F   0  0  0  0  0  0  0  0  0  0  0  0
  -21.4330   -3.6910   26.0160 F   0  0  0  0  0  0  0  0  0  0  0  0
  -22.7330  -13.4860   21.1080 C   0  0  0  0  0  0  0  0  0  0  0  0
  -22.0270  -12.7790   21.9840 N   0  0  0  0  0  0  0  0  0  0  0  0
  -22.2750  -14.5080   20.5990 O   0  0  0  0  0  0  0  0  0  0  0  0
  -22.4110  -11.9540   22.4200 H   0  0  0  0  0  0  0  0  0  0  0  0
  -21.0900  -13.0700   22.2230 H   0  0  0  0  0  0  0  0  0  0  0  0
  -25.3330  -15.1800   20.2440 N   0  0  0  0  0  0  0  0  0  0  0  0
  -24.5660  -15.8310   20.3700 H   0  0  0  0  0  0  0  0  0  0  0  0
  -26.1840  -15.6250   19.9240 H   0  0  0  0  0  0  0  0  0  0  0  0
  -29.7580  -25.2720   21.0810 C   0  0  0  0  0  2  0  0  0  0  0  0
  -28.3980  -25.4530   20.3930 C   0  0  0  0  0  2  0  0  0  0  0  0
  -28.3540  -26.8380   20.0910 O   0  0  0  0  0  0  0  0  0  0  0  0
  -24.5440  -31.9130   23.2290 C   0  0  0  0  0  0  0  0  0  0  0  0
  -27.1460  -27.4800   20.1410 C   0  0  0  0  0  0  0  0  0  0  0  0
  -23.3110  -30.5090   21.6030 C   0  0  0  0  0  3  0  0  0  0  0  0
  -24.7430  -28.9540   20.1770 C   0  0  0  0  0  0  0  0  0  0  0  0
  -25.8300  -30.8690   21.3710 C   0  0  0  0  0  2  0  0  0  0  0  0
  -25.9040  -29.4950   20.7410 C   0  0  0  0  0  0  0  0  0  0  0  0
  -27.1080  -28.7660   20.7150 C   0  0  0  0  0  3  0  0  0  0  0  0
  -25.9690  -26.9320   19.5870 C   0  0  0  0  0  3  0  0  0  0  0  0
  -24.7680  -27.6700   19.5990 C   0  0  0  0  0  3  0  0  0  0  0  0
  -23.5020  -29.8150   20.2260 C   0  0  0  0  0  2  0  0  0  0  0  0
  -24.5810  -31.1110   22.1270 N   0  0  0  0  0  0  0  0  0  0  0  0
  -23.4710  -32.1920   23.7810 O   0  0  0  0  0  0  0  0  0  0  0  0
  -22.6680  -29.4970   22.5760 C   0  0  0  0  0  0  0  0  0  0  0  0
  -21.3420  -29.3200   22.4610 N   0  0  0  0  0  0  0  0  0  0  0  0
  -23.3570  -28.8730   23.3880 O   0  0  0  0  0  0  0  0  0  0  0  0
  -20.8500  -29.8760   21.7750 H   0  0  0  0  0  0  0  0  0  0  0  0
  -17.9670  -28.1480   22.9830 C   0  0  0  0  0  0  0  0  0  0  0  0
  -20.5270  -28.3910   23.2400 C   0  0  0  0  0  3  0  0  0  0  0  0
  -20.6180  -26.9570   22.6690 C   0  0  0  0  0  2  0  0  0  0  0  0
  -19.5090  -26.6360   21.6630 C   0  0  0  0  0  2  0  0  0  0  0  0
  -18.1320  -26.7930   22.3150 C   0  0  0  0  0  2  0  0  0  0  0  0
  -19.0920  -28.9040   23.4030 C   0  0  0  0  0  0  0  0  0  0  0  0
  -18.8850  -30.1730   23.9870 C   0  0  0  0  0  3  0  0  0  0  0  0
  -17.5850  -30.6830   24.1560 C   0  0  0  0  0  3  0  0  0  0  0  0
  -16.4730  -29.9230   23.7530 C   0  0  0  0  0  3  0  0  0  0  0  0
  -16.6650  -28.6570   23.1720 C   0  0  0  0  0  3  0  0  0  0  0  0
  -25.8420  -32.5360   23.8330 C   0  0  0  0  0  3  0  0  0  0  0  0
  -25.5450  -33.9350   24.1710 N   0  0  0  0  0  0  0  0  0  0  0  0
  -25.8750  -34.9870   23.4090 C   0  0  0  0  0  0  0  0  0  0  0  0
  -26.5340  -34.8820   22.3710 O   0  0  0  0  0  0  0  0  0  0  0  0
  -24.9570  -34.0910   24.9770 H   0  0  0  0  0  0  0  0  0  0  0  0
  -24.1520  -36.7850   23.0720 C   0  0  0  0  0  1  0  0  0  0  0  0
  -25.3980  -36.3760   23.8720 C   0  0  0  0  0  3  0  0  0  0  0  0
  -27.5440  -37.2470   24.6840 C   0  0  0  0  0  1  0  0  0  0  0  0
  -26.4340  -37.4240   23.7520 N   0  0  0  0  0  0  0  0  0  0  0  0
  -26.0350  -38.3450   23.9070 H   0  0  0  0  0  0  0  0  0  0  0  0
  -26.3770  -31.7580   25.0970 C   0  0  1  0  0  0  0  0  0  0  0  0
  -25.3010  -31.5200   26.1810 C   0  0  0  0  0  1  0  0  0  0  0  0
  -26.9480  -30.3820   24.6860 C   0  0  0  0  0  1  0  0  0  0  0  0
  -27.5410  -32.5460   25.7440 C   0  0  0  0  0  1  0  0  0  0  0  0
  1  3  1  0
  2  1  2  0
  3  4  2  0
  5  3  1  0
  6  5  1  0
  6  7  1  0
  8  7  1  0
  8  9  1  0
 10 18  1  0
 11 16  1  0
 12 13  1  0
 12 11  1  0
 14 13  1  0
 14 23  1  0
 14 15  1  0
 16 10  1  0
 16 15  1  0
 17 10  2  0
 18 19  1  0
 18  9  1  0
 20 21  2  0
 21 40  1  0
 22 21  1  0
 22 25  1  0
 23 20  1  0
 23 24  1  0
 24 22  2  0
 25 26  1  0
 26 27  2  0
 28 31  1  0
 28 27  1  0
 29 28  2  0
 30 29  1  0
 30 25  2  0
 31 32  1  0
 32 33  1  0
 33 34  2  0
 35 34  1  0
 35 39  1  0
 36 35  2  0
 37 32  2  0
 37 36  1  0
 38 37  1  0
 40 41  1  0
 41 44  1  0
 41 43  1  0
 42 40  2  0
 45 46  1  0
 45 20  1  0
 47 45  1  0
 48  2  1  0
 49 48  1  0
 50 52  1  0
 50 49  1  0
 51 62  2  0
 52 57  1  0
 53 61  1  0
 53 63  1  0
 54 60  1  0
 54 56  1  0
 55 61  1  0
 56 55  1  0
 57 56  2  0
 58 59  1  0
 58 52  2  0
 59 54  2  0
 60 53  1  0
 61 51  1  0
 63 65  2  0
 64 63  1  0
 66 64  1  0
 67 76  2  0
 67 72  1  0
 68 64  1  0
 68 72  1  0
 69 68  1  0
 70 71  1  0
 70 69  1  0
 71 67  1  0
 72 73  2  0
 73 74  1  0
 75 74  2  0
 76 75  1  0
 77 51  1  0
 77 78  1  0
 77 87  1  0
 78 81  1  0
 79 83  1  0
 79 78  1  0
 80 79  2  0
 83 82  1  0
 85 83  1  0
 85 86  1  0
 85 84  1  0
 87 90  1  1
 87 88  1  0
 89 87  1  0
M  ISO  4  10 100  18 100  49 101  50 101
M  END
>  <TORSDO>  (52) 
F 24

>  <SCORE>  (52) 
-12.325

>  <name>  (52) 
51

>  <ligand_id>  (52) 
51

>  <original_smiles>  (52) 
[H]C(C(=O)C([H])([H])C([H])([H])C([H])([H])C([H])([H])C([H])([H])N([H])C(=O)N1C([H])([H])C([H])([H])C([H])([H])C([H])(n2nc(-c3c([H])c([H])c(Oc4c([H])c([H])c(F)c([H])c4F)c([H])c3[H])c(C(=O)N([H])[H])c2N([H])[H])C1([H])[H])=C([H])C([H])([H])C([H])([H])Oc1c([H])c([H])c2c(c1[H])C([H])([H])N(C(=O)C([H])(N([H])C(=O)C([H])(N([H])C([H])([H])[H])C([H])([H])[H])C(C([H])([H])[H])(C([H])([H])[H])C([H])([H])[H])C([H])(C(=O)N([H])C1([H])c3c([H])c([H])c([H])c([H])c3C([H])([H])C([H])([H])C1([H])[H])C2([H])[H]

>  <smiles>  (52) 
[H]C(C(=O)C([H])([H])C([H])([H])C([H])([H])C([H])([H])C([H])([H])N([H])C(=O)N1C([H])([H])C([H])([H])C([H])([H])C([H])(n2nc(-c3c([H])c([H])c(Oc4c([H])c([H])c(F)c([H])c4F)c([H])c3[H])c(C(=O)N([H])[H])c2N([H])[H])C1([H])[H])=C([H])C([H])([H])C([H])([H])Oc1c([H])c([H])c2c(c1[H])C([H])([H])N(C(=O)C([H])(N([H])C(=O)C([H])(N([H])C([H])([H])[H])C([H])([H])[H])C(C([H])([H])[H])(C([H])([H])[H])C([H])([H])[H])C([H])(C(=O)N([H])C1([H])c3c([H])c([H])c([H])c([H])c3C([H])([H])C([H])([H])C1([H])[H])C2([H])[H]

$$$$
52:0:0
     RDKit          3D

 96105  0  0  1  0  0  0  0  0999 V2000
  -31.2230  -24.4030   16.3880 C   0  0  0  0  0  3  0  0  0  0  0  0
  -30.8510  -23.1770   16.9780 C   0  0  0  0  0  3  0  0  0  0  0  0
  -31.2180  -25.5850   17.1520 C   0  0  0  0  0  3  0  0  0  0  0  0
  -30.4730  -24.3140   19.0930 C   0  0  0  0  0  3  0  0  0  0  0  0
  -30.4830  -23.1240   18.3410 C   0  0  0  0  0  0  0  0  0  0  0  0
  -30.8420  -25.5400   18.5090 C   0  0  0  0  0  0  0  0  0  0  0  0
  -29.8680  -20.6900   18.4650 C   0  0  0  0  0  3  0  0  0  0  0  0
  -30.1170  -21.8830   19.0350 C   0  0  0  0  0  3  0  0  0  0  0  0
  -29.5170  -19.3770   20.6070 C   0  0  0  0  0  3  0  0  0  0  0  0
  -29.4600  -18.2520   18.4480 C   0  0  0  0  0  3  0  0  0  0  0  0
  -29.3690  -18.1380   21.2600 C   0  0  0  0  0  3  0  0  0  0  0  0
  -29.2990  -17.0150   19.0990 C   0  0  0  0  0  3  0  0  0  0  0  0
  -29.5900  -19.4420   19.1930 C   0  0  0  0  0  0  0  0  0  0  0  0
  -29.2880  -16.9520   20.5080 C   0  0  0  0  0  0  0  0  0  0  0  0
  -29.1960  -15.6110   21.2140 C   0  0  0  0  0  2  0  0  0  0  0  0
  -30.6830  -14.0500   19.9680 C   0  0  0  0  0  0  0  0  0  0  0  0
  -30.2060  -11.9900   18.6820 C   0  0  0  0  0  2  0  0  0  0  0  0
  -29.1600  -12.2610   17.5840 C   0  0  0  0  0  2  0  0  0  0  0  0
  -27.7270  -12.1270   18.1390 C   0  0  0  0  0  2  0  0  0  0  0  0
  -27.5340  -12.9160   19.4590 C   0  0  0  0  0  3  0  0  0  0  0  0
  -28.6730  -12.5820   20.4520 C   0  0  0  0  0  2  0  0  0  0  0  0
  -29.9500  -12.9130   19.7980 N   0  0  0  0  0  0  0  0  0  0  0  0
  -31.6670  -14.3070   19.2590 O   0  0  0  0  0  0  0  0  0  0  0  0
  -31.5330  -15.2930   21.8740 C   0  0  0  0  0  1  0  0  0  0  0  0
  -30.4130  -14.7810   21.0780 N   0  0  0  0  0  0  0  0  0  0  0  0
  -25.2100  -13.5820   20.3500 C   0  0  0  0  0  0  0  0  0  0  0  0
  -24.1660  -12.8310   20.8220 C   0  0  0  0  0  0  0  0  0  0  0  0
  -24.6010  -11.4720   20.7650 C   0  0  0  0  0  0  0  0  0  0  0  0
  -26.2170  -12.6790   20.0440 N   0  0  0  0  0  0  0  0  0  0  0  0
  -25.8570  -11.4060   20.3430 N   0  0  0  0  0  0  0  0  0  0  0  0
  -23.8770  -10.2230   21.0280 C   0  0  0  0  0  0  0  0  0  0  0  0
  -24.3590   -9.2740   21.9550 C   0  0  0  0  0  3  0  0  0  0  0  0
  -23.6380   -8.0870   22.2050 C   0  0  0  0  0  3  0  0  0  0  0  0
  -22.4200   -7.8430   21.5270 C   0  0  0  0  0  0  0  0  0  0  0  0
  -21.9550   -8.7800   20.5890 C   0  0  0  0  0  3  0  0  0  0  0  0
  -22.6770   -9.9590   20.3370 C   0  0  0  0  0  3  0  0  0  0  0  0
  -21.6610   -6.7080   21.6890 O   0  0  0  0  0  0  0  0  0  0  0  0
  -21.6600   -6.0050   22.8660 C   0  0  0  0  0  0  0  0  0  0  0  0
  -21.3030   -6.6050   24.0930 C   0  0  0  0  0  3  0  0  0  0  0  0
  -21.2500   -5.8290   25.2690 C   0  0  0  0  0  3  0  0  0  0  0  0
  -21.5420   -4.4530   25.2170 C   0  0  0  0  0  0  0  0  0  0  0  0
  -21.8910   -3.8510   23.9950 C   0  0  0  0  0  3  0  0  0  0  0  0
  -21.9490   -4.6250   22.8230 C   0  0  0  0  0  0  0  0  0  0  0  0
  -22.2670   -4.0360   21.6450 F   0  0  0  0  0  0  0  0  0  0  0  0
  -21.4820   -3.7070   26.3440 F   0  0  0  0  0  0  0  0  0  0  0  0
  -22.8050  -13.3340   21.2070 C   0  0  0  0  0  0  0  0  0  0  0  0
  -22.1480  -12.6660   22.1490 N   0  0  0  0  0  0  0  0  0  0  0  0
  -22.3350  -14.3540   20.7070 O   0  0  0  0  0  0  0  0  0  0  0  0
  -22.5430  -11.8430   22.5780 H   0  0  0  0  0  0  0  0  0  0  0  0
  -21.2360  -12.9870   22.4460 H   0  0  0  0  0  0  0  0  0  0  0  0
  -25.3730  -14.9470   20.1390 N   0  0  0  0  0  0  0  0  0  0  0  0
  -24.6120  -15.5990   20.2970 H   0  0  0  0  0  0  0  0  0  0  0  0
  -26.1710  -15.3720   19.6810 H   0  0  0  0  0  0  0  0  0  0  0  0
  -30.8470  -26.7960   19.3550 C   0  0  0  0  0  2  0  0  0  0  0  0
  -29.4880  -27.4960   19.3880 C   0  0  0  0  0  2  0  0  0  0  0  0
  -28.4780  -26.6950   20.0200 O   0  0  0  0  0  0  0  0  0  0  0  0
  -24.5370  -31.7340   23.1650 C   0  0  0  0  0  0  0  0  0  0  0  0
  -27.2790  -27.3530   20.1240 C   0  0  0  0  0  0  0  0  0  0  0  0
  -23.3620  -30.3210   21.5040 C   0  0  0  0  0  3  0  0  0  0  0  0
  -24.8470  -28.7760   20.1220 C   0  0  0  0  0  0  0  0  0  0  0  0
  -25.8780  -30.7060   21.3390 C   0  0  0  0  0  2  0  0  0  0  0  0
  -25.9810  -29.3300   20.7240 C   0  0  0  0  0  0  0  0  0  0  0  0
  -27.1930  -28.6190   20.7410 C   0  0  0  0  0  3  0  0  0  0  0  0
  -26.1230  -26.7810   19.5560 C   0  0  0  0  0  3  0  0  0  0  0  0
  -24.9060  -27.4910   19.5480 C   0  0  0  0  0  3  0  0  0  0  0  0
  -23.5970  -29.6270   20.1330 C   0  0  0  0  0  2  0  0  0  0  0  0
  -24.6100  -30.9350   22.0640 N   0  0  0  0  0  0  0  0  0  0  0  0
  -23.4480  -32.0030   23.6880 O   0  0  0  0  0  0  0  0  0  0  0  0
  -22.7020  -29.3020   22.4570 C   0  0  0  0  0  0  0  0  0  0  0  0
  -21.3810  -29.1200   22.3100 N   0  0  0  0  0  0  0  0  0  0  0  0
  -23.3750  -28.6760   23.2810 O   0  0  0  0  0  0  0  0  0  0  0  0
  -20.9020  -29.6750   21.6150 H   0  0  0  0  0  0  0  0  0  0  0  0
  -17.9960  -27.9380   22.7410 C   0  0  0  0  0  0  0  0  0  0  0  0
  -20.5480  -28.1850   23.0650 C   0  0  0  0  0  3  0  0  0  0  0  0
  -20.6570  -26.7540   22.4900 C   0  0  0  0  0  2  0  0  0  0  0  0
  -19.5750  -26.4360   21.4530 C   0  0  0  0  0  2  0  0  0  0  0  0
  -18.1810  -26.5880   22.0690 C   0  0  0  0  0  2  0  0  0  0  0  0
  -19.1080  -28.6960   23.1930 C   0  0  0  0  0  0  0  0  0  0  0  0
  -18.8830  -29.9620   23.7760 C   0  0  0  0  0  3  0  0  0  0  0  0
  -17.5780  -30.4690   23.9150 C   0  0  0  0  0  3  0  0  0  0  0  0
  -16.4780  -29.7080   23.4810 C   0  0  0  0  0  3  0  0  0  0  0  0
  -16.6890  -28.4450   22.9010 C   0  0  0  0  0  3  0  0  0  0  0  0
  -25.8140  -32.3660   23.8050 C   0  0  0  0  0  3  0  0  0  0  0  0
  -25.4880  -33.7520   24.1610 N   0  0  0  0  0  0  0  0  0  0  0  0
  -25.8180  -34.8210   23.4240 C   0  0  0  0  0  0  0  0  0  0  0  0
  -26.4990  -34.7440   22.3980 O   0  0  0  0  0  0  0  0  0  0  0  0
  -24.8820  -33.8830   24.9580 H   0  0  0  0  0  0  0  0  0  0  0  0
  -24.0740  -36.5980   23.0790 C   0  0  0  0  0  1  0  0  0  0  0  0
  -25.3100  -36.1960   23.9010 C   0  0  0  0  0  3  0  0  0  0  0  0
  -27.4310  -37.0820   24.7640 C   0  0  0  0  0  1  0  0  0  0  0  0
  -26.3320  -37.2620   23.8170 N   0  0  0  0  0  0  0  0  0  0  0  0
  -25.9170  -38.1740   23.9830 H   0  0  0  0  0  0  0  0  0  0  0  0
  -26.3390  -31.5740   25.0640 C   0  0  1  0  0  0  0  0  0  0  0  0
  -25.2470  -31.2960   26.1220 C   0  0  0  0  0  1  0  0  0  0  0  0
  -26.9430  -30.2170   24.6380 C   0  0  0  0  0  1  0  0  0  0  0  0
  -27.4800  -32.3690   25.7450 C   0  0  0  0  0  1  0  0  0  0  0  0
  1  2  2  0
  1  3  1  0
  2  5  1  0
  3  6  2  0
  5  8  1  0
  5  4  2  0
  6  4  1  0
  6 54  1  0
  7  8  2  0
  7 13  1  0
  9 11  1  0
 10 12  2  0
 10 13  1  0
 12 14  1  0
 13  9  2  0
 14 15  1  0
 14 11  2  0
 16 25  1  0
 17 22  1  0
 18 19  1  0
 18 17  1  0
 20 19  1  0
 20 29  1  0
 20 21  1  0
 22 16  1  0
 22 21  1  0
 23 16  2  0
 25 15  1  0
 25 24  1  0
 26 27  2  0
 27 46  1  0
 28 27  1  0
 28 31  1  0
 29 30  1  0
 29 26  1  0
 30 28  2  0
 31 32  1  0
 32 33  2  0
 34 37  1  0
 34 33  1  0
 35 34  2  0
 36 35  1  0
 36 31  2  0
 37 38  1  0
 38 39  1  0
 39 40  2  0
 41 40  1  0
 41 45  1  0
 42 41  2  0
 43 38  2  0
 43 42  1  0
 44 43  1  0
 46 47  1  0
 47 50  1  0
 47 49  1  0
 48 46  2  0
 51 52  1  0
 51 26  1  0
 53 51  1  0
 54 55  1  0
 55 56  1  0
 56 58  1  0
 57 68  2  0
 58 63  1  0
 59 67  1  0
 59 69  1  0
 60 66  1  0
 60 62  1  0
 61 67  1  0
 62 63  2  0
 62 61  1  0
 64 58  2  0
 65 64  1  0
 65 60  2  0
 66 59  1  0
 67 57  1  0
 69 71  2  0
 70 69  1  0
 72 70  1  0
 73 82  2  0
 73 78  1  0
 74 70  1  0
 74 78  1  0
 75 74  1  0
 76 77  1  0
 76 75  1  0
 77 73  1  0
 78 79  2  0
 79 80  1  0
 81 80  2  0
 82 81  1  0
 83 57  1  0
 83 84  1  0
 83 93  1  0
 84 87  1  0
 85 89  1  0
 85 84  1  0
 86 85  2  0
 89 88  1  0
 91 89  1  0
 91 92  1  0
 91 90  1  0
 93 96  1  1
 93 94  1  0
 95 93  1  0
M  ISO  4  16 100  25 100  55 101  56 101
M  END
>  <TORSDO>  (53) 
F 21

>  <SCORE>  (53) 
-12.367

>  <name>  (53) 
52

>  <ligand_id>  (53) 
52

>  <original_smiles>  (53) 
[H]C(=C([H])c1c([H])c([H])c([H])c(C([H])([H])C([H])([H])Oc2c([H])c([H])c3c(c2[H])C([H])([H])N(C(=O)C([H])(N([H])C(=O)C([H])(N([H])C([H])([H])[H])C([H])([H])[H])C(C([H])([H])[H])(C([H])([H])[H])C([H])([H])[H])C([H])(C(=O)N([H])C2([H])c4c([H])c([H])c([H])c([H])c4C([H])([H])C([H])([H])C2([H])[H])C3([H])[H])c1[H])c1c([H])c([H])c(C([H])([H])N(C(=O)N2C([H])([H])C([H])([H])C([H])([H])C([H])(n3nc(-c4c([H])c([H])c(Oc5c([H])c([H])c(F)c([H])c5F)c([H])c4[H])c(C(=O)N([H])[H])c3N([H])[H])C2([H])[H])C([H])([H])[H])c([H])c1[H]

>  <smiles>  (53) 
[H]C(=C([H])c1c([H])c([H])c([H])c(C([H])([H])C([H])([H])Oc2c([H])c([H])c3c(c2[H])C([H])([H])N(C(=O)C([H])(N([H])C(=O)C([H])(N([H])C([H])([H])[H])C([H])([H])[H])C(C([H])([H])[H])(C([H])([H])[H])C([H])([H])[H])C([H])(C(=O)N([H])C2([H])c4c([H])c([H])c([H])c([H])c4C([H])([H])C([H])([H])C2([H])[H])C3([H])[H])c1[H])c1c([H])c([H])c(C([H])([H])N(C(=O)N2C([H])([H])C([H])([H])C([H])([H])C([H])(n3nc(-c4c([H])c([H])c(Oc5c([H])c([H])c(F)c([H])c5F)c([H])c4[H])c(C(=O)N([H])[H])c3N([H])[H])C2([H])[H])C([H])([H])[H])c([H])c1[H]

$$$$
53:0:0
     RDKit          3D

 90 97  0  0  1  0  0  0  0  0999 V2000
  -29.0170  -22.6540   22.2960 C   0  0  0  0  0  0  0  0  0  0  0  0
  -27.8230  -22.3340   22.2980 O   0  0  0  0  0  0  0  0  0  0  0  0
  -30.1310  -21.5980   22.2120 C   0  0  0  0  0  2  0  0  0  0  0  0
  -29.6540  -20.2590   21.6000 C   0  0  0  0  0  2  0  0  0  0  0  0
  -30.7790  -19.2190   21.4410 C   0  0  0  0  0  2  0  0  0  0  0  0
  -30.2590  -17.8200   21.0530 C   0  0  0  0  0  2  0  0  0  0  0  0
  -31.3760  -16.7600   21.0320 C   0  0  0  0  0  2  0  0  0  0  0  0
  -31.2620  -14.5080   19.9500 C   0  0  0  0  0  0  0  0  0  0  0  0
  -30.8840  -12.2640   18.9860 C   0  0  0  0  0  2  0  0  0  0  0  0
  -29.9180  -12.3360   17.7890 C   0  0  0  0  0  2  0  0  0  0  0  0
  -28.4540  -12.2600   18.2630 C   0  0  0  0  0  2  0  0  0  0  0  0
  -28.1500  -13.2470   19.4220 C   0  0  0  0  0  3  0  0  0  0  0  0
  -29.2220  -13.1350   20.5280 C   0  0  0  0  0  2  0  0  0  0  0  0
  -30.5480  -13.3520   19.9170 N   0  0  0  0  0  0  0  0  0  0  0  0
  -32.2490  -14.7130   19.2380 O   0  0  0  0  0  0  0  0  0  0  0  0
  -30.8340  -15.4140   20.8400 N   0  0  0  0  0  0  0  0  0  0  0  0
  -30.0640  -15.1310   21.4290 H   0  0  0  0  0  0  0  0  0  0  0  0
  -25.8180  -13.9800   20.2340 C   0  0  0  0  0  0  0  0  0  0  0  0
  -24.7250  -13.2640   20.6490 C   0  0  0  0  0  0  0  0  0  0  0  0
  -25.1090  -11.8910   20.5890 C   0  0  0  0  0  0  0  0  0  0  0  0
  -26.8030  -13.0450   19.9540 N   0  0  0  0  0  0  0  0  0  0  0  0
  -26.3800  -11.7820   20.2190 N   0  0  0  0  0  0  0  0  0  0  0  0
  -24.3230  -10.6680   20.8050 C   0  0  0  0  0  0  0  0  0  0  0  0
  -24.7020   -9.7070   21.7680 C   0  0  0  0  0  3  0  0  0  0  0  0
  -23.9210   -8.5500   21.9720 C   0  0  0  0  0  3  0  0  0  0  0  0
  -22.7450   -8.3450   21.2120 C   0  0  0  0  0  0  0  0  0  0  0  0
  -22.3820   -9.2940   20.2410 C   0  0  0  0  0  3  0  0  0  0  0  0
  -23.1650  -10.4440   20.0350 C   0  0  0  0  0  3  0  0  0  0  0  0
  -21.9370   -7.2390   21.3240 O   0  0  0  0  0  0  0  0  0  0  0  0
  -21.7860   -6.5740   22.5140 C   0  0  0  0  0  0  0  0  0  0  0  0
  -21.2930   -7.2190   23.6710 C   0  0  0  0  0  3  0  0  0  0  0  0
  -21.0900   -6.4810   24.8540 C   0  0  0  0  0  3  0  0  0  0  0  0
  -21.3680   -5.1010   24.8820 C   0  0  0  0  0  0  0  0  0  0  0  0
  -21.8500   -4.4580   23.7310 C   0  0  0  0  0  3  0  0  0  0  0  0
  -22.0580   -5.1930   22.5490 C   0  0  0  0  0  0  0  0  0  0  0  0
  -22.5050   -4.5610   21.4370 F   0  0  0  0  0  0  0  0  0  0  0  0
  -21.1630   -4.3910   26.0160 F   0  0  0  0  0  0  0  0  0  0  0  0
  -23.3720  -13.8160   20.9920 C   0  0  0  0  0  0  0  0  0  0  0  0
  -22.6540  -13.1680   21.9040 N   0  0  0  0  0  0  0  0  0  0  0  0
  -22.9620  -14.8590   20.4870 O   0  0  0  0  0  0  0  0  0  0  0  0
  -22.9990  -12.3240   22.3360 H   0  0  0  0  0  0  0  0  0  0  0  0
  -21.7470  -13.5230   22.1720 H   0  0  0  0  0  0  0  0  0  0  0  0
  -26.0470  -15.3410   20.0560 N   0  0  0  0  0  0  0  0  0  0  0  0
  -25.3220  -16.0350   20.1980 H   0  0  0  0  0  0  0  0  0  0  0  0
  -26.9080  -15.7370   19.6950 H   0  0  0  0  0  0  0  0  0  0  0  0
  -29.4230  -24.1340   22.3660 C   0  0  0  0  0  2  0  0  0  0  0  0
  -29.7050  -24.4430   19.8440 C   0  0  0  0  0  1  0  0  0  0  0  0
  -28.9960  -24.9500   21.1160 C   0  0  0  0  0  3  0  0  0  0  0  0
  -29.2240  -26.4690   21.3010 C   0  0  0  0  0  2  0  0  0  0  0  0
  -28.7680  -27.1540   20.1320 O   0  0  0  0  0  0  0  0  0  0  0  0
  -24.6970  -32.0260   23.3770 C   0  0  0  0  0  0  0  0  0  0  0  0
  -27.5690  -27.8150   20.2200 C   0  0  0  0  0  0  0  0  0  0  0  0
  -23.5700  -30.6380   21.6620 C   0  0  0  0  0  3  0  0  0  0  0  0
  -25.1100  -29.2010   20.2210 C   0  0  0  0  0  0  0  0  0  0  0  0
  -26.0770  -31.1020   21.5230 C   0  0  0  0  0  2  0  0  0  0  0  0
  -26.2280  -29.7500   20.8620 C   0  0  0  0  0  0  0  0  0  0  0  0
  -27.4580  -29.0600   20.8700 C   0  0  0  0  0  3  0  0  0  0  0  0
  -26.4460  -27.2770   19.5610 C   0  0  0  0  0  3  0  0  0  0  0  0
  -25.2120  -27.9590   19.5710 C   0  0  0  0  0  3  0  0  0  0  0  0
  -23.8310  -30.0100   20.2650 C   0  0  0  0  0  2  0  0  0  0  0  0
  -24.7970  -31.2690   22.2480 N   0  0  0  0  0  0  0  0  0  0  0  0
  -23.5980  -32.2380   23.9070 O   0  0  0  0  0  0  0  0  0  0  0  0
  -22.9420  -29.5620   22.5770 C   0  0  0  0  0  0  0  0  0  0  0  0
  -21.6260  -29.3400   22.4230 N   0  0  0  0  0  0  0  0  0  0  0  0
  -23.6350  -28.9330   23.3800 O   0  0  0  0  0  0  0  0  0  0  0  0
  -21.1250  -29.9060   21.7510 H   0  0  0  0  0  0  0  0  0  0  0  0
  -18.2880  -28.0270   22.8310 C   0  0  0  0  0  0  0  0  0  0  0  0
  -20.8320  -28.3470   23.1470 C   0  0  0  0  0  3  0  0  0  0  0  0
  -20.9860  -26.9440   22.5170 C   0  0  0  0  0  2  0  0  0  0  0  0
  -19.9050  -26.6290   21.4770 C   0  0  0  0  0  2  0  0  0  0  0  0
  -18.5120  -26.7110   22.1060 C   0  0  0  0  0  2  0  0  0  0  0  0
  -19.3780  -28.8020   23.3040 C   0  0  0  0  0  0  0  0  0  0  0  0
  -19.1140  -30.0380   23.9370 C   0  0  0  0  0  3  0  0  0  0  0  0
  -17.7940  -30.4940   24.1050 C   0  0  0  0  0  3  0  0  0  0  0  0
  -16.7180  -29.7150   23.6470 C   0  0  0  0  0  3  0  0  0  0  0  0
  -16.9660  -28.4830   23.0140 C   0  0  0  0  0  3  0  0  0  0  0  0
  -25.9480  -32.6790   24.0420 C   0  0  0  0  0  3  0  0  0  0  0  0
  -25.6100  -34.0770   24.3470 N   0  0  0  0  0  0  0  0  0  0  0  0
  -25.9590  -35.1250   23.5900 C   0  0  0  0  0  0  0  0  0  0  0  0
  -26.6710  -35.0190   22.5870 O   0  0  0  0  0  0  0  0  0  0  0  0
  -24.9930  -34.2340   25.1310 H   0  0  0  0  0  0  0  0  0  0  0  0
  -24.2210  -36.8830   23.1480 C   0  0  0  0  0  1  0  0  0  0  0  0
  -25.4350  -36.5110   24.0120 C   0  0  0  0  0  3  0  0  0  0  0  0
  -27.5230  -37.4360   24.9140 C   0  0  0  0  0  1  0  0  0  0  0  0
  -26.4570  -37.5780   23.9260 N   0  0  0  0  0  0  0  0  0  0  0  0
  -26.0340  -38.4950   24.0450 H   0  0  0  0  0  0  0  0  0  0  0  0
  -26.4290  -31.9240   25.3410 C   0  0  1  0  0  0  0  0  0  0  0  0
  -25.3000  -31.6660   26.3680 C   0  0  0  0  0  1  0  0  0  0  0  0
  -27.0520  -30.5590   24.9700 C   0  0  0  0  0  1  0  0  0  0  0  0
  -27.5350  -32.7460   26.0440 C   0  0  0  0  0  1  0  0  0  0  0  0
  1  2  2  0
  1 46  1  0
  3  1  1  0
  4  3  1  0
  5  4  1  0
  6  5  1  0
  7  6  1  0
  8 16  1  0
  9 14  1  0
 10 11  1  0
 10  9  1  0
 12 11  1  0
 12 21  1  0
 12 13  1  0
 14  8  1  0
 14 13  1  0
 15  8  2  0
 16  7  1  0
 16 17  1  0
 18 19  2  0
 19 38  1  0
 20 19  1  0
 20 23  1  0
 21 22  1  0
 21 18  1  0
 22 20  2  0
 23 24  1  0
 24 25  2  0
 26 29  1  0
 26 25  1  0
 27 26  2  0
 28 27  1  0
 28 23  2  0
 29 30  1  0
 30 35  2  0
 30 31  1  0
 31 32  2  0
 32 33  1  0
 33 37  1  0
 34 33  2  0
 35 34  1  0
 36 35  1  0
 38 39  1  0
 39 42  1  0
 39 41  1  0
 40 38  2  0
 43 44  1  0
 43 18  1  0
 45 43  1  0
 48 47  1  0
 48 49  1  0
 48 46  1  0
 50 52  1  0
 50 49  1  0
 51 62  2  0
 52 57  1  0
 53 61  1  0
 53 63  1  0
 54 60  1  0
 54 56  1  0
 55 61  1  0
 56 57  2  0
 56 55  1  0
 58 59  1  0
 58 52  2  0
 59 54  2  0
 60 53  1  0
 61 51  1  0
 63 65  2  0
 64 63  1  0
 66 64  1  0
 67 76  2  0
 67 72  1  0
 68 64  1  0
 68 72  1  0
 69 68  1  0
 70 71  1  0
 70 69  1  0
 71 67  1  0
 72 73  2  0
 73 74  1  0
 75 74  2  0
 76 75  1  0
 77 51  1  0
 77 78  1  0
 77 87  1  0
 78 81  1  0
 79 83  1  0
 79 78  1  0
 80 79  2  0
 83 82  1  0
 85 83  1  0
 85 86  1  0
 85 84  1  0
 87 90  1  1
 87 88  1  0
 89 87  1  0
M  ISO  4   8 100  16 100  49 101  50 101
M  END
>  <TORSDO>  (54) 
F 24

>  <SCORE>  (54) 
-11.726

>  <name>  (54) 
53

>  <ligand_id>  (54) 
53

>  <original_smiles>  (54) 
[H]c1c([H])c([H])c2c(c1[H])C([H])([H])C([H])([H])C([H])([H])C2([H])N([H])C(=O)C1([H])N(C(=O)C([H])(N([H])C(=O)C([H])(N([H])C([H])([H])[H])C([H])([H])[H])C(C([H])([H])[H])(C([H])([H])[H])C([H])([H])[H])C([H])([H])c2c([H])c(OC([H])([H])C([H])(C([H])([H])[H])C([H])([H])C(=O)C([H])([H])C([H])([H])C([H])([H])C([H])([H])C([H])([H])N([H])C(=O)N3C([H])([H])C([H])([H])C([H])([H])C([H])(n4nc(-c5c([H])c([H])c(Oc6c([H])c([H])c(F)c([H])c6F)c([H])c5[H])c(C(=O)N([H])[H])c4N([H])[H])C3([H])[H])c([H])c([H])c2C1([H])[H]

>  <smiles>  (54) 
[H]c1c([H])c([H])c2c(c1[H])C([H])([H])C([H])([H])C([H])([H])C2([H])N([H])C(=O)C1([H])N(C(=O)C([H])(N([H])C(=O)C([H])(N([H])C([H])([H])[H])C([H])([H])[H])C(C([H])([H])[H])(C([H])([H])[H])C([H])([H])[H])C([H])([H])c2c([H])c(OC([H])([H])C([H])(C([H])([H])[H])C([H])([H])C(=O)C([H])([H])C([H])([H])C([H])([H])C([H])([H])C([H])([H])N([H])C(=O)N3C([H])([H])C([H])([H])C([H])([H])C([H])(n4nc(-c5c([H])c([H])c(Oc6c([H])c([H])c(F)c([H])c6F)c([H])c5[H])c(C(=O)N([H])[H])c4N([H])[H])C3([H])[H])c([H])c([H])c2C1([H])[H]

$$$$
54:0:0
     RDKit          3D

 95102  0  0  1  0  0  0  0  0999 V2000
  -22.5300  -23.2750   18.9680 C   0  0  0  0  0  2  0  0  0  0  0  0
  -23.4810  -23.5800   20.1400 C   0  0  0  0  0  2  0  0  0  0  0  0
  -24.9630  -23.4060   19.7960 C   0  0  0  0  0  2  0  0  0  0  0  0
  -25.9030  -23.8380   20.9230 C   0  0  0  0  0  2  0  0  0  0  0  0
  -27.3480  -23.3800   20.6580 C   0  0  0  0  0  2  0  0  0  0  0  0
  -28.3980  -24.2640   21.3610 C   0  0  0  0  0  2  0  0  0  0  0  0
  -29.3190  -25.0460   20.3960 C   0  0  0  0  0  2  0  0  0  0  0  0
  -29.2220  -26.4500   20.6330 O   0  0  0  0  0  0  0  0  0  0  0  0
  -24.7470  -31.2840   23.3020 C   0  0  0  0  0  0  0  0  0  0  0  0
  -27.9850  -27.0540   20.5070 C   0  0  0  0  0  0  0  0  0  0  0  0
  -23.8080  -29.8040   21.5610 C   0  0  0  0  0  3  0  0  0  0  0  0
  -25.4920  -28.3750   20.2950 C   0  0  0  0  0  0  0  0  0  0  0  0
  -26.3100  -30.3360   21.6120 C   0  0  0  0  0  2  0  0  0  0  0  0
  -26.5480  -28.9750   20.9930 C   0  0  0  0  0  0  0  0  0  0  0  0
  -27.7910  -28.3170   21.1070 C   0  0  0  0  0  3  0  0  0  0  0  0
  -26.9080  -26.4710   19.7950 C   0  0  0  0  0  3  0  0  0  0  0  0
  -25.6650  -27.1150   19.7010 C   0  0  0  0  0  3  0  0  0  0  0  0
  -24.1950  -29.1440   20.2100 C   0  0  0  0  0  2  0  0  0  0  0  0
  -24.9670  -30.4910   22.2170 N   0  0  0  0  0  0  0  0  0  0  0  0
  -23.6010  -31.4780   23.7320 O   0  0  0  0  0  0  0  0  0  0  0  0
  -23.1390  -28.7360   22.4570 C   0  0  0  0  0  0  0  0  0  0  0  0
  -21.9070  -28.3420   22.0960 N   0  0  0  0  0  0  0  0  0  0  0  0
  -23.7320  -28.2670   23.4320 O   0  0  0  0  0  0  0  0  0  0  0  0
  -21.4850  -28.7830   21.2910 H   0  0  0  0  0  0  0  0  0  0  0  0
  -18.7380  -26.6090   22.0210 C   0  0  0  0  0  0  0  0  0  0  0  0
  -21.1010  -27.3290   22.7790 C   0  0  0  0  0  3  0  0  0  0  0  0
  -21.5480  -25.9020   22.3830 C   0  0  0  0  0  2  0  0  0  0  0  0
  -20.7640  -25.3500   21.1900 C   0  0  0  0  0  2  0  0  0  0  0  0
  -19.2740  -25.2710   21.5360 C   0  0  0  0  0  2  0  0  0  0  0  0
  -19.6020  -27.5830   22.5880 C   0  0  0  0  0  0  0  0  0  0  0  0
  -19.0650  -28.8290   22.9830 C   0  0  0  0  0  3  0  0  0  0  0  0
  -17.6930  -29.1040   22.8240 C   0  0  0  0  0  3  0  0  0  0  0  0
  -16.8400  -28.1270   22.2850 C   0  0  0  0  0  3  0  0  0  0  0  0
  -17.3610  -26.8820   21.8900 C   0  0  0  0  0  3  0  0  0  0  0  0
  -25.9200  -31.9980   24.0410 C   0  0  0  0  0  3  0  0  0  0  0  0
  -25.5080  -33.3870   24.2780 N   0  0  0  0  0  0  0  0  0  0  0  0
  -25.8470  -34.4230   23.4960 C   0  0  0  0  0  0  0  0  0  0  0  0
  -26.6120  -34.3140   22.5340 O   0  0  0  0  0  0  0  0  0  0  0  0
  -24.8390  -33.5410   25.0170 H   0  0  0  0  0  0  0  0  0  0  0  0
  -24.0400  -36.0770   22.9300 C   0  0  0  0  0  1  0  0  0  0  0  0
  -25.2460  -35.7990   23.8400 C   0  0  0  0  0  3  0  0  0  0  0  0
  -27.2580  -36.8690   24.7540 C   0  0  0  0  0  1  0  0  0  0  0  0
  -26.2160  -36.9090   23.7310 N   0  0  0  0  0  0  0  0  0  0  0  0
  -25.7450  -37.8080   23.7930 H   0  0  0  0  0  0  0  0  0  0  0  0
  -26.3260  -31.2980   25.3960 C   0  0  1  0  0  0  0  0  0  0  0  0
  -25.1210  -30.9610   26.3080 C   0  0  0  0  0  1  0  0  0  0  0  0
  -27.0910  -29.9820   25.1210 C   0  0  0  0  0  1  0  0  0  0  0  0
  -27.2880  -32.2140   26.1900 C   0  0  0  0  0  1  0  0  0  0  0  0
  -22.8600  -22.0140   18.1410 C   0  0  0  0  0  2  0  0  0  0  0  0
  -24.3250  -21.8570   17.6660 C   0  0  0  0  0  2  0  0  0  0  0  0
  -24.9620  -20.5400   18.1550 C   0  0  0  0  0  2  0  0  0  0  0  0
  -26.4960  -20.5700   18.2970 C   0  0  0  0  0  2  0  0  0  0  0  0
  -27.0440  -19.2390   18.8490 C   0  0  0  0  0  2  0  0  0  0  0  0
  -28.5220  -19.2830   19.2860 C   0  0  0  0  0  2  0  0  0  0  0  0
  -28.9180  -18.0260   20.0790 C   0  0  0  0  0  2  0  0  0  0  0  0
  -30.4060  -17.9440   20.4640 C   0  0  0  0  0  2  0  0  0  0  0  0
  -30.6610  -17.1600   21.7730 C   0  0  0  0  0  2  0  0  0  0  0  0
  -31.0450  -14.8120   21.0260 C   0  0  0  0  0  0  0  0  0  0  0  0
  -30.7360  -12.9410   19.4680 C   0  0  0  0  0  2  0  0  0  0  0  0
  -29.8710  -13.4480   18.2980 C   0  0  0  0  0  2  0  0  0  0  0  0
  -28.3740  -13.2880   18.6190 C   0  0  0  0  0  2  0  0  0  0  0  0
  -27.9980  -13.8500   20.0160 C   0  0  0  0  0  3  0  0  0  0  0  0
  -28.9850  -13.3670   21.1030 C   0  0  0  0  0  2  0  0  0  0  0  0
  -30.3500  -13.7050   20.6600 N   0  0  0  0  0  0  0  0  0  0  0  0
  -32.1990  -15.0470   20.6600 O   0  0  0  0  0  0  0  0  0  0  0  0
  -30.3110  -15.7460   21.6410 N   0  0  0  0  0  0  0  0  0  0  0  0
  -29.3700  -15.4810   21.8880 H   0  0  0  0  0  0  0  0  0  0  0  0
  -25.5290  -14.4170   20.4860 C   0  0  0  0  0  0  0  0  0  0  0  0
  -24.4490  -13.6250   20.7610 C   0  0  0  0  0  0  0  0  0  0  0  0
  -24.9410  -12.2840   20.7890 C   0  0  0  0  0  0  0  0  0  0  0  0
  -26.6100  -13.5590   20.3630 N   0  0  0  0  0  0  0  0  0  0  0  0
  -26.2550  -12.2720   20.6030 N   0  0  0  0  0  0  0  0  0  0  0  0
  -24.2330  -11.0080   20.9250 C   0  0  0  0  0  0  0  0  0  0  0  0
  -24.5990  -10.0610   21.9090 C   0  0  0  0  0  3  0  0  0  0  0  0
  -23.8920   -8.8480   22.0280 C   0  0  0  0  0  3  0  0  0  0  0  0
  -22.8030   -8.5720   21.1640 C   0  0  0  0  0  0  0  0  0  0  0  0
  -22.4610   -9.5100   20.1730 C   0  0  0  0  0  3  0  0  0  0  0  0
  -23.1690  -10.7150   20.0480 C   0  0  0  0  0  3  0  0  0  0  0  0
  -22.0720   -7.4090   21.1920 O   0  0  0  0  0  0  0  0  0  0  0  0
  -21.8180   -6.7480   22.3680 C   0  0  0  0  0  0  0  0  0  0  0  0
  -21.1810   -7.3840   23.4560 C   0  0  0  0  0  3  0  0  0  0  0  0
  -20.8740   -6.6480   24.6190 C   0  0  0  0  0  3  0  0  0  0  0  0
  -21.1970   -5.2800   24.6930 C   0  0  0  0  0  0  0  0  0  0  0  0
  -21.8270   -4.6450   23.6090 C   0  0  0  0  0  3  0  0  0  0  0  0
  -22.1330   -5.3770   22.4490 C   0  0  0  0  0  0  0  0  0  0  0  0
  -22.7210   -4.7560   21.3970 F   0  0  0  0  0  0  0  0  0  0  0  0
  -20.8990   -4.5700   25.8080 F   0  0  0  0  0  0  0  0  0  0  0  0
  -23.0210  -14.0720   20.8990 C   0  0  0  0  0  0  0  0  0  0  0  0
  -22.2400  -13.3770   21.7200 N   0  0  0  0  0  0  0  0  0  0  0  0
  -22.6010  -15.0700   20.3160 O   0  0  0  0  0  0  0  0  0  0  0  0
  -22.5940  -12.5700   22.2140 H   0  0  0  0  0  0  0  0  0  0  0  0
  -21.2780  -13.6530   21.8540 H   0  0  0  0  0  0  0  0  0  0  0  0
  -25.6670  -15.7910   20.3120 N   0  0  0  0  0  0  0  0  0  0  0  0
  -24.8650  -16.4100   20.3260 H   0  0  0  0  0  0  0  0  0  0  0  0
  -26.5240  -16.2620   20.0600 H   0  0  0  0  0  0  0  0  0  0  0  0
  1  2  1  0
  3  2  1  0
  3  4  1  0
  5  4  1  0
  5  6  1  0
  7  8  1  0
  7  6  1  0
  9 20  2  0
 10  8  1  0
 10 15  1  0
 11 19  1  0
 11 21  1  0
 12 14  1  0
 13 19  1  0
 14 15  2  0
 14 13  1  0
 16 10  2  0
 17 16  1  0
 17 12  2  0
 18 12  1  0
 18 11  1  0
 19  9  1  0
 21 23  2  0
 22 21  1  0
 24 22  1  0
 25 30  1  0
 26 22  1  0
 27 26  1  0
 28 29  1  0
 28 27  1  0
 29 25  1  0
 30 26  1  0
 30 31  2  0
 32 31  1  0
 33 32  2  0
 34 25  2  0
 34 33  1  0
 35  9  1  0
 35 36  1  0
 35 45  1  0
 36 39  1  0
 37 41  1  0
 37 36  1  0
 38 37  2  0
 41 40  1  0
 43 44  1  0
 43 41  1  0
 43 42  1  0
 45 48  1  1
 45 46  1  0
 47 45  1  0
 49  1  1  0
 50 49  1  0
 50 51  1  0
 51 52  1  0
 52 53  1  0
 53 54  1  0
 54 55  1  0
 55 56  1  0
 56 57  1  0
 58 66  1  0
 59 64  1  0
 60 61  1  0
 60 59  1  0
 62 61  1  0
 62 71  1  0
 62 63  1  0
 64 58  1  0
 64 63  1  0
 65 58  2  0
 66 57  1  0
 66 67  1  0
 68 69  2  0
 69 70  1  0
 69 88  1  0
 70 73  1  0
 71 68  1  0
 71 72  1  0
 72 70  2  0
 73 74  1  0
 74 75  2  0
 76 79  1  0
 76 75  1  0
 77 76  2  0
 78 77  1  0
 78 73  2  0
 79 80  1  0
 80 85  2  0
 80 81  1  0
 81 82  2  0
 82 83  1  0
 83 87  1  0
 84 83  2  0
 85 84  1  0
 86 85  1  0
 88 89  1  0
 89 92  1  0
 89 91  1  0
 90 88  2  0
 93 94  1  0
 93 68  1  0
 95 93  1  0
M  ISO  4   7 101   8 101  58 100  66 100
M  END
>  <TORSDO>  (55) 
F 31

>  <SCORE>  (55) 
-8.426

>  <name>  (55) 
54

>  <ligand_id>  (55) 
54

>  <original_smiles>  (55) 
[H]c1c([H])c([H])c2c(c1[H])C([H])([H])C([H])([H])C([H])([H])C2([H])N([H])C(=O)C1([H])N(C(=O)C([H])(N([H])C(=O)C([H])(N([H])C([H])([H])[H])C([H])([H])[H])C(C([H])([H])[H])(C([H])([H])[H])C([H])([H])[H])C([H])([H])c2c([H])c(OC([H])([H])C([H])([H])C([H])([H])C([H])([H])C([H])([H])C([H])([H])C([H])([H])C([H])([H])C([H])([H])C([H])([H])C([H])([H])C([H])([H])C([H])([H])C([H])([H])C([H])([H])C([H])([H])N([H])C(=O)N3C([H])([H])C([H])([H])C([H])([H])C([H])(n4nc(-c5c([H])c([H])c(Oc6c([H])c([H])c(F)c([H])c6F)c([H])c5[H])c(C(=O)N([H])[H])c4N([H])[H])C3([H])[H])c([H])c([H])c2C1([H])[H]

>  <smiles>  (55) 
[H]c1c([H])c([H])c2c(c1[H])C([H])([H])C([H])([H])C([H])([H])C2([H])N([H])C(=O)C1([H])N(C(=O)C([H])(N([H])C(=O)C([H])(N([H])C([H])([H])[H])C([H])([H])[H])C(C([H])([H])[H])(C([H])([H])[H])C([H])([H])[H])C([H])([H])c2c([H])c(OC([H])([H])C([H])([H])C([H])([H])C([H])([H])C([H])([H])C([H])([H])C([H])([H])C([H])([H])C([H])([H])C([H])([H])C([H])([H])C([H])([H])C([H])([H])C([H])([H])C([H])([H])C([H])([H])N([H])C(=O)N3C([H])([H])C([H])([H])C([H])([H])C([H])(n4nc(-c5c([H])c([H])c(Oc6c([H])c([H])c(F)c([H])c6F)c([H])c5[H])c(C(=O)N([H])[H])c4N([H])[H])C3([H])[H])c([H])c([H])c2C1([H])[H]

$$$$
55:0:0
     RDKit          3D

 96103  0  0  1  0  0  0  0  0999 V2000
  -25.6540  -20.7570   24.6140 C   0  0  0  0  0  2  0  0  0  0  0  0
  -26.4530  -19.6250   25.2900 C   0  0  0  0  0  2  0  0  0  0  0  0
  -27.6240  -20.1440   26.0320 N   0  0  0  0  0  4  0  0  0  0  0  0
  -27.4460  -19.9850   27.0090 H   0  0  0  0  0  0  0  0  0  0  0  0
  -27.6820  -21.1420   25.9080 H   0  0  0  0  0  0  0  0  0  0  0  0
  -28.9320  -19.5250   25.7140 C   0  0  0  0  0  2  0  0  0  0  0  0
  -29.6700  -20.2190   24.5490 C   0  0  0  0  0  2  0  0  0  0  0  0
  -31.0040  -19.5530   24.1810 C   0  0  0  0  0  2  0  0  0  0  0  0
  -30.8810  -18.1870   23.4730 C   0  0  0  0  0  2  0  0  0  0  0  0
  -30.0150  -18.2190   22.2000 C   0  0  0  0  0  2  0  0  0  0  0  0
  -30.4990  -17.2610   21.1000 C   0  0  0  0  0  2  0  0  0  0  0  0
  -31.1390  -14.8890   20.9200 C   0  0  0  0  0  0  0  0  0  0  0  0
  -30.9670  -12.8080   19.6280 C   0  0  0  0  0  2  0  0  0  0  0  0
  -30.1240  -13.0920   18.3680 C   0  0  0  0  0  2  0  0  0  0  0  0
  -28.6180  -12.9360   18.6580 C   0  0  0  0  0  2  0  0  0  0  0  0
  -28.1750  -13.6750   19.9500 C   0  0  0  0  0  3  0  0  0  0  0  0
  -29.1390  -13.3730   21.1230 C   0  0  0  0  0  2  0  0  0  0  0  0
  -30.5060  -13.7120   20.6900 N   0  0  0  0  0  0  0  0  0  0  0  0
  -32.2780  -15.1410   20.5120 O   0  0  0  0  0  0  0  0  0  0  0  0
  -30.3600  -15.8460   21.4400 N   0  0  0  0  0  0  0  0  0  0  0  0
  -29.4560  -15.5380   21.7700 H   0  0  0  0  0  0  0  0  0  0  0  0
  -25.6850  -14.2080   20.3380 C   0  0  0  0  0  0  0  0  0  0  0  0
  -24.6150  -13.4070   20.6440 C   0  0  0  0  0  0  0  0  0  0  0  0
  -25.1360  -12.0820   20.7620 C   0  0  0  0  0  0  0  0  0  0  0  0
  -26.7870  -13.3680   20.2930 N   0  0  0  0  0  0  0  0  0  0  0  0
  -26.4550  -12.0880   20.6010 N   0  0  0  0  0  0  0  0  0  0  0  0
  -24.4470  -10.7990   20.9610 C   0  0  0  0  0  0  0  0  0  0  0  0
  -24.8170   -9.9200   22.0020 C   0  0  0  0  0  3  0  0  0  0  0  0
  -24.1350   -8.6990   22.1860 C   0  0  0  0  0  3  0  0  0  0  0  0
  -23.0680   -8.3480   21.3270 C   0  0  0  0  0  0  0  0  0  0  0  0
  -22.7170   -9.2140   20.2760 C   0  0  0  0  0  3  0  0  0  0  0  0
  -23.4020  -10.4280   20.0920 C   0  0  0  0  0  3  0  0  0  0  0  0
  -22.3550   -7.1760   21.4180 O   0  0  0  0  0  0  0  0  0  0  0  0
  -22.1340   -6.5590   22.6230 C   0  0  0  0  0  0  0  0  0  0  0  0
  -21.5070   -7.2270   23.6980 C   0  0  0  0  0  3  0  0  0  0  0  0
  -21.2350   -6.5350   24.8950 C   0  0  0  0  0  3  0  0  0  0  0  0
  -21.5810   -5.1750   25.0150 C   0  0  0  0  0  0  0  0  0  0  0  0
  -22.1970   -4.5050   23.9440 C   0  0  0  0  0  3  0  0  0  0  0  0
  -22.4710   -5.1950   22.7510 C   0  0  0  0  0  0  0  0  0  0  0  0
  -23.0480   -4.5400   21.7140 F   0  0  0  0  0  0  0  0  0  0  0  0
  -21.3110   -4.5070   26.1620 F   0  0  0  0  0  0  0  0  0  0  0  0
  -23.1770  -13.8290   20.7290 C   0  0  0  0  0  0  0  0  0  0  0  0
  -22.4000  -13.1770   21.5870 N   0  0  0  0  0  0  0  0  0  0  0  0
  -22.7450  -14.7710   20.0670 O   0  0  0  0  0  0  0  0  0  0  0  0
  -22.7550  -12.4110   22.1420 H   0  0  0  0  0  0  0  0  0  0  0  0
  -21.4310  -13.4440   21.6880 H   0  0  0  0  0  0  0  0  0  0  0  0
  -25.8090  -15.5690   20.0810 N   0  0  0  0  0  0  0  0  0  0  0  0
  -25.0100  -16.1920   20.0570 H   0  0  0  0  0  0  0  0  0  0  0  0
  -26.6740  -16.0230   19.8120 H   0  0  0  0  0  0  0  0  0  0  0  0
  -26.5200  -21.5610   23.6330 C   0  0  0  0  0  2  0  0  0  0  0  0
  -25.7850  -22.7220   22.9670 C   0  0  0  0  0  2  0  0  0  0  0  0
  -26.5670  -23.3480   21.8010 C   0  0  0  0  0  2  0  0  0  0  0  0
  -27.8930  -24.0250   22.1900 C   0  0  0  0  0  2  0  0  0  0  0  0
  -28.5670  -24.6950   20.9740 C   0  0  0  0  0  2  0  0  0  0  0  0
  -29.1190  -26.1030   21.2610 C   0  0  0  0  0  2  0  0  0  0  0  0
  -28.9670  -26.9460   20.1190 O   0  0  0  0  0  0  0  0  0  0  0  0
  -24.6320  -31.6990   23.1100 C   0  0  0  0  0  0  0  0  0  0  0  0
  -27.7420  -27.5610   20.0810 C   0  0  0  0  0  0  0  0  0  0  0  0
  -23.5920  -30.1760   21.4610 C   0  0  0  0  0  3  0  0  0  0  0  0
  -25.2100  -28.7890   20.0650 C   0  0  0  0  0  0  0  0  0  0  0  0
  -26.0690  -30.7880   21.2990 C   0  0  0  0  0  2  0  0  0  0  0  0
  -26.2960  -29.4370   20.6650 C   0  0  0  0  0  0  0  0  0  0  0  0
  -27.5670  -28.8210   20.6840 C   0  0  0  0  0  3  0  0  0  0  0  0
  -26.6490  -26.9310   19.4560 C   0  0  0  0  0  3  0  0  0  0  0  0
  -25.3800  -27.5380   19.4550 C   0  0  0  0  0  3  0  0  0  0  0  0
  -23.8840  -29.5100   20.0910 C   0  0  0  0  0  2  0  0  0  0  0  0
  -24.7800  -30.9040   22.0160 N   0  0  0  0  0  0  0  0  0  0  0  0
  -23.5210  -31.8640   23.6330 O   0  0  0  0  0  0  0  0  0  0  0  0
  -23.0350  -29.0970   22.4170 C   0  0  0  0  0  0  0  0  0  0  0  0
  -21.7420  -28.7700   22.2580 N   0  0  0  0  0  0  0  0  0  0  0  0
  -23.7630  -28.5580   23.2530 O   0  0  0  0  0  0  0  0  0  0  0  0
  -21.2040  -29.2720   21.5660 H   0  0  0  0  0  0  0  0  0  0  0  0
  -18.5010  -27.2460   22.6960 C   0  0  0  0  0  0  0  0  0  0  0  0
  -21.0150  -27.7540   23.0170 C   0  0  0  0  0  3  0  0  0  0  0  0
  -21.2760  -26.3400   22.4460 C   0  0  0  0  0  2  0  0  0  0  0  0
  -20.2300  -25.9110   21.4110 C   0  0  0  0  0  2  0  0  0  0  0  0
  -18.8250  -25.9230   22.0250 C   0  0  0  0  0  2  0  0  0  0  0  0
  -19.5290  -28.1150   23.1460 C   0  0  0  0  0  0  0  0  0  0  0  0
  -19.1730  -29.3530   23.7250 C   0  0  0  0  0  3  0  0  0  0  0  0
  -17.8250  -29.7260   23.8590 C   0  0  0  0  0  3  0  0  0  0  0  0
  -16.8090  -28.8510   23.4330 C   0  0  0  0  0  3  0  0  0  0  0  0
  -17.1490  -27.6140   22.8580 C   0  0  0  0  0  3  0  0  0  0  0  0
  -25.8460  -32.4560   23.7390 C   0  0  0  0  0  3  0  0  0  0  0  0
  -26.3930  -31.7690   25.0490 C   0  0  1  0  0  0  0  0  0  0  0  0
  -25.2890  -31.4520   26.0840 C   0  0  0  0  0  1  0  0  0  0  0  0
  -27.1260  -30.4480   24.7080 C   0  0  0  0  0  1  0  0  0  0  0  0
  -27.4320  -32.6920   25.7330 C   0  0  0  0  0  1  0  0  0  0  0  0
  -25.4130  -33.8300   24.0140 N   0  0  0  0  0  0  0  0  0  0  0  0
  -25.6740  -34.8800   23.2270 C   0  0  0  0  0  0  0  0  0  0  0  0
  -26.3740  -34.8020   22.2120 O   0  0  0  0  0  0  0  0  0  0  0  0
  -24.8020  -33.9620   24.8070 H   0  0  0  0  0  0  0  0  0  0  0  0
  -23.8090  -36.5030   22.7710 C   0  0  0  0  0  1  0  0  0  0  0  0
  -25.0600  -36.2340   23.6230 C   0  0  0  0  0  3  0  0  0  0  0  0
  -27.0880  -37.3310   24.4670 C   0  0  0  0  0  1  0  0  0  0  0  0
  -25.9990  -37.3710   23.4960 N   0  0  0  0  0  0  0  0  0  0  0  0
  -25.5090  -38.2540   23.6080 H   0  0  0  0  0  0  0  0  0  0  0  0
  1  2  1  0
  2  3  1  0
  3  4  1  0
  5  3  1  0
  6  3  1  0
  7  6  1  0
  8  7  1  0
  9  8  1  0
 10  9  1  0
 11 20  1  0
 11 10  1  0
 12 20  1  0
 13 18  1  0
 14 15  1  0
 14 13  1  0
 16 15  1  0
 16 25  1  0
 16 17  1  0
 18 12  1  0
 18 17  1  0
 19 12  2  0
 20 21  1  0
 22 23  2  0
 23 42  1  0
 23 24  1  0
 24 27  1  0
 25 22  1  0
 25 26  1  0
 26 24  2  0
 27 28  1  0
 28 29  2  0
 30 33  1  0
 30 29  1  0
 31 30  2  0
 32 31  1  0
 32 27  2  0
 33 34  1  0
 34 39  2  0
 34 35  1  0
 35 36  2  0
 36 37  1  0
 37 41  1  0
 38 37  2  0
 39 38  1  0
 40 39  1  0
 42 43  1  0
 43 46  1  0
 43 45  1  0
 44 42  2  0
 47 22  1  0
 48 47  1  0
 49 47  1  0
 50  1  1  0
 51 50  1  0
 52 53  1  0
 52 51  1  0
 54 55  1  0
 54 53  1  0
 56 55  1  0
 57 68  2  0
 58 56  1  0
 58 63  1  0
 59 67  1  0
 59 69  1  0
 60 66  1  0
 60 62  1  0
 61 67  1  0
 62 63  2  0
 62 61  1  0
 64 58  2  0
 65 64  1  0
 65 60  2  0
 66 59  1  0
 67 57  1  0
 69 71  2  0
 70 69  1  0
 72 70  1  0
 73 82  2  0
 73 78  1  0
 74 70  1  0
 74 78  1  0
 75 74  1  0
 76 77  1  0
 76 75  1  0
 77 73  1  0
 78 79  2  0
 79 80  1  0
 81 80  2  0
 82 81  1  0
 83 57  1  0
 83 88  1  0
 83 84  1  0
 84 87  1  1
 84 85  1  0
 86 84  1  0
 88 91  1  0
 89 93  1  0
 89 88  1  0
 90 89  2  0
 93 92  1  0
 95 96  1  0
 95 93  1  0
 95 94  1  0
M  ISO  4  12 100  20 100  55 101  56 101
M  END
>  <TORSDO>  (56) 
F 30

>  <SCORE>  (56) 
20.333

>  <name>  (56) 
55

>  <ligand_id>  (56) 
55

>  <original_smiles>  (56) 
[H]c1c([H])c([H])c2c(c1[H])C([H])([H])C([H])([H])C([H])([H])C2([H])N([H])C(=O)C1([H])N(C(=O)C([H])(N([H])C(=O)C([H])(N([H])C([H])([H])[H])C([H])([H])[H])C(C([H])([H])[H])(C([H])([H])[H])C([H])([H])[H])C([H])([H])c2c([H])c(OC([H])([H])C([H])([H])C([H])([H])C([H])([H])C([H])([H])C([H])([H])C([H])([H])C([H])([H])[N+]([H])([H])C([H])([H])C([H])([H])C([H])([H])C([H])([H])C([H])([H])C([H])([H])N([H])C(=O)N3C([H])([H])C([H])([H])C([H])([H])C([H])(n4nc(-c5c([H])c([H])c(Oc6c([H])c([H])c(F)c([H])c6F)c([H])c5[H])c(C(=O)N([H])[H])c4N([H])[H])C3([H])[H])c([H])c([H])c2C1([H])[H]

>  <smiles>  (56) 
[H]c1c([H])c([H])c2c(c1[H])C([H])([H])C([H])([H])C([H])([H])C2([H])N([H])C(=O)C1([H])N(C(=O)C([H])(N([H])C(=O)C([H])(N([H])C([H])([H])[H])C([H])([H])[H])C(C([H])([H])[H])(C([H])([H])[H])C([H])([H])[H])C([H])([H])c2c([H])c(OC([H])([H])C([H])([H])C([H])([H])C([H])([H])C([H])([H])C([H])([H])C([H])([H])C([H])([H])[N+]([H])([H])C([H])([H])C([H])([H])C([H])([H])C([H])([H])C([H])([H])C([H])([H])N([H])C(=O)N3C([H])([H])C([H])([H])C([H])([H])C([H])(n4nc(-c5c([H])c([H])c(Oc6c([H])c([H])c(F)c([H])c6F)c([H])c5[H])c(C(=O)N([H])[H])c4N([H])[H])C3([H])[H])c([H])c([H])c2C1([H])[H]

$$$$
56:0:0
     RDKit          3D

 98107  0  0  1  0  0  0  0  0999 V2000
  -27.6900  -21.9770   22.1410 C   0  0  0  0  0  3  0  0  0  0  0  0
  -26.6080  -22.8170   21.8180 C   0  0  0  0  0  3  0  0  0  0  0  0
  -28.7950  -22.6210   20.0700 C   0  0  0  0  0  3  0  0  0  0  0  0
  -28.7900  -21.8740   21.2660 C   0  0  0  0  0  0  0  0  0  0  0  0
  -27.7210  -23.4770   19.7400 C   0  0  0  0  0  0  0  0  0  0  0  0
  -26.6180  -23.5690   20.6270 C   0  0  0  0  0  0  0  0  0  0  0  0
  -25.5250  -24.3920   20.3560 N   0  0  0  0  0  0  0  0  0  0  0  0
  -24.6580  -24.2240   20.8570 H   0  0  0  0  0  0  0  0  0  0  0  0
  -25.3750  -24.7040   19.4030 H   0  0  0  0  0  0  0  0  0  0  0  0
  -29.9810  -20.9910   21.6090 C   0  0  0  0  0  2  0  0  0  0  0  0
  -29.6300  -19.5000   21.7830 C   0  0  0  0  0  2  0  0  0  0  0  0
  -32.1410  -15.0500   19.2170 C   0  0  0  0  0  0  0  0  0  0  0  0
  -31.7040  -12.7670   18.3890 C   0  0  0  0  0  2  0  0  0  0  0  0
  -30.6090  -12.7810   17.3050 C   0  0  0  0  0  2  0  0  0  0  0  0
  -29.2120  -12.6820   17.9460 C   0  0  0  0  0  2  0  0  0  0  0  0
  -29.0130  -13.6990   19.0990 C   0  0  0  0  0  3  0  0  0  0  0  0
  -30.2030  -13.6570   20.0790 C   0  0  0  0  0  2  0  0  0  0  0  0
  -31.4460  -13.8820   19.3170 N   0  0  0  0  0  0  0  0  0  0  0  0
  -33.0850  -15.1900   18.4280 O   0  0  0  0  0  0  0  0  0  0  0  0
  -30.5980  -18.3680   19.7020 C   0  0  0  0  0  2  0  0  0  0  0  0
  -30.7200  -17.1800   21.9100 C   0  0  0  0  0  2  0  0  0  0  0  0
  -31.6910  -17.4240   19.1810 C   0  0  0  0  0  2  0  0  0  0  0  0
  -31.8170  -16.2700   21.3200 C   0  0  0  0  0  2  0  0  0  0  0  0
  -30.7190  -18.5610   21.2250 C   0  0  0  0  0  3  0  0  0  0  0  0
  -31.6350  -16.1240   19.8660 N   0  0  0  0  0  0  0  0  0  0  0  0
  -26.8170  -14.4070   20.2480 C   0  0  0  0  0  0  0  0  0  0  0  0
  -25.7770  -13.6760   20.7610 C   0  0  0  0  0  0  0  0  0  0  0  0
  -26.1340  -12.3050   20.5820 C   0  0  0  0  0  0  0  0  0  0  0  0
  -27.7440  -13.4810   19.7920 N   0  0  0  0  0  0  0  0  0  0  0  0
  -27.3450  -12.2080   20.0470 N   0  0  0  0  0  0  0  0  0  0  0  0
  -25.3680  -11.0770   20.8350 C   0  0  0  0  0  0  0  0  0  0  0  0
  -25.7440  -10.1670   21.8470 C   0  0  0  0  0  3  0  0  0  0  0  0
  -24.9800   -9.0040   22.0830 C   0  0  0  0  0  3  0  0  0  0  0  0
  -23.8260   -8.7430   21.3060 C   0  0  0  0  0  0  0  0  0  0  0  0
  -23.4710   -9.6400   20.2820 C   0  0  0  0  0  3  0  0  0  0  0  0
  -24.2350  -10.7940   20.0460 C   0  0  0  0  0  3  0  0  0  0  0  0
  -23.0390   -7.6260   21.4470 O   0  0  0  0  0  0  0  0  0  0  0  0
  -22.5380   -7.2450   22.6660 C   0  0  0  0  0  0  0  0  0  0  0  0
  -21.8810   -8.1590   23.5180 C   0  0  0  0  0  3  0  0  0  0  0  0
  -21.3190   -7.7130   24.7310 C   0  0  0  0  0  3  0  0  0  0  0  0
  -21.4080   -6.3550   25.0910 C   0  0  0  0  0  0  0  0  0  0  0  0
  -22.0570   -5.4410   24.2420 C   0  0  0  0  0  3  0  0  0  0  0  0
  -22.6180   -5.8860   23.0310 C   0  0  0  0  0  0  0  0  0  0  0  0
  -23.2240   -4.9980   22.2050 F   0  0  0  0  0  0  0  0  0  0  0  0
  -20.8640   -5.9230   26.2530 F   0  0  0  0  0  0  0  0  0  0  0  0
  -24.4840  -14.2150   21.3030 C   0  0  0  0  0  0  0  0  0  0  0  0
  -23.8680  -13.5040   22.2400 N   0  0  0  0  0  0  0  0  0  0  0  0
  -24.0360  -15.2980   20.9280 O   0  0  0  0  0  0  0  0  0  0  0  0
  -24.2450  -12.6230   22.5600 H   0  0  0  0  0  0  0  0  0  0  0  0
  -23.0050  -13.8410   22.6420 H   0  0  0  0  0  0  0  0  0  0  0  0
  -27.0410  -15.7740   20.1120 N   0  0  0  0  0  0  0  0  0  0  0  0
  -26.3640  -16.4680   20.4060 H   0  0  0  0  0  0  0  0  0  0  0  0
  -27.8660  -16.1790   19.6890 H   0  0  0  0  0  0  0  0  0  0  0  0
  -27.7770  -24.2520   18.4250 C   0  0  0  0  0  2  0  0  0  0  0  0
  -29.0450  -25.1110   18.2400 C   0  0  0  0  0  2  0  0  0  0  0  0
  -30.1730  -24.4170   17.4430 C   0  0  0  0  0  2  0  0  0  0  0  0
  -31.2680  -25.3580   16.8930 C   0  0  0  0  0  2  0  0  0  0  0  0
  -30.7880  -26.1450   15.7990 O   0  0  0  0  0  0  0  0  0  0  0  0
  -25.8140  -28.2640   20.4140 C   0  0  0  0  0  0  0  0  0  0  0  0
  -29.5550  -26.7100   15.9940 C   0  0  0  0  0  0  0  0  0  0  0  0
  -25.1040  -28.1050   18.0470 C   0  0  0  0  0  3  0  0  0  0  0  0
  -26.9810  -27.8010   16.3460 C   0  0  0  0  0  0  0  0  0  0  0  0
  -27.5370  -28.6040   18.6510 C   0  0  0  0  0  2  0  0  0  0  0  0
  -27.9320  -27.9030   17.3700 C   0  0  0  0  0  0  0  0  0  0  0  0
  -29.2220  -27.3580   17.2010 C   0  0  0  0  0  3  0  0  0  0  0  0
  -28.6020  -26.6300   14.9590 C   0  0  0  0  0  3  0  0  0  0  0  0
  -27.3100  -27.1600   15.1360 C   0  0  0  0  0  3  0  0  0  0  0  0
  -25.6240  -28.4070   16.6150 C   0  0  0  0  0  2  0  0  0  0  0  0
  -26.1580  -28.2990   19.0960 N   0  0  0  0  0  0  0  0  0  0  0  0
  -24.6350  -28.1190   20.7630 O   0  0  0  0  0  0  0  0  0  0  0  0
  -24.4830  -26.6910   18.0590 C   0  0  0  0  0  0  0  0  0  0  0  0
  -23.3730  -26.5220   17.3220 N   0  0  0  0  0  0  0  0  0  0  0  0
  -25.0100  -25.7750   18.6950 O   0  0  0  0  0  0  0  0  0  0  0  0
  -22.9970  -27.3270   16.8420 H   0  0  0  0  0  0  0  0  0  0  0  0
  -20.6130  -24.9820   15.5720 C   0  0  0  0  0  0  0  0  0  0  0  0
  -22.6390  -25.2690   17.1510 C   0  0  0  0  0  3  0  0  0  0  0  0
  -23.3890  -24.3090   16.1990 C   0  0  0  0  0  2  0  0  0  0  0  0
  -22.9390  -24.4340   14.7380 C   0  0  0  0  0  2  0  0  0  0  0  0
  -21.4410  -24.1440   14.6110 C   0  0  0  0  0  2  0  0  0  0  0  0
  -21.1800  -25.5220   16.7570 C   0  0  0  0  0  0  0  0  0  0  0  0
  -20.3770  -26.3210   17.5990 C   0  0  0  0  0  3  0  0  0  0  0  0
  -19.0330  -26.5830   17.2750 C   0  0  0  0  0  3  0  0  0  0  0  0
  -18.4720  -26.0320   16.1100 C   0  0  0  0  0  3  0  0  0  0  0  0
  -19.2590  -25.2290   15.2660 C   0  0  0  0  0  3  0  0  0  0  0  0
  -26.8800  -28.4320   21.5420 C   0  0  0  0  0  3  0  0  0  0  0  0
  -26.4210  -29.5100   22.4270 N   0  0  0  0  0  0  0  0  0  0  0  0
  -26.9400  -30.7450   22.4530 C   0  0  0  0  0  0  0  0  0  0  0  0
  -27.9160  -31.0760   21.7740 O   0  0  0  0  0  0  0  0  0  0  0  0
  -25.5880  -29.3300   22.9690 H   0  0  0  0  0  0  0  0  0  0  0  0
  -25.3840  -32.7180   22.5470 C   0  0  0  0  0  1  0  0  0  0  0  0
  -26.2690  -31.7770   23.3780 C   0  0  0  0  0  3  0  0  0  0  0  0
  -27.9340  -31.7850   25.1830 C   0  0  0  0  0  1  0  0  0  0  0  0
  -27.2320  -32.5710   24.1710 N   0  0  0  0  0  0  0  0  0  0  0  0
  -26.7640  -33.3420   24.6370 H   0  0  0  0  0  0  0  0  0  0  0  0
  -27.1380  -27.1070   22.3590 C   0  0  1  0  0  0  0  0  0  0  0  0
  -25.8430  -26.3810   22.7920 C   0  0  0  0  0  1  0  0  0  0  0  0
  -27.9810  -26.1090   21.5310 C   0  0  0  0  0  1  0  0  0  0  0  0
  -27.9520  -27.4270   23.6340 C   0  0  0  0  0  1  0  0  0  0  0  0
  2  1  1  0
  3  4  1  0
  4 10  1  0
  4  1  2  0
  5  3  2  0
  5  6  1  0
  6  2  2  0
  7  6  1  0
  7  8  1  0
  9  7  1  0
 10 11  1  0
 12 18  1  0
 12 25  1  0
 13 18  1  0
 14 15  1  0
 14 13  1  0
 16 15  1  0
 16 29  1  0
 16 17  1  0
 18 17  1  0
 19 12  2  0
 20 24  1  0
 22 20  1  0
 22 25  1  0
 23 21  1  0
 24 11  1  0
 24 21  1  0
 25 23  1  0
 26 27  2  0
 27 46  1  0
 28 27  1  0
 28 31  1  0
 29 30  1  0
 29 26  1  0
 30 28  2  0
 31 32  1  0
 32 33  2  0
 34 37  1  0
 34 33  1  0
 35 34  2  0
 36 35  1  0
 36 31  2  0
 37 38  1  0
 38 43  2  0
 38 39  1  0
 39 40  2  0
 40 41  1  0
 41 45  1  0
 42 41  2  0
 43 42  1  0
 44 43  1  0
 46 47  1  0
 47 49  1  0
 47 50  1  0
 48 46  2  0
 51 26  1  0
 51 52  1  0
 53 51  1  0
 54  5  1  0
 55 54  1  0
 56 55  1  0
 57 56  1  0
 58 60  1  0
 58 57  1  0
 59 70  2  0
 60 65  1  0
 61 71  1  0
 61 69  1  0
 62 68  1  0
 62 64  1  0
 63 69  1  0
 64 63  1  0
 65 64  2  0
 66 67  1  0
 66 60  2  0
 67 62  2  0
 68 61  1  0
 69 59  1  0
 71 73  2  0
 72 71  1  0
 74 72  1  0
 75 80  1  0
 76 72  1  0
 77 76  1  0
 78 77  1  0
 79 78  1  0
 79 75  1  0
 80 76  1  0
 80 81  2  0
 82 81  1  0
 83 82  2  0
 84 75  2  0
 84 83  1  0
 85 59  1  0
 85 95  1  0
 85 86  1  0
 86 87  1  0
 86 89  1  0
 87 91  1  0
 88 87  2  0
 91 90  1  0
 91 93  1  0
 93 94  1  0
 93 92  1  0
 95 96  1  1
 95 98  1  0
 97 95  1  0
M  ISO  4  12 100  25 100  57 101  58 101
M  END
>  <TORSDO>  (57) 
F 23

>  <SCORE>  (57) 
-4.528

>  <name>  (57) 
56

>  <ligand_id>  (57) 
56

>  <original_smiles>  (57) 
[H]c1c([H])c([H])c2c(c1[H])C([H])([H])C([H])([H])C([H])([H])C2([H])N([H])C(=O)C1([H])N(C(=O)C([H])(N([H])C(=O)C([H])(N([H])C([H])([H])[H])C([H])([H])[H])C(C([H])([H])[H])(C([H])([H])[H])C([H])([H])[H])C([H])([H])c2c([H])c(OC([H])([H])C([H])([H])C([H])([H])C([H])([H])c3c([H])c(C([H])([H])C([H])([H])C4([H])C([H])([H])C([H])([H])N(C(=O)N5C([H])([H])C([H])([H])C([H])([H])C([H])(n6nc(-c7c([H])c([H])c(Oc8c([H])c([H])c(F)c([H])c8F)c([H])c7[H])c(C(=O)N([H])[H])c6N([H])[H])C5([H])[H])C([H])([H])C4([H])[H])c([H])c([H])c3N([H])[H])c([H])c([H])c2C1([H])[H]

>  <smiles>  (57) 
[H]c1c([H])c([H])c2c(c1[H])C([H])([H])C([H])([H])C([H])([H])C2([H])N([H])C(=O)C1([H])N(C(=O)C([H])(N([H])C(=O)C([H])(N([H])C([H])([H])[H])C([H])([H])[H])C(C([H])([H])[H])(C([H])([H])[H])C([H])([H])[H])C([H])([H])c2c([H])c(OC([H])([H])C([H])([H])C([H])([H])C([H])([H])c3c([H])c(C([H])([H])C([H])([H])C4([H])C([H])([H])C([H])([H])N(C(=O)N5C([H])([H])C([H])([H])C([H])([H])C([H])(n6nc(-c7c([H])c([H])c(Oc8c([H])c([H])c(F)c([H])c8F)c([H])c7[H])c(C(=O)N([H])[H])c6N([H])[H])C5([H])[H])C([H])([H])C4([H])[H])c([H])c([H])c3N([H])[H])c([H])c([H])c2C1([H])[H]

$$$$
57:0:0
     RDKit          3D

 97104  0  0  1  0  0  0  0  0999 V2000
  -26.9710  -23.1610   18.5360 N   0  0  0  0  0  4  0  0  0  0  0  0
  -26.9220  -23.9240   17.8820 H   0  0  0  0  0  0  0  0  0  0  0  0
  -27.8740  -22.7290   18.4300 H   0  0  0  0  0  0  0  0  0  0  0  0
  -26.8850  -23.6680   19.9320 C   0  0  0  0  0  3  0  0  0  0  0  0
  -24.5160  -23.3680   20.9510 C   0  0  0  0  0  1  0  0  0  0  0  0
  -25.5040  -24.3170   20.2520 C   0  0  0  0  0  2  0  0  0  0  0  0
  -29.3260  -23.6800   20.7280 C   0  0  0  0  0  1  0  0  0  0  0  0
  -28.1230  -24.5550   20.3230 C   0  0  0  0  0  3  0  0  0  0  0  0
  -28.5820  -25.6430   19.3010 C   0  0  0  0  0  2  0  0  0  0  0  0
  -28.5680  -26.9660   19.8470 O   0  0  0  0  0  0  0  0  0  0  0  0
  -24.7470  -31.9140   23.2430 C   0  0  0  0  0  0  0  0  0  0  0  0
  -27.3720  -27.6520   19.9030 C   0  0  0  0  0  0  0  0  0  0  0  0
  -23.5260  -30.5830   21.5570 C   0  0  0  0  0  3  0  0  0  0  0  0
  -24.9640  -29.1290   20.0430 C   0  0  0  0  0  0  0  0  0  0  0  0
  -26.0470  -30.9640   21.3420 C   0  0  0  0  0  2  0  0  0  0  0  0
  -26.1280  -29.6250   20.6440 C   0  0  0  0  0  0  0  0  0  0  0  0
  -27.3300  -28.8850   20.5880 C   0  0  0  0  0  3  0  0  0  0  0  0
  -26.1880  -27.1830   19.2900 C   0  0  0  0  0  3  0  0  0  0  0  0
  -24.9850  -27.8980   19.3740 C   0  0  0  0  0  3  0  0  0  0  0  0
  -23.7190  -29.9780   20.1430 C   0  0  0  0  0  2  0  0  0  0  0  0
  -24.7920  -31.1660   22.1040 N   0  0  0  0  0  0  0  0  0  0  0  0
  -23.6720  -32.1550   23.8090 O   0  0  0  0  0  0  0  0  0  0  0  0
  -22.8970  -29.5100   22.4740 C   0  0  0  0  0  0  0  0  0  0  0  0
  -21.5790  -29.2970   22.3260 N   0  0  0  0  0  0  0  0  0  0  0  0
  -23.5900  -28.8750   23.2740 O   0  0  0  0  0  0  0  0  0  0  0  0
  -21.0820  -29.8610   21.6510 H   0  0  0  0  0  0  0  0  0  0  0  0
  -18.2390  -27.9780   22.7180 C   0  0  0  0  0  0  0  0  0  0  0  0
  -20.7780  -28.3160   23.0580 C   0  0  0  0  0  3  0  0  0  0  0  0
  -20.9440  -26.9040   22.4530 C   0  0  0  0  0  2  0  0  0  0  0  0
  -19.8770  -26.5630   21.4080 C   0  0  0  0  0  2  0  0  0  0  0  0
  -18.4760  -26.6490   22.0220 C   0  0  0  0  0  2  0  0  0  0  0  0
  -19.3190  -28.7680   23.1900 C   0  0  0  0  0  0  0  0  0  0  0  0
  -19.0450  -30.0120   23.8030 C   0  0  0  0  0  3  0  0  0  0  0  0
  -17.7210  -30.4650   23.9480 C   0  0  0  0  0  3  0  0  0  0  0  0
  -16.6530  -29.6690   23.4930 C   0  0  0  0  0  3  0  0  0  0  0  0
  -16.9120  -28.4300   22.8820 C   0  0  0  0  0  3  0  0  0  0  0  0
  -26.0380  -32.5220   23.8720 C   0  0  0  0  0  3  0  0  0  0  0  0
  -26.5880  -31.6850   25.0930 C   0  0  1  0  0  0  0  0  0  0  0  0
  -25.5170  -31.3710   26.1650 C   0  0  0  0  0  1  0  0  0  0  0  0
  -27.1780  -30.3390   24.6110 C   0  0  0  0  0  1  0  0  0  0  0  0
  -27.7450  -32.4550   25.7730 C   0  0  0  0  0  1  0  0  0  0  0  0
  -25.7230  -33.8960   24.2800 N   0  0  0  0  0  0  0  0  0  0  0  0
  -26.0220  -34.9890   23.5640 C   0  0  0  0  0  0  0  0  0  0  0  0
  -26.6670  -34.9450   22.5130 O   0  0  0  0  0  0  0  0  0  0  0  0
  -25.1500  -34.0030   25.1030 H   0  0  0  0  0  0  0  0  0  0  0  0
  -24.2640  -36.7710   23.3440 C   0  0  0  0  0  1  0  0  0  0  0  0
  -25.5300  -36.3450   24.1020 C   0  0  0  0  0  3  0  0  0  0  0  0
  -27.6730  -37.2180   24.9230 C   0  0  0  0  0  1  0  0  0  0  0  0
  -26.5450  -37.4150   24.0150 N   0  0  0  0  0  0  0  0  0  0  0  0
  -26.1330  -38.3230   24.2160 H   0  0  0  0  0  0  0  0  0  0  0  0
  -25.9570  -22.1610   18.1330 C   0  0  0  0  0  2  0  0  0  0  0  0
  -26.3440  -21.4530   16.8190 C   0  0  0  0  0  2  0  0  0  0  0  0
  -26.8770  -20.0280   17.0410 C   0  0  0  0  0  2  0  0  0  0  0  0
  -28.2190  -19.9640   17.7900 C   0  0  0  0  0  2  0  0  0  0  0  0
  -28.2820  -18.7860   18.7660 C   0  0  0  0  0  2  0  0  0  0  0  0
  -29.6540  -18.6840   19.4380 C   0  0  0  0  0  2  0  0  0  0  0  0
  -29.7430  -17.5090   20.4160 C   0  0  0  0  0  2  0  0  0  0  0  0
  -31.1850  -17.3000   20.9040 C   0  0  0  0  0  2  0  0  0  0  0  0
  -31.3800  -16.0820   21.8290 C   0  0  0  0  0  2  0  0  0  0  0  0
  -31.1460  -14.1000   20.3210 C   0  0  0  0  0  0  0  0  0  0  0  0
  -30.6350  -12.1260   18.9370 C   0  0  0  0  0  2  0  0  0  0  0  0
  -29.6760  -12.4830   17.7840 C   0  0  0  0  0  2  0  0  0  0  0  0
  -28.2090  -12.4010   18.2440 C   0  0  0  0  0  2  0  0  0  0  0  0
  -27.9580  -13.1650   19.5690 C   0  0  0  0  0  3  0  0  0  0  0  0
  -29.0150  -12.7820   20.6290 C   0  0  0  0  0  2  0  0  0  0  0  0
  -30.3550  -13.0280   20.0630 N   0  0  0  0  0  0  0  0  0  0  0  0
  -32.1720  -14.3610   19.6870 O   0  0  0  0  0  0  0  0  0  0  0  0
  -30.7370  -14.8660   21.3390 N   0  0  0  0  0  0  0  0  0  0  0  0
  -29.9060  -14.5590   21.8200 H   0  0  0  0  0  0  0  0  0  0  0  0
  -25.5810  -13.8620   20.2790 C   0  0  0  0  0  0  0  0  0  0  0  0
  -24.4920  -13.1290   20.6690 C   0  0  0  0  0  0  0  0  0  0  0  0
  -24.9110  -11.7640   20.6580 C   0  0  0  0  0  0  0  0  0  0  0  0
  -26.5980  -12.9450   20.0590 N   0  0  0  0  0  0  0  0  0  0  0  0
  -26.1960  -11.6800   20.3400 N   0  0  0  0  0  0  0  0  0  0  0  0
  -24.1490  -10.5270   20.8760 C   0  0  0  0  0  0  0  0  0  0  0  0
  -24.5360   -9.5830   21.8520 C   0  0  0  0  0  3  0  0  0  0  0  0
  -23.7770   -8.4110   22.0560 C   0  0  0  0  0  3  0  0  0  0  0  0
  -22.6160   -8.1730   21.2810 C   0  0  0  0  0  0  0  0  0  0  0  0
  -22.2490   -9.1050   20.2940 C   0  0  0  0  0  3  0  0  0  0  0  0
  -23.0090  -10.2680   20.0890 C   0  0  0  0  0  3  0  0  0  0  0  0
  -21.8330   -7.0500   21.3890 O   0  0  0  0  0  0  0  0  0  0  0  0
  -21.7050   -6.3740   22.5760 C   0  0  0  0  0  0  0  0  0  0  0  0
  -21.2070   -7.0000   23.7410 C   0  0  0  0  0  3  0  0  0  0  0  0
  -21.0270   -6.2500   24.9200 C   0  0  0  0  0  3  0  0  0  0  0  0
  -21.3360   -4.8760   24.9360 C   0  0  0  0  0  0  0  0  0  0  0  0
  -21.8260   -4.2510   23.7760 C   0  0  0  0  0  3  0  0  0  0  0  0
  -22.0070   -4.9980   22.5990 C   0  0  0  0  0  0  0  0  0  0  0  0
  -22.4610   -4.3870   21.4780 F   0  0  0  0  0  0  0  0  0  0  0  0
  -21.1550   -4.1530   26.0660 F   0  0  0  0  0  0  0  0  0  0  0  0
  -23.1120  -13.6530   20.9450 C   0  0  0  0  0  0  0  0  0  0  0  0
  -22.3730  -12.9940   21.8320 N   0  0  0  0  0  0  0  0  0  0  0  0
  -22.6990  -14.6810   20.4100 O   0  0  0  0  0  0  0  0  0  0  0  0
  -22.7200  -12.1610   22.2840 H   0  0  0  0  0  0  0  0  0  0  0  0
  -21.4470  -13.3270   22.0600 H   0  0  0  0  0  0  0  0  0  0  0  0
  -25.7870  -15.2230   20.0780 N   0  0  0  0  0  0  0  0  0  0  0  0
  -25.0460  -15.9070   20.1840 H   0  0  0  0  0  0  0  0  0  0  0  0
  -26.6560  -15.6280   19.7510 H   0  0  0  0  0  0  0  0  0  0  0  0
  1  4  1  0
  2  1  1  0
  3  1  1  0
  4  6  1  0
  4  8  1  0
  6  5  1  0
  8  7  1  0
  9 10  1  0
  9  8  1  0
 10 12  1  0
 11 22  2  0
 12 17  1  0
 13 21  1  0
 13 23  1  0
 14 20  1  0
 14 16  1  0
 15 21  1  0
 16 15  1  0
 17 16  2  0
 18 19  1  0
 18 12  2  0
 19 14  2  0
 20 13  1  0
 21 11  1  0
 23 25  2  0
 24 23  1  0
 26 24  1  0
 27 36  2  0
 27 32  1  0
 28 24  1  0
 28 32  1  0
 29 28  1  0
 30 31  1  0
 30 29  1  0
 31 27  1  0
 32 33  2  0
 33 34  1  0
 35 34  2  0
 36 35  1  0
 37 11  1  0
 37 42  1  0
 37 38  1  0
 38 41  1  1
 38 39  1  0
 40 38  1  0
 42 45  1  0
 43 47  1  0
 43 42  1  0
 44 43  2  0
 47 46  1  0
 49 47  1  0
 49 50  1  0
 49 48  1  0
 51  1  1  0
 52 53  1  0
 52 51  1  0
 53 54  1  0
 54 55  1  0
 55 56  1  0
 56 57  1  0
 57 58  1  0
 58 59  1  0
 60 68  1  0
 61 66  1  0
 62 63  1  0
 62 61  1  0
 64 63  1  0
 64 73  1  0
 64 65  1  0
 66 60  1  0
 66 65  1  0
 67 60  2  0
 68 69  1  0
 68 59  1  0
 70 71  2  0
 71 90  1  0
 72 71  1  0
 72 75  1  0
 73 70  1  0
 73 74  1  0
 74 72  2  0
 75 76  1  0
 76 77  2  0
 78 81  1  0
 78 77  1  0
 79 78  2  0
 80 79  1  0
 80 75  2  0
 81 82  1  0
 82 87  2  0
 82 83  1  0
 83 84  2  0
 84 85  1  0
 85 89  1  0
 86 85  2  0
 87 86  1  0
 88 87  1  0
 90 91  1  0
 91 94  1  0
 91 93  1  0
 92 90  2  0
 95 96  1  0
 95 70  1  0
 97 95  1  0
M  ISO  4   9 101  10 101  60 100  68 100
M  END
>  <TORSDO>  (58) 
F 29

>  <SCORE>  (58) 
-10.086

>  <name>  (58) 
57

>  <ligand_id>  (58) 
57

>  <original_smiles>  (58) 
[H]c1c([H])c([H])c2c(c1[H])C([H])([H])C([H])([H])C([H])([H])C2([H])N([H])C(=O)C1([H])N(C(=O)C([H])(N([H])C(=O)C([H])(N([H])C([H])([H])[H])C([H])([H])[H])C(C([H])([H])[H])(C([H])([H])[H])C([H])([H])[H])C([H])([H])c2c([H])c(OC([H])([H])C([H])(C([H])([H])[H])C([H])(C([H])([H])C([H])([H])[H])[N+]([H])([H])C([H])([H])C([H])([H])C([H])([H])C([H])([H])C([H])([H])C([H])([H])C([H])([H])C([H])([H])C([H])([H])N([H])C(=O)N3C([H])([H])C([H])([H])C([H])([H])C([H])(n4nc(-c5c([H])c([H])c(Oc6c([H])c([H])c(F)c([H])c6F)c([H])c5[H])c(C(=O)N([H])[H])c4N([H])[H])C3([H])[H])c([H])c([H])c2C1([H])[H]

>  <smiles>  (58) 
[H]c1c([H])c([H])c2c(c1[H])C([H])([H])C([H])([H])C([H])([H])C2([H])N([H])C(=O)C1([H])N(C(=O)C([H])(N([H])C(=O)C([H])(N([H])C([H])([H])[H])C([H])([H])[H])C(C([H])([H])[H])(C([H])([H])[H])C([H])([H])[H])C([H])([H])c2c([H])c(OC([H])([H])C([H])(C([H])([H])[H])C([H])(C([H])([H])C([H])([H])[H])[N+]([H])([H])C([H])([H])C([H])([H])C([H])([H])C([H])([H])C([H])([H])C([H])([H])C([H])([H])C([H])([H])C([H])([H])N([H])C(=O)N3C([H])([H])C([H])([H])C([H])([H])C([H])(n4nc(-c5c([H])c([H])c(Oc6c([H])c([H])c(F)c([H])c6F)c([H])c5[H])c(C(=O)N([H])[H])c4N([H])[H])C3([H])[H])c([H])c([H])c2C1([H])[H]

$$$$
58:0:0
     RDKit          3D

 96105  0  0  1  0  0  0  0  0999 V2000
  -32.6420  -24.2500   18.6450 C   0  0  0  0  0  3  0  0  0  0  0  0
  -32.5080  -25.2640   19.6130 C   0  0  0  0  0  3  0  0  0  0  0  0
  -30.4090  -24.7630   17.8110 C   0  0  0  0  0  3  0  0  0  0  0  0
  -31.5920  -23.9950   17.7380 C   0  0  0  0  0  0  0  0  0  0  0  0
  -30.2720  -25.7860   18.7750 C   0  0  0  0  0  0  0  0  0  0  0  0
  -31.3330  -26.0380   19.6730 C   0  0  0  0  0  0  0  0  0  0  0  0
  -31.2400  -27.0340   20.5870 F   0  0  0  0  0  0  0  0  0  0  0  0
  -31.7430  -22.9380   16.6540 C   0  0  0  0  0  2  0  0  0  0  0  0
  -32.2120  -21.5610   17.1540 C   0  0  0  0  0  2  0  0  0  0  0  0
  -31.2390  -20.9150   18.1510 C   0  0  0  0  0  2  0  0  0  0  0  0
  -31.6210  -19.4670   18.4810 C   0  0  0  0  0  2  0  0  0  0  0  0
  -30.4320  -19.0610   20.7560 C   0  0  0  0  0  2  0  0  0  0  0  0
  -29.7220  -17.8550   21.4030 C   0  0  0  0  0  2  0  0  0  0  0  0
  -30.7170  -17.2180   19.2710 C   0  0  0  0  0  2  0  0  0  0  0  0
  -30.5230  -18.7270   19.2630 C   0  0  0  0  0  3  0  0  0  0  0  0
  -29.7250  -16.7410   20.3430 C   0  0  0  0  0  3  0  0  0  0  0  0
  -30.6600  -14.3960   20.3990 C   0  0  0  0  0  0  0  0  0  0  0  0
  -30.3280  -12.2790   19.2130 C   0  0  0  0  0  2  0  0  0  0  0  0
  -29.3810  -12.5780   18.0310 C   0  0  0  0  0  2  0  0  0  0  0  0
  -27.9080  -12.4500   18.4730 C   0  0  0  0  0  2  0  0  0  0  0  0
  -27.6040  -13.2440   19.7710 C   0  0  0  0  0  3  0  0  0  0  0  0
  -28.6630  -12.9350   20.8560 C   0  0  0  0  0  2  0  0  0  0  0  0
  -29.9950  -13.2200   20.2910 N   0  0  0  0  0  0  0  0  0  0  0  0
  -31.7750  -14.5850   19.9070 O   0  0  0  0  0  0  0  0  0  0  0  0
  -29.9030  -15.3910   20.8900 N   0  0  0  0  0  0  0  0  0  0  0  0
  -29.0910  -15.0450   21.3810 H   0  0  0  0  0  0  0  0  0  0  0  0
  -25.2140  -13.8840   20.4900 C   0  0  0  0  0  0  0  0  0  0  0  0
  -24.1400  -13.1230   20.8700 C   0  0  0  0  0  0  0  0  0  0  0  0
  -24.5860  -11.7670   20.8410 C   0  0  0  0  0  0  0  0  0  0  0  0
  -26.2490  -12.9890   20.2540 N   0  0  0  0  0  0  0  0  0  0  0  0
  -25.8720  -11.7130   20.5160 N   0  0  0  0  0  0  0  0  0  0  0  0
  -23.8500  -10.5130   21.0470 C   0  0  0  0  0  0  0  0  0  0  0  0
  -24.3010   -9.5330   21.9580 C   0  0  0  0  0  3  0  0  0  0  0  0
  -23.5680   -8.3410   22.1440 C   0  0  0  0  0  3  0  0  0  0  0  0
  -22.3700   -8.1240   21.4230 C   0  0  0  0  0  0  0  0  0  0  0  0
  -21.9400   -9.0940   20.5010 C   0  0  0  0  0  3  0  0  0  0  0  0
  -22.6730  -10.2760   20.3110 C   0  0  0  0  0  3  0  0  0  0  0  0
  -21.6030   -6.9890   21.5250 O   0  0  0  0  0  0  0  0  0  0  0  0
  -21.6000   -6.2230   22.6640 C   0  0  0  0  0  0  0  0  0  0  0  0
  -21.2590   -6.7620   23.9240 C   0  0  0  0  0  3  0  0  0  0  0  0
  -21.2010   -5.9240   25.0550 C   0  0  0  0  0  3  0  0  0  0  0  0
  -21.4720   -4.5490   24.9290 C   0  0  0  0  0  0  0  0  0  0  0  0
  -21.8040   -4.0090   23.6740 C   0  0  0  0  0  3  0  0  0  0  0  0
  -21.8670   -4.8440   22.5440 C   0  0  0  0  0  0  0  0  0  0  0  0
  -22.1690   -4.3150   21.3340 F   0  0  0  0  0  0  0  0  0  0  0  0
  -21.4070   -3.7410   26.0130 F   0  0  0  0  0  0  0  0  0  0  0  0
  -22.7510  -13.6180   21.1570 C   0  0  0  0  0  0  0  0  0  0  0  0
  -22.0200  -12.9360   22.0330 N   0  0  0  0  0  0  0  0  0  0  0  0
  -22.3200  -14.6460   20.6350 O   0  0  0  0  0  0  0  0  0  0  0  0
  -22.3750  -12.1040   22.4820 H   0  0  0  0  0  0  0  0  0  0  0  0
  -21.0910  -13.2610   22.2640 H   0  0  0  0  0  0  0  0  0  0  0  0
  -25.3890  -15.2510   20.3070 N   0  0  0  0  0  0  0  0  0  0  0  0
  -24.6230  -15.9060   20.4190 H   0  0  0  0  0  0  0  0  0  0  0  0
  -26.2430  -15.6900   19.9850 H   0  0  0  0  0  0  0  0  0  0  0  0
  -29.0170  -26.6440   18.7840 C   0  0  0  0  0  2  0  0  0  0  0  0
  -28.4410  -26.7660   20.0810 O   0  0  0  0  0  0  0  0  0  0  0  0
  -24.6420  -31.8860   23.2300 C   0  0  0  0  0  0  0  0  0  0  0  0
  -27.2660  -27.4720   20.1130 C   0  0  0  0  0  0  0  0  0  0  0  0
  -23.4170  -30.4790   21.6040 C   0  0  0  0  0  3  0  0  0  0  0  0
  -24.8580  -28.9390   20.1680 C   0  0  0  0  0  0  0  0  0  0  0  0
  -25.9370  -30.8460   21.3770 C   0  0  0  0  0  2  0  0  0  0  0  0
  -26.0170  -29.4720   20.7460 C   0  0  0  0  0  0  0  0  0  0  0  0
  -27.2220  -28.7380   20.7310 C   0  0  0  0  0  3  0  0  0  0  0  0
  -26.0910  -26.9350   19.5470 C   0  0  0  0  0  3  0  0  0  0  0  0
  -24.8860  -27.6640   19.5740 C   0  0  0  0  0  3  0  0  0  0  0  0
  -23.6130  -29.7930   20.2240 C   0  0  0  0  0  2  0  0  0  0  0  0
  -24.6830  -31.0860   22.1290 N   0  0  0  0  0  0  0  0  0  0  0  0
  -23.5680  -32.1600   23.7840 O   0  0  0  0  0  0  0  0  0  0  0  0
  -22.7780  -29.4610   22.5730 C   0  0  0  0  0  0  0  0  0  0  0  0
  -21.4530  -29.2780   22.4600 N   0  0  0  0  0  0  0  0  0  0  0  0
  -23.4700  -28.8390   23.3840 O   0  0  0  0  0  0  0  0  0  0  0  0
  -20.9560  -29.8330   21.7770 H   0  0  0  0  0  0  0  0  0  0  0  0
  -18.0860  -28.0730   22.9750 C   0  0  0  0  0  0  0  0  0  0  0  0
  -20.6430  -28.3430   23.2390 C   0  0  0  0  0  3  0  0  0  0  0  0
  -20.7500  -26.9080   22.6720 C   0  0  0  0  0  2  0  0  0  0  0  0
  -19.6460  -26.5740   21.6640 C   0  0  0  0  0  2  0  0  0  0  0  0
  -18.2660  -26.7190   22.3100 C   0  0  0  0  0  2  0  0  0  0  0  0
  -19.2030  -28.8430   23.3970 C   0  0  0  0  0  0  0  0  0  0  0  0
  -18.9810  -30.1110   23.9770 C   0  0  0  0  0  3  0  0  0  0  0  0
  -17.6760  -30.6090   24.1420 C   0  0  0  0  0  3  0  0  0  0  0  0
  -16.5730  -29.8370   23.7380 C   0  0  0  0  0  3  0  0  0  0  0  0
  -16.7790  -28.5710   23.1600 C   0  0  0  0  0  3  0  0  0  0  0  0
  -25.9370  -32.5170   23.8350 C   0  0  0  0  0  3  0  0  0  0  0  0
  -25.6310  -33.9130   24.1750 N   0  0  0  0  0  0  0  0  0  0  0  0
  -25.9540  -34.9670   23.4160 C   0  0  0  0  0  0  0  0  0  0  0  0
  -26.6110  -34.8700   22.3760 O   0  0  0  0  0  0  0  0  0  0  0  0
  -25.0470  -34.0630   24.9840 H   0  0  0  0  0  0  0  0  0  0  0  0
  -24.2160  -36.7560   23.0910 C   0  0  0  0  0  1  0  0  0  0  0  0
  -25.4680  -36.3530   23.8850 C   0  0  0  0  0  3  0  0  0  0  0  0
  -27.6150  -37.2350   24.6860 C   0  0  0  0  0  1  0  0  0  0  0  0
  -26.4970  -37.4090   23.7620 N   0  0  0  0  0  0  0  0  0  0  0  0
  -26.0910  -38.3270   23.9240 H   0  0  0  0  0  0  0  0  0  0  0  0
  -26.4790  -31.7380   25.0950 C   0  0  1  0  0  0  0  0  0  0  0  0
  -25.4060  -31.4910   26.1820 C   0  0  0  0  0  1  0  0  0  0  0  0
  -27.0560  -30.3650   24.6810 C   0  0  0  0  0  1  0  0  0  0  0  0
  -27.6400  -32.5310   25.7420 C   0  0  0  0  0  1  0  0  0  0  0  0
  1  2  1  0
  2  6  2  0
  3  5  2  0
  4  3  1  0
  4  1  2  0
  5 55  1  0
  5  6  1  0
  6  7  1  0
  8  9  1  0
  8  4  1  0
  9 10  1  0
 10 11  1  0
 12 13  1  0
 14 16  1  0
 15 11  1  0
 15 14  1  0
 15 12  1  0
 16 25  1  0
 16 13  1  0
 17 25  1  0
 18 23  1  0
 19 20  1  0
 19 18  1  0
 21 20  1  0
 21 30  1  0
 21 22  1  0
 23 17  1  0
 23 22  1  0
 24 17  2  0
 25 26  1  0
 27 28  2  0
 28 47  1  0
 29 28  1  0
 29 32  1  0
 30 27  1  0
 30 31  1  0
 31 29  2  0
 32 33  1  0
 33 34  2  0
 35 38  1  0
 35 34  1  0
 36 35  2  0
 37 36  1  0
 37 32  2  0
 38 39  1  0
 39 40  1  0
 40 41  2  0
 42 41  1  0
 42 46  1  0
 43 42  2  0
 44 39  2  0
 44 43  1  0
 45 44  1  0
 47 48  1  0
 48 51  1  0
 48 50  1  0
 49 47  2  0
 52 53  1  0
 52 27  1  0
 54 52  1  0
 55 56  1  0
 56 58  1  0
 57 68  2  0
 58 63  1  0
 59 67  1  0
 59 69  1  0
 60 66  1  0
 60 62  1  0
 61 67  1  0
 62 61  1  0
 63 62  2  0
 64 65  1  0
 64 58  2  0
 65 60  2  0
 66 59  1  0
 67 57  1  0
 69 71  2  0
 70 69  1  0
 72 70  1  0
 73 82  2  0
 73 78  1  0
 74 70  1  0
 74 78  1  0
 75 74  1  0
 76 77  1  0
 76 75  1  0
 77 73  1  0
 78 79  2  0
 79 80  1  0
 81 80  2  0
 82 81  1  0
 83 57  1  0
 83 84  1  0
 83 93  1  0
 84 87  1  0
 85 89  1  0
 85 84  1  0
 86 85  2  0
 89 88  1  0
 91 89  1  0
 91 92  1  0
 91 90  1  0
 93 96  1  1
 93 94  1  0
 95 93  1  0
M  ISO  4  17 100  25 100  55 101  56 101
M  END
>  <TORSDO>  (59) 
F 22

>  <SCORE>  (59) 
-12.968

>  <name>  (59) 
58

>  <ligand_id>  (59) 
58

>  <original_smiles>  (59) 
[H]c1c([H])c([H])c2c(c1[H])C([H])([H])C([H])([H])C([H])([H])C2([H])N([H])C(=O)C1([H])N(C(=O)C([H])(N([H])C(=O)C([H])(N([H])C([H])([H])[H])C([H])([H])[H])C(C([H])([H])[H])(C([H])([H])[H])C([H])([H])[H])C([H])([H])c2c([H])c(OC([H])([H])c3c([H])c(C([H])([H])C([H])([H])C([H])([H])C([H])([H])C4([H])C([H])([H])C([H])([H])C([H])(N([H])C(=O)N5C([H])([H])C([H])([H])C([H])([H])C([H])(n6nc(-c7c([H])c([H])c(Oc8c([H])c([H])c(F)c([H])c8F)c([H])c7[H])c(C(=O)N([H])[H])c6N([H])[H])C5([H])[H])C4([H])[H])c([H])c([H])c3F)c([H])c([H])c2C1([H])[H]

>  <smiles>  (59) 
[H]c1c([H])c([H])c2c(c1[H])C([H])([H])C([H])([H])C([H])([H])C2([H])N([H])C(=O)C1([H])N(C(=O)C([H])(N([H])C(=O)C([H])(N([H])C([H])([H])[H])C([H])([H])[H])C(C([H])([H])[H])(C([H])([H])[H])C([H])([H])[H])C([H])([H])c2c([H])c(OC([H])([H])c3c([H])c(C([H])([H])C([H])([H])C([H])([H])C([H])([H])C4([H])C([H])([H])C([H])([H])C([H])(N([H])C(=O)N5C([H])([H])C([H])([H])C([H])([H])C([H])(n6nc(-c7c([H])c([H])c(Oc8c([H])c([H])c(F)c([H])c8F)c([H])c7[H])c(C(=O)N([H])[H])c6N([H])[H])C5([H])[H])C4([H])[H])c([H])c([H])c3F)c([H])c([H])c2C1([H])[H]

$$$$
59:0:0
     RDKit          3D

 95104  0  0  1  0  0  0  0  0999 V2000
  -28.2490  -18.9690   20.0640 C   0  0  0  0  0  3  0  0  0  0  0  0
  -27.3640  -19.6160   19.1970 C   0  0  0  0  0  3  0  0  0  0  0  0
  -29.6710  -20.9600   20.0880 C   0  0  0  0  0  3  0  0  0  0  0  0
  -29.4190  -19.6180   20.4900 C   0  0  0  0  0  0  0  0  0  0  0  0
  -28.7860  -21.6250   19.1920 C   0  0  0  0  0  0  0  0  0  0  0  0
  -27.6270  -20.9330   18.7340 C   0  0  0  0  0  0  0  0  0  0  0  0
  -25.6570  -20.8600   17.3570 C   0  0  0  0  0  1  0  0  0  0  0  0
  -26.7750  -21.5850   17.8680 O   0  0  0  0  0  0  0  0  0  0  0  0
  -30.3700  -18.8130   21.3800 C   0  0  0  0  0  2  0  0  0  0  0  0
  -31.8610  -14.1750   19.3160 C   0  0  0  0  0  0  0  0  0  0  0  0
  -31.2390  -11.8660   18.6930 C   0  0  0  0  0  2  0  0  0  0  0  0
  -30.1480  -11.8040   17.6080 C   0  0  0  0  0  2  0  0  0  0  0  0
  -28.7660  -11.8170   18.2820 C   0  0  0  0  0  2  0  0  0  0  0  0
  -28.5970  -13.0010   19.2680 C   0  0  0  0  0  3  0  0  0  0  0  0
  -29.7880  -13.0480   20.2520 C   0  0  0  0  0  2  0  0  0  0  0  0
  -31.0460  -13.0920   19.4880 N   0  0  0  0  0  0  0  0  0  0  0  0
  -32.8440  -14.1220   18.5670 O   0  0  0  0  0  0  0  0  0  0  0  0
  -31.5490  -17.9350   19.1760 C   0  0  0  0  0  3  0  0  0  0  0  0
  -32.3160  -17.0860   21.4270 C   0  0  0  0  0  2  0  0  0  0  0  0
  -31.3970  -16.4540   18.7410 C   0  0  0  0  0  3  0  0  0  0  0  0
  -31.5630  -15.7530   21.1920 C   0  0  0  0  0  2  0  0  0  0  0  0
  -31.6570  -18.2690   20.6850 C   0  0  0  0  0  3  0  0  0  0  0  0
  -31.4340  -15.3810   19.7620 N   0  0  0  0  0  0  0  0  0  0  0  0
  -26.5240  -13.9450   20.4760 C   0  0  0  0  0  0  0  0  0  0  0  0
  -25.3990  -13.3340   20.9720 C   0  0  0  0  0  0  0  0  0  0  0  0
  -25.5750  -11.9330   20.7440 C   0  0  0  0  0  0  0  0  0  0  0  0
  -27.3140  -12.9270   19.9720 N   0  0  0  0  0  0  0  0  0  0  0  0
  -26.7610  -11.7040   20.1960 N   0  0  0  0  0  0  0  0  0  0  0  0
  -24.6580  -10.8000   20.9540 C   0  0  0  0  0  0  0  0  0  0  0  0
  -24.9930   -9.7250   21.8130 C   0  0  0  0  0  3  0  0  0  0  0  0
  -24.0940   -8.6600   22.0140 C   0  0  0  0  0  3  0  0  0  0  0  0
  -22.8410   -8.6590   21.3640 C   0  0  0  0  0  0  0  0  0  0  0  0
  -22.5200   -9.7160   20.4940 C   0  0  0  0  0  3  0  0  0  0  0  0
  -23.4190  -10.7750   20.2850 C   0  0  0  0  0  3  0  0  0  0  0  0
  -21.9060   -7.6600   21.4820 O   0  0  0  0  0  0  0  0  0  0  0  0
  -21.7520   -6.9590   22.6530 C   0  0  0  0  0  0  0  0  0  0  0  0
  -21.4000   -7.5960   23.8630 C   0  0  0  0  0  3  0  0  0  0  0  0
  -21.1790   -6.8300   25.0280 C   0  0  0  0  0  3  0  0  0  0  0  0
  -21.3030   -5.4290   24.9800 C   0  0  0  0  0  0  0  0  0  0  0  0
  -21.6430   -4.7910   23.7750 C   0  0  0  0  0  3  0  0  0  0  0  0
  -21.8680   -5.5540   22.6130 C   0  0  0  0  0  0  0  0  0  0  0  0
  -22.1760   -4.9310   21.4520 F   0  0  0  0  0  0  0  0  0  0  0  0
  -21.0750   -4.6940   26.0950 F   0  0  0  0  0  0  0  0  0  0  0  0
  -24.1900  -14.0070   21.5510 C   0  0  0  0  0  0  0  0  0  0  0  0
  -23.5440  -13.3620   22.5170 N   0  0  0  0  0  0  0  0  0  0  0  0
  -23.8360  -15.1260   21.1820 O   0  0  0  0  0  0  0  0  0  0  0  0
  -23.8390  -12.4420   22.8170 H   0  0  0  0  0  0  0  0  0  0  0  0
  -22.7360  -13.7820   22.9560 H   0  0  0  0  0  0  0  0  0  0  0  0
  -26.9270  -15.2740   20.3980 N   0  0  0  0  0  0  0  0  0  0  0  0
  -26.3560  -16.0440   20.7260 H   0  0  0  0  0  0  0  0  0  0  0  0
  -27.8300  -15.5800   20.0570 H   0  0  0  0  0  0  0  0  0  0  0  0
  -29.0050  -23.1140   18.8490 C   0  0  0  0  0  2  0  0  0  0  0  0
  -29.6340  -23.5330   17.4560 C   0  0  0  0  0  2  0  0  0  0  0  0
  -28.7550  -24.5610   16.6740 C   0  0  0  0  0  2  0  0  0  0  0  0
  -28.9710  -26.0190   16.6930 O   0  0  0  0  0  0  0  0  0  0  0  0
  -25.3550  -27.9690   22.5010 C   0  0  0  0  0  0  0  0  0  0  0  0
  -27.8530  -26.7080   17.1640 C   0  0  0  0  0  0  0  0  0  0  0  0
  -24.0510  -27.7370   20.4200 C   0  0  0  0  0  3  0  0  0  0  0  0
  -25.4100  -27.6530   18.2590 C   0  0  0  0  0  0  0  0  0  0  0  0
  -26.5180  -28.4490   20.3470 C   0  0  0  0  0  2  0  0  0  0  0  0
  -26.6060  -27.8160   18.9740 C   0  0  0  0  0  0  0  0  0  0  0  0
  -27.8350  -27.3580   18.4260 C   0  0  0  0  0  3  0  0  0  0  0  0
  -26.6410  -26.6570   16.4290 C   0  0  0  0  0  3  0  0  0  0  0  0
  -25.4260  -27.0760   16.9850 C   0  0  0  0  0  3  0  0  0  0  0  0
  -24.1360  -28.1220   18.9190 C   0  0  0  0  0  2  0  0  0  0  0  0
  -25.3290  -28.0390   21.1400 N   0  0  0  0  0  0  0  0  0  0  0  0
  -24.3380  -27.6940   23.1530 O   0  0  0  0  0  0  0  0  0  0  0  0
  -23.6080  -26.2630   20.5450 C   0  0  0  0  0  0  0  0  0  0  0  0
  -22.3250  -25.9940   20.2480 N   0  0  0  0  0  0  0  0  0  0  0  0
  -24.4140  -25.3890   20.8790 O   0  0  0  0  0  0  0  0  0  0  0  0
  -21.7280  -26.7690   20.0010 H   0  0  0  0  0  0  0  0  0  0  0  0
  -19.2480  -24.2160   19.5900 C   0  0  0  0  0  0  0  0  0  0  0  0
  -21.6980  -24.6740   20.2770 C   0  0  0  0  0  3  0  0  0  0  0  0
  -22.0890  -23.8400   19.0330 C   0  0  0  0  0  2  0  0  0  0  0  0
  -21.0960  -23.9750   17.8750 C   0  0  0  0  0  2  0  0  0  0  0  0
  -19.7000  -23.5230   18.3130 C   0  0  0  0  0  2  0  0  0  0  0  0
  -20.1850  -24.7690   20.5020 C   0  0  0  0  0  0  0  0  0  0  0  0
  -19.7070  -25.4380   21.6500 C   0  0  0  0  0  3  0  0  0  0  0  0
  -18.3250  -25.5490   21.8960 C   0  0  0  0  0  3  0  0  0  0  0  0
  -17.4050  -24.9890   20.9960 C   0  0  0  0  0  3  0  0  0  0  0  0
  -17.8650  -24.3240   19.8450 C   0  0  0  0  0  3  0  0  0  0  0  0
  -26.6630  -28.2550   23.3050 C   0  0  0  0  0  3  0  0  0  0  0  0
  -26.3170  -29.1930   24.3790 N   0  0  0  0  0  0  0  0  0  0  0  0
  -26.6430  -30.4930   24.3960 C   0  0  0  0  0  0  0  0  0  0  0  0
  -27.3440  -31.0170   23.5260 O   0  0  0  0  0  0  0  0  0  0  0  0
  -25.7070  -28.8360   25.1000 H   0  0  0  0  0  0  0  0  0  0  0  0
  -24.9320  -32.1990   25.0860 C   0  0  0  0  0  1  0  0  0  0  0  0
  -26.1140  -31.3430   25.5660 C   0  0  0  0  0  3  0  0  0  0  0  0
  -28.1740  -31.4720   26.9010 C   0  0  0  0  0  1  0  0  0  0  0  0
  -27.1440  -32.2150   26.1750 N   0  0  0  0  0  0  0  0  0  0  0  0
  -26.7210  -32.8750   26.8230 H   0  0  0  0  0  0  0  0  0  0  0  0
  -27.3270  -26.9510   23.8990 C   0  0  1  0  0  0  0  0  0  0  0  0
  -26.3490  -26.0790   24.7200 C   0  0  0  0  0  1  0  0  0  0  0  0
  -27.9110  -26.0690   22.7700 C   0  0  0  0  0  1  0  0  0  0  0  0
  -28.5070  -27.3380   24.8200 C   0  0  0  0  0  1  0  0  0  0  0  0
  1  4  1  0
  2  1  2  0
  3  4  2  0
  4  9  1  0
  5  3  1  0
  6  5  2  0
  6  2  1  0
  7  8  1  0
  8  6  1  0
 10 16  1  0
 10 23  1  0
 11 16  1  0
 12 13  1  0
 12 11  1  0
 14 13  1  0
 14 27  1  0
 14 15  1  0
 16 15  1  0
 17 10  2  0
 18 22  1  0
 20 18  2  0
 20 23  1  0
 21 19  1  0
 22  9  1  0
 22 19  1  0
 23 21  1  0
 24 25  2  0
 25 44  1  0
 26 29  1  0
 26 25  1  0
 27 28  1  0
 27 24  1  0
 28 26  2  0
 29 30  1  0
 30 31  2  0
 32 35  1  0
 32 31  1  0
 33 32  2  0
 34 33  1  0
 34 29  2  0
 35 36  1  0
 36 37  1  0
 37 38  2  0
 39 38  1  0
 39 43  1  0
 40 39  2  0
 41 36  2  0
 41 40  1  0
 42 41  1  0
 44 45  1  0
 45 47  1  0
 45 48  1  0
 46 44  2  0
 49 24  1  0
 49 50  1  0
 51 49  1  0
 52  5  1  0
 53 52  1  0
 54 55  1  0
 54 53  1  0
 55 57  1  0
 56 67  2  0
 57 62  1  0
 58 68  1  0
 58 66  1  0
 59 65  1  0
 59 61  1  0
 60 66  1  0
 61 60  1  0
 62 61  2  0
 63 64  1  0
 63 57  2  0
 64 59  2  0
 65 58  1  0
 66 56  1  0
 68 70  2  0
 69 68  1  0
 71 69  1  0
 72 81  2  0
 72 77  1  0
 73 69  1  0
 73 77  1  0
 74 73  1  0
 75 76  1  0
 75 74  1  0
 76 72  1  0
 77 78  2  0
 78 79  1  0
 80 79  2  0
 81 80  1  0
 82 56  1  0
 82 92  1  0
 82 83  1  0
 83 84  1  0
 83 86  1  0
 84 88  1  0
 85 84  2  0
 88 87  1  0
 88 90  1  0
 90 91  1  0
 90 89  1  0
 92 93  1  1
 92 95  1  0
 94 92  1  0
M  ISO  4  10 100  23 100  54 101  55 101
M  END
>  <TORSDO>  (60) 
F 21

>  <SCORE>  (60) 
-8.579

>  <name>  (60) 
59

>  <ligand_id>  (60) 
59

>  <original_smiles>  (60) 
[H]c1c([H])c([H])c2c(c1[H])C([H])([H])C([H])([H])C([H])([H])C2([H])N([H])C(=O)C1([H])N(C(=O)C([H])(N([H])C(=O)C([H])(N([H])C([H])([H])[H])C([H])([H])[H])C(C([H])([H])[H])(C([H])([H])[H])C([H])([H])[H])C([H])([H])c2c([H])c(OC([H])([H])C([H])([H])C([H])([H])c3c([H])c(C([H])([H])C4([H])C([H])([H])C([H])([H])N(C(=O)N5C([H])([H])C([H])([H])C([H])([H])C([H])(n6nc(-c7c([H])c([H])c(Oc8c([H])c([H])c(F)c([H])c8F)c([H])c7[H])c(C(=O)N([H])[H])c6N([H])[H])C5([H])[H])C([H])([H])C4([H])[H])c([H])c([H])c3OC([H])([H])[H])c([H])c([H])c2C1([H])[H]

>  <smiles>  (60) 
[H]c1c([H])c([H])c2c(c1[H])C([H])([H])C([H])([H])C([H])([H])C2([H])N([H])C(=O)C1([H])N(C(=O)C([H])(N([H])C(=O)C([H])(N([H])C([H])([H])[H])C([H])([H])[H])C(C([H])([H])[H])(C([H])([H])[H])C([H])([H])[H])C([H])([H])c2c([H])c(OC([H])([H])C([H])([H])C([H])([H])c3c([H])c(C([H])([H])C4([H])C([H])([H])C([H])([H])N(C(=O)N5C([H])([H])C([H])([H])C([H])([H])C([H])(n6nc(-c7c([H])c([H])c(Oc8c([H])c([H])c(F)c([H])c8F)c([H])c7[H])c(C(=O)N([H])[H])c6N([H])[H])C5([H])[H])C([H])([H])C4([H])[H])c([H])c([H])c3OC([H])([H])[H])c([H])c([H])c2C1([H])[H]

$$$$
60:0:0
     RDKit          3D

 97104  0  0  1  0  0  0  0  0999 V2000
  -33.5950  -24.9650   20.8330 C   0  0  0  0  0  2  0  0  0  0  0  0
  -34.6360  -24.1180   21.5640 C   0  0  0  0  0  0  0  0  0  0  0  0
  -34.6120  -22.7990   21.3680 N   0  0  0  0  0  0  0  0  0  0  0  0
  -35.4700  -24.6470   22.3010 O   0  0  0  0  0  0  0  0  0  0  0  0
  -33.8820  -22.3930   20.7940 H   0  0  0  0  0  0  0  0  0  0  0  0
  -35.5560  -21.8920   22.0080 C   0  0  0  0  0  2  0  0  0  0  0  0
  -35.2000  -20.4290   21.7510 C   0  0  0  0  0  2  0  0  0  0  0  0
  -33.7460  -20.1210   22.1320 C   0  0  0  0  0  2  0  0  0  0  0  0
  -33.5690  -18.6450   22.4410 C   0  0  0  0  0  2  0  0  0  0  0  0
  -32.0970  -18.2260   22.5150 C   0  0  0  0  0  2  0  0  0  0  0  0
  -32.0350  -16.7210   22.7760 C   0  0  0  0  0  2  0  0  0  0  0  0
  -30.6460  -16.1000   22.6190 C   0  0  0  0  0  2  0  0  0  0  0  0
  -30.7630  -14.5880   22.3690 C   0  0  0  0  0  2  0  0  0  0  0  0
  -30.8370  -14.1940   20.8720 C   0  0  0  0  0  0  0  0  0  0  0  0
  -30.4130  -12.3130   19.3320 C   0  0  0  0  0  2  0  0  0  0  0  0
  -29.4660  -12.5680   18.1500 C   0  0  0  0  0  2  0  0  0  0  0  0
  -27.9990  -12.3800   18.5820 C   0  0  0  0  0  2  0  0  0  0  0  0
  -27.6610  -13.1830   19.8650 C   0  0  0  0  0  3  0  0  0  0  0  0
  -28.6910  -12.8990   20.9710 C   0  0  0  0  0  2  0  0  0  0  0  0
  -30.0380  -13.1890   20.4520 N   0  0  0  0  0  0  0  0  0  0  0  0
  -31.7270  -14.6680   20.1570 O   0  0  0  0  0  0  0  0  0  0  0  0
  -25.2610  -13.8090   20.5650 C   0  0  0  0  0  0  0  0  0  0  0  0
  -24.1850  -13.0420   20.9120 C   0  0  0  0  0  0  0  0  0  0  0  0
  -24.6350  -11.6860   20.8700 C   0  0  0  0  0  0  0  0  0  0  0  0
  -26.3000  -12.9200   20.3280 N   0  0  0  0  0  0  0  0  0  0  0  0
  -25.9240  -11.6360   20.5630 N   0  0  0  0  0  0  0  0  0  0  0  0
  -23.8990  -10.4290   21.0420 C   0  0  0  0  0  0  0  0  0  0  0  0
  -24.3580   -9.4220   21.9160 C   0  0  0  0  0  3  0  0  0  0  0  0
  -23.6290   -8.2260   22.0740 C   0  0  0  0  0  3  0  0  0  0  0  0
  -22.4280   -8.0280   21.3540 C   0  0  0  0  0  0  0  0  0  0  0  0
  -21.9890   -9.0230   20.4630 C   0  0  0  0  0  3  0  0  0  0  0  0
  -22.7180  -10.2120   20.3040 C   0  0  0  0  0  3  0  0  0  0  0  0
  -21.6660   -6.8870   21.4250 O   0  0  0  0  0  0  0  0  0  0  0  0
  -21.6840   -6.0720   22.5280 C   0  0  0  0  0  0  0  0  0  0  0  0
  -21.4000   -6.5630   23.8210 C   0  0  0  0  0  3  0  0  0  0  0  0
  -21.3670   -5.6790   24.9170 C   0  0  0  0  0  3  0  0  0  0  0  0
  -21.6040   -4.3050   24.7230 C   0  0  0  0  0  0  0  0  0  0  0  0
  -21.8820   -3.8140   23.4350 C   0  0  0  0  0  3  0  0  0  0  0  0
  -21.9190   -4.6950   22.3400 C   0  0  0  0  0  0  0  0  0  0  0  0
  -22.1660   -4.2110   21.0990 F   0  0  0  0  0  0  0  0  0  0  0  0
  -21.5630   -3.4560   25.7760 F   0  0  0  0  0  0  0  0  0  0  0  0
  -22.7900  -13.5240   21.1820 C   0  0  0  0  0  0  0  0  0  0  0  0
  -22.0530  -12.8290   22.0400 N   0  0  0  0  0  0  0  0  0  0  0  0
  -22.3640  -14.5590   20.6670 O   0  0  0  0  0  0  0  0  0  0  0  0
  -22.4100  -11.9930   22.4850 H   0  0  0  0  0  0  0  0  0  0  0  0
  -21.1110  -13.1350   22.2490 H   0  0  0  0  0  0  0  0  0  0  0  0
  -25.4430  -15.1820   20.4030 N   0  0  0  0  0  0  0  0  0  0  0  0
  -24.6920  -15.8530   20.5240 H   0  0  0  0  0  0  0  0  0  0  0  0
  -26.3060  -15.6130   20.0930 H   0  0  0  0  0  0  0  0  0  0  0  0
  -33.0570  -26.1040   21.7270 C   0  0  0  0  0  2  0  0  0  0  0  0
  -32.0860  -27.0960   21.0490 C   0  0  0  0  0  3  0  0  0  0  0  0
  -32.7540  -27.9640   19.9560 C   0  0  0  0  0  2  0  0  0  0  0  0
  -33.7520  -28.8010   20.5120 O   0  0  0  0  0  0  0  0  0  0  0  0
  -33.3280  -29.4160   21.1040 H   0  0  0  0  0  0  0  0  0  0  0  0
  -30.8040  -26.4020   20.5350 C   0  0  0  0  0  2  0  0  0  0  0  0
  -29.5980  -27.3440   20.5860 C   0  0  0  0  0  2  0  0  0  0  0  0
  -28.4240  -26.7440   20.0460 O   0  0  0  0  0  0  0  0  0  0  0  0
  -24.6030  -31.8720   23.2130 C   0  0  0  0  0  0  0  0  0  0  0  0
  -27.2660  -27.4930   20.1020 C   0  0  0  0  0  0  0  0  0  0  0  0
  -23.3870  -30.4890   21.5500 C   0  0  0  0  0  3  0  0  0  0  0  0
  -24.8380  -28.9560   20.1170 C   0  0  0  0  0  0  0  0  0  0  0  0
  -25.9010  -30.8580   21.3530 C   0  0  0  0  0  2  0  0  0  0  0  0
  -25.9850  -29.4910   20.7130 C   0  0  0  0  0  0  0  0  0  0  0  0
  -27.1900  -28.7710   20.7110 C   0  0  0  0  0  3  0  0  0  0  0  0
  -26.0990  -26.9590   19.5140 C   0  0  0  0  0  3  0  0  0  0  0  0
  -24.8870  -27.6830   19.5150 C   0  0  0  0  0  3  0  0  0  0  0  0
  -23.5930  -29.8100   20.1660 C   0  0  0  0  0  2  0  0  0  0  0  0
  -24.6480  -31.0870   22.1000 N   0  0  0  0  0  0  0  0  0  0  0  0
  -23.5240  -32.1450   23.7590 O   0  0  0  0  0  0  0  0  0  0  0  0
  -22.7350  -29.4640   22.5040 C   0  0  0  0  0  0  0  0  0  0  0  0
  -21.4100  -29.2980   22.3770 N   0  0  0  0  0  0  0  0  0  0  0  0
  -23.4170  -28.8220   23.3070 O   0  0  0  0  0  0  0  0  0  0  0  0
  -20.9270  -29.8720   21.7000 H   0  0  0  0  0  0  0  0  0  0  0  0
  -18.0240  -28.1330   22.8480 C   0  0  0  0  0  0  0  0  0  0  0  0
  -20.5830  -28.3600   23.1340 C   0  0  0  0  0  3  0  0  0  0  0  0
  -20.6750  -26.9360   22.5420 C   0  0  0  0  0  2  0  0  0  0  0  0
  -19.5740  -26.6360   21.5180 C   0  0  0  0  0  2  0  0  0  0  0  0
  -18.1910  -26.7880   22.1590 C   0  0  0  0  0  2  0  0  0  0  0  0
  -19.1500  -28.8790   23.2900 C   0  0  0  0  0  0  0  0  0  0  0  0
  -18.9430  -30.1390   23.8900 C   0  0  0  0  0  3  0  0  0  0  0  0
  -17.6450  -30.6560   24.0530 C   0  0  0  0  0  3  0  0  0  0  0  0
  -16.5340  -29.9060   23.6310 C   0  0  0  0  0  3  0  0  0  0  0  0
  -16.7240  -28.6470   23.0330 C   0  0  0  0  0  3  0  0  0  0  0  0
  -25.8970  -32.4830   23.8400 C   0  0  0  0  0  3  0  0  0  0  0  0
  -26.4460  -31.6600   25.0690 C   0  0  1  0  0  0  0  0  0  0  0  0
  -25.3770  -31.3670   26.1460 C   0  0  0  0  0  1  0  0  0  0  0  0
  -27.0310  -30.3060   24.5990 C   0  0  0  0  0  1  0  0  0  0  0  0
  -27.6010  -32.4340   25.7480 C   0  0  0  0  0  1  0  0  0  0  0  0
  -25.5880  -33.8630   24.2330 N   0  0  0  0  0  0  0  0  0  0  0  0
  -25.9030  -34.9490   23.5120 C   0  0  0  0  0  0  0  0  0  0  0  0
  -26.5580  -34.8940   22.4680 O   0  0  0  0  0  0  0  0  0  0  0  0
  -25.0090  -33.9820   25.0500 H   0  0  0  0  0  0  0  0  0  0  0  0
  -24.1490  -36.7340   23.2640 C   0  0  0  0  0  1  0  0  0  0  0  0
  -25.4110  -36.3130   24.0330 C   0  0  0  0  0  3  0  0  0  0  0  0
  -27.5580  -37.1840   24.8470 C   0  0  0  0  0  1  0  0  0  0  0  0
  -26.4300  -37.3810   23.9400 N   0  0  0  0  0  0  0  0  0  0  0  0
  -26.0180  -38.2890   24.1420 H   0  0  0  0  0  0  0  0  0  0  0  0
  1  2  1  0
  1 50  1  0
  2  4  2  0
  3  2  1  0
  3  6  1  0
  5  3  1  0
  7  6  1  0
  7  8  1  0
  8  9  1  0
  9 10  1  0
 10 11  1  0
 12 11  1  0
 13 12  1  0
 14 13  1  0
 15 20  1  0
 16 17  1  0
 16 15  1  0
 18 17  1  0
 18 25  1  0
 18 19  1  0
 20 14  1  0
 20 19  1  0
 21 14  2  0
 22 23  2  0
 23 42  1  0
 24 23  1  0
 24 27  1  0
 25 26  1  0
 25 22  1  0
 26 24  2  0
 27 28  1  0
 28 29  2  0
 30 33  1  0
 30 29  1  0
 31 30  2  0
 32 31  1  0
 32 27  2  0
 33 34  1  0
 34 35  1  0
 35 36  2  0
 37 36  1  0
 37 41  1  0
 38 37  2  0
 39 34  2  0
 39 38  1  0
 40 39  1  0
 42 43  1  0
 43 46  1  0
 43 45  1  0
 44 42  2  0
 47 48  1  0
 47 22  1  0
 49 47  1  0
 51 52  1  0
 51 50  1  0
 52 53  1  0
 53 54  1  0
 55 56  1  0
 55 51  1  0
 57 59  1  0
 57 56  1  0
 58 69  2  0
 59 64  1  0
 60 68  1  0
 60 70  1  0
 61 67  1  0
 61 63  1  0
 62 68  1  0
 63 62  1  0
 64 63  2  0
 65 66  1  0
 65 59  2  0
 66 61  2  0
 67 60  1  0
 68 58  1  0
 70 72  2  0
 71 70  1  0
 73 71  1  0
 74 83  2  0
 74 79  1  0
 75 71  1  0
 75 79  1  0
 76 75  1  0
 77 78  1  0
 77 76  1  0
 78 74  1  0
 79 80  2  0
 80 81  1  0
 82 81  2  0
 83 82  1  0
 84 58  1  0
 84 89  1  0
 84 85  1  0
 85 88  1  1
 85 86  1  0
 87 85  1  0
 89 92  1  0
 90 94  1  0
 90 89  1  0
 91 90  2  0
 94 93  1  0
 96 94  1  0
 96 97  1  0
 96 95  1  0
M  ISO  4  13 100  14 100  56 101  57 101
M  END
>  <TORSDO>  (61) 
F 31

>  <SCORE>  (61) 
-2.309

>  <name>  (61) 
60

>  <ligand_id>  (61) 
60

>  <original_smiles>  (61) 
[H]OC([H])([H])C([H])(C([H])([H])C([H])([H])Oc1c([H])c([H])c2c(c1[H])C([H])([H])N(C(=O)C([H])(N([H])C(=O)C([H])(N([H])C([H])([H])[H])C([H])([H])[H])C(C([H])([H])[H])(C([H])([H])[H])C([H])([H])[H])C([H])(C(=O)N([H])C1([H])c3c([H])c([H])c([H])c([H])c3C([H])([H])C([H])([H])C1([H])[H])C2([H])[H])C([H])([H])C([H])([H])C(=O)N([H])C([H])([H])C([H])([H])C([H])([H])C([H])([H])C([H])([H])C([H])([H])C([H])([H])C([H])([H])C(=O)N1C([H])([H])C([H])([H])C([H])([H])C([H])(n2nc(-c3c([H])c([H])c(Oc4c([H])c([H])c(F)c([H])c4F)c([H])c3[H])c(C(=O)N([H])[H])c2N([H])[H])C1([H])[H]

>  <smiles>  (61) 
[H]OC([H])([H])C([H])(C([H])([H])C([H])([H])Oc1c([H])c([H])c2c(c1[H])C([H])([H])N(C(=O)C([H])(N([H])C(=O)C([H])(N([H])C([H])([H])[H])C([H])([H])[H])C(C([H])([H])[H])(C([H])([H])[H])C([H])([H])[H])C([H])(C(=O)N([H])C1([H])c3c([H])c([H])c([H])c([H])c3C([H])([H])C([H])([H])C1([H])[H])C2([H])[H])C([H])([H])C([H])([H])C(=O)N([H])C([H])([H])C([H])([H])C([H])([H])C([H])([H])C([H])([H])C([H])([H])C([H])([H])C([H])([H])C(=O)N1C([H])([H])C([H])([H])C([H])([H])C([H])(n2nc(-c3c([H])c([H])c(Oc4c([H])c([H])c(F)c([H])c4F)c([H])c3[H])c(C(=O)N([H])[H])c2N([H])[H])C1([H])[H]

$$$$
61:0:0
     RDKit          3D

 91 99  0  0  1  0  0  0  0  0999 V2000
  -28.1810  -22.5360   17.6090 C   0  0  0  0  0  3  0  0  0  0  0  0
  -28.4160  -21.5230   18.5540 C   0  0  0  0  0  3  0  0  0  0  0  0
  -28.7340  -23.8140   17.7920 C   0  0  0  0  0  3  0  0  0  0  0  0
  -29.7570  -23.0650   19.8790 C   0  0  0  0  0  3  0  0  0  0  0  0
  -29.2240  -21.7650   19.6910 C   0  0  0  0  0  0  0  0  0  0  0  0
  -29.5150  -24.0930   18.9330 C   0  0  0  0  0  0  0  0  0  0  0  0
  -29.5420  -20.6450   20.6940 C   0  0  0  0  0  2  0  0  0  0  0  0
  -29.4040  -19.2160   20.1100 C   0  0  0  0  0  2  0  0  0  0  0  0
  -29.8300  -18.0270   21.0070 C   0  0  0  0  0  2  0  0  0  0  0  0
  -29.7850  -16.7240   20.1770 C   0  0  0  0  0  2  0  0  0  0  0  0
  -30.6420  -14.4370   20.4930 C   0  0  0  0  0  0  0  0  0  0  0  0
  -30.3560  -12.2760   19.3610 C   0  0  0  0  0  2  0  0  0  0  0  0
  -29.4260  -12.5080   18.1500 C   0  0  0  0  0  2  0  0  0  0  0  0
  -27.9480  -12.3700   18.5640 C   0  0  0  0  0  2  0  0  0  0  0  0
  -27.6070  -13.1980   19.8340 C   0  0  0  0  0  3  0  0  0  0  0  0
  -28.6530  -12.9570   20.9510 C   0  0  0  0  0  2  0  0  0  0  0  0
  -29.9890  -13.2480   20.4020 N   0  0  0  0  0  0  0  0  0  0  0  0
  -31.7550  -14.6370   19.9990 O   0  0  0  0  0  0  0  0  0  0  0  0
  -29.8860  -15.4610   20.9240 N   0  0  0  0  0  0  0  0  0  0  0  0
  -29.0500  -15.1830   21.4170 H   0  0  0  0  0  0  0  0  0  0  0  0
  -25.2010  -13.8120   20.5190 C   0  0  0  0  0  0  0  0  0  0  0  0
  -24.1280  -13.0430   20.8840 C   0  0  0  0  0  0  0  0  0  0  0  0
  -24.5870  -11.6910   20.8640 C   0  0  0  0  0  0  0  0  0  0  0  0
  -26.2470  -12.9290   20.3000 N   0  0  0  0  0  0  0  0  0  0  0  0
  -25.8810  -11.6480   20.5640 N   0  0  0  0  0  0  0  0  0  0  0  0
  -23.8600  -10.4290   21.0600 C   0  0  0  0  0  0  0  0  0  0  0  0
  -24.3000   -9.4580   21.9860 C   0  0  0  0  0  3  0  0  0  0  0  0
  -23.5720   -8.2610   22.1670 C   0  0  0  0  0  3  0  0  0  0  0  0
  -22.3930   -8.0300   21.4200 C   0  0  0  0  0  0  0  0  0  0  0  0
  -21.9720   -8.9900   20.4840 C   0  0  0  0  0  3  0  0  0  0  0  0
  -22.7000  -10.1770   20.3020 C   0  0  0  0  0  3  0  0  0  0  0  0
  -21.6380   -6.8840   21.5120 O   0  0  0  0  0  0  0  0  0  0  0  0
  -21.6110   -6.1270   22.6540 C   0  0  0  0  0  0  0  0  0  0  0  0
  -21.2240   -6.6690   23.8990 C   0  0  0  0  0  3  0  0  0  0  0  0
  -21.1460   -5.8390   25.0350 C   0  0  0  0  0  3  0  0  0  0  0  0
  -21.4440   -4.4670   24.9280 C   0  0  0  0  0  0  0  0  0  0  0  0
  -21.8240   -3.9230   23.6880 C   0  0  0  0  0  3  0  0  0  0  0  0
  -21.9040   -4.7510   22.5530 C   0  0  0  0  0  0  0  0  0  0  0  0
  -22.2520   -4.2180   21.3570 F   0  0  0  0  0  0  0  0  0  0  0  0
  -21.3590   -3.6670   26.0170 F   0  0  0  0  0  0  0  0  0  0  0  0
  -22.7290  -13.5260   21.1460 C   0  0  0  0  0  0  0  0  0  0  0  0
  -21.9940  -12.8380   22.0120 N   0  0  0  0  0  0  0  0  0  0  0  0
  -22.2970  -14.5480   20.6150 O   0  0  0  0  0  0  0  0  0  0  0  0
  -22.3580  -12.0120   22.4640 H   0  0  0  0  0  0  0  0  0  0  0  0
  -21.0570  -13.1460   22.2300 H   0  0  0  0  0  0  0  0  0  0  0  0
  -25.3680  -15.1810   20.3360 N   0  0  0  0  0  0  0  0  0  0  0  0
  -24.5970  -15.8350   20.4410 H   0  0  0  0  0  0  0  0  0  0  0  0
  -26.2200  -15.6160   20.0040 H   0  0  0  0  0  0  0  0  0  0  0  0
  -30.1470  -25.4740   19.0820 C   0  0  0  0  0  2  0  0  0  0  0  0
  -29.1550  -26.6560   19.0190 C   0  0  0  0  0  2  0  0  0  0  0  0
  -28.3870  -26.7020   20.2110 O   0  0  0  0  0  0  0  0  0  0  0  0
  -24.5820  -31.8740   23.2250 C   0  0  0  0  0  0  0  0  0  0  0  0
  -27.2400  -27.4510   20.1550 C   0  0  0  0  0  0  0  0  0  0  0  0
  -23.3750  -30.4620   21.5860 C   0  0  0  0  0  3  0  0  0  0  0  0
  -24.8330  -28.9260   20.1580 C   0  0  0  0  0  0  0  0  0  0  0  0
  -25.8960  -30.8330   21.3830 C   0  0  0  0  0  2  0  0  0  0  0  0
  -25.9850  -29.4610   20.7510 C   0  0  0  0  0  0  0  0  0  0  0  0
  -27.1900  -28.7250   20.7570 C   0  0  0  0  0  3  0  0  0  0  0  0
  -26.0750  -26.9190   19.5630 C   0  0  0  0  0  3  0  0  0  0  0  0
  -24.8710  -27.6520   19.5650 C   0  0  0  0  0  3  0  0  0  0  0  0
  -23.5840  -29.7770   20.2080 C   0  0  0  0  0  2  0  0  0  0  0  0
  -24.6350  -31.0720   22.1230 N   0  0  0  0  0  0  0  0  0  0  0  0
  -23.5020  -32.1460   23.7660 O   0  0  0  0  0  0  0  0  0  0  0  0
  -22.7270  -29.4450   22.5500 C   0  0  0  0  0  0  0  0  0  0  0  0
  -21.4010  -29.2690   22.4310 N   0  0  0  0  0  0  0  0  0  0  0  0
  -23.4110  -28.8160   23.3620 O   0  0  0  0  0  0  0  0  0  0  0  0
  -20.9100  -29.8300   21.7490 H   0  0  0  0  0  0  0  0  0  0  0  0
  -18.0230  -28.0970   22.9470 C   0  0  0  0  0  0  0  0  0  0  0  0
  -20.5840  -28.3350   23.2050 C   0  0  0  0  0  3  0  0  0  0  0  0
  -20.6720  -26.9050   22.6240 C   0  0  0  0  0  2  0  0  0  0  0  0
  -19.5610  -26.5930   21.6160 C   0  0  0  0  0  2  0  0  0  0  0  0
  -18.1850  -26.7470   22.2700 C   0  0  0  0  0  2  0  0  0  0  0  0
  -19.1500  -28.8500   23.3730 C   0  0  0  0  0  0  0  0  0  0  0  0
  -18.9450  -30.1140   23.9660 C   0  0  0  0  0  3  0  0  0  0  0  0
  -17.6450  -30.6250   24.1400 C   0  0  0  0  0  3  0  0  0  0  0  0
  -16.5320  -29.8700   23.7310 C   0  0  0  0  0  3  0  0  0  0  0  0
  -16.7220  -28.6070   23.1420 C   0  0  0  0  0  3  0  0  0  0  0  0
  -25.8690  -32.5050   23.8400 C   0  0  0  0  0  3  0  0  0  0  0  0
  -25.5590  -33.9010   24.1790 N   0  0  0  0  0  0  0  0  0  0  0  0
  -25.8860  -34.9560   23.4230 C   0  0  0  0  0  0  0  0  0  0  0  0
  -26.5540  -34.8600   22.3890 O   0  0  0  0  0  0  0  0  0  0  0  0
  -24.9670  -34.0490   24.9830 H   0  0  0  0  0  0  0  0  0  0  0  0
  -24.1520  -36.7440   23.0770 C   0  0  0  0  0  1  0  0  0  0  0  0
  -25.3940  -36.3410   23.8860 C   0  0  0  0  0  3  0  0  0  0  0  0
  -27.5290  -37.2250   24.7180 C   0  0  0  0  0  1  0  0  0  0  0  0
  -26.4240  -37.3970   23.7770 N   0  0  0  0  0  0  0  0  0  0  0  0
  -26.0170  -38.3160   23.9310 H   0  0  0  0  0  0  0  0  0  0  0  0
  -26.3990  -31.7280   25.1070 C   0  0  1  0  0  0  0  0  0  0  0  0
  -25.3170  -31.4810   26.1830 C   0  0  0  0  0  1  0  0  0  0  0  0
  -26.9820  -30.3550   24.6980 C   0  0  0  0  0  1  0  0  0  0  0  0
  -27.5550  -32.5200   25.7640 C   0  0  0  0  0  1  0  0  0  0  0  0
  1  3  2  0
  1  2  1  0
  2  5  2  0
  3  6  1  0
  5  4  1  0
  5  7  1  0
  6 49  1  0
  6  4  2  0
  8  7  1  0
  8  9  1  0
 10 19  1  0
 10  9  1  0
 11 19  1  0
 12 17  1  0
 13 14  1  0
 13 12  1  0
 15 14  1  0
 15 24  1  0
 15 16  1  0
 17 11  1  0
 17 16  1  0
 18 11  2  0
 19 20  1  0
 21 22  2  0
 22 41  1  0
 23 22  1  0
 23 26  1  0
 24 21  1  0
 24 25  1  0
 25 23  2  0
 26 27  1  0
 27 28  2  0
 29 32  1  0
 29 28  1  0
 30 29  2  0
 31 30  1  0
 31 26  2  0
 32 33  1  0
 33 34  1  0
 34 35  2  0
 36 35  1  0
 36 40  1  0
 37 36  2  0
 38 33  2  0
 38 37  1  0
 39 38  1  0
 41 42  1  0
 42 45  1  0
 42 44  1  0
 43 41  2  0
 46 47  1  0
 46 21  1  0
 48 46  1  0
 50 49  1  0
 50 51  1  0
 52 63  2  0
 53 51  1  0
 53 58  1  0
 54 62  1  0
 54 64  1  0
 55 61  1  0
 55 57  1  0
 56 62  1  0
 57 58  2  0
 57 56  1  0
 59 60  1  0
 59 53  2  0
 60 55  2  0
 61 54  1  0
 62 52  1  0
 64 66  2  0
 65 64  1  0
 67 65  1  0
 68 77  2  0
 68 73  1  0
 69 65  1  0
 69 73  1  0
 70 69  1  0
 71 72  1  0
 71 70  1  0
 72 68  1  0
 73 74  2  0
 74 75  1  0
 76 75  2  0
 77 76  1  0
 78 52  1  0
 78 79  1  0
 78 88  1  0
 79 82  1  0
 80 84  1  0
 80 79  1  0
 81 80  2  0
 84 83  1  0
 86 84  1  0
 86 87  1  0
 86 85  1  0
 88 91  1  1
 88 89  1  0
 90 88  1  0
M  ISO  4  11 100  19 100  50 101  51 101
M  END
>  <TORSDO>  (62) 
F 22

>  <SCORE>  (62) 
-12.991

>  <name>  (62) 
61

>  <ligand_id>  (62) 
61

>  <original_smiles>  (62) 
[H]c1c([H])c(C([H])([H])C([H])([H])Oc2c([H])c([H])c3c(c2[H])C([H])([H])N(C(=O)C([H])(N([H])C(=O)C([H])(N([H])C([H])([H])[H])C([H])([H])[H])C(C([H])([H])[H])(C([H])([H])[H])C([H])([H])[H])C([H])(C(=O)N([H])C2([H])c4c([H])c([H])c([H])c([H])c4C([H])([H])C([H])([H])C2([H])[H])C3([H])[H])c([H])c(C([H])([H])C([H])([H])C([H])([H])C([H])([H])N([H])C(=O)N2C([H])([H])C([H])([H])C([H])([H])C([H])(n3nc(-c4c([H])c([H])c(Oc5c([H])c([H])c(F)c([H])c5F)c([H])c4[H])c(C(=O)N([H])[H])c3N([H])[H])C2([H])[H])c1[H]

>  <smiles>  (62) 
[H]c1c([H])c(C([H])([H])C([H])([H])Oc2c([H])c([H])c3c(c2[H])C([H])([H])N(C(=O)C([H])(N([H])C(=O)C([H])(N([H])C([H])([H])[H])C([H])([H])[H])C(C([H])([H])[H])(C([H])([H])[H])C([H])([H])[H])C([H])(C(=O)N([H])C2([H])c4c([H])c([H])c([H])c([H])c4C([H])([H])C([H])([H])C2([H])[H])C3([H])[H])c([H])c(C([H])([H])C([H])([H])C([H])([H])C([H])([H])N([H])C(=O)N2C([H])([H])C([H])([H])C([H])([H])C([H])(n3nc(-c4c([H])c([H])c(Oc5c([H])c([H])c(F)c([H])c5F)c([H])c4[H])c(C(=O)N([H])[H])c3N([H])[H])C2([H])[H])c1[H]

$$$$
62:0:0
     RDKit          3D

 97 96  0  0  1  0  0  0  0  0999 V2000
  -20.1670  -26.1000   23.1980 C   0  0  0  0  0  2  0  0  0  0  0  0
  -21.2260  -24.8250   23.2000 C   0  0  0  0  0  2  0  0  0  0  0  0
  -20.2080  -25.7090   20.1250 C   0  0  0  0  0  2  0  0  0  0  0  0
  -19.6760  -26.7370   21.2490 C   0  0  0  0  0  3  0  0  0  0  0  0
  -21.8580  -24.2740   21.8310 C   0  0  0  0  0  3  0  0  0  0  0  0
  -21.1740  -24.5210   20.4660 C   0  0  0  0  0  3  0  0  0  0  0  0
  -20.8990  -23.3820   19.4780 C   0  0  0  0  0  1  0  0  0  0  0  0
  -17.6760  -29.4560   23.7350 C   0  0  0  0  0  2  0  0  0  0  0  0
  -19.0300  -28.2220   20.8710 C   0  0  0  0  0  1  0  0  0  0  0  0
  -20.6900  -27.8460   19.5360 C   0  0  0  0  0 15  0  0  0  0  0  0
  -22.1920  -26.3060   18.7110 C   0  0  0  0  0 15  0  0  0  0  0  0
  -23.3650  -24.3700   18.5820 C   0  0  0  0  0 15  0  0  0  0  0  0
  -25.0110  -22.8510   18.7370 C   0  0  0  0  0 15  0  0  0  0  0  0
  -25.9340  -20.8180   18.7850 C   0  0  0  0  0 15  0  0  0  0  0  0
  -27.5850  -19.3980   19.1980 C   0  0  0  0  0 15  0  0  0  0  0  0
  -29.4720  -16.3730   19.6370 C   0  0  0  0  0  0  0  0  0  0  0  0
  -30.3230  -13.7600   19.1830 C   0  0  0  0  0  2  0  0  0  0  0  0
  -29.5580  -12.8590   18.1480 C   0  0  0  0  0  2  0  0  0  0  0  0
  -28.1970  -12.4040   18.6980 C   0  0  0  0  0  2  0  0  0  0  0  0
  -27.5760  -13.5340   19.5380 C   0  0  0  0  0  3  0  0  0  0  0  0
  -28.5160  -14.0940   20.5950 C   0  0  0  0  0  2  0  0  0  0  0  0
  -29.4180  -14.8900   19.7750 N   0  0  0  0  0  0  0  0  0  0  0  0
  -30.7390  -16.4900   19.5930 O   0  0  0  0  0  0  0  0  0  0  0  0
  -28.2640  -17.5470   19.4360 N   0  0  0  0  0  2  0  0  0  0  0  0
  -27.4280  -16.9920   19.4060 H   0  0  0  0  0  0  0  0  0  0  0  0
  -25.3290  -14.1700   20.4240 C   0  0  0  0  0  0  0  0  0  0  0  0
  -24.2640  -13.4300   20.8290 C   0  0  0  0  0  0  0  0  0  0  0  0
  -24.6880  -12.0650   20.7720 C   0  0  0  0  0  0  0  0  0  0  0  0
  -26.3030  -13.2460   20.1120 N   0  0  0  0  0  0  0  0  0  0  0  0
  -25.9580  -11.9760   20.4060 N   0  0  0  0  0  0  0  0  0  0  0  0
  -23.9360  -10.8330   20.9720 C   0  0  0  0  0  0  0  0  0  0  0  0
  -24.3290   -9.8790   21.9360 C   0  0  0  0  0  3  0  0  0  0  0  0
  -23.5730   -8.7040   22.1180 C   0  0  0  0  0  3  0  0  0  0  0  0
  -22.4130   -8.4800   21.3370 C   0  0  0  0  0  0  0  0  0  0  0  0
  -22.0450   -9.4220   20.3620 C   0  0  0  0  0  3  0  0  0  0  0  0
  -22.8010  -10.5890   20.1770 C   0  0  0  0  0  3  0  0  0  0  0  0
  -21.6260   -7.3600   21.4330 O   0  0  0  0  0  0  0  0  0  0  0  0
  -21.4830   -6.6850   22.6180 C   0  0  0  0  0  0  0  0  0  0  0  0
  -21.0000   -7.3190   23.7850 C   0  0  0  0  0  3  0  0  0  0  0  0
  -20.8040   -6.5690   24.9610 C   0  0  0  0  0  3  0  0  0  0  0  0
  -21.0800   -5.1890   24.9710 C   0  0  0  0  0  0  0  0  0  0  0  0
  -21.5570   -4.5570   23.8100 C   0  0  0  0  0  3  0  0  0  0  0  0
  -21.7570   -5.3030   22.6360 C   0  0  0  0  0  0  0  0  0  0  0  0
  -22.1960   -4.6880   21.5120 F   0  0  0  0  0  0  0  0  0  0  0  0
  -20.8830   -4.4660   26.0980 F   0  0  0  0  0  0  0  0  0  0  0  0
  -22.9010  -13.9620   21.1370 C   0  0  0  0  0  0  0  0  0  0  0  0
  -22.1750  -13.2970   22.0260 N   0  0  0  0  0  0  0  0  0  0  0  0
  -22.4940  -15.0030   20.6230 O   0  0  0  0  0  0  0  0  0  0  0  0
  -22.5190  -12.4550   22.4620 H   0  0  0  0  0  0  0  0  0  0  0  0
  -21.2590  -13.6380   22.2830 H   0  0  0  0  0  0  0  0  0  0  0  0
  -25.5470  -15.5350   20.2590 N   0  0  0  0  0  0  0  0  0  0  0  0
  -24.8240  -16.2270   20.4180 H   0  0  0  0  0  0  0  0  0  0  0  0
  -26.4120  -15.9170   19.9250 H   0  0  0  0  0  0  0  0  0  0  0  0
  -23.5580  -24.2540   21.6650 C   0  0  0  0  0  2  0  0  0  0  0  0
  -24.6600  -25.6010   21.3920 C   0  0  0  0  0  3  0  0  0  0  0  0
  -26.3890  -25.5880   21.2800 C   0  0  0  0  0  3  0  0  0  0  0  0
  -27.5560  -26.6430   21.0390 O   0  0  0  0  0  0  0  0  0  0  0  0
  -24.2760  -32.0200   23.6040 C   0  0  0  0  0  0  0  0  0  0  0  0
  -27.1780  -27.8580   20.5200 C   0  0  0  0  0  0  0  0  0  0  0  0
  -23.3920  -30.8200   21.6310 C   0  0  0  0  0  3  0  0  0  0  0  0
  -25.0600  -29.6030   20.1270 C   0  0  0  0  0  0  0  0  0  0  0  0
  -25.8660  -31.2280   21.8330 C   0  0  0  0  0  2  0  0  0  0  0  0
  -26.0490  -29.9220   21.0700 C   0  0  0  0  0  0  0  0  0  0  0  0
  -27.1580  -29.0680   21.2520 C   0  0  0  0  0  3  0  0  0  0  0  0
  -26.4050  -27.6990   19.3750 C   0  0  0  0  0  3  0  0  0  0  0  0
  -25.2940  -28.5470   19.1950 C   0  0  0  0  0  3  0  0  0  0  0  0
  -23.7930  -30.4230   20.1700 C   0  0  0  0  0  2  0  0  0  0  0  0
  -24.5220  -31.4210   22.3990 N   0  0  0  0  0  0  0  0  0  0  0  0
  -23.1200  -32.1660   24.0500 O   0  0  0  0  0  0  0  0  0  0  0  0
  -22.8650  -29.6030   22.3910 C   0  0  0  0  0  0  0  0  0  0  0  0
  -21.5770  -29.5460   22.5710 N   0  0  0  0  0  0  0  0  0  0  0  0
  -23.5890  -28.7080   22.8410 O   0  0  0  0  0  0  0  0  0  0  0  0
  -20.9260  -30.2460   22.2730 H   0  0  0  0  0  0  0  0  0  0  0  0
  -17.8680  -28.4950   24.3000 C   0  0  0  0  0  1  0  0  0  0  0  0
  -20.9690  -28.4330   23.2080 C   0  0  0  0  0  3  0  0  0  0  0  0
  -20.6830  -27.2080   21.8660 C   0  0  0  0  0  3  0  0  0  0  0  0
  -17.6640  -26.0700   22.3330 C   0  0  0  0  0  1  0  0  0  0  0  0
  -16.9550  -27.1940   23.6050 C   0  0  0  0  0  1  0  0  0  0  0  0
  -19.7430  -28.9970   24.2250 C   0  0  0  0  0  2  0  0  0  0  0  0
  -20.0040  -30.6160   24.1720 C   0  0  0  0  0  2  0  0  0  0  0  0
  -18.8160  -31.6280   24.0810 C   0  0  0  0  0  3  0  0  0  0  0  0
  -17.3170  -31.1970   24.0980 C   0  0  0  0  0  3  0  0  0  0  0  0
  -16.8400  -29.7160   24.1640 C   0  0  0  0  0  2  0  0  0  0  0  0
  -25.4500  -32.5350   24.4890 C   0  0  0  0  0  3  0  0  0  0  0  0
  -25.7240  -31.6160   25.7410 C   0  0  1  0  0  0  0  0  0  0  0  0
  -24.4620  -31.3140   26.5750 C   0  0  0  0  0  1  0  0  0  0  0  0
  -26.3560  -30.2660   25.3270 C   0  0  0  0  0  1  0  0  0  0  0  0
  -26.7440  -32.2950   26.6700 C   0  0  0  0  0  1  0  0  0  0  0  0
  -25.1310  -33.9030   24.8830 N   0  0  0  0  0  0  0  0  0  0  0  0
  -25.6160  -34.9940   24.2720 C   0  0  0  0  0  0  0  0  0  0  0  0
  -26.4500  -34.9480   23.3590 O   0  0  0  0  0  0  0  0  0  0  0  0
  -24.4110  -33.9990   25.5870 H   0  0  0  0  0  0  0  0  0  0  0  0
  -24.0250  -36.8630   23.7690 C   0  0  0  0  0  1  0  0  0  0  0  0
  -25.0910  -36.3540   24.7510 C   0  0  0  0  0  3  0  0  0  0  0  0
  -27.0580  -37.0750   26.0160 C   0  0  0  0  0  1  0  0  0  0  0  0
  -26.1540  -37.3670   24.9090 N   0  0  0  0  0  0  0  0  0  0  0  0
  -25.7540  -38.2860   25.0710 H   0  0  0  0  0  0  0  0  0  0  0  0
  1  2  1  0
  3  6  1  0
  3  4  1  0
  4  9  1  0
  4 76  1  0
  5 54  1  0
  5  2  1  0
  6  7  1  0
  6  5  1  0
  8 83  1  0
  8 74  1  0
 16 22  1  0
 17 22  1  0
 18 19  1  0
 18 17  1  0
 20 19  1  0
 20 29  1  0
 20 21  1  0
 22 21  1  0
 23 16  2  0
 24 16  1  0
 25 24  1  0
 26 27  2  0
 27 46  1  0
 28 27  1  0
 28 31  1  0
 29 30  1  0
 29 26  1  0
 30 28  2  0
 31 32  1  0
 32 33  2  0
 34 37  1  0
 34 33  1  0
 35 34  2  0
 36 35  1  0
 36 31  2  0
 37 38  1  0
 38 43  2  0
 38 39  1  0
 39 40  2  0
 40 41  1  0
 41 45  1  0
 42 41  2  0
 43 42  1  0
 44 43  1  0
 46 47  1  0
 47 50  1  0
 47 49  1  0
 48 46  2  0
 51 52  1  0
 51 26  1  0
 53 51  1  0
 55 54  1  0
 56 55  2  0
 57 56  1  0
 58 69  2  0
 59 57  1  0
 59 64  1  0
 60 67  1  0
 60 70  1  0
 60 68  1  0
 61 67  1  0
 61 63  1  0
 62 68  1  0
 63 64  2  0
 63 62  1  0
 65 59  2  0
 66 65  1  0
 66 61  2  0
 68 58  1  0
 70 71  1  0
 70 72  2  0
 71 75  1  0
 73 71  1  0
 75 79  1  0
 76  1  1  0
 76 75  1  0
 77 78  1  0
 80 79  1  0
 81 82  2  0
 81 80  1  0
 82 83  1  0
 84 58  1  0
 84 89  1  0
 84 85  1  0
 85 86  1  1
 85 88  1  0
 87 85  1  0
 89 92  1  0
 90 94  1  0
 90 89  1  0
 91 90  2  0
 94 93  1  0
 94 96  1  0
 96 97  1  0
 96 95  1  0
M  ISO  4  16 100  24 100  56 101  57 101
M  END
>  <TORSDO>  (63) 
F 26

>  <SCORE>  (63) 
-4.996

>  <name>  (63) 
62

>  <ligand_id>  (63) 
62

>  <original_smiles>  (63) 
[H]c1c([H])c([H])c2c(c1[H])C([H])([H])C([H])([H])C([H])([H])C2([H])N([H])C(=O)C1([H])N(C(=O)C([H])(N([H])C(=O)C([H])(N([H])C([H])([H])[H])C([H])([H])[H])C(C([H])([H])[H])(C([H])([H])[H])C([H])([H])[H])C([H])([H])c2c([H])c(OC([H])([H])C([H])([H])C([H])([H])c3c([H])c([H])c(C([H])(C([H])([H])[H])C([H])([H])C([H])([H])C([H])([H])C([H])([H])C([H])([H])C([H])([H])N([H])C(=O)N4C([H])([H])C([H])([H])C([H])([H])C([H])(n5nc(-c6c([H])c([H])c(Oc7c([H])c([H])c(F)c([H])c7F)c([H])c6[H])c(C(=O)N([H])[H])c5N([H])[H])C4([H])[H])c([H])c3C([H])([H])[H])c([H])c([H])c2C1([H])[H]

>  <smiles>  (63) 
[H]c1c([H])c([H])c2c(c1[H])C([H])([H])C([H])([H])C([H])([H])C2([H])N([H])C(=O)C1([H])N(C(=O)C([H])(N([H])C(=O)C([H])(N([H])C([H])([H])[H])C([H])([H])[H])C(C([H])([H])[H])(C([H])([H])[H])C([H])([H])[H])C([H])([H])c2c([H])c(OC([H])([H])C([H])([H])C([H])([H])c3c([H])c([H])c(C([H])(C([H])([H])[H])C([H])([H])C([H])([H])C([H])([H])C([H])([H])C([H])([H])C([H])([H])N([H])C(=O)N4C([H])([H])C([H])([H])C([H])([H])C([H])(n5nc(-c6c([H])c([H])c(Oc7c([H])c([H])c(F)c([H])c7F)c([H])c6[H])c(C(=O)N([H])[H])c5N([H])[H])C4([H])[H])c([H])c3C([H])([H])[H])c([H])c([H])c2C1([H])[H]

$$$$
63:0:0
     RDKit          3D

 93100  0  0  1  0  0  0  0  0999 V2000
  -36.2080  -18.8850    8.4770 C   0  0  0  0  0  2  0  0  0  0  0  0
  -36.0100  -20.3570    8.0640 C   0  0  0  0  0  2  0  0  0  0  0  0
  -37.2200  -21.2440    8.4010 C   0  0  0  0  0  2  0  0  0  0  0  0
  -36.8870  -22.3250    9.4430 C   0  0  0  0  0  2  0  0  0  0  0  0
  -38.1420  -22.8490   10.1600 C   0  0  0  0  0  2  0  0  0  0  0  0
  -38.7080  -21.8630   11.2020 C   0  0  0  0  0  2  0  0  0  0  0  0
  -39.3670  -22.5640   12.2630 O   0  0  0  0  0  0  0  0  0  0  0  0
  -38.1110  -28.7190   15.5800 C   0  0  0  0  0  0  0  0  0  0  0  0
  -38.6160  -23.2010   13.2320 C   0  0  0  0  0  0  0  0  0  0  0  0
  -36.9930  -26.7390   16.5500 C   0  0  0  0  0  3  0  0  0  0  0  0
  -37.0790  -24.6180   15.1410 C   0  0  0  0  0  0  0  0  0  0  0  0
  -37.5800  -26.8160   14.0600 C   0  0  0  0  0  2  0  0  0  0  0  0
  -37.7240  -25.3090   14.1100 C   0  0  0  0  0  0  0  0  0  0  0  0
  -38.4870  -24.6070   13.1540 C   0  0  0  0  0  3  0  0  0  0  0  0
  -37.9670  -22.5190   14.2900 C   0  0  0  0  0  3  0  0  0  0  0  0
  -37.2010  -23.2210   15.2370 C   0  0  0  0  0  3  0  0  0  0  0  0
  -36.2620  -25.4430   16.1060 C   0  0  0  0  0  2  0  0  0  0  0  0
  -37.6070  -27.4650   15.3910 N   0  0  0  0  0  0  0  0  0  0  0  0
  -38.0360  -29.2840   16.6800 O   0  0  0  0  0  0  0  0  0  0  0  0
  -38.0080  -26.3870   17.6610 C   0  0  0  0  0  0  0  0  0  0  0  0
  -37.5970  -26.5530   18.9300 N   0  0  0  0  0  0  0  0  0  0  0  0
  -39.1290  -25.9520   17.3770 O   0  0  0  0  0  0  0  0  0  0  0  0
  -36.6680  -26.9210   19.0810 H   0  0  0  0  0  0  0  0  0  0  0  0
  -37.9330  -27.3120   22.4420 C   0  0  0  0  0  0  0  0  0  0  0  0
  -38.3770  -26.2520   20.1290 C   0  0  0  0  0  3  0  0  0  0  0  0
  -37.9240  -24.9190   20.7630 C   0  0  0  0  0  2  0  0  0  0  0  0
  -36.8570  -25.1000   21.8480 C   0  0  0  0  0  2  0  0  0  0  0  0
  -37.3790  -26.0000   22.9720 C   0  0  0  0  0  2  0  0  0  0  0  0
  -38.3890  -27.4350   21.1050 C   0  0  0  0  0  0  0  0  0  0  0  0
  -38.8620  -28.6860   20.6530 C   0  0  0  0  0  3  0  0  0  0  0  0
  -38.8880  -29.8000   21.5150 C   0  0  0  0  0  3  0  0  0  0  0  0
  -38.4480  -29.6690   22.8420 C   0  0  0  0  0  3  0  0  0  0  0  0
  -37.9740  -28.4300   23.3060 C   0  0  0  0  0  3  0  0  0  0  0  0
  -38.7830  -29.5080   14.4130 C   0  0  0  0  0  3  0  0  0  0  0  0
  -37.9540  -30.6930   14.1480 N   0  0  0  0  0  0  0  0  0  0  0  0
  -37.2030  -30.8660   13.0520 C   0  0  0  0  0  0  0  0  0  0  0  0
  -37.1940  -30.0650   12.1110 O   0  0  0  0  0  0  0  0  0  0  0  0
  -37.8710  -31.3660   14.8960 H   0  0  0  0  0  0  0  0  0  0  0  0
  -34.8750  -31.7640   13.3580 C   0  0  0  0  0  1  0  0  0  0  0  0
  -36.3210  -32.1260   12.9860 C   0  0  0  0  0  3  0  0  0  0  0  0
  -37.6540  -33.3300   11.3090 C   0  0  0  0  0  1  0  0  0  0  0  0
  -36.3440  -32.7900   11.6640 N   0  0  0  0  0  0  0  0  0  0  0  0
  -35.6690  -33.5500   11.6350 H   0  0  0  0  0  0  0  0  0  0  0  0
  -40.2760  -29.9220   14.7150 C   0  0  1  0  0  0  0  0  0  0  0  0
  -40.4100  -31.2870   15.4250 C   0  0  0  0  0  1  0  0  0  0  0  0
  -40.9690  -28.8620   15.6040 C   0  0  0  0  0  1  0  0  0  0  0  0
  -41.0810  -29.9830   13.3960 C   0  0  0  0  0  1  0  0  0  0  0  0
  -36.1080  -17.8600    7.3120 C   0  0  0  0  0  3  0  0  0  0  0  0
  -34.7330  -17.9030    6.7240 N   0  0  0  0  0  4  0  0  0  0  0  0
  -34.4700  -18.8740    6.6900 H   0  0  0  0  0  0  0  0  0  0  0  0
  -34.7470  -17.5660    5.7730 H   0  0  0  0  0  0  0  0  0  0  0  0
  -33.6430  -17.2300    7.4710 C   0  0  0  0  0  2  0  0  0  0  0  0
  -34.1550  -16.3460    8.6450 C   0  0  0  0  0  2  0  0  0  0  0  0
  -33.0640  -15.6550    9.5270 C   0  0  0  0  0  0  0  0  0  0  0  0
  -31.7790  -15.4590   11.6350 C   0  0  0  0  0  2  0  0  0  0  0  0
  -30.5650  -16.3960   11.5550 C   0  0  0  0  0  2  0  0  0  0  0  0
  -30.9420  -17.8100   12.0400 C   0  0  0  0  0  2  0  0  0  0  0  0
  -32.2070  -18.3520   11.3220 C   0  0  0  0  0  3  0  0  0  0  0  0
  -33.3420  -17.3000   11.4000 C   0  0  0  0  0  2  0  0  0  0  0  0
  -32.8440  -16.0530   10.8100 N   0  0  0  0  0  0  0  0  0  0  0  0
  -32.4350  -14.7080    9.0360 O   0  0  0  0  0  0  0  0  0  0  0  0
  -33.0180  -20.7990   11.2000 C   0  0  0  0  0  0  0  0  0  0  0  0
  -33.2600  -21.7330   12.1710 C   0  0  0  0  0  0  0  0  0  0  0  0
  -32.9760  -21.0880   13.4120 C   0  0  0  0  0  0  0  0  0  0  0  0
  -32.6210  -19.6460   11.8630 N   0  0  0  0  0  0  0  0  0  0  0  0
  -32.6470  -19.8200   13.2060 N   0  0  0  0  0  0  0  0  0  0  0  0
  -32.9450  -21.6180   14.7810 C   0  0  0  0  0  0  0  0  0  0  0  0
  -34.0600  -21.5170   15.6420 C   0  0  0  0  0  3  0  0  0  0  0  0
  -34.0070  -22.0530   16.9470 C   0  0  0  0  0  3  0  0  0  0  0  0
  -32.8300  -22.6980   17.4020 C   0  0  0  0  0  0  0  0  0  0  0  0
  -31.7160  -22.7780   16.5480 C   0  0  0  0  0  3  0  0  0  0  0  0
  -31.7710  -22.2380   15.2500 C   0  0  0  0  0  3  0  0  0  0  0  0
  -32.6810  -23.2240   18.6640 O   0  0  0  0  0  0  0  0  0  0  0  0
  -32.8100  -24.5660   18.9040 C   0  0  0  0  0  0  0  0  0  0  0  0
  -31.6850  -25.4190   19.0030 C   0  0  0  0  0  3  0  0  0  0  0  0
  -31.8600  -26.7780   19.3220 C   0  0  0  0  0  3  0  0  0  0  0  0
  -33.1510  -27.2900   19.5480 C   0  0  0  0  0  0  0  0  0  0  0  0
  -34.2710  -26.4450   19.4540 C   0  0  0  0  0  3  0  0  0  0  0  0
  -34.0990  -25.0860   19.1360 C   0  0  0  0  0  0  0  0  0  0  0  0
  -35.1800  -24.2710   19.0660 F   0  0  0  0  0  0  0  0  0  0  0  0
  -33.3170  -28.5950   19.8650 F   0  0  0  0  0  0  0  0  0  0  0  0
  -33.6470  -23.1710   11.9550 C   0  0  0  0  0  0  0  0  0  0  0  0
  -34.9030  -23.5170   12.2110 N   0  0  0  0  0  0  0  0  0  0  0  0
  -32.8420  -23.9930   11.5150 O   0  0  0  0  0  0  0  0  0  0  0  0
  -35.5690  -22.8490   12.5650 H   0  0  0  0  0  0  0  0  0  0  0  0
  -35.2060  -24.4690   12.0490 H   0  0  0  0  0  0  0  0  0  0  0  0
  -33.0600  -20.8500    9.8150 N   0  0  0  0  0  0  0  0  0  0  0  0
  -33.0520  -21.7890    9.4290 H   0  0  0  0  0  0  0  0  0  0  0  0
  -32.4680  -20.2120    9.2990 H   0  0  0  0  0  0  0  0  0  0  0  0
  -37.2470  -18.0580    6.2700 C   0  0  0  0  0  2  0  0  0  0  0  0
  -38.6620  -17.7080    6.7620 C   0  0  0  0  0  0  0  0  0  0  0  0
  -39.6140  -18.8570    7.0350 C   0  0  0  0  0  1  0  0  0  0  0  0
  -39.0560  -16.5440    6.8670 O   0  0  0  0  0  0  0  0  0  0  0  0
  2  3  1  0
  2  1  1  0
  3  4  1  0
  4  5  1  0
  5  6  1  0
  6  7  1  0
  7  9  1  0
  8 19  2  0
  9 15  1  0
 10 20  1  0
 11 16  1  0
 11 17  1  0
 12 13  1  0
 12 18  1  0
 13 11  2  0
 14  9  2  0
 14 13  1  0
 15 16  2  0
 17 10  1  0
 18  8  1  0
 18 10  1  0
 20 21  1  0
 21 23  1  0
 22 20  2  0
 24 28  1  0
 24 33  1  0
 25 21  1  0
 25 26  1  0
 25 29  1  0
 26 27  1  0
 27 28  1  0
 29 24  2  0
 30 29  1  0
 30 31  2  0
 31 32  1  0
 32 33  2  0
 34 44  1  0
 34  8  1  0
 35 34  1  0
 35 38  1  0
 36 35  1  0
 37 36  2  0
 40 36  1  0
 40 39  1  0
 41 42  1  0
 42 40  1  0
 43 42  1  0
 44 45  1  1
 44 46  1  0
 47 44  1  0
 48 90  1  0
 48  1  1  0
 49 48  1  0
 49 52  1  0
 50 49  1  0
 51 49  1  0
 52 53  1  0
 53 54  1  0
 54 60  1  0
 56 55  1  0
 56 57  1  0
 58 59  1  0
 58 65  1  0
 58 57  1  0
 60 59  1  0
 60 55  1  0
 61 54  2  0
 62 65  1  0
 62 63  2  0
 63 64  1  0
 64 67  1  0
 65 66  1  0
 66 64  2  0
 67 72  2  0
 67 68  1  0
 68 69  2  0
 69 70  1  0
 70 73  1  0
 71 70  2  0
 72 71  1  0
 73 74  1  0
 74 75  2  0
 74 79  1  0
 75 76  1  0
 76 77  2  0
 77 81  1  0
 78 77  1  0
 79 78  2  0
 80 79  1  0
 82 63  1  0
 82 83  1  0
 83 85  1  0
 84 82  2  0
 86 83  1  0
 87 62  1  0
 88 87  1  0
 89 87  1  0
 90 91  1  0
 91 93  2  0
 91 92  1  0
M  ISO  4   6 101   7 101  53 100  54 100
M  END
>  <TORSDO>  (64) 
F 27

>  <SCORE>  (64) 
-1.617

>  <name>  (64) 
63

>  <ligand_id>  (64) 
63

>  <original_smiles>  (64) 
[H]c1c([H])c([H])c2c(c1[H])C([H])([H])C([H])([H])C([H])([H])C2([H])N([H])C(=O)C1([H])N(C(=O)C([H])(N([H])C(=O)C([H])(N([H])C([H])([H])[H])C([H])([H])[H])C(C([H])([H])[H])(C([H])([H])[H])C([H])([H])[H])C([H])([H])c2c([H])c(OC([H])([H])C([H])([H])C([H])([H])C([H])([H])C([H])([H])C([H])([H])C([H])(C([H])([H])C(=O)C([H])([H])[H])[N+]([H])([H])C([H])([H])C([H])([H])C(=O)N3C([H])([H])C([H])([H])C([H])([H])C([H])(n4nc(-c5c([H])c([H])c(Oc6c([H])c([H])c(F)c([H])c6F)c([H])c5[H])c(C(=O)N([H])[H])c4N([H])[H])C3([H])[H])c([H])c([H])c2C1([H])[H]

>  <smiles>  (64) 
[H]c1c([H])c([H])c2c(c1[H])C([H])([H])C([H])([H])C([H])([H])C2([H])N([H])C(=O)C1([H])N(C(=O)C([H])(N([H])C(=O)C([H])(N([H])C([H])([H])[H])C([H])([H])[H])C(C([H])([H])[H])(C([H])([H])[H])C([H])([H])[H])C([H])([H])c2c([H])c(OC([H])([H])C([H])([H])C([H])([H])C([H])([H])C([H])([H])C([H])([H])C([H])(C([H])([H])C(=O)C([H])([H])[H])[N+]([H])([H])C([H])([H])C([H])([H])C(=O)N3C([H])([H])C([H])([H])C([H])([H])C([H])(n4nc(-c5c([H])c([H])c(Oc6c([H])c([H])c(F)c([H])c6F)c([H])c5[H])c(C(=O)N([H])[H])c4N([H])[H])C3([H])[H])c([H])c([H])c2C1([H])[H]

$$$$
64:0:0
     RDKit          3D

 94101  0  0  1  0  0  0  0  0999 V2000
  -26.6700  -24.0990   20.7190 C   0  0  0  0  0  2  0  0  0  0  0  0
  -26.9480  -24.0090   19.2240 C   0  0  0  0  0  0  0  0  0  0  0  0
  -26.3780  -23.2990   17.0370 C   0  0  0  0  0  1  0  0  0  0  0  0
  -26.1260  -23.3920   18.4630 N   0  0  0  0  0  0  0  0  0  0  0  0
  -28.2350  -24.7050   18.7740 C   0  0  0  0  0  2  0  0  0  0  0  0
  -28.0300  -26.1310   18.2250 C   0  0  0  0  0  2  0  0  0  0  0  0
  -27.9200  -27.1010   19.2700 O   0  0  0  0  0  0  0  0  0  0  0  0
  -24.4970  -31.9440   23.1810 C   0  0  0  0  0  0  0  0  0  0  0  0
  -26.7310  -27.7710   19.4610 C   0  0  0  0  0  0  0  0  0  0  0  0
  -23.0960  -30.6780   21.5850 C   0  0  0  0  0  3  0  0  0  0  0  0
  -24.3600  -29.2530   19.8900 C   0  0  0  0  0  0  0  0  0  0  0  0
  -25.5870  -31.0390   21.1350 C   0  0  0  0  0  2  0  0  0  0  0  0
  -25.5800  -29.7230   20.3900 C   0  0  0  0  0  0  0  0  0  0  0  0
  -26.7620  -28.9790   20.1910 C   0  0  0  0  0  3  0  0  0  0  0  0
  -25.4890  -27.3130   18.9630 C   0  0  0  0  0  3  0  0  0  0  0  0
  -24.3070  -28.0400   19.1860 C   0  0  0  0  0  3  0  0  0  0  0  0
  -23.1370  -30.1060   20.1430 C   0  0  0  0  0  2  0  0  0  0  0  0
  -24.4180  -31.2310   22.0240 N   0  0  0  0  0  0  0  0  0  0  0  0
  -23.4870  -32.1780   23.8590 O   0  0  0  0  0  0  0  0  0  0  0  0
  -22.5470  -29.5850   22.5280 C   0  0  0  0  0  0  0  0  0  0  0  0
  -21.2270  -29.3450   22.4590 N   0  0  0  0  0  0  0  0  0  0  0  0
  -23.3010  -28.9590   23.2770 O   0  0  0  0  0  0  0  0  0  0  0  0
  -20.6780  -29.9090   21.8250 H   0  0  0  0  0  0  0  0  0  0  0  0
  -17.9670  -27.8740   22.9610 C   0  0  0  0  0  0  0  0  0  0  0  0
  -20.4950  -28.3380   23.2240 C   0  0  0  0  0  3  0  0  0  0  0  0
  -20.7130  -26.9240   22.6360 C   0  0  0  0  0  2  0  0  0  0  0  0
  -19.6340  -26.5160   21.6270 C   0  0  0  0  0  2  0  0  0  0  0  0
  -18.2500  -26.5440   22.2820 C   0  0  0  0  0  2  0  0  0  0  0  0
  -19.0210  -28.7220   23.3910 C   0  0  0  0  0  0  0  0  0  0  0  0
  -18.7040  -29.9610   23.9880 C   0  0  0  0  0  3  0  0  0  0  0  0
  -17.3630  -30.3560   24.1560 C   0  0  0  0  0  3  0  0  0  0  0  0
  -16.3230  -29.5040   23.7440 C   0  0  0  0  0  3  0  0  0  0  0  0
  -16.6260  -28.2650   23.1540 C   0  0  0  0  0  3  0  0  0  0  0  0
  -25.8540  -32.5170   23.6980 C   0  0  0  0  0  3  0  0  0  0  0  0
  -26.4800  -31.6710   24.8740 C   0  0  1  0  0  0  0  0  0  0  0  0
  -25.5020  -31.4030   26.0420 C   0  0  0  0  0  1  0  0  0  0  0  0
  -26.9770  -30.3000   24.3580 C   0  0  0  0  0  1  0  0  0  0  0  0
  -27.7180  -32.4020   25.4450 C   0  0  0  0  0  1  0  0  0  0  0  0
  -25.6130  -33.9020   24.1220 N   0  0  0  0  0  0  0  0  0  0  0  0
  -25.9010  -34.9850   23.3840 C   0  0  0  0  0  0  0  0  0  0  0  0
  -26.4720  -34.9180   22.2920 O   0  0  0  0  0  0  0  0  0  0  0  0
  -25.0930  -34.0280   24.9780 H   0  0  0  0  0  0  0  0  0  0  0  0
  -24.1870  -36.8240   23.2730 C   0  0  0  0  0  1  0  0  0  0  0  0
  -25.4890  -36.3580   23.9470 C   0  0  0  0  0  3  0  0  0  0  0  0
  -27.7150  -37.1570   24.6060 C   0  0  0  0  0  1  0  0  0  0  0  0
  -26.5310  -37.3960   23.7860 N   0  0  0  0  0  0  0  0  0  0  0  0
  -26.1630  -38.3140   24.0190 H   0  0  0  0  0  0  0  0  0  0  0  0
  -27.0910  -22.8370   21.4920 C   0  0  0  0  0  2  0  0  0  0  0  0
  -28.5540  -22.4380   21.2490 C   0  0  0  0  0  2  0  0  0  0  0  0
  -28.9270  -21.1150   21.9210 C   0  0  0  0  0  2  0  0  0  0  0  0
  -30.2470  -20.5600   21.3670 C   0  0  0  0  0  2  0  0  0  0  0  0
  -30.5380  -19.1330   21.8510 C   0  0  0  0  0  2  0  0  0  0  0  0
  -31.5820  -18.4320   20.9720 C   0  0  0  0  0  2  0  0  0  0  0  0
  -31.6430  -16.9240   21.2370 C   0  0  0  0  0  2  0  0  0  0  0  0
  -32.6250  -16.2190   20.2920 C   0  0  0  0  0  2  0  0  0  0  0  0
  -32.7480  -14.7140   20.5620 C   0  0  0  0  0  2  0  0  0  0  0  0
  -31.2840  -13.3960   19.0290 C   0  0  0  0  0  0  0  0  0  0  0  0
  -30.6020  -11.1380   18.3510 C   0  0  0  0  0  2  0  0  0  0  0  0
  -29.4630  -11.0530   17.3280 C   0  0  0  0  0  2  0  0  0  0  0  0
  -28.1020  -11.0830   18.0400 C   0  0  0  0  0  2  0  0  0  0  0  0
  -27.9780  -12.2720   19.0250 C   0  0  0  0  0  3  0  0  0  0  0  0
  -29.2020  -12.3540   19.9630 C   0  0  0  0  0  2  0  0  0  0  0  0
  -30.4350  -12.3540   19.1550 N   0  0  0  0  0  0  0  0  0  0  0  0
  -31.9920  -13.6020   18.0370 O   0  0  0  0  0  0  0  0  0  0  0  0
  -31.5380  -13.9740   20.2090 N   0  0  0  0  0  0  0  0  0  0  0  0
  -30.9520  -13.6760   20.9750 H   0  0  0  0  0  0  0  0  0  0  0  0
  -25.9190  -13.2350   20.2360 C   0  0  0  0  0  0  0  0  0  0  0  0
  -24.8280  -12.6350   20.8040 C   0  0  0  0  0  0  0  0  0  0  0  0
  -25.0240  -11.2290   20.6460 C   0  0  0  0  0  0  0  0  0  0  0  0
  -26.7230  -12.2060   19.7740 N   0  0  0  0  0  0  0  0  0  0  0  0
  -26.1970  -10.9890   20.0730 N   0  0  0  0  0  0  0  0  0  0  0  0
  -24.1400  -10.0980   20.9570 C   0  0  0  0  0  0  0  0  0  0  0  0
  -24.5450   -9.0600   21.8260 C   0  0  0  0  0  3  0  0  0  0  0  0
  -23.6710   -7.9930   22.1240 C   0  0  0  0  0  3  0  0  0  0  0  0
  -22.3750   -7.9580   21.5570 C   0  0  0  0  0  0  0  0  0  0  0  0
  -21.9840   -8.9810   20.6770 C   0  0  0  0  0  3  0  0  0  0  0  0
  -22.8570  -10.0400   20.3760 C   0  0  0  0  0  3  0  0  0  0  0  0
  -21.4680   -6.9480   21.7690 O   0  0  0  0  0  0  0  0  0  0  0  0
  -21.4470   -6.2320   22.9390 C   0  0  0  0  0  0  0  0  0  0  0  0
  -21.2630   -6.8570   24.1920 C   0  0  0  0  0  3  0  0  0  0  0  0
  -21.1800   -6.0760   25.3620 C   0  0  0  0  0  3  0  0  0  0  0  0
  -21.2700   -4.6740   25.2810 C   0  0  0  0  0  0  0  0  0  0  0  0
  -21.4480   -4.0490   24.0340 C   0  0  0  0  0  3  0  0  0  0  0  0
  -21.5330   -4.8270   22.8660 C   0  0  0  0  0  0  0  0  0  0  0  0
  -21.6830   -4.2200   21.6650 F   0  0  0  0  0  0  0  0  0  0  0  0
  -21.1820   -3.9230   26.4040 F   0  0  0  0  0  0  0  0  0  0  0  0
  -23.6230  -13.3240   21.3770 C   0  0  0  0  0  0  0  0  0  0  0  0
  -22.9860  -12.7180   22.3730 N   0  0  0  0  0  0  0  0  0  0  0  0
  -23.2680  -14.4320   20.9770 O   0  0  0  0  0  0  0  0  0  0  0  0
  -23.2900  -11.8190   22.7170 H   0  0  0  0  0  0  0  0  0  0  0  0
  -22.1830  -13.1610   22.8000 H   0  0  0  0  0  0  0  0  0  0  0  0
  -26.2860  -14.5670   20.0590 N   0  0  0  0  0  0  0  0  0  0  0  0
  -25.6930  -15.3370   20.3450 H   0  0  0  0  0  0  0  0  0  0  0  0
  -27.1330  -14.8700   19.5920 H   0  0  0  0  0  0  0  0  0  0  0  0
  1 48  1  0
  2  1  1  0
  3  4  1  0
  4  2  2  0
  5  2  1  0
  6  5  1  0
  6  7  1  0
  7  9  1  0
  8 19  2  0
  9 14  1  0
 10 18  1  0
 10 20  1  0
 11 17  1  0
 11 13  1  0
 12 18  1  0
 13 12  1  0
 14 13  2  0
 15 16  1  0
 15  9  2  0
 16 11  2  0
 17 10  1  0
 18  8  1  0
 20 22  2  0
 21 20  1  0
 23 21  1  0
 24 33  2  0
 24 29  1  0
 25 21  1  0
 25 29  1  0
 26 25  1  0
 27 28  1  0
 27 26  1  0
 28 24  1  0
 29 30  2  0
 30 31  1  0
 32 31  2  0
 33 32  1  0
 34  8  1  0
 34 39  1  0
 34 35  1  0
 35 38  1  1
 35 36  1  0
 37 35  1  0
 39 42  1  0
 40 44  1  0
 40 39  1  0
 41 40  2  0
 44 43  1  0
 46 44  1  0
 46 47  1  0
 46 45  1  0
 49 48  1  0
 49 50  1  0
 51 52  1  0
 51 50  1  0
 53 54  1  0
 53 52  1  0
 55 56  1  0
 55 54  1  0
 57 63  1  0
 57 65  1  0
 58 63  1  0
 59 60  1  0
 59 58  1  0
 61 60  1  0
 61 70  1  0
 61 62  1  0
 63 62  1  0
 64 57  2  0
 65 56  1  0
 65 66  1  0
 67 68  2  0
 68 87  1  0
 69 68  1  0
 69 72  1  0
 70 71  1  0
 70 67  1  0
 71 69  2  0
 72 73  1  0
 73 74  2  0
 75 78  1  0
 75 74  1  0
 76 75  2  0
 77 76  1  0
 77 72  2  0
 78 79  1  0
 79 80  1  0
 80 81  2  0
 82 81  1  0
 82 86  1  0
 83 82  2  0
 84 79  2  0
 84 83  1  0
 85 84  1  0
 87 88  1  0
 88 90  1  0
 88 91  1  0
 89 87  2  0
 92 67  1  0
 92 93  1  0
 94 92  1  0
M  ISO  4   6 101   7 101  57 100  65 100
M  END
>  <TORSDO>  (65) 
F 28

>  <SCORE>  (65) 
-7.967

>  <name>  (65) 
64

>  <ligand_id>  (65) 
64

>  <original_smiles>  (65) 
[H]c1c([H])c([H])c2c(c1[H])C([H])([H])C([H])([H])C([H])([H])C2([H])N([H])C(=O)C1([H])N(C(=O)C([H])(N([H])C(=O)C([H])(N([H])C([H])([H])[H])C([H])([H])[H])C(C([H])([H])[H])(C([H])([H])[H])C([H])([H])[H])C([H])([H])c2c([H])c(OC([H])([H])C([H])([H])C(=NC([H])([H])[H])C([H])([H])C([H])([H])C([H])([H])C([H])([H])C([H])([H])C([H])([H])C([H])([H])C([H])([H])C([H])([H])C([H])([H])N([H])C(=O)N3C([H])([H])C([H])([H])C([H])([H])C([H])(n4nc(-c5c([H])c([H])c(Oc6c([H])c([H])c(F)c([H])c6F)c([H])c5[H])c(C(=O)N([H])[H])c4N([H])[H])C3([H])[H])c([H])c([H])c2C1([H])[H]

>  <smiles>  (65) 
[H]c1c([H])c([H])c2c(c1[H])C([H])([H])C([H])([H])C([H])([H])C2([H])N([H])C(=O)C1([H])N(C(=O)C([H])(N([H])C(=O)C([H])(N([H])C([H])([H])[H])C([H])([H])[H])C(C([H])([H])[H])(C([H])([H])[H])C([H])([H])[H])C([H])([H])c2c([H])c(OC([H])([H])C([H])([H])C(=NC([H])([H])[H])C([H])([H])C([H])([H])C([H])([H])C([H])([H])C([H])([H])C([H])([H])C([H])([H])C([H])([H])C([H])([H])C([H])([H])N([H])C(=O)N3C([H])([H])C([H])([H])C([H])([H])C([H])(n4nc(-c5c([H])c([H])c(Oc6c([H])c([H])c(F)c([H])c6F)c([H])c5[H])c(C(=O)N([H])[H])c4N([H])[H])C3([H])[H])c([H])c([H])c2C1([H])[H]

$$$$
65:0:0
     RDKit          3D

100109  0  0  1  0  0  0  0  0999 V2000
  -32.0530  -21.8960   14.4110 C   0  0  0  0  0  2  0  0  0  0  0  0
  -29.5980  -20.9020   17.1900 C   0  0  0  0  0  3  0  0  0  0  0  0
  -29.3400  -19.3340   15.3470 C   0  0  0  0  0  3  0  0  0  0  0  0
  -30.5750  -21.6030   16.4590 C   0  0  0  0  0  3  0  0  0  0  0  0
  -30.3130  -20.0410   14.6090 C   0  0  0  0  0  3  0  0  0  0  0  0
  -28.9940  -19.7470   16.6520 C   0  0  0  0  0  0  0  0  0  0  0  0
  -30.9480  -21.1710   15.1690 C   0  0  0  0  0  0  0  0  0  0  0  0
  -28.0720  -18.9020   17.5330 C   0  0  0  0  0  2  0  0  0  0  0  0
  -30.6400  -14.9380   20.8190 C   0  0  0  0  0  0  0  0  0  0  0  0
  -30.4850  -12.7180   19.8200 C   0  0  0  0  0  2  0  0  0  0  0  0
  -29.6160  -12.8100   18.5490 C   0  0  0  0  0  2  0  0  0  0  0  0
  -28.1210  -12.6300   18.8850 C   0  0  0  0  0  2  0  0  0  0  0  0
  -27.6600  -13.4920   20.0900 C   0  0  0  0  0  3  0  0  0  0  0  0
  -28.6610  -13.4160   21.2660 C   0  0  0  0  0  2  0  0  0  0  0  0
  -29.9850  -13.7540   20.7300 N   0  0  0  0  0  0  0  0  0  0  0  0
  -31.8730  -14.9730   20.8410 O   0  0  0  0  0  0  0  0  0  0  0  0
  -30.0190  -17.4030   18.1780 C   0  0  0  0  0  2  0  0  0  0  0  0
  -28.0070  -17.3860   19.6560 C   0  0  0  0  0  2  0  0  0  0  0  0
  -30.8360  -16.8580   19.3410 C   0  0  0  0  0  2  0  0  0  0  0  0
  -28.8680  -16.7280   20.7740 C   0  0  0  0  0  2  0  0  0  0  0  0
  -28.8540  -18.2530   18.7000 C   0  0  0  0  0  3  0  0  0  0  0  0
  -30.0170  -15.9900   20.2150 N   0  0  0  0  0  0  0  0  0  0  0  0
  -25.2030  -14.0070   20.6450 C   0  0  0  0  0  0  0  0  0  0  0  0
  -24.1440  -13.1960   20.9480 C   0  0  0  0  0  0  0  0  0  0  0  0
  -24.6610  -11.8640   20.9660 C   0  0  0  0  0  0  0  0  0  0  0  0
  -26.2960  -13.1670   20.4970 N   0  0  0  0  0  0  0  0  0  0  0  0
  -25.9710  -11.8740   20.7500 N   0  0  0  0  0  0  0  0  0  0  0  0
  -23.9740  -10.5750   21.1190 C   0  0  0  0  0  0  0  0  0  0  0  0
  -24.3870   -9.6290   22.0830 C   0  0  0  0  0  3  0  0  0  0  0  0
  -23.7030   -8.4040   22.2230 C   0  0  0  0  0  3  0  0  0  0  0  0
  -22.5900   -8.1150   21.3980 C   0  0  0  0  0  0  0  0  0  0  0  0
  -22.1950   -9.0500   20.4230 C   0  0  0  0  0  3  0  0  0  0  0  0
  -22.8820  -10.2680   20.2830 C   0  0  0  0  0  3  0  0  0  0  0  0
  -21.8800   -6.9400   21.4480 O   0  0  0  0  0  0  0  0  0  0  0  0
  -21.7890   -6.2030   22.6010 C   0  0  0  0  0  0  0  0  0  0  0  0
  -21.2700   -6.7490   23.7950 C   0  0  0  0  0  3  0  0  0  0  0  0
  -21.1300   -5.9360   24.9390 C   0  0  0  0  0  3  0  0  0  0  0  0
  -21.5000   -4.5780   24.8870 C   0  0  0  0  0  0  0  0  0  0  0  0
  -22.0130   -4.0330   23.6970 C   0  0  0  0  0  3  0  0  0  0  0  0
  -22.1530   -4.8420   22.5560 C   0  0  0  0  0  0  0  0  0  0  0  0
  -22.6260   -4.3060   21.4060 F   0  0  0  0  0  0  0  0  0  0  0  0
  -21.3570   -3.7950   25.9810 F   0  0  0  0  0  0  0  0  0  0  0  0
  -22.7130  -13.6180   21.1170 C   0  0  0  0  0  0  0  0  0  0  0  0
  -21.9570  -12.8990   21.9400 N   0  0  0  0  0  0  0  0  0  0  0  0
  -22.2690  -14.6200   20.5580 O   0  0  0  0  0  0  0  0  0  0  0  0
  -22.3250  -12.0860   22.4130 H   0  0  0  0  0  0  0  0  0  0  0  0
  -20.9970  -13.1660   22.1040 H   0  0  0  0  0  0  0  0  0  0  0  0
  -25.3240  -15.3790   20.4620 N   0  0  0  0  0  0  0  0  0  0  0  0
  -24.5370  -16.0150   20.5360 H   0  0  0  0  0  0  0  0  0  0  0  0
  -26.1890  -15.8420   20.2150 H   0  0  0  0  0  0  0  0  0  0  0  0
  -31.5610  -22.8080   13.2630 C   0  0  0  0  0  2  0  0  0  0  0  0
  -30.4070  -23.7600   13.6260 C   0  0  0  0  0  2  0  0  0  0  0  0
  -30.7670  -24.6960   14.7110 N   0  0  0  0  0  4  0  0  0  0  0  0
  -31.1470  -25.5370   14.3070 H   0  0  0  0  0  0  0  0  0  0  0  0
  -31.4860  -24.2710   15.2730 H   0  0  0  0  0  0  0  0  0  0  0  0
  -29.6290  -25.0280   15.5910 C   0  0  0  0  0  2  0  0  0  0  0  0
  -30.0190  -26.0000   16.7180 C   0  0  0  0  0  2  0  0  0  0  0  0
  -28.9510  -26.0180   17.8240 C   0  0  0  0  0  2  0  0  0  0  0  0
  -29.2560  -26.9950   18.9660 C   0  0  0  0  0  2  0  0  0  0  0  0
  -28.3920  -26.7240   20.0660 O   0  0  0  0  0  0  0  0  0  0  0  0
  -24.5720  -31.8290   23.1930 C   0  0  0  0  0  0  0  0  0  0  0  0
  -27.2240  -27.4390   20.0750 C   0  0  0  0  0  0  0  0  0  0  0  0
  -23.3620  -30.4330   21.5450 C   0  0  0  0  0  3  0  0  0  0  0  0
  -24.8150  -28.8970   20.1140 C   0  0  0  0  0  0  0  0  0  0  0  0
  -25.8820  -30.8010   21.3440 C   0  0  0  0  0  2  0  0  0  0  0  0
  -25.9680  -29.4350   20.7000 C   0  0  0  0  0  0  0  0  0  0  0  0
  -27.1750  -28.7070   20.6870 C   0  0  0  0  0  3  0  0  0  0  0  0
  -26.0570  -26.8940   19.5080 C   0  0  0  0  0  3  0  0  0  0  0  0
  -24.8500  -27.6250   19.5190 C   0  0  0  0  0  3  0  0  0  0  0  0
  -23.5640  -29.7480   20.1650 C   0  0  0  0  0  2  0  0  0  0  0  0
  -24.6230  -31.0340   22.0860 N   0  0  0  0  0  0  0  0  0  0  0  0
  -23.4920  -32.1010   23.7350 O   0  0  0  0  0  0  0  0  0  0  0  0
  -22.7090  -29.4130   22.5040 C   0  0  0  0  0  0  0  0  0  0  0  0
  -21.3800  -29.2510   22.3880 N   0  0  0  0  0  0  0  0  0  0  0  0
  -23.3930  -28.7670   23.3010 O   0  0  0  0  0  0  0  0  0  0  0  0
  -20.8930  -29.8230   21.7130 H   0  0  0  0  0  0  0  0  0  0  0  0
  -17.9950  -28.1120   22.9120 C   0  0  0  0  0  0  0  0  0  0  0  0
  -20.5590  -28.3170   23.1550 C   0  0  0  0  0  3  0  0  0  0  0  0
  -20.6290  -26.8940   22.5530 C   0  0  0  0  0  2  0  0  0  0  0  0
  -19.5070  -26.6070   21.5510 C   0  0  0  0  0  2  0  0  0  0  0  0
  -18.1380  -26.7690   22.2160 C   0  0  0  0  0  2  0  0  0  0  0  0
  -19.1320  -28.8460   23.3400 C   0  0  0  0  0  0  0  0  0  0  0  0
  -18.9470  -30.1050   23.9510 C   0  0  0  0  0  3  0  0  0  0  0  0
  -17.6550  -30.6280   24.1430 C   0  0  0  0  0  3  0  0  0  0  0  0
  -16.5300  -29.8890   23.7360 C   0  0  0  0  0  3  0  0  0  0  0  0
  -16.7020  -28.6340   23.1250 C   0  0  0  0  0  3  0  0  0  0  0  0
  -25.8610  -32.4520   23.8140 C   0  0  0  0  0  3  0  0  0  0  0  0
  -26.3860  -31.6690   25.0800 C   0  0  1  0  0  0  0  0  0  0  0  0
  -25.3000  -31.4210   26.1510 C   0  0  0  0  0  1  0  0  0  0  0  0
  -26.9700  -30.2970   24.6710 C   0  0  0  0  0  1  0  0  0  0  0  0
  -27.5400  -32.4590   25.7450 C   0  0  0  0  0  1  0  0  0  0  0  0
  -25.5570  -33.8480   24.1560 N   0  0  0  0  0  0  0  0  0  0  0  0
  -25.8900  -34.9050   23.4040 C   0  0  0  0  0  0  0  0  0  0  0  0
  -26.5560  -34.8090   22.3690 O   0  0  0  0  0  0  0  0  0  0  0  0
  -24.9670  -34.0000   24.9610 H   0  0  0  0  0  0  0  0  0  0  0  0
  -24.1570  -36.6960   23.0700 C   0  0  0  0  0  1  0  0  0  0  0  0
  -25.4030  -36.2900   23.8730 C   0  0  0  0  0  3  0  0  0  0  0  0
  -27.5410  -37.1640   24.7020 C   0  0  0  0  0  1  0  0  0  0  0  0
  -26.4360  -37.3430   23.7670 N   0  0  0  0  0  0  0  0  0  0  0  0
  -26.0290  -38.2610   23.9290 H   0  0  0  0  0  0  0  0  0  0  0  0
  1  7  1  0
  3  6  2  0
  4  2  2  0
  5  7  2  0
  5  3  1  0
  6  2  1  0
  6  8  1  0
  7  4  1  0
  9 16  2  0
 10 15  1  0
 11 12  1  0
 11 10  1  0
 13 12  1  0
 13 26  1  0
 13 14  1  0
 15  9  1  0
 15 14  1  0
 17 21  1  0
 17 19  1  0
 18 20  1  0
 19 22  1  0
 21  8  1  0
 21 18  1  0
 22 20  1  0
 22  9  1  0
 23 24  2  0
 24 25  1  0
 24 43  1  0
 25 28  1  0
 26 23  1  0
 26 27  1  0
 27 25  2  0
 28 29  1  0
 29 30  2  0
 31 34  1  0
 31 30  1  0
 32 31  2  0
 33 32  1  0
 33 28  2  0
 34 35  1  0
 35 36  1  0
 36 37  2  0
 38 37  1  0
 38 42  1  0
 39 38  2  0
 40 35  2  0
 40 39  1  0
 41 40  1  0
 43 44  1  0
 44 47  1  0
 44 46  1  0
 45 43  2  0
 48 49  1  0
 48 23  1  0
 50 48  1  0
 51 52  1  0
 51  1  1  0
 52 53  1  0
 53 55  1  0
 53 56  1  0
 54 53  1  0
 56 57  1  0
 57 58  1  0
 58 59  1  0
 59 60  1  0
 60 62  1  0
 61 72  2  0
 62 67  1  0
 63 71  1  0
 63 73  1  0
 64 70  1  0
 64 66  1  0
 65 71  1  0
 66 65  1  0
 67 66  2  0
 68 69  1  0
 68 62  2  0
 69 64  2  0
 70 63  1  0
 71 61  1  0
 73 75  2  0
 74 73  1  0
 76 74  1  0
 77 86  2  0
 77 82  1  0
 78 74  1  0
 78 82  1  0
 79 78  1  0
 80 81  1  0
 80 79  1  0
 81 77  1  0
 82 83  2  0
 83 84  1  0
 85 84  2  0
 86 85  1  0
 87 61  1  0
 87 92  1  0
 87 88  1  0
 88 91  1  1
 88 89  1  0
 90 88  1  0
 92 95  1  0
 93 97  1  0
 93 92  1  0
 94 93  2  0
 97 96  1  0
 99 97  1  0
 99100  1  0
 99 98  1  0
M  ISO  4   9 100  22 100  59 101  60 101
M  END
>  <TORSDO>  (66) 
F 25

>  <SCORE>  (66) 
-12.392

>  <name>  (66) 
65

>  <ligand_id>  (66) 
65

>  <original_smiles>  (66) 
[H]c1c([H])c([H])c2c(c1[H])C([H])([H])C([H])([H])C([H])([H])C2([H])N([H])C(=O)C1([H])N(C(=O)C([H])(N([H])C(=O)C([H])(N([H])C([H])([H])[H])C([H])([H])[H])C(C([H])([H])[H])(C([H])([H])[H])C([H])([H])[H])C([H])([H])c2c([H])c(OC([H])([H])C([H])([H])C([H])([H])C([H])([H])[N+]([H])([H])C([H])([H])C([H])([H])C([H])([H])c3c([H])c([H])c(C([H])([H])C4([H])C([H])([H])C([H])([H])N(C(=O)N5C([H])([H])C([H])([H])C([H])([H])C([H])(n6nc(-c7c([H])c([H])c(Oc8c([H])c([H])c(F)c([H])c8F)c([H])c7[H])c(C(=O)N([H])[H])c6N([H])[H])C5([H])[H])C([H])([H])C4([H])[H])c([H])c3[H])c([H])c([H])c2C1([H])[H]

>  <smiles>  (66) 
[H]c1c([H])c([H])c2c(c1[H])C([H])([H])C([H])([H])C([H])([H])C2([H])N([H])C(=O)C1([H])N(C(=O)C([H])(N([H])C(=O)C([H])(N([H])C([H])([H])[H])C([H])([H])[H])C(C([H])([H])[H])(C([H])([H])[H])C([H])([H])[H])C([H])([H])c2c([H])c(OC([H])([H])C([H])([H])C([H])([H])C([H])([H])[N+]([H])([H])C([H])([H])C([H])([H])C([H])([H])c3c([H])c([H])c(C([H])([H])C4([H])C([H])([H])C([H])([H])N(C(=O)N5C([H])([H])C([H])([H])C([H])([H])C([H])(n6nc(-c7c([H])c([H])c(Oc8c([H])c([H])c(F)c([H])c8F)c([H])c7[H])c(C(=O)N([H])[H])c6N([H])[H])C5([H])[H])C([H])([H])C4([H])[H])c([H])c3[H])c([H])c([H])c2C1([H])[H]

$$$$
66:0:0
     RDKit          3D

 94103  0  0  1  0  0  0  0  0999 V2000
  -28.9460  -21.4710   22.5350 C   0  0  0  0  0  3  0  0  0  0  0  0
  -28.0040  -22.0540   20.3650 C   0  0  0  0  0  3  0  0  0  0  0  0
  -29.2090  -22.8370   22.7860 C   0  0  0  0  0  3  0  0  0  0  0  0
  -28.2750  -23.4130   20.6120 C   0  0  0  0  0  3  0  0  0  0  0  0
  -28.3460  -21.0760   21.3200 C   0  0  0  0  0  0  0  0  0  0  0  0
  -28.8820  -23.8160   21.8210 C   0  0  0  0  0  0  0  0  0  0  0  0
  -28.0770  -19.6130   21.0080 C   0  0  0  0  0  2  0  0  0  0  0  0
  -28.6510  -19.2020   19.6400 C   0  0  0  0  0  2  0  0  0  0  0  0
  -32.4280  -15.0490   19.6630 C   0  0  0  0  0  0  0  0  0  0  0  0
  -32.0740  -12.6240   19.4050 C   0  0  0  0  0  2  0  0  0  0  0  0
  -31.1530  -12.3680   18.1940 C   0  0  0  0  0  2  0  0  0  0  0  0
  -29.6700  -12.4310   18.6110 C   0  0  0  0  0  2  0  0  0  0  0  0
  -29.3380  -13.6970   19.4450 C   0  0  0  0  0  3  0  0  0  0  0  0
  -30.3690  -13.8900   20.5770 C   0  0  0  0  0  2  0  0  0  0  0  0
  -31.7120  -13.9320   19.9700 N   0  0  0  0  0  0  0  0  0  0  0  0
  -33.5330  -15.0050   19.1100 O   0  0  0  0  0  0  0  0  0  0  0  0
  -30.3930  -17.8060   18.4250 C   0  0  0  0  0  2  0  0  0  0  0  0
  -30.2690  -17.7320   20.9630 C   0  0  0  0  0  2  0  0  0  0  0  0
  -31.7510  -17.0970   18.5350 C   0  0  0  0  0  2  0  0  0  0  0  0
  -31.6150  -16.9790   20.9500 C   0  0  0  0  0  2  0  0  0  0  0  0
  -30.0730  -18.6080   19.7020 C   0  0  0  0  0  3  0  0  0  0  0  0
  -31.7380  -16.2120   19.7050 N   0  0  0  0  0  0  0  0  0  0  0  0
  -27.1190  -14.6970   20.2910 C   0  0  0  0  0  0  0  0  0  0  0  0
  -25.9360  -14.1140   20.6580 C   0  0  0  0  0  0  0  0  0  0  0  0
  -26.1300  -12.7060   20.5200 C   0  0  0  0  0  0  0  0  0  0  0  0
  -27.9720  -13.6520   19.9620 N   0  0  0  0  0  0  0  0  0  0  0  0
  -27.3770  -12.4460   20.1530 N   0  0  0  0  0  0  0  0  0  0  0  0
  -25.1830  -11.5920   20.6600 C   0  0  0  0  0  0  0  0  0  0  0  0
  -25.4540  -10.4950   21.5070 C   0  0  0  0  0  3  0  0  0  0  0  0
  -24.5200   -9.4450   21.6400 C   0  0  0  0  0  3  0  0  0  0  0  0
  -23.2990   -9.4870   20.9240 C   0  0  0  0  0  0  0  0  0  0  0  0
  -23.0450  -10.5700   20.0650 C   0  0  0  0  0  3  0  0  0  0  0  0
  -23.9770  -11.6120   19.9310 C   0  0  0  0  0  3  0  0  0  0  0  0
  -22.3440   -8.5010   20.9710 O   0  0  0  0  0  0  0  0  0  0  0  0
  -22.1320   -7.7580   22.1050 C   0  0  0  0  0  0  0  0  0  0  0  0
  -21.8330   -8.3610   23.3460 C   0  0  0  0  0  3  0  0  0  0  0  0
  -21.5540   -7.5580   24.4700 C   0  0  0  0  0  3  0  0  0  0  0  0
  -21.5610   -6.1550   24.3530 C   0  0  0  0  0  0  0  0  0  0  0  0
  -21.8530   -5.5530   23.1160 C   0  0  0  0  0  3  0  0  0  0  0  0
  -22.1340   -6.3530   21.9950 C   0  0  0  0  0  0  0  0  0  0  0  0
  -22.3930   -5.7670   20.8010 F   0  0  0  0  0  0  0  0  0  0  0  0
  -21.2850   -5.3830   25.4300 F   0  0  0  0  0  0  0  0  0  0  0  0
  -24.6640  -14.8250   21.0260 C   0  0  0  0  0  0  0  0  0  0  0  0
  -23.8550  -14.2240   21.8920 N   0  0  0  0  0  0  0  0  0  0  0  0
  -24.4050  -15.9420   20.5820 O   0  0  0  0  0  0  0  0  0  0  0  0
  -24.0790  -13.3170   22.2720 H   0  0  0  0  0  0  0  0  0  0  0  0
  -23.0010  -14.6800   22.1800 H   0  0  0  0  0  0  0  0  0  0  0  0
  -27.5330  -16.0190   20.1920 N   0  0  0  0  0  0  0  0  0  0  0  0
  -26.9110  -16.7960   20.3840 H   0  0  0  0  0  0  0  0  0  0  0  0
  -28.4520  -16.3100   19.8880 H   0  0  0  0  0  0  0  0  0  0  0  0
  -29.1340  -25.3000   22.0670 C   0  0  0  0  0  2  0  0  0  0  0  0
  -30.6150  -25.7000   22.1990 C   0  0  0  0  0  2  0  0  0  0  0  0
  -30.8330  -27.2120   22.0050 C   0  0  0  0  0  2  0  0  0  0  0  0
  -30.3340  -27.5960   20.7240 O   0  0  0  0  0  0  0  0  0  0  0  0
  -25.1710  -31.6530   23.5240 C   0  0  0  0  0  0  0  0  0  0  0  0
  -29.0500  -28.0800   20.6700 C   0  0  0  0  0  0  0  0  0  0  0  0
  -24.4890  -30.1150   21.7070 C   0  0  0  0  0  3  0  0  0  0  0  0
  -26.3960  -29.0040   20.4300 C   0  0  0  0  0  0  0  0  0  0  0  0
  -26.8730  -31.0280   21.8190 C   0  0  0  0  0  2  0  0  0  0  0  0
  -27.3300  -29.7400   21.1700 C   0  0  0  0  0  0  0  0  0  0  0  0
  -28.6590  -29.2860   21.2950 C   0  0  0  0  0  3  0  0  0  0  0  0
  -28.1060  -27.3560   19.9160 C   0  0  0  0  0  3  0  0  0  0  0  0
  -26.7760  -27.8050   19.8030 C   0  0  0  0  0  3  0  0  0  0  0  0
  -24.9960  -29.5710   20.3440 C   0  0  0  0  0  2  0  0  0  0  0  0
  -25.5190  -30.9470   22.4110 N   0  0  0  0  0  0  0  0  0  0  0  0
  -24.0050  -31.6570   23.9400 O   0  0  0  0  0  0  0  0  0  0  0  0
  -23.9780  -28.9270   22.5540 C   0  0  0  0  0  0  0  0  0  0  0  0
  -22.7650  -28.4460   22.2370 N   0  0  0  0  0  0  0  0  0  0  0  0
  -24.6730  -28.4420   23.4500 O   0  0  0  0  0  0  0  0  0  0  0  0
  -22.2520  -28.9090   21.5000 H   0  0  0  0  0  0  0  0  0  0  0  0
  -19.7370  -26.4770   22.2230 C   0  0  0  0  0  0  0  0  0  0  0  0
  -22.0970  -27.3110   22.8710 C   0  0  0  0  0  3  0  0  0  0  0  0
  -22.6150  -25.9700   22.3030 C   0  0  0  0  0  2  0  0  0  0  0  0
  -21.7740  -25.4430   21.1360 C   0  0  0  0  0  2  0  0  0  0  0  0
  -20.3200  -25.2360   21.5710 C   0  0  0  0  0  2  0  0  0  0  0  0
  -20.5710  -27.4590   22.8210 C   0  0  0  0  0  0  0  0  0  0  0  0
  -19.9770  -28.6110   23.3830 C   0  0  0  0  0  3  0  0  0  0  0  0
  -18.5810  -28.7870   23.3590 C   0  0  0  0  0  3  0  0  0  0  0  0
  -17.7590  -27.8030   22.7800 C   0  0  0  0  0  3  0  0  0  0  0  0
  -18.3370  -26.6500   22.2170 C   0  0  0  0  0  3  0  0  0  0  0  0
  -26.2140  -32.5060   24.3120 C   0  0  0  0  0  3  0  0  0  0  0  0
  -25.6620  -33.8600   24.4470 N   0  0  0  0  0  0  0  0  0  0  0  0
  -25.9890  -34.8940   23.6610 C   0  0  0  0  0  0  0  0  0  0  0  0
  -26.8540  -34.8230   22.7830 O   0  0  0  0  0  0  0  0  0  0  0  0
  -24.9120  -33.9810   25.1110 H   0  0  0  0  0  0  0  0  0  0  0  0
  -24.1370  -36.3760   22.8280 C   0  0  0  0  0  1  0  0  0  0  0  0
  -25.2400  -36.2210   23.8860 C   0  0  0  0  0  3  0  0  0  0  0  0
  -27.0500  -37.4610   24.9880 C   0  0  0  0  0  1  0  0  0  0  0  0
  -26.1220  -37.4080   23.8620 N   0  0  0  0  0  0  0  0  0  0  0  0
  -25.5750  -38.2640   23.8620 H   0  0  0  0  0  0  0  0  0  0  0  0
  -26.5750  -31.9050   25.7260 C   0  0  1  0  0  0  0  0  0  0  0  0
  -25.3370  -31.5440   26.5800 C   0  0  0  0  0  1  0  0  0  0  0  0
  -27.4320  -30.6260   25.5700 C   0  0  0  0  0  1  0  0  0  0  0  0
  -27.4290  -32.9170   26.5260 C   0  0  0  0  0  1  0  0  0  0  0  0
  1  3  1  0
  2  4  2  0
  2  5  1  0
  4  6  1  0
  5  1  2  0
  6 51  1  0
  6  3  2  0
  7  5  1  0
  8  7  1  0
  9 22  1  0
  9 15  1  0
 10 15  1  0
 11 12  1  0
 11 10  1  0
 13 12  1  0
 13 26  1  0
 13 14  1  0
 15 14  1  0
 16  9  2  0
 17 19  1  0
 17 21  1  0
 19 22  1  0
 20 18  1  0
 21  8  1  0
 21 18  1  0
 22 20  1  0
 23 24  2  0
 24 43  1  0
 25 24  1  0
 25 28  1  0
 26 27  1  0
 26 23  1  0
 27 25  2  0
 28 29  1  0
 29 30  2  0
 31 34  1  0
 31 30  1  0
 32 31  2  0
 33 32  1  0
 33 28  2  0
 34 35  1  0
 35 36  1  0
 36 37  2  0
 38 37  1  0
 38 42  1  0
 39 38  2  0
 40 35  2  0
 40 39  1  0
 41 40  1  0
 43 44  1  0
 44 47  1  0
 44 46  1  0
 45 43  2  0
 48 23  1  0
 48 49  1  0
 50 48  1  0
 51 52  1  0
 53 52  1  0
 54 53  1  0
 55 66  2  0
 56 54  1  0
 56 61  1  0
 57 65  1  0
 57 67  1  0
 58 60  1  0
 59 65  1  0
 60 61  2  0
 60 59  1  0
 62 56  2  0
 63 62  1  0
 63 58  2  0
 64 58  1  0
 64 57  1  0
 65 55  1  0
 67 69  2  0
 68 67  1  0
 70 68  1  0
 71 76  1  0
 72 68  1  0
 73 72  1  0
 74 75  1  0
 74 73  1  0
 75 71  1  0
 76 72  1  0
 76 77  2  0
 78 77  1  0
 79 78  2  0
 80 71  2  0
 80 79  1  0
 81 55  1  0
 81 82  1  0
 81 91  1  0
 82 85  1  0
 83 87  1  0
 83 82  1  0
 84 83  2  0
 87 86  1  0
 89 90  1  0
 89 87  1  0
 89 88  1  0
 91 94  1  1
 91 92  1  0
 93 91  1  0
M  ISO  4   9 100  22 100  53 101  54 101
M  END
>  <TORSDO>  (67) 
F 21

>  <SCORE>  (67) 
-8.368

>  <name>  (67) 
66

>  <ligand_id>  (67) 
66

>  <original_smiles>  (67) 
[H]c1c([H])c([H])c2c(c1[H])C([H])([H])C([H])([H])C([H])([H])C2([H])N([H])C(=O)C1([H])N(C(=O)C([H])(N([H])C(=O)C([H])(N([H])C([H])([H])[H])C([H])([H])[H])C(C([H])([H])[H])(C([H])([H])[H])C([H])([H])[H])C([H])([H])c2c([H])c(OC([H])([H])C([H])([H])C([H])([H])c3c([H])c([H])c(C([H])([H])C([H])([H])C4([H])C([H])([H])C([H])([H])N(C(=O)N5C([H])([H])C([H])([H])C([H])([H])C([H])(n6nc(-c7c([H])c([H])c(Oc8c([H])c([H])c(F)c([H])c8F)c([H])c7[H])c(C(=O)N([H])[H])c6N([H])[H])C5([H])[H])C([H])([H])C4([H])[H])c([H])c3[H])c([H])c([H])c2C1([H])[H]

>  <smiles>  (67) 
[H]c1c([H])c([H])c2c(c1[H])C([H])([H])C([H])([H])C([H])([H])C2([H])N([H])C(=O)C1([H])N(C(=O)C([H])(N([H])C(=O)C([H])(N([H])C([H])([H])[H])C([H])([H])[H])C(C([H])([H])[H])(C([H])([H])[H])C([H])([H])[H])C([H])([H])c2c([H])c(OC([H])([H])C([H])([H])C([H])([H])c3c([H])c([H])c(C([H])([H])C([H])([H])C4([H])C([H])([H])C([H])([H])N(C(=O)N5C([H])([H])C([H])([H])C([H])([H])C([H])(n6nc(-c7c([H])c([H])c(Oc8c([H])c([H])c(F)c([H])c8F)c([H])c7[H])c(C(=O)N([H])[H])c6N([H])[H])C5([H])[H])C([H])([H])C4([H])[H])c([H])c3[H])c([H])c([H])c2C1([H])[H]

$$$$
67:0:0
     RDKit          3D

 95103  0  0  1  0  0  0  0  0999 V2000
  -30.2620  -19.8540   21.0680 C   0  0  0  0  0  3  0  0  0  0  0  0
  -29.6500  -21.0000   20.5200 C   0  0  0  0  0  3  0  0  0  0  0  0
  -28.5470  -18.4610   20.0700 C   0  0  0  0  0  3  0  0  0  0  0  0
  -29.7020  -18.5760   20.8700 C   0  0  0  0  0  0  0  0  0  0  0  0
  -28.4690  -20.8990   19.7530 C   0  0  0  0  0  0  0  0  0  0  0  0
  -27.9240  -19.6050   19.5090 C   0  0  0  0  0  0  0  0  0  0  0  0
  -30.2570  -17.3770   21.6410 C   0  0  0  0  0  2  0  0  0  0  0  0
  -29.7450  -15.9690   21.2550 C   0  0  0  0  0  2  0  0  0  0  0  0
  -31.1340  -14.3660   19.8910 C   0  0  0  0  0  0  0  0  0  0  0  0
  -30.8120  -12.1090   18.9720 C   0  0  0  0  0  2  0  0  0  0  0  0
  -29.7830  -12.1770   17.8230 C   0  0  0  0  0  2  0  0  0  0  0  0
  -28.3380  -12.0810   18.3550 C   0  0  0  0  0  2  0  0  0  0  0  0
  -28.0790  -13.0330   19.5540 C   0  0  0  0  0  3  0  0  0  0  0  0
  -29.2020  -12.8910   20.6040 C   0  0  0  0  0  2  0  0  0  0  0  0
  -30.4760  -13.1770   19.9260 N   0  0  0  0  0  0  0  0  0  0  0  0
  -32.2450  -14.4990   19.3720 O   0  0  0  0  0  0  0  0  0  0  0  0
  -30.3810  -15.4700   20.0330 N   0  0  0  0  0  0  0  0  0  0  0  0
  -30.7590  -16.2320   19.4870 H   0  0  0  0  0  0  0  0  0  0  0  0
  -25.7970  -13.7320   20.5150 C   0  0  0  0  0  0  0  0  0  0  0  0
  -24.7230  -12.9970   20.9480 C   0  0  0  0  0  0  0  0  0  0  0  0
  -25.1010  -11.6260   20.7990 C   0  0  0  0  0  0  0  0  0  0  0  0
  -26.7620  -12.8100   20.1420 N   0  0  0  0  0  0  0  0  0  0  0  0
  -26.3510  -11.5350   20.3640 N   0  0  0  0  0  0  0  0  0  0  0  0
  -24.3250  -10.3940   20.9880 C   0  0  0  0  0  0  0  0  0  0  0  0
  -24.7110   -9.4130   21.9280 C   0  0  0  0  0  3  0  0  0  0  0  0
  -23.9360   -8.2470   22.1050 C   0  0  0  0  0  3  0  0  0  0  0  0
  -22.7630   -8.0520   21.3390 C   0  0  0  0  0  0  0  0  0  0  0  0
  -22.3950   -9.0220   20.3890 C   0  0  0  0  0  3  0  0  0  0  0  0
  -23.1700  -10.1800   20.2110 C   0  0  0  0  0  3  0  0  0  0  0  0
  -21.9620   -6.9380   21.4250 O   0  0  0  0  0  0  0  0  0  0  0  0
  -21.7850   -6.2670   22.6080 C   0  0  0  0  0  0  0  0  0  0  0  0
  -21.2290   -6.8930   23.7450 C   0  0  0  0  0  3  0  0  0  0  0  0
  -21.0010   -6.1480   24.9190 C   0  0  0  0  0  3  0  0  0  0  0  0
  -21.3200   -4.7770   24.9560 C   0  0  0  0  0  0  0  0  0  0  0  0
  -21.8710   -4.1500   23.8250 C   0  0  0  0  0  3  0  0  0  0  0  0
  -22.1010   -4.8940   22.6530 C   0  0  0  0  0  0  0  0  0  0  0  0
  -22.6090   -4.2810   21.5570 F   0  0  0  0  0  0  0  0  0  0  0  0
  -21.0950   -4.0590   26.0800 F   0  0  0  0  0  0  0  0  0  0  0  0
  -23.3880  -13.5300   21.3800 C   0  0  0  0  0  0  0  0  0  0  0  0
  -22.7170  -12.8360   22.2960 N   0  0  0  0  0  0  0  0  0  0  0  0
  -22.9550  -14.5950   20.9460 O   0  0  0  0  0  0  0  0  0  0  0  0
  -23.0830  -11.9730   22.6700 H   0  0  0  0  0  0  0  0  0  0  0  0
  -21.8240  -13.1720   22.6250 H   0  0  0  0  0  0  0  0  0  0  0  0
  -26.0280  -15.0980   20.3900 N   0  0  0  0  0  0  0  0  0  0  0  0
  -25.3090  -15.7880   20.5780 H   0  0  0  0  0  0  0  0  0  0  0  0
  -26.8640  -15.5040   19.9860 H   0  0  0  0  0  0  0  0  0  0  0  0
  -27.7770  -22.1880   19.2860 C   0  0  0  0  0  2  0  0  0  0  0  0
  -28.6710  -23.1720   18.4870 C   0  0  0  0  0  2  0  0  0  0  0  0
  -29.2280  -24.3830   19.2570 C   0  0  0  0  0  0  0  0  0  0  0  0
  -30.4000  -24.7410   19.0980 O   0  0  0  0  0  0  0  0  0  0  0  0
  -28.2890  -25.1600   20.1900 C   0  0  0  0  0  2  0  0  0  0  0  0
  -28.4640  -26.5800   20.0710 O   0  0  0  0  0  0  0  0  0  0  0  0
  -24.3770  -31.5360   23.1220 C   0  0  0  0  0  0  0  0  0  0  0  0
  -27.2850  -27.2840   20.0190 C   0  0  0  0  0  0  0  0  0  0  0  0
  -23.2860  -30.1680   21.3710 C   0  0  0  0  0  3  0  0  0  0  0  0
  -24.8470  -28.7170   19.9670 C   0  0  0  0  0  0  0  0  0  0  0  0
  -25.8080  -30.5970   21.3090 C   0  0  0  0  0  2  0  0  0  0  0  0
  -25.9610  -29.2530   20.6270 C   0  0  0  0  0  0  0  0  0  0  0  0
  -27.1830  -28.5450   20.6490 C   0  0  0  0  0  3  0  0  0  0  0  0
  -26.1560  -26.7610   19.3480 C   0  0  0  0  0  3  0  0  0  0  0  0
  -24.9400  -27.4710   19.3250 C   0  0  0  0  0  3  0  0  0  0  0  0
  -23.5780  -29.5420   19.9820 C   0  0  0  0  0  2  0  0  0  0  0  0
  -24.5050  -30.7790   21.9950 N   0  0  0  0  0  0  0  0  0  0  0  0
  -23.2660  -31.7620   23.6200 O   0  0  0  0  0  0  0  0  0  0  0  0
  -22.6160  -29.0960   22.2610 C   0  0  0  0  0  0  0  0  0  0  0  0
  -21.2900  -28.9380   22.1120 N   0  0  0  0  0  0  0  0  0  0  0  0
  -23.2860  -28.4120   23.0390 O   0  0  0  0  0  0  0  0  0  0  0  0
  -20.8090  -29.5470   21.4630 H   0  0  0  0  0  0  0  0  0  0  0  0
  -17.8990  -27.7640   22.5270 C   0  0  0  0  0  0  0  0  0  0  0  0
  -20.4600  -27.9570   22.8140 C   0  0  0  0  0  3  0  0  0  0  0  0
  -20.5370  -26.5690   22.1350 C   0  0  0  0  0  2  0  0  0  0  0  0
  -19.4280  -26.3370   21.1060 C   0  0  0  0  0  2  0  0  0  0  0  0
  -18.0510  -26.4600   21.7620 C   0  0  0  0  0  2  0  0  0  0  0  0
  -19.0310  -28.4710   23.0110 C   0  0  0  0  0  0  0  0  0  0  0  0
  -18.8370  -29.6940   23.6870 C   0  0  0  0  0  3  0  0  0  0  0  0
  -17.5420  -30.2100   23.8840 C   0  0  0  0  0  3  0  0  0  0  0  0
  -16.4240  -29.4980   23.4190 C   0  0  0  0  0  3  0  0  0  0  0  0
  -16.6030  -28.2760   22.7440 C   0  0  0  0  0  3  0  0  0  0  0  0
  -25.6170  -32.1730   23.8250 C   0  0  0  0  0  3  0  0  0  0  0  0
  -25.3060  -33.5880   24.0730 N   0  0  0  0  0  0  0  0  0  0  0  0
  -25.7700  -34.6080   23.3370 C   0  0  0  0  0  0  0  0  0  0  0  0
  -26.5750  -34.4560   22.4150 O   0  0  0  0  0  0  0  0  0  0  0  0
  -24.6060  -33.7830   24.7740 H   0  0  0  0  0  0  0  0  0  0  0  0
  -24.1850  -36.4430   22.6680 C   0  0  0  0  0  1  0  0  0  0  0  0
  -25.2600  -36.0200   23.6820 C   0  0  0  0  0  3  0  0  0  0  0  0
  -27.2580  -36.8570   24.8380 C   0  0  0  0  0  1  0  0  0  0  0  0
  -26.3330  -37.0370   23.7220 N   0  0  0  0  0  0  0  0  0  0  0  0
  -25.9420  -37.9740   23.7840 H   0  0  0  0  0  0  0  0  0  0  0  0
  -26.0120  -31.4460   25.1680 C   0  0  1  0  0  0  0  0  0  0  0  0
  -24.8340  -31.2870   26.1580 C   0  0  0  0  0  1  0  0  0  0  0  0
  -26.5760  -30.0370   24.8790 C   0  0  0  0  0  1  0  0  0  0  0  0
  -27.1340  -32.2350   25.8810 C   0  0  0  0  0  1  0  0  0  0  0  0
  -26.6470  -19.3850   18.7090 C   0  0  0  0  0  2  0  0  0  0  0  0
  -26.8090  -19.6650   17.3350 O   0  0  0  0  0  0  0  0  0  0  0  0
  -25.9650  -19.5300   16.9200 H   0  0  0  0  0  0  0  0  0  0  0  0
  2  1  2  0
  3  4  2  0
  4  1  1  0
  4  7  1  0
  5  2  1  0
  6  5  2  0
  6  3  1  0
  8  7  1  0
  9 15  1  0
  9 17  1  0
 10 15  1  0
 11 12  1  0
 11 10  1  0
 13 12  1  0
 13 22  1  0
 13 14  1  0
 15 14  1  0
 16  9  2  0
 17  8  1  0
 18 17  1  0
 19 20  2  0
 20 39  1  0
 21 20  1  0
 21 24  1  0
 22 23  1  0
 22 19  1  0
 23 21  2  0
 24 25  1  0
 25 26  2  0
 27 30  1  0
 27 26  1  0
 28 27  2  0
 29 28  1  0
 29 24  2  0
 30 31  1  0
 31 36  2  0
 31 32  1  0
 32 33  2  0
 33 34  1  0
 34 38  1  0
 35 34  2  0
 36 35  1  0
 37 36  1  0
 39 40  1  0
 40 43  1  0
 40 42  1  0
 41 39  2  0
 44 19  1  0
 44 45  1  0
 46 44  1  0
 47  5  1  0
 48 49  1  0
 48 47  1  0
 49 51  1  0
 50 49  2  0
 52 51  1  0
 53 64  2  0
 54 52  1  0
 54 59  1  0
 55 63  1  0
 55 65  1  0
 56 62  1  0
 56 58  1  0
 57 63  1  0
 58 59  2  0
 58 57  1  0
 60 54  2  0
 61 60  1  0
 61 56  2  0
 62 55  1  0
 63 53  1  0
 65 67  2  0
 66 65  1  0
 68 66  1  0
 69 78  2  0
 69 74  1  0
 70 66  1  0
 70 74  1  0
 71 70  1  0
 72 73  1  0
 72 71  1  0
 73 69  1  0
 74 75  2  0
 75 76  1  0
 77 76  2  0
 78 77  1  0
 79 53  1  0
 79 80  1  0
 79 89  1  0
 80 83  1  0
 81 85  1  0
 81 80  1  0
 82 81  2  0
 85 84  1  0
 85 87  1  0
 87 88  1  0
 87 86  1  0
 89 92  1  1
 89 90  1  0
 91 89  1  0
 93  6  1  0
 94 93  1  0
 95 94  1  0
M  ISO  4   9 100  17 100  51 101  52 101
M  END
>  <TORSDO>  (68) 
F 24

>  <SCORE>  (68) 
-11.699

>  <name>  (68) 
67

>  <ligand_id>  (68) 
67

>  <original_smiles>  (68) 
[H]OC([H])([H])c1c([H])c(C([H])([H])C([H])([H])N([H])C(=O)N2C([H])([H])C([H])([H])C([H])([H])C([H])(n3nc(-c4c([H])c([H])c(Oc5c([H])c([H])c(F)c([H])c5F)c([H])c4[H])c(C(=O)N([H])[H])c3N([H])[H])C2([H])[H])c([H])c([H])c1C([H])([H])C([H])([H])C(=O)C([H])([H])Oc1c([H])c([H])c2c(c1[H])C([H])([H])N(C(=O)C([H])(N([H])C(=O)C([H])(N([H])C([H])([H])[H])C([H])([H])[H])C(C([H])([H])[H])(C([H])([H])[H])C([H])([H])[H])C([H])(C(=O)N([H])C1([H])c3c([H])c([H])c([H])c([H])c3C([H])([H])C([H])([H])C1([H])[H])C2([H])[H]

>  <smiles>  (68) 
[H]OC([H])([H])c1c([H])c(C([H])([H])C([H])([H])N([H])C(=O)N2C([H])([H])C([H])([H])C([H])([H])C([H])(n3nc(-c4c([H])c([H])c(Oc5c([H])c([H])c(F)c([H])c5F)c([H])c4[H])c(C(=O)N([H])[H])c3N([H])[H])C2([H])[H])c([H])c([H])c1C([H])([H])C([H])([H])C(=O)C([H])([H])Oc1c([H])c([H])c2c(c1[H])C([H])([H])N(C(=O)C([H])(N([H])C(=O)C([H])(N([H])C([H])([H])[H])C([H])([H])[H])C(C([H])([H])[H])(C([H])([H])[H])C([H])([H])[H])C([H])(C(=O)N([H])C1([H])c3c([H])c([H])c([H])c([H])c3C([H])([H])C([H])([H])C1([H])[H])C2([H])[H]

$$$$
68:0:0
     RDKit          3D

 90 97  0  0  1  0  0  0  0  0999 V2000
  -30.4490  -21.6680   22.9140 C   0  0  0  0  0  2  0  0  0  0  0  0
  -30.7420  -22.9790   22.1800 C   0  0  0  0  0  2  0  0  0  0  0  0
  -29.4400  -23.5780   21.6430 C   0  0  0  0  0  2  0  0  0  0  0  0
  -29.6250  -24.9300   20.9540 C   0  0  0  0  0  2  0  0  0  0  0  0
  -28.3010  -25.4150   20.3660 C   0  0  0  0  0  2  0  0  0  0  0  0
  -28.4180  -26.7940   20.0680 O   0  0  0  0  0  0  0  0  0  0  0  0
  -24.6100  -31.8720   23.2140 C   0  0  0  0  0  0  0  0  0  0  0  0
  -27.2340  -27.4870   20.0760 C   0  0  0  0  0  0  0  0  0  0  0  0
  -23.3940  -30.4960   21.5550 C   0  0  0  0  0  3  0  0  0  0  0  0
  -24.8380  -28.9680   20.1160 C   0  0  0  0  0  0  0  0  0  0  0  0
  -25.9180  -30.8520   21.3580 C   0  0  0  0  0  2  0  0  0  0  0  0
  -25.9960  -29.4910   20.7040 C   0  0  0  0  0  0  0  0  0  0  0  0
  -27.1980  -28.7570   20.6810 C   0  0  0  0  0  3  0  0  0  0  0  0
  -26.0590  -26.9630   19.4900 C   0  0  0  0  0  3  0  0  0  0  0  0
  -24.8610  -27.7000   19.5090 C   0  0  0  0  0  3  0  0  0  0  0  0
  -23.5970  -29.8270   20.1690 C   0  0  0  0  0  2  0  0  0  0  0  0
  -24.6590  -31.0850   22.1020 N   0  0  0  0  0  0  0  0  0  0  0  0
  -23.5300  -32.1450   23.7570 O   0  0  0  0  0  0  0  0  0  0  0  0
  -22.7380  -29.4670   22.5030 C   0  0  0  0  0  0  0  0  0  0  0  0
  -21.4110  -29.3020   22.3770 N   0  0  0  0  0  0  0  0  0  0  0  0
  -23.4170  -28.8220   23.3050 O   0  0  0  0  0  0  0  0  0  0  0  0
  -20.9260  -29.8750   21.7010 H   0  0  0  0  0  0  0  0  0  0  0  0
  -18.0260  -28.1380   22.8500 C   0  0  0  0  0  0  0  0  0  0  0  0
  -20.5850  -28.3650   23.1350 C   0  0  0  0  0  3  0  0  0  0  0  0
  -20.6760  -26.9390   22.5430 C   0  0  0  0  0  2  0  0  0  0  0  0
  -19.5730  -26.6380   21.5230 C   0  0  0  0  0  2  0  0  0  0  0  0
  -18.1910  -26.7920   22.1630 C   0  0  0  0  0  2  0  0  0  0  0  0
  -19.1510  -28.8830   23.2920 C   0  0  0  0  0  0  0  0  0  0  0  0
  -18.9440  -30.1440   23.8930 C   0  0  0  0  0  3  0  0  0  0  0  0
  -17.6450  -30.6580   24.0570 C   0  0  0  0  0  3  0  0  0  0  0  0
  -16.5340  -29.9090   23.6330 C   0  0  0  0  0  3  0  0  0  0  0  0
  -16.7250  -28.6510   23.0350 C   0  0  0  0  0  3  0  0  0  0  0  0
  -25.9010  -32.4840   23.8410 C   0  0  0  0  0  3  0  0  0  0  0  0
  -26.4460  -31.6610   25.0720 C   0  0  1  0  0  0  0  0  0  0  0  0
  -25.3750  -31.3710   26.1480 C   0  0  0  0  0  1  0  0  0  0  0  0
  -27.0280  -30.3060   24.6050 C   0  0  0  0  0  1  0  0  0  0  0  0
  -27.6040  -32.4320   25.7480 C   0  0  0  0  0  1  0  0  0  0  0  0
  -25.5890  -33.8640   24.2350 N   0  0  0  0  0  0  0  0  0  0  0  0
  -25.9030  -34.9490   23.5140 C   0  0  0  0  0  0  0  0  0  0  0  0
  -26.5580  -34.8930   22.4690 O   0  0  0  0  0  0  0  0  0  0  0  0
  -25.0060  -33.9810   25.0510 H   0  0  0  0  0  0  0  0  0  0  0  0
  -24.1490  -36.7320   23.2640 C   0  0  0  0  0  1  0  0  0  0  0  0
  -25.4110  -36.3120   24.0340 C   0  0  0  0  0  3  0  0  0  0  0  0
  -27.5580  -37.1810   24.8460 C   0  0  0  0  0  1  0  0  0  0  0  0
  -26.4300  -37.3800   23.9410 N   0  0  0  0  0  0  0  0  0  0  0  0
  -26.0200  -38.2880   24.1410 H   0  0  0  0  0  0  0  0  0  0  0  0
  -31.6870  -20.7880   23.1040 C   0  0  0  0  0  2  0  0  0  0  0  0
  -31.2900  -19.3860   23.5780 C   0  0  0  0  0  2  0  0  0  0  0  0
  -32.3760  -18.3410   23.3120 C   0  0  0  0  0  2  0  0  0  0  0  0
  -31.8190  -16.9170   23.4140 C   0  0  0  0  0  2  0  0  0  0  0  0
  -32.8010  -15.8810   22.8620 C   0  0  0  0  0  2  0  0  0  0  0  0
  -32.2480  -14.4490   22.8830 C   0  0  0  0  0  2  0  0  0  0  0  0
  -30.9030  -14.1820   20.8060 C   0  0  0  0  0  0  0  0  0  0  0  0
  -30.3980  -12.2840   19.3420 C   0  0  0  0  0  2  0  0  0  0  0  0
  -29.4530  -12.5420   18.1620 C   0  0  0  0  0  2  0  0  0  0  0  0
  -27.9920  -12.3770   18.6060 C   0  0  0  0  0  2  0  0  0  0  0  0
  -27.6630  -13.2070   19.8730 C   0  0  0  0  0  3  0  0  0  0  0  0
  -28.7080  -12.9780   20.9880 C   0  0  0  0  0  2  0  0  0  0  0  0
  -30.0580  -13.1960   20.4390 N   0  0  0  0  0  0  0  0  0  0  0  0
  -31.7550  -14.6750   20.0600 O   0  0  0  0  0  0  0  0  0  0  0  0
  -30.9990  -14.2650   22.1390 N   0  0  0  0  0  0  0  0  0  0  0  0
  -30.2580  -13.7970   22.6410 H   0  0  0  0  0  0  0  0  0  0  0  0
  -25.2590  -13.8180   20.5690 C   0  0  0  0  0  0  0  0  0  0  0  0
  -24.1840  -13.0450   20.9170 C   0  0  0  0  0  0  0  0  0  0  0  0
  -24.6400  -11.6910   20.8720 C   0  0  0  0  0  0  0  0  0  0  0  0
  -26.3040  -12.9350   20.3400 N   0  0  0  0  0  0  0  0  0  0  0  0
  -25.9330  -11.6510   20.5770 N   0  0  0  0  0  0  0  0  0  0  0  0
  -23.9060  -10.4300   21.0390 C   0  0  0  0  0  0  0  0  0  0  0  0
  -24.3610   -9.4210   21.9170 C   0  0  0  0  0  3  0  0  0  0  0  0
  -23.6290   -8.2250   22.0750 C   0  0  0  0  0  3  0  0  0  0  0  0
  -22.4270   -8.0280   21.3540 C   0  0  0  0  0  0  0  0  0  0  0  0
  -21.9900   -9.0250   20.4640 C   0  0  0  0  0  3  0  0  0  0  0  0
  -22.7230  -10.2130   20.3050 C   0  0  0  0  0  3  0  0  0  0  0  0
  -21.6640   -6.8880   21.4240 O   0  0  0  0  0  0  0  0  0  0  0  0
  -21.6850   -6.0730   22.5280 C   0  0  0  0  0  0  0  0  0  0  0  0
  -21.4010   -6.5640   23.8210 C   0  0  0  0  0  3  0  0  0  0  0  0
  -21.3660   -5.6790   24.9180 C   0  0  0  0  0  3  0  0  0  0  0  0
  -21.6040   -4.3060   24.7230 C   0  0  0  0  0  0  0  0  0  0  0  0
  -21.8820   -3.8140   23.4350 C   0  0  0  0  0  3  0  0  0  0  0  0
  -21.9190   -4.6960   22.3400 C   0  0  0  0  0  0  0  0  0  0  0  0
  -22.1660   -4.2140   21.0980 F   0  0  0  0  0  0  0  0  0  0  0  0
  -21.5630   -3.4540   25.7740 F   0  0  0  0  0  0  0  0  0  0  0  0
  -22.7870  -13.5240   21.1840 C   0  0  0  0  0  0  0  0  0  0  0  0
  -22.0510  -12.8230   22.0400 N   0  0  0  0  0  0  0  0  0  0  0  0
  -22.3550  -14.5550   20.6700 O   0  0  0  0  0  0  0  0  0  0  0  0
  -22.4130  -11.9880   22.4770 H   0  0  0  0  0  0  0  0  0  0  0  0
  -21.1130  -13.1260   22.2620 H   0  0  0  0  0  0  0  0  0  0  0  0
  -25.4330  -15.1890   20.4100 N   0  0  0  0  0  0  0  0  0  0  0  0
  -24.6740  -15.8520   20.5240 H   0  0  0  0  0  0  0  0  0  0  0  0
  -26.2990  -15.6250   20.1160 H   0  0  0  0  0  0  0  0  0  0  0  0
  1 47  1  0
  2  1  1  0
  3  2  1  0
  4  3  1  0
  5  4  1  0
  6  8  1  0
  6  5  1  0
  7 18  2  0
  8 13  1  0
  9 17  1  0
  9 19  1  0
 10 16  1  0
 10 12  1  0
 11 17  1  0
 12 11  1  0
 13 12  2  0
 14 15  1  0
 14  8  2  0
 15 10  2  0
 16  9  1  0
 17  7  1  0
 19 21  2  0
 20 19  1  0
 22 20  1  0
 23 32  2  0
 23 28  1  0
 24 20  1  0
 24 28  1  0
 25 24  1  0
 26 27  1  0
 26 25  1  0
 27 23  1  0
 28 29  2  0
 29 30  1  0
 31 30  2  0
 32 31  1  0
 33  7  1  0
 33 38  1  0
 33 34  1  0
 34 37  1  1
 34 35  1  0
 36 34  1  0
 38 41  1  0
 39 43  1  0
 39 38  1  0
 40 39  2  0
 43 42  1  0
 45 43  1  0
 45 46  1  0
 45 44  1  0
 47 48  1  0
 49 50  1  0
 49 48  1  0
 51 52  1  0
 51 50  1  0
 53 61  1  0
 54 59  1  0
 55 56  1  0
 55 54  1  0
 57 56  1  0
 57 66  1  0
 57 58  1  0
 59 53  1  0
 59 58  1  0
 60 53  2  0
 61 62  1  0
 61 52  1  0
 63 64  2  0
 64 83  1  0
 65 64  1  0
 65 68  1  0
 66 63  1  0
 66 67  1  0
 67 65  2  0
 68 69  1  0
 69 70  2  0
 71 74  1  0
 71 70  1  0
 72 71  2  0
 73 72  1  0
 73 68  2  0
 74 75  1  0
 75 76  1  0
 76 77  2  0
 78 77  1  0
 78 82  1  0
 79 78  2  0
 80 75  2  0
 80 79  1  0
 81 80  1  0
 83 84  1  0
 84 87  1  0
 84 86  1  0
 85 83  2  0
 88 89  1  0
 88 63  1  0
 90 88  1  0
M  ISO  4   5 101   6 101  53 100  61 100
M  END
>  <TORSDO>  (69) 
F 26

>  <SCORE>  (69) 
-0.764

>  <name>  (69) 
68

>  <ligand_id>  (69) 
68

>  <original_smiles>  (69) 
[H]c1c([H])c([H])c2c(c1[H])C([H])([H])C([H])([H])C([H])([H])C2([H])N([H])C(=O)C1([H])N(C(=O)C([H])(N([H])C(=O)C([H])(N([H])C([H])([H])[H])C([H])([H])[H])C(C([H])([H])[H])(C([H])([H])[H])C([H])([H])[H])C([H])([H])c2c([H])c(OC([H])([H])C([H])([H])C([H])([H])C([H])([H])C([H])([H])C([H])([H])C([H])([H])C([H])([H])C([H])([H])C([H])([H])C([H])([H])N([H])C(=O)N3C([H])([H])C([H])([H])C([H])([H])C([H])(n4nc(-c5c([H])c([H])c(Oc6c([H])c([H])c(F)c([H])c6F)c([H])c5[H])c(C(=O)N([H])[H])c4N([H])[H])C3([H])[H])c([H])c([H])c2C1([H])[H]

>  <smiles>  (69) 
[H]c1c([H])c([H])c2c(c1[H])C([H])([H])C([H])([H])C([H])([H])C2([H])N([H])C(=O)C1([H])N(C(=O)C([H])(N([H])C(=O)C([H])(N([H])C([H])([H])[H])C([H])([H])[H])C(C([H])([H])[H])(C([H])([H])[H])C([H])([H])[H])C([H])([H])c2c([H])c(OC([H])([H])C([H])([H])C([H])([H])C([H])([H])C([H])([H])C([H])([H])C([H])([H])C([H])([H])C([H])([H])C([H])([H])C([H])([H])N([H])C(=O)N3C([H])([H])C([H])([H])C([H])([H])C([H])(n4nc(-c5c([H])c([H])c(Oc6c([H])c([H])c(F)c([H])c6F)c([H])c5[H])c(C(=O)N([H])[H])c4N([H])[H])C3([H])[H])c([H])c([H])c2C1([H])[H]

$$$$
69:0:0
     RDKit          3D

 95103  0  0  1  0  0  0  0  0999 V2000
  -27.9570  -21.0280   16.5460 C   0  0  0  0  0  3  0  0  0  0  0  0
  -30.3180  -20.7680   17.0930 C   0  0  0  0  0  3  0  0  0  0  0  0
  -28.0410  -22.4010   16.8440 C   0  0  0  0  0  3  0  0  0  0  0  0
  -30.4010  -22.1420   17.3940 C   0  0  0  0  0  3  0  0  0  0  0  0
  -29.1000  -20.2080   16.6550 C   0  0  0  0  0  0  0  0  0  0  0  0
  -29.2660  -22.9660   17.2540 C   0  0  0  0  0  0  0  0  0  0  0  0
  -29.3720  -24.4620   17.4910 C   0  0  0  0  0  2  0  0  0  0  0  0
  -28.8930  -24.8980   18.8830 C   0  0  0  0  0  2  0  0  0  0  0  0
  -28.9730  -26.4240   19.0440 C   0  0  0  0  0  2  0  0  0  0  0  0
  -28.5150  -26.8510   20.3250 O   0  0  0  0  0  0  0  0  0  0  0  0
  -24.6030  -31.9160   23.4210 C   0  0  0  0  0  0  0  0  0  0  0  0
  -27.3220  -27.5320   20.3390 C   0  0  0  0  0  0  0  0  0  0  0  0
  -23.4280  -30.5210   21.7460 C   0  0  0  0  0  3  0  0  0  0  0  0
  -24.9110  -28.9970   20.3390 C   0  0  0  0  0  0  0  0  0  0  0  0
  -25.9510  -30.8910   21.5970 C   0  0  0  0  0  2  0  0  0  0  0  0
  -26.0500  -29.5230   20.9580 C   0  0  0  0  0  0  0  0  0  0  0  0
  -27.2540  -28.7880   20.9730 C   0  0  0  0  0  3  0  0  0  0  0  0
  -26.1630  -27.0040   19.7280 C   0  0  0  0  0  3  0  0  0  0  0  0
  -24.9570  -27.7310   19.7280 C   0  0  0  0  0  3  0  0  0  0  0  0
  -23.6630  -29.8490   20.3660 C   0  0  0  0  0  2  0  0  0  0  0  0
  -24.6770  -31.1240   22.3140 N   0  0  0  0  0  0  0  0  0  0  0  0
  -23.5120  -32.1820   23.9440 O   0  0  0  0  0  0  0  0  0  0  0  0
  -22.7650  -29.4900   22.6880 C   0  0  0  0  0  0  0  0  0  0  0  0
  -21.4470  -29.2990   22.5270 N   0  0  0  0  0  0  0  0  0  0  0  0
  -23.4350  -28.8670   23.5160 O   0  0  0  0  0  0  0  0  0  0  0  0
  -20.9690  -29.8550   21.8320 H   0  0  0  0  0  0  0  0  0  0  0  0
  -18.0690  -28.0860   22.9360 C   0  0  0  0  0  0  0  0  0  0  0  0
  -20.6180  -28.3530   23.2720 C   0  0  0  0  0  3  0  0  0  0  0  0
  -20.7410  -26.9250   22.6900 C   0  0  0  0  0  2  0  0  0  0  0  0
  -19.6660  -26.6030   21.6480 C   0  0  0  0  0  2  0  0  0  0  0  0
  -18.2680  -26.7400   22.2590 C   0  0  0  0  0  2  0  0  0  0  0  0
  -19.1730  -28.8500   23.3970 C   0  0  0  0  0  0  0  0  0  0  0  0
  -18.9350  -30.1100   23.9870 C   0  0  0  0  0  3  0  0  0  0  0  0
  -17.6260  -30.6060   24.1220 C   0  0  0  0  0  3  0  0  0  0  0  0
  -16.5350  -29.8390   23.6780 C   0  0  0  0  0  3  0  0  0  0  0  0
  -16.7570  -28.5800   23.0910 C   0  0  0  0  0  3  0  0  0  0  0  0
  -25.8780  -32.5410   24.0680 C   0  0  0  0  0  3  0  0  0  0  0  0
  -26.3730  -31.7640   25.3490 C   0  0  1  0  0  0  0  0  0  0  0  0
  -25.2590  -31.5120   26.3910 C   0  0  0  0  0  1  0  0  0  0  0  0
  -26.9720  -30.3930   24.9560 C   0  0  0  0  0  1  0  0  0  0  0  0
  -27.5050  -32.5600   26.0410 C   0  0  0  0  0  1  0  0  0  0  0  0
  -25.5690  -33.9390   24.3940 N   0  0  0  0  0  0  0  0  0  0  0  0
  -25.9190  -34.9910   23.6420 C   0  0  0  0  0  0  0  0  0  0  0  0
  -26.6100  -34.8860   22.6240 O   0  0  0  0  0  0  0  0  0  0  0  0
  -24.9600  -34.0950   25.1850 H   0  0  0  0  0  0  0  0  0  0  0  0
  -24.2060  -36.7870   23.2470 C   0  0  0  0  0  1  0  0  0  0  0  0
  -25.4240  -36.3780   24.0900 C   0  0  0  0  0  3  0  0  0  0  0  0
  -27.5370  -37.2530   24.9800 C   0  0  0  0  0  1  0  0  0  0  0  0
  -26.4620  -37.4280   24.0080 N   0  0  0  0  0  0  0  0  0  0  0  0
  -26.0560  -38.3490   24.1470 H   0  0  0  0  0  0  0  0  0  0  0  0
  -29.0310  -18.7430   16.2540 C   0  0  0  0  0  2  0  0  0  0  0  0
  -29.1640  -17.7560   17.4280 C   0  0  0  0  0  2  0  0  0  0  0  0
  -28.0010  -17.8100   18.4390 C   0  0  0  0  0  2  0  0  0  0  0  0
  -28.2770  -18.6200   19.7230 C   0  0  0  0  0  2  0  0  0  0  0  0
  -28.8800  -17.8030   20.8830 C   0  0  0  0  0  2  0  0  0  0  0  0
  -30.4090  -17.6290   20.8260 C   0  0  0  0  0  2  0  0  0  0  0  0
  -30.9460  -16.6420   21.8800 C   0  0  0  0  0  2  0  0  0  0  0  0
  -31.0270  -14.4440   20.7190 C   0  0  0  0  0  0  0  0  0  0  0  0
  -30.6790  -12.4030   19.3850 C   0  0  0  0  0  2  0  0  0  0  0  0
  -29.7760  -12.7090   18.1740 C   0  0  0  0  0  2  0  0  0  0  0  0
  -28.2880  -12.5810   18.5560 C   0  0  0  0  0  2  0  0  0  0  0  0
  -27.9390  -13.3610   19.8510 C   0  0  0  0  0  3  0  0  0  0  0  0
  -28.9500  -13.0360   20.9740 C   0  0  0  0  0  2  0  0  0  0  0  0
  -30.3080  -13.3200   20.4720 N   0  0  0  0  0  0  0  0  0  0  0  0
  -32.0880  -14.7140   20.1470 O   0  0  0  0  0  0  0  0  0  0  0  0
  -30.4850  -15.2820   21.6120 N   0  0  0  0  0  0  0  0  0  0  0  0
  -29.6360  -14.9770   22.0670 H   0  0  0  0  0  0  0  0  0  0  0  0
  -25.5110  -13.9860   20.4450 C   0  0  0  0  0  0  0  0  0  0  0  0
  -24.4270  -13.2220   20.7840 C   0  0  0  0  0  0  0  0  0  0  0  0
  -24.8850  -11.8690   20.7920 C   0  0  0  0  0  0  0  0  0  0  0  0
  -26.5630  -13.1000   20.2730 N   0  0  0  0  0  0  0  0  0  0  0  0
  -26.1860  -11.8220   20.5360 N   0  0  0  0  0  0  0  0  0  0  0  0
  -24.1490  -10.6110   20.9750 C   0  0  0  0  0  0  0  0  0  0  0  0
  -24.5290   -9.6680   21.9550 C   0  0  0  0  0  3  0  0  0  0  0  0
  -23.7950   -8.4750   22.1220 C   0  0  0  0  0  3  0  0  0  0  0  0
  -22.6660   -8.2150   21.3100 C   0  0  0  0  0  0  0  0  0  0  0  0
  -22.3060   -9.1480   20.3200 C   0  0  0  0  0  3  0  0  0  0  0  0
  -23.0410  -10.3330   20.1500 C   0  0  0  0  0  3  0  0  0  0  0  0
  -21.9090   -7.0720   21.3830 O   0  0  0  0  0  0  0  0  0  0  0  0
  -21.7680   -6.3760   22.5570 C   0  0  0  0  0  0  0  0  0  0  0  0
  -21.2390   -6.9770   23.7200 C   0  0  0  0  0  3  0  0  0  0  0  0
  -21.0480   -6.2070   24.8850 C   0  0  0  0  0  3  0  0  0  0  0  0
  -21.3740   -4.8370   24.8870 C   0  0  0  0  0  0  0  0  0  0  0  0
  -21.8940   -4.2360   23.7280 C   0  0  0  0  0  3  0  0  0  0  0  0
  -22.0880   -5.0030   22.5650 C   0  0  0  0  0  0  0  0  0  0  0  0
  -22.5700   -4.4140   21.4440 F   0  0  0  0  0  0  0  0  0  0  0  0
  -21.1820   -4.0960   26.0030 F   0  0  0  0  0  0  0  0  0  0  0  0
  -23.0210  -13.7060   20.9950 C   0  0  0  0  0  0  0  0  0  0  0  0
  -22.2630  -13.0320   21.8550 N   0  0  0  0  0  0  0  0  0  0  0  0
  -22.6010  -14.7180   20.4350 O   0  0  0  0  0  0  0  0  0  0  0  0
  -22.6150  -12.2140   22.3310 H   0  0  0  0  0  0  0  0  0  0  0  0
  -21.3190  -13.3400   22.0400 H   0  0  0  0  0  0  0  0  0  0  0  0
  -25.6860  -15.3530   20.2530 N   0  0  0  0  0  0  0  0  0  0  0  0
  -24.9180  -16.0120   20.3210 H   0  0  0  0  0  0  0  0  0  0  0  0
  -26.5530  -15.7850   19.9620 H   0  0  0  0  0  0  0  0  0  0  0  0
  1  5  2  0
  1  3  1  0
  2  4  2  0
  3  6  2  0
  5  2  1  0
  6  4  1  0
  6  7  1  0
  7  8  1  0
  8  9  1  0
  9 10  1  0
 10 12  1  0
 11 22  2  0
 12 17  1  0
 13 21  1  0
 13 23  1  0
 14 20  1  0
 14 16  1  0
 15 21  1  0
 16 17  2  0
 16 15  1  0
 18 19  1  0
 18 12  2  0
 19 14  2  0
 20 13  1  0
 21 11  1  0
 23 25  2  0
 24 23  1  0
 26 24  1  0
 27 36  2  0
 27 32  1  0
 28 24  1  0
 28 32  1  0
 29 28  1  0
 30 31  1  0
 30 29  1  0
 31 27  1  0
 32 33  2  0
 33 34  1  0
 35 34  2  0
 36 35  1  0
 37 11  1  0
 37 42  1  0
 37 38  1  0
 38 41  1  1
 38 39  1  0
 40 38  1  0
 42 45  1  0
 43 47  1  0
 43 42  1  0
 44 43  2  0
 47 46  1  0
 49 47  1  0
 49 50  1  0
 49 48  1  0
 51  5  1  0
 51 52  1  0
 52 53  1  0
 53 54  1  0
 54 55  1  0
 56 55  1  0
 56 57  1  0
 58 66  1  0
 59 64  1  0
 60 61  1  0
 60 59  1  0
 62 61  1  0
 62 71  1  0
 62 63  1  0
 64 58  1  0
 64 63  1  0
 65 58  2  0
 66 57  1  0
 66 67  1  0
 68 69  2  0
 69 70  1  0
 69 88  1  0
 70 73  1  0
 71 68  1  0
 71 72  1  0
 72 70  2  0
 73 74  1  0
 74 75  2  0
 76 79  1  0
 76 75  1  0
 77 76  2  0
 78 77  1  0
 78 73  2  0
 79 80  1  0
 80 85  2  0
 80 81  1  0
 81 82  2  0
 82 83  1  0
 83 87  1  0
 84 83  2  0
 85 84  1  0
 86 85  1  0
 88 89  1  0
 89 92  1  0
 89 91  1  0
 90 88  2  0
 93 94  1  0
 93 68  1  0
 95 93  1  0
M  ISO  4   9 101  10 101  58 100  66 100
M  END
>  <TORSDO>  (70) 
F 26

>  <SCORE>  (70) 
-10.525

>  <name>  (70) 
69

>  <ligand_id>  (70) 
69

>  <original_smiles>  (70) 
[H]c1c([H])c([H])c2c(c1[H])C([H])([H])C([H])([H])C([H])([H])C2([H])N([H])C(=O)C1([H])N(C(=O)C([H])(N([H])C(=O)C([H])(N([H])C([H])([H])[H])C([H])([H])[H])C(C([H])([H])[H])(C([H])([H])[H])C([H])([H])[H])C([H])([H])c2c([H])c(OC([H])([H])C([H])([H])C([H])([H])c3c([H])c([H])c(C([H])([H])C([H])([H])C([H])([H])C([H])([H])C([H])([H])C([H])([H])C([H])([H])N([H])C(=O)N4C([H])([H])C([H])([H])C([H])([H])C([H])(n5nc(-c6c([H])c([H])c(Oc7c([H])c([H])c(F)c([H])c7F)c([H])c6[H])c(C(=O)N([H])[H])c5N([H])[H])C4([H])[H])c([H])c3[H])c([H])c([H])c2C1([H])[H]

>  <smiles>  (70) 
[H]c1c([H])c([H])c2c(c1[H])C([H])([H])C([H])([H])C([H])([H])C2([H])N([H])C(=O)C1([H])N(C(=O)C([H])(N([H])C(=O)C([H])(N([H])C([H])([H])[H])C([H])([H])[H])C(C([H])([H])[H])(C([H])([H])[H])C([H])([H])[H])C([H])([H])c2c([H])c(OC([H])([H])C([H])([H])C([H])([H])c3c([H])c([H])c(C([H])([H])C([H])([H])C([H])([H])C([H])([H])C([H])([H])C([H])([H])C([H])([H])N([H])C(=O)N4C([H])([H])C([H])([H])C([H])([H])C([H])(n5nc(-c6c([H])c([H])c(Oc7c([H])c([H])c(F)c([H])c7F)c([H])c6[H])c(C(=O)N([H])[H])c5N([H])[H])C4([H])[H])c([H])c3[H])c([H])c([H])c2C1([H])[H]

$$$$
70:0:0
     RDKit          3D

 92 99  0  0  1  0  0  0  0  0999 V2000
  -27.8920  -22.7930   22.1680 C   0  0  0  0  0  0  0  0  0  0  0  0
  -27.6060  -24.0710   21.8910 N   0  0  0  0  0  0  0  0  0  0  0  0
  -28.7950  -22.4760   22.9420 O   0  0  0  0  0  0  0  0  0  0  0  0
  -26.7970  -24.2680   21.3140 H   0  0  0  0  0  0  0  0  0  0  0  0
  -27.0510  -21.7160   21.4790 C   0  0  0  0  0  2  0  0  0  0  0  0
  -27.8330  -20.8710   20.4520 C   0  0  0  0  0  2  0  0  0  0  0  0
  -29.1000  -20.1890   21.0050 C   0  0  0  0  0  2  0  0  0  0  0  0
  -29.4280  -18.8850   20.2770 C   0  0  0  0  0  2  0  0  0  0  0  0
  -30.6280  -18.1400   20.8830 C   0  0  0  0  0  2  0  0  0  0  0  0
  -30.5530  -16.6530   20.5210 C   0  0  0  0  0  2  0  0  0  0  0  0
  -32.1630  -14.8250   20.3690 C   0  0  0  0  0  0  0  0  0  0  0  0
  -31.7750  -12.5120   19.5990 C   0  0  0  0  0  2  0  0  0  0  0  0
  -30.8830  -12.4770   18.3420 C   0  0  0  0  0  2  0  0  0  0  0  0
  -29.3900  -12.4930   18.7210 C   0  0  0  0  0  2  0  0  0  0  0  0
  -29.0500  -13.6030   19.7490 C   0  0  0  0  0  3  0  0  0  0  0  0
  -30.0440  -13.5550   20.9330 C   0  0  0  0  0  2  0  0  0  0  0  0
  -31.4060  -13.6950   20.3900 N   0  0  0  0  0  0  0  0  0  0  0  0
  -33.2710  -14.8860   19.8310 O   0  0  0  0  0  0  0  0  0  0  0  0
  -31.6910  -15.8910   21.0290 N   0  0  0  0  0  0  0  0  0  0  0  0
  -32.4420  -16.4950   21.3300 H   0  0  0  0  0  0  0  0  0  0  0  0
  -26.7600  -14.5260   20.4660 C   0  0  0  0  0  0  0  0  0  0  0  0
  -25.5790  -13.9010   20.7680 C   0  0  0  0  0  0  0  0  0  0  0  0
  -25.8330  -12.5000   20.6500 C   0  0  0  0  0  0  0  0  0  0  0  0
  -27.6640  -13.5110   20.1940 N   0  0  0  0  0  0  0  0  0  0  0  0
  -27.1080  -12.2850   20.3600 N   0  0  0  0  0  0  0  0  0  0  0  0
  -24.9220  -11.3530   20.7480 C   0  0  0  0  0  0  0  0  0  0  0  0
  -25.1930  -10.2700   21.6130 C   0  0  0  0  0  3  0  0  0  0  0  0
  -24.2960   -9.1830   21.7020 C   0  0  0  0  0  3  0  0  0  0  0  0
  -23.1130   -9.1750   20.9260 C   0  0  0  0  0  0  0  0  0  0  0  0
  -22.8600  -10.2440   20.0470 C   0  0  0  0  0  3  0  0  0  0  0  0
  -23.7560  -11.3220   19.9560 C   0  0  0  0  0  3  0  0  0  0  0  0
  -22.1950   -8.1530   20.9280 O   0  0  0  0  0  0  0  0  0  0  0  0
  -21.9950   -7.3680   22.0350 C   0  0  0  0  0  0  0  0  0  0  0  0
  -21.6390   -7.9200   23.2850 C   0  0  0  0  0  3  0  0  0  0  0  0
  -21.3770   -7.0710   24.3790 C   0  0  0  0  0  3  0  0  0  0  0  0
  -21.4630   -5.6730   24.2220 C   0  0  0  0  0  0  0  0  0  0  0  0
  -21.8110   -5.1230   22.9760 C   0  0  0  0  0  3  0  0  0  0  0  0
  -22.0750   -5.9690   21.8860 C   0  0  0  0  0  0  0  0  0  0  0  0
  -22.3900   -5.4340   20.6810 F   0  0  0  0  0  0  0  0  0  0  0  0
  -21.2030   -4.8570   25.2710 F   0  0  0  0  0  0  0  0  0  0  0  0
  -24.2600  -14.5640   21.0520 C   0  0  0  0  0  0  0  0  0  0  0  0
  -23.4270  -13.9400   21.8750 N   0  0  0  0  0  0  0  0  0  0  0  0
  -23.9840  -15.6650   20.5800 O   0  0  0  0  0  0  0  0  0  0  0  0
  -23.6640  -13.0510   22.2890 H   0  0  0  0  0  0  0  0  0  0  0  0
  -22.5360  -14.3610   22.0940 H   0  0  0  0  0  0  0  0  0  0  0  0
  -27.1340  -15.8640   20.3820 N   0  0  0  0  0  0  0  0  0  0  0  0
  -26.4780  -16.6210   20.5360 H   0  0  0  0  0  0  0  0  0  0  0  0
  -28.0570  -16.1840   20.1220 H   0  0  0  0  0  0  0  0  0  0  0  0
  -28.3820  -25.1990   22.3970 C   0  0  0  0  0  2  0  0  0  0  0  0
  -29.7220  -25.3570   21.6450 C   0  0  0  0  0  2  0  0  0  0  0  0
  -29.5500  -25.9590   20.2520 C   0  0  0  0  0  2  0  0  0  0  0  0
  -29.3770  -27.3610   20.4450 O   0  0  0  0  0  0  0  0  0  0  0  0
  -24.8580  -31.9720   23.4170 C   0  0  0  0  0  0  0  0  0  0  0  0
  -28.1140  -27.9050   20.4110 C   0  0  0  0  0  0  0  0  0  0  0  0
  -23.9170  -30.5390   21.6370 C   0  0  0  0  0  3  0  0  0  0  0  0
  -25.6020  -29.1870   20.3000 C   0  0  0  0  0  0  0  0  0  0  0  0
  -26.4130  -31.1090   21.6750 C   0  0  0  0  0  2  0  0  0  0  0  0
  -26.6610  -29.7800   20.9990 C   0  0  0  0  0  0  0  0  0  0  0  0
  -27.9150  -29.1440   21.0580 C   0  0  0  0  0  3  0  0  0  0  0  0
  -27.0340  -27.3180   19.7100 C   0  0  0  0  0  3  0  0  0  0  0  0
  -25.7800  -27.9500   19.6630 C   0  0  0  0  0  3  0  0  0  0  0  0
  -24.2970  -29.9410   20.2590 C   0  0  0  0  0  2  0  0  0  0  0  0
  -25.0740  -31.2240   22.3020 N   0  0  0  0  0  0  0  0  0  0  0  0
  -23.7160  -32.1320   23.8700 O   0  0  0  0  0  0  0  0  0  0  0  0
  -23.2860  -29.4260   22.5030 C   0  0  0  0  0  0  0  0  0  0  0  0
  -21.9910  -29.1580   22.2760 N   0  0  0  0  0  0  0  0  0  0  0  0
  -23.9600  -28.8110   23.3330 O   0  0  0  0  0  0  0  0  0  0  0  0
  -21.5080  -29.7140   21.5850 H   0  0  0  0  0  0  0  0  0  0  0  0
  -18.6710  -27.7530   22.5150 C   0  0  0  0  0  0  0  0  0  0  0  0
  -21.1930  -28.1310   22.9460 C   0  0  0  0  0  3  0  0  0  0  0  0
  -21.4100  -26.7460   22.2930 C   0  0  0  0  0  2  0  0  0  0  0  0
  -20.3820  -26.4270   21.2020 C   0  0  0  0  0  2  0  0  0  0  0  0
  -18.9620  -26.4580   21.7750 C   0  0  0  0  0  2  0  0  0  0  0  0
  -19.7210  -28.5470   23.0500 C   0  0  0  0  0  0  0  0  0  0  0  0
  -19.4010  -29.7610   23.6950 C   0  0  0  0  0  3  0  0  0  0  0  0
  -18.0630  -30.1820   23.8170 C   0  0  0  0  0  3  0  0  0  0  0  0
  -17.0260  -29.3840   23.3020 C   0  0  0  0  0  3  0  0  0  0  0  0
  -17.3310  -28.1720   22.6570 C   0  0  0  0  0  3  0  0  0  0  0  0
  -26.0290  -32.6840   24.1630 C   0  0  0  0  0  3  0  0  0  0  0  0
  -26.4440  -31.9590   25.5020 C   0  0  1  0  0  0  0  0  0  0  0  0
  -25.2520  -31.6340   26.4300 C   0  0  0  0  0  1  0  0  0  0  0  0
  -27.1810  -30.6330   25.2010 C   0  0  0  0  0  1  0  0  0  0  0  0
  -27.4330  -32.8470   26.2930 C   0  0  0  0  0  1  0  0  0  0  0  0
  -25.6070  -34.0650   24.4290 N   0  0  0  0  0  0  0  0  0  0  0  0
  -25.9550  -35.1230   23.6830 C   0  0  0  0  0  0  0  0  0  0  0  0
  -26.7370  -35.0450   22.7320 O   0  0  0  0  0  0  0  0  0  0  0  0
  -24.9310  -34.2000   25.1660 H   0  0  0  0  0  0  0  0  0  0  0  0
  -24.1650  -36.7930   23.1110 C   0  0  0  0  0  1  0  0  0  0  0  0
  -25.3400  -36.4880   24.0530 C   0  0  0  0  0  3  0  0  0  0  0  0
  -27.3340  -37.5110   25.0550 C   0  0  0  0  0  1  0  0  0  0  0  0
  -26.3120  -37.6020   24.0150 N   0  0  0  0  0  0  0  0  0  0  0  0
  -25.8390  -38.4960   24.1120 H   0  0  0  0  0  0  0  0  0  0  0  0
  1  3  2  0
  2  1  1  0
  2 49  1  0
  4  2  1  0
  5  1  1  0
  6  7  1  0
  6  5  1  0
  8  9  1  0
  8  7  1  0
 10  9  1  0
 10 19  1  0
 11 17  1  0
 11 19  1  0
 12 17  1  0
 13 14  1  0
 13 12  1  0
 15 14  1  0
 15 24  1  0
 15 16  1  0
 17 16  1  0
 18 11  2  0
 19 20  1  0
 21 22  2  0
 22 41  1  0
 23 26  1  0
 23 22  1  0
 24 25  1  0
 24 21  1  0
 25 23  2  0
 26 27  1  0
 27 28  2  0
 29 32  1  0
 29 28  1  0
 30 29  2  0
 31 30  1  0
 31 26  2  0
 32 33  1  0
 33 34  1  0
 34 35  2  0
 36 35  1  0
 36 40  1  0
 37 36  2  0
 38 33  2  0
 38 37  1  0
 39 38  1  0
 41 42  1  0
 42 45  1  0
 42 44  1  0
 43 41  2  0
 46 21  1  0
 46 47  1  0
 48 46  1  0
 50 49  1  0
 51 52  1  0
 51 50  1  0
 53 64  2  0
 54 52  1  0
 54 59  1  0
 55 63  1  0
 55 65  1  0
 56 58  1  0
 57 63  1  0
 58 59  2  0
 58 57  1  0
 60 54  2  0
 61 60  1  0
 61 56  2  0
 62 56  1  0
 62 55  1  0
 63 53  1  0
 65 67  2  0
 66 65  1  0
 68 66  1  0
 69 78  2  0
 69 74  1  0
 70 66  1  0
 70 74  1  0
 71 70  1  0
 72 73  1  0
 72 71  1  0
 73 69  1  0
 74 75  2  0
 75 76  1  0
 77 76  2  0
 78 77  1  0
 79 53  1  0
 79 84  1  0
 79 80  1  0
 80 83  1  1
 80 81  1  0
 82 80  1  0
 84 87  1  0
 85 89  1  0
 85 84  1  0
 86 85  2  0
 89 88  1  0
 91 89  1  0
 91 92  1  0
 91 90  1  0
M  ISO  4  11 100  19 100  51 101  52 101
M  END
>  <TORSDO>  (71) 
F 25

>  <SCORE>  (71) 
-8.802

>  <name>  (71) 
70

>  <ligand_id>  (71) 
70

>  <original_smiles>  (71) 
[H]c1c([H])c([H])c2c(c1[H])C([H])([H])C([H])([H])C([H])([H])C2([H])N([H])C(=O)C1([H])N(C(=O)C([H])(N([H])C(=O)C([H])(N([H])C([H])([H])[H])C([H])([H])[H])C(C([H])([H])[H])(C([H])([H])[H])C([H])([H])[H])C([H])([H])c2c([H])c(OC([H])([H])C([H])([H])C([H])([H])N([H])C(=O)C([H])([H])C([H])([H])C([H])([H])C([H])([H])C([H])([H])C([H])([H])N([H])C(=O)N3C([H])([H])C([H])([H])C([H])([H])C([H])(n4nc(-c5c([H])c([H])c(Oc6c([H])c([H])c(F)c([H])c6F)c([H])c5[H])c(C(=O)N([H])[H])c4N([H])[H])C3([H])[H])c([H])c([H])c2C1([H])[H]

>  <smiles>  (71) 
[H]c1c([H])c([H])c2c(c1[H])C([H])([H])C([H])([H])C([H])([H])C2([H])N([H])C(=O)C1([H])N(C(=O)C([H])(N([H])C(=O)C([H])(N([H])C([H])([H])[H])C([H])([H])[H])C(C([H])([H])[H])(C([H])([H])[H])C([H])([H])[H])C([H])([H])c2c([H])c(OC([H])([H])C([H])([H])C([H])([H])N([H])C(=O)C([H])([H])C([H])([H])C([H])([H])C([H])([H])C([H])([H])C([H])([H])N([H])C(=O)N3C([H])([H])C([H])([H])C([H])([H])C([H])(n4nc(-c5c([H])c([H])c(Oc6c([H])c([H])c(F)c([H])c6F)c([H])c5[H])c(C(=O)N([H])[H])c4N([H])[H])C3([H])[H])c([H])c([H])c2C1([H])[H]

$$$$
71:0:0
     RDKit          3D

 97105  0  0  1  0  0  0  0  0999 V2000
  -34.4490  -27.9600   21.8320 C   0  0  0  0  0  3  0  0  0  0  0  0
  -34.5860  -27.1280   20.7090 C   0  0  0  0  0  3  0  0  0  0  0  0
  -33.1730  -28.3890   22.2390 C   0  0  0  0  0  3  0  0  0  0  0  0
  -32.1700  -27.1880   20.3710 C   0  0  0  0  0  3  0  0  0  0  0  0
  -33.4490  -26.7150   19.9760 C   0  0  0  0  0  0  0  0  0  0  0  0
  -32.0230  -28.0100   21.5160 C   0  0  0  0  0  0  0  0  0  0  0  0
  -33.6460  -25.7950   18.8140 C   0  0  0  0  0  0  0  0  0  0  0  0
  -34.6020  -25.8900   18.0370 O   0  0  0  0  0  0  0  0  0  0  0  0
  -32.6420  -24.6590   18.5910 C   0  0  0  0  0  2  0  0  0  0  0  0
  -31.2530  -24.9430   19.2010 C   0  0  0  0  0  2  0  0  0  0  0  0
  -30.1060  -24.7140   18.2010 C   0  0  0  0  0  2  0  0  0  0  0  0
  -28.7520  -25.2160   18.7250 C   0  0  0  0  0  2  0  0  0  0  0  0
  -27.5780  -24.6250   17.9350 C   0  0  0  0  0  2  0  0  0  0  0  0
  -26.2040  -25.0730   18.4550 C   0  0  0  0  0  2  0  0  0  0  0  0
  -25.0710  -24.5170   17.5760 C   0  0  0  0  0  2  0  0  0  0  0  0
  -23.4490  -26.4030   17.7370 C   0  0  0  0  0  0  0  0  0  0  0  0
  -21.5790  -27.9680   17.3700 C   0  0  0  0  0  2  0  0  0  0  0  0
  -21.1700  -28.7240   18.6460 C   0  0  0  0  0  2  0  0  0  0  0  0
  -20.1530  -27.9060   19.4620 C   0  0  0  0  0  2  0  0  0  0  0  0
  -20.6160  -26.4440   19.6870 C   0  0  0  0  0  3  0  0  0  0  0  0
  -21.0790  -25.7980   18.3630 C   0  0  0  0  0  2  0  0  0  0  0  0
  -22.1160  -26.6560   17.7550 N   0  0  0  0  0  0  0  0  0  0  0  0
  -24.3030  -27.2580   17.4850 O   0  0  0  0  0  0  0  0  0  0  0  0
  -23.7720  -25.1110   17.8770 N   0  0  0  0  0  0  0  0  0  0  0  0
  -23.0090  -24.4770   18.0590 H   0  0  0  0  0  0  0  0  0  0  0  0
  -19.6060  -24.9720   21.5460 C   0  0  0  0  0  0  0  0  0  0  0  0
  -18.3530  -24.4490   21.7190 C   0  0  0  0  0  0  0  0  0  0  0  0
  -17.5960  -24.8500   20.5770 C   0  0  0  0  0  0  0  0  0  0  0  0
  -19.5740  -25.6480   20.3350 N   0  0  0  0  0  0  0  0  0  0  0  0
  -18.3640  -25.5250   19.7290 N   0  0  0  0  0  0  0  0  0  0  0  0
  -16.1700  -24.6820   20.2660 C   0  0  0  0  0  0  0  0  0  0  0  0
  -15.6940  -24.7170   18.9360 C   0  0  0  0  0  3  0  0  0  0  0  0
  -14.3220  -24.5350   18.6630 C   0  0  0  0  0  3  0  0  0  0  0  0
  -13.4100  -24.3110   19.7230 C   0  0  0  0  0  0  0  0  0  0  0  0
  -13.8870  -24.3020   21.0450 C   0  0  0  0  0  3  0  0  0  0  0  0
  -15.2530  -24.4890   21.3170 C   0  0  0  0  0  3  0  0  0  0  0  0
  -12.0570  -24.1490   19.5540 O   0  0  0  0  0  0  0  0  0  0  0  0
  -11.4650  -24.2680   18.3230 C   0  0  0  0  0  0  0  0  0  0  0  0
  -12.0090  -23.6570   17.1720 C   0  0  0  0  0  3  0  0  0  0  0  0
  -11.3330  -23.7480   15.9400 C   0  0  0  0  0  3  0  0  0  0  0  0
  -10.1080  -24.4400   15.8570 C   0  0  0  0  0  0  0  0  0  0  0  0
   -9.5610  -25.0440   17.0030 C   0  0  0  0  0  3  0  0  0  0  0  0
  -10.2370  -24.9560   18.2330 C   0  0  0  0  0  0  0  0  0  0  0  0
   -9.6960  -25.5220   19.3390 F   0  0  0  0  0  0  0  0  0  0  0  0
   -9.4530  -24.5210   14.6760 F   0  0  0  0  0  0  0  0  0  0  0  0
  -17.8530  -23.6980   22.9210 C   0  0  0  0  0  0  0  0  0  0  0  0
  -16.8780  -22.8170   22.7330 N   0  0  0  0  0  0  0  0  0  0  0  0
  -18.3640  -23.8560   24.0290 O   0  0  0  0  0  0  0  0  0  0  0  0
  -16.4740  -22.6710   21.8190 H   0  0  0  0  0  0  0  0  0  0  0  0
  -16.5280  -22.2810   23.5150 H   0  0  0  0  0  0  0  0  0  0  0  0
  -20.7630  -24.9450   22.3200 N   0  0  0  0  0  0  0  0  0  0  0  0
  -20.7960  -24.5030   23.2310 H   0  0  0  0  0  0  0  0  0  0  0  0
  -21.6290  -25.4060   22.0700 H   0  0  0  0  0  0  0  0  0  0  0  0
  -30.6710  -28.4830   22.0470 C   0  0  0  0  0  2  0  0  0  0  0  0
  -29.4220  -27.6360   21.7180 C   0  0  0  0  0  2  0  0  0  0  0  0
  -29.0890  -27.5360   20.2130 C   0  0  0  0  0  2  0  0  0  0  0  0
  -28.7800  -28.7870   19.5920 O   0  0  0  0  0  0  0  0  0  0  0  0
  -25.7550  -32.3430   24.9530 C   0  0  0  0  0  0  0  0  0  0  0  0
  -27.6700  -29.4360   20.0730 C   0  0  0  0  0  0  0  0  0  0  0  0
  -24.2450  -31.7200   23.0890 C   0  0  0  0  0  3  0  0  0  0  0  0
  -25.3920  -30.8280   20.9910 C   0  0  0  0  0  0  0  0  0  0  0  0
  -26.7400  -32.0890   22.6850 C   0  0  0  0  0  2  0  0  0  0  0  0
  -26.6450  -31.0810   21.5620 C   0  0  0  0  0  0  0  0  0  0  0  0
  -27.7860  -30.4020   21.0950 C   0  0  0  0  0  3  0  0  0  0  0  0
  -26.4060  -29.1880   19.5020 C   0  0  0  0  0  3  0  0  0  0  0  0
  -25.2650  -29.8800   19.9580 C   0  0  0  0  0  3  0  0  0  0  0  0
  -24.2250  -31.6160   21.5400 C   0  0  0  0  0  2  0  0  0  0  0  0
  -25.6050  -32.0390   23.6320 N   0  0  0  0  0  0  0  0  0  0  0  0
  -24.7750  -32.4080   25.7070 O   0  0  0  0  0  0  0  0  0  0  0  0
  -23.6450  -30.4210   23.6720 C   0  0  0  0  0  0  0  0  0  0  0  0
  -22.3280  -30.2360   23.4850 N   0  0  0  0  0  0  0  0  0  0  0  0
  -24.3600  -29.5960   24.2470 O   0  0  0  0  0  0  0  0  0  0  0  0
  -21.8100  -30.9620   23.0120 H   0  0  0  0  0  0  0  0  0  0  0  0
  -19.0670  -28.6950   23.3230 C   0  0  0  0  0  0  0  0  0  0  0  0
  -21.5570  -29.0680   23.9090 C   0  0  0  0  0  3  0  0  0  0  0  0
  -21.8460  -27.8490   23.0020 C   0  0  0  0  0  2  0  0  0  0  0  0
  -20.8640  -27.7190   21.8330 C   0  0  0  0  0  2  0  0  0  0  0  0
  -19.4280  -27.5870   22.3490 C   0  0  0  0  0  2  0  0  0  0  0  0
  -20.0670  -29.4020   24.0440 C   0  0  0  0  0  0  0  0  0  0  0  0
  -19.6770  -30.4500   24.9060 C   0  0  0  0  0  3  0  0  0  0  0  0
  -18.3200  -30.7890   25.0600 C   0  0  0  0  0  3  0  0  0  0  0  0
  -17.3340  -30.0770   24.3550 C   0  0  0  0  0  3  0  0  0  0  0  0
  -17.7070  -29.0320   23.4910 C   0  0  0  0  0  3  0  0  0  0  0  0
  -27.1540  -32.6520   25.5710 C   0  0  0  0  0  3  0  0  0  0  0  0
  -27.6000  -31.5980   26.6580 C   0  0  1  0  0  0  0  0  0  0  0  0
  -26.5170  -31.3140   27.7250 C   0  0  0  0  0  1  0  0  0  0  0  0
  -27.9730  -30.2520   25.9930 C   0  0  0  0  0  1  0  0  0  0  0  0
  -28.8720  -32.0910   27.3870 C   0  0  0  0  0  1  0  0  0  0  0  0
  -27.0890  -34.0020   26.1480 N   0  0  0  0  0  0  0  0  0  0  0  0
  -27.6360  -35.0910   25.5950 C   0  0  0  0  0  0  0  0  0  0  0  0
  -28.3110  -35.0510   24.5630 O   0  0  0  0  0  0  0  0  0  0  0  0
  -26.4850  -34.1230   26.9490 H   0  0  0  0  0  0  0  0  0  0  0  0
  -26.2950  -37.2170   25.5520 C   0  0  0  0  0  1  0  0  0  0  0  0
  -27.3950  -36.4430   26.2950 C   0  0  0  0  0  3  0  0  0  0  0  0
  -29.6200  -36.7170   27.2990 C   0  0  0  0  0  1  0  0  0  0  0  0
  -28.6150  -37.2760   26.4000 N   0  0  0  0  0  0  0  0  0  0  0  0
  -28.3870  -38.2130   26.7220 H   0  0  0  0  0  0  0  0  0  0  0  0
  1  3  1  0
  2  1  2  0
  4  6  1  0
  5  4  2  0
  5  2  1  0
  6 54  1  0
  6  3  2  0
  7  5  1  0
  8  7  2  0
  9  7  1  0
  9 10  1  0
 11 12  1  0
 11 10  1  0
 13 14  1  0
 13 12  1  0
 15 24  1  0
 15 14  1  0
 16 22  1  0
 16 24  1  0
 17 22  1  0
 17 18  1  0
 18 19  1  0
 19 20  1  0
 20 21  1  0
 20 29  1  0
 22 21  1  0
 23 16  2  0
 24 25  1  0
 26 27  2  0
 26 51  1  0
 27 46  1  0
 28 27  1  0
 29 26  1  0
 30 29  1  0
 30 28  2  0
 31 28  1  0
 31 36  1  0
 32 31  2  0
 33 32  1  0
 33 34  2  0
 34 35  1  0
 35 36  2  0
 37 34  1  0
 38 37  1  0
 39 38  2  0
 40 39  1  0
 41 40  2  0
 41 42  1  0
 42 43  2  0
 43 38  1  0
 43 44  1  0
 45 41  1  0
 46 48  2  0
 47 46  1  0
 47 50  1  0
 49 47  1  0
 51 52  1  0
 53 51  1  0
 55 54  1  0
 56 55  1  0
 57 59  1  0
 57 56  1  0
 58 69  2  0
 59 64  1  0
 60 68  1  0
 60 70  1  0
 61 67  1  0
 61 63  1  0
 62 68  1  0
 63 62  1  0
 64 63  2  0
 65 66  1  0
 65 59  2  0
 66 61  2  0
 67 60  1  0
 68 58  1  0
 70 72  2  0
 71 70  1  0
 73 71  1  0
 74 83  2  0
 74 79  1  0
 75 71  1  0
 75 79  1  0
 76 75  1  0
 77 78  1  0
 77 76  1  0
 78 74  1  0
 79 80  2  0
 80 81  1  0
 82 81  2  0
 83 82  1  0
 84 58  1  0
 84 89  1  0
 84 85  1  0
 85 88  1  1
 85 86  1  0
 87 85  1  0
 89 92  1  0
 90 89  1  0
 90 94  1  0
 91 90  2  0
 94 93  1  0
 94 96  1  0
 96 97  1  0
 96 95  1  0
M  ISO  4  16 100  24 100  56 101  57 101
M  END
>  <TORSDO>  (72) 
F 27

>  <SCORE>  (72) 
7.699

>  <name>  (72) 
71

>  <ligand_id>  (72) 
71

>  <original_smiles>  (72) 
[H]c1c([H])c(C(=O)C([H])([H])C([H])([H])C([H])([H])C([H])([H])C([H])([H])C([H])([H])C([H])([H])N([H])C(=O)N2C([H])([H])C([H])([H])C([H])([H])C([H])(n3nc(-c4c([H])c([H])c(Oc5c([H])c([H])c(F)c([H])c5F)c([H])c4[H])c(C(=O)N([H])[H])c3N([H])[H])C2([H])[H])c([H])c(C([H])([H])C([H])([H])C([H])([H])Oc2c([H])c([H])c3c(c2[H])C([H])([H])N(C(=O)C([H])(N([H])C(=O)C([H])(N([H])C([H])([H])[H])C([H])([H])[H])C(C([H])([H])[H])(C([H])([H])[H])C([H])([H])[H])C([H])(C(=O)N([H])C2([H])c4c([H])c([H])c([H])c([H])c4C([H])([H])C([H])([H])C2([H])[H])C3([H])[H])c1[H]

>  <smiles>  (72) 
[H]c1c([H])c(C(=O)C([H])([H])C([H])([H])C([H])([H])C([H])([H])C([H])([H])C([H])([H])C([H])([H])N([H])C(=O)N2C([H])([H])C([H])([H])C([H])([H])C([H])(n3nc(-c4c([H])c([H])c(Oc5c([H])c([H])c(F)c([H])c5F)c([H])c4[H])c(C(=O)N([H])[H])c3N([H])[H])C2([H])[H])c([H])c(C([H])([H])C([H])([H])C([H])([H])Oc2c([H])c([H])c3c(c2[H])C([H])([H])N(C(=O)C([H])(N([H])C(=O)C([H])(N([H])C([H])([H])[H])C([H])([H])[H])C(C([H])([H])[H])(C([H])([H])[H])C([H])([H])[H])C([H])(C(=O)N([H])C2([H])c4c([H])c([H])c([H])c([H])c4C([H])([H])C([H])([H])C2([H])[H])C3([H])[H])c1[H]

$$$$
72:0:0
     RDKit          3D

 96103  0  0  1  0  0  0  0  0999 V2000
  -25.7310  -24.4630   24.9300 C   0  0  0  0  0  2  0  0  0  0  0  0
  -24.9170  -23.9670   23.7170 C   0  0  0  0  0  2  0  0  0  0  0  0
  -25.7060  -23.9920   22.4040 C   0  0  0  0  0  2  0  0  0  0  0  0
  -24.7590  -24.2280   21.2230 C   0  0  0  0  0  2  0  0  0  0  0  0
  -25.4560  -24.1740   19.8620 C   0  0  0  0  0  2  0  0  0  0  0  0
  -24.4880  -24.6070   18.7560 C   0  0  0  0  0  2  0  0  0  0  0  0
  -24.8850  -24.0950   17.3640 C   0  0  0  0  0  2  0  0  0  0  0  0
  -23.8040  -24.3910   16.3110 C   0  0  0  0  0  2  0  0  0  0  0  0
  -22.4790  -23.9100   16.7580 N   0  0  0  0  0  4  0  0  0  0  0  0
  -22.4870  -22.9030   16.7730 H   0  0  0  0  0  0  0  0  0  0  0  0
  -22.3520  -24.2310   17.7030 H   0  0  0  0  0  0  0  0  0  0  0  0
  -21.3390  -24.3940   15.9490 C   0  0  0  0  0  2  0  0  0  0  0  0
  -19.9870  -24.1970   16.6720 C   0  0  0  0  0  2  0  0  0  0  0  0
  -18.7770  -24.5010   15.7760 C   0  0  0  0  0  0  0  0  0  0  0  0
  -16.3610  -24.2680   15.3150 C   0  0  0  0  0  2  0  0  0  0  0  0
  -15.5570  -25.5120   15.7300 C   0  0  0  0  0  2  0  0  0  0  0  0
  -15.1410  -25.4110   17.2090 C   0  0  0  0  0  2  0  0  0  0  0  0
  -16.3400  -25.0750   18.1350 C   0  0  0  0  0  3  0  0  0  0  0  0
  -17.1490  -23.8750   17.5890 C   0  0  0  0  0  2  0  0  0  0  0  0
  -17.5310  -24.1620   16.1960 N   0  0  0  0  0  0  0  0  0  0  0  0
  -18.9840  -25.0000   14.6650 O   0  0  0  0  0  0  0  0  0  0  0  0
  -16.2160  -25.5580   20.6630 C   0  0  0  0  0  0  0  0  0  0  0  0
  -15.4810  -24.9860   21.6680 C   0  0  0  0  0  0  0  0  0  0  0  0
  -14.7260  -23.9400   21.0590 C   0  0  0  0  0  0  0  0  0  0  0  0
  -15.8980  -24.8540   19.5120 N   0  0  0  0  0  0  0  0  0  0  0  0
  -15.0310  -23.8400   19.7710 N   0  0  0  0  0  0  0  0  0  0  0  0
  -13.6850  -23.0630   21.6130 C   0  0  0  0  0  0  0  0  0  0  0  0
  -13.7630  -21.6580   21.4920 C   0  0  0  0  0  3  0  0  0  0  0  0
  -12.7610  -20.8350   22.0510 C   0  0  0  0  0  3  0  0  0  0  0  0
  -11.6710  -21.4150   22.7420 C   0  0  0  0  0  0  0  0  0  0  0  0
  -11.5870  -22.8150   22.8400 C   0  0  0  0  0  3  0  0  0  0  0  0
  -12.5810  -23.6320   22.2790 C   0  0  0  0  0  3  0  0  0  0  0  0
  -10.6370  -20.6950   23.2940 O   0  0  0  0  0  0  0  0  0  0  0  0
  -10.8130  -19.4090   23.7370 C   0  0  0  0  0  0  0  0  0  0  0  0
  -11.7800  -19.0810   24.7100 C   0  0  0  0  0  3  0  0  0  0  0  0
  -11.8790  -17.7580   25.1890 C   0  0  0  0  0  3  0  0  0  0  0  0
  -11.0080  -16.7660   24.7010 C   0  0  0  0  0  0  0  0  0  0  0  0
  -10.0390  -17.0930   23.7350 C   0  0  0  0  0  3  0  0  0  0  0  0
   -9.9410  -18.4110   23.2560 C   0  0  0  0  0  0  0  0  0  0  0  0
   -8.9930  -18.7230   22.3400 F   0  0  0  0  0  0  0  0  0  0  0  0
  -11.0960  -15.4980   25.1640 F   0  0  0  0  0  0  0  0  0  0  0  0
  -15.4110  -25.4450   23.0970 C   0  0  0  0  0  0  0  0  0  0  0  0
  -15.1630  -24.5240   24.0230 N   0  0  0  0  0  0  0  0  0  0  0  0
  -15.6260  -26.6160   23.4050 O   0  0  0  0  0  0  0  0  0  0  0  0
  -15.0070  -23.5590   23.7720 H   0  0  0  0  0  0  0  0  0  0  0  0
  -15.1290  -24.7880   24.9970 H   0  0  0  0  0  0  0  0  0  0  0  0
  -17.1090  -26.6230   20.6270 N   0  0  0  0  0  0  0  0  0  0  0  0
  -17.3110  -27.1900   21.4440 H   0  0  0  0  0  0  0  0  0  0  0  0
  -17.5590  -26.9660   19.7870 H   0  0  0  0  0  0  0  0  0  0  0  0
  -25.0740  -25.6060   25.7290 C   0  0  0  0  0  2  0  0  0  0  0  0
  -24.4980  -26.7060   24.8320 C   0  0  0  0  0  0  0  0  0  0  0  0
  -23.3090  -27.0100   24.9540 O   0  0  0  0  0  0  0  0  0  0  0  0
  -25.3770  -27.3160   23.8260 C   0  0  0  0  0  3  0  0  0  0  0  0
  -24.9130  -27.6130   22.5950 C   0  0  0  0  0  3  0  0  0  0  0  0
  -25.7020  -28.3510   21.5240 C   0  0  0  0  0  2  0  0  0  0  0  0
  -25.2750  -29.7130   21.4210 O   0  0  0  0  0  0  0  0  0  0  0  0
  -28.8620  -31.6580   27.2180 C   0  0  0  0  0  0  0  0  0  0  0  0
  -25.2260  -30.3380   22.6410 C   0  0  0  0  0  0  0  0  0  0  0  0
  -26.3940  -31.6700   27.4170 C   0  0  0  0  0  3  0  0  0  0  0  0
  -25.1050  -31.4410   25.2270 C   0  0  0  0  0  0  0  0  0  0  0  0
  -27.5260  -32.0790   25.1620 C   0  0  0  0  0  2  0  0  0  0  0  0
  -26.3100  -31.4590   24.5110 C   0  0  0  0  0  0  0  0  0  0  0  0
  -26.3800  -30.9050   23.2180 C   0  0  0  0  0  3  0  0  0  0  0  0
  -24.0140  -30.3330   23.3600 C   0  0  0  0  0  3  0  0  0  0  0  0
  -23.9510  -30.8710   24.6590 C   0  0  0  0  0  3  0  0  0  0  0  0
  -25.1260  -32.0570   26.6070 C   0  0  0  0  0  2  0  0  0  0  0  0
  -27.6510  -31.7730   26.6050 N   0  0  0  0  0  0  0  0  0  0  0  0
  -28.9470  -31.5180   28.4450 O   0  0  0  0  0  0  0  0  0  0  0  0
  -26.1770  -30.2700   28.0340 C   0  0  0  0  0  0  0  0  0  0  0  0
  -25.3940  -30.2160   29.1250 N   0  0  0  0  0  0  0  0  0  0  0  0
  -26.6810  -29.2650   27.5210 O   0  0  0  0  0  0  0  0  0  0  0  0
  -25.0170  -31.0830   29.4780 H   0  0  0  0  0  0  0  0  0  0  0  0
  -23.5020  -28.9960   31.9460 C   0  0  0  0  0  0  0  0  0  0  0  0
  -25.0290  -29.0070   29.8620 C   0  0  0  0  0  3  0  0  0  0  0  0
  -23.8890  -28.2440   29.1500 C   0  0  0  0  0  2  0  0  0  0  0  0
  -22.4960  -28.6380   29.6510 C   0  0  0  0  0  2  0  0  0  0  0  0
  -22.3680  -28.3680   31.1530 C   0  0  0  0  0  2  0  0  0  0  0  0
  -24.7430  -29.3130   31.3350 C   0  0  0  0  0  0  0  0  0  0  0  0
  -25.7480  -29.9340   32.1070 C   0  0  0  0  0  3  0  0  0  0  0  0
  -25.5300  -30.2320   33.4660 C   0  0  0  0  0  3  0  0  0  0  0  0
  -24.3050  -29.8990   34.0710 C   0  0  0  0  0  3  0  0  0  0  0  0
  -23.2960  -29.2790   33.3120 C   0  0  0  0  0  3  0  0  0  0  0  0
  -30.1970  -31.7260   26.4120 C   0  0  0  0  0  3  0  0  0  0  0  0
  -30.7290  -30.3080   25.9710 C   0  0  1  0  0  0  0  0  0  0  0  0
  -30.8240  -29.2920   27.1330 C   0  0  0  0  0  1  0  0  0  0  0  0
  -29.8170  -29.6950   24.8820 C   0  0  0  0  0  1  0  0  0  0  0  0
  -32.1390  -30.4500   25.3480 C   0  0  0  0  0  1  0  0  0  0  0  0
  -31.1860  -32.4200   27.2490 N   0  0  0  0  0  0  0  0  0  0  0  0
  -31.4500  -33.7310   27.1840 C   0  0  0  0  0  0  0  0  0  0  0  0
  -30.9310  -34.4790   26.3500 O   0  0  0  0  0  0  0  0  0  0  0  0
  -31.6090  -31.8830   27.9910 H   0  0  0  0  0  0  0  0  0  0  0  0
  -31.6790  -34.9230   29.3860 C   0  0  0  0  0  1  0  0  0  0  0  0
  -32.4480  -34.3060   28.2060 C   0  0  0  0  0  3  0  0  0  0  0  0
  -34.3480  -34.7380   26.7140 C   0  0  0  0  0  1  0  0  0  0  0  0
  -33.3670  -35.3130   27.6300 N   0  0  0  0  0  0  0  0  0  0  0  0
  -33.8680  -35.8060   28.3640 H   0  0  0  0  0  0  0  0  0  0  0  0
  1 50  1  0
  2  1  1  0
  3  2  1  0
  4  3  1  0
  5  4  1  0
  6  5  1  0
  7  6  1  0
  8  9  1  0
  8  7  1  0
  9 10  1  0
  9 11  1  0
 12 13  1  0
 12  9  1  0
 14 20  1  0
 14 13  1  0
 15 16  1  0
 15 20  1  0
 16 17  1  0
 18 17  1  0
 18 25  1  0
 19 18  1  0
 20 19  1  0
 21 14  2  0
 22 23  2  0
 23 42  1  0
 24 27  1  0
 24 23  1  0
 25 26  1  0
 25 22  1  0
 26 24  2  0
 27 32  1  0
 28 27  2  0
 28 29  1  0
 29 30  2  0
 30 31  1  0
 30 33  1  0
 32 31  2  0
 33 34  1  0
 34 35  1  0
 35 36  2  0
 37 41  1  0
 37 36  1  0
 38 37  2  0
 39 38  1  0
 39 34  2  0
 40 39  1  0
 42 44  2  0
 42 43  1  0
 43 46  1  0
 45 43  1  0
 47 22  1  0
 47 48  1  0
 49 47  1  0
 51 52  2  0
 51 50  1  0
 53 51  1  0
 54 53  2  0
 55 54  1  0
 56 55  1  0
 56 58  1  0
 57 68  2  0
 58 63  2  0
 58 64  1  0
 59 69  1  0
 60 66  1  0
 61 67  1  0
 62 61  1  0
 62 60  2  0
 63 62  1  0
 64 65  2  0
 65 60  1  0
 66 59  1  0
 67 57  1  0
 67 59  1  0
 69 70  1  0
 70 72  1  0
 71 69  2  0
 73 82  1  0
 74 70  1  0
 74 78  1  0
 75 76  1  0
 75 74  1  0
 76 77  1  0
 77 73  1  0
 78 73  2  0
 78 79  1  0
 79 80  2  0
 80 81  1  0
 82 81  2  0
 83 57  1  0
 83 88  1  0
 84 83  1  0
 84 85  1  1
 86 84  1  0
 87 84  1  0
 88 91  1  0
 89 88  1  0
 89 93  1  0
 90 89  2  0
 93 92  1  0
 94 95  1  0
 95 93  1  0
 95 96  1  0
M  ISO  4  13 100  14 100  55 101  56 101
M  END
>  <TORSDO>  (73) 
F 30

>  <SCORE>  (73) 
0.002

>  <name>  (73) 
72

>  <ligand_id>  (73) 
72

>  <original_smiles>  (73) 
[H]C(C(=O)C([H])([H])C([H])([H])C([H])([H])C([H])([H])C([H])([H])C([H])([H])C([H])([H])C([H])([H])C([H])([H])[N+]([H])([H])C([H])([H])C([H])([H])C(=O)N1C([H])([H])C([H])([H])C([H])([H])C([H])(n2nc(-c3c([H])c([H])c(Oc4c([H])c([H])c(F)c([H])c4F)c([H])c3[H])c(C(=O)N([H])[H])c2N([H])[H])C1([H])[H])=C([H])C([H])([H])Oc1c([H])c([H])c2c(c1[H])C([H])([H])N(C(=O)C([H])(N([H])C(=O)C([H])(N([H])C([H])([H])[H])C([H])([H])[H])C(C([H])([H])[H])(C([H])([H])[H])C([H])([H])[H])C([H])(C(=O)N([H])C1([H])c3c([H])c([H])c([H])c([H])c3C([H])([H])C([H])([H])C1([H])[H])C2([H])[H]

>  <smiles>  (73) 
[H]C(C(=O)C([H])([H])C([H])([H])C([H])([H])C([H])([H])C([H])([H])C([H])([H])C([H])([H])C([H])([H])C([H])([H])[N+]([H])([H])C([H])([H])C([H])([H])C(=O)N1C([H])([H])C([H])([H])C([H])([H])C([H])(n2nc(-c3c([H])c([H])c(Oc4c([H])c([H])c(F)c([H])c4F)c([H])c3[H])c(C(=O)N([H])[H])c2N([H])[H])C1([H])[H])=C([H])C([H])([H])Oc1c([H])c([H])c2c(c1[H])C([H])([H])N(C(=O)C([H])(N([H])C(=O)C([H])(N([H])C([H])([H])[H])C([H])([H])[H])C(C([H])([H])[H])(C([H])([H])[H])C([H])([H])[H])C([H])(C(=O)N([H])C1([H])c3c([H])c([H])c([H])c([H])c3C([H])([H])C([H])([H])C1([H])[H])C2([H])[H]

$$$$
73:0:0
     RDKit          3D

 94103  0  0  1  0  0  0  0  0999 V2000
  -31.3300  -23.7030   21.9760 C   0  0  0  0  0  3  0  0  0  0  0  0
  -31.4070  -22.3580   21.5570 C   0  0  0  0  0  3  0  0  0  0  0  0
  -30.8540  -24.6940   21.0960 C   0  0  0  0  0  3  0  0  0  0  0  0
  -30.5300  -22.9980   19.3750 C   0  0  0  0  0  3  0  0  0  0  0  0
  -31.0070  -21.9990   20.2530 C   0  0  0  0  0  0  0  0  0  0  0  0
  -30.4550  -24.3490   19.7870 C   0  0  0  0  0  0  0  0  0  0  0  0
  -31.1010  -20.5490   19.7880 C   0  0  0  0  0  2  0  0  0  0  0  0
  -29.5650  -19.1700   21.3550 C   0  0  0  0  0  2  0  0  0  0  0  0
  -29.5310  -18.7450   18.8120 C   0  0  0  0  0  2  0  0  0  0  0  0
  -30.2320  -17.7880   21.5490 C   0  0  0  0  0  2  0  0  0  0  0  0
  -30.2200  -17.3910   19.0650 C   0  0  0  0  0  2  0  0  0  0  0  0
  -29.7670  -19.7820   19.9410 C   0  0  0  0  0  3  0  0  0  0  0  0
  -29.7620  -16.8470   20.4300 C   0  0  0  0  0  3  0  0  0  0  0  0
  -30.6850  -14.4840   20.0730 C   0  0  0  0  0  0  0  0  0  0  0  0
  -30.4100  -12.3230   18.9160 C   0  0  0  0  0  2  0  0  0  0  0  0
  -29.4020  -12.5250   17.7640 C   0  0  0  0  0  2  0  0  0  0  0  0
  -27.9510  -12.3610   18.2610 C   0  0  0  0  0  2  0  0  0  0  0  0
  -27.6620  -13.1830   19.5450 C   0  0  0  0  0  3  0  0  0  0  0  0
  -28.7690  -12.9330   20.5980 C   0  0  0  0  0  2  0  0  0  0  0  0
  -30.0710  -13.2740   19.9840 N   0  0  0  0  0  0  0  0  0  0  0  0
  -31.7450  -14.7550   19.4990 O   0  0  0  0  0  0  0  0  0  0  0  0
  -29.9330  -15.4120   20.6890 N   0  0  0  0  0  0  0  0  0  0  0  0
  -29.1520  -14.9990   21.1790 H   0  0  0  0  0  0  0  0  0  0  0  0
  -25.2820  -13.7690   20.3420 C   0  0  0  0  0  0  0  0  0  0  0  0
  -24.2430  -12.9870   20.7700 C   0  0  0  0  0  0  0  0  0  0  0  0
  -24.7250  -11.6420   20.7410 C   0  0  0  0  0  0  0  0  0  0  0  0
  -26.3320  -12.9000   20.0800 N   0  0  0  0  0  0  0  0  0  0  0  0
  -26.0000  -11.6160   20.3750 N   0  0  0  0  0  0  0  0  0  0  0  0
  -24.0300  -10.3720   20.9870 C   0  0  0  0  0  0  0  0  0  0  0  0
  -24.4810   -9.4600   21.9640 C   0  0  0  0  0  3  0  0  0  0  0  0
  -23.7880   -8.2520   22.1930 C   0  0  0  0  0  3  0  0  0  0  0  0
  -22.6280   -7.9470   21.4410 C   0  0  0  0  0  0  0  0  0  0  0  0
  -22.1940   -8.8490   20.4530 C   0  0  0  0  0  3  0  0  0  0  0  0
  -22.8900  -10.0480   20.2240 C   0  0  0  0  0  3  0  0  0  0  0  0
  -21.9070   -6.7860   21.5740 O   0  0  0  0  0  0  0  0  0  0  0  0
  -21.8210   -6.1260   22.7730 C   0  0  0  0  0  0  0  0  0  0  0  0
  -21.2930   -6.7420   23.9270 C   0  0  0  0  0  3  0  0  0  0  0  0
  -21.1580   -6.0050   25.1200 C   0  0  0  0  0  3  0  0  0  0  0  0
  -21.5420   -4.6510   25.1610 C   0  0  0  0  0  0  0  0  0  0  0  0
  -22.0660   -4.0340   24.0100 C   0  0  0  0  0  3  0  0  0  0  0  0
  -22.2020   -4.7690   22.8190 C   0  0  0  0  0  0  0  0  0  0  0  0
  -22.6850   -4.1640   21.7080 F   0  0  0  0  0  0  0  0  0  0  0  0
  -21.4070   -3.9400   26.3030 F   0  0  0  0  0  0  0  0  0  0  0  0
  -22.8520  -13.4470   21.0980 C   0  0  0  0  0  0  0  0  0  0  0  0
  -22.1690  -12.7550   22.0030 N   0  0  0  0  0  0  0  0  0  0  0  0
  -22.3760  -14.4600   20.5850 O   0  0  0  0  0  0  0  0  0  0  0  0
  -22.5650  -11.9390   22.4440 H   0  0  0  0  0  0  0  0  0  0  0  0
  -21.2380  -13.0500   22.2590 H   0  0  0  0  0  0  0  0  0  0  0  0
  -25.4170  -15.1390   20.1370 N   0  0  0  0  0  0  0  0  0  0  0  0
  -24.6440  -15.7830   20.2620 H   0  0  0  0  0  0  0  0  0  0  0  0
  -26.2480  -15.5840   19.7670 H   0  0  0  0  0  0  0  0  0  0  0  0
  -30.0100  -25.4230   18.8000 C   0  0  0  0  0  2  0  0  0  0  0  0
  -28.5340  -25.8540   18.9120 C   0  0  0  0  0  2  0  0  0  0  0  0
  -28.3400  -26.8240   19.9450 O   0  0  0  0  0  0  0  0  0  0  0  0
  -24.4950  -31.8500   23.1900 C   0  0  0  0  0  0  0  0  0  0  0  0
  -27.1380  -27.5060   19.9700 C   0  0  0  0  0  0  0  0  0  0  0  0
  -23.2830  -30.4980   21.5090 C   0  0  0  0  0  3  0  0  0  0  0  0
  -24.7310  -28.9960   20.0430 C   0  0  0  0  0  0  0  0  0  0  0  0
  -25.8080  -30.8580   21.3200 C   0  0  0  0  0  2  0  0  0  0  0  0
  -25.8880  -29.5030   20.6470 C   0  0  0  0  0  0  0  0  0  0  0  0
  -27.0880  -28.7590   20.6190 C   0  0  0  0  0  3  0  0  0  0  0  0
  -25.9550  -27.0030   19.3760 C   0  0  0  0  0  3  0  0  0  0  0  0
  -24.7570  -27.7420   19.4110 C   0  0  0  0  0  3  0  0  0  0  0  0
  -23.4890  -29.8570   20.1100 C   0  0  0  0  0  2  0  0  0  0  0  0
  -24.5460  -31.0830   22.0650 N   0  0  0  0  0  0  0  0  0  0  0  0
  -23.4150  -32.1090   23.7400 O   0  0  0  0  0  0  0  0  0  0  0  0
  -22.6320  -29.4500   22.4420 C   0  0  0  0  0  0  0  0  0  0  0  0
  -21.3080  -29.2700   22.3050 N   0  0  0  0  0  0  0  0  0  0  0  0
  -23.3140  -28.8070   23.2430 O   0  0  0  0  0  0  0  0  0  0  0  0
  -20.8200  -29.8460   21.6320 H   0  0  0  0  0  0  0  0  0  0  0  0
  -17.9350  -28.0610   22.7600 C   0  0  0  0  0  0  0  0  0  0  0  0
  -20.4910  -28.3130   23.0490 C   0  0  0  0  0  3  0  0  0  0  0  0
  -20.5970  -26.8970   22.4360 C   0  0  0  0  0  2  0  0  0  0  0  0
  -19.5000  -26.6000   21.4090 C   0  0  0  0  0  2  0  0  0  0  0  0
  -18.1140  -26.7280   22.0510 C   0  0  0  0  0  2  0  0  0  0  0  0
  -19.0510  -28.8100   23.2140 C   0  0  0  0  0  0  0  0  0  0  0  0
  -18.8300  -30.0580   23.8380 C   0  0  0  0  0  3  0  0  0  0  0  0
  -17.5240  -30.5550   24.0110 C   0  0  0  0  0  3  0  0  0  0  0  0
  -16.4230  -29.8020   23.5710 C   0  0  0  0  0  3  0  0  0  0  0  0
  -16.6280  -28.5550   22.9530 C   0  0  0  0  0  3  0  0  0  0  0  0
  -25.7840  -32.4590   23.8250 C   0  0  0  0  0  3  0  0  0  0  0  0
  -26.2800  -31.6730   25.1010 C   0  0  1  0  0  0  0  0  0  0  0  0
  -25.1740  -31.4460   26.1580 C   0  0  0  0  0  1  0  0  0  0  0  0
  -26.8490  -30.2910   24.7050 C   0  0  0  0  0  1  0  0  0  0  0  0
  -27.4340  -32.4500   25.7790 C   0  0  0  0  0  1  0  0  0  0  0  0
  -25.4910  -33.8590   24.1580 N   0  0  0  0  0  0  0  0  0  0  0  0
  -25.8610  -34.9100   23.4130 C   0  0  0  0  0  0  0  0  0  0  0  0
  -26.5560  -34.8030   22.3990 O   0  0  0  0  0  0  0  0  0  0  0  0
  -24.8800  -34.0190   24.9450 H   0  0  0  0  0  0  0  0  0  0  0  0
  -24.1840  -36.7420   23.0150 C   0  0  0  0  0  1  0  0  0  0  0  0
  -25.3850  -36.3030   23.8670 C   0  0  0  0  0  3  0  0  0  0  0  0
  -27.5030  -37.1370   24.7880 C   0  0  0  0  0  1  0  0  0  0  0  0
  -26.4430  -37.3350   23.8030 N   0  0  0  0  0  0  0  0  0  0  0  0
  -26.0500  -38.2620   23.9420 H   0  0  0  0  0  0  0  0  0  0  0  0
  2  1  1  0
  3  1  2  0
  4  6  2  0
  4  5  1  0
  5  2  2  0
  6  3  1  0
  7  5  1  0
  8 10  1  0
  9 11  1  0
  9 12  1  0
 11 13  1  0
 12  7  1  0
 12  8  1  0
 13 22  1  0
 13 10  1  0
 14 22  1  0
 15 20  1  0
 16 17  1  0
 16 15  1  0
 18 17  1  0
 18 27  1  0
 18 19  1  0
 20 14  1  0
 20 19  1  0
 21 14  2  0
 22 23  1  0
 24 25  2  0
 25 44  1  0
 26 25  1  0
 26 29  1  0
 27 24  1  0
 27 28  1  0
 28 26  2  0
 29 30  1  0
 30 31  2  0
 32 35  1  0
 32 31  1  0
 33 32  2  0
 34 33  1  0
 34 29  2  0
 35 36  1  0
 36 41  2  0
 36 37  1  0
 37 38  2  0
 38 39  1  0
 39 43  1  0
 40 39  2  0
 41 40  1  0
 42 41  1  0
 44 45  1  0
 45 48  1  0
 45 47  1  0
 46 44  2  0
 49 50  1  0
 49 24  1  0
 51 49  1  0
 52 53  1  0
 52  6  1  0
 53 54  1  0
 54 56  1  0
 55 66  2  0
 56 61  1  0
 57 65  1  0
 57 67  1  0
 58 64  1  0
 58 60  1  0
 59 65  1  0
 60 59  1  0
 61 60  2  0
 62 63  1  0
 62 56  2  0
 63 58  2  0
 64 57  1  0
 65 55  1  0
 67 69  2  0
 68 67  1  0
 70 68  1  0
 71 80  2  0
 71 76  1  0
 72 68  1  0
 72 76  1  0
 73 72  1  0
 74 75  1  0
 74 73  1  0
 75 71  1  0
 76 77  2  0
 77 78  1  0
 79 78  2  0
 80 79  1  0
 81 55  1  0
 81 86  1  0
 81 82  1  0
 82 85  1  1
 82 83  1  0
 84 82  1  0
 86 89  1  0
 87 91  1  0
 87 86  1  0
 88 87  2  0
 91 90  1  0
 93 91  1  0
 93 94  1  0
 93 92  1  0
M  ISO  4  14 100  22 100  53 101  54 101
M  END
>  <TORSDO>  (74) 
F 20

>  <SCORE>  (74) 
-12.411

>  <name>  (74) 
73

>  <ligand_id>  (74) 
73

>  <original_smiles>  (74) 
[H]c1c([H])c([H])c2c(c1[H])C([H])([H])C([H])([H])C([H])([H])C2([H])N([H])C(=O)C1([H])N(C(=O)C([H])(N([H])C(=O)C([H])(N([H])C([H])([H])[H])C([H])([H])[H])C(C([H])([H])[H])(C([H])([H])[H])C([H])([H])[H])C([H])([H])c2c([H])c(OC([H])([H])C([H])([H])c3c([H])c([H])c([H])c(C([H])([H])C4([H])C([H])([H])C([H])([H])C([H])(N([H])C(=O)N5C([H])([H])C([H])([H])C([H])([H])C([H])(n6nc(-c7c([H])c([H])c(Oc8c([H])c([H])c(F)c([H])c8F)c([H])c7[H])c(C(=O)N([H])[H])c6N([H])[H])C5([H])[H])C([H])([H])C4([H])[H])c3[H])c([H])c([H])c2C1([H])[H]

>  <smiles>  (74) 
[H]c1c([H])c([H])c2c(c1[H])C([H])([H])C([H])([H])C([H])([H])C2([H])N([H])C(=O)C1([H])N(C(=O)C([H])(N([H])C(=O)C([H])(N([H])C([H])([H])[H])C([H])([H])[H])C(C([H])([H])[H])(C([H])([H])[H])C([H])([H])[H])C([H])([H])c2c([H])c(OC([H])([H])C([H])([H])c3c([H])c([H])c([H])c(C([H])([H])C4([H])C([H])([H])C([H])([H])C([H])(N([H])C(=O)N5C([H])([H])C([H])([H])C([H])([H])C([H])(n6nc(-c7c([H])c([H])c(Oc8c([H])c([H])c(F)c([H])c8F)c([H])c7[H])c(C(=O)N([H])[H])c6N([H])[H])C5([H])[H])C([H])([H])C4([H])[H])c3[H])c([H])c([H])c2C1([H])[H]

$$$$
74:0:0
     RDKit          3D

 94102  0  0  1  0  0  0  0  0999 V2000
  -31.5020  -20.8930   22.5140 C   0  0  0  0  0  3  0  0  0  0  0  0
  -31.9330  -22.1170   21.9710 C   0  0  0  0  0  3  0  0  0  0  0  0
  -30.8660  -20.1320   20.2880 C   0  0  0  0  0  3  0  0  0  0  0  0
  -31.0000  -19.8790   21.6720 C   0  0  0  0  0  0  0  0  0  0  0  0
  -31.8380  -22.3500   20.5820 C   0  0  0  0  0  0  0  0  0  0  0  0
  -31.2870  -21.3580   19.7440 C   0  0  0  0  0  0  0  0  0  0  0  0
  -31.1690  -21.5670   18.4100 F   0  0  0  0  0  0  0  0  0  0  0  0
  -30.5910  -18.5810   22.2620 C   0  0  0  0  0  0  0  0  0  0  0  0
  -30.3780  -18.4290   23.4690 O   0  0  0  0  0  0  0  0  0  0  0  0
  -30.5090  -17.3730   21.3220 C   0  0  0  0  0  2  0  0  0  0  0  0
  -31.3380  -16.1660   21.8210 C   0  0  0  0  0  2  0  0  0  0  0  0
  -30.6140  -14.8210   21.6220 C   0  0  0  0  0  2  0  0  0  0  0  0
  -30.8570  -14.1080   20.2760 C   0  0  0  0  0  0  0  0  0  0  0  0
  -30.3470  -12.1670   18.8260 C   0  0  0  0  0  2  0  0  0  0  0  0
  -29.3410  -12.5130   17.7170 C   0  0  0  0  0  2  0  0  0  0  0  0
  -27.8920  -12.3900   18.2300 C   0  0  0  0  0  2  0  0  0  0  0  0
  -27.6750  -13.1290   19.5750 C   0  0  0  0  0  3  0  0  0  0  0  0
  -28.7740  -12.7350   20.5880 C   0  0  0  0  0  2  0  0  0  0  0  0
  -30.0800  -13.0360   19.9780 N   0  0  0  0  0  0  0  0  0  0  0  0
  -31.7970  -14.4660   19.5570 O   0  0  0  0  0  0  0  0  0  0  0  0
  -25.3050  -13.7770   20.3520 C   0  0  0  0  0  0  0  0  0  0  0  0
  -24.2450  -13.0230   20.7790 C   0  0  0  0  0  0  0  0  0  0  0  0
  -24.6920  -11.6670   20.7570 C   0  0  0  0  0  0  0  0  0  0  0  0
  -26.3350  -12.8810   20.1060 N   0  0  0  0  0  0  0  0  0  0  0  0
  -25.9680  -11.6070   20.4010 N   0  0  0  0  0  0  0  0  0  0  0  0
  -23.9630  -10.4160   21.0040 C   0  0  0  0  0  0  0  0  0  0  0  0
  -24.3950   -9.4910   21.9790 C   0  0  0  0  0  3  0  0  0  0  0  0
  -23.6700   -8.3030   22.2100 C   0  0  0  0  0  3  0  0  0  0  0  0
  -22.4970   -8.0330   21.4680 C   0  0  0  0  0  0  0  0  0  0  0  0
  -22.0830   -8.9470   20.4830 C   0  0  0  0  0  3  0  0  0  0  0  0
  -22.8100  -10.1250   20.2490 C   0  0  0  0  0  3  0  0  0  0  0  0
  -21.7390   -6.8940   21.6080 O   0  0  0  0  0  0  0  0  0  0  0  0
  -21.6520   -6.2300   22.8040 C   0  0  0  0  0  0  0  0  0  0  0  0
  -21.1750   -6.8620   23.9740 C   0  0  0  0  0  3  0  0  0  0  0  0
  -21.0350   -6.1230   25.1660 C   0  0  0  0  0  3  0  0  0  0  0  0
  -21.3630   -4.7540   25.1890 C   0  0  0  0  0  0  0  0  0  0  0  0
  -21.8330   -4.1230   24.0250 C   0  0  0  0  0  3  0  0  0  0  0  0
  -21.9770   -4.8590   22.8360 C   0  0  0  0  0  0  0  0  0  0  0  0
  -22.4090   -4.2410   21.7110 F   0  0  0  0  0  0  0  0  0  0  0  0
  -21.2240   -4.0420   26.3320 F   0  0  0  0  0  0  0  0  0  0  0  0
  -22.8640  -13.5190   21.1000 C   0  0  0  0  0  0  0  0  0  0  0  0
  -22.1670  -12.8490   22.0110 N   0  0  0  0  0  0  0  0  0  0  0  0
  -22.4110  -14.5340   20.5750 O   0  0  0  0  0  0  0  0  0  0  0  0
  -22.5450  -12.0270   22.4600 H   0  0  0  0  0  0  0  0  0  0  0  0
  -21.2410  -13.1650   22.2670 H   0  0  0  0  0  0  0  0  0  0  0  0
  -25.4750  -15.1420   20.1350 N   0  0  0  0  0  0  0  0  0  0  0  0
  -24.7200  -15.8100   20.2550 H   0  0  0  0  0  0  0  0  0  0  0  0
  -26.3230  -15.5620   19.7750 H   0  0  0  0  0  0  0  0  0  0  0  0
  -32.3660  -23.6510   20.0060 C   0  0  0  0  0  2  0  0  0  0  0  0
  -31.6460  -24.9010   20.5360 C   0  0  0  0  0  2  0  0  0  0  0  0
  -30.3100  -25.1770   19.8320 C   0  0  0  0  0  2  0  0  0  0  0  0
  -29.8420  -26.6270   20.0340 C   0  0  0  0  0  2  0  0  0  0  0  0
  -28.7830  -27.0520   19.0130 C   0  0  0  0  0  2  0  0  0  0  0  0
  -27.5320  -26.4670   19.3590 O   0  0  0  0  0  0  0  0  0  0  0  0
  -24.4060  -31.6790   23.1240 C   0  0  0  0  0  0  0  0  0  0  0  0
  -26.4640  -27.3070   19.5630 C   0  0  0  0  0  0  0  0  0  0  0  0
  -22.9670  -30.4830   21.5010 C   0  0  0  0  0  3  0  0  0  0  0  0
  -24.1820  -28.9400   19.8760 C   0  0  0  0  0  0  0  0  0  0  0  0
  -25.4830  -30.6800   21.1170 C   0  0  0  0  0  2  0  0  0  0  0  0
  -25.4140  -29.3500   20.3990 C   0  0  0  0  0  0  0  0  0  0  0  0
  -26.5550  -28.5360   20.2570 C   0  0  0  0  0  3  0  0  0  0  0  0
  -25.2140  -26.8940   19.0610 C   0  0  0  0  0  3  0  0  0  0  0  0
  -24.0720  -27.7060   19.2100 C   0  0  0  0  0  3  0  0  0  0  0  0
  -23.0140  -29.8810   20.0700 C   0  0  0  0  0  2  0  0  0  0  0  0
  -24.3090  -30.9560   21.9720 N   0  0  0  0  0  0  0  0  0  0  0  0
  -23.3960  -31.9920   23.7690 O   0  0  0  0  0  0  0  0  0  0  0  0
  -22.3170  -29.4510   22.4500 C   0  0  0  0  0  0  0  0  0  0  0  0
  -20.9820  -29.3300   22.3780 N   0  0  0  0  0  0  0  0  0  0  0  0
  -23.0090  -28.7630   23.2050 O   0  0  0  0  0  0  0  0  0  0  0  0
  -20.4860  -29.9350   21.7370 H   0  0  0  0  0  0  0  0  0  0  0  0
  -17.5930  -28.2140   22.9260 C   0  0  0  0  0  0  0  0  0  0  0  0
  -20.1610  -28.3980   23.1470 C   0  0  0  0  0  3  0  0  0  0  0  0
  -20.2140  -26.9780   22.5390 C   0  0  0  0  0  2  0  0  0  0  0  0
  -19.0830  -26.7060   21.5430 C   0  0  0  0  0  2  0  0  0  0  0  0
  -17.7200  -26.8750   22.2190 C   0  0  0  0  0  2  0  0  0  0  0  0
  -18.7410  -28.9360   23.3490 C   0  0  0  0  0  0  0  0  0  0  0  0
  -18.5690  -30.1930   23.9690 C   0  0  0  0  0  3  0  0  0  0  0  0
  -17.2840  -30.7270   24.1730 C   0  0  0  0  0  3  0  0  0  0  0  0
  -16.1510  -30.0010   23.7660 C   0  0  0  0  0  3  0  0  0  0  0  0
  -16.3060  -28.7470   23.1490 C   0  0  0  0  0  3  0  0  0  0  0  0
  -25.7860  -32.1650   23.6690 C   0  0  0  0  0  3  0  0  0  0  0  0
  -26.3500  -31.2600   24.8330 C   0  0  1  0  0  0  0  0  0  0  0  0
  -25.3330  -31.0110   25.9710 C   0  0  0  0  0  1  0  0  0  0  0  0
  -26.7970  -29.8840   24.2860 C   0  0  0  0  0  1  0  0  0  0  0  0
  -27.6060  -31.9170   25.4520 C   0  0  0  0  0  1  0  0  0  0  0  0
  -25.6170  -33.5530   24.1210 N   0  0  0  0  0  0  0  0  0  0  0  0
  -26.0060  -34.6300   23.4270 C   0  0  0  0  0  0  0  0  0  0  0  0
  -26.6230  -34.5540   22.3600 O   0  0  0  0  0  0  0  0  0  0  0  0
  -25.0740  -33.6920   24.9610 H   0  0  0  0  0  0  0  0  0  0  0  0
  -24.4350  -36.5850   23.2790 C   0  0  0  0  0  1  0  0  0  0  0  0
  -25.6590  -36.0130   24.0090 C   0  0  0  0  0  3  0  0  0  0  0  0
  -27.8890  -36.6420   24.8250 C   0  0  0  0  0  1  0  0  0  0  0  0
  -26.7770  -36.9790   23.9400 N   0  0  0  0  0  0  0  0  0  0  0  0
  -26.4590  -37.9160   24.1750 H   0  0  0  0  0  0  0  0  0  0  0  0
  2  1  1  0
  3  4  1  0
  4  8  1  0
  4  1  2  0
  5  2  2  0
  6  3  2  0
  6  5  1  0
  7  6  1  0
  8  9  2  0
 10 11  1  0
 10  8  1  0
 12 11  1  0
 13 12  1  0
 14 19  1  0
 15 16  1  0
 15 14  1  0
 17 16  1  0
 17 24  1  0
 17 18  1  0
 19 13  1  0
 19 18  1  0
 20 13  2  0
 21 22  2  0
 22 41  1  0
 23 22  1  0
 23 26  1  0
 24 21  1  0
 24 25  1  0
 25 23  2  0
 26 27  1  0
 27 28  2  0
 29 32  1  0
 29 28  1  0
 30 29  2  0
 31 30  1  0
 31 26  2  0
 32 33  1  0
 33 38  2  0
 33 34  1  0
 34 35  2  0
 35 36  1  0
 36 40  1  0
 37 36  2  0
 38 37  1  0
 39 38  1  0
 41 42  1  0
 42 45  1  0
 42 44  1  0
 43 41  2  0
 46 47  1  0
 46 21  1  0
 48 46  1  0
 49 50  1  0
 49  5  1  0
 51 52  1  0
 51 50  1  0
 53 54  1  0
 53 52  1  0
 54 56  1  0
 55 66  2  0
 56 61  1  0
 57 65  1  0
 57 67  1  0
 58 64  1  0
 58 60  1  0
 59 65  1  0
 60 59  1  0
 61 60  2  0
 62 63  1  0
 62 56  2  0
 63 58  2  0
 64 57  1  0
 65 55  1  0
 67 69  2  0
 68 67  1  0
 70 68  1  0
 71 80  2  0
 71 76  1  0
 72 68  1  0
 72 76  1  0
 73 72  1  0
 74 75  1  0
 74 73  1  0
 75 71  1  0
 76 77  2  0
 77 78  1  0
 79 78  2  0
 80 79  1  0
 81 55  1  0
 81 86  1  0
 81 82  1  0
 82 85  1  1
 82 83  1  0
 84 82  1  0
 86 89  1  0
 87 91  1  0
 87 86  1  0
 88 87  2  0
 91 90  1  0
 93 91  1  0
 93 94  1  0
 93 92  1  0
M  ISO  4  12 100  13 100  53 101  54 101
M  END
>  <TORSDO>  (75) 
F 25

>  <SCORE>  (75) 
-10.307

>  <name>  (75) 
74

>  <ligand_id>  (75) 
74

>  <original_smiles>  (75) 
[H]c1c([H])c([H])c2c(c1[H])C([H])([H])C([H])([H])C([H])([H])C2([H])N([H])C(=O)C1([H])N(C(=O)C([H])(N([H])C(=O)C([H])(N([H])C([H])([H])[H])C([H])([H])[H])C(C([H])([H])[H])(C([H])([H])[H])C([H])([H])[H])C([H])([H])c2c([H])c(OC([H])([H])C([H])([H])C([H])([H])C([H])([H])C([H])([H])c3c([H])c([H])c(C(=O)C([H])([H])C([H])([H])C([H])([H])C(=O)N4C([H])([H])C([H])([H])C([H])([H])C([H])(n5nc(-c6c([H])c([H])c(Oc7c([H])c([H])c(F)c([H])c7F)c([H])c6[H])c(C(=O)N([H])[H])c5N([H])[H])C4([H])[H])c([H])c3F)c([H])c([H])c2C1([H])[H]

>  <smiles>  (75) 
[H]c1c([H])c([H])c2c(c1[H])C([H])([H])C([H])([H])C([H])([H])C2([H])N([H])C(=O)C1([H])N(C(=O)C([H])(N([H])C(=O)C([H])(N([H])C([H])([H])[H])C([H])([H])[H])C(C([H])([H])[H])(C([H])([H])[H])C([H])([H])[H])C([H])([H])c2c([H])c(OC([H])([H])C([H])([H])C([H])([H])C([H])([H])C([H])([H])c3c([H])c([H])c(C(=O)C([H])([H])C([H])([H])C([H])([H])C(=O)N4C([H])([H])C([H])([H])C([H])([H])C([H])(n5nc(-c6c([H])c([H])c(Oc7c([H])c([H])c(F)c([H])c7F)c([H])c6[H])c(C(=O)N([H])[H])c5N([H])[H])C4([H])[H])c([H])c3F)c([H])c([H])c2C1([H])[H]

$$$$
75:0:0
     RDKit          3D

 92 99  0  0  1  0  0  0  0  0999 V2000
  -30.4260  -25.7930   23.3810 C   0  0  0  0  0  0  0  0  0  0  0  0
  -31.0960  -26.3720   24.6120 C   0  0  0  0  0  1  0  0  0  0  0  0
  -30.5730  -26.4190   22.2770 N   0  0  0  0  0  0  0  0  0  0  0  0
  -29.8930  -26.0910   21.0270 C   0  0  0  0  0  2  0  0  0  0  0  0
  -29.0520  -27.3080   20.6130 C   0  0  0  0  0  2  0  0  0  0  0  0
  -28.0800  -27.0130   19.6050 O   0  0  0  0  0  0  0  0  0  0  0  0
  -24.2450  -31.9250   23.0250 C   0  0  0  0  0  0  0  0  0  0  0  0
  -26.9070  -27.7390   19.6710 C   0  0  0  0  0  0  0  0  0  0  0  0
  -23.0000  -30.5390   21.3900 C   0  0  0  0  0  3  0  0  0  0  0  0
  -24.4360  -29.1110   19.8340 C   0  0  0  0  0  0  0  0  0  0  0  0
  -25.4860  -31.0220   21.0690 C   0  0  0  0  0  2  0  0  0  0  0  0
  -25.5900  -29.6800   20.3790 C   0  0  0  0  0  0  0  0  0  0  0  0
  -26.8210  -29.0100   20.2910 C   0  0  0  0  0  3  0  0  0  0  0  0
  -25.7380  -27.1820   19.1110 C   0  0  0  0  0  3  0  0  0  0  0  0
  -24.5030  -27.8590   19.1920 C   0  0  0  0  0  3  0  0  0  0  0  0
  -23.1580  -29.9090   19.9780 C   0  0  0  0  0  2  0  0  0  0  0  0
  -24.2650  -31.1730   21.8880 N   0  0  0  0  0  0  0  0  0  0  0  0
  -23.1870  -32.1360   23.6330 O   0  0  0  0  0  0  0  0  0  0  0  0
  -22.4370  -29.4640   22.3460 C   0  0  0  0  0  0  0  0  0  0  0  0
  -21.1150  -29.2500   22.2850 N   0  0  0  0  0  0  0  0  0  0  0  0
  -23.1850  -28.8260   23.0910 O   0  0  0  0  0  0  0  0  0  0  0  0
  -20.5720  -29.8190   21.6510 H   0  0  0  0  0  0  0  0  0  0  0  0
  -17.7990  -27.9940   22.9720 C   0  0  0  0  0  0  0  0  0  0  0  0
  -20.3680  -28.2600   23.0600 C   0  0  0  0  0  3  0  0  0  0  0  0
  -20.4330  -26.8670   22.3910 C   0  0  0  0  0  2  0  0  0  0  0  0
  -19.2560  -26.5950   21.4480 C   0  0  0  0  0  2  0  0  0  0  0  0
  -17.9290  -26.6900   22.2050 C   0  0  0  0  0  2  0  0  0  0  0  0
  -18.9440  -28.7400   23.3590 C   0  0  0  0  0  0  0  0  0  0  0  0
  -18.7670  -29.9650   24.0380 C   0  0  0  0  0  3  0  0  0  0  0  0
  -17.4770  -30.4440   24.3310 C   0  0  0  0  0  3  0  0  0  0  0  0
  -16.3470  -29.6950   23.9610 C   0  0  0  0  0  3  0  0  0  0  0  0
  -16.5090  -28.4710   23.2870 C   0  0  0  0  0  3  0  0  0  0  0  0
  -25.5430  -32.5740   23.6030 C   0  0  0  0  0  3  0  0  0  0  0  0
  -26.1460  -31.7800   24.8270 C   0  0  1  0  0  0  0  0  0  0  0  0
  -25.1020  -31.4110   25.9060 C   0  0  0  0  0  1  0  0  0  0  0  0
  -26.8130  -30.4690   24.3480 C   0  0  0  0  0  1  0  0  0  0  0  0
  -27.2530  -32.6230   25.5050 C   0  0  0  0  0  1  0  0  0  0  0  0
  -25.2130  -33.9530   23.9870 N   0  0  0  0  0  0  0  0  0  0  0  0
  -25.5250  -35.0370   23.2660 C   0  0  0  0  0  0  0  0  0  0  0  0
  -26.1920  -34.9830   22.2280 O   0  0  0  0  0  0  0  0  0  0  0  0
  -24.6220  -34.0660   24.7980 H   0  0  0  0  0  0  0  0  0  0  0  0
  -23.7700  -36.8140   22.9710 C   0  0  0  0  0  1  0  0  0  0  0  0
  -25.0140  -36.3990   23.7730 C   0  0  0  0  0  3  0  0  0  0  0  0
  -27.1250  -37.2900   24.6560 C   0  0  0  0  0  1  0  0  0  0  0  0
  -26.0310  -37.4710   23.7060 N   0  0  0  0  0  0  0  0  0  0  0  0
  -25.6090  -38.3790   23.8780 H   0  0  0  0  0  0  0  0  0  0  0  0
  -29.6350  -24.5080   23.6500 C   0  0  0  0  0  2  0  0  0  0  0  0
  -30.5040  -23.3960   24.2740 C   0  0  0  0  0  2  0  0  0  0  0  0
  -29.8340  -22.0100   24.2740 C   0  0  0  0  0  2  0  0  0  0  0  0
  -30.1410  -21.2030   23.0050 C   0  0  0  0  0  2  0  0  0  0  0  0
  -30.0120  -19.6860   23.2110 C   0  0  0  0  0  2  0  0  0  0  0  0
  -30.3420  -18.9220   21.9220 C   0  0  0  0  0  2  0  0  0  0  0  0
  -30.2690  -17.3990   22.0850 C   0  0  0  0  0  2  0  0  0  0  0  0
  -30.5240  -16.6950   20.7480 C   0  0  0  0  0  2  0  0  0  0  0  0
  -30.9260  -14.3120   20.1760 C   0  0  0  0  0  0  0  0  0  0  0  0
  -30.5570  -12.2260   18.9320 C   0  0  0  0  0  2  0  0  0  0  0  0
  -29.5640  -12.5130   17.7860 C   0  0  0  0  0  2  0  0  0  0  0  0
  -28.1090  -12.3660   18.2730 C   0  0  0  0  0  2  0  0  0  0  0  0
  -27.8380  -13.1390   19.5920 C   0  0  0  0  0  3  0  0  0  0  0  0
  -28.9360  -12.8350   20.6360 C   0  0  0  0  0  2  0  0  0  0  0  0
  -30.2440  -13.1490   20.0300 N   0  0  0  0  0  0  0  0  0  0  0  0
  -32.0020  -14.5480   19.6200 O   0  0  0  0  0  0  0  0  0  0  0  0
  -30.2540  -15.2630   20.8310 N   0  0  0  0  0  0  0  0  0  0  0  0
  -29.3730  -14.9820   21.2370 H   0  0  0  0  0  0  0  0  0  0  0  0
  -25.4460  -13.7150   20.3560 C   0  0  0  0  0  0  0  0  0  0  0  0
  -24.4050  -12.9290   20.7710 C   0  0  0  0  0  0  0  0  0  0  0  0
  -24.8930  -11.5870   20.7480 C   0  0  0  0  0  0  0  0  0  0  0  0
  -26.5020  -12.8530   20.1120 N   0  0  0  0  0  0  0  0  0  0  0  0
  -26.1730  -11.5680   20.4020 N   0  0  0  0  0  0  0  0  0  0  0  0
  -24.2000  -10.3140   20.9810 C   0  0  0  0  0  0  0  0  0  0  0  0
  -24.6300   -9.4100   21.9790 C   0  0  0  0  0  3  0  0  0  0  0  0
  -23.9360   -8.2000   22.1960 C   0  0  0  0  0  3  0  0  0  0  0  0
  -22.7990   -7.8850   21.4160 C   0  0  0  0  0  0  0  0  0  0  0  0
  -22.3900   -8.7760   20.4090 C   0  0  0  0  0  3  0  0  0  0  0  0
  -23.0840   -9.9780   20.1890 C   0  0  0  0  0  3  0  0  0  0  0  0
  -22.0810   -6.7180   21.5360 O   0  0  0  0  0  0  0  0  0  0  0  0
  -21.9520   -6.0740   22.7400 C   0  0  0  0  0  0  0  0  0  0  0  0
  -21.3630   -6.6990   23.8620 C   0  0  0  0  0  3  0  0  0  0  0  0
  -21.1880   -5.9770   25.0600 C   0  0  0  0  0  3  0  0  0  0  0  0
  -21.5940   -4.6310   25.1350 C   0  0  0  0  0  0  0  0  0  0  0  0
  -22.1780   -4.0060   24.0190 C   0  0  0  0  0  3  0  0  0  0  0  0
  -22.3530   -4.7260   22.8250 C   0  0  0  0  0  0  0  0  0  0  0  0
  -22.8950   -4.1130   21.7440 F   0  0  0  0  0  0  0  0  0  0  0  0
  -21.4200   -3.9330   26.2830 F   0  0  0  0  0  0  0  0  0  0  0  0
  -23.0080  -13.3820   21.0800 C   0  0  0  0  0  0  0  0  0  0  0  0
  -22.3200  -12.6820   21.9750 N   0  0  0  0  0  0  0  0  0  0  0  0
  -22.5340  -14.3940   20.5630 O   0  0  0  0  0  0  0  0  0  0  0  0
  -22.7190  -11.8680   22.4170 H   0  0  0  0  0  0  0  0  0  0  0  0
  -21.3830  -12.9650   22.2220 H   0  0  0  0  0  0  0  0  0  0  0  0
  -25.5780  -15.0860   20.1500 N   0  0  0  0  0  0  0  0  0  0  0  0
  -24.8030  -15.7270   20.2710 H   0  0  0  0  0  0  0  0  0  0  0  0
  -26.4150  -15.5360   19.8010 H   0  0  0  0  0  0  0  0  0  0  0  0
  1 47  1  0
  1  2  1  0
  3  1  2  0
  4  3  1  0
  5  4  1  0
  6  8  1  0
  6  5  1  0
  7 18  2  0
  8 13  1  0
  9 17  1  0
  9 19  1  0
 10 16  1  0
 10 12  1  0
 11 17  1  0
 12 11  1  0
 13 12  2  0
 14 15  1  0
 14  8  2  0
 15 10  2  0
 16  9  1  0
 17  7  1  0
 19 21  2  0
 20 19  1  0
 22 20  1  0
 23 32  2  0
 23 28  1  0
 24 20  1  0
 24 28  1  0
 25 24  1  0
 26 27  1  0
 26 25  1  0
 27 23  1  0
 28 29  2  0
 29 30  1  0
 31 30  2  0
 32 31  1  0
 33  7  1  0
 33 38  1  0
 33 34  1  0
 34 37  1  1
 34 35  1  0
 36 34  1  0
 38 41  1  0
 39 43  1  0
 39 38  1  0
 40 39  2  0
 43 42  1  0
 45 43  1  0
 45 46  1  0
 45 44  1  0
 47 48  1  0
 48 49  1  0
 50 51  1  0
 50 49  1  0
 52 53  1  0
 52 51  1  0
 54 63  1  0
 54 53  1  0
 55 63  1  0
 56 61  1  0
 57 58  1  0
 57 56  1  0
 59 58  1  0
 59 68  1  0
 59 60  1  0
 61 55  1  0
 61 60  1  0
 62 55  2  0
 63 64  1  0
 65 66  2  0
 66 85  1  0
 67 66  1  0
 67 70  1  0
 68 65  1  0
 68 69  1  0
 69 67  2  0
 70 71  1  0
 71 72  2  0
 73 76  1  0
 73 72  1  0
 74 73  2  0
 75 74  1  0
 75 70  2  0
 76 77  1  0
 77 82  2  0
 77 78  1  0
 78 79  2  0
 79 80  1  0
 80 84  1  0
 81 80  2  0
 82 81  1  0
 83 82  1  0
 85 86  1  0
 86 89  1  0
 86 88  1  0
 87 85  2  0
 90 91  1  0
 90 65  1  0
 92 90  1  0
M  ISO  4   5 101   6 101  55 100  63 100
M  END
>  <TORSDO>  (76) 
F 26

>  <SCORE>  (76) 
-6.614

>  <name>  (76) 
75

>  <ligand_id>  (76) 
75

>  <original_smiles>  (76) 
[H]c1c([H])c([H])c2c(c1[H])C([H])([H])C([H])([H])C([H])([H])C2([H])N([H])C(=O)C1([H])N(C(=O)C([H])(N([H])C(=O)C([H])(N([H])C([H])([H])[H])C([H])([H])[H])C(C([H])([H])[H])(C([H])([H])[H])C([H])([H])[H])C([H])([H])c2c([H])c(OC([H])([H])C([H])([H])N=C(C([H])([H])[H])C([H])([H])C([H])([H])C([H])([H])C([H])([H])C([H])([H])C([H])([H])C([H])([H])C([H])([H])N([H])C(=O)N3C([H])([H])C([H])([H])C([H])([H])C([H])(n4nc(-c5c([H])c([H])c(Oc6c([H])c([H])c(F)c([H])c6F)c([H])c5[H])c(C(=O)N([H])[H])c4N([H])[H])C3([H])[H])c([H])c([H])c2C1([H])[H]

>  <smiles>  (76) 
[H]c1c([H])c([H])c2c(c1[H])C([H])([H])C([H])([H])C([H])([H])C2([H])N([H])C(=O)C1([H])N(C(=O)C([H])(N([H])C(=O)C([H])(N([H])C([H])([H])[H])C([H])([H])[H])C(C([H])([H])[H])(C([H])([H])[H])C([H])([H])[H])C([H])([H])c2c([H])c(OC([H])([H])C([H])([H])N=C(C([H])([H])[H])C([H])([H])C([H])([H])C([H])([H])C([H])([H])C([H])([H])C([H])([H])C([H])([H])C([H])([H])N([H])C(=O)N3C([H])([H])C([H])([H])C([H])([H])C([H])(n4nc(-c5c([H])c([H])c(Oc6c([H])c([H])c(F)c([H])c6F)c([H])c5[H])c(C(=O)N([H])[H])c4N([H])[H])C3([H])[H])c([H])c([H])c2C1([H])[H]

$$$$
76:0:0
     RDKit          3D

100109  0  0  1  0  0  0  0  0999 V2000
  -25.2750  -23.8110   22.3370 C   0  0  0  0  0  3  0  0  0  0  0  0
  -25.2770  -23.2260   21.0600 C   0  0  0  0  0  3  0  0  0  0  0  0
  -24.8370  -25.1340   22.5190 C   0  0  0  0  0  0  0  0  0  0  0  0
  -24.8240  -23.9460   19.9340 C   0  0  0  0  0  0  0  0  0  0  0  0
  -24.4240  -25.8950   21.3880 C   0  0  0  0  0  0  0  0  0  0  0  0
  -24.4010  -25.2950   20.0970 C   0  0  0  0  0  0  0  0  0  0  0  0
  -24.0020  -27.3540   21.5380 C   0  0  0  0  0  1  0  0  0  0  0  0
  -23.9130  -26.1260   18.9110 C   0  0  0  0  0  1  0  0  0  0  0  0
  -24.8120  -25.6520   23.9150 C   0  0  0  0  0  0  0  0  0  0  0  0
  -23.7830  -26.0030   24.4990 O   0  0  0  0  0  0  0  0  0  0  0  0
  -26.1840  -25.8030   24.6070 C   0  0  0  0  0  2  0  0  0  0  0  0
  -27.3940  -26.2290   23.6960 C   0  0  0  0  0  2  0  0  0  0  0  0
  -28.2070  -27.5740   23.6510 C   0  0  0  0  0  2  0  0  0  0  0  0
  -28.6540  -28.0330   24.9360 O   0  0  0  0  0  0  0  0  0  0  0  0
  -26.7400  -29.4040   31.6280 C   0  0  0  0  0  0  0  0  0  0  0  0
  -27.7450  -28.6810   25.7440 C   0  0  0  0  0  0  0  0  0  0  0  0
  -25.0540  -29.9300   29.8940 C   0  0  0  0  0  3  0  0  0  0  0  0
  -25.8930  -29.8880   27.4930 C   0  0  0  0  0  0  0  0  0  0  0  0
  -27.5530  -29.9910   29.3520 C   0  0  0  0  0  2  0  0  0  0  0  0
  -27.1910  -29.6080   27.9360 C   0  0  0  0  0  0  0  0  0  0  0  0
  -28.1240  -29.0000   27.0650 C   0  0  0  0  0  3  0  0  0  0  0  0
  -26.4440  -29.0100   25.3040 C   0  0  0  0  0  3  0  0  0  0  0  0
  -25.5120  -29.5880   26.1780 C   0  0  0  0  0  3  0  0  0  0  0  0
  -24.9470  -30.5350   28.4740 C   0  0  0  0  0  2  0  0  0  0  0  0
  -26.4730  -29.7320   30.3310 N   0  0  0  0  0  0  0  0  0  0  0  0
  -25.8290  -29.2970   32.4600 O   0  0  0  0  0  0  0  0  0  0  0  0
  -24.2120  -28.6320   29.9490 C   0  0  0  0  0  0  0  0  0  0  0  0
  -23.4160  -28.4800   31.0220 N   0  0  0  0  0  0  0  0  0  0  0  0
  -24.2670  -27.8030   29.0370 O   0  0  0  0  0  0  0  0  0  0  0  0
  -23.4140  -29.2170   31.7130 H   0  0  0  0  0  0  0  0  0  0  0  0
  -21.8900  -26.5450   33.6470 C   0  0  0  0  0  0  0  0  0  0  0  0
  -22.5260  -27.3510   31.2810 C   0  0  0  0  0  3  0  0  0  0  0  0
  -21.0480  -27.7670   31.1280 C   0  0  0  0  0  2  0  0  0  0  0  0
  -20.4080  -28.2180   32.4440 C   0  0  0  0  0  2  0  0  0  0  0  0
  -20.4890  -27.1160   33.5000 C   0  0  0  0  0  2  0  0  0  0  0  0
  -22.8530  -26.6710   32.6160 C   0  0  0  0  0  0  0  0  0  0  0  0
  -24.1540  -26.1590   32.8220 C   0  0  0  0  0  3  0  0  0  0  0  0
  -24.4860  -25.5070   34.0250 C   0  0  0  0  0  3  0  0  0  0  0  0
  -23.5180  -25.3590   35.0330 C   0  0  0  0  0  3  0  0  0  0  0  0
  -22.2280  -25.8880   34.8480 C   0  0  0  0  0  3  0  0  0  0  0  0
  -28.2010  -29.1700   32.1230 C   0  0  0  0  0  3  0  0  0  0  0  0
  -28.3610  -29.8970   33.3880 N   0  0  0  0  0  0  0  0  0  0  0  0
  -28.7890  -31.1630   33.4860 C   0  0  0  0  0  0  0  0  0  0  0  0
  -29.1660  -31.8210   32.5140 O   0  0  0  0  0  0  0  0  0  0  0  0
  -28.0320  -29.4320   34.2200 H   0  0  0  0  0  0  0  0  0  0  0  0
  -27.7130  -32.8770   34.9800 C   0  0  0  0  0  1  0  0  0  0  0  0
  -28.8020  -31.7960   34.8910 C   0  0  0  0  0  3  0  0  0  0  0  0
  -31.1130  -31.3700   35.6010 C   0  0  0  0  0  1  0  0  0  0  0  0
  -30.1090  -32.3750   35.2650 N   0  0  0  0  0  0  0  0  0  0  0  0
  -30.0100  -32.9990   36.0620 H   0  0  0  0  0  0  0  0  0  0  0  0
  -28.5530  -27.6420   32.3070 C   0  0  1  0  0  0  0  0  0  0  0  0
  -27.4290  -26.8180   32.9730 C   0  0  0  0  0  1  0  0  0  0  0  0
  -28.8710  -26.9870   30.9420 C   0  0  0  0  0  1  0  0  0  0  0  0
  -29.8260  -27.5010   33.1750 C   0  0  0  0  0  1  0  0  0  0  0  0
  -24.7390  -23.2620   18.5650 C   0  0  0  0  0  2  0  0  0  0  0  0
  -25.8840  -22.3100   18.1670 C   0  0  0  0  0  2  0  0  0  0  0  0
  -27.2560  -22.9940   18.2040 C   0  0  0  0  0  2  0  0  0  0  0  0
  -28.1840  -22.6140   17.0280 C   0  0  0  0  0  2  0  0  0  0  0  0
  -31.4240  -26.7430   16.1530 C   0  0  0  0  0  0  0  0  0  0  0  0
  -30.8200  -28.6300   14.6850 C   0  0  0  0  0  2  0  0  0  0  0  0
  -29.5860  -29.3970   15.2020 C   0  0  0  0  0  2  0  0  0  0  0  0
  -28.2820  -28.7510   14.6970 C   0  0  0  0  0  2  0  0  0  0  0  0
  -28.2490  -27.2230   14.9470 C   0  0  0  0  0  3  0  0  0  0  0  0
  -29.5570  -26.5760   14.4430 C   0  0  0  0  0  2  0  0  0  0  0  0
  -30.7080  -27.2250   15.1020 N   0  0  0  0  0  0  0  0  0  0  0  0
  -32.1630  -27.4610   16.8390 O   0  0  0  0  0  0  0  0  0  0  0  0
  -29.6700  -24.4150   18.0140 C   0  0  0  0  0  2  0  0  0  0  0  0
  -30.3640  -23.2160   15.8250 C   0  0  0  0  0  2  0  0  0  0  0  0
  -30.9980  -25.1470   17.9260 C   0  0  0  0  0  2  0  0  0  0  0  0
  -31.5090  -24.2700   15.7400 C   0  0  0  0  0  2  0  0  0  0  0  0
  -29.6470  -23.0930   17.2090 C   0  0  0  0  0  3  0  0  0  0  0  0
  -31.1690  -25.4680   16.5190 N   0  0  0  0  0  0  0  0  0  0  0  0
  -25.8610  -26.2530   14.9030 C   0  0  0  0  0  0  0  0  0  0  0  0
  -25.0850  -25.7730   13.8780 C   0  0  0  0  0  0  0  0  0  0  0  0
  -25.8830  -25.8840   12.6990 C   0  0  0  0  0  0  0  0  0  0  0  0
  -27.0720  -26.6070   14.3320 N   0  0  0  0  0  0  0  0  0  0  0  0
  -27.0940  -26.3360   13.0010 N   0  0  0  0  0  0  0  0  0  0  0  0
  -25.5470  -25.6380   11.2900 C   0  0  0  0  0  0  0  0  0  0  0  0
  -26.1840  -24.6200   10.5450 C   0  0  0  0  0  3  0  0  0  0  0  0
  -25.8330  -24.3940    9.1970 C   0  0  0  0  0  3  0  0  0  0  0  0
  -24.8340  -25.1850    8.5810 C   0  0  0  0  0  0  0  0  0  0  0  0
  -24.2190  -26.2110    9.3200 C   0  0  0  0  0  3  0  0  0  0  0  0
  -24.5740  -26.4380   10.6600 C   0  0  0  0  0  3  0  0  0  0  0  0
  -24.4460  -25.0530    7.2710 O   0  0  0  0  0  0  0  0  0  0  0  0
  -24.4130  -23.8290    6.6490 C   0  0  0  0  0  0  0  0  0  0  0  0
  -23.5220  -22.8120    7.0530 C   0  0  0  0  0  3  0  0  0  0  0  0
  -23.4730  -21.5960    6.3430 C   0  0  0  0  0  3  0  0  0  0  0  0
  -24.3060  -21.4000    5.2250 C   0  0  0  0  0  0  0  0  0  0  0  0
  -25.1890  -22.4140    4.8160 C   0  0  0  0  0  3  0  0  0  0  0  0
  -25.2410  -23.6280    5.5260 C   0  0  0  0  0  0  0  0  0  0  0  0
  -26.0790  -24.6100    5.1170 F   0  0  0  0  0  0  0  0  0  0  0  0
  -24.2530  -20.2350    4.5370 F   0  0  0  0  0  0  0  0  0  0  0  0
  -23.6540  -25.3310   13.9680 C   0  0  0  0  0  0  0  0  0  0  0  0
  -23.2500  -24.3860   13.1240 N   0  0  0  0  0  0  0  0  0  0  0  0
  -22.8930  -25.7870   14.8200 O   0  0  0  0  0  0  0  0  0  0  0  0
  -23.8790  -23.9970   12.4380 H   0  0  0  0  0  0  0  0  0  0  0  0
  -22.3000  -24.0460   13.1670 H   0  0  0  0  0  0  0  0  0  0  0  0
  -25.6300  -26.4330   16.2600 N   0  0  0  0  0  0  0  0  0  0  0  0
  -24.7380  -26.2220   16.6930 H   0  0  0  0  0  0  0  0  0  0  0  0
  -26.3050  -26.8190   16.9070 H   0  0  0  0  0  0  0  0  0  0  0  0
  1  3  1  0
  2  1  2  0
  3  9  1  0
  4  6  2  0
  4  2  1  0
  5  7  1  0
  5  3  2  0
  6  5  1  0
  8  6  1  0
  9 10  2  0
  9 11  1  0
 12 11  1  0
 13 12  1  0
 13 14  1  0
 14 16  1  0
 15 26  2  0
 16 21  1  0
 17 27  1  0
 17 25  1  0
 18 20  1  0
 18 24  1  0
 19 25  1  0
 20 19  1  0
 21 20  2  0
 22 16  2  0
 22 23  1  0
 23 18  2  0
 24 17  1  0
 25 15  1  0
 27 28  1  0
 28 30  1  0
 29 27  2  0
 31 40  1  0
 32 28  1  0
 32 36  1  0
 33 32  1  0
 33 34  1  0
 34 35  1  0
 35 31  1  0
 36 37  1  0
 36 31  2  0
 37 38  2  0
 38 39  1  0
 40 39  2  0
 41 15  1  0
 41 51  1  0
 41 42  1  0
 42 43  1  0
 42 45  1  0
 43 47  1  0
 44 43  2  0
 47 46  1  0
 47 49  1  0
 49 48  1  0
 49 50  1  0
 51 52  1  1
 51 54  1  0
 53 51  1  0
 55  4  1  0
 56 57  1  0
 56 55  1  0
 58 57  1  0
 59 72  1  0
 59 66  2  0
 60 65  1  0
 60 61  1  0
 62 63  1  0
 62 61  1  0
 63 76  1  0
 64 63  1  0
 64 65  1  0
 65 59  1  0
 68 71  1  0
 69 67  1  0
 70 68  1  0
 70 72  1  0
 71 58  1  0
 71 67  1  0
 72 69  1  0
 73 98  1  0
 74 93  1  0
 74 73  2  0
 75 77  2  0
 75 74  1  0
 76 73  1  0
 77 76  1  0
 78 75  1  0
 79 78  2  0
 80 79  1  0
 81 80  2  0
 81 82  1  0
 82 83  2  0
 83 78  1  0
 84 81  1  0
 85 86  1  0
 85 84  1  0
 87 86  2  0
 88 87  1  0
 89 88  2  0
 89 90  1  0
 90 85  2  0
 91 90  1  0
 92 88  1  0
 93 95  2  0
 94 97  1  0
 94 93  1  0
 96 94  1  0
 98 99  1  0
 98100  1  0
M  ISO  4  13 101  14 101  59 100  72 100
M  END
>  <TORSDO>  (77) 
F 24

>  <SCORE>  (77) 
-3.133

>  <name>  (77) 
76

>  <ligand_id>  (77) 
76

>  <original_smiles>  (77) 
[H]c1c([H])c([H])c2c(c1[H])C([H])([H])C([H])([H])C([H])([H])C2([H])N([H])C(=O)C1([H])N(C(=O)C([H])(N([H])C(=O)C([H])(N([H])C([H])([H])[H])C([H])([H])[H])C(C([H])([H])[H])(C([H])([H])[H])C([H])([H])[H])C([H])([H])c2c([H])c(OC([H])([H])C([H])([H])C([H])([H])C(=O)c3c([H])c([H])c(C([H])([H])C([H])([H])C([H])([H])C([H])([H])C4([H])C([H])([H])C([H])([H])N(C(=O)N5C([H])([H])C([H])([H])C([H])([H])C([H])(n6nc(-c7c([H])c([H])c(Oc8c([H])c([H])c(F)c([H])c8F)c([H])c7[H])c(C(=O)N([H])[H])c6N([H])[H])C5([H])[H])C([H])([H])C4([H])[H])c(C([H])([H])[H])c3C([H])([H])[H])c([H])c([H])c2C1([H])[H]

>  <smiles>  (77) 
[H]c1c([H])c([H])c2c(c1[H])C([H])([H])C([H])([H])C([H])([H])C2([H])N([H])C(=O)C1([H])N(C(=O)C([H])(N([H])C(=O)C([H])(N([H])C([H])([H])[H])C([H])([H])[H])C(C([H])([H])[H])(C([H])([H])[H])C([H])([H])[H])C([H])([H])c2c([H])c(OC([H])([H])C([H])([H])C([H])([H])C(=O)c3c([H])c([H])c(C([H])([H])C([H])([H])C([H])([H])C([H])([H])C4([H])C([H])([H])C([H])([H])N(C(=O)N5C([H])([H])C([H])([H])C([H])([H])C([H])(n6nc(-c7c([H])c([H])c(Oc8c([H])c([H])c(F)c([H])c8F)c([H])c7[H])c(C(=O)N([H])[H])c6N([H])[H])C5([H])[H])C([H])([H])C4([H])[H])c(C([H])([H])[H])c3C([H])([H])[H])c([H])c([H])c2C1([H])[H]

$$$$
77:0:0
     RDKit          3D

 98107  0  0  1  0  0  0  0  0999 V2000
  -31.5570  -25.7800   16.6800 C   0  0  0  0  0  3  0  0  0  0  0  0
  -30.3500  -26.1440   17.3130 C   0  0  0  0  0  3  0  0  0  0  0  0
  -30.5960  -24.2980   18.9110 C   0  0  0  0  0  3  0  0  0  0  0  0
  -32.2560  -24.6680   17.1720 C   0  0  0  0  0  0  0  0  0  0  0  0
  -31.8190  -23.9640   18.2890 C   0  0  0  0  0  0  0  0  0  0  0  0
  -29.8530  -25.3870   18.4040 C   0  0  0  0  0  0  0  0  0  0  0  0
  -33.4840  -24.0530   16.5680 C   0  0  0  0  0  3  0  0  0  0  0  0
  -33.9080  -22.9810   17.5980 C   0  0  0  0  0  3  0  0  0  0  0  0
  -32.7730  -22.8470   18.6580 C   0  0  0  0  0  3  0  0  0  0  0  0
  -33.3050  -23.0240   20.0230 N   0  0  0  0  0  4  0  0  0  0  0  0
  -33.2650  -24.0100   20.2280 H   0  0  0  0  0  0  0  0  0  0  0  0
  -34.2750  -22.7540   20.0440 H   0  0  0  0  0  0  0  0  0  0  0  0
  -32.5860  -22.3020   21.0920 C   0  0  0  0  0  2  0  0  0  0  0  0
  -32.9610  -20.8090   21.1850 C   0  0  0  0  0  2  0  0  0  0  0  0
  -31.7690  -19.8550   20.9930 C   0  0  0  0  0  2  0  0  0  0  0  0
  -32.0720  -18.4450   21.5150 C   0  0  0  0  0  2  0  0  0  0  0  0
  -31.0160  -17.4060   21.1050 C   0  0  0  0  0  2  0  0  0  0  0  0
  -31.1750  -16.0880   21.8900 C   0  0  0  0  0  2  0  0  0  0  0  0
  -30.7160  -14.2430   20.2910 C   0  0  0  0  0  0  0  0  0  0  0  0
  -30.2440  -12.2220   18.9650 C   0  0  0  0  0  2  0  0  0  0  0  0
  -29.2560  -12.5080   17.8210 C   0  0  0  0  0  2  0  0  0  0  0  0
  -27.8010  -12.3810   18.3080 C   0  0  0  0  0  2  0  0  0  0  0  0
  -27.5400  -13.1640   19.6230 C   0  0  0  0  0  3  0  0  0  0  0  0
  -28.6320  -12.8670   20.6740 C   0  0  0  0  0  2  0  0  0  0  0  0
  -29.9490  -13.1450   20.0700 N   0  0  0  0  0  0  0  0  0  0  0  0
  -31.7070  -14.5190   19.6110 O   0  0  0  0  0  0  0  0  0  0  0  0
  -30.3730  -14.9900   21.3470 N   0  0  0  0  0  0  0  0  0  0  0  0
  -29.5510  -14.7070   21.8610 H   0  0  0  0  0  0  0  0  0  0  0  0
  -25.1630  -13.7750   20.4030 C   0  0  0  0  0  0  0  0  0  0  0  0
  -24.1070  -13.0050   20.8070 C   0  0  0  0  0  0  0  0  0  0  0  0
  -24.5620  -11.6530   20.7640 C   0  0  0  0  0  0  0  0  0  0  0  0
  -26.2010  -12.8930   20.1450 N   0  0  0  0  0  0  0  0  0  0  0  0
  -25.8420  -11.6110   20.4140 N   0  0  0  0  0  0  0  0  0  0  0  0
  -23.8410  -10.3920   20.9800 C   0  0  0  0  0  0  0  0  0  0  0  0
  -24.3060   -9.4220   21.8940 C   0  0  0  0  0  3  0  0  0  0  0  0
  -23.5840   -8.2270   22.0970 C   0  0  0  0  0  3  0  0  0  0  0  0
  -22.3820   -7.9940   21.3880 C   0  0  0  0  0  0  0  0  0  0  0  0
  -21.9370   -8.9520   20.4610 C   0  0  0  0  0  3  0  0  0  0  0  0
  -22.6600  -10.1380   20.2550 C   0  0  0  0  0  3  0  0  0  0  0  0
  -21.6280   -6.8520   21.5020 O   0  0  0  0  0  0  0  0  0  0  0  0
  -21.6290   -6.1020   22.6500 C   0  0  0  0  0  0  0  0  0  0  0  0
  -21.2830   -6.6510   23.9030 C   0  0  0  0  0  3  0  0  0  0  0  0
  -21.2300   -5.8270   25.0450 C   0  0  0  0  0  3  0  0  0  0  0  0
  -21.5150   -4.4520   24.9360 C   0  0  0  0  0  0  0  0  0  0  0  0
  -21.8570   -3.9010   23.6870 C   0  0  0  0  0  3  0  0  0  0  0  0
  -21.9120   -4.7230   22.5490 C   0  0  0  0  0  0  0  0  0  0  0  0
  -22.2200   -4.1810   21.3460 F   0  0  0  0  0  0  0  0  0  0  0  0
  -21.4580   -3.6580   26.0300 F   0  0  0  0  0  0  0  0  0  0  0  0
  -22.7190  -13.4870   21.1250 C   0  0  0  0  0  0  0  0  0  0  0  0
  -22.0200  -12.7940   22.0160 N   0  0  0  0  0  0  0  0  0  0  0  0
  -22.2670  -14.5130   20.6170 O   0  0  0  0  0  0  0  0  0  0  0  0
  -22.3970  -11.9630   22.4480 H   0  0  0  0  0  0  0  0  0  0  0  0
  -21.0900  -13.0950   22.2720 H   0  0  0  0  0  0  0  0  0  0  0  0
  -25.3260  -15.1470   20.2180 N   0  0  0  0  0  0  0  0  0  0  0  0
  -24.5630  -15.8030   20.3470 H   0  0  0  0  0  0  0  0  0  0  0  0
  -26.1780  -15.5830   19.8860 H   0  0  0  0  0  0  0  0  0  0  0  0
  -28.4670  -25.6750   18.9450 C   0  0  0  0  0  2  0  0  0  0  0  0
  -28.4260  -26.7290   19.9140 O   0  0  0  0  0  0  0  0  0  0  0  0
  -24.6290  -31.8360   23.1820 C   0  0  0  0  0  0  0  0  0  0  0  0
  -27.2230  -27.3990   20.0320 C   0  0  0  0  0  0  0  0  0  0  0  0
  -23.4020  -30.4410   21.5530 C   0  0  0  0  0  3  0  0  0  0  0  0
  -24.8280  -28.8980   20.1230 C   0  0  0  0  0  0  0  0  0  0  0  0
  -25.9280  -30.7860   21.3320 C   0  0  0  0  0  2  0  0  0  0  0  0
  -25.9980  -29.4140   20.6930 C   0  0  0  0  0  0  0  0  0  0  0  0
  -27.1990  -28.6680   20.6510 C   0  0  0  0  0  3  0  0  0  0  0  0
  -26.0120  -26.8730   19.5180 C   0  0  0  0  0  3  0  0  0  0  0  0
  -24.8240  -27.6200   19.5470 C   0  0  0  0  0  3  0  0  0  0  0  0
  -23.5940  -29.7660   20.1730 C   0  0  0  0  0  2  0  0  0  0  0  0
  -24.6720  -31.0370   22.0790 N   0  0  0  0  0  0  0  0  0  0  0  0
  -23.5530  -32.1120   23.7290 O   0  0  0  0  0  0  0  0  0  0  0  0
  -22.7540  -29.4190   22.5150 C   0  0  0  0  0  0  0  0  0  0  0  0
  -21.4260  -29.2490   22.4030 N   0  0  0  0  0  0  0  0  0  0  0  0
  -23.4430  -28.7770   23.3130 O   0  0  0  0  0  0  0  0  0  0  0  0
  -20.9350  -29.8160   21.7280 H   0  0  0  0  0  0  0  0  0  0  0  0
  -18.0430  -28.0990   22.9380 C   0  0  0  0  0  0  0  0  0  0  0  0
  -20.6080  -28.3180   23.1780 C   0  0  0  0  0  3  0  0  0  0  0  0
  -20.6840  -26.8910   22.5880 C   0  0  0  0  0  2  0  0  0  0  0  0
  -19.5620  -26.5910   21.5880 C   0  0  0  0  0  2  0  0  0  0  0  0
  -18.1910  -26.7520   22.2530 C   0  0  0  0  0  2  0  0  0  0  0  0
  -19.1790  -28.8410   23.3580 C   0  0  0  0  0  0  0  0  0  0  0  0
  -18.9880  -30.1060   23.9550 C   0  0  0  0  0  3  0  0  0  0  0  0
  -17.6930  -30.6260   24.1410 C   0  0  0  0  0  3  0  0  0  0  0  0
  -16.5710  -29.8790   23.7370 C   0  0  0  0  0  3  0  0  0  0  0  0
  -16.7480  -28.6170   23.1410 C   0  0  0  0  0  3  0  0  0  0  0  0
  -25.9230  -32.4560   23.7900 C   0  0  0  0  0  3  0  0  0  0  0  0
  -25.6160  -33.8460   24.1530 N   0  0  0  0  0  0  0  0  0  0  0  0
  -25.9230  -34.9120   23.4040 C   0  0  0  0  0  0  0  0  0  0  0  0
  -26.5680  -34.8300   22.3540 O   0  0  0  0  0  0  0  0  0  0  0  0
  -25.0380  -33.9830   24.9690 H   0  0  0  0  0  0  0  0  0  0  0  0
  -24.1710  -36.6940   23.1250 C   0  0  0  0  0  1  0  0  0  0  0  0
  -25.4370  -36.2890   23.8940 C   0  0  0  0  0  3  0  0  0  0  0  0
  -27.5900  -37.1760   24.6740 C   0  0  0  0  0  1  0  0  0  0  0  0
  -26.4590  -37.3510   23.7680 N   0  0  0  0  0  0  0  0  0  0  0  0
  -26.0520  -38.2660   23.9420 H   0  0  0  0  0  0  0  0  0  0  0  0
  -26.4660  -31.6570   25.0380 C   0  0  1  0  0  0  0  0  0  0  0  0
  -25.3960  -31.3950   26.1210 C   0  0  0  0  0  1  0  0  0  0  0  0
  -27.0430  -30.2910   24.6020 C   0  0  0  0  0  1  0  0  0  0  0  0
  -27.6270  -32.4400   25.6950 C   0  0  0  0  0  1  0  0  0  0  0  0
  1  4  2  0
  1  2  1  0
  2  6  2  0
  4  5  1  0
  5  9  1  0
  5  3  2  0
  6  3  1  0
  6 57  1  0
  7  4  1  0
  7  8  2  0
  8  9  1  0
  9 10  1  0
 10 12  1  0
 10 11  1  0
 10 13  1  0
 13 14  1  0
 15 14  1  0
 15 16  1  0
 17 16  1  0
 17 18  1  0
 19 27  1  0
 20 25  1  0
 21 22  1  0
 21 20  1  0
 23 22  1  0
 23 32  1  0
 23 24  1  0
 25 19  1  0
 25 24  1  0
 26 19  2  0
 27 28  1  0
 27 18  1  0
 29 30  2  0
 30 49  1  0
 31 30  1  0
 31 34  1  0
 32 29  1  0
 32 33  1  0
 33 31  2  0
 34 35  1  0
 35 36  2  0
 37 40  1  0
 37 36  1  0
 38 37  2  0
 39 38  1  0
 39 34  2  0
 40 41  1  0
 41 42  1  0
 42 43  2  0
 44 43  1  0
 44 48  1  0
 45 44  2  0
 46 41  2  0
 46 45  1  0
 47 46  1  0
 49 50  1  0
 50 53  1  0
 50 52  1  0
 51 49  2  0
 54 55  1  0
 54 29  1  0
 56 54  1  0
 57 58  1  0
 58 60  1  0
 59 70  2  0
 60 65  1  0
 61 69  1  0
 61 71  1  0
 62 68  1  0
 62 64  1  0
 63 69  1  0
 64 63  1  0
 65 64  2  0
 66 67  1  0
 66 60  2  0
 67 62  2  0
 68 61  1  0
 69 59  1  0
 71 73  2  0
 72 71  1  0
 74 72  1  0
 75 84  2  0
 75 80  1  0
 76 72  1  0
 76 80  1  0
 77 76  1  0
 78 79  1  0
 78 77  1  0
 79 75  1  0
 80 81  2  0
 81 82  1  0
 83 82  2  0
 84 83  1  0
 85 59  1  0
 85 86  1  0
 85 95  1  0
 86 89  1  0
 87 91  1  0
 87 86  1  0
 88 87  2  0
 91 90  1  0
 93 91  1  0
 93 94  1  0
 93 92  1  0
 95 98  1  1
 95 96  1  0
 97 95  1  0
M  ISO  4  19 100  27 100  57 101  58 101
M  END
>  <TORSDO>  (78) 
F 24

>  <SCORE>  (78) 
-11.947

>  <name>  (78) 
77

>  <ligand_id>  (78) 
77

>  <original_smiles>  (78) 
[H]c1c([H])c([H])c2c(c1[H])C([H])([H])C([H])([H])C([H])([H])C2([H])N([H])C(=O)C1([H])N(C(=O)C([H])(N([H])C(=O)C([H])(N([H])C([H])([H])[H])C([H])([H])[H])C(C([H])([H])[H])(C([H])([H])[H])C([H])([H])[H])C([H])([H])c2c([H])c(OC([H])([H])c3c([H])c([H])c4c(c3[H])C([H])([N+]([H])([H])C([H])([H])C([H])([H])C([H])([H])C([H])([H])C([H])([H])C([H])([H])N([H])C(=O)N3C([H])([H])C([H])([H])C([H])([H])C([H])(n5nc(-c6c([H])c([H])c(Oc7c([H])c([H])c(F)c([H])c7F)c([H])c6[H])c(C(=O)N([H])[H])c5N([H])[H])C3([H])[H])C([H])([H])C4([H])[H])c([H])c([H])c2C1([H])[H]

>  <smiles>  (78) 
[H]c1c([H])c([H])c2c(c1[H])C([H])([H])C([H])([H])C([H])([H])C2([H])N([H])C(=O)C1([H])N(C(=O)C([H])(N([H])C(=O)C([H])(N([H])C([H])([H])[H])C([H])([H])[H])C(C([H])([H])[H])(C([H])([H])[H])C([H])([H])[H])C([H])([H])c2c([H])c(OC([H])([H])c3c([H])c([H])c4c(c3[H])C([H])([N+]([H])([H])C([H])([H])C([H])([H])C([H])([H])C([H])([H])C([H])([H])C([H])([H])N([H])C(=O)N3C([H])([H])C([H])([H])C([H])([H])C([H])(n5nc(-c6c([H])c([H])c(Oc7c([H])c([H])c(F)c([H])c7F)c([H])c6[H])c(C(=O)N([H])[H])c5N([H])[H])C3([H])[H])C([H])([H])C4([H])[H])c([H])c([H])c2C1([H])[H]

$$$$
78:0:0
     RDKit          3D

 93100  0  0  1  0  0  0  0  0999 V2000
  -27.3940  -22.9490   17.5140 C   0  0  0  0  0  0  0  0  0  0  0  0
  -26.9070  -22.4580   18.6690 N   0  0  0  0  0  0  0  0  0  0  0  0
  -27.4520  -22.2860   16.4740 O   0  0  0  0  0  0  0  0  0  0  0  0
  -26.8380  -23.0930   19.4570 H   0  0  0  0  0  0  0  0  0  0  0  0
  -27.7830  -24.3420   17.6100 C   0  0  0  0  0  3  0  0  0  0  0  0
  -28.4870  -24.8350   18.6460 C   0  0  0  0  0  3  0  0  0  0  0  0
  -28.8560  -26.2950   18.7860 C   0  0  0  0  0  2  0  0  0  0  0  0
  -28.3370  -26.8690   19.9840 O   0  0  0  0  0  0  0  0  0  0  0  0
  -24.4470  -31.8120   23.2010 C   0  0  0  0  0  0  0  0  0  0  0  0
  -27.1500  -27.5640   19.9300 C   0  0  0  0  0  0  0  0  0  0  0  0
  -23.4120  -30.2150   21.6050 C   0  0  0  0  0  3  0  0  0  0  0  0
  -24.7690  -29.0590   19.8880 C   0  0  0  0  0  0  0  0  0  0  0  0
  -25.7890  -30.9250   21.2680 C   0  0  0  0  0  2  0  0  0  0  0  0
  -25.9120  -29.5840   20.5310 C   0  0  0  0  0  0  0  0  0  0  0  0
  -27.0960  -28.8180   20.5860 C   0  0  0  0  0  3  0  0  0  0  0  0
  -25.9940  -27.0630   19.2850 C   0  0  0  0  0  3  0  0  0  0  0  0
  -24.8000  -27.8000   19.2760 C   0  0  0  0  0  3  0  0  0  0  0  0
  -23.4650  -29.7940   20.1200 C   0  0  0  0  0  2  0  0  0  0  0  0
  -24.5190  -31.1040   22.0360 N   0  0  0  0  0  0  0  0  0  0  0  0
  -23.3640  -32.0240   23.7680 O   0  0  0  0  0  0  0  0  0  0  0  0
  -22.5330  -29.3980   22.5770 C   0  0  0  0  0  0  0  0  0  0  0  0
  -21.2300  -29.2710   22.3180 N   0  0  0  0  0  0  0  0  0  0  0  0
  -23.0540  -28.7680   23.5150 O   0  0  0  0  0  0  0  0  0  0  0  0
  -20.8100  -29.8210   21.5780 H   0  0  0  0  0  0  0  0  0  0  0  0
  -17.8610  -28.0620   22.7460 C   0  0  0  0  0  0  0  0  0  0  0  0
  -20.3990  -28.2870   23.0210 C   0  0  0  0  0  3  0  0  0  0  0  0
  -20.5100  -26.8940   22.3600 C   0  0  0  0  0  2  0  0  0  0  0  0
  -19.4050  -26.6220   21.3340 C   0  0  0  0  0  2  0  0  0  0  0  0
  -18.0320  -26.7510   22.0000 C   0  0  0  0  0  2  0  0  0  0  0  0
  -18.9780  -28.7970   23.2090 C   0  0  0  0  0  0  0  0  0  0  0  0
  -18.7830  -30.0360   23.8530 C   0  0  0  0  0  3  0  0  0  0  0  0
  -17.4860  -30.5310   24.0560 C   0  0  0  0  0  3  0  0  0  0  0  0
  -16.3720  -29.7900   23.6220 C   0  0  0  0  0  3  0  0  0  0  0  0
  -16.5630  -28.5590   22.9700 C   0  0  0  0  0  3  0  0  0  0  0  0
  -25.7200  -32.4290   23.8470 C   0  0  0  0  0  3  0  0  0  0  0  0
  -26.1940  -31.6440   25.1360 C   0  0  1  0  0  0  0  0  0  0  0  0
  -25.0730  -31.4250   26.1850 C   0  0  0  0  0  1  0  0  0  0  0  0
  -26.7590  -30.2550   24.7400 C   0  0  0  0  0  1  0  0  0  0  0  0
  -27.3430  -32.4190   25.8290 C   0  0  0  0  0  1  0  0  0  0  0  0
  -25.4210  -33.8240   24.1700 N   0  0  0  0  0  0  0  0  0  0  0  0
  -25.8020  -34.8700   23.4280 C   0  0  0  0  0  0  0  0  0  0  0  0
  -26.5060  -34.7510   22.4250 O   0  0  0  0  0  0  0  0  0  0  0  0
  -24.8040  -33.9900   24.9460 H   0  0  0  0  0  0  0  0  0  0  0  0
  -24.1370  -36.7000   23.0030 C   0  0  0  0  0  1  0  0  0  0  0  0
  -25.3340  -36.2660   23.8610 C   0  0  0  0  0  3  0  0  0  0  0  0
  -27.4520  -37.1110   24.7800 C   0  0  0  0  0  1  0  0  0  0  0  0
  -26.3920  -37.2970   23.7940 N   0  0  0  0  0  0  0  0  0  0  0  0
  -25.9980  -38.2250   23.9200 H   0  0  0  0  0  0  0  0  0  0  0  0
  -26.5120  -21.0550   18.8720 C   0  0  0  0  0  2  0  0  0  0  0  0
  -27.3170  -20.3830   20.0120 C   0  0  0  0  0  2  0  0  0  0  0  0
  -27.5540  -18.8860   19.7510 C   0  0  0  0  0  2  0  0  0  0  0  0
  -28.9640  -18.5810   19.1930 C   0  0  0  0  0  2  0  0  0  0  0  0
  -29.2990  -17.0630   19.2670 C   0  0  0  0  0  2  0  0  0  0  0  0
  -30.6980  -16.6490   19.9080 C   0  0  0  0  0  2  0  0  0  0  0  0
  -30.6990  -15.6790   21.0670 C   0  0  0  0  0  2  0  0  0  0  0  0
  -32.5420  -13.9420   20.7760 C   0  0  0  0  0  0  0  0  0  0  0  0
  -32.3690  -11.4950   20.4900 C   0  0  0  0  0  2  0  0  0  0  0  0
  -31.5950  -11.1350   19.2080 C   0  0  0  0  0  2  0  0  0  0  0  0
  -30.0740  -11.1640   19.4500 C   0  0  0  0  0  2  0  0  0  0  0  0
  -29.6110  -12.4580   20.1770 C   0  0  0  0  0  3  0  0  0  0  0  0
  -30.4720  -12.6400   21.4510 C   0  0  0  0  0  2  0  0  0  0  0  0
  -31.8630  -12.7860   20.9900 N   0  0  0  0  0  0  0  0  0  0  0  0
  -33.6860  -13.9530   20.2920 O   0  0  0  0  0  0  0  0  0  0  0  0
  -32.0260  -15.0840   21.2820 N   0  0  0  0  0  0  0  0  0  0  0  0
  -32.7530  -15.7770   21.3860 H   0  0  0  0  0  0  0  0  0  0  0  0
  -27.2640  -13.4610   20.5290 C   0  0  0  0  0  0  0  0  0  0  0  0
  -26.0590  -12.8760   20.8160 C   0  0  0  0  0  0  0  0  0  0  0  0
  -26.3230  -11.4770   20.9070 C   0  0  0  0  0  0  0  0  0  0  0  0
  -28.1880  -12.4260   20.4860 N   0  0  0  0  0  0  0  0  0  0  0  0
  -27.6180  -11.2270   20.7610 N   0  0  0  0  0  0  0  0  0  0  0  0
  -25.4020  -10.3500   21.0750 C   0  0  0  0  0  0  0  0  0  0  0  0
  -25.5100   -9.4690   22.1740 C   0  0  0  0  0  3  0  0  0  0  0  0
  -24.5980   -8.4000   22.3190 C   0  0  0  0  0  3  0  0  0  0  0  0
  -23.5670   -8.2120   21.3720 C   0  0  0  0  0  0  0  0  0  0  0  0
  -23.4750   -9.0830   20.2740 C   0  0  0  0  0  3  0  0  0  0  0  0
  -24.3830  -10.1400   20.1210 C   0  0  0  0  0  3  0  0  0  0  0  0
  -22.6620   -7.1770   21.4180 O   0  0  0  0  0  0  0  0  0  0  0  0
  -22.2340   -6.6430   22.6100 C   0  0  0  0  0  0  0  0  0  0  0  0
  -21.6040   -7.4350   23.5950 C   0  0  0  0  0  3  0  0  0  0  0  0
  -21.1150   -6.8370   24.7750 C   0  0  0  0  0  3  0  0  0  0  0  0
  -21.2510   -5.4470   24.9670 C   0  0  0  0  0  0  0  0  0  0  0  0
  -21.8940   -4.6610   23.9960 C   0  0  0  0  0  3  0  0  0  0  0  0
  -22.3790   -5.2560   22.8180 C   0  0  0  0  0  0  0  0  0  0  0  0
  -22.9670   -4.4860   21.8650 F   0  0  0  0  0  0  0  0  0  0  0  0
  -20.7820   -4.8740   26.0990 F   0  0  0  0  0  0  0  0  0  0  0  0
  -24.7320  -13.5710   20.8980 C   0  0  0  0  0  0  0  0  0  0  0  0
  -23.8360  -13.0770   21.7450 N   0  0  0  0  0  0  0  0  0  0  0  0
  -24.4980  -14.5930   20.2550 O   0  0  0  0  0  0  0  0  0  0  0  0
  -24.0330  -12.2470   22.2840 H   0  0  0  0  0  0  0  0  0  0  0  0
  -22.9430  -13.5400   21.8610 H   0  0  0  0  0  0  0  0  0  0  0  0
  -27.6400  -14.7700   20.2760 N   0  0  0  0  0  0  0  0  0  0  0  0
  -26.9680  -15.5230   20.2120 H   0  0  0  0  0  0  0  0  0  0  0  0
  -28.5580  -15.0220   19.9290 H   0  0  0  0  0  0  0  0  0  0  0  0
  1  5  1  0
  1  2  1  0
  2 49  1  0
  2  4  1  0
  3  1  2  0
  5  6  2  0
  6  7  1  0
  7  8  1  0
  9 20  2  0
 10  8  1  0
 10 15  1  0
 11 19  1  0
 11 21  1  0
 12 18  1  0
 12 14  1  0
 13 19  1  0
 14 15  2  0
 14 13  1  0
 16 10  2  0
 17 16  1  0
 17 12  2  0
 18 11  1  0
 19  9  1  0
 21 23  2  0
 22 21  1  0
 24 22  1  0
 25 34  2  0
 25 30  1  0
 26 22  1  0
 26 30  1  0
 27 26  1  0
 28 29  1  0
 28 27  1  0
 29 25  1  0
 30 31  2  0
 31 32  1  0
 33 32  2  0
 34 33  1  0
 35  9  1  0
 35 40  1  0
 35 36  1  0
 36 39  1  1
 36 37  1  0
 38 36  1  0
 40 43  1  0
 41 45  1  0
 41 40  1  0
 42 41  2  0
 45 44  1  0
 47 45  1  0
 47 48  1  0
 47 46  1  0
 49 50  1  0
 51 50  1  0
 52 53  1  0
 52 51  1  0
 53 54  1  0
 54 55  1  0
 55 64  1  0
 56 62  1  0
 56 64  1  0
 57 62  1  0
 58 59  1  0
 58 57  1  0
 60 59  1  0
 60 69  1  0
 60 61  1  0
 62 61  1  0
 63 56  2  0
 64 65  1  0
 66 67  2  0
 67 86  1  0
 67 68  1  0
 68 71  1  0
 69 66  1  0
 69 70  1  0
 70 68  2  0
 71 72  1  0
 72 73  2  0
 74 77  1  0
 74 73  1  0
 75 74  2  0
 76 75  1  0
 76 71  2  0
 77 78  1  0
 78 83  2  0
 78 79  1  0
 79 80  2  0
 80 81  1  0
 81 85  1  0
 82 81  2  0
 83 82  1  0
 84 83  1  0
 86 87  1  0
 87 90  1  0
 87 89  1  0
 88 86  2  0
 91 66  1  0
 92 91  1  0
 93 91  1  0
M  ISO  4   7 101   8 101  56 100  64 100
M  END
>  <TORSDO>  (79) 
F 25

>  <SCORE>  (79) 
-9.222

>  <name>  (79) 
78

>  <ligand_id>  (79) 
78

>  <original_smiles>  (79) 
[H]C(C(=O)N([H])C([H])([H])C([H])([H])C([H])([H])C([H])([H])C([H])([H])C([H])([H])C([H])([H])N([H])C(=O)N1C([H])([H])C([H])([H])C([H])([H])C([H])(n2nc(-c3c([H])c([H])c(Oc4c([H])c([H])c(F)c([H])c4F)c([H])c3[H])c(C(=O)N([H])[H])c2N([H])[H])C1([H])[H])=C([H])C([H])([H])Oc1c([H])c([H])c2c(c1[H])C([H])([H])N(C(=O)C([H])(N([H])C(=O)C([H])(N([H])C([H])([H])[H])C([H])([H])[H])C(C([H])([H])[H])(C([H])([H])[H])C([H])([H])[H])C([H])(C(=O)N([H])C1([H])c3c([H])c([H])c([H])c([H])c3C([H])([H])C([H])([H])C1([H])[H])C2([H])[H]

>  <smiles>  (79) 
[H]C(C(=O)N([H])C([H])([H])C([H])([H])C([H])([H])C([H])([H])C([H])([H])C([H])([H])C([H])([H])N([H])C(=O)N1C([H])([H])C([H])([H])C([H])([H])C([H])(n2nc(-c3c([H])c([H])c(Oc4c([H])c([H])c(F)c([H])c4F)c([H])c3[H])c(C(=O)N([H])[H])c2N([H])[H])C1([H])[H])=C([H])C([H])([H])Oc1c([H])c([H])c2c(c1[H])C([H])([H])N(C(=O)C([H])(N([H])C(=O)C([H])(N([H])C([H])([H])[H])C([H])([H])[H])C(C([H])([H])[H])(C([H])([H])[H])C([H])([H])[H])C([H])(C(=O)N([H])C1([H])c3c([H])c([H])c([H])c([H])c3C([H])([H])C([H])([H])C1([H])[H])C2([H])[H]

$$$$
79:0:0
     RDKit          3D

 91 98  0  0  1  0  0  0  0  0999 V2000
  -25.5960  -23.4650   22.7860 C   0  0  0  0  0  2  0  0  0  0  0  0
  -26.6930  -24.0970   21.9150 C   0  0  0  0  0  2  0  0  0  0  0  0
  -27.7080  -24.9210   22.7210 C   0  0  0  0  0  2  0  0  0  0  0  0
  -28.9670  -25.2180   21.8890 C   0  0  0  0  0  2  0  0  0  0  0  0
  -29.9290  -26.2420   22.5110 C   0  0  0  0  0  2  0  0  0  0  0  0
  -29.5490  -27.5470   22.1000 O   0  0  0  0  0  0  0  0  0  0  0  0
  -24.3490  -27.8520   26.9690 C   0  0  0  0  0  0  0  0  0  0  0  0
  -28.2800  -27.9320   22.4390 C   0  0  0  0  0  0  0  0  0  0  0  0
  -23.7490  -28.5820   24.6810 C   0  0  0  0  0  3  0  0  0  0  0  0
  -25.6970  -28.8600   23.0620 C   0  0  0  0  0  0  0  0  0  0  0  0
  -26.1570  -28.7490   25.5210 C   0  0  0  0  0  2  0  0  0  0  0  0
  -26.6010  -28.5520   24.0890 C   0  0  0  0  0  0  0  0  0  0  0  0
  -27.8940  -28.0820   23.7870 C   0  0  0  0  0  3  0  0  0  0  0  0
  -27.3710  -28.2480   21.4120 C   0  0  0  0  0  3  0  0  0  0  0  0
  -26.0740  -28.7020   21.7160 C   0  0  0  0  0  3  0  0  0  0  0  0
  -24.3390  -29.3700   23.4800 C   0  0  0  0  0  2  0  0  0  0  0  0
  -24.7540  -28.3530   25.7690 N   0  0  0  0  0  0  0  0  0  0  0  0
  -23.1530  -27.6220   27.1940 O   0  0  0  0  0  0  0  0  0  0  0  0
  -23.1150  -27.2750   24.1520 C   0  0  0  0  0  0  0  0  0  0  0  0
  -22.0450  -27.4130   23.3520 N   0  0  0  0  0  0  0  0  0  0  0  0
  -23.5990  -26.1760   24.4350 O   0  0  0  0  0  0  0  0  0  0  0  0
  -21.7010  -28.3460   23.1720 H   0  0  0  0  0  0  0  0  0  0  0  0
  -19.4000  -26.6850   21.0030 C   0  0  0  0  0  0  0  0  0  0  0  0
  -21.3080  -26.3270   22.7090 C   0  0  0  0  0  3  0  0  0  0  0  0
  -22.1140  -25.7330   21.5320 C   0  0  0  0  0  2  0  0  0  0  0  0
  -21.7730  -26.3660   20.1810 C   0  0  0  0  0  2  0  0  0  0  0  0
  -20.2850  -26.1970   19.8670 C   0  0  0  0  0  2  0  0  0  0  0  0
  -19.8850  -26.7590   22.3350 C   0  0  0  0  0  0  0  0  0  0  0  0
  -19.0340  -27.2490   23.3500 C   0  0  0  0  0  3  0  0  0  0  0  0
  -17.7200  -27.6560   23.0530 C   0  0  0  0  0  3  0  0  0  0  0  0
  -17.2380  -27.5670   21.7340 C   0  0  0  0  0  3  0  0  0  0  0  0
  -18.0750  -27.0790   20.7140 C   0  0  0  0  0  3  0  0  0  0  0  0
  -25.3650  -27.5740   28.1220 C   0  0  0  0  0  3  0  0  0  0  0  0
  -25.9080  -26.0930   28.1270 C   0  0  1  0  0  0  0  0  0  0  0  0
  -24.7920  -25.0250   28.1120 C   0  0  0  0  0  1  0  0  0  0  0  0
  -26.8200  -25.8380   26.9050 C   0  0  0  0  0  1  0  0  0  0  0  0
  -26.7750  -25.8560   29.3860 C   0  0  0  0  0  1  0  0  0  0  0  0
  -24.6910  -27.8850   29.3890 N   0  0  0  0  0  0  0  0  0  0  0  0
  -24.8730  -29.0120   30.0920 C   0  0  0  0  0  0  0  0  0  0  0  0
  -25.6940  -29.8760   29.7710 O   0  0  0  0  0  0  0  0  0  0  0  0
  -23.9670  -27.2470   29.6870 H   0  0  0  0  0  0  0  0  0  0  0  0
  -22.8300  -30.1410   31.0220 C   0  0  0  0  0  1  0  0  0  0  0  0
  -24.0080  -29.2110   31.3510 C   0  0  0  0  0  3  0  0  0  0  0  0
  -25.7370  -28.8040   33.0460 C   0  0  0  0  0  1  0  0  0  0  0  0
  -24.7630  -29.7460   32.5050 N   0  0  0  0  0  0  0  0  0  0  0  0
  -24.1300  -30.0170   33.2530 H   0  0  0  0  0  0  0  0  0  0  0  0
  -24.3660  -22.9660   22.0000 C   0  0  0  0  0  2  0  0  0  0  0  0
  -24.5960  -22.6820   20.5010 C   0  0  0  0  0  2  0  0  0  0  0  0
  -24.4450  -23.9240   19.6020 C   0  0  0  0  0  2  0  0  0  0  0  0
  -24.4920  -23.5990   18.1010 C   0  0  0  0  0  2  0  0  0  0  0  0
  -24.4920  -24.8720   17.2390 C   0  0  0  0  0  2  0  0  0  0  0  0
  -24.6720  -24.5910   15.7400 C   0  0  0  0  0  2  0  0  0  0  0  0
  -24.9280  -25.8820   14.9480 C   0  0  0  0  0  2  0  0  0  0  0  0
  -24.8610  -26.6260   12.6540 C   0  0  0  0  0  0  0  0  0  0  0  0
  -23.2390  -27.8200   11.2310 C   0  0  0  0  0  2  0  0  0  0  0  0
  -22.4260  -28.8330   12.0580 C   0  0  0  0  0  2  0  0  0  0  0  0
  -21.1890  -28.1550   12.6810 C   0  0  0  0  0  2  0  0  0  0  0  0
  -21.5450  -26.8390   13.4220 C   0  0  0  0  0  3  0  0  0  0  0  0
  -22.4370  -25.9340   12.5420 C   0  0  0  0  0  2  0  0  0  0  0  0
  -23.6160  -26.7120   12.1190 N   0  0  0  0  0  0  0  0  0  0  0  0
  -25.7880  -27.3850   12.3620 O   0  0  0  0  0  0  0  0  0  0  0  0
  -25.0600  -25.6280   13.5170 N   0  0  0  0  0  0  0  0  0  0  0  0
  -25.9430  -25.1740   13.3340 H   0  0  0  0  0  0  0  0  0  0  0  0
  -20.0640  -25.5910   15.1210 C   0  0  0  0  0  0  0  0  0  0  0  0
  -18.7800  -25.1190   15.0410 C   0  0  0  0  0  0  0  0  0  0  0  0
  -18.3340  -25.4140   13.7190 C   0  0  0  0  0  0  0  0  0  0  0  0
  -20.3470  -26.1350   13.8770 N   0  0  0  0  0  0  0  0  0  0  0  0
  -19.3090  -25.9720   13.0160 N   0  0  0  0  0  0  0  0  0  0  0  0
  -17.0160  -25.2440   13.0930 C   0  0  0  0  0  0  0  0  0  0  0  0
  -16.8660  -24.5880   11.8500 C   0  0  0  0  0  3  0  0  0  0  0  0
  -15.5860  -24.4170   11.2800 C   0  0  0  0  0  3  0  0  0  0  0  0
  -14.4400  -24.9050   11.9510 C   0  0  0  0  0  0  0  0  0  0  0  0
  -14.5950  -25.5750   13.1770 C   0  0  0  0  0  3  0  0  0  0  0  0
  -15.8700  -25.7470   13.7420 C   0  0  0  0  0  3  0  0  0  0  0  0
  -13.1610  -24.8130   11.4580 O   0  0  0  0  0  0  0  0  0  0  0  0
  -12.7980  -23.8270   10.5760 C   0  0  0  0  0  0  0  0  0  0  0  0
  -12.9980  -22.4600   10.8650 C   0  0  0  0  0  3  0  0  0  0  0  0
  -12.5460  -21.4760    9.9640 C   0  0  0  0  0  3  0  0  0  0  0  0
  -11.8880  -21.8550    8.7790 C   0  0  0  0  0  0  0  0  0  0  0  0
  -11.6870  -23.2160    8.4900 C   0  0  0  0  0  3  0  0  0  0  0  0
  -12.1370  -24.1990    9.3890 C   0  0  0  0  0  0  0  0  0  0  0  0
  -11.9190  -25.5070    9.1170 F   0  0  0  0  0  0  0  0  0  0  0  0
  -11.4480  -20.9100    7.9150 F   0  0  0  0  0  0  0  0  0  0  0  0
  -17.9780  -24.5160   16.1570 C   0  0  0  0  0  0  0  0  0  0  0  0
  -17.0740  -23.5950   15.8370 N   0  0  0  0  0  0  0  0  0  0  0  0
  -18.1850  -24.8200   17.3300 O   0  0  0  0  0  0  0  0  0  0  0  0
  -16.9160  -23.3290   14.8760 H   0  0  0  0  0  0  0  0  0  0  0  0
  -16.5330  -23.1550   16.5680 H   0  0  0  0  0  0  0  0  0  0  0  0
  -21.0010  -25.6150   16.1470 N   0  0  0  0  0  0  0  0  0  0  0  0
  -20.8050  -25.2500   17.0720 H   0  0  0  0  0  0  0  0  0  0  0  0
  -21.9300  -26.0090   16.0700 H   0  0  0  0  0  0  0  0  0  0  0  0
  2  3  1  0
  2  1  1  0
  4  5  1  0
  4  3  1  0
  6  8  1  0
  6  5  1  0
  7 18  2  0
  8 13  1  0
  9 19  1  0
  9 17  1  0
 10 16  1  0
 10 12  1  0
 11 17  1  0
 12 11  1  0
 13 12  2  0
 14 15  1  0
 14  8  2  0
 15 10  2  0
 16  9  1  0
 17  7  1  0
 19 21  2  0
 20 19  1  0
 22 20  1  0
 23 28  1  0
 24 20  1  0
 25 24  1  0
 26 25  1  0
 27 26  1  0
 27 23  1  0
 28 24  1  0
 28 29  2  0
 30 29  1  0
 31 30  2  0
 32 23  2  0
 32 31  1  0
 33  7  1  0
 33 34  1  0
 33 38  1  0
 34 37  1  1
 35 34  1  0
 36 34  1  0
 38 41  1  0
 38 39  1  0
 39 43  1  0
 40 39  2  0
 43 42  1  0
 43 45  1  0
 45 44  1  0
 45 46  1  0
 47  1  1  0
 48 47  1  0
 49 48  1  0
 50 49  1  0
 51 50  1  0
 52 51  1  0
 53 52  1  0
 54 62  1  0
 55 56  1  0
 55 60  1  0
 56 57  1  0
 57 58  1  0
 58 59  1  0
 58 67  1  0
 60 59  1  0
 60 54  1  0
 61 54  2  0
 62 53  1  0
 63 62  1  0
 64 89  1  0
 65 64  2  0
 65 84  1  0
 66 65  1  0
 67 64  1  0
 68 66  2  0
 68 67  1  0
 69 66  1  0
 69 74  1  0
 70 69  2  0
 71 70  1  0
 71 72  2  0
 72 73  1  0
 73 74  2  0
 75 72  1  0
 76 77  1  0
 76 75  1  0
 78 77  2  0
 79 78  1  0
 80 79  2  0
 80 81  1  0
 81 76  2  0
 82 81  1  0
 83 79  1  0
 84 86  2  0
 85 84  1  0
 85 88  1  0
 87 85  1  0
 89 90  1  0
 91 89  1  0
M  ISO  4   5 101   6 101  54 100  62 100
M  END
>  <TORSDO>  (80) 
F 27

>  <SCORE>  (80) 
-2.945

>  <name>  (80) 
79

>  <ligand_id>  (80) 
79

>  <original_smiles>  (80) 
[H]c1c([H])c([H])c2c(c1[H])C([H])([H])C([H])([H])C([H])([H])C2([H])N([H])C(=O)C1([H])N(C(=O)C([H])(N([H])C(=O)C([H])(N([H])C([H])([H])[H])C([H])([H])[H])C(C([H])([H])[H])(C([H])([H])[H])C([H])([H])[H])C([H])([H])c2c([H])c(OC([H])([H])C([H])([H])C([H])([H])C([H])([H])C([H])([H])C([H])([H])C([H])([H])C([H])([H])C([H])([H])C([H])([H])C([H])([H])C([H])([H])N([H])C(=O)N3C([H])([H])C([H])([H])C([H])([H])C([H])(n4nc(-c5c([H])c([H])c(Oc6c([H])c([H])c(F)c([H])c6F)c([H])c5[H])c(C(=O)N([H])[H])c4N([H])[H])C3([H])[H])c([H])c([H])c2C1([H])[H]

>  <smiles>  (80) 
[H]c1c([H])c([H])c2c(c1[H])C([H])([H])C([H])([H])C([H])([H])C2([H])N([H])C(=O)C1([H])N(C(=O)C([H])(N([H])C(=O)C([H])(N([H])C([H])([H])[H])C([H])([H])[H])C(C([H])([H])[H])(C([H])([H])[H])C([H])([H])[H])C([H])([H])c2c([H])c(OC([H])([H])C([H])([H])C([H])([H])C([H])([H])C([H])([H])C([H])([H])C([H])([H])C([H])([H])C([H])([H])C([H])([H])C([H])([H])C([H])([H])N([H])C(=O)N3C([H])([H])C([H])([H])C([H])([H])C([H])(n4nc(-c5c([H])c([H])c(Oc6c([H])c([H])c(F)c([H])c6F)c([H])c5[H])c(C(=O)N([H])[H])c4N([H])[H])C3([H])[H])c([H])c([H])c2C1([H])[H]

$$$$
80:0:0
     RDKit          3D

 95102  0  0  1  0  0  0  0  0999 V2000
  -25.1220  -22.1610   21.2080 C   0  0  0  0  0  2  0  0  0  0  0  0
  -25.8250  -21.1480   20.2890 C   0  0  0  0  0  2  0  0  0  0  0  0
  -25.5770  -21.4060   18.7980 C   0  0  0  0  0  2  0  0  0  0  0  0
  -26.3810  -20.4480   17.9090 C   0  0  0  0  0  2  0  0  0  0  0  0
  -27.8050  -20.9490   17.6220 C   0  0  0  0  0  2  0  0  0  0  0  0
  -28.8140  -19.8100   17.3980 C   0  0  0  0  0  2  0  0  0  0  0  0
  -29.7100  -19.5310   18.6170 C   0  0  0  0  0  2  0  0  0  0  0  0
  -29.0630  -18.6850   19.7340 C   0  0  0  0  0  2  0  0  0  0  0  0
  -29.9910  -18.4980   20.9530 C   0  0  0  0  0  2  0  0  0  0  0  0
  -31.1140  -17.4640   20.7470 C   0  0  0  0  0  2  0  0  0  0  0  0
  -31.2640  -15.0260   20.3240 C   0  0  0  0  0  0  0  0  0  0  0  0
  -30.9830  -12.7240   19.5030 C   0  0  0  0  0  2  0  0  0  0  0  0
  -30.0800  -12.7240   18.2550 C   0  0  0  0  0  2  0  0  0  0  0  0
  -28.5940  -12.6440   18.6550 C   0  0  0  0  0  2  0  0  0  0  0  0
  -28.2140  -13.6620   19.7620 C   0  0  0  0  0  3  0  0  0  0  0  0
  -29.2370  -13.6400   20.9180 C   0  0  0  0  0  2  0  0  0  0  0  0
  -30.5790  -13.8540   20.3510 N   0  0  0  0  0  0  0  0  0  0  0  0
  -32.3740  -15.1510   19.8010 O   0  0  0  0  0  0  0  0  0  0  0  0
  -30.6180  -16.0890   20.8160 N   0  0  0  0  0  0  0  0  0  0  0  0
  -29.7000  -15.9330   21.2080 H   0  0  0  0  0  0  0  0  0  0  0  0
  -25.8720  -14.3690   20.5610 C   0  0  0  0  0  0  0  0  0  0  0  0
  -24.7600  -13.6430   20.8880 C   0  0  0  0  0  0  0  0  0  0  0  0
  -25.1260  -12.2710   20.7450 C   0  0  0  0  0  0  0  0  0  0  0  0
  -26.8530  -13.4410   20.2460 N   0  0  0  0  0  0  0  0  0  0  0  0
  -26.4060  -12.1680   20.4110 N   0  0  0  0  0  0  0  0  0  0  0  0
  -24.3160  -11.0500   20.8500 C   0  0  0  0  0  0  0  0  0  0  0  0
  -24.6390  -10.0290   21.7740 C   0  0  0  0  0  3  0  0  0  0  0  0
  -23.8390   -8.8690   21.8680 C   0  0  0  0  0  3  0  0  0  0  0  0
  -22.6990   -8.7250   21.0430 C   0  0  0  0  0  0  0  0  0  0  0  0
  -22.3950   -9.7350   20.1100 C   0  0  0  0  0  3  0  0  0  0  0  0
  -23.1950  -10.8840   20.0120 C   0  0  0  0  0  3  0  0  0  0  0  0
  -21.8730   -7.6270   21.0520 O   0  0  0  0  0  0  0  0  0  0  0  0
  -21.6150   -6.9300   22.2040 C   0  0  0  0  0  0  0  0  0  0  0  0
  -21.0330   -7.5460   23.3360 C   0  0  0  0  0  3  0  0  0  0  0  0
  -20.7230   -6.7760   24.4750 C   0  0  0  0  0  3  0  0  0  0  0  0
  -20.9820   -5.3930   24.4800 C   0  0  0  0  0  0  0  0  0  0  0  0
  -21.5550   -4.7760   23.3530 C   0  0  0  0  0  3  0  0  0  0  0  0
  -21.8670   -5.5430   22.2190 C   0  0  0  0  0  0  0  0  0  0  0  0
  -22.3980   -4.9410   21.1270 F   0  0  0  0  0  0  0  0  0  0  0  0
  -20.6750   -4.6520   25.5700 F   0  0  0  0  0  0  0  0  0  0  0  0
  -23.4000  -14.1910   21.2190 C   0  0  0  0  0  0  0  0  0  0  0  0
  -22.6360  -13.4820   22.0450 N   0  0  0  0  0  0  0  0  0  0  0  0
  -23.0260  -15.2770   20.7840 O   0  0  0  0  0  0  0  0  0  0  0  0
  -22.9460  -12.6010   22.4240 H   0  0  0  0  0  0  0  0  0  0  0  0
  -21.7210  -13.8270   22.2980 H   0  0  0  0  0  0  0  0  0  0  0  0
  -26.1260  -15.7350   20.4810 N   0  0  0  0  0  0  0  0  0  0  0  0
  -25.4040  -16.4260   20.6450 H   0  0  0  0  0  0  0  0  0  0  0  0
  -27.0010  -16.1360   20.1680 H   0  0  0  0  0  0  0  0  0  0  0  0
  -25.5670  -23.6250   21.0060 C   0  0  0  0  0  2  0  0  0  0  0  0
  -27.0820  -23.8770   21.0120 C   0  0  0  0  0  0  0  0  0  0  0  0
  -27.8820  -22.9390   21.0700 O   0  0  0  0  0  0  0  0  0  0  0  0
  -27.5150  -25.2760   20.9510 C   0  0  0  0  0  3  0  0  0  0  0  0
  -28.6470  -25.6340   20.3150 C   0  0  0  0  0  3  0  0  0  0  0  0
  -29.1510  -27.0600   20.2330 C   0  0  0  0  0  2  0  0  0  0  0  0
  -28.5640  -27.7550   19.1320 O   0  0  0  0  0  0  0  0  0  0  0  0
  -24.8360  -31.8360   23.6150 C   0  0  0  0  0  0  0  0  0  0  0  0
  -27.3820  -28.3930   19.4190 C   0  0  0  0  0  0  0  0  0  0  0  0
  -23.5480  -30.7960   21.7720 C   0  0  0  0  0  3  0  0  0  0  0  0
  -24.9360  -29.7020   19.9340 C   0  0  0  0  0  0  0  0  0  0  0  0
  -26.0320  -31.3240   21.4920 C   0  0  0  0  0  2  0  0  0  0  0  0
  -26.1120  -30.1390   20.5580 C   0  0  0  0  0  0  0  0  0  0  0  0
  -27.3350  -29.4800   20.3170 C   0  0  0  0  0  3  0  0  0  0  0  0
  -26.1970  -27.9700   18.7830 C   0  0  0  0  0  3  0  0  0  0  0  0
  -24.9680  -28.6080   19.0500 C   0  0  0  0  0  3  0  0  0  0  0  0
  -23.6690  -30.4570   20.2600 C   0  0  0  0  0  2  0  0  0  0  0  0
  -24.8270  -31.3230   22.3520 N   0  0  0  0  0  0  0  0  0  0  0  0
  -23.7950  -31.9100   24.2820 O   0  0  0  0  0  0  0  0  0  0  0  0
  -23.0110  -29.5500   22.5130 C   0  0  0  0  0  0  0  0  0  0  0  0
  -21.7160  -29.2500   22.3170 N   0  0  0  0  0  0  0  0  0  0  0  0
  -23.7550  -28.8620   23.2150 O   0  0  0  0  0  0  0  0  0  0  0  0
  -21.1660  -29.8700   21.7400 H   0  0  0  0  0  0  0  0  0  0  0  0
  -18.5470  -27.5170   22.3430 C   0  0  0  0  0  0  0  0  0  0  0  0
  -21.0090  -28.0990   22.8760 C   0  0  0  0  0  3  0  0  0  0  0  0
  -21.3760  -26.8010   22.1200 C   0  0  0  0  0  2  0  0  0  0  0  0
  -20.4090  -26.4760   20.9770 C   0  0  0  0  0  2  0  0  0  0  0  0
  -18.9790  -26.3240   21.5060 C   0  0  0  0  0  2  0  0  0  0  0  0
  -19.5020  -28.3600   22.9720 C   0  0  0  0  0  0  0  0  0  0  0  0
  -19.0490  -29.4780   23.7070 C   0  0  0  0  0  3  0  0  0  0  0  0
  -17.6750  -29.7560   23.8210 C   0  0  0  0  0  3  0  0  0  0  0  0
  -16.7340  -28.9100   23.2080 C   0  0  0  0  0  3  0  0  0  0  0  0
  -17.1700  -27.7920   22.4740 C   0  0  0  0  0  3  0  0  0  0  0  0
  -26.1480  -32.3710   24.2730 C   0  0  0  0  0  3  0  0  0  0  0  0
  -25.8650  -33.7110   24.8020 N   0  0  0  0  0  0  0  0  0  0  0  0
  -26.2200  -34.8560   24.2050 C   0  0  0  0  0  0  0  0  0  0  0  0
  -26.8930  -34.8930   23.1710 O   0  0  0  0  0  0  0  0  0  0  0  0
  -25.2850  -33.7580   25.6270 H   0  0  0  0  0  0  0  0  0  0  0  0
  -24.5390  -36.7220   24.0920 C   0  0  0  0  0  1  0  0  0  0  0  0
  -25.7520  -36.1710   24.8580 C   0  0  0  0  0  3  0  0  0  0  0  0
  -27.8840  -36.8640   25.8570 C   0  0  0  0  0  1  0  0  0  0  0  0
  -26.8090  -37.2040   24.9270 N   0  0  0  0  0  0  0  0  0  0  0  0
  -26.4180  -38.0990   25.2080 H   0  0  0  0  0  0  0  0  0  0  0  0
  -26.7010  -31.4300   25.4130 C   0  0  1  0  0  0  0  0  0  0  0  0
  -25.6410  -31.0440   26.4690 C   0  0  0  0  0  1  0  0  0  0  0  0
  -27.2690  -30.1240   24.8130 C   0  0  0  0  0  1  0  0  0  0  0  0
  -27.8670  -32.1260   26.1510 C   0  0  0  0  0  1  0  0  0  0  0  0
  2  1  1  0
  3  2  1  0
  4  3  1  0
  5  4  1  0
  6  5  1  0
  6  7  1  0
  7  8  1  0
  8  9  1  0
 10 19  1  0
 10  9  1  0
 11 17  1  0
 11 19  1  0
 12 17  1  0
 13 14  1  0
 13 12  1  0
 15 14  1  0
 15 24  1  0
 15 16  1  0
 17 16  1  0
 18 11  2  0
 19 20  1  0
 21 22  2  0
 22 41  1  0
 23 26  1  0
 23 22  1  0
 24 25  1  0
 24 21  1  0
 25 23  2  0
 26 27  1  0
 27 28  2  0
 29 32  1  0
 29 28  1  0
 30 29  2  0
 31 30  1  0
 31 26  2  0
 32 33  1  0
 33 38  2  0
 33 34  1  0
 34 35  2  0
 35 36  1  0
 36 40  1  0
 37 36  2  0
 38 37  1  0
 39 38  1  0
 41 42  1  0
 42 45  1  0
 42 44  1  0
 43 41  2  0
 46 21  1  0
 46 47  1  0
 48 46  1  0
 49 50  1  0
 49  1  1  0
 50 51  2  0
 52 50  1  0
 53 52  2  0
 54 53  1  0
 55 57  1  0
 55 54  1  0
 56 67  2  0
 57 62  1  0
 58 66  1  0
 58 68  1  0
 59 65  1  0
 59 61  1  0
 60 66  1  0
 61 60  1  0
 62 61  2  0
 63 64  1  0
 63 57  2  0
 64 59  2  0
 65 58  1  0
 66 56  1  0
 68 70  2  0
 69 68  1  0
 71 69  1  0
 72 81  2  0
 72 77  1  0
 73 69  1  0
 73 77  1  0
 74 73  1  0
 75 76  1  0
 75 74  1  0
 76 72  1  0
 77 78  2  0
 78 79  1  0
 80 79  2  0
 81 80  1  0
 82 56  1  0
 82 83  1  0
 82 92  1  0
 83 86  1  0
 84 83  1  0
 84 88  1  0
 85 84  2  0
 88 87  1  0
 88 90  1  0
 90 91  1  0
 90 89  1  0
 92 95  1  1
 92 93  1  0
 94 92  1  0
M  ISO  4  11 100  19 100  54 101  55 101
M  END
>  <TORSDO>  (81) 
F 29

>  <SCORE>  (81) 
-5.188

>  <name>  (81) 
80

>  <ligand_id>  (81) 
80

>  <original_smiles>  (81) 
[H]C(C(=O)C([H])([H])C([H])([H])C([H])([H])C([H])([H])C([H])([H])C([H])([H])C([H])([H])C([H])([H])C([H])([H])C([H])([H])C([H])([H])N([H])C(=O)N1C([H])([H])C([H])([H])C([H])([H])C([H])(n2nc(-c3c([H])c([H])c(Oc4c([H])c([H])c(F)c([H])c4F)c([H])c3[H])c(C(=O)N([H])[H])c2N([H])[H])C1([H])[H])=C([H])C([H])([H])Oc1c([H])c([H])c2c(c1[H])C([H])([H])N(C(=O)C([H])(N([H])C(=O)C([H])(N([H])C([H])([H])[H])C([H])([H])[H])C(C([H])([H])[H])(C([H])([H])[H])C([H])([H])[H])C([H])(C(=O)N([H])C1([H])c3c([H])c([H])c([H])c([H])c3C([H])([H])C([H])([H])C1([H])[H])C2([H])[H]

>  <smiles>  (81) 
[H]C(C(=O)C([H])([H])C([H])([H])C([H])([H])C([H])([H])C([H])([H])C([H])([H])C([H])([H])C([H])([H])C([H])([H])C([H])([H])C([H])([H])N([H])C(=O)N1C([H])([H])C([H])([H])C([H])([H])C([H])(n2nc(-c3c([H])c([H])c(Oc4c([H])c([H])c(F)c([H])c4F)c([H])c3[H])c(C(=O)N([H])[H])c2N([H])[H])C1([H])[H])=C([H])C([H])([H])Oc1c([H])c([H])c2c(c1[H])C([H])([H])N(C(=O)C([H])(N([H])C(=O)C([H])(N([H])C([H])([H])[H])C([H])([H])[H])C(C([H])([H])[H])(C([H])([H])[H])C([H])([H])[H])C([H])(C(=O)N([H])C1([H])c3c([H])c([H])c([H])c([H])c3C([H])([H])C([H])([H])C1([H])[H])C2([H])[H]

$$$$
81:0:0
     RDKit          3D

 93101  0  0  1  0  0  0  0  0999 V2000
  -30.1870  -20.9060   23.8790 C   0  0  0  0  0  3  0  0  0  0  0  0
  -30.2330  -22.2960   23.6450 C   0  0  0  0  0  3  0  0  0  0  0  0
  -27.8170  -20.8990   23.3260 C   0  0  0  0  0  3  0  0  0  0  0  0
  -28.9770  -20.2000   23.7220 C   0  0  0  0  0  0  0  0  0  0  0  0
  -29.0700  -22.9990   23.2590 C   0  0  0  0  0  0  0  0  0  0  0  0
  -27.8570  -22.2910   23.1080 C   0  0  0  0  0  0  0  0  0  0  0  0
  -26.7180  -22.9390   22.7680 F   0  0  0  0  0  0  0  0  0  0  0  0
  -28.9030  -18.7100   24.0280 C   0  0  0  0  0  2  0  0  0  0  0  0
  -28.8750  -17.8100   22.7780 C   0  0  0  0  0  2  0  0  0  0  0  0
  -30.2270  -17.7320   22.0480 C   0  0  0  0  0  2  0  0  0  0  0  0
  -30.1980  -16.8580   20.7820 C   0  0  0  0  0  2  0  0  0  0  0  0
  -30.7040  -14.4310   20.5680 C   0  0  0  0  0  0  0  0  0  0  0  0
  -30.4230  -12.2770   19.4180 C   0  0  0  0  0  2  0  0  0  0  0  0
  -29.4960  -12.5010   18.2050 C   0  0  0  0  0  2  0  0  0  0  0  0
  -28.0150  -12.3710   18.6160 C   0  0  0  0  0  2  0  0  0  0  0  0
  -27.6670  -13.2010   19.8820 C   0  0  0  0  0  3  0  0  0  0  0  0
  -28.7070  -12.9570   21.0000 C   0  0  0  0  0  2  0  0  0  0  0  0
  -30.0440  -13.2500   20.4520 N   0  0  0  0  0  0  0  0  0  0  0  0
  -31.8250  -14.6290   20.0890 O   0  0  0  0  0  0  0  0  0  0  0  0
  -29.9690  -15.4380   21.0630 N   0  0  0  0  0  0  0  0  0  0  0  0
  -29.0670  -15.1810   21.4340 H   0  0  0  0  0  0  0  0  0  0  0  0
  -25.2620  -13.8150   20.5670 C   0  0  0  0  0  0  0  0  0  0  0  0
  -24.1860  -13.0440   20.9180 C   0  0  0  0  0  0  0  0  0  0  0  0
  -24.6400  -11.6900   20.8730 C   0  0  0  0  0  0  0  0  0  0  0  0
  -26.3060  -12.9310   20.3400 N   0  0  0  0  0  0  0  0  0  0  0  0
  -25.9330  -11.6480   20.5780 N   0  0  0  0  0  0  0  0  0  0  0  0
  -23.9070  -10.4290   21.0410 C   0  0  0  0  0  0  0  0  0  0  0  0
  -24.3620   -9.4200   21.9190 C   0  0  0  0  0  3  0  0  0  0  0  0
  -23.6280   -8.2240   22.0760 C   0  0  0  0  0  3  0  0  0  0  0  0
  -22.4270   -8.0280   21.3540 C   0  0  0  0  0  0  0  0  0  0  0  0
  -21.9910   -9.0260   20.4650 C   0  0  0  0  0  3  0  0  0  0  0  0
  -22.7240  -10.2140   20.3060 C   0  0  0  0  0  3  0  0  0  0  0  0
  -21.6630   -6.8880   21.4240 O   0  0  0  0  0  0  0  0  0  0  0  0
  -21.6850   -6.0740   22.5280 C   0  0  0  0  0  0  0  0  0  0  0  0
  -21.4020   -6.5640   23.8210 C   0  0  0  0  0  3  0  0  0  0  0  0
  -21.3660   -5.6790   24.9180 C   0  0  0  0  0  3  0  0  0  0  0  0
  -21.6040   -4.3060   24.7230 C   0  0  0  0  0  0  0  0  0  0  0  0
  -21.8820   -3.8150   23.4350 C   0  0  0  0  0  3  0  0  0  0  0  0
  -21.9190   -4.6970   22.3410 C   0  0  0  0  0  0  0  0  0  0  0  0
  -22.1660   -4.2160   21.0980 F   0  0  0  0  0  0  0  0  0  0  0  0
  -21.5630   -3.4540   25.7730 F   0  0  0  0  0  0  0  0  0  0  0  0
  -22.7880  -13.5240   21.1820 C   0  0  0  0  0  0  0  0  0  0  0  0
  -22.0510  -12.8250   22.0390 N   0  0  0  0  0  0  0  0  0  0  0  0
  -22.3570  -14.5560   20.6670 O   0  0  0  0  0  0  0  0  0  0  0  0
  -22.4100  -11.9900   22.4780 H   0  0  0  0  0  0  0  0  0  0  0  0
  -21.1140  -13.1290   22.2590 H   0  0  0  0  0  0  0  0  0  0  0  0
  -25.4350  -15.1870   20.4100 N   0  0  0  0  0  0  0  0  0  0  0  0
  -24.6700  -15.8430   20.5190 H   0  0  0  0  0  0  0  0  0  0  0  0
  -26.2900  -15.6270   20.0930 H   0  0  0  0  0  0  0  0  0  0  0  0
  -29.1310  -24.5070   23.0380 C   0  0  0  0  0  2  0  0  0  0  0  0
  -28.7390  -24.9400   21.6120 C   0  0  0  0  0  2  0  0  0  0  0  0
  -28.9690  -26.4340   21.3370 C   0  0  0  0  0  2  0  0  0  0  0  0
  -28.4010  -26.7400   20.0630 O   0  0  0  0  0  0  0  0  0  0  0  0
  -24.6080  -31.8720   23.2110 C   0  0  0  0  0  0  0  0  0  0  0  0
  -27.2440  -27.4780   20.1010 C   0  0  0  0  0  0  0  0  0  0  0  0
  -23.3950  -30.4940   21.5510 C   0  0  0  0  0  3  0  0  0  0  0  0
  -24.8460  -28.9620   20.1150 C   0  0  0  0  0  0  0  0  0  0  0  0
  -25.9160  -30.8540   21.3540 C   0  0  0  0  0  2  0  0  0  0  0  0
  -25.9970  -29.4860   20.7140 C   0  0  0  0  0  0  0  0  0  0  0  0
  -27.1990  -28.7490   20.7120 C   0  0  0  0  0  3  0  0  0  0  0  0
  -26.0850  -26.9640   19.4860 C   0  0  0  0  0  3  0  0  0  0  0  0
  -24.8810  -27.6970   19.5000 C   0  0  0  0  0  3  0  0  0  0  0  0
  -23.6040  -29.8240   20.1650 C   0  0  0  0  0  2  0  0  0  0  0  0
  -24.6580  -31.0870   22.0990 N   0  0  0  0  0  0  0  0  0  0  0  0
  -23.5290  -32.1450   23.7550 O   0  0  0  0  0  0  0  0  0  0  0  0
  -22.7390  -29.4670   22.5000 C   0  0  0  0  0  0  0  0  0  0  0  0
  -21.4130  -29.3020   22.3740 N   0  0  0  0  0  0  0  0  0  0  0  0
  -23.4190  -28.8210   23.3030 O   0  0  0  0  0  0  0  0  0  0  0  0
  -20.9290  -29.8770   21.6980 H   0  0  0  0  0  0  0  0  0  0  0  0
  -18.0270  -28.1380   22.8490 C   0  0  0  0  0  0  0  0  0  0  0  0
  -20.5870  -28.3660   23.1340 C   0  0  0  0  0  3  0  0  0  0  0  0
  -20.6770  -26.9390   22.5440 C   0  0  0  0  0  2  0  0  0  0  0  0
  -19.5750  -26.6400   21.5230 C   0  0  0  0  0  2  0  0  0  0  0  0
  -18.1920  -26.7930   22.1620 C   0  0  0  0  0  2  0  0  0  0  0  0
  -19.1530  -28.8830   23.2910 C   0  0  0  0  0  0  0  0  0  0  0  0
  -18.9450  -30.1440   23.8910 C   0  0  0  0  0  3  0  0  0  0  0  0
  -17.6460  -30.6590   24.0570 C   0  0  0  0  0  3  0  0  0  0  0  0
  -16.5340  -29.9090   23.6330 C   0  0  0  0  0  3  0  0  0  0  0  0
  -16.7270  -28.6520   23.0330 C   0  0  0  0  0  3  0  0  0  0  0  0
  -25.8990  -32.4850   23.8400 C   0  0  0  0  0  3  0  0  0  0  0  0
  -25.5860  -33.8640   24.2340 N   0  0  0  0  0  0  0  0  0  0  0  0
  -25.9030  -34.9500   23.5140 C   0  0  0  0  0  0  0  0  0  0  0  0
  -26.5610  -34.8940   22.4710 O   0  0  0  0  0  0  0  0  0  0  0  0
  -24.9980  -33.9800   25.0460 H   0  0  0  0  0  0  0  0  0  0  0  0
  -24.1490  -36.7330   23.2640 C   0  0  0  0  0  1  0  0  0  0  0  0
  -25.4120  -36.3130   24.0350 C   0  0  0  0  0  3  0  0  0  0  0  0
  -27.5590  -37.1820   24.8480 C   0  0  0  0  0  1  0  0  0  0  0  0
  -26.4300  -37.3810   23.9410 N   0  0  0  0  0  0  0  0  0  0  0  0
  -26.0210  -38.2900   24.1390 H   0  0  0  0  0  0  0  0  0  0  0  0
  -26.4440  -31.6600   25.0700 C   0  0  1  0  0  0  0  0  0  0  0  0
  -25.3720  -31.3690   26.1460 C   0  0  0  0  0  1  0  0  0  0  0  0
  -27.0280  -30.3070   24.6000 C   0  0  0  0  0  1  0  0  0  0  0  0
  -27.6030  -32.4300   25.7450 C   0  0  0  0  0  1  0  0  0  0  0  0
  2  1  2  0
  3  4  2  0
  4  1  1  0
  4  8  1  0
  5  2  1  0
  6  5  2  0
  6  3  1  0
  7  6  1  0
  9  8  1  0
 10  9  1  0
 11 20  1  0
 11 10  1  0
 12 20  1  0
 13 18  1  0
 14 15  1  0
 14 13  1  0
 16 15  1  0
 16 25  1  0
 16 17  1  0
 18 12  1  0
 18 17  1  0
 19 12  2  0
 20 21  1  0
 22 23  2  0
 23 42  1  0
 24 23  1  0
 24 27  1  0
 25 22  1  0
 25 26  1  0
 26 24  2  0
 27 28  1  0
 28 29  2  0
 30 33  1  0
 30 29  1  0
 31 30  2  0
 32 31  1  0
 32 27  2  0
 33 34  1  0
 34 35  1  0
 35 36  2  0
 37 36  1  0
 37 41  1  0
 38 37  2  0
 39 34  2  0
 39 38  1  0
 40 39  1  0
 42 43  1  0
 43 46  1  0
 43 45  1  0
 44 42  2  0
 47 48  1  0
 47 22  1  0
 49 47  1  0
 50  5  1  0
 51 50  1  0
 52 51  1  0
 53 55  1  0
 53 52  1  0
 54 65  2  0
 55 60  1  0
 56 64  1  0
 56 66  1  0
 57 63  1  0
 57 59  1  0
 58 64  1  0
 59 58  1  0
 60 59  2  0
 61 62  1  0
 61 55  2  0
 62 57  2  0
 63 56  1  0
 64 54  1  0
 66 68  2  0
 67 66  1  0
 69 67  1  0
 70 79  2  0
 70 75  1  0
 71 67  1  0
 71 75  1  0
 72 71  1  0
 73 74  1  0
 73 72  1  0
 74 70  1  0
 75 76  2  0
 76 77  1  0
 78 77  2  0
 79 78  1  0
 80 54  1  0
 80 81  1  0
 80 90  1  0
 81 84  1  0
 82 86  1  0
 82 81  1  0
 83 82  2  0
 86 85  1  0
 88 86  1  0
 88 89  1  0
 88 87  1  0
 90 93  1  1
 90 91  1  0
 92 90  1  0
M  ISO  4  12 100  20 100  52 101  53 101
M  END
>  <TORSDO>  (82) 
F 23

>  <SCORE>  (82) 
6.159

>  <name>  (82) 
81

>  <ligand_id>  (82) 
81

>  <original_smiles>  (82) 
[H]c1c([H])c([H])c2c(c1[H])C([H])([H])C([H])([H])C([H])([H])C2([H])N([H])C(=O)C1([H])N(C(=O)C([H])(N([H])C(=O)C([H])(N([H])C([H])([H])[H])C([H])([H])[H])C(C([H])([H])[H])(C([H])([H])[H])C([H])([H])[H])C([H])([H])c2c([H])c(OC([H])([H])C([H])([H])C([H])([H])c3c([H])c([H])c(C([H])([H])C([H])([H])C([H])([H])C([H])([H])N([H])C(=O)N4C([H])([H])C([H])([H])C([H])([H])C([H])(n5nc(-c6c([H])c([H])c(Oc7c([H])c([H])c(F)c([H])c7F)c([H])c6[H])c(C(=O)N([H])[H])c5N([H])[H])C4([H])[H])c([H])c3F)c([H])c([H])c2C1([H])[H]

>  <smiles>  (82) 
[H]c1c([H])c([H])c2c(c1[H])C([H])([H])C([H])([H])C([H])([H])C2([H])N([H])C(=O)C1([H])N(C(=O)C([H])(N([H])C(=O)C([H])(N([H])C([H])([H])[H])C([H])([H])[H])C(C([H])([H])[H])(C([H])([H])[H])C([H])([H])[H])C([H])([H])c2c([H])c(OC([H])([H])C([H])([H])C([H])([H])c3c([H])c([H])c(C([H])([H])C([H])([H])C([H])([H])C([H])([H])N([H])C(=O)N4C([H])([H])C([H])([H])C([H])([H])C([H])(n5nc(-c6c([H])c([H])c(Oc7c([H])c([H])c(F)c([H])c7F)c([H])c6[H])c(C(=O)N([H])[H])c5N([H])[H])C4([H])[H])c([H])c3F)c([H])c([H])c2C1([H])[H]

$$$$
82:0:0
     RDKit          3D

 93100  0  0  1  0  0  0  0  0999 V2000
  -31.0450  -22.6100   19.4200 C   0  0  0  0  0  3  0  0  0  0  0  0
  -29.7430  -23.2920   19.2530 N   0  0  0  0  0  4  0  0  0  0  0  0
  -29.7610  -23.5130   18.2640 H   0  0  0  0  0  0  0  0  0  0  0  0
  -28.9780  -22.6550   19.4220 H   0  0  0  0  0  0  0  0  0  0  0  0
  -29.5950  -24.5770   19.9890 C   0  0  0  0  0  2  0  0  0  0  0  0
  -28.3570  -25.3710   19.5460 C   0  0  0  0  0  2  0  0  0  0  0  0
  -28.3750  -26.6980   20.0970 O   0  0  0  0  0  0  0  0  0  0  0  0
  -24.6000  -31.8820   23.2150 C   0  0  0  0  0  0  0  0  0  0  0  0
  -27.1970  -27.4230   20.0950 C   0  0  0  0  0  0  0  0  0  0  0  0
  -23.3760  -30.4860   21.5860 C   0  0  0  0  0  3  0  0  0  0  0  0
  -24.8090  -28.9460   20.1520 C   0  0  0  0  0  0  0  0  0  0  0  0
  -25.9050  -30.8260   21.3710 C   0  0  0  0  0  2  0  0  0  0  0  0
  -25.9770  -29.4560   20.7290 C   0  0  0  0  0  0  0  0  0  0  0  0
  -27.1710  -28.6980   20.7070 C   0  0  0  0  0  3  0  0  0  0  0  0
  -26.0030  -26.9370   19.5060 C   0  0  0  0  0  3  0  0  0  0  0  0
  -24.8160  -27.6830   19.5460 C   0  0  0  0  0  3  0  0  0  0  0  0
  -23.5720  -29.8110   20.2040 C   0  0  0  0  0  2  0  0  0  0  0  0
  -24.6460  -31.0810   22.1160 N   0  0  0  0  0  0  0  0  0  0  0  0
  -23.5240  -32.1610   23.7640 O   0  0  0  0  0  0  0  0  0  0  0  0
  -22.7300  -29.4630   22.5480 C   0  0  0  0  0  0  0  0  0  0  0  0
  -21.4060  -29.2830   22.4300 N   0  0  0  0  0  0  0  0  0  0  0  0
  -23.4190  -28.8380   23.3590 O   0  0  0  0  0  0  0  0  0  0  0  0
  -20.9130  -29.8380   21.7450 H   0  0  0  0  0  0  0  0  0  0  0  0
  -18.0360  -28.0790   22.9300 C   0  0  0  0  0  0  0  0  0  0  0  0
  -20.5930  -28.3470   23.2030 C   0  0  0  0  0  3  0  0  0  0  0  0
  -20.7010  -26.9110   22.6340 C   0  0  0  0  0  2  0  0  0  0  0  0
  -19.5990  -26.5790   21.6230 C   0  0  0  0  0  2  0  0  0  0  0  0
  -18.2160  -26.7260   22.2640 C   0  0  0  0  0  2  0  0  0  0  0  0
  -19.1520  -28.8470   23.3570 C   0  0  0  0  0  0  0  0  0  0  0  0
  -18.9320  -30.1140   23.9390 C   0  0  0  0  0  3  0  0  0  0  0  0
  -17.6260  -30.6150   24.0990 C   0  0  0  0  0  3  0  0  0  0  0  0
  -16.5230  -29.8440   23.6910 C   0  0  0  0  0  3  0  0  0  0  0  0
  -16.7300  -28.5790   23.1130 C   0  0  0  0  0  3  0  0  0  0  0  0
  -25.8940  -32.5080   23.8220 C   0  0  0  0  0  3  0  0  0  0  0  0
  -26.4310  -31.7260   25.0820 C   0  0  1  0  0  0  0  0  0  0  0  0
  -25.3540  -31.4770   26.1640 C   0  0  0  0  0  1  0  0  0  0  0  0
  -27.0080  -30.3520   24.6660 C   0  0  0  0  0  1  0  0  0  0  0  0
  -27.5930  -32.5130   25.7330 C   0  0  0  0  0  1  0  0  0  0  0  0
  -25.5900  -33.9010   24.1690 N   0  0  0  0  0  0  0  0  0  0  0  0
  -25.9070  -34.9600   23.4120 C   0  0  0  0  0  0  0  0  0  0  0  0
  -26.5640  -34.8670   22.3700 O   0  0  0  0  0  0  0  0  0  0  0  0
  -25.0050  -34.0490   24.9800 H   0  0  0  0  0  0  0  0  0  0  0  0
  -24.1640  -36.7450   23.0980 C   0  0  0  0  0  1  0  0  0  0  0  0
  -25.4200  -36.3430   23.8870 C   0  0  0  0  0  3  0  0  0  0  0  0
  -27.5720  -37.2200   24.6790 C   0  0  0  0  0  1  0  0  0  0  0  0
  -26.4430  -37.4050   23.7710 N   0  0  0  0  0  0  0  0  0  0  0  0
  -26.0340  -38.3160   23.9590 H   0  0  0  0  0  0  0  0  0  0  0  0
  -31.5970  -22.2410   18.0330 C   0  0  0  0  0  2  0  0  0  0  0  0
  -31.5360  -23.3940   17.2070 O   0  0  0  0  0  0  0  0  0  0  0  0
  -32.1160  -23.2570   16.4600 H   0  0  0  0  0  0  0  0  0  0  0  0
  -31.0280  -21.4490   20.4460 C   0  0  0  0  0  2  0  0  0  0  0  0
  -30.3260  -20.1300   20.0540 C   0  0  0  0  0  2  0  0  0  0  0  0
  -30.5800  -19.0550   21.1270 C   0  0  0  0  0  2  0  0  0  0  0  0
  -30.0430  -17.6610   20.7790 C   0  0  0  0  0  2  0  0  0  0  0  0
  -30.5850  -16.5980   21.7560 C   0  0  0  0  0  2  0  0  0  0  0  0
  -30.6860  -14.3980   20.5830 C   0  0  0  0  0  0  0  0  0  0  0  0
  -30.3520  -12.3120   19.3150 C   0  0  0  0  0  2  0  0  0  0  0  0
  -29.3950  -12.5610   18.1320 C   0  0  0  0  0  2  0  0  0  0  0  0
  -27.9240  -12.4240   18.5730 C   0  0  0  0  0  2  0  0  0  0  0  0
  -27.6080  -13.2290   19.8610 C   0  0  0  0  0  3  0  0  0  0  0  0
  -28.6650  -12.9390   20.9480 C   0  0  0  0  0  2  0  0  0  0  0  0
  -29.9940  -13.2470   20.3880 N   0  0  0  0  0  0  0  0  0  0  0  0
  -31.7450  -14.6650   20.0040 O   0  0  0  0  0  0  0  0  0  0  0  0
  -30.1070  -15.2610   21.4260 N   0  0  0  0  0  0  0  0  0  0  0  0
  -29.2440  -14.9620   21.8540 H   0  0  0  0  0  0  0  0  0  0  0  0
  -25.2110  -13.8450   20.5730 C   0  0  0  0  0  0  0  0  0  0  0  0
  -24.1440  -13.0720   20.9470 C   0  0  0  0  0  0  0  0  0  0  0  0
  -24.6030  -11.7220   20.9130 C   0  0  0  0  0  0  0  0  0  0  0  0
  -26.2560  -12.9600   20.3420 N   0  0  0  0  0  0  0  0  0  0  0  0
  -25.8910  -11.6790   20.5990 N   0  0  0  0  0  0  0  0  0  0  0  0
  -23.8770  -10.4580   21.1060 C   0  0  0  0  0  0  0  0  0  0  0  0
  -24.3330   -9.4750   22.0120 C   0  0  0  0  0  3  0  0  0  0  0  0
  -23.6090   -8.2770   22.1930 C   0  0  0  0  0  3  0  0  0  0  0  0
  -22.4130   -8.0550   21.4680 C   0  0  0  0  0  0  0  0  0  0  0  0
  -21.9760   -9.0280   20.5520 C   0  0  0  0  0  3  0  0  0  0  0  0
  -22.7000  -10.2160   20.3700 C   0  0  0  0  0  3  0  0  0  0  0  0
  -21.6590   -6.9120   21.5600 O   0  0  0  0  0  0  0  0  0  0  0  0
  -21.6640   -6.1350   22.6920 C   0  0  0  0  0  0  0  0  0  0  0  0
  -21.3230   -6.6580   23.9570 C   0  0  0  0  0  3  0  0  0  0  0  0
  -21.2740   -5.8100   25.0800 C   0  0  0  0  0  3  0  0  0  0  0  0
  -21.5520   -4.4370   24.9400 C   0  0  0  0  0  0  0  0  0  0  0  0
  -21.8870   -3.9120   23.6790 C   0  0  0  0  0  3  0  0  0  0  0  0
  -21.9380   -4.7580   22.5570 C   0  0  0  0  0  0  0  0  0  0  0  0
  -22.2380   -4.2430   21.3410 F   0  0  0  0  0  0  0  0  0  0  0  0
  -21.4980   -3.6200   26.0170 F   0  0  0  0  0  0  0  0  0  0  0  0
  -22.7470  -13.5510   21.2270 C   0  0  0  0  0  0  0  0  0  0  0  0
  -22.0250  -12.8550   22.0980 N   0  0  0  0  0  0  0  0  0  0  0  0
  -22.3050  -14.5760   20.7100 O   0  0  0  0  0  0  0  0  0  0  0  0
  -22.3920  -12.0250   22.5380 H   0  0  0  0  0  0  0  0  0  0  0  0
  -21.0870  -13.1550   22.3270 H   0  0  0  0  0  0  0  0  0  0  0  0
  -25.3780  -15.2140   20.3980 N   0  0  0  0  0  0  0  0  0  0  0  0
  -24.6140  -15.8730   20.5090 H   0  0  0  0  0  0  0  0  0  0  0  0
  -26.2330  -15.6500   20.0780 H   0  0  0  0  0  0  0  0  0  0  0  0
  1 48  1  0
  1 51  1  0
  2  1  1  0
  2  4  1  0
  2  5  1  0
  3  2  1  0
  6  5  1  0
  6  7  1  0
  8 19  2  0
  9  7  1  0
  9 14  1  0
 10 18  1  0
 10 20  1  0
 11 17  1  0
 11 13  1  0
 12 18  1  0
 13 12  1  0
 14 13  2  0
 15 16  1  0
 15  9  2  0
 16 11  2  0
 17 10  1  0
 18  8  1  0
 20 22  2  0
 21 20  1  0
 23 21  1  0
 24 33  2  0
 24 29  1  0
 25 21  1  0
 25 29  1  0
 26 25  1  0
 27 28  1  0
 27 26  1  0
 28 24  1  0
 29 30  2  0
 30 31  1  0
 32 31  2  0
 33 32  1  0
 34  8  1  0
 34 39  1  0
 34 35  1  0
 35 38  1  1
 35 36  1  0
 37 35  1  0
 39 42  1  0
 40 44  1  0
 40 39  1  0
 41 40  2  0
 44 43  1  0
 46 44  1  0
 46 47  1  0
 46 45  1  0
 49 48  1  0
 50 49  1  0
 52 51  1  0
 52 53  1  0
 54 53  1  0
 54 55  1  0
 56 64  1  0
 57 62  1  0
 58 59  1  0
 58 57  1  0
 60 59  1  0
 60 69  1  0
 60 61  1  0
 62 56  1  0
 62 61  1  0
 63 56  2  0
 64 55  1  0
 64 65  1  0
 66 67  2  0
 67 86  1  0
 68 67  1  0
 68 71  1  0
 69 66  1  0
 69 70  1  0
 70 68  2  0
 71 72  1  0
 72 73  2  0
 74 77  1  0
 74 73  1  0
 75 74  2  0
 76 75  1  0
 76 71  2  0
 77 78  1  0
 78 79  1  0
 79 80  2  0
 81 80  1  0
 81 85  1  0
 82 81  2  0
 83 78  2  0
 83 82  1  0
 84 83  1  0
 86 87  1  0
 87 90  1  0
 87 89  1  0
 88 86  2  0
 91 92  1  0
 91 66  1  0
 93 91  1  0
M  ISO  4   6 101   7 101  56 100  64 100
M  END
>  <TORSDO>  (83) 
F 26

>  <SCORE>  (83) 
-11.951

>  <name>  (83) 
82

>  <ligand_id>  (83) 
82

>  <original_smiles>  (83) 
[H]OC([H])([H])C([H])(C([H])([H])C([H])([H])C([H])([H])C([H])([H])C([H])([H])N([H])C(=O)N1C([H])([H])C([H])([H])C([H])([H])C([H])(n2nc(-c3c([H])c([H])c(Oc4c([H])c([H])c(F)c([H])c4F)c([H])c3[H])c(C(=O)N([H])[H])c2N([H])[H])C1([H])[H])[N+]([H])([H])C([H])([H])C([H])([H])Oc1c([H])c([H])c2c(c1[H])C([H])([H])N(C(=O)C([H])(N([H])C(=O)C([H])(N([H])C([H])([H])[H])C([H])([H])[H])C(C([H])([H])[H])(C([H])([H])[H])C([H])([H])[H])C([H])(C(=O)N([H])C1([H])c3c([H])c([H])c([H])c([H])c3C([H])([H])C([H])([H])C1([H])[H])C2([H])[H]

>  <smiles>  (83) 
[H]OC([H])([H])C([H])(C([H])([H])C([H])([H])C([H])([H])C([H])([H])C([H])([H])N([H])C(=O)N1C([H])([H])C([H])([H])C([H])([H])C([H])(n2nc(-c3c([H])c([H])c(Oc4c([H])c([H])c(F)c([H])c4F)c([H])c3[H])c(C(=O)N([H])[H])c2N([H])[H])C1([H])[H])[N+]([H])([H])C([H])([H])C([H])([H])Oc1c([H])c([H])c2c(c1[H])C([H])([H])N(C(=O)C([H])(N([H])C(=O)C([H])(N([H])C([H])([H])[H])C([H])([H])[H])C(C([H])([H])[H])(C([H])([H])[H])C([H])([H])[H])C([H])(C(=O)N([H])C1([H])c3c([H])c([H])c([H])c([H])c3C([H])([H])C([H])([H])C1([H])[H])C2([H])[H]

$$$$
83:0:0
     RDKit          3D

 97104  0  0  1  0  0  0  0  0999 V2000
  -29.6660  -17.2120   20.1470 C   0  0  0  0  0  0  0  0  0  0  0  0
  -30.6660  -14.7720   20.4790 C   0  0  0  0  0  0  0  0  0  0  0  0
  -30.4780  -12.5340   19.4070 C   0  0  0  0  0  2  0  0  0  0  0  0
  -29.5650  -12.6760   18.1670 C   0  0  0  0  0  2  0  0  0  0  0  0
  -28.0790  -12.5370   18.5500 C   0  0  0  0  0  2  0  0  0  0  0  0
  -27.6990  -13.3880   19.7900 C   0  0  0  0  0  3  0  0  0  0  0  0
  -28.7280  -13.2030   20.9320 C   0  0  0  0  0  2  0  0  0  0  0  0
  -30.0550  -13.5440   20.4010 N   0  0  0  0  0  0  0  0  0  0  0  0
  -31.8190  -14.9330   20.0710 O   0  0  0  0  0  0  0  0  0  0  0  0
  -29.8520  -15.8410   20.7940 N   0  0  0  0  0  4  0  0  0  0  0  0
  -29.0280  -15.5340   21.2900 H   0  0  0  0  0  0  0  0  0  0  0  0
  -25.2840  -14.0080   20.4060 C   0  0  0  0  0  0  0  0  0  0  0  0
  -24.2030  -13.2480   20.7600 C   0  0  0  0  0  0  0  0  0  0  0  0
  -24.6620  -11.8950   20.7780 C   0  0  0  0  0  0  0  0  0  0  0  0
  -26.3340  -13.1210   20.2330 N   0  0  0  0  0  0  0  0  0  0  0  0
  -25.9620  -11.8450   20.5160 N   0  0  0  0  0  0  0  0  0  0  0  0
  -23.9250  -10.6390   20.9740 C   0  0  0  0  0  0  0  0  0  0  0  0
  -24.3280   -9.6880   21.9380 C   0  0  0  0  0  3  0  0  0  0  0  0
  -23.5920   -8.4970   22.1200 C   0  0  0  0  0  3  0  0  0  0  0  0
  -22.4390   -8.2480   21.3390 C   0  0  0  0  0  0  0  0  0  0  0  0
  -22.0560   -9.1860   20.3640 C   0  0  0  0  0  3  0  0  0  0  0  0
  -22.7930  -10.3690   20.1800 C   0  0  0  0  0  3  0  0  0  0  0  0
  -21.6770   -7.1080   21.4290 O   0  0  0  0  0  0  0  0  0  0  0  0
  -21.5990   -6.3860   22.5930 C   0  0  0  0  0  0  0  0  0  0  0  0
  -21.1620   -6.9690   23.8030 C   0  0  0  0  0  3  0  0  0  0  0  0
  -21.0270   -6.1760   24.9600 C   0  0  0  0  0  3  0  0  0  0  0  0
  -21.3180   -4.8000   24.9080 C   0  0  0  0  0  0  0  0  0  0  0  0
  -21.7480   -4.2160   23.7030 C   0  0  0  0  0  3  0  0  0  0  0  0
  -21.8840   -5.0070   22.5490 C   0  0  0  0  0  0  0  0  0  0  0  0
  -22.2790   -4.4350   21.3860 F   0  0  0  0  0  0  0  0  0  0  0  0
  -21.1810   -4.0340   26.0160 F   0  0  0  0  0  0  0  0  0  0  0  0
  -22.7990  -13.7340   20.9740 C   0  0  0  0  0  0  0  0  0  0  0  0
  -22.0480  -13.0750   21.8480 N   0  0  0  0  0  0  0  0  0  0  0  0
  -22.3750  -14.7380   20.4000 O   0  0  0  0  0  0  0  0  0  0  0  0
  -22.4000  -12.2640   22.3330 H   0  0  0  0  0  0  0  0  0  0  0  0
  -21.1060  -13.3870   22.0340 H   0  0  0  0  0  0  0  0  0  0  0  0
  -25.4590  -15.3740   20.1990 N   0  0  0  0  0  0  0  0  0  0  0  0
  -24.6950  -16.0360   20.2790 H   0  0  0  0  0  0  0  0  0  0  0  0
  -26.3180  -15.7980   19.8800 H   0  0  0  0  0  0  0  0  0  0  0  0
  -30.0540  -18.5500   20.9630 C   0  0  0  0  0  2  0  0  0  0  0  0
  -30.0340  -20.0070   20.2670 C   0  0  0  0  0  3  0  0  0  0  0  0
  -29.3970  -21.2930   20.9780 C   0  0  0  0  0  3  0  0  0  0  0  0
  -29.2870  -22.6370   20.1080 C   0  0  0  0  0  2  0  0  0  0  0  0
  -28.7800  -24.0130   20.7590 C   0  0  0  0  0  3  0  0  0  0  0  0
  -28.6520  -25.2940   19.8070 C   0  0  0  0  0  3  0  0  0  0  0  0
  -28.4810  -26.6460   20.3920 O   0  0  0  0  0  0  0  0  0  0  0  0
  -24.5850  -31.9470   23.3110 C   0  0  0  0  0  0  0  0  0  0  0  0
  -27.3100  -27.4200   20.3040 C   0  0  0  0  0  0  0  0  0  0  0  0
  -23.4270  -30.5410   21.6420 C   0  0  0  0  0  3  0  0  0  0  0  0
  -24.9190  -29.0000   20.2480 C   0  0  0  0  0  0  0  0  0  0  0  0
  -25.9630  -30.8850   21.5080 C   0  0  0  0  0  2  0  0  0  0  0  0
  -26.0660  -29.5040   20.8690 C   0  0  0  0  0  0  0  0  0  0  0  0
  -27.2590  -28.7240   20.8890 C   0  0  0  0  0  3  0  0  0  0  0  0
  -26.1300  -26.9570   19.6740 C   0  0  0  0  0  3  0  0  0  0  0  0
  -24.9510  -27.7320   19.6450 C   0  0  0  0  0  3  0  0  0  0  0  0
  -23.6750  -29.8640   20.2660 C   0  0  0  0  0  2  0  0  0  0  0  0
  -24.6770  -31.1420   22.2120 N   0  0  0  0  0  0  0  0  0  0  0  0
  -23.4880  -32.2130   23.8230 O   0  0  0  0  0  0  0  0  0  0  0  0
  -22.7540  -29.5200   22.5890 C   0  0  0  0  0  0  0  0  0  0  0  0
  -21.4340  -29.3310   22.4310 N   0  0  0  0  0  0  0  0  0  0  0  0
  -23.4190  -28.8990   23.4240 O   0  0  0  0  0  0  0  0  0  0  0  0
  -20.9570  -29.8890   21.7360 H   0  0  0  0  0  0  0  0  0  0  0  0
  -18.0560  -28.1040   22.8480 C   0  0  0  0  0  0  0  0  0  0  0  0
  -20.6040  -28.3860   23.1790 C   0  0  0  0  0  3  0  0  0  0  0  0
  -20.7330  -26.9570   22.6060 C   0  0  0  0  0  2  0  0  0  0  0  0
  -19.6600  -26.6240   21.5640 C   0  0  0  0  0  2  0  0  0  0  0  0
  -18.2630  -26.7560   22.1760 C   0  0  0  0  0  2  0  0  0  0  0  0
  -19.1570  -28.8770   23.3050 C   0  0  0  0  0  0  0  0  0  0  0  0
  -18.9140  -30.1350   23.8940 C   0  0  0  0  0  3  0  0  0  0  0  0
  -17.6020  -30.6260   24.0280 C   0  0  0  0  0  3  0  0  0  0  0  0
  -16.5140  -29.8520   23.5860 C   0  0  0  0  0  3  0  0  0  0  0  0
  -16.7420  -28.5920   23.0050 C   0  0  0  0  0  3  0  0  0  0  0  0
  -25.8490  -32.5900   23.9640 C   0  0  0  0  0  3  0  0  0  0  0  0
  -26.3200  -31.8430   25.2730 C   0  0  1  0  0  0  0  0  0  0  0  0
  -25.1940  -31.6310   26.3110 C   0  0  0  0  0  1  0  0  0  0  0  0
  -26.9080  -30.4570   24.9250 C   0  0  0  0  0  1  0  0  0  0  0  0
  -27.4550  -32.6440   25.9560 C   0  0  0  0  0  1  0  0  0  0  0  0
  -25.5340  -33.9950   24.2590 N   0  0  0  0  0  0  0  0  0  0  0  0
  -25.8920  -35.0330   23.4920 C   0  0  0  0  0  0  0  0  0  0  0  0
  -26.5930  -34.9080   22.4830 O   0  0  0  0  0  0  0  0  0  0  0  0
  -24.9190  -34.1670   25.0410 H   0  0  0  0  0  0  0  0  0  0  0  0
  -24.1780  -36.8200   23.0530 C   0  0  0  0  0  1  0  0  0  0  0  0
  -25.3960  -36.4330   23.9070 C   0  0  0  0  0  3  0  0  0  0  0  0
  -27.5100  -37.3270   24.7790 C   0  0  0  0  0  1  0  0  0  0  0  0
  -26.4340  -37.4810   23.8020 N   0  0  0  0  0  0  0  0  0  0  0  0
  -26.0270  -38.4060   23.9200 H   0  0  0  0  0  0  0  0  0  0  0  0
  -30.0760  -17.1850   18.6450 C   0  0  0  0  0  2  0  0  0  0  0  0
  -29.3250  -18.1190   17.6730 C   0  0  0  0  0  0  0  0  0  0  0  0
  -29.9330  -18.6360   16.7340 O   0  0  0  0  0  0  0  0  0  0  0  0
  -27.8200  -18.3880   17.8480 C   0  0  0  0  0  2  0  0  0  0  0  0
  -27.5200  -19.8410   18.2860 C   0  0  0  0  0  2  0  0  0  0  0  0
  -26.0650  -20.2960   18.0920 C   0  0  0  0  0  2  0  0  0  0  0  0
  -25.8890  -21.7940   18.4180 C   0  0  0  0  0  2  0  0  0  0  0  0
  -24.4980  -22.2520   18.2550 N   0  0  0  0  0  4  0  0  0  0  0  0
  -24.1620  -22.0630   17.3280 H   0  0  0  0  0  0  0  0  0  0  0  0
  -24.4470  -23.2440   18.4070 H   0  0  0  0  0  0  0  0  0  0  0  0
  -23.8900  -21.8070   18.9200 H   0  0  0  0  0  0  0  0  0  0  0  0
  1 10  2  3
  1 40  1  0
  2 10  1  0
  3  8  1  0
  4  5  1  0
  4  3  1  0
  6  5  1  0
  6 15  1  0
  6  7  1  0
  8  2  1  0
  8  7  1  0
  9  2  2  0
 10 11  1  0
 12 13  2  0
 13 14  1  0
 13 32  1  0
 14 17  1  0
 15 12  1  0
 15 16  1  0
 16 14  2  0
 17 18  1  0
 18 19  2  0
 20 23  1  0
 20 19  1  0
 21 20  2  0
 22 21  1  0
 22 17  2  0
 23 24  1  0
 24 25  1  0
 25 26  2  0
 27 26  1  0
 27 31  1  0
 28 27  2  0
 29 24  2  0
 29 28  1  0
 30 29  1  0
 32 33  1  0
 33 36  1  0
 33 35  1  0
 34 32  2  0
 37 38  1  0
 37 12  1  0
 39 37  1  0
 41 40  1  0
 41 42  2  0
 43 44  1  0
 43 42  1  0
 45 46  1  0
 45 44  2  0
 47 58  2  0
 48 46  1  0
 48 53  1  0
 49 57  1  0
 49 59  1  0
 50 56  1  0
 50 52  1  0
 51 57  1  0
 52 53  2  0
 52 51  1  0
 54 48  2  0
 55 54  1  0
 55 50  2  0
 56 49  1  0
 57 47  1  0
 59 61  2  0
 60 59  1  0
 62 60  1  0
 63 72  2  0
 63 68  1  0
 64 60  1  0
 64 68  1  0
 65 64  1  0
 66 67  1  0
 66 65  1  0
 67 63  1  0
 68 69  2  0
 69 70  1  0
 71 70  2  0
 72 71  1  0
 73 47  1  0
 73 78  1  0
 73 74  1  0
 74 77  1  1
 74 75  1  0
 76 74  1  0
 78 81  1  0
 79 83  1  0
 79 78  1  0
 80 79  2  0
 83 82  1  0
 85 83  1  0
 85 86  1  0
 85 84  1  0
 87  1  1  0
 88 90  1  0
 88 87  1  0
 89 88  2  0
 90 91  1  0
 92 91  1  0
 92 93  1  0
 94 96  1  0
 94 93  1  0
 94 97  1  0
 95 94  1  0
M  ISO  4   2 100  10 100  45 101  46 101
M  END
>  <TORSDO>  (84) 
F 29

>  <SCORE>  (84) 
-11.445

>  <name>  (84) 
83

>  <ligand_id>  (84) 
83

>  <original_smiles>  (84) 
[H]c1c([H])c([H])c2c(c1[H])C([H])([H])C([H])([H])C([H])([H])C2([H])N([H])C(=O)C1([H])N(C(=O)C([H])(N([H])C(=O)C([H])(N([H])C([H])([H])[H])C([H])([H])[H])C(C([H])([H])[H])(C([H])([H])[H])C([H])([H])[H])C([H])([H])c2c([H])c(OC([H])([H])C([H])([H])C([H])([H])C([H])([H])C([H])([H])C([H])([H])C([H])(N([H])C(=O)N3C([H])([H])C([H])([H])C([H])([H])C([H])(n4nc(-c5c([H])c([H])c(Oc6c([H])c([H])c(F)c([H])c6F)c([H])c5[H])c(C(=O)N([H])[H])c4N([H])[H])C3([H])[H])C([H])([H])C(=O)C([H])([H])C([H])([H])C([H])([H])C([H])([H])[N+]([H])([H])[H])c([H])c([H])c2C1([H])[H]

>  <smiles>  (84) 
[H]c1c([H])c([H])c2c(c1[H])C([H])([H])C([H])([H])C([H])([H])C2([H])N([H])C(=O)C1([H])N(C(=O)C([H])(N([H])C(=O)C([H])(N([H])C([H])([H])[H])C([H])([H])[H])C(C([H])([H])[H])(C([H])([H])[H])C([H])([H])[H])C([H])([H])c2c([H])c(OC([H])([H])C([H])([H])C([H])([H])C([H])([H])C([H])([H])C([H])([H])C([H])(N([H])C(=O)N3C([H])([H])C([H])([H])C([H])([H])C([H])(n4nc(-c5c([H])c([H])c(Oc6c([H])c([H])c(F)c([H])c6F)c([H])c5[H])c(C(=O)N([H])[H])c4N([H])[H])C3([H])[H])C([H])([H])C(=O)C([H])([H])C([H])([H])C([H])([H])C([H])([H])[N+]([H])([H])[H])c([H])c([H])c2C1([H])[H]

$$$$
84:0:0
     RDKit          3D

 92100  0  0  1  0  0  0  0  0999 V2000
  -30.3420  -18.7320   19.4990 C   0  0  0  0  0  3  0  0  0  0  0  0
  -30.5190  -19.1740   21.8780 C   0  0  0  0  0  3  0  0  0  0  0  0
  -30.3960  -20.1160   19.2340 C   0  0  0  0  0  3  0  0  0  0  0  0
  -30.5430  -20.5660   21.6140 C   0  0  0  0  0  3  0  0  0  0  0  0
  -30.4740  -18.2390   20.8170 C   0  0  0  0  0  0  0  0  0  0  0  0
  -30.5450  -21.0490   20.2830 C   0  0  0  0  0  0  0  0  0  0  0  0
  -30.1470  -15.7730   20.3720 C   0  0  0  0  0  2  0  0  0  0  0  0
  -30.7920  -16.7990   20.9940 C   0  0  0  0  0  3  0  0  0  0  0  0
  -30.8130  -14.4990   20.0910 C   0  0  0  0  0  0  0  0  0  0  0  0
  -30.3690  -12.3800   18.9340 C   0  0  0  0  0  2  0  0  0  0  0  0
  -29.3860  -12.6340   17.7770 C   0  0  0  0  0  2  0  0  0  0  0  0
  -27.9350  -12.4800   18.2680 C   0  0  0  0  0  2  0  0  0  0  0  0
  -27.6590  -13.2790   19.5720 C   0  0  0  0  0  3  0  0  0  0  0  0
  -28.7740  -13.0850   20.6210 C   0  0  0  0  0  2  0  0  0  0  0  0
  -30.0630  -13.3670   19.9790 N   0  0  0  0  0  0  0  0  0  0  0  0
  -31.9680  -14.5390   19.6610 O   0  0  0  0  0  0  0  0  0  0  0  0
  -25.2970  -13.8300   20.4270 C   0  0  0  0  0  0  0  0  0  0  0  0
  -24.2590  -13.0370   20.8350 C   0  0  0  0  0  0  0  0  0  0  0  0
  -24.7380  -11.6930   20.7560 C   0  0  0  0  0  0  0  0  0  0  0  0
  -26.3420  -12.9690   20.1230 N   0  0  0  0  0  0  0  0  0  0  0  0
  -26.0120  -11.6760   20.3780 N   0  0  0  0  0  0  0  0  0  0  0  0
  -24.0390  -10.4170   20.9620 C   0  0  0  0  0  0  0  0  0  0  0  0
  -24.4680   -9.4860   21.9320 C   0  0  0  0  0  3  0  0  0  0  0  0
  -23.7690   -8.2750   22.1240 C   0  0  0  0  0  3  0  0  0  0  0  0
  -22.6240   -7.9860   21.3440 C   0  0  0  0  0  0  0  0  0  0  0  0
  -22.2140   -8.9040   20.3610 C   0  0  0  0  0  3  0  0  0  0  0  0
  -22.9150  -10.1070   20.1700 C   0  0  0  0  0  3  0  0  0  0  0  0
  -21.8990   -6.8230   21.4440 O   0  0  0  0  0  0  0  0  0  0  0  0
  -21.7630   -6.1570   22.6340 C   0  0  0  0  0  0  0  0  0  0  0  0
  -21.0930   -6.7310   23.7360 C   0  0  0  0  0  3  0  0  0  0  0  0
  -20.9180   -5.9890   24.9190 C   0  0  0  0  0  3  0  0  0  0  0  0
  -21.3990   -4.6670   25.0000 C   0  0  0  0  0  0  0  0  0  0  0  0
  -22.0600   -4.0910   23.9000 C   0  0  0  0  0  3  0  0  0  0  0  0
  -22.2400   -4.8340   22.7210 C   0  0  0  0  0  0  0  0  0  0  0  0
  -22.8600   -4.2670   21.6590 F   0  0  0  0  0  0  0  0  0  0  0  0
  -21.2220   -3.9490   26.1330 F   0  0  0  0  0  0  0  0  0  0  0  0
  -22.8740  -13.4940   21.1860 C   0  0  0  0  0  0  0  0  0  0  0  0
  -22.1890  -12.7690   22.0620 N   0  0  0  0  0  0  0  0  0  0  0  0
  -22.4050  -14.5320   20.7210 O   0  0  0  0  0  0  0  0  0  0  0  0
  -22.5800  -11.9320   22.4700 H   0  0  0  0  0  0  0  0  0  0  0  0
  -21.2610  -13.0620   22.3400 H   0  0  0  0  0  0  0  0  0  0  0  0
  -25.4320  -15.2050   20.2640 N   0  0  0  0  0  0  0  0  0  0  0  0
  -24.6610  -15.8400   20.4320 H   0  0  0  0  0  0  0  0  0  0  0  0
  -26.2580  -15.6670   19.9090 H   0  0  0  0  0  0  0  0  0  0  0  0
  -31.9220  -16.6160   21.6930 O   0  0  0  0  0  0  0  0  0  0  0  0
  -32.2620  -17.4780   21.9090 H   0  0  0  0  0  0  0  0  0  0  0  0
  -31.8310  -23.2060   20.8290 C   0  0  0  0  0  1  0  0  0  0  0  0
  -30.7580  -22.5360   19.9510 C   0  0  0  0  0  3  0  0  0  0  0  0
  -29.3540  -24.5800   19.4100 C   0  0  0  0  0  3  0  0  0  0  0  0
  -29.4810  -23.3570   19.9700 C   0  0  0  0  0  3  0  0  0  0  0  0
  -28.0590  -25.3670   19.3810 C   0  0  0  0  0  2  0  0  0  0  0  0
  -28.1390  -26.6500   20.0160 O   0  0  0  0  0  0  0  0  0  0  0  0
  -24.5100  -31.8700   23.2770 C   0  0  0  0  0  0  0  0  0  0  0  0
  -26.9800  -27.4100   20.0460 C   0  0  0  0  0  0  0  0  0  0  0  0
  -23.2450  -30.5440   21.6190 C   0  0  0  0  0  3  0  0  0  0  0  0
  -24.6300  -29.0010   20.1420 C   0  0  0  0  0  0  0  0  0  0  0  0
  -25.7850  -30.8190   21.4130 C   0  0  0  0  0  2  0  0  0  0  0  0
  -25.8170  -29.4670   20.7260 C   0  0  0  0  0  0  0  0  0  0  0  0
  -26.9920  -28.6790   20.6710 C   0  0  0  0  0  3  0  0  0  0  0  0
  -25.7630  -26.9630   19.4680 C   0  0  0  0  0  3  0  0  0  0  0  0
  -24.5980  -27.7480   19.5150 C   0  0  0  0  0  3  0  0  0  0  0  0
  -23.4160  -29.8920   20.2240 C   0  0  0  0  0  2  0  0  0  0  0  0
  -24.5330  -31.0920   22.1570 N   0  0  0  0  0  0  0  0  0  0  0  0
  -23.4440  -32.1640   23.8350 O   0  0  0  0  0  0  0  0  0  0  0  0
  -22.5700  -29.5200   22.5630 C   0  0  0  0  0  0  0  0  0  0  0  0
  -21.2420  -29.3640   22.4330 N   0  0  0  0  0  0  0  0  0  0  0  0
  -23.2390  -28.8720   23.3700 O   0  0  0  0  0  0  0  0  0  0  0  0
  -20.7620  -29.9350   21.7520 H   0  0  0  0  0  0  0  0  0  0  0  0
  -17.8520  -28.2090   22.8970 C   0  0  0  0  0  0  0  0  0  0  0  0
  -20.4080  -28.4350   23.1930 C   0  0  0  0  0  3  0  0  0  0  0  0
  -20.5020  -27.0050   22.6120 C   0  0  0  0  0  2  0  0  0  0  0  0
  -19.4050  -26.6980   21.5860 C   0  0  0  0  0  2  0  0  0  0  0  0
  -18.0200  -26.8590   22.2200 C   0  0  0  0  0  2  0  0  0  0  0  0
  -18.9750  -28.9550   23.3430 C   0  0  0  0  0  0  0  0  0  0  0  0
  -18.7680  -30.2190   23.9350 C   0  0  0  0  0  3  0  0  0  0  0  0
  -17.4690  -30.7370   24.0910 C   0  0  0  0  0  3  0  0  0  0  0  0
  -16.3580  -29.9850   23.6690 C   0  0  0  0  0  3  0  0  0  0  0  0
  -16.5510  -28.7270   23.0720 C   0  0  0  0  0  3  0  0  0  0  0  0
  -25.8210  -32.4500   23.8920 C   0  0  0  0  0  3  0  0  0  0  0  0
  -25.5560  -33.8510   24.2480 N   0  0  0  0  0  0  0  0  0  0  0  0
  -25.8960  -34.9070   23.4960 C   0  0  0  0  0  0  0  0  0  0  0  0
  -26.5370  -34.8050   22.4480 O   0  0  0  0  0  0  0  0  0  0  0  0
  -24.9740  -34.0080   25.0590 H   0  0  0  0  0  0  0  0  0  0  0  0
  -24.2220  -36.7650   23.2040 C   0  0  0  0  0  1  0  0  0  0  0  0
  -25.4560  -36.2970   23.9900 C   0  0  0  0  0  3  0  0  0  0  0  0
  -27.6080  -37.1210   24.8400 C   0  0  0  0  0  1  0  0  0  0  0  0
  -26.5180  -37.3200   23.8890 N   0  0  0  0  0  0  0  0  0  0  0  0
  -26.1340  -38.2510   24.0340 H   0  0  0  0  0  0  0  0  0  0  0  0
  -26.3370  -31.6400   25.1470 C   0  0  1  0  0  0  0  0  0  0  0  0
  -25.2540  -31.4070   26.2260 C   0  0  0  0  0  1  0  0  0  0  0  0
  -26.8830  -30.2550   24.7280 C   0  0  0  0  0  1  0  0  0  0  0  0
  -27.5120  -32.3950   25.8100 C   0  0  0  0  0  1  0  0  0  0  0  0
  1  5  1  0
  3  1  2  0
  3  6  1  0
  4  2  1  0
  5  8  1  0
  5  2  2  0
  6  4  2  0
  8  7  1  0
  8 45  1  0
  9  7  1  0
 10 15  1  0
 11 12  1  0
 11 10  1  0
 13 12  1  0
 13 20  1  0
 13 14  1  0
 15  9  1  0
 15 14  1  0
 16  9  2  0
 17 18  2  0
 18 37  1  0
 19 18  1  0
 19 22  1  0
 20 21  1  0
 20 17  1  0
 21 19  2  0
 22 23  1  0
 23 24  2  0
 25 28  1  0
 25 24  1  0
 26 25  2  0
 27 26  1  0
 27 22  2  0
 28 29  1  0
 29 34  2  0
 29 30  1  0
 30 31  2  0
 31 32  1  0
 32 36  1  0
 33 32  2  0
 34 33  1  0
 35 34  1  0
 37 38  1  0
 38 41  1  0
 38 40  1  0
 39 37  2  0
 42 17  1  0
 42 43  1  0
 44 42  1  0
 45 46  1  0
 48 50  1  0
 48  6  1  0
 48 47  1  0
 49 50  2  0
 51 49  1  0
 51 52  1  0
 52 54  1  0
 53 64  2  0
 54 59  1  0
 55 63  1  0
 55 65  1  0
 56 62  1  0
 56 58  1  0
 57 63  1  0
 58 57  1  0
 59 58  2  0
 60 61  1  0
 60 54  2  0
 61 56  2  0
 62 55  1  0
 63 53  1  0
 65 67  2  0
 66 65  1  0
 68 66  1  0
 69 78  2  0
 69 74  1  0
 70 66  1  0
 70 74  1  0
 71 70  1  0
 72 73  1  0
 72 71  1  0
 73 69  1  0
 74 75  2  0
 75 76  1  0
 77 76  2  0
 78 77  1  0
 79 53  1  0
 79 80  1  0
 79 89  1  0
 80 83  1  0
 81 85  1  0
 81 80  1  0
 82 81  2  0
 85 84  1  0
 87 85  1  0
 87 88  1  0
 87 86  1  0
 89 92  1  1
 89 90  1  0
 91 89  1  0
M  ISO  4   7 100   9 100  51 101  52 101
M  END
>  <TORSDO>  (85) 
F 21

>  <SCORE>  (85) 
-12.992

>  <name>  (85) 
84

>  <ligand_id>  (85) 
84

>  <original_smiles>  (85) 
[H]OC(=C([H])C(=O)N1C([H])([H])C([H])([H])C([H])([H])C([H])(n2nc(-c3c([H])c([H])c(Oc4c([H])c([H])c(F)c([H])c4F)c([H])c3[H])c(C(=O)N([H])[H])c2N([H])[H])C1([H])[H])c1c([H])c([H])c(C([H])(C([H])=C([H])C([H])([H])Oc2c([H])c([H])c3c(c2[H])C([H])([H])N(C(=O)C([H])(N([H])C(=O)C([H])(N([H])C([H])([H])[H])C([H])([H])[H])C(C([H])([H])[H])(C([H])([H])[H])C([H])([H])[H])C([H])(C(=O)N([H])C2([H])c4c([H])c([H])c([H])c([H])c4C([H])([H])C([H])([H])C2([H])[H])C3([H])[H])C([H])([H])[H])c([H])c1[H]

>  <smiles>  (85) 
[H]OC(=C([H])C(=O)N1C([H])([H])C([H])([H])C([H])([H])C([H])(n2nc(-c3c([H])c([H])c(Oc4c([H])c([H])c(F)c([H])c4F)c([H])c3[H])c(C(=O)N([H])[H])c2N([H])[H])C1([H])[H])c1c([H])c([H])c(C([H])(C([H])=C([H])C([H])([H])Oc2c([H])c([H])c3c(c2[H])C([H])([H])N(C(=O)C([H])(N([H])C(=O)C([H])(N([H])C([H])([H])[H])C([H])([H])[H])C(C([H])([H])[H])(C([H])([H])[H])C([H])([H])[H])C([H])(C(=O)N([H])C2([H])c4c([H])c([H])c([H])c([H])c4C([H])([H])C([H])([H])C2([H])[H])C3([H])[H])C([H])([H])[H])c([H])c1[H]

$$$$
85:0:0
     RDKit          3D

 96104  0  0  1  0  0  0  0  0999 V2000
  -24.7910  -22.0180   21.0230 C   0  0  0  0  0  3  0  0  0  0  0  0
  -25.2650  -23.3420   20.9590 C   0  0  0  0  0  3  0  0  0  0  0  0
  -25.4420  -20.9950   20.3060 C   0  0  0  0  0  3  0  0  0  0  0  0
  -27.0280  -22.6320   19.4350 C   0  0  0  0  0  3  0  0  0  0  0  0
  -26.3790  -23.6590   20.1500 C   0  0  0  0  0  0  0  0  0  0  0  0
  -26.5750  -21.2920   19.5210 C   0  0  0  0  0  0  0  0  0  0  0  0
  -27.3430  -20.1660   18.8300 C   0  0  0  0  0  3  0  0  0  0  0  0
  -27.6170  -20.4650   17.3390 C   0  0  0  0  0  2  0  0  0  0  0  0
  -26.4040  -20.7370   16.6650 O   0  0  0  0  0  0  0  0  0  0  0  0
  -25.9660  -21.4230   17.1610 H   0  0  0  0  0  0  0  0  0  0  0  0
  -28.6310  -19.9230   19.6480 C   0  0  0  0  0  2  0  0  0  0  0  0
  -29.2620  -18.5190   19.5620 C   0  0  0  0  0  2  0  0  0  0  0  0
  -30.6290  -18.5140   18.8490 C   0  0  0  0  0  2  0  0  0  0  0  0
  -31.7270  -17.8060   19.6550 C   0  0  0  0  0  2  0  0  0  0  0  0
  -31.9000  -15.3370   19.8570 C   0  0  0  0  0  0  0  0  0  0  0  0
  -31.7680  -12.8800   19.8400 C   0  0  0  0  0  2  0  0  0  0  0  0
  -30.9300  -12.4030   18.6390 C   0  0  0  0  0  2  0  0  0  0  0  0
  -29.4410  -12.3450   19.0200 C   0  0  0  0  0  2  0  0  0  0  0  0
  -28.9400  -13.6470   19.7010 C   0  0  0  0  0  3  0  0  0  0  0  0
  -29.9080  -14.1040   20.8190 C   0  0  0  0  0  2  0  0  0  0  0  0
  -31.2670  -14.2010   20.2530 N   0  0  0  0  0  0  0  0  0  0  0  0
  -32.9820  -15.3280   19.2650 O   0  0  0  0  0  0  0  0  0  0  0  0
  -31.2740  -16.4880   20.1080 N   0  0  0  0  0  0  0  0  0  0  0  0
  -30.4020  -16.4320   20.6130 H   0  0  0  0  0  0  0  0  0  0  0  0
  -26.6310  -14.4570   20.4930 C   0  0  0  0  0  0  0  0  0  0  0  0
  -25.4870  -13.7850   20.8370 C   0  0  0  0  0  0  0  0  0  0  0  0
  -25.7990  -12.3960   20.7180 C   0  0  0  0  0  0  0  0  0  0  0  0
  -27.5720  -13.4850   20.1940 N   0  0  0  0  0  0  0  0  0  0  0  0
  -27.0740  -12.2360   20.3800 N   0  0  0  0  0  0  0  0  0  0  0  0
  -24.9400  -11.2110   20.8440 C   0  0  0  0  0  0  0  0  0  0  0  0
  -25.2200  -10.1830   21.7730 C   0  0  0  0  0  3  0  0  0  0  0  0
  -24.3620   -9.0660   21.8850 C   0  0  0  0  0  3  0  0  0  0  0  0
  -23.2120   -8.9680   21.0670 C   0  0  0  0  0  0  0  0  0  0  0  0
  -22.9520   -9.9830   20.1310 C   0  0  0  0  0  3  0  0  0  0  0  0
  -23.8080  -11.0900   20.0170 C   0  0  0  0  0  3  0  0  0  0  0  0
  -22.3400   -7.9080   21.0890 O   0  0  0  0  0  0  0  0  0  0  0  0
  -22.0930   -7.2040   22.2400 C   0  0  0  0  0  0  0  0  0  0  0  0
  -21.5700   -7.8260   23.3940 C   0  0  0  0  0  3  0  0  0  0  0  0
  -21.2690   -7.0540   24.5340 C   0  0  0  0  0  3  0  0  0  0  0  0
  -21.4750   -5.6630   24.5170 C   0  0  0  0  0  0  0  0  0  0  0  0
  -21.9870   -5.0390   23.3660 C   0  0  0  0  0  3  0  0  0  0  0  0
  -22.2900   -5.8080   22.2300 C   0  0  0  0  0  0  0  0  0  0  0  0
  -22.7670   -5.2010   21.1160 F   0  0  0  0  0  0  0  0  0  0  0  0
  -21.1770   -4.9210   25.6100 F   0  0  0  0  0  0  0  0  0  0  0  0
  -24.1580  -14.4030   21.1620 C   0  0  0  0  0  0  0  0  0  0  0  0
  -23.3760  -13.7520   22.0170 N   0  0  0  0  0  0  0  0  0  0  0  0
  -23.8210  -15.4910   20.6980 O   0  0  0  0  0  0  0  0  0  0  0  0
  -23.6610  -12.8720   22.4140 H   0  0  0  0  0  0  0  0  0  0  0  0
  -22.4860  -14.1520   22.2810 H   0  0  0  0  0  0  0  0  0  0  0  0
  -26.9450  -15.8040   20.3890 N   0  0  0  0  0  0  0  0  0  0  0  0
  -26.2410  -16.5240   20.5000 H   0  0  0  0  0  0  0  0  0  0  0  0
  -27.8120  -16.1450   19.9920 H   0  0  0  0  0  0  0  0  0  0  0  0
  -26.7990  -25.1140   19.9740 C   0  0  0  0  0  2  0  0  0  0  0  0
  -28.3060  -25.4390   20.1270 C   0  0  0  0  0  2  0  0  0  0  0  0
  -28.8100  -26.6180   19.2450 C   0  0  0  0  0  2  0  0  0  0  0  0
  -28.7970  -27.9200   19.8520 O   0  0  0  0  0  0  0  0  0  0  0  0
  -25.0530  -32.1480   24.1370 C   0  0  0  0  0  0  0  0  0  0  0  0
  -27.6100  -28.6010   20.0130 C   0  0  0  0  0  0  0  0  0  0  0  0
  -23.7880  -31.1250   22.2750 C   0  0  0  0  0  3  0  0  0  0  0  0
  -25.1940  -30.0120   20.4630 C   0  0  0  0  0  0  0  0  0  0  0  0
  -26.2950  -31.5910   22.0560 C   0  0  0  0  0  2  0  0  0  0  0  0
  -26.3690  -30.4060   21.1180 C   0  0  0  0  0  0  0  0  0  0  0  0
  -27.5720  -29.6970   20.9050 C   0  0  0  0  0  3  0  0  0  0  0  0
  -26.4270  -28.2660   19.3170 C   0  0  0  0  0  3  0  0  0  0  0  0
  -25.2180  -28.9380   19.5650 C   0  0  0  0  0  3  0  0  0  0  0  0
  -23.9340  -30.7900   20.7670 C   0  0  0  0  0  2  0  0  0  0  0  0
  -25.0660  -31.6210   22.8800 N   0  0  0  0  0  0  0  0  0  0  0  0
  -23.9980  -32.2620   24.7730 O   0  0  0  0  0  0  0  0  0  0  0  0
  -23.2040  -29.8920   23.0050 C   0  0  0  0  0  0  0  0  0  0  0  0
  -21.9340  -29.5670   22.7170 N   0  0  0  0  0  0  0  0  0  0  0  0
  -23.8960  -29.2370   23.7870 O   0  0  0  0  0  0  0  0  0  0  0  0
  -21.4240  -30.1560   22.0740 H   0  0  0  0  0  0  0  0  0  0  0  0
  -18.8340  -27.7410   22.4680 C   0  0  0  0  0  0  0  0  0  0  0  0
  -21.1990  -28.4210   23.2540 C   0  0  0  0  0  3  0  0  0  0  0  0
  -21.6850  -27.1000   22.6070 C   0  0  0  0  0  2  0  0  0  0  0  0
  -20.8650  -26.6990   21.3780 C   0  0  0  0  0  2  0  0  0  0  0  0
  -19.3890  -26.5250   21.7480 C   0  0  0  0  0  2  0  0  0  0  0  0
  -19.6840  -28.6410   23.1620 C   0  0  0  0  0  0  0  0  0  0  0  0
  -19.1180  -29.7800   23.7740 C   0  0  0  0  0  3  0  0  0  0  0  0
  -17.7320  -30.0230   23.7040 C   0  0  0  0  0  3  0  0  0  0  0  0
  -16.8950  -29.1160   23.0330 C   0  0  0  0  0  3  0  0  0  0  0  0
  -17.4450  -27.9770   22.4220 C   0  0  0  0  0  3  0  0  0  0  0  0
  -26.3630  -32.6530   24.8210 C   0  0  0  0  0  3  0  0  0  0  0  0
  -26.8320  -31.7440   26.0200 C   0  0  1  0  0  0  0  0  0  0  0  0
  -25.7100  -31.4400   27.0400 C   0  0  0  0  0  1  0  0  0  0  0  0
  -27.3830  -30.3930   25.5030 C   0  0  0  0  0  1  0  0  0  0  0  0
  -27.9920  -32.4330   26.7770 C   0  0  0  0  0  1  0  0  0  0  0  0
  -26.1170  -34.0270   25.2750 N   0  0  0  0  0  0  0  0  0  0  0  0
  -26.5040  -35.1240   24.6120 C   0  0  0  0  0  0  0  0  0  0  0  0
  -27.1740  -35.0830   23.5750 O   0  0  0  0  0  0  0  0  0  0  0  0
  -25.5260  -34.1400   26.0850 H   0  0  0  0  0  0  0  0  0  0  0  0
  -24.8560  -37.0100   24.4130 C   0  0  0  0  0  1  0  0  0  0  0  0
  -26.0740  -36.4850   25.1890 C   0  0  0  0  0  3  0  0  0  0  0  0
  -28.2440  -37.1990   26.0860 C   0  0  0  0  0  1  0  0  0  0  0  0
  -27.1510  -37.4960   25.1660 N   0  0  0  0  0  0  0  0  0  0  0  0
  -26.7840  -38.4140   25.3960 H   0  0  0  0  0  0  0  0  0  0  0  0
  2  1  1  0
  3  1  2  0
  4  6  2  0
  4  5  1  0
  5  2  2  0
  6  3  1  0
  7  8  1  0
  7  6  1  0
  7 11  1  0
  9 10  1  0
  9  8  1  0
 12 11  1  0
 13 12  1  0
 13 14  1  0
 14 23  1  0
 15 23  1  0
 15 21  1  0
 16 21  1  0
 17 18  1  0
 17 16  1  0
 19 18  1  0
 19 28  1  0
 19 20  1  0
 21 20  1  0
 22 15  2  0
 23 24  1  0
 25 26  2  0
 26 45  1  0
 27 26  1  0
 27 30  1  0
 28 29  1  0
 28 25  1  0
 29 27  2  0
 30 31  1  0
 31 32  2  0
 33 36  1  0
 33 32  1  0
 34 33  2  0
 35 34  1  0
 35 30  2  0
 36 37  1  0
 37 38  1  0
 38 39  2  0
 40 39  1  0
 40 44  1  0
 41 40  2  0
 42 37  2  0
 42 41  1  0
 43 42  1  0
 45 46  1  0
 46 49  1  0
 46 48  1  0
 47 45  2  0
 50 25  1  0
 50 51  1  0
 52 50  1  0
 53 54  1  0
 53  5  1  0
 55 56  1  0
 55 54  1  0
 56 58  1  0
 57 68  2  0
 58 63  1  0
 59 67  1  0
 59 69  1  0
 60 66  1  0
 60 62  1  0
 61 67  1  0
 62 61  1  0
 63 62  2  0
 64 65  1  0
 64 58  2  0
 65 60  2  0
 66 59  1  0
 67 57  1  0
 69 71  2  0
 70 69  1  0
 72 70  1  0
 73 78  1  0
 74 70  1  0
 75 74  1  0
 76 77  1  0
 76 75  1  0
 77 73  1  0
 78 74  1  0
 78 79  2  0
 80 79  1  0
 81 80  2  0
 82 73  2  0
 82 81  1  0
 83 57  1  0
 83 88  1  0
 83 84  1  0
 84 87  1  1
 84 85  1  0
 86 84  1  0
 88 91  1  0
 89 93  1  0
 89 88  1  0
 90 89  2  0
 93 92  1  0
 95 93  1  0
 95 96  1  0
 95 94  1  0
M  ISO  4  15 100  23 100  55 101  56 101
M  END
>  <TORSDO>  (86) 
F 26

>  <SCORE>  (86) 
-3.094

>  <name>  (86) 
85

>  <ligand_id>  (86) 
85

>  <original_smiles>  (86) 
[H]OC([H])([H])C([H])(c1c([H])c([H])c([H])c(C([H])([H])C([H])([H])C([H])([H])Oc2c([H])c([H])c3c(c2[H])C([H])([H])N(C(=O)C([H])(N([H])C(=O)C([H])(N([H])C([H])([H])[H])C([H])([H])[H])C(C([H])([H])[H])(C([H])([H])[H])C([H])([H])[H])C([H])(C(=O)N([H])C2([H])c4c([H])c([H])c([H])c([H])c4C([H])([H])C([H])([H])C2([H])[H])C3([H])[H])c1[H])C([H])([H])C([H])([H])C([H])([H])C([H])([H])N([H])C(=O)N1C([H])([H])C([H])([H])C([H])([H])C([H])(n2nc(-c3c([H])c([H])c(Oc4c([H])c([H])c(F)c([H])c4F)c([H])c3[H])c(C(=O)N([H])[H])c2N([H])[H])C1([H])[H]

>  <smiles>  (86) 
[H]OC([H])([H])C([H])(c1c([H])c([H])c([H])c(C([H])([H])C([H])([H])C([H])([H])Oc2c([H])c([H])c3c(c2[H])C([H])([H])N(C(=O)C([H])(N([H])C(=O)C([H])(N([H])C([H])([H])[H])C([H])([H])[H])C(C([H])([H])[H])(C([H])([H])[H])C([H])([H])[H])C([H])(C(=O)N([H])C2([H])c4c([H])c([H])c([H])c([H])c4C([H])([H])C([H])([H])C2([H])[H])C3([H])[H])c1[H])C([H])([H])C([H])([H])C([H])([H])C([H])([H])N([H])C(=O)N1C([H])([H])C([H])([H])C([H])([H])C([H])(n2nc(-c3c([H])c([H])c(Oc4c([H])c([H])c(F)c([H])c4F)c([H])c3[H])c(C(=O)N([H])[H])c2N([H])[H])C1([H])[H]

$$$$
86:0:0
     RDKit          3D

102109  0  0  1  0  0  0  0  0999 V2000
  -28.3930  -27.7840   17.2220 N   0  0  0  0  0  4  0  0  0  0  0  0
  -28.5680  -27.9920   16.2510 H   0  0  0  0  0  0  0  0  0  0  0  0
  -28.0110  -26.8520   17.2360 H   0  0  0  0  0  0  0  0  0  0  0  0
  -30.8450  -28.2110   16.9100 C   0  0  0  0  0  1  0  0  0  0  0  0
  -29.7530  -27.7800   17.9050 C   0  0  0  0  0  3  0  0  0  0  0  0
  -30.1470  -26.4230   18.6580 C   0  0  0  0  0  2  0  0  0  0  0  0
  -31.6060  -25.9190   18.8430 C   0  0  0  0  0  2  0  0  0  0  0  0
  -31.7800  -24.7750   19.9200 C   0  0  0  0  0  3  0  0  0  0  0  0
  -31.3890  -23.3160   19.5150 C   0  0  0  0  0  3  0  0  0  0  0  0
  -31.6410  -22.2010   20.5940 C   0  0  0  0  0  2  0  0  0  0  0  0
  -31.1970  -20.7620   20.1620 C   0  0  0  0  0  2  0  0  0  0  0  0
  -31.5180  -19.5780   21.1350 C   0  0  0  0  0  2  0  0  0  0  0  0
  -30.9580  -18.1820   20.6830 C   0  0  0  0  0  3  0  0  0  0  0  0
  -31.2780  -16.9760   21.6260 C   0  0  0  0  0  3  0  0  0  0  0  0
  -31.1950  -14.6180   20.6910 C   0  0  0  0  0  0  0  0  0  0  0  0
  -30.8440  -12.4170   19.6120 C   0  0  0  0  0  2  0  0  0  0  0  0
  -29.9780  -12.5640   18.3450 C   0  0  0  0  0  2  0  0  0  0  0  0
  -28.4850  -12.4670   18.7030 C   0  0  0  0  0  2  0  0  0  0  0  0
  -28.0940  -13.3850   19.8910 C   0  0  0  0  0  3  0  0  0  0  0  0
  -29.0880  -13.2430   21.0680 C   0  0  0  0  0  2  0  0  0  0  0  0
  -30.4490  -13.4800   20.5550 N   0  0  0  0  0  0  0  0  0  0  0  0
  -32.3320  -14.7140   20.2330 O   0  0  0  0  0  0  0  0  0  0  0  0
  -30.6140  -15.6860   21.2830 N   0  0  0  0  0  0  0  0  0  0  0  0
  -29.6660  -15.5610   21.6020 H   0  0  0  0  0  0  0  0  0  0  0  0
  -25.6800  -14.0690   20.4640 C   0  0  0  0  0  0  0  0  0  0  0  0
  -24.5720  -13.3370   20.7900 C   0  0  0  0  0  0  0  0  0  0  0  0
  -24.9940  -11.9700   20.8140 C   0  0  0  0  0  0  0  0  0  0  0  0
  -26.7110  -13.1560   20.3080 N   0  0  0  0  0  0  0  0  0  0  0  0
  -26.2980  -11.8890   20.5780 N   0  0  0  0  0  0  0  0  0  0  0  0
  -24.2220  -10.7350   20.9930 C   0  0  0  0  0  0  0  0  0  0  0  0
  -24.5630   -9.7860   21.9820 C   0  0  0  0  0  3  0  0  0  0  0  0
  -23.7930   -8.6150   22.1470 C   0  0  0  0  0  3  0  0  0  0  0  0
  -22.6660   -8.3840   21.3220 C   0  0  0  0  0  0  0  0  0  0  0  0
  -22.3450   -9.3200   20.3230 C   0  0  0  0  0  3  0  0  0  0  0  0
  -23.1160  -10.4830   20.1570 C   0  0  0  0  0  3  0  0  0  0  0  0
  -21.8760   -7.2620   21.3930 O   0  0  0  0  0  0  0  0  0  0  0  0
  -21.7090   -6.5720   22.5670 C   0  0  0  0  0  0  0  0  0  0  0  0
  -21.1860   -7.1860   23.7250 C   0  0  0  0  0  3  0  0  0  0  0  0
  -20.9660   -6.4230   24.8900 C   0  0  0  0  0  3  0  0  0  0  0  0
  -21.2600   -5.0470   24.8940 C   0  0  0  0  0  0  0  0  0  0  0  0
  -21.7750   -4.4310   23.7410 C   0  0  0  0  0  3  0  0  0  0  0  0
  -21.9960   -5.1920   22.5790 C   0  0  0  0  0  0  0  0  0  0  0  0
  -22.4740   -4.5890   21.4630 F   0  0  0  0  0  0  0  0  0  0  0  0
  -21.0420   -4.3110   26.0090 F   0  0  0  0  0  0  0  0  0  0  0  0
  -23.1770  -13.8570   20.9770 C   0  0  0  0  0  0  0  0  0  0  0  0
  -22.3870  -13.2080   21.8240 N   0  0  0  0  0  0  0  0  0  0  0  0
  -22.7950  -14.8820   20.4090 O   0  0  0  0  0  0  0  0  0  0  0  0
  -22.7060  -12.3800   22.3060 H   0  0  0  0  0  0  0  0  0  0  0  0
  -21.4480  -13.5400   21.9920 H   0  0  0  0  0  0  0  0  0  0  0  0
  -25.8950  -15.4300   20.2650 N   0  0  0  0  0  0  0  0  0  0  0  0
  -25.1460  -16.1110   20.3220 H   0  0  0  0  0  0  0  0  0  0  0  0
  -26.7790  -15.8370   19.9850 H   0  0  0  0  0  0  0  0  0  0  0  0
  -27.2790  -28.7280   17.6650 C   0  0  0  0  0  2  0  0  0  0  0  0
  -23.7960  -26.0610   20.4900 C   0  0  0  0  0  2  0  0  0  0  0  0
  -23.1930  -26.6290   17.6050 C   0  0  0  0  0  2  0  0  0  0  0  0
  -25.1860  -26.7850   20.4880 C   0  0  0  0  0  2  0  0  0  0  0  0
  -24.5320  -27.7160   17.0490 C   0  0  0  0  0  3  0  0  0  0  0  0
  -23.0880  -25.7130   19.1580 C   0  0  0  0  0  3  0  0  0  0  0  0
  -25.9250  -28.0590   18.1920 C   0  0  0  0  0  3  0  0  0  0  0  0
  -24.1070  -24.3220   19.6940 C   0  0  0  0  0  2  0  0  0  0  0  0
  -25.6350  -24.3660   20.8490 C   0  0  0  0  0  2  0  0  0  0  0  0
  -27.0130  -25.4330   21.1520 O   0  0  0  0  0  0  0  0  0  0  0  0
  -24.8160  -31.5420   23.7190 C   0  0  0  0  0  0  0  0  0  0  0  0
  -27.4430  -26.6680   20.4410 C   0  0  0  0  0  3  0  0  0  0  0  0
  -23.4380  -30.3910   22.0330 C   0  0  0  0  0  3  0  0  0  0  0  0
  -24.5250  -28.8570   20.3950 C   0  0  0  0  0  2  0  0  0  0  0  0
  -26.0360  -30.6390   21.8250 C   0  0  0  0  0  2  0  0  0  0  0  0
  -26.0480  -29.3830   21.0980 C   0  0  0  0  0  0  0  0  0  0  0  0
  -27.4310  -28.3090   21.0730 C   0  0  0  0  0  3  0  0  0  0  0  0
  -26.4350  -26.0010   19.4850 C   0  0  0  0  0  2  0  0  0  0  0  0
  -24.9910  -26.5300   19.3880 C   0  0  0  0  0  2  0  0  0  0  0  0
  -23.4150  -29.8460   20.5900 C   0  0  0  0  0  2  0  0  0  0  0  0
  -24.7810  -30.8280   22.5690 N   0  0  0  0  0  0  0  0  0  0  0  0
  -23.7710  -31.8980   24.2780 O   0  0  0  0  0  0  0  0  0  0  0  0
  -22.6970  -29.3920   22.9530 C   0  0  0  0  0  0  0  0  0  0  0  0
  -21.4020  -29.1690   22.6650 N   0  0  0  0  0  0  0  0  0  0  0  0
  -23.2760  -28.8240   23.8850 O   0  0  0  0  0  0  0  0  0  0  0  0
  -21.0040  -29.6610   21.8780 H   0  0  0  0  0  0  0  0  0  0  0  0
  -18.0020  -28.0190   22.7800 C   0  0  0  0  0  0  0  0  0  0  0  0
  -20.4950  -28.2870   23.3910 C   0  0  0  0  0  3  0  0  0  0  0  0
  -20.6450  -26.8140   22.9500 C   0  0  0  0  0  2  0  0  0  0  0  0
  -19.7120  -26.4360   21.7970 C   0  0  0  0  0  2  0  0  0  0  0  0
  -18.2540  -26.6280   22.2190 C   0  0  0  0  0  2  0  0  0  0  0  0
  -19.0590  -28.8030   23.3120 C   0  0  0  0  0  0  0  0  0  0  0  0
  -18.7790  -30.1060   23.7750 C   0  0  0  0  0  3  0  0  0  0  0  0
  -17.4700  -30.6210   23.7260 C   0  0  0  0  0  3  0  0  0  0  0  0
  -16.4210  -29.8320   23.2220 C   0  0  0  0  0  3  0  0  0  0  0  0
  -16.6910  -28.5360   22.7500 C   0  0  0  0  0  3  0  0  0  0  0  0
  -26.1720  -31.9810   24.3560 C   0  0  0  0  0  3  0  0  0  0  0  0
  -26.0810  -33.4180   24.6040 N   0  0  0  0  0  0  0  0  0  0  0  0
  -26.5700  -34.3570   23.7820 C   0  0  0  0  0  0  0  0  0  0  0  0
  -27.2310  -34.0970   22.7690 O   0  0  0  0  0  0  0  0  0  0  0  0
  -25.5000  -33.7070   25.3780 H   0  0  0  0  0  0  0  0  0  0  0  0
  -25.1310  -36.3480   23.2640 C   0  0  0  0  0  1  0  0  0  0  0  0
  -26.2770  -35.8220   24.1410 C   0  0  0  0  0  3  0  0  0  0  0  0
  -28.4970  -36.4230   24.9930 C   0  0  0  0  0  1  0  0  0  0  0  0
  -27.4560  -36.7020   24.0070 N   0  0  0  0  0  0  0  0  0  0  0  0
  -27.1920  -37.6810   24.0890 H   0  0  0  0  0  0  0  0  0  0  0  0
  -26.5240  -31.1800   25.6630 C   0  0  1  0  0  0  0  0  0  0  0  0
  -25.3630  -31.1210   26.6820 C   0  0  0  0  0  1  0  0  0  0  0  0
  -26.9380  -29.7280   25.3230 C   0  0  0  0  0  1  0  0  0  0  0  0
  -27.7410  -31.8320   26.3570 C   0  0  0  0  0  1  0  0  0  0  0  0
  1  3  1  0
  1 53  1  0
  1  5  1  0
  2  1  1  0
  5  4  1  0
  5  6  1  0
  6  7  1  0
  7  8  1  0
  9  8  2  0
  9 10  1  0
 11 10  1  0
 11 12  1  0
 13 12  1  0
 13 14  2  0
 15 23  1  0
 16 21  1  0
 17 18  1  0
 17 16  1  0
 19 18  1  0
 19 28  1  0
 19 20  1  0
 21 15  1  0
 21 20  1  0
 22 15  2  0
 23 24  1  0
 23 14  1  0
 25 26  2  0
 26 27  1  0
 26 45  1  0
 27 30  1  0
 28 25  1  0
 28 29  1  0
 29 27  2  0
 30 31  1  0
 31 32  2  0
 33 36  1  0
 33 32  1  0
 34 33  2  0
 35 34  1  0
 35 30  2  0
 36 37  1  0
 37 42  2  0
 37 38  1  0
 38 39  2  0
 39 40  1  0
 40 44  1  0
 41 40  2  0
 42 41  1  0
 43 42  1  0
 45 46  1  0
 46 49  1  0
 46 48  1  0
 47 45  2  0
 50 51  1  0
 50 25  1  0
 52 50  1  0
 53 59  1  0
 56 54  1  0
 57 55  1  0
 57 59  2  0
 58 55  1  0
 58 60  1  0
 58 54  1  0
 60 61  1  0
 61 62  1  0
 63 74  2  0
 64 69  1  0
 64 62  1  0
 65 73  1  0
 65 75  1  0
 66 72  1  0
 66 68  1  0
 67 73  1  0
 68 67  1  0
 69 68  2  0
 70 64  1  0
 71 70  1  0
 71 56  1  0
 72 65  1  0
 73 63  1  0
 75 77  2  0
 76 75  1  0
 78 76  1  0
 79 84  1  0
 80 76  1  0
 81 80  1  0
 82 83  1  0
 82 81  1  0
 83 79  1  0
 84 80  1  0
 84 85  2  0
 86 85  1  0
 87 86  2  0
 88 79  2  0
 88 87  1  0
 89 63  1  0
 89 90  1  0
 89 99  1  0
 90 93  1  0
 91 95  1  0
 91 90  1  0
 92 91  2  0
 95 94  1  0
 97 98  1  0
 97 95  1  0
 97 96  1  0
 99102  1  1
 99100  1  0
101 99  1  0
M  ISO  4  15 100  23 100  61 101  62 101
M  END
>  <TORSDO>  (87) 
F 30

>  <SCORE>  (87) 
-10.545

>  <name>  (87) 
86

>  <ligand_id>  (87) 
86

>  <original_smiles>  (87) 
[H]c1c([H])c([H])c2c(c1[H])C([H])([H])C([H])([H])C([H])([H])C2([H])N([H])C(=O)C1([H])N(C(=O)C([H])(N([H])C(=O)C([H])(N([H])C([H])([H])[H])C([H])([H])[H])C(C([H])([H])[H])(C([H])([H])[H])C([H])([H])[H])C([H])([H])c2c([H])c(OC([H])([H])C([H])([H])c3c([H])c([H])c(C([H])([H])[N+]([H])([H])C([H])(C([H])([H])[H])C([H])([H])C([H])([H])C([H])([H])C([H])([H])C([H])([H])C([H])([H])C([H])([H])C([H])([H])C([H])([H])N([H])C(=O)N4C([H])([H])C([H])([H])C([H])([H])C([H])(n5nc(-c6c([H])c([H])c(Oc7c([H])c([H])c(F)c([H])c7F)c([H])c6[H])c(C(=O)N([H])[H])c5N([H])[H])C4([H])[H])c([H])c3[H])c([H])c([H])c2C1([H])[H]

>  <smiles>  (87) 
[H]c1c([H])c([H])c2c(c1[H])C([H])([H])C([H])([H])C([H])([H])C2([H])N([H])C(=O)C1([H])N(C(=O)C([H])(N([H])C(=O)C([H])(N([H])C([H])([H])[H])C([H])([H])[H])C(C([H])([H])[H])(C([H])([H])[H])C([H])([H])[H])C([H])([H])c2c([H])c(OC([H])([H])C([H])([H])c3c([H])c([H])c(C([H])([H])[N+]([H])([H])C([H])(C([H])([H])[H])C([H])([H])C([H])([H])C([H])([H])C([H])([H])C([H])([H])C([H])([H])C([H])([H])C([H])([H])C([H])([H])N([H])C(=O)N4C([H])([H])C([H])([H])C([H])([H])C([H])(n5nc(-c6c([H])c([H])c(Oc7c([H])c([H])c(F)c([H])c7F)c([H])c6[H])c(C(=O)N([H])[H])c5N([H])[H])C4([H])[H])c([H])c3[H])c([H])c([H])c2C1([H])[H]

$$$$
87:0:0
     RDKit          3D

 92100  0  0  1  0  0  0  0  0999 V2000
  -30.5150  -21.7680   20.2760 C   0  0  0  0  0  3  0  0  0  0  0  0
  -29.4410  -20.7290   18.3500 C   0  0  0  0  0  3  0  0  0  0  0  0
  -30.4290  -20.5530   20.9820 C   0  0  0  0  0  3  0  0  0  0  0  0
  -29.3610  -19.5090   19.0550 C   0  0  0  0  0  3  0  0  0  0  0  0
  -30.0330  -21.8610   18.9530 C   0  0  0  0  0  0  0  0  0  0  0  0
  -29.8690  -19.4130   20.3690 C   0  0  0  0  0  0  0  0  0  0  0  0
  -30.2020  -23.1660   18.1900 C   0  0  0  0  0  2  0  0  0  0  0  0
  -29.3060  -24.3060   18.7130 C   0  0  0  0  0  2  0  0  0  0  0  0
  -29.8900  -25.7040   18.4370 C   0  0  0  0  0  2  0  0  0  0  0  0
  -28.9010  -26.8510   18.6900 C   0  0  0  0  0  2  0  0  0  0  0  0
  -28.4110  -26.8530   20.0350 O   0  0  0  0  0  0  0  0  0  0  0  0
  -24.5830  -31.9590   23.2470 C   0  0  0  0  0  0  0  0  0  0  0  0
  -27.2260  -27.5340   20.1500 C   0  0  0  0  0  0  0  0  0  0  0  0
  -23.3710  -30.5470   21.6150 C   0  0  0  0  0  3  0  0  0  0  0  0
  -24.8190  -28.9960   20.2050 C   0  0  0  0  0  0  0  0  0  0  0  0
  -25.8930  -30.9070   21.4090 C   0  0  0  0  0  2  0  0  0  0  0  0
  -25.9770  -29.5320   20.7830 C   0  0  0  0  0  0  0  0  0  0  0  0
  -27.1850  -28.8040   20.7620 C   0  0  0  0  0  3  0  0  0  0  0  0
  -26.0480  -26.9860   19.6020 C   0  0  0  0  0  3  0  0  0  0  0  0
  -24.8440  -27.7160   19.6190 C   0  0  0  0  0  3  0  0  0  0  0  0
  -23.5710  -29.8460   20.2460 C   0  0  0  0  0  2  0  0  0  0  0  0
  -24.6340  -31.1550   22.1480 N   0  0  0  0  0  0  0  0  0  0  0  0
  -23.5050  -32.2360   23.7890 O   0  0  0  0  0  0  0  0  0  0  0  0
  -22.7200  -29.5370   22.5860 C   0  0  0  0  0  0  0  0  0  0  0  0
  -21.3970  -29.3540   22.4590 N   0  0  0  0  0  0  0  0  0  0  0  0
  -23.4050  -28.9130   23.4010 O   0  0  0  0  0  0  0  0  0  0  0  0
  -20.9050  -29.9030   21.7670 H   0  0  0  0  0  0  0  0  0  0  0  0
  -18.0220  -28.1740   22.9700 C   0  0  0  0  0  0  0  0  0  0  0  0
  -20.5820  -28.4230   23.2350 C   0  0  0  0  0  3  0  0  0  0  0  0
  -20.6760  -26.9890   22.6620 C   0  0  0  0  0  2  0  0  0  0  0  0
  -19.5700  -26.6670   21.6520 C   0  0  0  0  0  2  0  0  0  0  0  0
  -18.1900  -26.8220   22.2980 C   0  0  0  0  0  2  0  0  0  0  0  0
  -19.1450  -28.9330   23.3940 C   0  0  0  0  0  0  0  0  0  0  0  0
  -18.9330  -30.2010   23.9790 C   0  0  0  0  0  3  0  0  0  0  0  0
  -17.6330  -30.7090   24.1460 C   0  0  0  0  0  3  0  0  0  0  0  0
  -16.5230  -29.9470   23.7390 C   0  0  0  0  0  3  0  0  0  0  0  0
  -16.7200  -28.6820   23.1580 C   0  0  0  0  0  3  0  0  0  0  0  0
  -25.8750  -32.5880   23.8600 C   0  0  0  0  0  3  0  0  0  0  0  0
  -25.5700  -33.9880   24.1820 N   0  0  0  0  0  0  0  0  0  0  0  0
  -25.9100  -35.0370   23.4220 C   0  0  0  0  0  0  0  0  0  0  0  0
  -26.5840  -34.9290   22.3940 O   0  0  0  0  0  0  0  0  0  0  0  0
  -24.9730  -34.1500   24.9810 H   0  0  0  0  0  0  0  0  0  0  0  0
  -24.1880  -36.8350   23.0500 C   0  0  0  0  0  1  0  0  0  0  0  0
  -25.4220  -36.4280   23.8730 C   0  0  0  0  0  3  0  0  0  0  0  0
  -27.5570  -37.3000   24.7150 C   0  0  0  0  0  1  0  0  0  0  0  0
  -26.4580  -37.4780   23.7680 N   0  0  0  0  0  0  0  0  0  0  0  0
  -26.0570  -38.4000   23.9190 H   0  0  0  0  0  0  0  0  0  0  0  0
  -26.4000  -31.8210   25.1360 C   0  0  1  0  0  0  0  0  0  0  0  0
  -25.3120  -31.5860   26.2100 C   0  0  0  0  0  1  0  0  0  0  0  0
  -26.9820  -30.4420   24.7500 C   0  0  0  0  0  1  0  0  0  0  0  0
  -27.5540  -32.6210   25.7900 C   0  0  0  0  0  1  0  0  0  0  0  0
  -29.8300  -18.0910   21.1210 C   0  0  0  0  0  2  0  0  0  0  0  0
  -31.2230  -17.4470   21.2290 C   0  0  0  0  0  2  0  0  0  0  0  0
  -31.2630  -16.1390   22.0450 C   0  0  0  0  0  2  0  0  0  0  0  0
  -30.7490  -14.3470   20.4000 C   0  0  0  0  0  0  0  0  0  0  0  0
  -30.2850  -12.3180   19.0780 C   0  0  0  0  0  2  0  0  0  0  0  0
  -29.3150  -12.5820   17.9140 C   0  0  0  0  0  2  0  0  0  0  0  0
  -27.8560  -12.4430   18.3850 C   0  0  0  0  0  2  0  0  0  0  0  0
  -27.5700  -13.2510   19.6780 C   0  0  0  0  0  3  0  0  0  0  0  0
  -28.6480  -12.9830   20.7530 C   0  0  0  0  0  2  0  0  0  0  0  0
  -29.9750  -13.2540   20.1690 N   0  0  0  0  0  0  0  0  0  0  0  0
  -31.7330  -14.6320   19.7120 O   0  0  0  0  0  0  0  0  0  0  0  0
  -30.4370  -15.0650   21.4870 N   0  0  0  0  0  0  0  0  0  0  0  0
  -29.6340  -14.7640   22.0210 H   0  0  0  0  0  0  0  0  0  0  0  0
  -25.1870  -13.8650   20.4380 C   0  0  0  0  0  0  0  0  0  0  0  0
  -24.1240  -13.0960   20.8310 C   0  0  0  0  0  0  0  0  0  0  0  0
  -24.5790  -11.7420   20.7880 C   0  0  0  0  0  0  0  0  0  0  0  0
  -26.2240  -12.9800   20.1840 N   0  0  0  0  0  0  0  0  0  0  0  0
  -25.8610  -11.6990   20.4510 N   0  0  0  0  0  0  0  0  0  0  0  0
  -23.8540  -10.4820   20.9950 C   0  0  0  0  0  0  0  0  0  0  0  0
  -24.3070   -9.5130   21.9190 C   0  0  0  0  0  3  0  0  0  0  0  0
  -23.5850   -8.3170   22.1120 C   0  0  0  0  0  3  0  0  0  0  0  0
  -22.3960   -8.0780   21.3820 C   0  0  0  0  0  0  0  0  0  0  0  0
  -21.9620   -9.0360   20.4480 C   0  0  0  0  0  3  0  0  0  0  0  0
  -22.6860  -10.2250   20.2530 C   0  0  0  0  0  3  0  0  0  0  0  0
  -21.6430   -6.9350   21.4850 O   0  0  0  0  0  0  0  0  0  0  0  0
  -21.6230   -6.1860   22.6350 C   0  0  0  0  0  0  0  0  0  0  0  0
  -21.2420   -6.7400   23.8770 C   0  0  0  0  0  3  0  0  0  0  0  0
  -21.1690   -5.9180   25.0210 C   0  0  0  0  0  3  0  0  0  0  0  0
  -21.4670   -4.5470   24.9240 C   0  0  0  0  0  0  0  0  0  0  0  0
  -21.8410   -3.9930   23.6870 C   0  0  0  0  0  3  0  0  0  0  0  0
  -21.9160   -4.8110   22.5450 C   0  0  0  0  0  0  0  0  0  0  0  0
  -22.2570   -4.2680   21.3520 F   0  0  0  0  0  0  0  0  0  0  0  0
  -21.3890   -3.7570   26.0200 F   0  0  0  0  0  0  0  0  0  0  0  0
  -22.7330  -13.5750   21.1350 C   0  0  0  0  0  0  0  0  0  0  0  0
  -22.0210  -12.8780   22.0140 N   0  0  0  0  0  0  0  0  0  0  0  0
  -22.2870  -14.6030   20.6280 O   0  0  0  0  0  0  0  0  0  0  0  0
  -22.3930  -12.0470   22.4490 H   0  0  0  0  0  0  0  0  0  0  0  0
  -21.0870  -13.1800   22.2540 H   0  0  0  0  0  0  0  0  0  0  0  0
  -25.3530  -15.2350   20.2580 N   0  0  0  0  0  0  0  0  0  0  0  0
  -24.5970  -15.9000   20.3890 H   0  0  0  0  0  0  0  0  0  0  0  0
  -26.2060  -15.6640   19.9220 H   0  0  0  0  0  0  0  0  0  0  0  0
  1  3  1  0
  2  5  1  0
  2  4  2  0
  4  6  1  0
  5  1  2  0
  6  3  2  0
  6 52  1  0
  7  8  1  0
  7  5  1  0
  9 10  1  0
  9  8  1  0
 10 11  1  0
 11 13  1  0
 12 23  2  0
 13 18  1  0
 14 22  1  0
 14 24  1  0
 15 21  1  0
 15 17  1  0
 16 22  1  0
 17 16  1  0
 18 17  2  0
 19 20  1  0
 19 13  2  0
 20 15  2  0
 21 14  1  0
 22 12  1  0
 24 26  2  0
 25 24  1  0
 27 25  1  0
 28 37  2  0
 28 33  1  0
 29 25  1  0
 29 33  1  0
 30 29  1  0
 31 32  1  0
 31 30  1  0
 32 28  1  0
 33 34  2  0
 34 35  1  0
 36 35  2  0
 37 36  1  0
 38 12  1  0
 38 39  1  0
 38 48  1  0
 39 42  1  0
 40 44  1  0
 40 39  1  0
 41 40  2  0
 44 43  1  0
 46 44  1  0
 46 47  1  0
 46 45  1  0
 48 51  1  1
 48 49  1  0
 50 48  1  0
 52 53  1  0
 53 54  1  0
 55 63  1  0
 56 61  1  0
 57 58  1  0
 57 56  1  0
 59 58  1  0
 59 68  1  0
 59 60  1  0
 61 55  1  0
 61 60  1  0
 62 55  2  0
 63 64  1  0
 63 54  1  0
 65 66  2  0
 66 85  1  0
 67 66  1  0
 67 70  1  0
 68 65  1  0
 68 69  1  0
 69 67  2  0
 70 71  1  0
 71 72  2  0
 73 76  1  0
 73 72  1  0
 74 73  2  0
 75 74  1  0
 75 70  2  0
 76 77  1  0
 77 78  1  0
 78 79  2  0
 80 79  1  0
 80 84  1  0
 81 80  2  0
 82 77  2  0
 82 81  1  0
 83 82  1  0
 85 86  1  0
 86 89  1  0
 86 88  1  0
 87 85  2  0
 90 91  1  0
 90 65  1  0
 92 90  1  0
M  ISO  4  10 101  11 101  55 100  63 100
M  END
>  <TORSDO>  (88) 
F 23

>  <SCORE>  (88) 
-12.603

>  <name>  (88) 
87

>  <ligand_id>  (88) 
87

>  <original_smiles>  (88) 
[H]c1c([H])c([H])c2c(c1[H])C([H])([H])C([H])([H])C([H])([H])C2([H])N([H])C(=O)C1([H])N(C(=O)C([H])(N([H])C(=O)C([H])(N([H])C([H])([H])[H])C([H])([H])[H])C(C([H])([H])[H])(C([H])([H])[H])C([H])([H])[H])C([H])([H])c2c([H])c(OC([H])([H])C([H])([H])C([H])([H])C([H])([H])c3c([H])c([H])c(C([H])([H])C([H])([H])C([H])([H])N([H])C(=O)N4C([H])([H])C([H])([H])C([H])([H])C([H])(n5nc(-c6c([H])c([H])c(Oc7c([H])c([H])c(F)c([H])c7F)c([H])c6[H])c(C(=O)N([H])[H])c5N([H])[H])C4([H])[H])c([H])c3[H])c([H])c([H])c2C1([H])[H]

>  <smiles>  (88) 
[H]c1c([H])c([H])c2c(c1[H])C([H])([H])C([H])([H])C([H])([H])C2([H])N([H])C(=O)C1([H])N(C(=O)C([H])(N([H])C(=O)C([H])(N([H])C([H])([H])[H])C([H])([H])[H])C(C([H])([H])[H])(C([H])([H])[H])C([H])([H])[H])C([H])([H])c2c([H])c(OC([H])([H])C([H])([H])C([H])([H])C([H])([H])c3c([H])c([H])c(C([H])([H])C([H])([H])C([H])([H])N([H])C(=O)N4C([H])([H])C([H])([H])C([H])([H])C([H])(n5nc(-c6c([H])c([H])c(Oc7c([H])c([H])c(F)c([H])c7F)c([H])c6[H])c(C(=O)N([H])[H])c5N([H])[H])C4([H])[H])c([H])c3[H])c([H])c([H])c2C1([H])[H]

$$$$
88:0:0
     RDKit          3D

 93101  0  0  1  0  0  0  0  0999 V2000
  -29.8400  -23.7230   23.9230 C   0  0  0  0  0  3  0  0  0  0  0  0
  -30.0360  -22.3310   23.9130 C   0  0  0  0  0  3  0  0  0  0  0  0
  -29.9560  -24.4570   22.7310 C   0  0  0  0  0  3  0  0  0  0  0  0
  -30.3800  -21.6600   22.7190 C   0  0  0  0  0  0  0  0  0  0  0  0
  -30.2850  -23.8100   21.5170 C   0  0  0  0  0  0  0  0  0  0  0  0
  -30.5050  -22.4070   21.5190 C   0  0  0  0  0  0  0  0  0  0  0  0
  -30.7780  -21.7760   20.3510 F   0  0  0  0  0  0  0  0  0  0  0  0
  -30.4560  -20.1720   22.7700 C   0  0  0  0  0  0  0  0  0  0  0  0
  -29.8280  -19.5270   23.6190 O   0  0  0  0  0  0  0  0  0  0  0  0
  -31.4060  -19.4290   21.8100 C   0  0  0  0  0  2  0  0  0  0  0  0
  -31.1420  -17.9010   21.7630 C   0  0  0  0  0  2  0  0  0  0  0  0
  -31.9950  -17.1210   20.7450 C   0  0  0  0  0  2  0  0  0  0  0  0
  -32.1740  -14.7420   20.0000 C   0  0  0  0  0  0  0  0  0  0  0  0
  -31.6560  -12.6620   18.7810 C   0  0  0  0  0  2  0  0  0  0  0  0
  -30.6510  -12.9770   17.6540 C   0  0  0  0  0  2  0  0  0  0  0  0
  -29.2010  -12.9280   18.1780 C   0  0  0  0  0  2  0  0  0  0  0  0
  -29.0110  -13.7430   19.4860 C   0  0  0  0  0  3  0  0  0  0  0  0
  -30.1110  -13.3860   20.5110 C   0  0  0  0  0  2  0  0  0  0  0  0
  -31.4210  -13.6170   19.8740 N   0  0  0  0  0  0  0  0  0  0  0  0
  -33.2350  -14.9250   19.3960 O   0  0  0  0  0  0  0  0  0  0  0  0
  -31.6100  -15.7100   20.7360 N   0  0  0  0  0  0  0  0  0  0  0  0
  -30.7510  -15.4610   21.2050 H   0  0  0  0  0  0  0  0  0  0  0  0
  -26.7130  -14.5060   20.3660 C   0  0  0  0  0  0  0  0  0  0  0  0
  -25.6140  -13.8030   20.7840 C   0  0  0  0  0  0  0  0  0  0  0  0
  -25.9690  -12.4220   20.6810 C   0  0  0  0  0  0  0  0  0  0  0  0
  -27.6710  -13.5570   20.0410 N   0  0  0  0  0  0  0  0  0  0  0  0
  -27.2280  -12.2980   20.2850 N   0  0  0  0  0  0  0  0  0  0  0  0
  -25.1630  -11.2110   20.8830 C   0  0  0  0  0  0  0  0  0  0  0  0
  -25.4660  -10.2850   21.9050 C   0  0  0  0  0  3  0  0  0  0  0  0
  -24.6660   -9.1360   22.0920 C   0  0  0  0  0  3  0  0  0  0  0  0
  -23.5490   -8.9070   21.2530 C   0  0  0  0  0  0  0  0  0  0  0  0
  -23.2650   -9.8200   20.2230 C   0  0  0  0  0  3  0  0  0  0  0  0
  -24.0650  -10.9600   20.0360 C   0  0  0  0  0  3  0  0  0  0  0  0
  -22.7330   -7.8060   21.3430 O   0  0  0  0  0  0  0  0  0  0  0  0
  -22.2920   -7.3320   22.5530 C   0  0  0  0  0  0  0  0  0  0  0  0
  -21.6440   -8.1670   23.4890 C   0  0  0  0  0  3  0  0  0  0  0  0
  -21.1450   -7.6250   24.6890 C   0  0  0  0  0  3  0  0  0  0  0  0
  -21.2850   -6.2490   24.9540 C   0  0  0  0  0  0  0  0  0  0  0  0
  -21.9270   -5.4150   24.0210 C   0  0  0  0  0  3  0  0  0  0  0  0
  -22.4260   -5.9550   22.8220 C   0  0  0  0  0  0  0  0  0  0  0  0
  -23.0240   -5.1430   21.9180 F   0  0  0  0  0  0  0  0  0  0  0  0
  -20.8000   -5.7260   26.1030 F   0  0  0  0  0  0  0  0  0  0  0  0
  -24.2790  -14.3720   21.1660 C   0  0  0  0  0  0  0  0  0  0  0  0
  -23.5930  -13.7450   22.1160 N   0  0  0  0  0  0  0  0  0  0  0  0
  -23.8550  -15.4090   20.6570 O   0  0  0  0  0  0  0  0  0  0  0  0
  -23.9510  -12.9070   22.5520 H   0  0  0  0  0  0  0  0  0  0  0  0
  -22.7010  -14.1100   22.4150 H   0  0  0  0  0  0  0  0  0  0  0  0
  -26.9700  -15.8650   20.2170 N   0  0  0  0  0  0  0  0  0  0  0  0
  -26.2630  -16.5720   20.3900 H   0  0  0  0  0  0  0  0  0  0  0  0
  -27.8270  -16.2480   19.8370 H   0  0  0  0  0  0  0  0  0  0  0  0
  -30.3110  -24.5960   20.2020 C   0  0  0  0  0  2  0  0  0  0  0  0
  -30.7350  -26.0810   20.3060 C   0  0  0  0  0  2  0  0  0  0  0  0
  -30.2260  -26.8520   19.2160 O   0  0  0  0  0  0  0  0  0  0  0  0
  -25.5590  -30.3830   23.2860 C   0  0  0  0  0  0  0  0  0  0  0  0
  -28.9450  -27.3150   19.3870 C   0  0  0  0  0  0  0  0  0  0  0  0
  -24.6100  -29.1580   21.3560 C   0  0  0  0  0  3  0  0  0  0  0  0
  -26.3040  -28.2690   19.6680 C   0  0  0  0  0  0  0  0  0  0  0  0
  -27.0100  -30.0360   21.2920 C   0  0  0  0  0  2  0  0  0  0  0  0
  -27.3480  -28.8740   20.3830 C   0  0  0  0  0  0  0  0  0  0  0  0
  -28.6700  -28.4000   20.2470 C   0  0  0  0  0  3  0  0  0  0  0  0
  -27.8920  -26.7200   18.6650 C   0  0  0  0  0  3  0  0  0  0  0  0
  -26.5710  -27.1870   18.8080 C   0  0  0  0  0  3  0  0  0  0  0  0
  -24.9180  -28.8380   19.8680 C   0  0  0  0  0  2  0  0  0  0  0  0
  -25.7420  -29.8640   22.0390 N   0  0  0  0  0  0  0  0  0  0  0  0
  -24.4570  -30.3200   23.8500 O   0  0  0  0  0  0  0  0  0  0  0  0
  -24.1880  -27.8500   22.0620 C   0  0  0  0  0  0  0  0  0  0  0  0
  -22.9580  -27.3890   21.7830 N   0  0  0  0  0  0  0  0  0  0  0  0
  -24.9670  -27.2610   22.8160 O   0  0  0  0  0  0  0  0  0  0  0  0
  -22.3800  -27.9340   21.1590 H   0  0  0  0  0  0  0  0  0  0  0  0
  -20.0170  -25.2960   21.6430 C   0  0  0  0  0  0  0  0  0  0  0  0
  -22.3640  -26.1570   22.3000 C   0  0  0  0  0  3  0  0  0  0  0  0
  -22.9160  -24.9200   21.5580 C   0  0  0  0  0  2  0  0  0  0  0  0
  -22.0510  -24.4960   20.3670 C   0  0  0  0  0  2  0  0  0  0  0  0
  -20.6270  -24.1700   20.8260 C   0  0  0  0  0  2  0  0  0  0  0  0
  -20.8330  -26.2390   22.3230 C   0  0  0  0  0  0  0  0  0  0  0  0
  -20.2180  -27.2880   23.0390 C   0  0  0  0  0  3  0  0  0  0  0  0
  -18.8150  -27.4020   23.0860 C   0  0  0  0  0  3  0  0  0  0  0  0
  -18.0120  -26.4560   22.4250 C   0  0  0  0  0  3  0  0  0  0  0  0
  -18.6130  -25.4050   21.7090 C   0  0  0  0  0  3  0  0  0  0  0  0
  -26.7140  -31.1010   24.0510 C   0  0  0  0  0  3  0  0  0  0  0  0
  -26.1950  -32.3900   24.5260 N   0  0  0  0  0  0  0  0  0  0  0  0
  -26.4620  -33.5730   23.9580 C   0  0  0  0  0  0  0  0  0  0  0  0
  -27.2410  -33.6990   23.0080 O   0  0  0  0  0  0  0  0  0  0  0  0
  -25.5080  -32.3560   25.2650 H   0  0  0  0  0  0  0  0  0  0  0  0
  -24.5810  -35.2070   23.6220 C   0  0  0  0  0  1  0  0  0  0  0  0
  -25.7550  -34.8140   24.5330 C   0  0  0  0  0  3  0  0  0  0  0  0
  -27.6450  -35.7790   25.7670 C   0  0  0  0  0  1  0  0  0  0  0  0
  -26.6540  -35.9750   24.7120 N   0  0  0  0  0  0  0  0  0  0  0  0
  -26.1220  -36.8140   24.9300 H   0  0  0  0  0  0  0  0  0  0  0  0
  -27.2860  -30.2530   25.2520 C   0  0  1  0  0  0  0  0  0  0  0  0
  -26.1970  -29.7360   26.2210 C   0  0  0  0  0  1  0  0  0  0  0  0
  -28.0750  -29.0290   24.7300 C   0  0  0  0  0  1  0  0  0  0  0  0
  -28.2850  -31.1070   26.0680 C   0  0  0  0  0  1  0  0  0  0  0  0
  2  1  1  0
  3  1  2  0
  4  8  1  0
  4  2  2  0
  5  6  2  0
  5  3  1  0
  6  4  1  0
  7  6  1  0
  8  9  2  0
 10  8  1  0
 11 10  1  0
 12 11  1  0
 13 21  1  0
 14 19  1  0
 15 16  1  0
 15 14  1  0
 17 16  1  0
 17 26  1  0
 17 18  1  0
 19 13  1  0
 19 18  1  0
 20 13  2  0
 21 12  1  0
 21 22  1  0
 23 24  2  0
 24 43  1  0
 25 24  1  0
 25 28  1  0
 26 27  1  0
 26 23  1  0
 27 25  2  0
 28 29  1  0
 29 30  2  0
 31 34  1  0
 31 30  1  0
 32 31  2  0
 33 32  1  0
 33 28  2  0
 34 35  1  0
 35 40  2  0
 35 36  1  0
 36 37  2  0
 37 38  1  0
 38 42  1  0
 39 38  2  0
 40 39  1  0
 41 40  1  0
 43 44  1  0
 44 47  1  0
 44 46  1  0
 45 43  2  0
 48 23  1  0
 48 49  1  0
 50 48  1  0
 51 52  1  0
 51  5  1  0
 53 55  1  0
 53 52  1  0
 54 65  2  0
 55 60  1  0
 56 64  1  0
 56 66  1  0
 57 63  1  0
 57 59  1  0
 58 64  1  0
 59 58  1  0
 60 59  2  0
 61 62  1  0
 61 55  2  0
 62 57  2  0
 63 56  1  0
 64 54  1  0
 66 68  2  0
 67 66  1  0
 69 67  1  0
 70 79  2  0
 70 75  1  0
 71 67  1  0
 71 75  1  0
 72 71  1  0
 73 74  1  0
 73 72  1  0
 74 70  1  0
 75 76  2  0
 76 77  1  0
 78 77  2  0
 79 78  1  0
 80 54  1  0
 80 81  1  0
 80 90  1  0
 81 84  1  0
 82 81  1  0
 82 86  1  0
 83 82  2  0
 86 85  1  0
 86 88  1  0
 88 89  1  0
 88 87  1  0
 90 93  1  1
 90 91  1  0
 92 90  1  0
M  ISO  4  13 100  21 100  52 101  53 101
M  END
>  <TORSDO>  (89) 
F 22

>  <SCORE>  (89) 
-6.265

>  <name>  (89) 
88

>  <ligand_id>  (89) 
88

>  <original_smiles>  (89) 
[H]c1c([H])c(C(=O)C([H])([H])C([H])([H])C([H])([H])N([H])C(=O)N2C([H])([H])C([H])([H])C([H])([H])C([H])(n3nc(-c4c([H])c([H])c(Oc5c([H])c([H])c(F)c([H])c5F)c([H])c4[H])c(C(=O)N([H])[H])c3N([H])[H])C2([H])[H])c(F)c(C([H])([H])C([H])([H])Oc2c([H])c([H])c3c(c2[H])C([H])([H])N(C(=O)C([H])(N([H])C(=O)C([H])(N([H])C([H])([H])[H])C([H])([H])[H])C(C([H])([H])[H])(C([H])([H])[H])C([H])([H])[H])C([H])(C(=O)N([H])C2([H])c4c([H])c([H])c([H])c([H])c4C([H])([H])C([H])([H])C2([H])[H])C3([H])[H])c1[H]

>  <smiles>  (89) 
[H]c1c([H])c(C(=O)C([H])([H])C([H])([H])C([H])([H])N([H])C(=O)N2C([H])([H])C([H])([H])C([H])([H])C([H])(n3nc(-c4c([H])c([H])c(Oc5c([H])c([H])c(F)c([H])c5F)c([H])c4[H])c(C(=O)N([H])[H])c3N([H])[H])C2([H])[H])c(F)c(C([H])([H])C([H])([H])Oc2c([H])c([H])c3c(c2[H])C([H])([H])N(C(=O)C([H])(N([H])C(=O)C([H])(N([H])C([H])([H])[H])C([H])([H])[H])C(C([H])([H])[H])(C([H])([H])[H])C([H])([H])[H])C([H])(C(=O)N([H])C2([H])c4c([H])c([H])c([H])c([H])c4C([H])([H])C([H])([H])C2([H])[H])C3([H])[H])c1[H]

$$$$
89:0:0
     RDKit          3D

 90 97  0  0  1  0  0  0  0  0999 V2000
  -29.3130  -22.9150   22.7650 C   0  0  0  0  0  2  0  0  0  0  0  0
  -28.9500  -24.3670   22.5200 C   0  0  0  0  0  3  0  0  0  0  0  0
  -29.4450  -25.1270   21.5290 C   0  0  0  0  0  3  0  0  0  0  0  0
  -29.0740  -26.5780   21.2990 C   0  0  0  0  0  2  0  0  0  0  0  0
  -28.3810  -26.7090   20.0610 O   0  0  0  0  0  0  0  0  0  0  0  0
  -24.6100  -31.8710   23.2150 C   0  0  0  0  0  0  0  0  0  0  0  0
  -27.2430  -27.4770   20.0960 C   0  0  0  0  0  0  0  0  0  0  0  0
  -23.3970  -30.4950   21.5510 C   0  0  0  0  0  3  0  0  0  0  0  0
  -24.8470  -28.9650   20.1140 C   0  0  0  0  0  0  0  0  0  0  0  0
  -25.9210  -30.8510   21.3630 C   0  0  0  0  0  2  0  0  0  0  0  0
  -26.0010  -29.4870   20.7130 C   0  0  0  0  0  0  0  0  0  0  0  0
  -27.2020  -28.7500   20.7060 C   0  0  0  0  0  3  0  0  0  0  0  0
  -26.0820  -26.9660   19.4850 C   0  0  0  0  0  3  0  0  0  0  0  0
  -24.8800  -27.7000   19.4990 C   0  0  0  0  0  3  0  0  0  0  0  0
  -23.6050  -29.8250   20.1660 C   0  0  0  0  0  2  0  0  0  0  0  0
  -24.6600  -31.0850   22.1020 N   0  0  0  0  0  0  0  0  0  0  0  0
  -23.5300  -32.1430   23.7570 O   0  0  0  0  0  0  0  0  0  0  0  0
  -22.7390  -29.4680   22.4990 C   0  0  0  0  0  0  0  0  0  0  0  0
  -21.4120  -29.3030   22.3730 N   0  0  0  0  0  0  0  0  0  0  0  0
  -23.4180  -28.8220   23.3020 O   0  0  0  0  0  0  0  0  0  0  0  0
  -20.9270  -29.8760   21.6970 H   0  0  0  0  0  0  0  0  0  0  0  0
  -18.0270  -28.1380   22.8490 C   0  0  0  0  0  0  0  0  0  0  0  0
  -20.5860  -28.3650   23.1330 C   0  0  0  0  0  3  0  0  0  0  0  0
  -20.6760  -26.9390   22.5430 C   0  0  0  0  0  2  0  0  0  0  0  0
  -19.5750  -26.6380   21.5210 C   0  0  0  0  0  2  0  0  0  0  0  0
  -18.1920  -26.7930   22.1620 C   0  0  0  0  0  2  0  0  0  0  0  0
  -19.1520  -28.8830   23.2910 C   0  0  0  0  0  0  0  0  0  0  0  0
  -18.9450  -30.1440   23.8920 C   0  0  0  0  0  3  0  0  0  0  0  0
  -17.6450  -30.6580   24.0560 C   0  0  0  0  0  3  0  0  0  0  0  0
  -16.5340  -29.9090   23.6320 C   0  0  0  0  0  3  0  0  0  0  0  0
  -16.7260  -28.6510   23.0340 C   0  0  0  0  0  3  0  0  0  0  0  0
  -25.9010  -32.4840   23.8430 C   0  0  0  0  0  3  0  0  0  0  0  0
  -26.4450  -31.6610   25.0730 C   0  0  1  0  0  0  0  0  0  0  0  0
  -25.3740  -31.3710   26.1510 C   0  0  0  0  0  1  0  0  0  0  0  0
  -27.0290  -30.3070   24.6080 C   0  0  0  0  0  1  0  0  0  0  0  0
  -27.6040  -32.4320   25.7490 C   0  0  0  0  0  1  0  0  0  0  0  0
  -25.5890  -33.8640   24.2360 N   0  0  0  0  0  0  0  0  0  0  0  0
  -25.9030  -34.9480   23.5150 C   0  0  0  0  0  0  0  0  0  0  0  0
  -26.5570  -34.8920   22.4700 O   0  0  0  0  0  0  0  0  0  0  0  0
  -25.0070  -33.9810   25.0520 H   0  0  0  0  0  0  0  0  0  0  0  0
  -24.1480  -36.7320   23.2640 C   0  0  0  0  0  1  0  0  0  0  0  0
  -25.4100  -36.3120   24.0350 C   0  0  0  0  0  3  0  0  0  0  0  0
  -27.5580  -37.1810   24.8470 C   0  0  0  0  0  1  0  0  0  0  0  0
  -26.4300  -37.3800   23.9420 N   0  0  0  0  0  0  0  0  0  0  0  0
  -26.0200  -38.2890   24.1400 H   0  0  0  0  0  0  0  0  0  0  0  0
  -28.0960  -21.9850   22.6450 C   0  0  0  0  0  2  0  0  0  0  0  0
  -28.4140  -20.5450   23.0770 C   0  0  0  0  0  2  0  0  0  0  0  0
  -27.2290  -19.5840   22.8760 C   0  0  0  0  0  2  0  0  0  0  0  0
  -27.4520  -18.1810   23.4710 C   0  0  0  0  0  2  0  0  0  0  0  0
  -28.6420  -17.4240   22.8550 C   0  0  0  0  0  2  0  0  0  0  0  0
  -28.7440  -15.9670   23.3450 C   0  0  0  0  0  2  0  0  0  0  0  0
  -30.0230  -15.2420   22.8770 C   0  0  0  0  0  2  0  0  0  0  0  0
  -30.7500  -14.3830   20.6670 C   0  0  0  0  0  0  0  0  0  0  0  0
  -30.4230  -12.2870   19.4110 C   0  0  0  0  0  2  0  0  0  0  0  0
  -29.4950  -12.5140   18.2000 C   0  0  0  0  0  2  0  0  0  0  0  0
  -28.0150  -12.3720   18.6070 C   0  0  0  0  0  2  0  0  0  0  0  0
  -27.6660  -13.1970   19.8730 C   0  0  0  0  0  3  0  0  0  0  0  0
  -28.6970  -12.9320   20.9880 C   0  0  0  0  0  2  0  0  0  0  0  0
  -30.0420  -13.2380   20.4680 N   0  0  0  0  0  0  0  0  0  0  0  0
  -31.7880  -14.6500   20.0580 O   0  0  0  0  0  0  0  0  0  0  0  0
  -30.1830  -15.3280   21.4270 N   0  0  0  0  0  0  0  0  0  0  0  0
  -30.5010  -16.2450   21.1530 H   0  0  0  0  0  0  0  0  0  0  0  0
  -25.2610  -13.8140   20.5660 C   0  0  0  0  0  0  0  0  0  0  0  0
  -24.1840  -13.0430   20.9160 C   0  0  0  0  0  0  0  0  0  0  0  0
  -24.6390  -11.6900   20.8730 C   0  0  0  0  0  0  0  0  0  0  0  0
  -26.3030  -12.9290   20.3310 N   0  0  0  0  0  0  0  0  0  0  0  0
  -25.9300  -11.6460   20.5700 N   0  0  0  0  0  0  0  0  0  0  0  0
  -23.9060  -10.4280   21.0410 C   0  0  0  0  0  0  0  0  0  0  0  0
  -24.3620   -9.4200   21.9180 C   0  0  0  0  0  3  0  0  0  0  0  0
  -23.6300   -8.2240   22.0740 C   0  0  0  0  0  3  0  0  0  0  0  0
  -22.4280   -8.0270   21.3540 C   0  0  0  0  0  0  0  0  0  0  0  0
  -21.9910   -9.0250   20.4650 C   0  0  0  0  0  3  0  0  0  0  0  0
  -22.7230  -10.2130   20.3060 C   0  0  0  0  0  3  0  0  0  0  0  0
  -21.6650   -6.8870   21.4240 O   0  0  0  0  0  0  0  0  0  0  0  0
  -21.6860   -6.0730   22.5280 C   0  0  0  0  0  0  0  0  0  0  0  0
  -21.4020   -6.5630   23.8220 C   0  0  0  0  0  3  0  0  0  0  0  0
  -21.3660   -5.6780   24.9180 C   0  0  0  0  0  3  0  0  0  0  0  0
  -21.6050   -4.3040   24.7220 C   0  0  0  0  0  0  0  0  0  0  0  0
  -21.8830   -3.8140   23.4350 C   0  0  0  0  0  3  0  0  0  0  0  0
  -21.9190   -4.6960   22.3410 C   0  0  0  0  0  0  0  0  0  0  0  0
  -22.1650   -4.2150   21.0980 F   0  0  0  0  0  0  0  0  0  0  0  0
  -21.5640   -3.4520   25.7740 F   0  0  0  0  0  0  0  0  0  0  0  0
  -22.7880  -13.5240   21.1840 C   0  0  0  0  0  0  0  0  0  0  0  0
  -22.0510  -12.8230   22.0400 N   0  0  0  0  0  0  0  0  0  0  0  0
  -22.3570  -14.5550   20.6700 O   0  0  0  0  0  0  0  0  0  0  0  0
  -22.4100  -11.9880   22.4770 H   0  0  0  0  0  0  0  0  0  0  0  0
  -21.1140  -13.1280   22.2620 H   0  0  0  0  0  0  0  0  0  0  0  0
  -25.4380  -15.1850   20.4100 N   0  0  0  0  0  0  0  0  0  0  0  0
  -24.6840  -15.8510   20.5390 H   0  0  0  0  0  0  0  0  0  0  0  0
  -26.3110  -15.6200   20.1400 H   0  0  0  0  0  0  0  0  0  0  0  0
  2  1  1  0
  3  2  2  0
  4  3  1  0
  5  7  1  0
  5  4  1  0
  6 17  2  0
  7 12  1  0
  8 16  1  0
  8 18  1  0
  9 15  1  0
  9 11  1  0
 10 16  1  0
 11 10  1  0
 12 11  2  0
 13 14  1  0
 13  7  2  0
 14  9  2  0
 15  8  1  0
 16  6  1  0
 18 20  2  0
 19 18  1  0
 21 19  1  0
 22 31  2  0
 22 27  1  0
 23 19  1  0
 23 27  1  0
 24 23  1  0
 25 26  1  0
 25 24  1  0
 26 22  1  0
 27 28  2  0
 28 29  1  0
 30 29  2  0
 31 30  1  0
 32  6  1  0
 32 37  1  0
 32 33  1  0
 33 36  1  1
 33 34  1  0
 35 33  1  0
 37 40  1  0
 38 42  1  0
 38 37  1  0
 39 38  2  0
 42 41  1  0
 44 42  1  0
 44 45  1  0
 44 43  1  0
 46  1  1  0
 46 47  1  0
 48 47  1  0
 48 49  1  0
 50 51  1  0
 50 49  1  0
 52 51  1  0
 53 61  1  0
 54 59  1  0
 55 56  1  0
 55 54  1  0
 57 56  1  0
 57 66  1  0
 57 58  1  0
 59 53  1  0
 59 58  1  0
 60 53  2  0
 61 52  1  0
 62 61  1  0
 63 64  2  0
 64 83  1  0
 65 64  1  0
 65 68  1  0
 66 63  1  0
 66 67  1  0
 67 65  2  0
 68 69  1  0
 69 70  2  0
 71 74  1  0
 71 70  1  0
 72 71  2  0
 73 72  1  0
 73 68  2  0
 74 75  1  0
 75 76  1  0
 76 77  2  0
 78 77  1  0
 78 82  1  0
 79 78  2  0
 80 75  2  0
 80 79  1  0
 81 80  1  0
 83 84  1  0
 84 87  1  0
 84 86  1  0
 85 83  2  0
 88 89  1  0
 88 63  1  0
 90 88  1  0
M  ISO  4   4 101   5 101  53 100  61 100
M  END
>  <TORSDO>  (90) 
F 25

>  <SCORE>  (90) 
21.299

>  <name>  (90) 
89

>  <ligand_id>  (90) 
89

>  <original_smiles>  (90) 
[H]C(=C([H])C([H])([H])C([H])([H])C([H])([H])C([H])([H])C([H])([H])C([H])([H])C([H])([H])C([H])([H])N([H])C(=O)N1C([H])([H])C([H])([H])C([H])([H])C([H])(n2nc(-c3c([H])c([H])c(Oc4c([H])c([H])c(F)c([H])c4F)c([H])c3[H])c(C(=O)N([H])[H])c2N([H])[H])C1([H])[H])C([H])([H])Oc1c([H])c([H])c2c(c1[H])C([H])([H])N(C(=O)C([H])(N([H])C(=O)C([H])(N([H])C([H])([H])[H])C([H])([H])[H])C(C([H])([H])[H])(C([H])([H])[H])C([H])([H])[H])C([H])(C(=O)N([H])C1([H])c3c([H])c([H])c([H])c([H])c3C([H])([H])C([H])([H])C1([H])[H])C2([H])[H]

>  <smiles>  (90) 
[H]C(=C([H])C([H])([H])C([H])([H])C([H])([H])C([H])([H])C([H])([H])C([H])([H])C([H])([H])C([H])([H])N([H])C(=O)N1C([H])([H])C([H])([H])C([H])([H])C([H])(n2nc(-c3c([H])c([H])c(Oc4c([H])c([H])c(F)c([H])c4F)c([H])c3[H])c(C(=O)N([H])[H])c2N([H])[H])C1([H])[H])C([H])([H])Oc1c([H])c([H])c2c(c1[H])C([H])([H])N(C(=O)C([H])(N([H])C(=O)C([H])(N([H])C([H])([H])[H])C([H])([H])[H])C(C([H])([H])[H])(C([H])([H])[H])C([H])([H])[H])C([H])(C(=O)N([H])C1([H])c3c([H])c([H])c([H])c([H])c3C([H])([H])C([H])([H])C1([H])[H])C2([H])[H]

$$$$
90:0:0
     RDKit          3D

 95102  0  0  1  0  0  0  0  0999 V2000
  -29.7310  -25.4040   21.5700 C   0  0  0  0  0  3  0  0  0  0  0  0
  -28.5480  -26.2980   22.5020 C   0  0  0  0  0  3  0  0  0  0  0  0
  -27.5610  -24.1330   19.9080 C   0  0  0  0  0  3  0  0  0  0  0  0
  -29.2230  -24.2880   20.3260 C   0  0  0  0  0  0  0  0  0  0  0  0
  -26.8320  -26.0030   22.1610 C   0  0  0  0  0  0  0  0  0  0  0  0
  -26.3210  -24.9610   20.8060 C   0  0  0  0  0  0  0  0  0  0  0  0
  -24.7210  -23.7440   19.5440 C   0  0  0  0  0  1  0  0  0  0  0  0
  -24.9920  -24.6450   20.6160 O   0  0  0  0  0  0  0  0  0  0  0  0
  -30.1440  -23.0660   19.9060 C   0  0  0  0  0  3  0  0  0  0  0  0
  -29.6080  -21.5740   20.2570 C   0  0  0  0  0  3  0  0  0  0  0  0
  -30.4670  -20.2350   19.9680 C   0  0  0  0  0  2  0  0  0  0  0  0
  -29.8390  -18.7800   20.3240 C   0  0  0  0  0  3  0  0  0  0  0  0
  -30.6260  -17.4180   19.9450 C   0  0  0  0  0  3  0  0  0  0  0  0
  -30.6890  -14.8310   20.1320 C   0  0  0  0  0  0  0  0  0  0  0  0
  -30.3600  -12.5600   19.1610 C   0  0  0  0  0  2  0  0  0  0  0  0
  -29.4030  -12.6380   17.9530 C   0  0  0  0  0  2  0  0  0  0  0  0
  -27.9440  -12.4830   18.4180 C   0  0  0  0  0  2  0  0  0  0  0  0
  -27.5990  -13.3830   19.6350 C   0  0  0  0  0  3  0  0  0  0  0  0
  -28.6900  -13.3360   20.7300 C   0  0  0  0  0  2  0  0  0  0  0  0
  -29.9820  -13.6470   20.0960 N   0  0  0  0  0  0  0  0  0  0  0  0
  -31.8720  -14.8450   19.7990 O   0  0  0  0  0  0  0  0  0  0  0  0
  -30.0400  -16.0430   20.2870 N   0  0  0  0  0  0  0  0  0  0  0  0
  -29.0530  -16.0010   20.5030 H   0  0  0  0  0  0  0  0  0  0  0  0
  -25.2230  -13.9570   20.4100 C   0  0  0  0  0  0  0  0  0  0  0  0
  -24.1660  -13.1800   20.7970 C   0  0  0  0  0  0  0  0  0  0  0  0
  -24.6340  -11.8320   20.7640 C   0  0  0  0  0  0  0  0  0  0  0  0
  -26.2700  -13.0850   20.1600 N   0  0  0  0  0  0  0  0  0  0  0  0
  -25.9220  -11.8010   20.4380 N   0  0  0  0  0  0  0  0  0  0  0  0
  -23.9150  -10.5670   20.9670 C   0  0  0  0  0  0  0  0  0  0  0  0
  -24.3620   -9.6010   21.8950 C   0  0  0  0  0  3  0  0  0  0  0  0
  -23.6400   -8.4030   22.0890 C   0  0  0  0  0  3  0  0  0  0  0  0
  -22.4560   -8.1620   21.3530 C   0  0  0  0  0  0  0  0  0  0  0  0
  -22.0260   -9.1180   20.4150 C   0  0  0  0  0  3  0  0  0  0  0  0
  -22.7490  -10.3070   20.2200 C   0  0  0  0  0  3  0  0  0  0  0  0
  -21.7030   -7.0170   21.4560 O   0  0  0  0  0  0  0  0  0  0  0  0
  -21.6770   -6.2720   22.6090 C   0  0  0  0  0  0  0  0  0  0  0  0
  -21.2910   -6.8290   23.8470 C   0  0  0  0  0  3  0  0  0  0  0  0
  -21.2130   -6.0110   24.9920 C   0  0  0  0  0  3  0  0  0  0  0  0
  -21.5100   -4.6390   24.8990 C   0  0  0  0  0  0  0  0  0  0  0  0
  -21.8930   -4.0820   23.6660 C   0  0  0  0  0  3  0  0  0  0  0  0
  -21.9720   -4.8970   22.5240 C   0  0  0  0  0  0  0  0  0  0  0  0
  -22.3180   -4.3490   21.3330 F   0  0  0  0  0  0  0  0  0  0  0  0
  -21.4290   -3.8530   25.9990 F   0  0  0  0  0  0  0  0  0  0  0  0
  -22.7700  -13.6540   21.0860 C   0  0  0  0  0  0  0  0  0  0  0  0
  -22.0590  -12.9590   21.9660 N   0  0  0  0  0  0  0  0  0  0  0  0
  -22.3190  -14.6740   20.5650 O   0  0  0  0  0  0  0  0  0  0  0  0
  -22.4390  -12.1360   22.4080 H   0  0  0  0  0  0  0  0  0  0  0  0
  -21.1230  -13.2560   22.2010 H   0  0  0  0  0  0  0  0  0  0  0  0
  -25.3750  -15.3290   20.2260 N   0  0  0  0  0  0  0  0  0  0  0  0
  -24.6040  -15.9790   20.3480 H   0  0  0  0  0  0  0  0  0  0  0  0
  -26.2150  -15.7780   19.8780 H   0  0  0  0  0  0  0  0  0  0  0  0
  -26.1320  -25.6350   23.3900 C   0  0  0  0  0  2  0  0  0  0  0  0
  -26.7970  -24.2520   23.4150 C   0  0  0  0  0  2  0  0  0  0  0  0
  -27.8750  -24.0990   22.2220 C   0  0  0  0  0  1  0  0  0  0  0  0
  -27.9870  -26.1580   20.3190 O   0  0  0  0  0  1  0  0  0  0  0  0
  -24.5540  -31.8890   23.1210 C   0  0  0  0  0  0  0  0  0  0  0  0
  -27.1550  -27.3370   19.9710 C   0  0  0  0  0  0  0  0  0  0  0  0
  -23.3640  -30.5260   21.4420 C   0  0  0  0  0  3  0  0  0  0  0  0
  -24.8440  -29.0510   19.9350 C   0  0  0  0  0  0  0  0  0  0  0  0
  -25.9160  -30.8260   21.3120 C   0  0  0  0  0  2  0  0  0  0  0  0
  -25.9980  -29.4740   20.6020 C   0  0  0  0  0  0  0  0  0  0  0  0
  -27.1590  -28.6260   20.6250 C   0  0  0  0  0  3  0  0  0  0  0  0
  -26.0390  -27.0930   19.1360 C   0  0  0  0  0  3  0  0  0  0  0  0
  -24.8710  -27.8690   19.1890 C   0  0  0  0  0  3  0  0  0  0  0  0
  -23.5950  -29.9090   20.0380 C   0  0  0  0  0  2  0  0  0  0  0  0
  -24.6280  -31.1000   22.0100 N   0  0  0  0  0  0  0  0  0  0  0  0
  -23.4660  -32.1630   23.6450 O   0  0  0  0  0  0  0  0  0  0  0  0
  -22.6930  -29.4910   22.3720 C   0  0  0  0  0  0  0  0  0  0  0  0
  -21.3580  -29.3510   22.2660 N   0  0  0  0  0  0  0  0  0  0  0  0
  -23.3660  -28.8220   23.1610 O   0  0  0  0  0  0  0  0  0  0  0  0
  -20.8750  -29.9390   21.6010 H   0  0  0  0  0  0  0  0  0  0  0  0
  -17.9520  -28.2690   22.8160 C   0  0  0  0  0  0  0  0  0  0  0  0
  -20.5260  -28.4070   23.0150 C   0  0  0  0  0  3  0  0  0  0  0  0
  -20.5510  -27.0050   22.3670 C   0  0  0  0  0  2  0  0  0  0  0  0
  -19.4090  -26.7850   21.3710 C   0  0  0  0  0  2  0  0  0  0  0  0
  -18.0480  -26.9590   22.0550 C   0  0  0  0  0  2  0  0  0  0  0  0
  -19.1150  -28.9600   23.2470 C   0  0  0  0  0  0  0  0  0  0  0  0
  -18.9630  -30.1980   23.9110 C   0  0  0  0  0  3  0  0  0  0  0  0
  -17.6840  -30.7330   24.1570 C   0  0  0  0  0  3  0  0  0  0  0  0
  -16.5370  -30.0320   23.7420 C   0  0  0  0  0  3  0  0  0  0  0  0
  -16.6740  -28.8050   23.0700 C   0  0  0  0  0  3  0  0  0  0  0  0
  -25.8310  -32.5070   23.7700 C   0  0  0  0  0  3  0  0  0  0  0  0
  -26.3300  -31.7090   25.0370 C   0  0  1  0  0  0  0  0  0  0  0  0
  -25.2280  -31.4650   26.0930 C   0  0  0  0  0  1  0  0  0  0  0  0
  -26.9070  -30.3320   24.6320 C   0  0  0  0  0  1  0  0  0  0  0  0
  -27.4830  -32.4850   25.7170 C   0  0  0  0  0  1  0  0  0  0  0  0
  -25.5230  -33.9010   24.1210 N   0  0  0  0  0  0  0  0  0  0  0  0
  -25.8650  -34.9660   23.3840 C   0  0  0  0  0  0  0  0  0  0  0  0
  -26.5430  -34.8760   22.3570 O   0  0  0  0  0  0  0  0  0  0  0  0
  -24.9220  -34.0470   24.9210 H   0  0  0  0  0  0  0  0  0  0  0  0
  -24.1430  -36.7750   23.0620 C   0  0  0  0  0  1  0  0  0  0  0  0
  -25.3820  -36.3490   23.8670 C   0  0  0  0  0  3  0  0  0  0  0  0
  -27.5210  -37.2050   24.7170 C   0  0  0  0  0  1  0  0  0  0  0  0
  -26.4170  -37.4010   23.7790 N   0  0  0  0  0  0  0  0  0  0  0  0
  -26.0120  -38.3160   23.9530 H   0  0  0  0  0  0  0  0  0  0  0  0
  1  2  1  0
  3  4  1  0
  3  6  2  0
  4  1  2  0
  5  2  2  0
  5 52  1  0
  6  5  1  0
  7  8  1  0
  8  6  1  0
  9 10  2  0
  9  4  1  0
 11 10  1  0
 11 12  1  0
 13 22  1  0
 13 12  2  0
 14 22  1  0
 15 20  1  0
 16 17  1  0
 16 15  1  0
 18 17  1  0
 18 27  1  0
 18 19  1  0
 20 14  1  0
 20 19  1  0
 21 14  2  0
 22 23  1  0
 24 25  2  0
 25 44  1  0
 26 25  1  0
 26 29  1  0
 27 24  1  0
 27 28  1  0
 28 26  2  0
 29 30  1  0
 30 31  2  0
 32 35  1  0
 32 31  1  0
 33 32  2  0
 34 33  1  0
 34 29  2  0
 35 36  1  0
 36 37  1  0
 37 38  2  0
 39 38  1  0
 39 43  1  0
 40 39  2  0
 41 36  2  0
 41 40  1  0
 42 41  1  0
 44 45  1  0
 45 48  1  0
 45 47  1  0
 46 44  2  0
 49 50  1  0
 49 24  1  0
 51 49  1  0
 52 53  1  0
 54 53  1  0
 56 67  2  0
 57 55  1  0
 57 62  1  0
 58 66  1  0
 58 68  1  0
 59 65  1  0
 59 61  1  0
 60 66  1  0
 61 62  2  0
 61 60  1  0
 63 64  1  0
 63 57  2  0
 64 59  2  0
 65 58  1  0
 66 56  1  0
 68 70  2  0
 69 68  1  0
 71 69  1  0
 72 81  2  0
 72 77  1  0
 73 69  1  0
 73 77  1  0
 74 73  1  0
 75 76  1  0
 75 74  1  0
 76 72  1  0
 77 78  2  0
 78 79  1  0
 80 79  2  0
 81 80  1  0
 82 56  1  0
 82 87  1  0
 82 83  1  0
 83 86  1  1
 83 84  1  0
 85 83  1  0
 87 90  1  0
 88 92  1  0
 88 87  1  0
 89 88  2  0
 92 91  1  0
 94 92  1  0
 94 95  1  0
 94 93  1  0
M  ISO  4  14 100  22 100  54 101  55 101
M  END
>  <TORSDO>  (91) 
F 25

>  <SCORE>  (91) 
-11.871

>  <name>  (91) 
90

>  <ligand_id>  (91) 
90

>  <original_smiles>  (91) 
[H]c1c([H])c([H])c2c(c1[H])C([H])([H])C([H])([H])C([H])([H])C2([H])N([H])C(=O)C1([H])N(C(=O)C([H])(N([H])C(=O)C([H])(N([H])C([H])([H])[H])C([H])([H])[H])C(C([H])([H])[H])(C([H])([H])[H])C([H])([H])[H])C([H])([H])c2c([H])c(OC([H])([H])C([H])([H])C([H])([H])c3c([H])c([H])c(C([H])([H])C([H])([H])C([H])([H])C([H])([H])C([H])([H])N([H])C(=O)N4C([H])([H])C([H])([H])C([H])([H])C([H])(n5nc(-c6c([H])c([H])c(Oc7c([H])c([H])c(F)c([H])c7F)c([H])c6[H])c(C(=O)N([H])[H])c5N([H])[H])C4([H])[H])c([H])c3OC([H])([H])[H])c([H])c([H])c2C1([H])[H]

>  <smiles>  (91) 
[H]c1c([H])c([H])c2c(c1[H])C([H])([H])C([H])([H])C([H])([H])C2([H])N([H])C(=O)C1([H])N(C(=O)C([H])(N([H])C(=O)C([H])(N([H])C([H])([H])[H])C([H])([H])[H])C(C([H])([H])[H])(C([H])([H])[H])C([H])([H])[H])C([H])([H])c2c([H])c(OC([H])([H])C([H])([H])C([H])([H])c3c([H])c([H])c(C([H])([H])C([H])([H])C([H])([H])C([H])([H])C([H])([H])N([H])C(=O)N4C([H])([H])C([H])([H])C([H])([H])C([H])(n5nc(-c6c([H])c([H])c(Oc7c([H])c([H])c(F)c([H])c7F)c([H])c6[H])c(C(=O)N([H])[H])c5N([H])[H])C4([H])[H])c([H])c3OC([H])([H])[H])c([H])c([H])c2C1([H])[H]

$$$$
91:0:0
     RDKit          3D

 91 98  0  0  1  0  0  0  0  0999 V2000
  -28.8030  -23.7410   20.4950 C   0  0  0  0  0  3  0  0  0  0  0  0
  -29.0690  -22.5360   19.8680 C   0  0  0  0  0  0  0  0  0  0  0  0
  -27.9220  -24.9470   19.9760 C   0  0  0  0  0  2  0  0  0  0  0  0
  -28.2250  -26.3730   20.2920 O   0  0  0  0  0  0  0  0  0  0  0  0
  -24.6070  -31.8850   23.2390 C   0  0  0  0  0  0  0  0  0  0  0  0
  -27.1540  -27.2870   20.1820 C   0  0  0  0  0  0  0  0  0  0  0  0
  -23.3880  -30.4950   21.6100 C   0  0  0  0  0  3  0  0  0  0  0  0
  -24.8220  -28.9580   20.1460 C   0  0  0  0  0  0  0  0  0  0  0  0
  -25.9300  -30.7880   21.4160 C   0  0  0  0  0  2  0  0  0  0  0  0
  -25.9950  -29.4140   20.7620 C   0  0  0  0  0  0  0  0  0  0  0  0
  -27.1620  -28.5920   20.7780 C   0  0  0  0  0  3  0  0  0  0  0  0
  -25.9670  -26.9120   19.5030 C   0  0  0  0  0  3  0  0  0  0  0  0
  -24.8180  -27.7170   19.4970 C   0  0  0  0  0  3  0  0  0  0  0  0
  -23.5890  -29.8400   20.2200 C   0  0  0  0  0  2  0  0  0  0  0  0
  -24.6620  -31.0720   22.1440 N   0  0  0  0  0  0  0  0  0  0  0  0
  -23.5280  -32.1640   23.7790 O   0  0  0  0  0  0  0  0  0  0  0  0
  -22.7340  -29.4690   22.5670 C   0  0  0  0  0  0  0  0  0  0  0  0
  -21.4080  -29.2820   22.4410 N   0  0  0  0  0  0  0  0  0  0  0  0
  -23.4150  -28.8460   23.3860 O   0  0  0  0  0  0  0  0  0  0  0  0
  -20.9200  -29.8300   21.7470 H   0  0  0  0  0  0  0  0  0  0  0  0
  -18.0390  -28.0670   22.9470 C   0  0  0  0  0  0  0  0  0  0  0  0
  -20.5950  -28.3470   23.2200 C   0  0  0  0  0  3  0  0  0  0  0  0
  -20.7110  -26.9160   22.6520 C   0  0  0  0  0  2  0  0  0  0  0  0
  -19.6110  -26.5760   21.6420 C   0  0  0  0  0  2  0  0  0  0  0  0
  -18.2270  -26.7140   22.2820 C   0  0  0  0  0  2  0  0  0  0  0  0
  -19.1510  -28.8390   23.3740 C   0  0  0  0  0  0  0  0  0  0  0  0
  -18.9220  -30.1030   23.9610 C   0  0  0  0  0  3  0  0  0  0  0  0
  -17.6140  -30.5940   24.1240 C   0  0  0  0  0  3  0  0  0  0  0  0
  -16.5160  -29.8200   23.7110 C   0  0  0  0  0  3  0  0  0  0  0  0
  -16.7290  -28.5570   23.1300 C   0  0  0  0  0  3  0  0  0  0  0  0
  -25.8930  -32.5150   23.8510 C   0  0  0  0  0  3  0  0  0  0  0  0
  -26.4170  -31.7450   25.1240 C   0  0  1  0  0  0  0  0  0  0  0  0
  -25.3310  -31.5090   26.2000 C   0  0  0  0  0  1  0  0  0  0  0  0
  -26.9930  -30.3650   24.7310 C   0  0  0  0  0  1  0  0  0  0  0  0
  -27.5740  -32.5410   25.7720 C   0  0  0  0  0  1  0  0  0  0  0  0
  -25.5850  -33.9130   24.1820 N   0  0  0  0  0  0  0  0  0  0  0  0
  -25.9100  -34.9640   23.4190 C   0  0  0  0  0  0  0  0  0  0  0  0
  -26.5680  -34.8600   22.3820 O   0  0  0  0  0  0  0  0  0  0  0  0
  -25.0040  -34.0740   24.9910 H   0  0  0  0  0  0  0  0  0  0  0  0
  -24.1760  -36.7560   23.0860 C   0  0  0  0  0  1  0  0  0  0  0  0
  -25.4290  -36.3550   23.8820 C   0  0  0  0  0  3  0  0  0  0  0  0
  -27.5760  -37.2370   24.6810 C   0  0  0  0  0  1  0  0  0  0  0  0
  -26.4590  -37.4080   23.7550 N   0  0  0  0  0  0  0  0  0  0  0  0
  -26.0590  -38.3310   23.9070 H   0  0  0  0  0  0  0  0  0  0  0  0
  -30.0060  -21.3960   20.4810 C   0  0  0  0  0  2  0  0  0  0  0  0
  -29.5490  -19.8740   20.7710 C   0  0  0  0  0  2  0  0  0  0  0  0
  -29.9460  -18.4490   20.1040 C   0  0  0  0  0  2  0  0  0  0  0  0
  -30.3660  -17.2240   21.0400 C   0  0  0  0  0  2  0  0  0  0  0  0
  -30.6620  -14.7040   20.4070 C   0  0  0  0  0  0  0  0  0  0  0  0
  -30.4000  -12.4560   19.3620 C   0  0  0  0  0  2  0  0  0  0  0  0
  -29.4490  -12.5060   18.1490 C   0  0  0  0  0  2  0  0  0  0  0  0
  -27.9830  -12.3690   18.5870 C   0  0  0  0  0  2  0  0  0  0  0  0
  -27.6200  -13.2870   19.7780 C   0  0  0  0  0  3  0  0  0  0  0  0
  -28.6790  -13.2040   20.8990 C   0  0  0  0  0  2  0  0  0  0  0  0
  -29.9860  -13.5190   20.2990 N   0  0  0  0  0  0  0  0  0  0  0  0
  -31.8610  -14.7840   20.1210 O   0  0  0  0  0  0  0  0  0  0  0  0
  -29.9270  -15.8340   20.6520 N   0  0  0  0  0  0  0  0  0  0  0  0
  -28.9310  -15.6790   20.7000 H   0  0  0  0  0  0  0  0  0  0  0  0
  -25.2170  -13.8970   20.4630 C   0  0  0  0  0  0  0  0  0  0  0  0
  -24.1420  -13.1240   20.8280 C   0  0  0  0  0  0  0  0  0  0  0  0
  -24.6110  -11.7710   20.8310 C   0  0  0  0  0  0  0  0  0  0  0  0
  -26.2670  -13.0140   20.2660 N   0  0  0  0  0  0  0  0  0  0  0  0
  -25.9060  -11.7330   20.5490 N   0  0  0  0  0  0  0  0  0  0  0  0
  -23.8850  -10.5090   21.0170 C   0  0  0  0  0  0  0  0  0  0  0  0
  -24.3110   -9.5430   21.9560 C   0  0  0  0  0  3  0  0  0  0  0  0
  -23.5770   -8.3510   22.1360 C   0  0  0  0  0  3  0  0  0  0  0  0
  -22.4110   -8.1110   21.3720 C   0  0  0  0  0  0  0  0  0  0  0  0
  -22.0080   -9.0640   20.4160 C   0  0  0  0  0  3  0  0  0  0  0  0
  -22.7460  -10.2460   20.2350 C   0  0  0  0  0  3  0  0  0  0  0  0
  -21.6490   -6.9700   21.4630 O   0  0  0  0  0  0  0  0  0  0  0  0
  -21.5900   -6.2270   22.6170 C   0  0  0  0  0  0  0  0  0  0  0  0
  -21.1610   -6.7870   23.8400 C   0  0  0  0  0  3  0  0  0  0  0  0
  -21.0510   -5.9740   24.9880 C   0  0  0  0  0  3  0  0  0  0  0  0
  -21.3660   -4.6040   24.9100 C   0  0  0  0  0  0  0  0  0  0  0  0
  -21.7880   -4.0430   23.6930 C   0  0  0  0  0  3  0  0  0  0  0  0
  -21.8980   -4.8540   22.5470 C   0  0  0  0  0  0  0  0  0  0  0  0
  -22.2830   -4.3030   21.3710 F   0  0  0  0  0  0  0  0  0  0  0  0
  -21.2500   -3.8230   26.0090 F   0  0  0  0  0  0  0  0  0  0  0  0
  -22.7410  -13.5970   21.0670 C   0  0  0  0  0  0  0  0  0  0  0  0
  -22.0050  -12.9070   21.9320 N   0  0  0  0  0  0  0  0  0  0  0  0
  -22.3040  -14.6130   20.5280 O   0  0  0  0  0  0  0  0  0  0  0  0
  -22.3730  -12.0800   22.3820 H   0  0  0  0  0  0  0  0  0  0  0  0
  -21.0660  -13.2060   22.1600 H   0  0  0  0  0  0  0  0  0  0  0  0
  -25.3910  -15.2640   20.2580 N   0  0  0  0  0  0  0  0  0  0  0  0
  -24.6380  -15.9450   20.3300 H   0  0  0  0  0  0  0  0  0  0  0  0
  -26.2490  -15.6640   19.8950 H   0  0  0  0  0  0  0  0  0  0  0  0
  -28.5730  -22.2660   18.4270 C   0  0  0  0  0  2  0  0  0  0  0  0
  -27.5920  -21.1630   18.3000 N   0  0  0  0  0  4  0  0  0  0  0  0
  -26.7010  -21.4120   18.6960 H   0  0  0  0  0  0  0  0  0  0  0  0
  -27.9240  -20.3360   18.7620 H   0  0  0  0  0  0  0  0  0  0  0  0
  -27.4550  -20.9460   17.3210 H   0  0  0  0  0  0  0  0  0  0  0  0
  2 45  1  0
  2  1  2  0
  3  4  1  0
  3  1  1  0
  5 16  2  0
  6  4  1  0
  6 11  1  0
  7 15  1  0
  7 17  1  0
  8 14  1  0
  8 10  1  0
  9 15  1  0
 10 11  2  0
 10  9  1  0
 12  6  2  0
 13 12  1  0
 13  8  2  0
 14  7  1  0
 15  5  1  0
 17 19  2  0
 18 17  1  0
 20 18  1  0
 21 30  2  0
 21 26  1  0
 22 18  1  0
 22 26  1  0
 23 22  1  0
 24 25  1  0
 24 23  1  0
 25 21  1  0
 26 27  2  0
 27 28  1  0
 29 28  2  0
 30 29  1  0
 31  5  1  0
 31 36  1  0
 31 32  1  0
 32 35  1  1
 32 33  1  0
 34 32  1  0
 36 39  1  0
 37 41  1  0
 37 36  1  0
 38 37  2  0
 41 40  1  0
 43 41  1  0
 43 44  1  0
 43 42  1  0
 45 46  1  0
 47 46  1  0
 47 48  1  0
 49 57  1  0
 50 55  1  0
 51 52  1  0
 51 50  1  0
 53 52  1  0
 53 62  1  0
 53 54  1  0
 55 49  1  0
 55 54  1  0
 56 49  2  0
 57 58  1  0
 57 48  1  0
 59 60  2  0
 60 61  1  0
 60 79  1  0
 61 64  1  0
 62 59  1  0
 62 63  1  0
 63 61  2  0
 64 65  1  0
 65 66  2  0
 67 70  1  0
 67 66  1  0
 68 67  2  0
 69 68  1  0
 69 64  2  0
 70 71  1  0
 71 72  1  0
 72 73  2  0
 74 73  1  0
 74 78  1  0
 75 74  2  0
 76 71  2  0
 76 75  1  0
 77 76  1  0
 79 80  1  0
 80 83  1  0
 80 82  1  0
 81 79  2  0
 84 85  1  0
 84 59  1  0
 86 84  1  0
 87  2  1  0
 88 87  1  0
 88 89  1  0
 88 90  1  0
 91 88  1  0
M  ISO  4   3 101   4 101  49 100  57 100
M  END
>  <TORSDO>  (92) 
F 23

>  <SCORE>  (92) 
-12.785

>  <name>  (92) 
91

>  <ligand_id>  (92) 
91

>  <original_smiles>  (92) 
[H]C(=C(C([H])([H])C([H])([H])C([H])([H])C([H])([H])N([H])C(=O)N1C([H])([H])C([H])([H])C([H])([H])C([H])(n2nc(-c3c([H])c([H])c(Oc4c([H])c([H])c(F)c([H])c4F)c([H])c3[H])c(C(=O)N([H])[H])c2N([H])[H])C1([H])[H])C([H])([H])[N+]([H])([H])[H])C([H])([H])Oc1c([H])c([H])c2c(c1[H])C([H])([H])N(C(=O)C([H])(N([H])C(=O)C([H])(N([H])C([H])([H])[H])C([H])([H])[H])C(C([H])([H])[H])(C([H])([H])[H])C([H])([H])[H])C([H])(C(=O)N([H])C1([H])c3c([H])c([H])c([H])c([H])c3C([H])([H])C([H])([H])C1([H])[H])C2([H])[H]

>  <smiles>  (92) 
[H]C(=C(C([H])([H])C([H])([H])C([H])([H])C([H])([H])N([H])C(=O)N1C([H])([H])C([H])([H])C([H])([H])C([H])(n2nc(-c3c([H])c([H])c(Oc4c([H])c([H])c(F)c([H])c4F)c([H])c3[H])c(C(=O)N([H])[H])c2N([H])[H])C1([H])[H])C([H])([H])[N+]([H])([H])[H])C([H])([H])Oc1c([H])c([H])c2c(c1[H])C([H])([H])N(C(=O)C([H])(N([H])C(=O)C([H])(N([H])C([H])([H])[H])C([H])([H])[H])C(C([H])([H])[H])(C([H])([H])[H])C([H])([H])[H])C([H])(C(=O)N([H])C1([H])c3c([H])c([H])c([H])c([H])c3C([H])([H])C([H])([H])C1([H])[H])C2([H])[H]

$$$$
92:0:0
     RDKit          3D

 94101  0  0  1  0  0  0  0  0999 V2000
  -31.3260  -23.0790   18.9410 C   0  0  0  0  0  3  0  0  0  0  0  0
  -30.1220  -23.8400   19.3740 N   0  0  0  0  0  4  0  0  0  0  0  0
  -29.3230  -23.3510   19.0060 H   0  0  0  0  0  0  0  0  0  0  0  0
  -30.0800  -23.8090   20.3830 H   0  0  0  0  0  0  0  0  0  0  0  0
  -30.0390  -25.2500   18.8970 C   0  0  0  0  0  2  0  0  0  0  0  0
  -28.6020  -25.8220   18.9490 C   0  0  0  0  0  2  0  0  0  0  0  0
  -28.4190  -26.7580   20.0190 O   0  0  0  0  0  0  0  0  0  0  0  0
  -24.6010  -31.8750   23.2160 C   0  0  0  0  0  0  0  0  0  0  0  0
  -27.2200  -27.4500   20.0600 C   0  0  0  0  0  0  0  0  0  0  0  0
  -23.3770  -30.4820   21.5800 C   0  0  0  0  0  3  0  0  0  0  0  0
  -24.8140  -28.9470   20.1390 C   0  0  0  0  0  0  0  0  0  0  0  0
  -25.9030  -30.8290   21.3680 C   0  0  0  0  0  2  0  0  0  0  0  0
  -25.9760  -29.4630   20.7190 C   0  0  0  0  0  0  0  0  0  0  0  0
  -27.1780  -28.7160   20.6900 C   0  0  0  0  0  3  0  0  0  0  0  0
  -26.0250  -26.9410   19.4950 C   0  0  0  0  0  3  0  0  0  0  0  0
  -24.8300  -27.6800   19.5330 C   0  0  0  0  0  3  0  0  0  0  0  0
  -23.5710  -29.8030   20.1990 C   0  0  0  0  0  2  0  0  0  0  0  0
  -24.6450  -31.0780   22.1120 N   0  0  0  0  0  0  0  0  0  0  0  0
  -23.5270  -32.1510   23.7660 O   0  0  0  0  0  0  0  0  0  0  0  0
  -22.7310  -29.4630   22.5450 C   0  0  0  0  0  0  0  0  0  0  0  0
  -21.4050  -29.2810   22.4220 N   0  0  0  0  0  0  0  0  0  0  0  0
  -23.4170  -28.8350   23.3560 O   0  0  0  0  0  0  0  0  0  0  0  0
  -20.9160  -29.8450   21.7420 H   0  0  0  0  0  0  0  0  0  0  0  0
  -18.0330  -28.0720   22.9080 C   0  0  0  0  0  0  0  0  0  0  0  0
  -20.5880  -28.3420   23.1910 C   0  0  0  0  0  3  0  0  0  0  0  0
  -20.7000  -26.9100   22.6200 C   0  0  0  0  0  2  0  0  0  0  0  0
  -19.6050  -26.5760   21.6020 C   0  0  0  0  0  2  0  0  0  0  0  0
  -18.2190  -26.7200   22.2380 C   0  0  0  0  0  2  0  0  0  0  0  0
  -19.1460  -28.8400   23.3390 C   0  0  0  0  0  0  0  0  0  0  0  0
  -18.9190  -30.1060   23.9210 C   0  0  0  0  0  3  0  0  0  0  0  0
  -17.6110  -30.6040   24.0780 C   0  0  0  0  0  3  0  0  0  0  0  0
  -16.5120  -29.8300   23.6670 C   0  0  0  0  0  3  0  0  0  0  0  0
  -16.7230  -28.5680   23.0860 C   0  0  0  0  0  3  0  0  0  0  0  0
  -25.8970  -32.4960   23.8260 C   0  0  0  0  0  3  0  0  0  0  0  0
  -26.4270  -31.7130   25.0900 C   0  0  1  0  0  0  0  0  0  0  0  0
  -25.3470  -31.4660   26.1700 C   0  0  0  0  0  1  0  0  0  0  0  0
  -26.9980  -30.3360   24.6780 C   0  0  0  0  0  1  0  0  0  0  0  0
  -27.5920  -32.4960   25.7410 C   0  0  0  0  0  1  0  0  0  0  0  0
  -25.5980  -33.8930   24.1700 N   0  0  0  0  0  0  0  0  0  0  0  0
  -25.9310  -34.9500   23.4160 C   0  0  0  0  0  0  0  0  0  0  0  0
  -26.5950  -34.8490   22.3800 O   0  0  0  0  0  0  0  0  0  0  0  0
  -25.0020  -34.0430   24.9700 H   0  0  0  0  0  0  0  0  0  0  0  0
  -24.2100  -36.7540   23.0810 C   0  0  0  0  0  1  0  0  0  0  0  0
  -25.4520  -36.3360   23.8850 C   0  0  0  0  0  3  0  0  0  0  0  0
  -27.5950  -37.2030   24.7170 C   0  0  0  0  0  1  0  0  0  0  0  0
  -26.4910  -37.3850   23.7770 N   0  0  0  0  0  0  0  0  0  0  0  0
  -26.0910  -38.3080   23.9340 H   0  0  0  0  0  0  0  0  0  0  0  0
  -32.4520  -23.2920   19.9810 C   0  0  0  0  0  0  0  0  0  0  0  0
  -32.3140  -23.9900   20.9910 O   0  0  0  0  0  0  0  0  0  0  0  0
  -34.9950  -23.5690   19.7720 C   0  0  0  0  0  1  0  0  0  0  0  0
  -33.7970  -22.6050   19.7220 C   0  0  0  0  0  2  0  0  0  0  0  0
  -30.9970  -21.5820   18.6570 C   0  0  0  0  0  2  0  0  0  0  0  0
  -30.8030  -20.6020   19.8490 C   0  0  0  0  0  2  0  0  0  0  0  0
  -30.1480  -19.2720   19.3990 C   0  0  0  0  0  2  0  0  0  0  0  0
  -30.3010  -18.0750   20.3740 C   0  0  0  0  0  2  0  0  0  0  0  0
  -29.7780  -16.7640   19.7390 C   0  0  0  0  0  2  0  0  0  0  0  0
  -30.6040  -14.5180   20.4120 C   0  0  0  0  0  0  0  0  0  0  0  0
  -30.3560  -12.3180   19.3590 C   0  0  0  0  0  2  0  0  0  0  0  0
  -29.4280  -12.5140   18.1390 C   0  0  0  0  0  2  0  0  0  0  0  0
  -27.9500  -12.3590   18.5510 C   0  0  0  0  0  2  0  0  0  0  0  0
  -27.5880  -13.2150   19.7940 C   0  0  0  0  0  3  0  0  0  0  0  0
  -28.6340  -13.0320   20.9230 C   0  0  0  0  0  2  0  0  0  0  0  0
  -29.9690  -13.3160   20.3690 N   0  0  0  0  0  0  0  0  0  0  0  0
  -31.7590  -14.6860   20.0170 O   0  0  0  0  0  0  0  0  0  0  0  0
  -29.7860  -15.5690   20.6070 N   0  0  0  0  0  0  0  0  0  0  0  0
  -28.9020  -15.3430   21.0350 H   0  0  0  0  0  0  0  0  0  0  0  0
  -25.1800  -13.8190   20.4590 C   0  0  0  0  0  0  0  0  0  0  0  0
  -24.1120  -13.0440   20.8260 C   0  0  0  0  0  0  0  0  0  0  0  0
  -24.5810  -11.6950   20.8200 C   0  0  0  0  0  0  0  0  0  0  0  0
  -26.2320  -12.9390   20.2590 N   0  0  0  0  0  0  0  0  0  0  0  0
  -25.8770  -11.6600   20.5350 N   0  0  0  0  0  0  0  0  0  0  0  0
  -23.8650  -10.4280   21.0140 C   0  0  0  0  0  0  0  0  0  0  0  0
  -24.3010   -9.4730   21.9570 C   0  0  0  0  0  3  0  0  0  0  0  0
  -23.5850   -8.2700   22.1400 C   0  0  0  0  0  3  0  0  0  0  0  0
  -22.4220   -8.0130   21.3790 C   0  0  0  0  0  0  0  0  0  0  0  0
  -22.0070   -8.9560   20.4220 C   0  0  0  0  0  3  0  0  0  0  0  0
  -22.7210  -10.1520   20.2370 C   0  0  0  0  0  3  0  0  0  0  0  0
  -21.6750   -6.8620   21.4730 O   0  0  0  0  0  0  0  0  0  0  0  0
  -21.6290   -6.1250   22.6290 C   0  0  0  0  0  0  0  0  0  0  0  0
  -21.2010   -6.6810   23.8540 C   0  0  0  0  0  3  0  0  0  0  0  0
  -21.1080   -5.8670   25.0010 C   0  0  0  0  0  3  0  0  0  0  0  0
  -21.4310   -4.5010   24.9230 C   0  0  0  0  0  0  0  0  0  0  0  0
  -21.8510   -3.9440   23.7030 C   0  0  0  0  0  3  0  0  0  0  0  0
  -21.9500   -4.7540   22.5590 C   0  0  0  0  0  0  0  0  0  0  0  0
  -22.3340   -4.2070   21.3810 F   0  0  0  0  0  0  0  0  0  0  0  0
  -21.3330   -3.7170   26.0230 F   0  0  0  0  0  0  0  0  0  0  0  0
  -22.7050  -13.5110   21.0700 C   0  0  0  0  0  0  0  0  0  0  0  0
  -21.9670  -12.8180   21.9290 N   0  0  0  0  0  0  0  0  0  0  0  0
  -22.2670  -14.5240   20.5250 O   0  0  0  0  0  0  0  0  0  0  0  0
  -22.3330  -12.0000   22.3950 H   0  0  0  0  0  0  0  0  0  0  0  0
  -21.0190  -13.1080   22.1220 H   0  0  0  0  0  0  0  0  0  0  0  0
  -25.3450  -15.1850   20.2560 N   0  0  0  0  0  0  0  0  0  0  0  0
  -24.5780  -15.8450   20.3050 H   0  0  0  0  0  0  0  0  0  0  0  0
  -26.2020  -15.6020   19.9140 H   0  0  0  0  0  0  0  0  0  0  0  0
  1 52  1  0
  1  2  1  0
  1 48  1  0
  2  4  1  0
  3  2  1  0
  5  6  1  0
  5  2  1  0
  6  7  1  0
  7  9  1  0
  8 19  2  0
  9 14  1  0
 10 18  1  0
 10 20  1  0
 11 17  1  0
 11 13  1  0
 12 18  1  0
 13 12  1  0
 14 13  2  0
 15 16  1  0
 15  9  2  0
 16 11  2  0
 17 10  1  0
 18  8  1  0
 20 22  2  0
 21 20  1  0
 23 21  1  0
 24 33  2  0
 24 29  1  0
 25 21  1  0
 25 29  1  0
 26 25  1  0
 27 28  1  0
 27 26  1  0
 28 24  1  0
 29 30  2  0
 30 31  1  0
 32 31  2  0
 33 32  1  0
 34  8  1  0
 34 39  1  0
 34 35  1  0
 35 38  1  1
 35 36  1  0
 37 35  1  0
 39 42  1  0
 40 44  1  0
 40 39  1  0
 41 40  2  0
 44 43  1  0
 46 44  1  0
 46 47  1  0
 46 45  1  0
 48 49  2  0
 51 50  1  0
 51 48  1  0
 52 53  1  0
 54 53  1  0
 54 55  1  0
 56 55  1  0
 56 65  1  0
 57 65  1  0
 58 63  1  0
 59 60  1  0
 59 58  1  0
 61 60  1  0
 61 70  1  0
 61 62  1  0
 63 57  1  0
 63 62  1  0
 64 57  2  0
 65 66  1  0
 67 68  2  0
 68 87  1  0
 69 68  1  0
 69 72  1  0
 70 67  1  0
 70 71  1  0
 71 69  2  0
 72 73  1  0
 73 74  2  0
 75 78  1  0
 75 74  1  0
 76 75  2  0
 77 76  1  0
 77 72  2  0
 78 79  1  0
 79 80  1  0
 80 81  2  0
 82 81  1  0
 82 86  1  0
 83 82  2  0
 84 79  2  0
 84 83  1  0
 85 84  1  0
 87 88  1  0
 88 91  1  0
 88 90  1  0
 89 87  2  0
 92 93  1  0
 92 67  1  0
 94 92  1  0
M  ISO  4   6 101   7 101  57 100  65 100
M  END
>  <TORSDO>  (93) 
F 26

>  <SCORE>  (93) 
-11.284

>  <name>  (93) 
92

>  <ligand_id>  (93) 
92

>  <original_smiles>  (93) 
[H]c1c([H])c([H])c2c(c1[H])C([H])([H])C([H])([H])C([H])([H])C2([H])N([H])C(=O)C1([H])N(C(=O)C([H])(N([H])C(=O)C([H])(N([H])C([H])([H])[H])C([H])([H])[H])C(C([H])([H])[H])(C([H])([H])[H])C([H])([H])[H])C([H])([H])c2c([H])c(OC([H])([H])C([H])([H])[N+]([H])([H])C([H])(C(=O)C([H])([H])C([H])([H])[H])C([H])([H])C([H])([H])C([H])([H])C([H])([H])C([H])([H])N([H])C(=O)N3C([H])([H])C([H])([H])C([H])([H])C([H])(n4nc(-c5c([H])c([H])c(Oc6c([H])c([H])c(F)c([H])c6F)c([H])c5[H])c(C(=O)N([H])[H])c4N([H])[H])C3([H])[H])c([H])c([H])c2C1([H])[H]

>  <smiles>  (93) 
[H]c1c([H])c([H])c2c(c1[H])C([H])([H])C([H])([H])C([H])([H])C2([H])N([H])C(=O)C1([H])N(C(=O)C([H])(N([H])C(=O)C([H])(N([H])C([H])([H])[H])C([H])([H])[H])C(C([H])([H])[H])(C([H])([H])[H])C([H])([H])[H])C([H])([H])c2c([H])c(OC([H])([H])C([H])([H])[N+]([H])([H])C([H])(C(=O)C([H])([H])C([H])([H])[H])C([H])([H])C([H])([H])C([H])([H])C([H])([H])C([H])([H])N([H])C(=O)N3C([H])([H])C([H])([H])C([H])([H])C([H])(n4nc(-c5c([H])c([H])c(Oc6c([H])c([H])c(F)c([H])c6F)c([H])c5[H])c(C(=O)N([H])[H])c4N([H])[H])C3([H])[H])c([H])c([H])c2C1([H])[H]

$$$$
93:0:0
     RDKit          3D

 91 98  0  0  1  0  0  0  0  0999 V2000
  -29.2560  -24.5330   20.3630 C   0  0  0  0  0  3  0  0  0  0  0  0
  -28.5780  -23.6100   21.0780 C   0  0  0  0  0  0  0  0  0  0  0  0
  -27.0960  -23.6270   21.1320 C   0  0  0  0  0  3  0  0  0  0  0  0
  -26.4160  -22.8180   21.7690 O   0  0  0  0  0  0  0  0  0  0  0  0
  -29.2920  -22.5140   21.8670 C   0  0  0  0  0  2  0  0  0  0  0  0
  -29.4690  -21.2290   21.0290 C   0  0  0  0  0  2  0  0  0  0  0  0
  -30.1230  -20.0470   21.7700 C   0  0  0  0  0  2  0  0  0  0  0  0
  -29.9040  -18.7170   21.0160 C   0  0  0  0  0  2  0  0  0  0  0  0
  -30.1920  -17.4390   21.8320 C   0  0  0  0  0  2  0  0  0  0  0  0
  -31.6310  -16.8980   21.7470 C   0  0  0  0  0  2  0  0  0  0  0  0
  -31.9210  -16.0080   20.5230 C   0  0  0  0  0  2  0  0  0  0  0  0
  -31.4100  -13.7470   19.6930 C   0  0  0  0  0  0  0  0  0  0  0  0
  -30.8590  -11.4640   18.9500 C   0  0  0  0  0  2  0  0  0  0  0  0
  -29.8640  -11.4740   17.7760 C   0  0  0  0  0  2  0  0  0  0  0  0
  -28.4170  -11.5030   18.2960 C   0  0  0  0  0  2  0  0  0  0  0  0
  -28.1910  -12.6040   19.3640 C   0  0  0  0  0  3  0  0  0  0  0  0
  -29.2950  -12.5780   20.4470 C   0  0  0  0  0  2  0  0  0  0  0  0
  -30.6090  -12.6510   19.7810 N   0  0  0  0  0  0  0  0  0  0  0  0
  -32.3990  -13.7950   18.9560 O   0  0  0  0  0  0  0  0  0  0  0  0
  -31.1030  -14.7900   20.4760 N   0  0  0  0  0  0  0  0  0  0  0  0
  -30.2850  -14.7300   21.0640 H   0  0  0  0  0  0  0  0  0  0  0  0
  -25.9620  -13.5170   20.2790 C   0  0  0  0  0  0  0  0  0  0  0  0
  -24.8310  -12.8900   20.7240 C   0  0  0  0  0  0  0  0  0  0  0  0
  -25.0950  -11.4870   20.6350 C   0  0  0  0  0  0  0  0  0  0  0  0
  -26.8560  -12.5070   19.9500 N   0  0  0  0  0  0  0  0  0  0  0  0
  -26.3380  -11.2790   20.2190 N   0  0  0  0  0  0  0  0  0  0  0  0
  -24.2170  -10.3330   20.8690 C   0  0  0  0  0  0  0  0  0  0  0  0
  -24.5650   -9.3130   21.7820 C   0  0  0  0  0  3  0  0  0  0  0  0
  -23.6970   -8.2220   22.0020 C   0  0  0  0  0  3  0  0  0  0  0  0
  -22.4640   -8.1450   21.3110 C   0  0  0  0  0  0  0  0  0  0  0  0
  -22.1330   -9.1500   20.3850 C   0  0  0  0  0  3  0  0  0  0  0  0
  -23.0010  -10.2320   20.1630 C   0  0  0  0  0  3  0  0  0  0  0  0
  -21.5700   -7.1100   21.4420 O   0  0  0  0  0  0  0  0  0  0  0  0
  -21.4580   -6.3990   22.6090 C   0  0  0  0  0  0  0  0  0  0  0  0
  -21.1490   -7.0270   23.8360 C   0  0  0  0  0  3  0  0  0  0  0  0
  -20.9740   -6.2500   24.9990 C   0  0  0  0  0  3  0  0  0  0  0  0
  -21.0990   -4.8490   24.9370 C   0  0  0  0  0  0  0  0  0  0  0  0
  -21.4000   -4.2230   23.7150 C   0  0  0  0  0  3  0  0  0  0  0  0
  -21.5770   -4.9960   22.5550 C   0  0  0  0  0  0  0  0  0  0  0  0
  -21.8460   -4.3860   21.3760 F   0  0  0  0  0  0  0  0  0  0  0  0
  -20.9220   -4.1020   26.0520 F   0  0  0  0  0  0  0  0  0  0  0  0
  -23.5410  -13.5450   21.1240 C   0  0  0  0  0  0  0  0  0  0  0  0
  -22.8110  -12.9440   22.0560 N   0  0  0  0  0  0  0  0  0  0  0  0
  -23.1960  -14.6240   20.6420 O   0  0  0  0  0  0  0  0  0  0  0  0
  -23.1060  -12.0680   22.4640 H   0  0  0  0  0  0  0  0  0  0  0  0
  -21.9460  -13.3620   22.3650 H   0  0  0  0  0  0  0  0  0  0  0  0
  -26.3060  -14.8550   20.1080 N   0  0  0  0  0  0  0  0  0  0  0  0
  -25.6590  -15.6130   20.2920 H   0  0  0  0  0  0  0  0  0  0  0  0
  -27.1940  -15.1720   19.7380 H   0  0  0  0  0  0  0  0  0  0  0  0
  -28.6950  -25.6150   19.4590 C   0  0  0  0  0  2  0  0  0  0  0  0
  -28.4790  -26.8270   20.1760 O   0  0  0  0  0  0  0  0  0  0  0  0
  -24.6650  -31.8940   23.3040 C   0  0  0  0  0  0  0  0  0  0  0  0
  -27.2620  -27.4770   20.1590 C   0  0  0  0  0  0  0  0  0  0  0  0
  -23.4350  -30.5100   21.6630 C   0  0  0  0  0  3  0  0  0  0  0  0
  -24.8630  -28.9770   20.2130 C   0  0  0  0  0  0  0  0  0  0  0  0
  -25.9550  -30.8620   21.4380 C   0  0  0  0  0  2  0  0  0  0  0  0
  -26.0220  -29.4900   20.8030 C   0  0  0  0  0  0  0  0  0  0  0  0
  -27.2170  -28.7410   20.7830 C   0  0  0  0  0  3  0  0  0  0  0  0
  -26.0810  -26.9790   19.5540 C   0  0  0  0  0  3  0  0  0  0  0  0
  -24.8860  -27.7210   19.5860 C   0  0  0  0  0  3  0  0  0  0  0  0
  -23.6260  -29.8420   20.2740 C   0  0  0  0  0  2  0  0  0  0  0  0
  -24.7040  -31.1040   22.1940 N   0  0  0  0  0  0  0  0  0  0  0  0
  -23.5890  -32.1660   23.8530 O   0  0  0  0  0  0  0  0  0  0  0  0
  -22.7910  -29.4830   22.6200 C   0  0  0  0  0  0  0  0  0  0  0  0
  -21.4690  -29.2930   22.4870 N   0  0  0  0  0  0  0  0  0  0  0  0
  -23.4760  -28.8620   23.4380 O   0  0  0  0  0  0  0  0  0  0  0  0
  -20.9780  -29.8520   21.8020 H   0  0  0  0  0  0  0  0  0  0  0  0
  -18.1050  -28.0540   22.9320 C   0  0  0  0  0  0  0  0  0  0  0  0
  -20.6520  -28.3510   23.2510 C   0  0  0  0  0  3  0  0  0  0  0  0
  -20.7880  -26.9170   22.6880 C   0  0  0  0  0  2  0  0  0  0  0  0
  -19.7100  -26.5670   21.6590 C   0  0  0  0  0  2  0  0  0  0  0  0
  -18.3140  -26.6990   22.2750 C   0  0  0  0  0  2  0  0  0  0  0  0
  -19.2030  -28.8360   23.3760 C   0  0  0  0  0  0  0  0  0  0  0  0
  -18.9580  -30.1030   23.9470 C   0  0  0  0  0  3  0  0  0  0  0  0
  -17.6430  -30.5880   24.0830 C   0  0  0  0  0  3  0  0  0  0  0  0
  -16.5570  -29.8030   23.6570 C   0  0  0  0  0  3  0  0  0  0  0  0
  -16.7880  -28.5370   23.0890 C   0  0  0  0  0  3  0  0  0  0  0  0
  -25.9600  -32.5130   23.9170 C   0  0  0  0  0  3  0  0  0  0  0  0
  -26.4740  -31.7410   25.1930 C   0  0  1  0  0  0  0  0  0  0  0  0
  -25.3820  -31.5180   26.2660 C   0  0  0  0  0  1  0  0  0  0  0  0
  -27.0390  -30.3590   24.7960 C   0  0  0  0  0  1  0  0  0  0  0  0
  -27.6320  -32.5250   25.8540 C   0  0  0  0  0  1  0  0  0  0  0  0
  -25.6700  -33.9170   24.2390 N   0  0  0  0  0  0  0  0  0  0  0  0
  -26.0070  -34.9590   23.4680 C   0  0  0  0  0  0  0  0  0  0  0  0
  -26.6650  -34.8390   22.4310 O   0  0  0  0  0  0  0  0  0  0  0  0
  -25.0900  -34.0870   25.0470 H   0  0  0  0  0  0  0  0  0  0  0  0
  -24.2880  -36.7600   23.1210 C   0  0  0  0  0  1  0  0  0  0  0  0
  -25.5380  -36.3550   23.9180 C   0  0  0  0  0  3  0  0  0  0  0  0
  -27.6920  -37.2290   24.7050 C   0  0  0  0  0  1  0  0  0  0  0  0
  -26.5760  -37.3980   23.7790 N   0  0  0  0  0  0  0  0  0  0  0  0
  -26.1810  -38.3230   23.9260 H   0  0  0  0  0  0  0  0  0  0  0  0
  1  2  2  0
  2  3  1  0
  2  5  1  0
  3  4  2  0
  6  7  1  0
  6  5  1  0
  8  7  1  0
  8  9  1  0
 10  9  1  0
 11 10  1  0
 12 18  1  0
 12 20  1  0
 13 18  1  0
 14 15  1  0
 14 13  1  0
 16 15  1  0
 16 25  1  0
 16 17  1  0
 18 17  1  0
 19 12  2  0
 20 11  1  0
 20 21  1  0
 22 23  2  0
 23 42  1  0
 24 23  1  0
 24 27  1  0
 25 26  1  0
 25 22  1  0
 26 24  2  0
 27 28  1  0
 28 29  2  0
 30 33  1  0
 30 29  1  0
 31 30  2  0
 32 31  1  0
 32 27  2  0
 33 34  1  0
 34 35  1  0
 35 36  2  0
 37 36  1  0
 37 41  1  0
 38 37  2  0
 39 34  2  0
 39 38  1  0
 40 39  1  0
 42 43  1  0
 43 46  1  0
 43 45  1  0
 44 42  2  0
 47 22  1  0
 47 48  1  0
 49 47  1  0
 50 51  1  0
 50  1  1  0
 52 63  2  0
 53 51  1  0
 53 58  1  0
 54 62  1  0
 54 64  1  0
 55 61  1  0
 55 57  1  0
 56 62  1  0
 57 56  1  0
 58 57  2  0
 59 60  1  0
 59 53  2  0
 60 55  2  0
 61 54  1  0
 62 52  1  0
 64 66  2  0
 65 64  1  0
 67 65  1  0
 68 77  2  0
 68 73  1  0
 69 65  1  0
 69 73  1  0
 70 69  1  0
 71 72  1  0
 71 70  1  0
 72 68  1  0
 73 74  2  0
 74 75  1  0
 76 75  2  0
 77 76  1  0
 78 52  1  0
 78 83  1  0
 78 79  1  0
 79 82  1  1
 79 80  1  0
 81 79  1  0
 83 86  1  0
 84 88  1  0
 84 83  1  0
 85 84  2  0
 88 87  1  0
 90 88  1  0
 90 91  1  0
 90 89  1  0
M  ISO  4  12 100  20 100  50 101  51 101
M  END
>  <TORSDO>  (94) 
F 25

>  <SCORE>  (94) 
-11.025

>  <name>  (94) 
93

>  <ligand_id>  (94) 
93

>  <original_smiles>  (94) 
[H]C(=O)C(=C([H])C([H])([H])Oc1c([H])c([H])c2c(c1[H])C([H])([H])N(C(=O)C([H])(N([H])C(=O)C([H])(N([H])C([H])([H])[H])C([H])([H])[H])C(C([H])([H])[H])(C([H])([H])[H])C([H])([H])[H])C([H])(C(=O)N([H])C1([H])c3c([H])c([H])c([H])c([H])c3C([H])([H])C([H])([H])C1([H])[H])C2([H])[H])C([H])([H])C([H])([H])C([H])([H])C([H])([H])C([H])([H])C([H])([H])C([H])([H])N([H])C(=O)N1C([H])([H])C([H])([H])C([H])([H])C([H])(n2nc(-c3c([H])c([H])c(Oc4c([H])c([H])c(F)c([H])c4F)c([H])c3[H])c(C(=O)N([H])[H])c2N([H])[H])C1([H])[H]

>  <smiles>  (94) 
[H]C(=O)C(=C([H])C([H])([H])Oc1c([H])c([H])c2c(c1[H])C([H])([H])N(C(=O)C([H])(N([H])C(=O)C([H])(N([H])C([H])([H])[H])C([H])([H])[H])C(C([H])([H])[H])(C([H])([H])[H])C([H])([H])[H])C([H])(C(=O)N([H])C1([H])c3c([H])c([H])c([H])c([H])c3C([H])([H])C([H])([H])C1([H])[H])C2([H])[H])C([H])([H])C([H])([H])C([H])([H])C([H])([H])C([H])([H])C([H])([H])C([H])([H])N([H])C(=O)N1C([H])([H])C([H])([H])C([H])([H])C([H])(n2nc(-c3c([H])c([H])c(Oc4c([H])c([H])c(F)c([H])c4F)c([H])c3[H])c(C(=O)N([H])[H])c2N([H])[H])C1([H])[H]

$$$$
94:0:0
     RDKit          3D

 98106  0  0  1  0  0  0  0  0999 V2000
  -28.9880  -23.6730   22.4510 C   0  0  0  0  0  3  0  0  0  0  0  0
  -28.7140  -21.5680   21.2560 C   0  0  0  0  0  3  0  0  0  0  0  0
  -28.7570  -24.3850   21.2570 C   0  0  0  0  0  3  0  0  0  0  0  0
  -28.4690  -22.2790   20.0670 C   0  0  0  0  0  3  0  0  0  0  0  0
  -28.9490  -22.2630   22.4610 C   0  0  0  0  0  0  0  0  0  0  0  0
  -28.4580  -23.6890   20.0670 C   0  0  0  0  0  0  0  0  0  0  0  0
  -28.0950  -24.4340   18.7930 C   0  0  0  0  0  2  0  0  0  0  0  0
  -27.1420  -25.6140   19.0410 C   0  0  0  0  0  2  0  0  0  0  0  0
  -26.8080  -26.3760   17.7440 C   0  0  0  0  0  2  0  0  0  0  0  0
  -26.8910  -27.7840   17.9290 O   0  0  0  0  0  0  0  0  0  0  0  0
  -25.7640  -30.3030   24.4470 C   0  0  0  0  0  0  0  0  0  0  0  0
  -25.9870  -28.4160   18.7500 C   0  0  0  0  0  0  0  0  0  0  0  0
  -23.7840  -30.2710   22.9630 C   0  0  0  0  0  3  0  0  0  0  0  0
  -24.2490  -29.7830   20.5070 C   0  0  0  0  0  0  0  0  0  0  0  0
  -26.1410  -30.4680   21.9930 C   0  0  0  0  0  2  0  0  0  0  0  0
  -25.6260  -29.7610   20.7600 C   0  0  0  0  0  0  0  0  0  0  0  0
  -26.4960  -29.0890   19.8790 C   0  0  0  0  0  3  0  0  0  0  0  0
  -24.5930  -28.4400   18.5070 C   0  0  0  0  0  3  0  0  0  0  0  0
  -23.7260  -29.1240   19.3790 C   0  0  0  0  0  3  0  0  0  0  0  0
  -23.3830  -30.5380   21.4890 C   0  0  0  0  0  2  0  0  0  0  0  0
  -25.2660  -30.3210   23.1790 N   0  0  0  0  0  0  0  0  0  0  0  0
  -25.0120  -30.2910   25.4310 O   0  0  0  0  0  0  0  0  0  0  0  0
  -23.1450  -28.9360   23.4110 C   0  0  0  0  0  0  0  0  0  0  0  0
  -21.8660  -28.7370   23.0520 N   0  0  0  0  0  0  0  0  0  0  0  0
  -23.7990  -28.0980   24.0360 O   0  0  0  0  0  0  0  0  0  0  0  0
  -21.3980  -29.4760   22.5480 H   0  0  0  0  0  0  0  0  0  0  0  0
  -18.9500  -26.8780   22.0100 C   0  0  0  0  0  0  0  0  0  0  0  0
  -21.0710  -27.5410   23.3300 C   0  0  0  0  0  3  0  0  0  0  0  0
  -21.7250  -26.2830   22.7130 C   0  0  0  0  0  2  0  0  0  0  0  0
  -21.2030  -25.9550   21.3120 C   0  0  0  0  0  2  0  0  0  0  0  0
  -19.6880  -25.7280   21.3450 C   0  0  0  0  0  2  0  0  0  0  0  0
  -19.6050  -27.7390   22.9310 C   0  0  0  0  0  0  0  0  0  0  0  0
  -18.8850  -28.8120   23.4960 C   0  0  0  0  0  3  0  0  0  0  0  0
  -17.5360  -29.0320   23.1600 C   0  0  0  0  0  3  0  0  0  0  0  0
  -16.8860  -28.1660   22.2620 C   0  0  0  0  0  3  0  0  0  0  0  0
  -17.5910  -27.0900   21.6940 C   0  0  0  0  0  3  0  0  0  0  0  0
  -27.3000  -30.3250   24.7230 C   0  0  0  0  0  3  0  0  0  0  0  0
  -27.7420  -29.3220   25.8590 C   0  0  1  0  0  0  0  0  0  0  0  0
  -26.8720  -29.4080   27.1360 C   0  0  0  0  0  1  0  0  0  0  0  0
  -27.6900  -27.8610   25.3490 C   0  0  0  0  0  1  0  0  0  0  0  0
  -29.2120  -29.5980   26.2610 C   0  0  0  0  0  1  0  0  0  0  0  0
  -27.6660  -31.7020   25.0800 N   0  0  0  0  0  0  0  0  0  0  0  0
  -28.3020  -32.5530   24.2640 C   0  0  0  0  0  0  0  0  0  0  0  0
  -28.7130  -32.2310   23.1450 O   0  0  0  0  0  0  0  0  0  0  0  0
  -27.3140  -32.0500   25.9580 H   0  0  0  0  0  0  0  0  0  0  0  0
  -27.5140  -34.9360   24.0870 C   0  0  0  0  0  1  0  0  0  0  0  0
  -28.5160  -33.9920   24.7700 C   0  0  0  0  0  3  0  0  0  0  0  0
  -30.8930  -33.7720   25.3460 C   0  0  0  0  0  1  0  0  0  0  0  0
  -29.8920  -34.4910   24.5620 N   0  0  0  0  0  0  0  0  0  0  0  0
  -29.9560  -35.4770   24.7970 H   0  0  0  0  0  0  0  0  0  0  0  0
  -29.1310  -21.5060   23.7690 C   0  0  0  0  0  2  0  0  0  0  0  0
  -30.5930  -21.2860   24.1580 C   0  0  0  0  0  0  0  0  0  0  0  0
  -30.9180  -20.3770   24.9270 O   0  0  0  0  0  0  0  0  0  0  0  0
  -31.6410  -22.2490   23.5910 C   0  0  0  0  0  2  0  0  0  0  0  0
  -31.9490  -22.0010   22.1030 C   0  0  0  0  0  2  0  0  0  0  0  0
  -32.2210  -20.5240   21.7870 C   0  0  0  0  0  2  0  0  0  0  0  0
  -31.5310  -20.0670   20.5020 C   0  0  0  0  0  2  0  0  0  0  0  0
  -31.4170  -18.5390   20.4190 C   0  0  0  0  0  2  0  0  0  0  0  0
  -30.8020  -18.0810   19.0900 C   0  0  0  0  0  2  0  0  0  0  0  0
  -31.4420  -16.8130   18.5090 C   0  0  0  0  0  2  0  0  0  0  0  0
  -31.0900  -14.3500   18.5130 C   0  0  0  0  0  0  0  0  0  0  0  0
  -31.3680  -12.1250   19.5240 C   0  0  0  0  0  2  0  0  0  0  0  0
  -30.6030  -10.9950   18.8200 C   0  0  0  0  0  2  0  0  0  0  0  0
  -29.1680  -10.9000   19.3610 C   0  0  0  0  0  2  0  0  0  0  0  0
  -28.4420  -12.2680   19.3610 C   0  0  0  0  0  3  0  0  0  0  0  0
  -29.3150  -13.3710   20.0030 C   0  0  0  0  0  2  0  0  0  0  0  0
  -30.6360  -13.3870   19.3480 N   0  0  0  0  0  0  0  0  0  0  0  0
  -31.9610  -14.1600   17.6580 O   0  0  0  0  0  0  0  0  0  0  0  0
  -30.7270  -15.5890   18.8700 N   0  0  0  0  0  0  0  0  0  0  0  0
  -30.0570  -15.6510   19.6240 H   0  0  0  0  0  0  0  0  0  0  0  0
  -26.2530  -13.1730   20.3790 C   0  0  0  0  0  0  0  0  0  0  0  0
  -25.1420  -12.5410   20.8660 C   0  0  0  0  0  0  0  0  0  0  0  0
  -25.4030  -11.1400   20.7560 C   0  0  0  0  0  0  0  0  0  0  0  0
  -27.1320  -12.1680   20.0060 N   0  0  0  0  0  0  0  0  0  0  0  0
  -26.6280  -10.9380   20.2870 N   0  0  0  0  0  0  0  0  0  0  0  0
  -24.5360   -9.9830   21.0160 C   0  0  0  0  0  0  0  0  0  0  0  0
  -24.7090   -9.1770   22.1630 C   0  0  0  0  0  3  0  0  0  0  0  0
  -23.8520   -8.0800   22.4030 C   0  0  0  0  0  3  0  0  0  0  0  0
  -22.8090   -7.7820   21.4930 C   0  0  0  0  0  0  0  0  0  0  0  0
  -22.6560   -8.5750   20.3420 C   0  0  0  0  0  3  0  0  0  0  0  0
  -23.5120   -9.6630   20.1030 C   0  0  0  0  0  3  0  0  0  0  0  0
  -21.9460   -6.7230   21.6300 O   0  0  0  0  0  0  0  0  0  0  0  0
  -21.2800   -6.4830   22.8060 C   0  0  0  0  0  0  0  0  0  0  0  0
  -20.4850   -7.4710   23.4270 C   0  0  0  0  0  3  0  0  0  0  0  0
  -19.7640   -7.1610   24.5980 C   0  0  0  0  0  3  0  0  0  0  0  0
  -19.8280   -5.8650   25.1420 C   0  0  0  0  0  0  0  0  0  0  0  0
  -20.6150   -4.8780   24.5240 C   0  0  0  0  0  3  0  0  0  0  0  0
  -21.3370   -5.1870   23.3560 C   0  0  0  0  0  0  0  0  0  0  0  0
  -22.0770   -4.2260   22.7510 F   0  0  0  0  0  0  0  0  0  0  0  0
  -19.1300   -5.5640   26.2620 F   0  0  0  0  0  0  0  0  0  0  0  0
  -23.8690  -13.1940   21.3230 C   0  0  0  0  0  0  0  0  0  0  0  0
  -23.2100  -12.6230   22.3250 N   0  0  0  0  0  0  0  0  0  0  0  0
  -23.4740  -14.2460   20.8200 O   0  0  0  0  0  0  0  0  0  0  0  0
  -23.5430  -11.7710   22.7530 H   0  0  0  0  0  0  0  0  0  0  0  0
  -22.3620  -13.0470   22.6740 H   0  0  0  0  0  0  0  0  0  0  0  0
  -26.5840  -14.5130   20.2050 N   0  0  0  0  0  0  0  0  0  0  0  0
  -25.9460  -15.2650   20.4440 H   0  0  0  0  0  0  0  0  0  0  0  0
  -27.4570  -14.8440   19.8120 H   0  0  0  0  0  0  0  0  0  0  0  0
  1  5  1  0
  2  5  2  0
  3  1  2  0
  4  2  1  0
  5 51  1  0
  6  4  2  0
  6  3  1  0
  7  8  1  0
  7  6  1  0
  9 10  1  0
  9  8  1  0
 10 12  1  0
 11 22  2  0
 12 17  1  0
 13 21  1  0
 13 23  1  0
 14 16  1  0
 14 20  1  0
 15 21  1  0
 16 15  1  0
 17 16  2  0
 18 12  2  0
 18 19  1  0
 19 14  2  0
 20 13  1  0
 21 11  1  0
 23 25  2  0
 24 23  1  0
 26 24  1  0
 27 32  1  0
 28 24  1  0
 29 28  1  0
 30 31  1  0
 30 29  1  0
 31 27  1  0
 32 28  1  0
 32 33  2  0
 34 33  1  0
 35 34  2  0
 36 27  2  0
 36 35  1  0
 37 11  1  0
 37 42  1  0
 37 38  1  0
 38 41  1  1
 38 39  1  0
 40 38  1  0
 42 45  1  0
 43 47  1  0
 43 42  1  0
 44 43  2  0
 47 46  1  0
 49 47  1  0
 49 50  1  0
 49 48  1  0
 51 52  1  0
 52 53  2  0
 54 52  1  0
 55 54  1  0
 56 55  1  0
 57 56  1  0
 58 57  1  0
 59 58  1  0
 60 69  1  0
 60 59  1  0
 61 69  1  0
 61 67  1  0
 63 64  1  0
 63 62  1  0
 65 64  1  0
 65 66  1  0
 65 74  1  0
 67 62  1  0
 67 66  1  0
 68 61  2  0
 69 70  1  0
 71 72  2  0
 72 91  1  0
 73 72  1  0
 73 76  1  0
 74 75  1  0
 74 71  1  0
 75 73  2  0
 76 77  1  0
 77 78  2  0
 79 82  1  0
 79 78  1  0
 80 79  2  0
 81 80  1  0
 81 76  2  0
 82 83  1  0
 83 88  2  0
 83 84  1  0
 84 85  2  0
 85 86  1  0
 86 90  1  0
 87 86  2  0
 88 87  1  0
 89 88  1  0
 91 92  1  0
 92 95  1  0
 92 94  1  0
 93 91  2  0
 96 71  1  0
 96 97  1  0
 98 96  1  0
M  ISO  4   9 101  10 101  61 100  69 100
M  END
>  <TORSDO>  (95) 
F 28

>  <SCORE>  (95) 
-5.969

>  <name>  (95) 
94

>  <ligand_id>  (95) 
94

>  <original_smiles>  (95) 
[H]c1c([H])c([H])c2c(c1[H])C([H])([H])C([H])([H])C([H])([H])C2([H])N([H])C(=O)C1([H])N(C(=O)C([H])(N([H])C(=O)C([H])(N([H])C([H])([H])[H])C([H])([H])[H])C(C([H])([H])[H])(C([H])([H])[H])C([H])([H])[H])C([H])([H])c2c([H])c(OC([H])([H])C([H])([H])C([H])([H])c3c([H])c([H])c(C([H])([H])C(=O)C([H])([H])C([H])([H])C([H])([H])C([H])([H])C([H])([H])C([H])([H])C([H])([H])N([H])C(=O)N4C([H])([H])C([H])([H])C([H])([H])C([H])(n5nc(-c6c([H])c([H])c(Oc7c([H])c([H])c(F)c([H])c7F)c([H])c6[H])c(C(=O)N([H])[H])c5N([H])[H])C4([H])[H])c([H])c3[H])c([H])c([H])c2C1([H])[H]

>  <smiles>  (95) 
[H]c1c([H])c([H])c2c(c1[H])C([H])([H])C([H])([H])C([H])([H])C2([H])N([H])C(=O)C1([H])N(C(=O)C([H])(N([H])C(=O)C([H])(N([H])C([H])([H])[H])C([H])([H])[H])C(C([H])([H])[H])(C([H])([H])[H])C([H])([H])[H])C([H])([H])c2c([H])c(OC([H])([H])C([H])([H])C([H])([H])c3c([H])c([H])c(C([H])([H])C(=O)C([H])([H])C([H])([H])C([H])([H])C([H])([H])C([H])([H])C([H])([H])C([H])([H])N([H])C(=O)N4C([H])([H])C([H])([H])C([H])([H])C([H])(n5nc(-c6c([H])c([H])c(Oc7c([H])c([H])c(F)c([H])c7F)c([H])c6[H])c(C(=O)N([H])[H])c5N([H])[H])C4([H])[H])c([H])c3[H])c([H])c([H])c2C1([H])[H]

$$$$
95:0:0
     RDKit          3D

 93 97  0  0  1  0  0  0  0  0999 V2000
  -28.7170  -30.0020   22.4840 C   0  0  0  0  0  0  0  0  0  0  0  0
  -27.6130  -31.0020   22.0600 N   0  0  0  0  0  0  0  0  0  0  0  0
  -29.4500  -30.4000   23.3850 O   0  0  0  0  0  0  0  0  0  0  0  0
  -27.4000  -30.7720   21.0970 H   0  0  0  0  0  0  0  0  0  0  0  0
  -26.4190  -32.2870   22.5890 C   0  0  0  0  0  2  0  0  0  0  0  0
  -24.1750  -31.0130   24.3960 C   0  0  0  0  0 15  0  0  0  0  0  0
  -24.8650  -28.9250   23.9550 C   0  0  0  0  0 15  0  0  0  0  0  0
  -25.9770  -28.0690   22.6130 O   0  0  0  0  0  1  0  0  0  0  0  0
  -24.7390  -30.6940   22.1790 C   0  0  0  0  0  2  0  0  0  0  0  0
  -26.0250  -27.6060   21.1770 C   0  0  0  0  0  3  0  0  0  0  0  0
  -22.8350  -29.5690   21.2810 C   0  0  0  0  0  3  0  0  0  0  0  0
  -24.1170  -28.2570   19.5300 C   0  0  0  0  0  3  0  0  0  0  0  0
  -24.9610  -30.3300   20.2720 C   0  0  0  0  0  2  0  0  0  0  0  0
  -25.2520  -29.0440   19.7270 C   0  0  0  0  0  3  0  0  0  0  0  0
  -26.4110  -28.4650   20.1630 C   0  0  0  0  0  2  0  0  0  0  0  0
  -25.3550  -26.5230   20.5060 C   0  0  0  0  0  2  0  0  0  0  0  0
  -24.3120  -26.8840   19.6170 C   0  0  0  0  0  2  0  0  0  0  0  0
  -22.7720  -28.8960   19.8890 C   0  0  0  0  0  2  0  0  0  0  0  0
  -24.3010  -29.8370   21.4620 N   0  0  0  0  0  0  0  0  0  0  0  0
  -23.8730  -31.6650   22.1060 O   0  0  0  0  0  1  0  0  0  0  0  0
  -22.2030  -28.6000   22.2980 C   0  0  0  0  0  0  0  0  0  0  0  0
  -20.8760  -28.5330   22.3700 N   0  0  0  0  0  0  0  0  0  0  0  0
  -22.8670  -27.7660   22.8890 O   0  0  0  0  0  0  0  0  0  0  0  0
  -20.3160  -29.1990   21.8590 H   0  0  0  0  0  0  0  0  0  0  0  0
  -17.7580  -26.7990   22.4970 C   0  0  0  0  0  0  0  0  0  0  0  0
  -20.1690  -27.4700   23.0840 C   0  0  0  0  0  3  0  0  0  0  0  0
  -20.5630  -26.0520   22.5850 C   0  0  0  0  0  2  0  0  0  0  0  0
  -19.6900  -25.5560   21.4350 C   0  0  0  0  0  2  0  0  0  0  0  0
  -18.2290  -25.4930   21.8800 C   0  0  0  0  0  2  0  0  0  0  0  0
  -18.6690  -27.7300   23.0560 C   0  0  0  0  0  0  0  0  0  0  0  0
  -18.1850  -28.9460   23.5820 C   0  0  0  0  0  3  0  0  0  0  0  0
  -16.8110  -29.2390   23.5550 C   0  0  0  0  0  3  0  0  0  0  0  0
  -15.9080  -28.3080   23.0130 C   0  0  0  0  0  3  0  0  0  0  0  0
  -16.3800  -27.0910   22.4920 C   0  0  0  0  0  3  0  0  0  0  0  0
  -26.3880  -31.0630   24.1260 C   0  0  0  0  0  3  0  0  0  0  0  0
  -26.4530  -30.5960   25.6410 C   0  0  1  0  0  0  0  0  0  0  0  0
  -25.2730  -30.6450   26.7080 C   0  0  0  0  0  1  0  0  0  0  0  0
  -27.0660  -29.2060   25.5570 C   0  0  0  0  0  1  0  0  0  0  0  0
  -27.5260  -31.4670   26.3540 C   0  0  0  0  0  1  0  0  0  0  0  0
  -26.1930  -32.8410   24.5270 N   0  0  0  0  0  0  0  0  0  0  0  0
  -25.9910  -34.1380   23.8830 C   0  0  0  0  0  0  0  0  0  0  0  0
  -26.3890  -34.4520   22.7560 O   0  0  0  0  0  0  0  0  0  0  0  0
  -25.9990  -32.9210   25.5130 H   0  0  0  0  0  0  0  0  0  0  0  0
  -24.2710  -36.0270   23.5110 C   0  0  0  0  0  1  0  0  0  0  0  0
  -25.4100  -35.4860   24.4370 C   0  0  0  0  0  3  0  0  0  0  0  0
  -27.5770  -36.3320   25.2900 C   0  0  0  0  0  1  0  0  0  0  0  0
  -26.4260  -36.5850   24.4370 N   0  0  0  0  0  0  0  0  0  0  0  0
  -25.9980  -37.4590   24.7280 H   0  0  0  0  0  0  0  0  0  0  0  0
  -29.3910  -28.4070   21.8990 C   0  0  0  0  0  3  0  0  0  0  0  0
  -29.4550  -26.6170   22.4180 C   0  0  0  0  0  3  0  0  0  0  0  0
  -30.0400  -25.0130   21.7000 C   0  0  0  0  0  2  0  0  0  0  0  0
  -29.7460  -23.2120   21.9960 C   0  0  0  0  0  3  0  0  0  0  0  0
  -30.3570  -21.6050   21.3160 C   0  0  0  0  0  3  0  0  0  0  0  0
  -29.8940  -19.8200   21.4180 C   0  0  0  0  0  3  0  0  0  0  0  0
  -30.6020  -18.2310   20.8090 C   0  0  0  0  0  3  0  0  0  0  0  0
  -30.6520  -15.2720   20.3370 C   0  0  0  0  0  0  0  0  0  0  0  0
  -30.4280  -12.9170   19.2030 C   0  0  0  0  0  2  0  0  0  0  0  0
  -29.4590  -12.7850   17.9960 C   0  0  0  0  0  2  0  0  0  0  0  0
  -28.0300  -12.4810   18.4700 C   0  0  0  0  0  2  0  0  0  0  0  0
  -27.6330  -13.3750   19.6700 C   0  0  0  0  0  3  0  0  0  0  0  0
  -28.7310  -13.4760   20.7650 C   0  0  0  0  0  2  0  0  0  0  0  0
  -29.9640  -14.0180   20.1470 N   0  0  0  0  0  0  0  0  0  0  0  0
  -31.8320  -15.2020   19.9700 O   0  0  0  0  0  0  0  0  0  0  0  0
  -30.0930  -16.6070   20.7420 N   0  0  0  0  0  0  0  0  0  0  0  0
  -29.1200  -16.5080   21.0010 H   0  0  0  0  0  0  0  0  0  0  0  0
  -25.2700  -13.8870   20.4860 C   0  0  0  0  0  0  0  0  0  0  0  0
  -24.2210  -13.0960   20.8620 C   0  0  0  0  0  0  0  0  0  0  0  0
  -24.6950  -11.7490   20.7920 C   0  0  0  0  0  0  0  0  0  0  0  0
  -26.3160  -13.0290   20.2030 N   0  0  0  0  0  0  0  0  0  0  0  0
  -25.9820  -11.7330   20.4490 N   0  0  0  0  0  0  0  0  0  0  0  0
  -23.9760  -10.4780   20.9720 C   0  0  0  0  0  0  0  0  0  0  0  0
  -24.3890   -9.5220   21.9270 C   0  0  0  0  0  3  0  0  0  0  0  0
  -23.6650   -8.3220   22.0990 C   0  0  0  0  0  3  0  0  0  0  0  0
  -22.5140   -8.0670   21.3170 C   0  0  0  0  0  0  0  0  0  0  0  0
  -22.1200   -9.0130   20.3530 C   0  0  0  0  0  3  0  0  0  0  0  0
  -22.8440  -10.2040   20.1790 C   0  0  0  0  0  3  0  0  0  0  0  0
  -21.7670   -6.9180   21.3960 O   0  0  0  0  0  0  0  0  0  0  0  0
  -21.6420   -6.2180   22.5700 C   0  0  0  0  0  0  0  0  0  0  0  0
  -21.1070   -6.8090   23.7360 C   0  0  0  0  0  3  0  0  0  0  0  0
  -20.9330   -6.0350   24.9000 C   0  0  0  0  0  3  0  0  0  0  0  0
  -21.2820   -4.6710   24.9000 C   0  0  0  0  0  0  0  0  0  0  0  0
  -21.8100   -4.0800   23.7390 C   0  0  0  0  0  3  0  0  0  0  0  0
  -21.9860   -4.8510   22.5760 C   0  0  0  0  0  0  0  0  0  0  0  0
  -22.4740   -4.2710   21.4530 F   0  0  0  0  0  0  0  0  0  0  0  0
  -21.1080   -3.9260   26.0160 F   0  0  0  0  0  0  0  0  0  0  0  0
  -22.8270  -13.5590   21.1740 C   0  0  0  0  0  0  0  0  0  0  0  0
  -22.1240  -12.8500   22.0480 N   0  0  0  0  0  0  0  0  0  0  0  0
  -22.3720  -14.5890   20.6770 O   0  0  0  0  0  0  0  0  0  0  0  0
  -22.5070  -12.0170   22.4730 H   0  0  0  0  0  0  0  0  0  0  0  0
  -21.1900  -13.1420   22.2960 H   0  0  0  0  0  0  0  0  0  0  0  0
  -25.4170  -15.2620   20.3340 N   0  0  0  0  0  0  0  0  0  0  0  0
  -24.6490  -15.9080   20.4810 H   0  0  0  0  0  0  0  0  0  0  0  0
  -26.2560  -15.7160   19.9930 H   0  0  0  0  0  0  0  0  0  0  0  0
  1  3  2  0
  2  1  1  0
  2  5  1  0
  4  2  1  0
 10  8  1  0
 11 19  1  0
 11 21  1  0
 12 17  1  0
 12 14  1  0
 12 18  1  0
 13 19  1  0
 14 15  1  0
 14 13  1  0
 15 10  1  0
 16 10  1  0
 17 16  1  0
 18 11  1  0
 19  9  1  0
 20  9  1  0
 21 22  1  0
 21 23  2  0
 24 22  1  0
 25 30  1  0
 26 22  1  0
 27 26  1  0
 28 29  1  0
 28 27  1  0
 29 25  1  0
 30 26  1  0
 30 31  2  0
 32 31  1  0
 33 32  2  0
 34 25  2  0
 34 33  1  0
 35  5  1  0
 35 40  1  0
 35 36  1  0
 36 39  1  1
 36 37  1  0
 38 36  1  0
 40 43  1  0
 41 45  1  0
 41 40  1  0
 42 41  2  0
 45 44  1  0
 47 45  1  0
 47 48  1  0
 47 46  1  0
 49 50  2  0
 49  1  1  0
 51 52  1  0
 51 50  1  0
 53 54  1  0
 53 52  2  0
 55 54  2  0
 56 64  1  0
 57 62  1  0
 58 59  1  0
 58 57  1  0
 60 59  1  0
 60 69  1  0
 60 61  1  0
 62 56  1  0
 62 61  1  0
 63 56  2  0
 64 55  1  0
 64 65  1  0
 66 67  2  0
 67 86  1  0
 68 67  1  0
 68 71  1  0
 69 70  1  0
 69 66  1  0
 70 68  2  0
 71 72  1  0
 72 73  2  0
 74 77  1  0
 74 73  1  0
 75 74  2  0
 76 75  1  0
 76 71  2  0
 77 78  1  0
 78 83  2  0
 78 79  1  0
 79 80  2  0
 81 80  1  0
 81 85  1  0
 82 81  2  0
 83 82  1  0
 84 83  1  0
 86 87  1  0
 87 90  1  0
 87 89  1  0
 88 86  2  0
 91 92  1  0
 91 66  1  0
 93 91  1  0
M  ISO  4   7 101   8 101  56 100  64 100
M  END
>  <TORSDO>  (96) 
F 26

>  <SCORE>  (96) 
-14.996

>  <name>  (96) 
95

>  <ligand_id>  (96) 
95

>  <original_smiles>  (96) 
[H]c1c([H])c([H])c2c(c1[H])C([H])([H])C([H])([H])C([H])([H])C2([H])N([H])C(=O)C1([H])N(C(=O)C([H])(N([H])C(=O)C([H])(N([H])C([H])([H])[H])C([H])([H])[H])C(C([H])([H])[H])(C([H])([H])[H])C([H])([H])[H])C([H])([H])c2c([H])c(OC([H])([H])C([H])([H])C([H])([H])N([H])C(=O)C([H])([H])C([H])([H])C([H])([H])C([H])([H])C([H])([H])C([H])([H])C([H])([H])N([H])C(=O)N3C([H])([H])C([H])([H])C([H])([H])C([H])(n4nc(-c5c([H])c([H])c(Oc6c([H])c([H])c(F)c([H])c6F)c([H])c5[H])c(C(=O)N([H])[H])c4N([H])[H])C3([H])[H])c([H])c([H])c2C1([H])[H]

>  <smiles>  (96) 
[H]c1c([H])c([H])c2c(c1[H])C([H])([H])C([H])([H])C([H])([H])C2([H])N([H])C(=O)C1([H])N(C(=O)C([H])(N([H])C(=O)C([H])(N([H])C([H])([H])[H])C([H])([H])[H])C(C([H])([H])[H])(C([H])([H])[H])C([H])([H])[H])C([H])([H])c2c([H])c(OC([H])([H])C([H])([H])C([H])([H])N([H])C(=O)C([H])([H])C([H])([H])C([H])([H])C([H])([H])C([H])([H])C([H])([H])C([H])([H])N([H])C(=O)N3C([H])([H])C([H])([H])C([H])([H])C([H])(n4nc(-c5c([H])c([H])c(Oc6c([H])c([H])c(F)c([H])c6F)c([H])c5[H])c(C(=O)N([H])[H])c4N([H])[H])C3([H])[H])c([H])c([H])c2C1([H])[H]

$$$$
96:0:0
     RDKit          3D

 96104  0  0  1  0  0  0  0  0999 V2000
  -30.9790  -19.5250   24.7070 C   0  0  0  0  0  3  0  0  0  0  0  0
  -32.1060  -20.3180   24.4630 C   0  0  0  0  0  3  0  0  0  0  0  0
  -29.8110  -19.7430   23.9670 C   0  0  0  0  0  3  0  0  0  0  0  0
  -32.0790  -21.3410   23.4920 C   0  0  0  0  0  0  0  0  0  0  0  0
  -29.7720  -20.7010   22.9310 C   0  0  0  0  0  0  0  0  0  0  0  0
  -30.9190  -21.5260   22.6740 C   0  0  0  0  0  0  0  0  0  0  0  0
  -33.3300  -22.2130   23.4080 C   0  0  0  0  0  1  0  0  0  0  0  0
  -30.9700  -22.5460   21.5130 C   0  0  0  0  0  2  0  0  0  0  0  0
  -29.6880  -23.3780   21.2740 C   0  0  0  0  0  2  0  0  0  0  0  0
  -29.9160  -24.7460   20.6090 C   0  0  0  0  0  2  0  0  0  0  0  0
  -28.6230  -25.5700   20.5480 C   0  0  0  0  0  2  0  0  0  0  0  0
  -28.7830  -26.7030   19.6940 O   0  0  0  0  0  0  0  0  0  0  0  0
  -24.8400  -31.5410   22.9950 C   0  0  0  0  0  0  0  0  0  0  0  0
  -27.6330  -27.4370   19.6590 C   0  0  0  0  0  0  0  0  0  0  0  0
  -23.7000  -30.2480   21.2190 C   0  0  0  0  0  3  0  0  0  0  0  0
  -25.2120  -28.8700   19.7090 C   0  0  0  0  0  0  0  0  0  0  0  0
  -26.2120  -30.6890   21.1010 C   0  0  0  0  0  2  0  0  0  0  0  0
  -26.3410  -29.3740   20.3680 C   0  0  0  0  0  0  0  0  0  0  0  0
  -27.5600  -28.6650   20.3470 C   0  0  0  0  0  3  0  0  0  0  0  0
  -26.4960  -26.9370   18.9880 C   0  0  0  0  0  3  0  0  0  0  0  0
  -25.2830  -27.6500   19.0120 C   0  0  0  0  0  3  0  0  0  0  0  0
  -23.9530  -29.6990   19.7900 C   0  0  0  0  0  2  0  0  0  0  0  0
  -24.9340  -30.8360   21.8340 N   0  0  0  0  0  0  0  0  0  0  0  0
  -23.7440  -31.7390   23.5380 O   0  0  0  0  0  0  0  0  0  0  0  0
  -23.0610  -29.1340   22.0820 C   0  0  0  0  0  0  0  0  0  0  0  0
  -21.7270  -28.9930   21.9880 N   0  0  0  0  0  0  0  0  0  0  0  0
  -23.7620  -28.4100   22.7950 O   0  0  0  0  0  0  0  0  0  0  0  0
  -21.2190  -29.6440   21.4030 H   0  0  0  0  0  0  0  0  0  0  0  0
  -18.3420  -27.8790   22.5650 C   0  0  0  0  0  0  0  0  0  0  0  0
  -20.9210  -27.9880   22.6790 C   0  0  0  0  0  3  0  0  0  0  0  0
  -20.9120  -26.6450   21.9110 C   0  0  0  0  0  2  0  0  0  0  0  0
  -19.7280  -26.5140   20.9470 C   0  0  0  0  0  2  0  0  0  0  0  0
  -18.4000  -26.6300   21.7020 C   0  0  0  0  0  2  0  0  0  0  0  0
  -19.5240  -28.5240   23.0130 C   0  0  0  0  0  0  0  0  0  0  0  0
  -19.4120  -29.7000   23.7850 C   0  0  0  0  0  3  0  0  0  0  0  0
  -18.1490  -30.2320   24.1070 C   0  0  0  0  0  3  0  0  0  0  0  0
  -16.9820  -29.5820   23.6730 C   0  0  0  0  0  3  0  0  0  0  0  0
  -17.0780  -28.4070   22.9080 C   0  0  0  0  0  3  0  0  0  0  0  0
  -26.0980  -32.1590   23.6870 C   0  0  0  0  0  3  0  0  0  0  0  0
  -26.6000  -31.3240   24.9270 C   0  0  1  0  0  0  0  0  0  0  0  0
  -25.4980  -31.0110   25.9630 C   0  0  0  0  0  1  0  0  0  0  0  0
  -27.2040  -29.9800   24.4610 C   0  0  0  0  0  1  0  0  0  0  0  0
  -27.7190  -32.0960   25.6710 C   0  0  0  0  0  1  0  0  0  0  0  0
  -25.7550  -33.5290   24.0880 N   0  0  0  0  0  0  0  0  0  0  0  0
  -26.0770  -34.6300   23.3950 C   0  0  0  0  0  0  0  0  0  0  0  0
  -26.7720  -34.6010   22.3750 O   0  0  0  0  0  0  0  0  0  0  0  0
  -25.1520  -33.6290   24.8920 H   0  0  0  0  0  0  0  0  0  0  0  0
  -24.3160  -36.4010   23.0990 C   0  0  0  0  0  1  0  0  0  0  0  0
  -25.5430  -35.9750   23.9190 C   0  0  0  0  0  3  0  0  0  0  0  0
  -27.6410  -36.8480   24.8500 C   0  0  0  0  0  1  0  0  0  0  0  0
  -26.5510  -37.0580   23.9000 N   0  0  0  0  0  0  0  0  0  0  0  0
  -26.1170  -37.9510   24.1160 H   0  0  0  0  0  0  0  0  0  0  0  0
  -28.4590  -20.7670   22.1500 C   0  0  0  0  0  2  0  0  0  0  0  0
  -28.5310  -20.2350   20.6930 C   0  0  0  0  0  2  0  0  0  0  0  0
  -28.1450  -18.7470   20.5010 C   0  0  0  0  0  2  0  0  0  0  0  0
  -29.2980  -17.8150   20.0710 C   0  0  0  0  0  2  0  0  0  0  0  0
  -30.4980  -17.7350   21.0450 C   0  0  0  0  0  2  0  0  0  0  0  0
  -31.5020  -16.6380   20.6610 C   0  0  0  0  0  2  0  0  0  0  0  0
  -31.5250  -14.1920   20.3350 C   0  0  0  0  0  0  0  0  0  0  0  0
  -31.0440  -11.9700   19.4010 C   0  0  0  0  0  2  0  0  0  0  0  0
  -30.1260  -12.1240   18.1700 C   0  0  0  0  0  2  0  0  0  0  0  0
  -28.6500  -12.1250   18.6050 C   0  0  0  0  0  2  0  0  0  0  0  0
  -28.3660  -13.1270   19.7570 C   0  0  0  0  0  3  0  0  0  0  0  0
  -29.3940  -12.9610   20.9010 C   0  0  0  0  0  2  0  0  0  0  0  0
  -30.7470  -13.0780   20.3220 N   0  0  0  0  0  0  0  0  0  0  0  0
  -32.6380  -14.2560   19.8040 O   0  0  0  0  0  0  0  0  0  0  0  0
  -30.9560  -15.2910   20.8420 N   0  0  0  0  0  0  0  0  0  0  0  0
  -30.0410  -15.1950   21.2530 H   0  0  0  0  0  0  0  0  0  0  0  0
  -26.0710  -13.9970   20.5460 C   0  0  0  0  0  0  0  0  0  0  0  0
  -24.9100  -13.3440   20.8800 C   0  0  0  0  0  0  0  0  0  0  0  0
  -25.1930  -11.9530   20.7480 C   0  0  0  0  0  0  0  0  0  0  0  0
  -26.9900  -13.0050   20.2380 N   0  0  0  0  0  0  0  0  0  0  0  0
  -26.4640  -11.7670   20.4150 N   0  0  0  0  0  0  0  0  0  0  0  0
  -24.3100  -10.7840   20.8640 C   0  0  0  0  0  0  0  0  0  0  0  0
  -24.6410   -9.6860   21.6900 C   0  0  0  0  0  3  0  0  0  0  0  0
  -23.7630   -8.5820   21.7940 C   0  0  0  0  0  3  0  0  0  0  0  0
  -22.5480   -8.5700   21.0680 C   0  0  0  0  0  0  0  0  0  0  0  0
  -22.2410   -9.6560   20.2290 C   0  0  0  0  0  3  0  0  0  0  0  0
  -23.1140  -10.7510   20.1200 C   0  0  0  0  0  3  0  0  0  0  0  0
  -21.6510   -7.5310   21.0840 O   0  0  0  0  0  0  0  0  0  0  0  0
  -21.5240   -6.7060   22.1750 C   0  0  0  0  0  0  0  0  0  0  0  0
  -21.2270   -7.2140   23.4590 C   0  0  0  0  0  3  0  0  0  0  0  0
  -21.0340   -6.3290   24.5390 C   0  0  0  0  0  3  0  0  0  0  0  0
  -21.1330   -4.9380   24.3370 C   0  0  0  0  0  0  0  0  0  0  0  0
  -21.4300   -4.4320   23.0570 C   0  0  0  0  0  3  0  0  0  0  0  0
  -21.6230   -5.3150   21.9810 C   0  0  0  0  0  0  0  0  0  0  0  0
  -21.8810   -4.8220   20.7450 F   0  0  0  0  0  0  0  0  0  0  0  0
  -20.9470   -4.0850   25.3700 F   0  0  0  0  0  0  0  0  0  0  0  0
  -23.5940  -13.9810   21.2160 C   0  0  0  0  0  0  0  0  0  0  0  0
  -22.7960  -13.3290   22.0560 N   0  0  0  0  0  0  0  0  0  0  0  0
  -23.2820  -15.0840   20.7740 O   0  0  0  0  0  0  0  0  0  0  0  0
  -23.0620  -12.4330   22.4330 H   0  0  0  0  0  0  0  0  0  0  0  0
  -21.9120  -13.7400   22.3250 H   0  0  0  0  0  0  0  0  0  0  0  0
  -26.4150  -15.3400   20.4650 N   0  0  0  0  0  0  0  0  0  0  0  0
  -25.7540  -16.0830   20.6640 H   0  0  0  0  0  0  0  0  0  0  0  0
  -27.3150  -15.6840   20.1590 H   0  0  0  0  0  0  0  0  0  0  0  0
  2  1  1  0
  3  1  2  0
  4  2  2  0
  5  3  1  0
  6  5  2  0
  6  4  1  0
  7  4  1  0
  8  6  1  0
  9  8  1  0
 10  9  1  0
 11 10  1  0
 12 11  1  0
 13 24  2  0
 14 12  1  0
 14 19  1  0
 15 23  1  0
 15 25  1  0
 16 22  1  0
 16 18  1  0
 17 23  1  0
 18 17  1  0
 19 18  2  0
 20 21  1  0
 20 14  2  0
 21 16  2  0
 22 15  1  0
 23 13  1  0
 25 27  2  0
 26 25  1  0
 28 26  1  0
 29 38  2  0
 29 34  1  0
 30 26  1  0
 30 34  1  0
 31 30  1  0
 32 33  1  0
 32 31  1  0
 33 29  1  0
 34 35  2  0
 35 36  1  0
 37 36  2  0
 38 37  1  0
 39 13  1  0
 39 44  1  0
 39 40  1  0
 40 43  1  1
 40 41  1  0
 42 40  1  0
 44 47  1  0
 45 49  1  0
 45 44  1  0
 46 45  2  0
 49 48  1  0
 51 49  1  0
 51 52  1  0
 51 50  1  0
 53  5  1  0
 54 53  1  0
 55 54  1  0
 56 55  1  0
 56 57  1  0
 58 67  1  0
 58 57  1  0
 59 67  1  0
 60 65  1  0
 61 62  1  0
 61 60  1  0
 63 62  1  0
 63 72  1  0
 63 64  1  0
 65 59  1  0
 65 64  1  0
 66 59  2  0
 67 68  1  0
 69 70  2  0
 70 89  1  0
 71 74  1  0
 71 70  1  0
 72 73  1  0
 72 69  1  0
 73 71  2  0
 74 75  1  0
 75 76  2  0
 77 80  1  0
 77 76  1  0
 78 77  2  0
 79 78  1  0
 79 74  2  0
 80 81  1  0
 81 82  1  0
 82 83  2  0
 84 83  1  0
 84 88  1  0
 85 84  2  0
 86 81  2  0
 86 85  1  0
 87 86  1  0
 89 90  1  0
 90 93  1  0
 90 92  1  0
 91 89  2  0
 94 69  1  0
 94 95  1  0
 96 94  1  0
M  ISO  4  11 101  12 101  59 100  67 100
M  END
>  <TORSDO>  (97) 
F 26

>  <SCORE>  (97) 
-4.502

>  <name>  (97) 
96

>  <ligand_id>  (97) 
96

>  <original_smiles>  (97) 
[H]c1c([H])c([H])c2c(c1[H])C([H])([H])C([H])([H])C([H])([H])C2([H])N([H])C(=O)C1([H])N(C(=O)C([H])(N([H])C(=O)C([H])(N([H])C([H])([H])[H])C([H])([H])[H])C(C([H])([H])[H])(C([H])([H])[H])C([H])([H])[H])C([H])([H])c2c([H])c(OC([H])([H])C([H])([H])C([H])([H])C([H])([H])c3c(C([H])([H])[H])c([H])c([H])c([H])c3C([H])([H])C([H])([H])C([H])([H])C([H])([H])C([H])([H])C([H])([H])N([H])C(=O)N3C([H])([H])C([H])([H])C([H])([H])C([H])(n4nc(-c5c([H])c([H])c(Oc6c([H])c([H])c(F)c([H])c6F)c([H])c5[H])c(C(=O)N([H])[H])c4N([H])[H])C3([H])[H])c([H])c([H])c2C1([H])[H]

>  <smiles>  (97) 
[H]c1c([H])c([H])c2c(c1[H])C([H])([H])C([H])([H])C([H])([H])C2([H])N([H])C(=O)C1([H])N(C(=O)C([H])(N([H])C(=O)C([H])(N([H])C([H])([H])[H])C([H])([H])[H])C(C([H])([H])[H])(C([H])([H])[H])C([H])([H])[H])C([H])([H])c2c([H])c(OC([H])([H])C([H])([H])C([H])([H])C([H])([H])c3c(C([H])([H])[H])c([H])c([H])c([H])c3C([H])([H])C([H])([H])C([H])([H])C([H])([H])C([H])([H])C([H])([H])N([H])C(=O)N3C([H])([H])C([H])([H])C([H])([H])C([H])(n4nc(-c5c([H])c([H])c(Oc6c([H])c([H])c(F)c([H])c6F)c([H])c5[H])c(C(=O)N([H])[H])c4N([H])[H])C3([H])[H])c([H])c([H])c2C1([H])[H]

$$$$
97:0:0
     RDKit          3D

 95104  0  0  1  0  0  0  0  0999 V2000
  -28.9930  -20.4820   21.6930 C   0  0  0  0  0  3  0  0  0  0  0  0
  -30.1420  -20.1560   19.5640 C   0  0  0  0  0  3  0  0  0  0  0  0
  -29.3700  -21.8380   21.6870 C   0  0  0  0  0  3  0  0  0  0  0  0
  -30.5220  -21.5090   19.5600 C   0  0  0  0  0  3  0  0  0  0  0  0
  -29.3660  -19.6420   20.6230 C   0  0  0  0  0  0  0  0  0  0  0  0
  -30.1280  -22.3560   20.6150 C   0  0  0  0  0  0  0  0  0  0  0  0
  -28.9260  -18.1900   20.5980 C   0  0  0  0  0  2  0  0  0  0  0  0
  -31.3150  -16.8280   23.2830 C   0  0  0  0  0  2  0  0  0  0  0  0
  -30.5240  -17.9800   22.6710 C   0  0  0  0  0  2  0  0  0  0  0  0
  -31.5860  -15.8810   22.1110 C   0  0  0  0  0  2  0  0  0  0  0  0
  -29.6250  -17.2880   21.6400 C   0  0  0  0  0  3  0  0  0  0  0  0
  -30.5490  -16.2220   21.0240 C   0  0  0  0  0  3  0  0  0  0  0  0
  -29.8960  -14.4470   19.4130 C   0  0  0  0  0  0  0  0  0  0  0  0
  -29.4150  -12.3810   18.1630 C   0  0  0  0  0  2  0  0  0  0  0  0
  -28.2150  -12.5360   17.2120 C   0  0  0  0  0  2  0  0  0  0  0  0
  -26.8980  -12.2380   17.9520 C   0  0  0  0  0  2  0  0  0  0  0  0
  -26.7760  -13.0260   19.2810 C   0  0  0  0  0  3  0  0  0  0  0  0
  -28.0600  -12.8760   20.1280 C   0  0  0  0  0  2  0  0  0  0  0  0
  -29.2210  -13.2760   19.3110 N   0  0  0  0  0  0  0  0  0  0  0  0
  -30.6370  -14.8850   18.5280 O   0  0  0  0  0  0  0  0  0  0  0  0
  -29.8030  -15.0390   20.6080 N   0  0  0  0  0  0  0  0  0  0  0  0
  -29.2180  -14.5830   21.2930 H   0  0  0  0  0  0  0  0  0  0  0  0
  -24.5780  -13.4040   20.5750 C   0  0  0  0  0  0  0  0  0  0  0  0
  -23.6720  -12.5300   21.1110 C   0  0  0  0  0  0  0  0  0  0  0  0
  -24.1860  -11.2220   20.8560 C   0  0  0  0  0  0  0  0  0  0  0  0
  -25.5880  -12.6230   20.0330 N   0  0  0  0  0  0  0  0  0  0  0  0
  -25.3660  -11.3000   20.2540 N   0  0  0  0  0  0  0  0  0  0  0  0
  -23.5960   -9.8990   21.0970 C   0  0  0  0  0  0  0  0  0  0  0  0
  -24.1660   -8.9930   22.0180 C   0  0  0  0  0  3  0  0  0  0  0  0
  -23.5720   -7.7330   22.2460 C   0  0  0  0  0  3  0  0  0  0  0  0
  -22.3920   -7.3700   21.5540 C   0  0  0  0  0  0  0  0  0  0  0  0
  -21.8420   -8.2670   20.6210 C   0  0  0  0  0  3  0  0  0  0  0  0
  -22.4380   -9.5170   20.3910 C   0  0  0  0  0  3  0  0  0  0  0  0
  -21.7580   -6.1590   21.6920 O   0  0  0  0  0  0  0  0  0  0  0  0
  -21.7160   -5.5020   22.8950 C   0  0  0  0  0  0  0  0  0  0  0  0
  -21.1210   -6.0770   24.0390 C   0  0  0  0  0  3  0  0  0  0  0  0
  -21.0380   -5.3390   25.2360 C   0  0  0  0  0  3  0  0  0  0  0  0
  -21.5410   -4.0240   25.2900 C   0  0  0  0  0  0  0  0  0  0  0  0
  -22.1280   -3.4480   24.1510 C   0  0  0  0  0  3  0  0  0  0  0  0
  -22.2130   -4.1840   22.9560 C   0  0  0  0  0  0  0  0  0  0  0  0
  -22.7610   -3.6170   21.8540 F   0  0  0  0  0  0  0  0  0  0  0  0
  -21.4540   -3.3110   26.4370 F   0  0  0  0  0  0  0  0  0  0  0  0
  -22.3540  -12.8820   21.7410 C   0  0  0  0  0  0  0  0  0  0  0  0
  -21.9080  -12.0930   22.7150 N   0  0  0  0  0  0  0  0  0  0  0  0
  -21.7330  -13.8880   21.4050 O   0  0  0  0  0  0  0  0  0  0  0  0
  -22.4260  -11.2790   23.0090 H   0  0  0  0  0  0  0  0  0  0  0  0
  -21.0350  -12.3110   23.1720 H   0  0  0  0  0  0  0  0  0  0  0  0
  -24.6220  -14.7930   20.4850 N   0  0  0  0  0  0  0  0  0  0  0  0
  -23.8710  -15.3860   20.8200 H   0  0  0  0  0  0  0  0  0  0  0  0
  -25.3650  -15.3140   20.0360 H   0  0  0  0  0  0  0  0  0  0  0  0
  -30.4860  -23.8280   20.5780 C   0  0  0  0  0  2  0  0  0  0  0  0
  -29.3570  -24.6770   19.9740 C   0  0  0  0  0  2  0  0  0  0  0  0
  -29.2310  -24.5460   18.4440 C   0  0  0  0  0  2  0  0  0  0  0  0
  -27.9760  -25.2380   17.9140 C   0  0  0  0  0  2  0  0  0  0  0  0
  -28.0550  -26.6410   18.1900 O   0  0  0  0  0  0  0  0  0  0  0  0
  -24.8980  -31.0600   22.7580 C   0  0  0  0  0  0  0  0  0  0  0  0
  -26.9000  -27.3320   18.4840 C   0  0  0  0  0  0  0  0  0  0  0  0
  -23.4160  -30.0370   21.0630 C   0  0  0  0  0  3  0  0  0  0  0  0
  -24.5900  -28.8160   19.1570 C   0  0  0  0  0  0  0  0  0  0  0  0
  -25.8990  -30.4030   20.5750 C   0  0  0  0  0  2  0  0  0  0  0  0
  -25.8360  -29.1900   19.6700 C   0  0  0  0  0  0  0  0  0  0  0  0
  -26.9910  -28.4490   19.3430 C   0  0  0  0  0  3  0  0  0  0  0  0
  -25.6340  -26.9820   17.9540 C   0  0  0  0  0  3  0  0  0  0  0  0
  -24.4820  -27.7080   18.3020 C   0  0  0  0  0  3  0  0  0  0  0  0
  -23.4010  -29.6580   19.5590 C   0  0  0  0  0  2  0  0  0  0  0  0
  -24.7640  -30.5040   21.5210 N   0  0  0  0  0  0  0  0  0  0  0  0
  -23.9150  -31.2250   23.4950 O   0  0  0  0  0  0  0  0  0  0  0  0
  -22.8720  -28.8430   21.8790 C   0  0  0  0  0  0  0  0  0  0  0  0
  -21.5470  -28.6320   21.8190 N   0  0  0  0  0  0  0  0  0  0  0  0
  -23.6340  -28.1170   22.5240 O   0  0  0  0  0  0  0  0  0  0  0  0
  -20.9890  -29.2740   21.2710 H   0  0  0  0  0  0  0  0  0  0  0  0
  -18.2800  -27.1480   22.2250 C   0  0  0  0  0  0  0  0  0  0  0  0
  -20.8200  -27.5470   22.4770 C   0  0  0  0  0  3  0  0  0  0  0  0
  -21.0050  -26.2130   21.7190 C   0  0  0  0  0  2  0  0  0  0  0  0
  -19.8990  -25.9470   20.6930 C   0  0  0  0  0  2  0  0  0  0  0  0
  -18.5290  -25.9130   21.3750 C   0  0  0  0  0  2  0  0  0  0  0  0
  -19.3580  -27.9230   22.7290 C   0  0  0  0  0  0  0  0  0  0  0  0
  -19.0760  -29.0810   23.4870 C   0  0  0  0  0  3  0  0  0  0  0  0
  -17.7470  -29.4650   23.7450 C   0  0  0  0  0  3  0  0  0  0  0  0
  -16.6830  -28.6880   23.2550 C   0  0  0  0  0  3  0  0  0  0  0  0
  -16.9500  -27.5310   22.5020 C   0  0  0  0  0  3  0  0  0  0  0  0
  -26.2840  -31.5410   23.2910 C   0  0  0  0  0  3  0  0  0  0  0  0
  -26.0780  -32.8510   23.9240 N   0  0  0  0  0  0  0  0  0  0  0  0
  -26.3730  -34.0260   23.3550 C   0  0  0  0  0  0  0  0  0  0  0  0
  -26.9230  -34.1180   22.2540 O   0  0  0  0  0  0  0  0  0  0  0  0
  -25.5760  -32.8560   24.7990 H   0  0  0  0  0  0  0  0  0  0  0  0
  -24.7130  -35.9070   23.5560 C   0  0  0  0  0  1  0  0  0  0  0  0
  -26.0020  -35.3030   24.1330 C   0  0  0  0  0  3  0  0  0  0  0  0
  -28.2420  -35.9390   24.9080 C   0  0  0  0  0  1  0  0  0  0  0  0
  -27.0700  -36.3270   24.1300 N   0  0  0  0  0  0  0  0  0  0  0  0
  -26.7240  -37.2100   24.4960 H   0  0  0  0  0  0  0  0  0  0  0  0
  -26.9430  -30.5280   24.3090 C   0  0  1  0  0  0  0  0  0  0  0  0
  -25.9890  -30.0840   25.4420 C   0  0  0  0  0  1  0  0  0  0  0  0
  -27.4370  -29.2550   23.5800 C   0  0  0  0  0  1  0  0  0  0  0  0
  -28.1900  -31.1730   24.9590 C   0  0  0  0  0  1  0  0  0  0  0  0
  2  5  1  0
  3  1  1  0
  4  2  2  0
  4  6  1  0
  5  1  2  0
  6  3  2  0
  7  5  1  0
  9  8  1  0
 10  8  1  0
 11  7  1  0
 11  9  1  0
 12 21  1  0
 12 11  1  0
 12 10  1  0
 13 21  1  0
 14 19  1  0
 15 16  1  0
 15 14  1  0
 17 16  1  0
 17 26  1  0
 17 18  1  0
 19 13  1  0
 19 18  1  0
 20 13  2  0
 21 22  1  0
 23 24  2  0
 24 43  1  0
 25 28  1  0
 25 24  1  0
 26 27  1  0
 26 23  1  0
 27 25  2  0
 28 29  1  0
 29 30  2  0
 31 34  1  0
 31 30  1  0
 32 31  2  0
 33 32  1  0
 33 28  2  0
 34 35  1  0
 35 40  2  0
 35 36  1  0
 36 37  2  0
 37 38  1  0
 38 42  1  0
 39 38  2  0
 40 39  1  0
 41 40  1  0
 43 44  1  0
 44 46  1  0
 44 47  1  0
 45 43  2  0
 48 23  1  0
 48 49  1  0
 50 48  1  0
 51  6  1  0
 52 51  1  0
 53 52  1  0
 54 55  1  0
 54 53  1  0
 55 57  1  0
 56 67  2  0
 57 62  1  0
 58 66  1  0
 58 68  1  0
 59 65  1  0
 59 61  1  0
 60 66  1  0
 61 60  1  0
 62 61  2  0
 63 64  1  0
 63 57  2  0
 64 59  2  0
 65 58  1  0
 66 56  1  0
 68 70  2  0
 69 68  1  0
 71 69  1  0
 72 81  2  0
 72 77  1  0
 73 69  1  0
 73 77  1  0
 74 73  1  0
 75 76  1  0
 75 74  1  0
 76 72  1  0
 77 78  2  0
 78 79  1  0
 80 79  2  0
 81 80  1  0
 82 56  1  0
 82 83  1  0
 82 92  1  0
 83 86  1  0
 84 83  1  0
 84 88  1  0
 85 84  2  0
 88 87  1  0
 90 88  1  0
 90 91  1  0
 90 89  1  0
 92 95  1  1
 92 93  1  0
 94 92  1  0
M  ISO  4  13 100  21 100  54 101  55 101
M  END
>  <TORSDO>  (98) 
F 22

>  <SCORE>  (98) 
-6.557

>  <name>  (98) 
97

>  <ligand_id>  (98) 
97

>  <original_smiles>  (98) 
[H]c1c([H])c([H])c2c(c1[H])C([H])([H])C([H])([H])C([H])([H])C2([H])N([H])C(=O)C1([H])N(C(=O)C([H])(N([H])C(=O)C([H])(N([H])C([H])([H])[H])C([H])([H])[H])C(C([H])([H])[H])(C([H])([H])[H])C([H])([H])[H])C([H])([H])c2c([H])c(OC([H])([H])C([H])([H])C([H])([H])C([H])([H])c3c([H])c([H])c(C([H])([H])C4([H])C([H])([H])C([H])([H])C([H])([H])C4([H])N([H])C(=O)N4C([H])([H])C([H])([H])C([H])([H])C([H])(n5nc(-c6c([H])c([H])c(Oc7c([H])c([H])c(F)c([H])c7F)c([H])c6[H])c(C(=O)N([H])[H])c5N([H])[H])C4([H])[H])c([H])c3[H])c([H])c([H])c2C1([H])[H]

>  <smiles>  (98) 
[H]c1c([H])c([H])c2c(c1[H])C([H])([H])C([H])([H])C([H])([H])C2([H])N([H])C(=O)C1([H])N(C(=O)C([H])(N([H])C(=O)C([H])(N([H])C([H])([H])[H])C([H])([H])[H])C(C([H])([H])[H])(C([H])([H])[H])C([H])([H])[H])C([H])([H])c2c([H])c(OC([H])([H])C([H])([H])C([H])([H])C([H])([H])c3c([H])c([H])c(C([H])([H])C4([H])C([H])([H])C([H])([H])C([H])([H])C4([H])N([H])C(=O)N4C([H])([H])C([H])([H])C([H])([H])C([H])(n5nc(-c6c([H])c([H])c(Oc7c([H])c([H])c(F)c([H])c7F)c([H])c6[H])c(C(=O)N([H])[H])c5N([H])[H])C4([H])[H])c([H])c3[H])c([H])c([H])c2C1([H])[H]

$$$$
