0:0:0
     RDKit          3D

 90 88  0  0  1  0  0  0  0  0999 V2000
  -21.9390  -28.4660   20.7670 C   0  0  0  0  0  1  0  0  0  0  0  0
  -21.1970  -29.3570   19.7930 N   0  0  0  0  0  4  0  0  0  0  0  0
  -21.6260  -29.8820   19.0310 H   0  0  0  0  0  0  0  0  0  0  0  0
  -20.7120  -30.0320   20.3660 H   0  0  0  0  0  0  0  0  0  0  0  0
  -20.4520  -28.7880   19.3990 H   0  0  0  0  0  0  0  0  0  0  0  0
  -22.8250  -26.5100   19.8840 C   0  0  0  0  0 15  0  0  0  0  0  0
  -23.7800  -24.5490   20.2080 C   0  0  0  0  0 15  0  0  0  0  0  0
  -25.3320  -23.0090   19.9310 C   0  0  0  0  0 15  0  0  0  0  0  0
  -26.0740  -20.9250   19.8480 C   0  0  0  0  0 15  0  0  0  0  0  0
  -27.7020  -19.4240   19.9740 C   0  0  0  0  0 15  0  0  0  0  0  0
  -29.5810  -16.3020   19.8810 C   0  0  0  0  0  0  0  0  0  0  0  0
  -30.4340  -13.7000   19.1970 C   0  0  0  0  0  2  0  0  0  0  0  0
  -29.6920  -12.9000   18.0770 C   0  0  0  0  0  2  0  0  0  0  0  0
  -28.3430  -12.3660   18.5770 C   0  0  0  0  0  2  0  0  0  0  0  0
  -27.7120  -13.4010   19.5270 C   0  0  0  0  0  3  0  0  0  0  0  0
  -28.6350  -13.9120   20.6270 C   0  0  0  0  0  2  0  0  0  0  0  0
  -29.5280  -14.7910   19.8850 N   0  0  0  0  0  0  0  0  0  0  0  0
  -30.8380  -16.4150   19.7040 O   0  0  0  0  0  0  0  0  0  0  0  0
  -28.3780  -17.5320   19.9300 N   0  0  0  0  0  2  0  0  0  0  0  0
  -27.5290  -16.9960   20.0530 H   0  0  0  0  0  0  0  0  0  0  0  0
  -25.4540  -13.9480   20.4200 C   0  0  0  0  0  0  0  0  0  0  0  0
  -24.4180  -13.1720   20.8430 C   0  0  0  0  0  0  0  0  0  0  0  0
  -24.8750  -11.8240   20.7620 C   0  0  0  0  0  0  0  0  0  0  0  0
  -26.4480  -13.0550   20.0870 N   0  0  0  0  0  0  0  0  0  0  0  0
  -26.1380  -11.7740   20.3660 N   0  0  0  0  0  0  0  0  0  0  0  0
  -24.1520  -10.5670   20.9600 C   0  0  0  0  0  0  0  0  0  0  0  0
  -24.5960   -9.5970   21.8820 C   0  0  0  0  0  3  0  0  0  0  0  0
  -23.8640   -8.4030   22.0690 C   0  0  0  0  0  3  0  0  0  0  0  0
  -22.6840   -8.1750   21.3220 C   0  0  0  0  0  0  0  0  0  0  0  0
  -22.2640   -9.1340   20.3830 C   0  0  0  0  0  3  0  0  0  0  0  0
  -22.9960  -10.3160   20.1970 C   0  0  0  0  0  3  0  0  0  0  0  0
  -21.9230   -7.0380   21.4160 O   0  0  0  0  0  0  0  0  0  0  0  0
  -21.8410   -6.3260   22.5860 C   0  0  0  0  0  0  0  0  0  0  0  0
  -21.4050   -6.9190   23.7910 C   0  0  0  0  0  3  0  0  0  0  0  0
  -21.2720   -6.1330   24.9530 C   0  0  0  0  0  3  0  0  0  0  0  0
  -21.5620   -4.7560   24.9090 C   0  0  0  0  0  0  0  0  0  0  0  0
  -21.9900   -4.1640   23.7090 C   0  0  0  0  0  3  0  0  0  0  0  0
  -22.1270   -4.9470   22.5490 C   0  0  0  0  0  0  0  0  0  0  0  0
  -22.5220   -4.3680   21.3890 F   0  0  0  0  0  0  0  0  0  0  0  0
  -21.4240   -4.0010   26.0220 F   0  0  0  0  0  0  0  0  0  0  0  0
  -23.0440  -13.6660   21.1740 C   0  0  0  0  0  0  0  0  0  0  0  0
  -22.3510  -12.9700   22.0670 N   0  0  0  0  0  0  0  0  0  0  0  0
  -22.6090  -14.7030   20.6840 O   0  0  0  0  0  0  0  0  0  0  0  0
  -22.7330  -12.1330   22.4820 H   0  0  0  0  0  0  0  0  0  0  0  0
  -21.4310  -13.2830   22.3410 H   0  0  0  0  0  0  0  0  0  0  0  0
  -25.6230  -15.3220   20.2520 N   0  0  0  0  0  0  0  0  0  0  0  0
  -24.7870  -15.8970   20.3320 H   0  0  0  0  0  0  0  0  0  0  0  0
  -26.2550  -15.6620   19.5430 H   0  0  0  0  0  0  0  0  0  0  0  0
  -22.9190  -29.5550   22.8620 C   0  0  0  0  0 15  0  0  0  0  0  0
  -25.1790  -28.8920   22.8730 O   0  0  0  0  0  1  0  0  0  0  0  0
  -24.6360  -31.6050   22.8660 C   0  0  0  0  0  0  0  0  0  0  0  0
  -26.2000  -28.0090   21.9800 C   0  0  0  0  0  3  0  0  0  0  0  0
  -24.0490  -29.2190   20.9950 C   0  0  0  0  0  2  0  0  0  0  0  0
  -25.5440  -28.7280   19.6500 C   0  0  0  0  0  3  0  0  0  0  0  0
  -26.0450  -30.8760   20.9700 C   0  0  0  0  0  2  0  0  0  0  0  0
  -26.4490  -29.5010   20.4770 C   0  0  0  0  0  3  0  0  0  0  0  0
  -27.1900  -28.7900   21.4180 C   0  0  0  0  0  2  0  0  0  0  0  0
  -25.9750  -26.9210   21.0040 C   0  0  0  0  0  2  0  0  0  0  0  0
  -25.6070  -27.3290   19.7170 C   0  0  0  0  0  2  0  0  0  0  0  0
  -24.1880  -29.2120   19.5190 C   0  0  0  0  0  2  0  0  0  0  0  0
  -24.7270  -30.7710   21.6130 N   0  0  0  0  0  0  0  0  0  0  0  0
  -23.5680  -31.9900   23.4040 O   0  0  0  0  0  0  0  0  0  0  0  0
  -23.5270  -27.3400   22.3720 C   0  0  0  0  0  2  0  0  0  0  0  0
  -22.1890  -27.2520   23.1020 N   0  0  0  0  0  0  0  0  0  0  0  0
  -24.0250  -27.0550   23.4310 O   0  0  0  0  0  1  0  0  0  0  0  0
  -22.5490  -26.8060   23.9290 H   0  0  0  0  0  0  0  0  0  0  0  0
  -18.0390  -27.8470   22.7320 C   0  0  0  0  0  0  0  0  0  0  0  0
  -20.6010  -27.4110   23.2770 C   0  0  0  0  0  3  0  0  0  0  0  0
  -20.2840  -26.1200   22.5590 C   0  0  0  0  0  2  0  0  0  0  0  0
  -19.2690  -26.1560   21.4060 C   0  0  0  0  0  2  0  0  0  0  0  0
  -17.9900  -26.4420   22.1450 C   0  0  0  0  0  2  0  0  0  0  0  0
  -19.2930  -28.4450   23.1700 C   0  0  0  0  0  0  0  0  0  0  0  0
  -19.1300  -29.7860   23.6850 C   0  0  0  0  0  3  0  0  0  0  0  0
  -17.8450  -30.4160   23.7760 C   0  0  0  0  0  3  0  0  0  0  0  0
  -16.6660  -29.7640   23.3870 C   0  0  0  0  0  3  0  0  0  0  0  0
  -16.7730  -28.4780   22.8550 C   0  0  0  0  0  3  0  0  0  0  0  0
  -25.8080  -32.2380   23.7790 C   0  0  0  0  0  3  0  0  0  0  0  0
  -26.0930  -31.5610   25.2330 C   0  0  1  0  0  0  0  0  0  0  0  0
  -24.8350  -31.4210   26.1530 C   0  0  0  0  0  1  0  0  0  0  0  0
  -26.6870  -30.1300   25.1940 C   0  0  0  0  0  1  0  0  0  0  0  0
  -27.2280  -32.3420   25.9880 C   0  0  0  0  0  1  0  0  0  0  0  0
  -25.4530  -33.6550   24.1120 N   0  0  0  0  0  0  0  0  0  0  0  0
  -25.8130  -34.7390   23.4100 C   0  0  0  0  0  0  0  0  0  0  0  0
  -26.5380  -34.6540   22.4190 O   0  0  0  0  0  0  0  0  0  0  0  0
  -24.8610  -33.7730   24.9230 H   0  0  0  0  0  0  0  0  0  0  0  0
  -24.0900  -36.5450   23.0250 C   0  0  0  0  0  1  0  0  0  0  0  0
  -25.3110  -36.1310   23.8670 C   0  0  0  0  0  3  0  0  0  0  0  0
  -27.4110  -37.0780   24.7470 C   0  0  0  0  0  1  0  0  0  0  0  0
  -26.3320  -37.2010   23.7700 N   0  0  0  0  0  0  0  0  0  0  0  0
  -25.9010  -38.1190   23.8810 H   0  0  0  0  0  0  0  0  0  0  0  0
  2  4  1  0
  2  1  1  0
  3  2  1  0
  5  2  1  0
 11 17  1  0
 11 19  1  0
 12 17  1  0
 13 14  1  0
 13 12  1  0
 15 14  1  0
 15 24  1  0
 15 16  1  0
 17 16  1  0
 18 11  2  0
 19 20  1  0
 21 22  2  0
 22 41  1  0
 23 22  1  0
 23 26  1  0
 24 25  1  0
 24 21  1  0
 25 23  2  0
 26 27  1  0
 27 28  2  0
 29 32  1  0
 29 28  1  0
 30 29  2  0
 31 30  1  0
 31 26  2  0
 32 33  1  0
 33 34  1  0
 34 35  2  0
 36 35  1  0
 36 40  1  0
 37 36  2  0
 38 33  2  0
 38 37  1  0
 39 38  1  0
 41 42  1  0
 42 45  1  0
 42 44  1  0
 43 41  2  0
 46 47  1  0
 46 21  1  0
 48 46  1  0
 51 62  2  0
 52 50  1  0
 53 61  1  0
 54 60  1  0
 54 59  1  0
 54 56  1  0
 55 61  1  0
 56 55  1  0
 56 57  1  0
 57 52  1  0
 58 52  1  0
 59 58  1  0
 60 53  1  0
 61 51  1  0
 63 64  1  0
 63 65  1  0
 64 66  1  0
 67 76  2  0
 67 72  1  0
 68 64  1  0
 69 68  1  0
 70 71  1  0
 70 69  1  0
 71 67  1  0
 72 68  1  0
 72 73  2  0
 73 74  1  0
 75 74  2  0
 76 75  1  0
 77 51  1  0
 77 82  1  0
 77 78  1  0
 78 81  1  1
 78 79  1  0
 80 78  1  0
 82 85  1  0
 83 87  1  0
 83 82  1  0
 84 83  2  0
 87 86  1  0
 89 87  1  0
 89 90  1  0
 89 88  1  0
M  ISO  4  11 100  19 100  49 101  50 101
M  END
>  <TORSDO>  (1) 
F 23

>  <SCORE>  (1) 
-13.380

>  <name>  (1) 
0

>  <ligand_id>  (1) 
0

>  <original_smiles>  (1) 
[H]c1c([H])c([H])c2c(c1[H])C([H])([H])C([H])([H])C([H])([H])C2([H])N([H])C(=O)C1([H])N(C(=O)C([H])(N([H])C(=O)C([H])(N([H])C([H])([H])[H])C([H])([H])[H])C(C([H])([H])[H])(C([H])([H])[H])C([H])([H])[H])C([H])([H])c2c([H])c(OC([H])([H])C([H])(C([H])([H])C([H])([H])C([H])([H])C([H])([H])C([H])([H])N([H])C(=O)N3C([H])([H])C([H])([H])C([H])([H])C([H])(n4nc(-c5c([H])c([H])c(Oc6c([H])c([H])c(F)c([H])c6F)c([H])c5[H])c(C(=O)N([H])[H])c4N([H])[H])C3([H])[H])[N+]([H])([H])[H])c([H])c([H])c2C1([H])[H]

>  <smiles>  (1) 
[H]c1c([H])c([H])c2c(c1[H])C([H])([H])C([H])([H])C([H])([H])C2([H])N([H])C(=O)C1([H])N(C(=O)C([H])(N([H])C(=O)C([H])(N([H])C([H])([H])[H])C([H])([H])[H])C(C([H])([H])[H])(C([H])([H])[H])C([H])([H])[H])C([H])([H])c2c([H])c(OC([H])([H])C([H])(C([H])([H])C([H])([H])C([H])([H])C([H])([H])C([H])([H])N([H])C(=O)N3C([H])([H])C([H])([H])C([H])([H])C([H])(n4nc(-c5c([H])c([H])c(Oc6c([H])c([H])c(F)c([H])c6F)c([H])c5[H])c(C(=O)N([H])[H])c4N([H])[H])C3([H])[H])[N+]([H])([H])[H])c([H])c([H])c2C1([H])[H]

$$$$
1:0:0
     RDKit          3D

 93100  0  0  1  0  0  0  0  0999 V2000
  -29.2620  -19.2080   20.2840 N   0  0  0  0  0  4  0  0  0  0  0  0
  -28.6450  -19.1070   19.4930 H   0  0  0  0  0  0  0  0  0  0  0  0
  -28.6870  -19.0810   21.1010 H   0  0  0  0  0  0  0  0  0  0  0  0
  -29.7050  -20.7210   20.2930 C   0  0  0  0  0  3  0  0  0  0  0  0
  -28.6140  -21.9820   20.1910 C   0  0  0  0  0  3  0  0  0  0  0  0
  -29.0020  -23.6060   20.2740 C   0  0  0  0  0  3  0  0  0  0  0  0
  -27.9070  -24.8420   20.0570 C   0  0  0  0  0  3  0  0  0  0  0  0
  -28.1780  -26.3560   20.1370 O   0  0  0  0  0  0  0  0  0  0  0  0
  -24.5710  -31.9500   23.2190 C   0  0  0  0  0  0  0  0  0  0  0  0
  -27.1010  -27.3030   20.0970 C   0  0  0  0  0  0  0  0  0  0  0  0
  -23.3370  -30.5600   21.6000 C   0  0  0  0  0  3  0  0  0  0  0  0
  -24.7570  -29.0080   20.1310 C   0  0  0  0  0  0  0  0  0  0  0  0
  -25.8810  -30.8510   21.3700 C   0  0  0  0  0  2  0  0  0  0  0  0
  -25.9470  -29.4670   20.7100 C   0  0  0  0  0  0  0  0  0  0  0  0
  -27.1210  -28.6300   20.6750 C   0  0  0  0  0  3  0  0  0  0  0  0
  -25.8820  -26.9350   19.4850 C   0  0  0  0  0  3  0  0  0  0  0  0
  -24.7350  -27.7540   19.5030 C   0  0  0  0  0  3  0  0  0  0  0  0
  -23.5260  -29.8940   20.2110 C   0  0  0  0  0  2  0  0  0  0  0  0
  -24.6170  -31.1400   22.1180 N   0  0  0  0  0  0  0  0  0  0  0  0
  -23.4970  -32.2280   23.7740 O   0  0  0  0  0  0  0  0  0  0  0  0
  -22.6860  -29.5420   22.5690 C   0  0  0  0  0  0  0  0  0  0  0  0
  -21.3580  -29.3580   22.4630 N   0  0  0  0  0  0  0  0  0  0  0  0
  -23.3790  -28.9210   23.3800 O   0  0  0  0  0  0  0  0  0  0  0  0
  -20.8570  -29.9150   21.7860 H   0  0  0  0  0  0  0  0  0  0  0  0
  -18.0040  -28.0940   22.9830 C   0  0  0  0  0  0  0  0  0  0  0  0
  -20.5570  -28.4130   23.2460 C   0  0  0  0  0  3  0  0  0  0  0  0
  -20.6890  -26.9760   22.6890 C   0  0  0  0  0  2  0  0  0  0  0  0
  -19.5930  -26.6170   21.6790 C   0  0  0  0  0  2  0  0  0  0  0  0
  -18.2090  -26.7410   22.3230 C   0  0  0  0  0  2  0  0  0  0  0  0
  -19.1070  -28.8850   23.4020 C   0  0  0  0  0  0  0  0  0  0  0  0
  -18.8600  -30.1480   23.9820 C   0  0  0  0  0  3  0  0  0  0  0  0
  -17.5450  -30.6230   24.1440 C   0  0  0  0  0  3  0  0  0  0  0  0
  -16.4570  -29.8300   23.7390 C   0  0  0  0  0  3  0  0  0  0  0  0
  -16.6880  -28.5670   23.1670 C   0  0  0  0  0  3  0  0  0  0  0  0
  -25.8630  -32.5850   23.8190 C   0  0  0  0  0  3  0  0  0  0  0  0
  -26.4010  -31.8140   25.0870 C   0  0  1  0  0  0  0  0  0  0  0  0
  -25.3260  -31.5800   26.1760 C   0  0  0  0  0  1  0  0  0  0  0  0
  -26.9720  -30.4340   24.6860 C   0  0  0  0  0  1  0  0  0  0  0  0
  -27.5670  -32.6040   25.7260 C   0  0  0  0  0  1  0  0  0  0  0  0
  -25.5570  -33.9820   24.1610 N   0  0  0  0  0  0  0  0  0  0  0  0
  -25.8950  -35.0420   23.4120 C   0  0  0  0  0  0  0  0  0  0  0  0
  -26.5630  -34.9450   22.3800 O   0  0  0  0  0  0  0  0  0  0  0  0
  -24.9630  -34.1330   24.9620 H   0  0  0  0  0  0  0  0  0  0  0  0
  -24.1760  -36.8510   23.0810 C   0  0  0  0  0  1  0  0  0  0  0  0
  -25.4160  -36.4300   23.8850 C   0  0  0  0  0  3  0  0  0  0  0  0
  -27.5610  -37.2900   24.7170 C   0  0  0  0  0  1  0  0  0  0  0  0
  -26.4550  -37.4770   23.7800 N   0  0  0  0  0  0  0  0  0  0  0  0
  -26.0560  -38.3980   23.9430 H   0  0  0  0  0  0  0  0  0  0  0  0
  -30.2690  -17.9850   20.2200 C   0  0  0  0  0  3  0  0  0  0  0  0
  -31.5440  -18.2760   21.0540 C   0  0  0  0  0  2  0  0  0  0  0  0
  -32.6150  -19.1170   20.3540 C   0  0  0  0  0  0  0  0  0  0  0  0
  -32.3270  -19.9710   19.5100 O   0  0  0  0  0  0  0  0  0  0  0  0
  -34.0600  -18.8510   20.7800 C   0  0  0  0  0  2  0  0  0  0  0  0
  -35.0650  -19.9230   20.3280 C   0  0  0  0  0  2  0  0  0  0  0  0
  -37.5030  -20.6870   20.4330 C   0  0  0  0  0  1  0  0  0  0  0  0
  -36.4800  -19.6230   20.8460 C   0  0  0  0  0  2  0  0  0  0  0  0
  -29.7610  -16.4370   20.5990 C   0  0  0  0  0  2  0  0  0  0  0  0
  -30.6690  -15.0620   20.5100 C   0  0  0  0  0  0  0  0  0  0  0  0
  -30.6310  -12.6950   19.6290 C   0  0  0  0  0  2  0  0  0  0  0  0
  -29.7480  -12.6530   18.3580 C   0  0  0  0  0  2  0  0  0  0  0  0
  -28.2650  -12.4480   18.7250 C   0  0  0  0  0  2  0  0  0  0  0  0
  -27.8050  -13.3870   19.8690 C   0  0  0  0  0  3  0  0  0  0  0  0
  -28.8100  -13.4010   21.0400 C   0  0  0  0  0  2  0  0  0  0  0  0
  -30.1200  -13.7860   20.5010 N   0  0  0  0  0  0  0  0  0  0  0  0
  -31.8750  -15.1620   20.2640 O   0  0  0  0  0  0  0  0  0  0  0  0
  -25.3900  -13.9620   20.4980 C   0  0  0  0  0  0  0  0  0  0  0  0
  -24.3160  -13.1850   20.8360 C   0  0  0  0  0  0  0  0  0  0  0  0
  -24.7920  -11.8380   20.8460 C   0  0  0  0  0  0  0  0  0  0  0  0
  -26.4480  -13.0890   20.3150 N   0  0  0  0  0  0  0  0  0  0  0  0
  -26.0950  -11.8070   20.5910 N   0  0  0  0  0  0  0  0  0  0  0  0
  -24.0680  -10.5730   21.0260 C   0  0  0  0  0  0  0  0  0  0  0  0
  -24.4620   -9.6270   21.9980 C   0  0  0  0  0  3  0  0  0  0  0  0
  -23.7370   -8.4280   22.1660 C   0  0  0  0  0  3  0  0  0  0  0  0
  -22.6030   -8.1650   21.3590 C   0  0  0  0  0  0  0  0  0  0  0  0
  -22.2290   -9.0990   20.3780 C   0  0  0  0  0  3  0  0  0  0  0  0
  -22.9550  -10.2900   20.2090 C   0  0  0  0  0  3  0  0  0  0  0  0
  -21.8540   -7.0150   21.4330 O   0  0  0  0  0  0  0  0  0  0  0  0
  -21.7380   -6.3060   22.6010 C   0  0  0  0  0  0  0  0  0  0  0  0
  -21.2500   -6.8960   23.7870 C   0  0  0  0  0  3  0  0  0  0  0  0
  -21.0810   -6.1120   24.9450 C   0  0  0  0  0  3  0  0  0  0  0  0
  -21.3910   -4.7400   24.9190 C   0  0  0  0  0  0  0  0  0  0  0  0
  -21.8730   -4.1490   23.7380 C   0  0  0  0  0  3  0  0  0  0  0  0
  -22.0420   -4.9290   22.5810 C   0  0  0  0  0  0  0  0  0  0  0  0
  -22.4860   -4.3500   21.4400 F   0  0  0  0  0  0  0  0  0  0  0  0
  -21.2220   -3.9850   26.0310 F   0  0  0  0  0  0  0  0  0  0  0  0
  -22.9050  -13.6540   21.0400 C   0  0  0  0  0  0  0  0  0  0  0  0
  -22.1510  -12.9740   21.8960 N   0  0  0  0  0  0  0  0  0  0  0  0
  -22.4780  -14.6600   20.4750 O   0  0  0  0  0  0  0  0  0  0  0  0
  -22.5090  -12.1600   22.3730 H   0  0  0  0  0  0  0  0  0  0  0  0
  -21.2030  -13.2720   22.0780 H   0  0  0  0  0  0  0  0  0  0  0  0
  -25.5480  -15.3330   20.3080 N   0  0  0  0  0  0  0  0  0  0  0  0
  -24.7680  -15.9770   20.3760 H   0  0  0  0  0  0  0  0  0  0  0  0
  -26.4030  -15.7750   19.9950 H   0  0  0  0  0  0  0  0  0  0  0  0
  1  4  1  0
  1  3  1  0
  2  1  1  0
  5  6  1  0
  5  4  2  0
  7  8  1  0
  7  6  2  0
  9 20  2  0
 10  8  1  0
 10 15  1  0
 11 19  1  0
 11 21  1  0
 12 18  1  0
 12 14  1  0
 13 19  1  0
 14 13  1  0
 15 14  2  0
 16 17  1  0
 16 10  2  0
 17 12  2  0
 18 11  1  0
 19  9  1  0
 21 23  2  0
 22 21  1  0
 24 22  1  0
 25 34  2  0
 25 30  1  0
 26 22  1  0
 26 30  1  0
 27 26  1  0
 28 29  1  0
 28 27  1  0
 29 25  1  0
 30 31  2  0
 31 32  1  0
 33 32  2  0
 34 33  1  0
 35  9  1  0
 35 40  1  0
 35 36  1  0
 36 39  1  1
 36 37  1  0
 38 36  1  0
 40 43  1  0
 41 45  1  0
 41 40  1  0
 42 41  2  0
 45 44  1  0
 47 45  1  0
 47 48  1  0
 47 46  1  0
 49  1  1  0
 49 57  1  0
 49 50  1  0
 51 53  1  0
 51 50  1  0
 52 51  2  0
 54 53  1  0
 54 56  1  0
 55 56  1  0
 58 57  1  0
 59 64  1  0
 60 61  1  0
 60 59  1  0
 62 61  1  0
 62 69  1  0
 62 63  1  0
 64 58  1  0
 64 63  1  0
 65 58  2  0
 66 67  2  0
 67 68  1  0
 67 86  1  0
 68 71  1  0
 69 66  1  0
 69 70  1  0
 70 68  2  0
 71 72  1  0
 72 73  2  0
 74 77  1  0
 74 73  1  0
 75 74  2  0
 76 75  1  0
 76 71  2  0
 77 78  1  0
 78 79  1  0
 79 80  2  0
 81 80  1  0
 81 85  1  0
 82 81  2  0
 83 78  2  0
 83 82  1  0
 84 83  1  0
 86 87  1  0
 87 90  1  0
 87 89  1  0
 88 86  2  0
 91 92  1  0
 91 66  1  0
 93 91  1  0
M  ISO  4   7 101   8 101  57 100  58 100
M  END
>  <TORSDO>  (2) 
F 27

>  <SCORE>  (2) 
-11.549

>  <name>  (2) 
1

>  <ligand_id>  (2) 
1

>  <original_smiles>  (2) 
[H]c1c([H])c([H])c2c(c1[H])C([H])([H])C([H])([H])C([H])([H])C2([H])N([H])C(=O)C1([H])N(C(=O)C([H])(N([H])C(=O)C([H])(N([H])C([H])([H])[H])C([H])([H])[H])C(C([H])([H])[H])(C([H])([H])[H])C([H])([H])[H])C([H])([H])c2c([H])c(OC([H])([H])C([H])([H])C([H])([H])C([H])([H])[N+]([H])([H])C([H])(C([H])([H])C(=O)N3C([H])([H])C([H])([H])C([H])([H])C([H])(n4nc(-c5c([H])c([H])c(Oc6c([H])c([H])c(F)c([H])c6F)c([H])c5[H])c(C(=O)N([H])[H])c4N([H])[H])C3([H])[H])C([H])([H])C(=O)C([H])([H])C([H])([H])C([H])([H])C([H])([H])[H])c([H])c([H])c2C1([H])[H]

>  <smiles>  (2) 
[H]c1c([H])c([H])c2c(c1[H])C([H])([H])C([H])([H])C([H])([H])C2([H])N([H])C(=O)C1([H])N(C(=O)C([H])(N([H])C(=O)C([H])(N([H])C([H])([H])[H])C([H])([H])[H])C(C([H])([H])[H])(C([H])([H])[H])C([H])([H])[H])C([H])([H])c2c([H])c(OC([H])([H])C([H])([H])C([H])([H])C([H])([H])[N+]([H])([H])C([H])(C([H])([H])C(=O)N3C([H])([H])C([H])([H])C([H])([H])C([H])(n4nc(-c5c([H])c([H])c(Oc6c([H])c([H])c(F)c([H])c6F)c([H])c5[H])c(C(=O)N([H])[H])c4N([H])[H])C3([H])[H])C([H])([H])C(=O)C([H])([H])C([H])([H])C([H])([H])C([H])([H])[H])c([H])c([H])c2C1([H])[H]

$$$$
2:0:0
     RDKit          3D

 97105  0  0  1  0  0  0  0  0999 V2000
  -29.9290  -24.0470   20.8930 C   0  0  0  0  0  3  0  0  0  0  0  0
  -29.7020  -22.6570   20.9120 C   0  0  0  0  0  3  0  0  0  0  0  0
  -27.5360  -24.4300   21.0880 C   0  0  0  0  0  3  0  0  0  0  0  0
  -28.8440  -24.9400   21.0050 C   0  0  0  0  0  0  0  0  0  0  0  0
  -28.3970  -22.1340   21.0510 C   0  0  0  0  0  0  0  0  0  0  0  0
  -27.3010  -23.0360   21.1210 C   0  0  0  0  0  0  0  0  0  0  0  0
  -25.8670  -22.5540   21.2670 C   0  0  0  0  0  1  0  0  0  0  0  0
  -28.2230  -20.6170   21.2040 C   0  0  0  0  0  2  0  0  0  0  0  0
  -28.0140  -19.8930   19.9300 N   0  0  0  0  0  4  0  0  0  0  0  0
  -27.4000  -20.4630   19.3730 H   0  0  0  0  0  0  0  0  0  0  0  0
  -27.5250  -19.0340   20.1260 H   0  0  0  0  0  0  0  0  0  0  0  0
  -29.2100  -19.5920   19.1040 C   0  0  0  0  0  3  0  0  0  0  0  0
  -28.6320  -21.2820   17.2270 C   0  0  0  0  0  1  0  0  0  0  0  0
  -28.8530  -19.8080   17.6170 C   0  0  0  0  0  2  0  0  0  0  0  0
  -29.7410  -18.1390   19.3090 C   0  0  0  0  0  2  0  0  0  0  0  0
  -30.6880  -17.9320   20.5110 C   0  0  0  0  0  2  0  0  0  0  0  0
  -31.6450  -16.7220   20.3960 C   0  0  0  0  0  2  0  0  0  0  0  0
  -31.6020  -14.2690   20.1510 C   0  0  0  0  0  0  0  0  0  0  0  0
  -31.0930  -12.0250   19.2720 C   0  0  0  0  0  2  0  0  0  0  0  0
  -30.1570  -12.1650   18.0550 C   0  0  0  0  0  2  0  0  0  0  0  0
  -28.6860  -12.1930   18.5090 C   0  0  0  0  0  2  0  0  0  0  0  0
  -28.4400  -13.2080   19.6570 C   0  0  0  0  0  3  0  0  0  0  0  0
  -29.4870  -13.0530   20.7820 C   0  0  0  0  0  2  0  0  0  0  0  0
  -30.8240  -13.1570   20.1750 N   0  0  0  0  0  0  0  0  0  0  0  0
  -32.7110  -14.2980   19.6070 O   0  0  0  0  0  0  0  0  0  0  0  0
  -31.0450  -15.4000   20.6220 N   0  0  0  0  0  0  0  0  0  0  0  0
  -30.1370  -15.3420   21.0580 H   0  0  0  0  0  0  0  0  0  0  0  0
  -26.1690  -14.1110   20.4520 C   0  0  0  0  0  0  0  0  0  0  0  0
  -25.0200  -13.4780   20.8420 C   0  0  0  0  0  0  0  0  0  0  0  0
  -25.2960  -12.0770   20.7680 C   0  0  0  0  0  0  0  0  0  0  0  0
  -27.0780  -13.1040   20.1710 N   0  0  0  0  0  0  0  0  0  0  0  0
  -26.5580  -11.8730   20.4190 N   0  0  0  0  0  0  0  0  0  0  0  0
  -24.4150  -10.9180   20.9560 C   0  0  0  0  0  0  0  0  0  0  0  0
  -24.7660   -9.8560   21.8180 C   0  0  0  0  0  3  0  0  0  0  0  0
  -23.8940   -8.7610   21.9970 C   0  0  0  0  0  3  0  0  0  0  0  0
  -22.6560   -8.7200   21.3140 C   0  0  0  0  0  0  0  0  0  0  0  0
  -22.3220   -9.7690   20.4370 C   0  0  0  0  0  3  0  0  0  0  0  0
  -23.1930  -10.8560   20.2570 C   0  0  0  0  0  3  0  0  0  0  0  0
  -21.7580   -7.6850   21.4080 O   0  0  0  0  0  0  0  0  0  0  0  0
  -21.6910   -6.8870   22.5220 C   0  0  0  0  0  0  0  0  0  0  0  0
  -21.4600   -7.4220   23.8080 C   0  0  0  0  0  3  0  0  0  0  0  0
  -21.3260   -6.5610   24.9150 C   0  0  0  0  0  3  0  0  0  0  0  0
  -21.4160   -5.1670   24.7400 C   0  0  0  0  0  0  0  0  0  0  0  0
  -21.6430   -4.6330   23.4590 C   0  0  0  0  0  3  0  0  0  0  0  0
  -21.7760   -5.4900   22.3540 C   0  0  0  0  0  0  0  0  0  0  0  0
  -21.9730   -4.9670   21.1190 F   0  0  0  0  0  0  0  0  0  0  0  0
  -21.2800   -4.3400   25.8020 F   0  0  0  0  0  0  0  0  0  0  0  0
  -23.7080  -14.1290   21.1720 C   0  0  0  0  0  0  0  0  0  0  0  0
  -22.9370  -13.5240   22.0680 N   0  0  0  0  0  0  0  0  0  0  0  0
  -23.3840  -15.2050   20.6710 O   0  0  0  0  0  0  0  0  0  0  0  0
  -23.2170  -12.6520   22.4920 H   0  0  0  0  0  0  0  0  0  0  0  0
  -22.0540  -13.9380   22.3350 H   0  0  0  0  0  0  0  0  0  0  0  0
  -26.5160  -15.4500   20.2880 N   0  0  0  0  0  0  0  0  0  0  0  0
  -25.8360  -16.1970   20.3780 H   0  0  0  0  0  0  0  0  0  0  0  0
  -27.3860  -15.7480   19.8670 H   0  0  0  0  0  0  0  0  0  0  0  0
  -29.0830  -26.4410   21.0710 C   0  0  0  0  0  2  0  0  0  0  0  0
  -28.6050  -27.1040   19.9080 O   0  0  0  0  0  0  0  0  0  0  0  0
  -24.6140  -31.9890   23.2810 C   0  0  0  0  0  0  0  0  0  0  0  0
  -27.4260  -27.7940   20.0290 C   0  0  0  0  0  0  0  0  0  0  0  0
  -23.4660  -30.6360   21.5560 C   0  0  0  0  0  3  0  0  0  0  0  0
  -24.9820  -29.2060   20.0870 C   0  0  0  0  0  0  0  0  0  0  0  0
  -25.9820  -31.0760   21.4130 C   0  0  0  0  0  2  0  0  0  0  0  0
  -26.1130  -29.7380   20.7200 C   0  0  0  0  0  0  0  0  0  0  0  0
  -27.3380  -29.0370   20.6960 C   0  0  0  0  0  3  0  0  0  0  0  0
  -26.2850  -27.2710   19.3930 C   0  0  0  0  0  3  0  0  0  0  0  0
  -25.0600  -27.9680   19.4250 C   0  0  0  0  0  3  0  0  0  0  0  0
  -23.7130  -30.0250   20.1490 C   0  0  0  0  0  2  0  0  0  0  0  0
  -24.7040  -31.2460   22.1420 N   0  0  0  0  0  0  0  0  0  0  0  0
  -23.5200  -32.2060   23.8190 O   0  0  0  0  0  0  0  0  0  0  0  0
  -22.8320  -29.5530   22.4580 C   0  0  0  0  0  0  0  0  0  0  0  0
  -21.5110  -29.3550   22.3150 N   0  0  0  0  0  0  0  0  0  0  0  0
  -23.5230  -28.8940   23.2380 O   0  0  0  0  0  0  0  0  0  0  0  0
  -21.0130  -29.9370   21.6560 H   0  0  0  0  0  0  0  0  0  0  0  0
  -18.1470  -28.1230   22.7680 C   0  0  0  0  0  0  0  0  0  0  0  0
  -20.7070  -28.3610   23.0280 C   0  0  0  0  0  3  0  0  0  0  0  0
  -20.8030  -26.9750   22.3490 C   0  0  0  0  0  2  0  0  0  0  0  0
  -19.6910  -26.7260   21.3270 C   0  0  0  0  0  2  0  0  0  0  0  0
  -18.3150  -26.8240   21.9950 C   0  0  0  0  0  2  0  0  0  0  0  0
  -19.2700  -28.8520   23.2370 C   0  0  0  0  0  0  0  0  0  0  0  0
  -19.0610  -30.0720   23.9160 C   0  0  0  0  0  3  0  0  0  0  0  0
  -17.7580  -30.5610   24.1330 C   0  0  0  0  0  3  0  0  0  0  0  0
  -16.6490  -29.8240   23.6830 C   0  0  0  0  0  3  0  0  0  0  0  0
  -16.8430  -28.6080   23.0070 C   0  0  0  0  0  3  0  0  0  0  0  0
  -25.8760  -32.6190   23.9490 C   0  0  0  0  0  3  0  0  0  0  0  0
  -25.5610  -34.0190   24.2540 N   0  0  0  0  0  0  0  0  0  0  0  0
  -25.9230  -35.0630   23.4950 C   0  0  0  0  0  0  0  0  0  0  0  0
  -26.6310  -34.9460   22.4900 O   0  0  0  0  0  0  0  0  0  0  0  0
  -24.9370  -34.1840   25.0290 H   0  0  0  0  0  0  0  0  0  0  0  0
  -24.2050  -36.8480   23.0630 C   0  0  0  0  0  1  0  0  0  0  0  0
  -25.4210  -36.4560   23.9180 C   0  0  0  0  0  3  0  0  0  0  0  0
  -27.5340  -37.3480   24.7980 C   0  0  0  0  0  1  0  0  0  0  0  0
  -26.4560  -37.5080   23.8240 N   0  0  0  0  0  0  0  0  0  0  0  0
  -26.0470  -38.4300   23.9530 H   0  0  0  0  0  0  0  0  0  0  0  0
  -26.3420  -31.8520   25.2490 C   0  0  1  0  0  0  0  0  0  0  0  0
  -25.2030  -31.6080   26.2650 C   0  0  0  0  0  1  0  0  0  0  0  0
  -26.9540  -30.4790   24.8830 C   0  0  0  0  0  1  0  0  0  0  0  0
  -27.4550  -32.6580   25.9610 C   0  0  0  0  0  1  0  0  0  0  0  0
  1  2  2  0
  1  4  1  0
  2  5  1  0
  3  6  1  0
  4 56  1  0
  4  3  2  0
  5  6  2  0
  5  8  1  0
  6  7  1  0
  9 11  1  0
  9  8  1  0
 10  9  1  0
 12 14  1  0
 12 15  1  0
 12  9  1  0
 13 14  1  0
 15 16  1  0
 17 16  1  0
 17 26  1  0
 18 24  1  0
 18 26  1  0
 19 24  1  0
 20 21  1  0
 20 19  1  0
 22 21  1  0
 22 31  1  0
 22 23  1  0
 24 23  1  0
 25 18  2  0
 26 27  1  0
 28 29  2  0
 29 48  1  0
 30 29  1  0
 30 33  1  0
 31 32  1  0
 31 28  1  0
 32 30  2  0
 33 34  1  0
 34 35  2  0
 36 39  1  0
 36 35  1  0
 37 36  2  0
 38 37  1  0
 38 33  2  0
 39 40  1  0
 40 41  1  0
 41 42  2  0
 43 42  1  0
 43 47  1  0
 44 43  2  0
 45 40  2  0
 45 44  1  0
 46 45  1  0
 48 49  1  0
 49 52  1  0
 49 51  1  0
 50 48  2  0
 53 54  1  0
 53 28  1  0
 55 53  1  0
 57 59  1  0
 57 56  1  0
 58 69  2  0
 59 64  1  0
 60 68  1  0
 60 70  1  0
 61 67  1  0
 61 63  1  0
 62 68  1  0
 63 62  1  0
 64 63  2  0
 65 66  1  0
 65 59  2  0
 66 61  2  0
 67 60  1  0
 68 58  1  0
 70 72  2  0
 71 70  1  0
 73 71  1  0
 74 83  2  0
 74 79  1  0
 75 71  1  0
 75 79  1  0
 76 75  1  0
 77 78  1  0
 77 76  1  0
 78 74  1  0
 79 80  2  0
 80 81  1  0
 82 81  2  0
 83 82  1  0
 84 58  1  0
 84 85  1  0
 84 94  1  0
 85 88  1  0
 86 90  1  0
 86 85  1  0
 87 86  2  0
 90 89  1  0
 92 90  1  0
 92 93  1  0
 92 91  1  0
 94 97  1  1
 94 95  1  0
 96 94  1  0
M  ISO  4  18 100  26 100  56 101  57 101
M  END
>  <TORSDO>  (3) 
F 24

>  <SCORE>  (3) 
-11.151

>  <name>  (3) 
2

>  <ligand_id>  (3) 
2

>  <original_smiles>  (3) 
[H]c1c([H])c([H])c2c(c1[H])C([H])([H])C([H])([H])C([H])([H])C2([H])N([H])C(=O)C1([H])N(C(=O)C([H])(N([H])C(=O)C([H])(N([H])C([H])([H])[H])C([H])([H])[H])C(C([H])([H])[H])(C([H])([H])[H])C([H])([H])[H])C([H])([H])c2c([H])c(OC([H])([H])c3c([H])c([H])c(C([H])([H])[N+]([H])([H])C([H])(C([H])([H])C([H])([H])[H])C([H])([H])C([H])([H])C([H])([H])N([H])C(=O)N4C([H])([H])C([H])([H])C([H])([H])C([H])(n5nc(-c6c([H])c([H])c(Oc7c([H])c([H])c(F)c([H])c7F)c([H])c6[H])c(C(=O)N([H])[H])c5N([H])[H])C4([H])[H])c(C([H])([H])[H])c3[H])c([H])c([H])c2C1([H])[H]

>  <smiles>  (3) 
[H]c1c([H])c([H])c2c(c1[H])C([H])([H])C([H])([H])C([H])([H])C2([H])N([H])C(=O)C1([H])N(C(=O)C([H])(N([H])C(=O)C([H])(N([H])C([H])([H])[H])C([H])([H])[H])C(C([H])([H])[H])(C([H])([H])[H])C([H])([H])[H])C([H])([H])c2c([H])c(OC([H])([H])c3c([H])c([H])c(C([H])([H])[N+]([H])([H])C([H])(C([H])([H])C([H])([H])[H])C([H])([H])C([H])([H])C([H])([H])N([H])C(=O)N4C([H])([H])C([H])([H])C([H])([H])C([H])(n5nc(-c6c([H])c([H])c(Oc7c([H])c([H])c(F)c([H])c7F)c([H])c6[H])c(C(=O)N([H])[H])c5N([H])[H])C4([H])[H])c(C([H])([H])[H])c3[H])c([H])c([H])c2C1([H])[H]

$$$$
3:0:0
     RDKit          3D

 95104  0  0  1  0  0  0  0  0999 V2000
  -29.0720  -21.0450   22.7900 C   0  0  0  0  0  3  0  0  0  0  0  0
  -28.1510  -21.9590   22.2520 C   0  0  0  0  0  3  0  0  0  0  0  0
  -30.9060  -22.3680   21.9060 C   0  0  0  0  0  3  0  0  0  0  0  0
  -30.4560  -21.2210   22.5900 C   0  0  0  0  0  0  0  0  0  0  0  0
  -28.6010  -23.0980   21.5510 C   0  0  0  0  0  0  0  0  0  0  0  0
  -29.9930  -23.3300   21.3950 C   0  0  0  0  0  0  0  0  0  0  0  0
  -27.5640  -24.0400   20.9550 C   0  0  0  0  0  1  0  0  0  0  0  0
  -31.4660  -20.2230   23.1620 C   0  0  0  0  0  2  0  0  0  0  0  0
  -32.0320  -15.1340   20.6440 C   0  0  0  0  0  0  0  0  0  0  0  0
  -31.6300  -13.0650   19.3630 C   0  0  0  0  0  2  0  0  0  0  0  0
  -30.7250  -13.3700   18.1500 C   0  0  0  0  0  2  0  0  0  0  0  0
  -29.2330  -13.2980   18.5420 C   0  0  0  0  0  2  0  0  0  0  0  0
  -28.9150  -14.0770   19.8480 C   0  0  0  0  0  3  0  0  0  0  0  0
  -29.9300  -13.6890   20.9440 C   0  0  0  0  0  2  0  0  0  0  0  0
  -31.2730  -14.0140   20.4350 N   0  0  0  0  0  0  0  0  0  0  0  0
  -33.1770  -15.2100   20.1820 O   0  0  0  0  0  0  0  0  0  0  0  0
  -31.2900  -18.8460   20.9700 C   0  0  0  0  0  2  0  0  0  0  0  0
  -30.6880  -17.7380   23.0740 C   0  0  0  0  0  3  0  0  0  0  0  0
  -31.7930  -17.5360   20.3410 C   0  0  0  0  0  2  0  0  0  0  0  0
  -30.7170  -16.3740   22.3470 C   0  0  0  0  0  3  0  0  0  0  0  0
  -31.5720  -18.8330   22.4700 C   0  0  0  0  0  3  0  0  0  0  0  0
  -31.4030  -16.2810   21.0380 N   0  0  0  0  0  0  0  0  0  0  0  0
  -26.5320  -14.7910   20.5070 C   0  0  0  0  0  0  0  0  0  0  0  0
  -25.4140  -14.0630   20.8210 C   0  0  0  0  0  0  0  0  0  0  0  0
  -25.8050  -12.6910   20.7520 C   0  0  0  0  0  0  0  0  0  0  0  0
  -27.5350  -13.8620   20.2770 N   0  0  0  0  0  0  0  0  0  0  0  0
  -27.0990  -12.5930   20.4740 N   0  0  0  0  0  0  0  0  0  0  0  0
  -25.0110  -11.4620   20.8780 C   0  0  0  0  0  0  0  0  0  0  0  0
  -25.3190  -10.4810   21.8450 C   0  0  0  0  0  3  0  0  0  0  0  0
  -24.5290   -9.3170   21.9610 C   0  0  0  0  0  3  0  0  0  0  0  0
  -23.4170   -9.1260   21.1080 C   0  0  0  0  0  0  0  0  0  0  0  0
  -23.1290  -10.0960   20.1300 C   0  0  0  0  0  3  0  0  0  0  0  0
  -23.9200  -11.2510   20.0140 C   0  0  0  0  0  3  0  0  0  0  0  0
  -22.6120   -8.0120   21.1290 O   0  0  0  0  0  0  0  0  0  0  0  0
  -22.3180   -7.3610   22.3000 C   0  0  0  0  0  0  0  0  0  0  0  0
  -21.6970   -8.0180   23.3850 C   0  0  0  0  0  3  0  0  0  0  0  0
  -21.3470   -7.2920   24.5410 C   0  0  0  0  0  3  0  0  0  0  0  0
  -21.6120   -5.9100   24.6120 C   0  0  0  0  0  0  0  0  0  0  0  0
  -22.2240   -5.2540   23.5300 C   0  0  0  0  0  3  0  0  0  0  0  0
  -22.5750   -5.9760   22.3770 C   0  0  0  0  0  0  0  0  0  0  0  0
  -23.1460   -5.3340   21.3300 F   0  0  0  0  0  0  0  0  0  0  0  0
  -21.2690   -5.2110   25.7190 F   0  0  0  0  0  0  0  0  0  0  0  0
  -24.0380  -14.6050   21.0760 C   0  0  0  0  0  0  0  0  0  0  0  0
  -23.2690  -13.9410   21.9310 N   0  0  0  0  0  0  0  0  0  0  0  0
  -23.6550  -15.6510   20.5530 O   0  0  0  0  0  0  0  0  0  0  0  0
  -23.5940  -13.0950   22.3720 H   0  0  0  0  0  0  0  0  0  0  0  0
  -22.3440  -14.2840   22.1440 H   0  0  0  0  0  0  0  0  0  0  0  0
  -26.7770  -16.1540   20.3820 N   0  0  0  0  0  0  0  0  0  0  0  0
  -26.0450  -16.8480   20.4950 H   0  0  0  0  0  0  0  0  0  0  0  0
  -27.6710  -16.5540   20.1220 H   0  0  0  0  0  0  0  0  0  0  0  0
  -30.4710  -24.5850   20.6530 C   0  0  0  0  0  2  0  0  0  0  0  0
  -31.9520  -24.9930   20.8400 C   0  0  0  0  0  2  0  0  0  0  0  0
  -32.2730  -25.7000   22.1980 C   0  0  0  0  0  2  0  0  0  0  0  0
  -32.7420  -27.1760   22.4270 C   0  0  0  0  0  2  0  0  0  0  0  0
  -32.3900  -28.0350   21.3360 O   0  0  0  0  0  0  0  0  0  0  0  0
  -26.8840  -30.9450   24.7880 C   0  0  0  0  0  0  0  0  0  0  0  0
  -31.0820  -28.4450   21.3100 C   0  0  0  0  0  0  0  0  0  0  0  0
  -26.3650  -29.8580   22.6210 C   0  0  0  0  0  3  0  0  0  0  0  0
  -28.3800  -29.2340   21.1890 C   0  0  0  0  0  0  0  0  0  0  0  0
  -28.6700  -30.8640   23.0630 C   0  0  0  0  0  2  0  0  0  0  0  0
  -29.2370  -29.8130   22.1340 C   0  0  0  0  0  0  0  0  0  0  0  0
  -30.5880  -29.4140   22.2090 C   0  0  0  0  0  3  0  0  0  0  0  0
  -30.2220  -27.9010   20.3370 C   0  0  0  0  0  3  0  0  0  0  0  0
  -28.8660  -28.2710   20.2860 C   0  0  0  0  0  3  0  0  0  0  0  0
  -26.9450  -29.7060   21.1870 C   0  0  0  0  0  2  0  0  0  0  0  0
  -27.3110  -30.5530   23.5540 N   0  0  0  0  0  0  0  0  0  0  0  0
  -25.7110  -30.7730   25.1440 O   0  0  0  0  0  0  0  0  0  0  0  0
  -25.9210  -28.4690   23.1280 C   0  0  0  0  0  0  0  0  0  0  0  0
  -24.7560  -28.0030   22.6510 N   0  0  0  0  0  0  0  0  0  0  0  0
  -26.6280  -27.8250   23.9070 O   0  0  0  0  0  0  0  0  0  0  0  0
  -24.2280  -28.6020   22.0310 H   0  0  0  0  0  0  0  0  0  0  0  0
  -21.8940  -25.8970   22.0140 C   0  0  0  0  0  0  0  0  0  0  0  0
  -24.1570  -26.7060   22.9590 C   0  0  0  0  0  3  0  0  0  0  0  0
  -24.7990  -25.5820   22.1140 C   0  0  0  0  0  2  0  0  0  0  0  0
  -24.0420  -25.2940   20.8140 C   0  0  0  0  0  2  0  0  0  0  0  0
  -22.5930  -24.8940   21.1120 C   0  0  0  0  0  2  0  0  0  0  0  0
  -22.6290  -26.7580   22.8680 C   0  0  0  0  0  0  0  0  0  0  0  0
  -21.9320  -27.6960   23.6630 C   0  0  0  0  0  3  0  0  0  0  0  0
  -20.5290  -27.7800   23.6130 C   0  0  0  0  0  3  0  0  0  0  0  0
  -19.8050  -26.9150   22.7740 C   0  0  0  0  0  3  0  0  0  0  0  0
  -20.4860  -25.9760   21.9790 C   0  0  0  0  0  3  0  0  0  0  0  0
  -27.8460  -31.6460   25.8010 C   0  0  0  0  0  3  0  0  0  0  0  0
  -27.2820  -32.9680   26.0990 N   0  0  0  0  0  0  0  0  0  0  0  0
  -27.6730  -34.1080   25.5110 C   0  0  0  0  0  0  0  0  0  0  0  0
  -28.6060  -34.1630   24.7050 O   0  0  0  0  0  0  0  0  0  0  0  0
  -26.4820  -32.9950   26.7110 H   0  0  0  0  0  0  0  0  0  0  0  0
  -25.8760  -35.7040   24.7770 C   0  0  0  0  0  1  0  0  0  0  0  0
  -26.9050  -35.3920   25.8750 C   0  0  0  0  0  3  0  0  0  0  0  0
  -28.6270  -36.4510   27.2690 C   0  0  0  0  0  1  0  0  0  0  0  0
  -27.7850  -36.5640   26.0810 N   0  0  0  0  0  0  0  0  0  0  0  0
  -27.2340  -37.4150   26.1650 H   0  0  0  0  0  0  0  0  0  0  0  0
  -28.0660  -30.8180   27.1270 C   0  0  1  0  0  0  0  0  0  0  0  0
  -26.7500  -30.3730   27.8020 C   0  0  0  0  0  1  0  0  0  0  0  0
  -28.9080  -29.5500   26.8460 C   0  0  0  0  0  1  0  0  0  0  0  0
  -28.8690  -31.6610   28.1460 C   0  0  0  0  0  1  0  0  0  0  0  0
  2  1  2  0
  3  4  2  0
  4  1  1  0
  4  8  1  0
  5  2  1  0
  6  5  2  0
  6  3  1  0
  7  5  1  0
  9 22  1  0
 10 15  1  0
 11 12  1  0
 11 10  1  0
 13 12  1  0
 13 26  1  0
 13 14  1  0
 15  9  1  0
 15 14  1  0
 16  9  2  0
 17 21  1  0
 19 17  1  0
 19 22  1  0
 20 18  2  0
 21 18  1  0
 21  8  1  0
 22 20  1  0
 23 24  2  0
 24 43  1  0
 25 24  1  0
 25 28  1  0
 26 27  1  0
 26 23  1  0
 27 25  2  0
 28 29  1  0
 29 30  2  0
 31 34  1  0
 31 30  1  0
 32 31  2  0
 33 32  1  0
 33 28  2  0
 34 35  1  0
 35 40  2  0
 35 36  1  0
 36 37  2  0
 37 38  1  0
 38 42  1  0
 39 38  2  0
 40 39  1  0
 41 40  1  0
 43 44  1  0
 44 47  1  0
 44 46  1  0
 45 43  2  0
 48 49  1  0
 48 23  1  0
 50 48  1  0
 51 52  1  0
 51  6  1  0
 52 53  1  0
 53 54  1  0
 55 54  1  0
 56 67  2  0
 57 55  1  0
 57 62  1  0
 58 68  1  0
 58 66  1  0
 59 61  1  0
 60 66  1  0
 61 62  2  0
 61 60  1  0
 63 57  2  0
 64 63  1  0
 64 59  2  0
 65 59  1  0
 65 58  1  0
 66 56  1  0
 68 70  2  0
 69 68  1  0
 71 69  1  0
 72 77  1  0
 73 69  1  0
 74 73  1  0
 75 76  1  0
 75 74  1  0
 76 72  1  0
 77 73  1  0
 77 78  2  0
 79 78  1  0
 80 79  2  0
 81 72  2  0
 81 80  1  0
 82 56  1  0
 82 83  1  0
 82 92  1  0
 83 86  1  0
 84 88  1  0
 84 83  1  0
 85 84  2  0
 88 87  1  0
 88 90  1  0
 90 91  1  0
 90 89  1  0
 92 93  1  1
 92 95  1  0
 94 92  1  0
M  ISO  4   9 100  22 100  54 101  55 101
M  END
>  <TORSDO>  (4) 
F 21

>  <SCORE>  (4) 
-4.279

>  <name>  (4) 
3

>  <ligand_id>  (4) 
3

>  <original_smiles>  (4) 
[H]c1c([H])c([H])c2c(c1[H])C([H])([H])C([H])([H])C([H])([H])C2([H])N([H])C(=O)C1([H])N(C(=O)C([H])(N([H])C(=O)C([H])(N([H])C([H])([H])[H])C([H])([H])[H])C(C([H])([H])[H])(C([H])([H])[H])C([H])([H])[H])C([H])([H])c2c([H])c(OC([H])([H])C([H])([H])C([H])([H])C([H])([H])c3c([H])c(C([H])([H])C4([H])C([H])([H])C([H])([H])N(C(=O)N5C([H])([H])C([H])([H])C([H])([H])C([H])(n6nc(-c7c([H])c([H])c(Oc8c([H])c([H])c(F)c([H])c8F)c([H])c7[H])c(C(=O)N([H])[H])c6N([H])[H])C5([H])[H])C([H])([H])C4([H])[H])c([H])c([H])c3C([H])([H])[H])c([H])c([H])c2C1([H])[H]

>  <smiles>  (4) 
[H]c1c([H])c([H])c2c(c1[H])C([H])([H])C([H])([H])C([H])([H])C2([H])N([H])C(=O)C1([H])N(C(=O)C([H])(N([H])C(=O)C([H])(N([H])C([H])([H])[H])C([H])([H])[H])C(C([H])([H])[H])(C([H])([H])[H])C([H])([H])[H])C([H])([H])c2c([H])c(OC([H])([H])C([H])([H])C([H])([H])C([H])([H])c3c([H])c(C([H])([H])C4([H])C([H])([H])C([H])([H])N(C(=O)N5C([H])([H])C([H])([H])C([H])([H])C([H])(n6nc(-c7c([H])c([H])c(Oc8c([H])c([H])c(F)c([H])c8F)c([H])c7[H])c(C(=O)N([H])[H])c6N([H])[H])C5([H])[H])C([H])([H])C4([H])[H])c([H])c([H])c3C([H])([H])[H])c([H])c([H])c2C1([H])[H]

$$$$
4:0:0
     RDKit          3D

 94103  0  0  1  0  0  0  0  0999 V2000
  -31.3300  -23.7030   21.9760 C   0  0  0  0  0  3  0  0  0  0  0  0
  -31.4070  -22.3580   21.5570 C   0  0  0  0  0  3  0  0  0  0  0  0
  -30.8540  -24.6940   21.0960 C   0  0  0  0  0  3  0  0  0  0  0  0
  -30.5300  -22.9980   19.3750 C   0  0  0  0  0  3  0  0  0  0  0  0
  -31.0070  -21.9990   20.2530 C   0  0  0  0  0  0  0  0  0  0  0  0
  -30.4550  -24.3490   19.7870 C   0  0  0  0  0  0  0  0  0  0  0  0
  -31.1010  -20.5490   19.7880 C   0  0  0  0  0  2  0  0  0  0  0  0
  -29.5650  -19.1700   21.3550 C   0  0  0  0  0  2  0  0  0  0  0  0
  -29.5310  -18.7450   18.8120 C   0  0  0  0  0  2  0  0  0  0  0  0
  -30.2320  -17.7880   21.5490 C   0  0  0  0  0  2  0  0  0  0  0  0
  -30.2200  -17.3910   19.0650 C   0  0  0  0  0  2  0  0  0  0  0  0
  -29.7670  -19.7820   19.9410 C   0  0  0  0  0  3  0  0  0  0  0  0
  -29.7620  -16.8470   20.4300 C   0  0  0  0  0  3  0  0  0  0  0  0
  -30.6850  -14.4840   20.0730 C   0  0  0  0  0  0  0  0  0  0  0  0
  -30.4100  -12.3230   18.9160 C   0  0  0  0  0  2  0  0  0  0  0  0
  -29.4020  -12.5250   17.7640 C   0  0  0  0  0  2  0  0  0  0  0  0
  -27.9510  -12.3610   18.2610 C   0  0  0  0  0  2  0  0  0  0  0  0
  -27.6620  -13.1830   19.5450 C   0  0  0  0  0  3  0  0  0  0  0  0
  -28.7690  -12.9330   20.5980 C   0  0  0  0  0  2  0  0  0  0  0  0
  -30.0710  -13.2740   19.9840 N   0  0  0  0  0  0  0  0  0  0  0  0
  -31.7450  -14.7550   19.4990 O   0  0  0  0  0  0  0  0  0  0  0  0
  -29.9330  -15.4120   20.6890 N   0  0  0  0  0  0  0  0  0  0  0  0
  -29.1520  -14.9990   21.1790 H   0  0  0  0  0  0  0  0  0  0  0  0
  -25.2820  -13.7690   20.3420 C   0  0  0  0  0  0  0  0  0  0  0  0
  -24.2430  -12.9870   20.7700 C   0  0  0  0  0  0  0  0  0  0  0  0
  -24.7250  -11.6420   20.7410 C   0  0  0  0  0  0  0  0  0  0  0  0
  -26.3320  -12.9000   20.0800 N   0  0  0  0  0  0  0  0  0  0  0  0
  -26.0000  -11.6160   20.3750 N   0  0  0  0  0  0  0  0  0  0  0  0
  -24.0300  -10.3720   20.9870 C   0  0  0  0  0  0  0  0  0  0  0  0
  -24.4810   -9.4600   21.9640 C   0  0  0  0  0  3  0  0  0  0  0  0
  -23.7880   -8.2520   22.1930 C   0  0  0  0  0  3  0  0  0  0  0  0
  -22.6280   -7.9470   21.4410 C   0  0  0  0  0  0  0  0  0  0  0  0
  -22.1940   -8.8490   20.4530 C   0  0  0  0  0  3  0  0  0  0  0  0
  -22.8900  -10.0480   20.2240 C   0  0  0  0  0  3  0  0  0  0  0  0
  -21.9070   -6.7860   21.5740 O   0  0  0  0  0  0  0  0  0  0  0  0
  -21.8210   -6.1260   22.7730 C   0  0  0  0  0  0  0  0  0  0  0  0
  -21.2930   -6.7420   23.9270 C   0  0  0  0  0  3  0  0  0  0  0  0
  -21.1580   -6.0050   25.1200 C   0  0  0  0  0  3  0  0  0  0  0  0
  -21.5420   -4.6510   25.1610 C   0  0  0  0  0  0  0  0  0  0  0  0
  -22.0660   -4.0340   24.0100 C   0  0  0  0  0  3  0  0  0  0  0  0
  -22.2020   -4.7690   22.8190 C   0  0  0  0  0  0  0  0  0  0  0  0
  -22.6850   -4.1640   21.7080 F   0  0  0  0  0  0  0  0  0  0  0  0
  -21.4070   -3.9400   26.3030 F   0  0  0  0  0  0  0  0  0  0  0  0
  -22.8520  -13.4470   21.0980 C   0  0  0  0  0  0  0  0  0  0  0  0
  -22.1690  -12.7550   22.0030 N   0  0  0  0  0  0  0  0  0  0  0  0
  -22.3760  -14.4600   20.5850 O   0  0  0  0  0  0  0  0  0  0  0  0
  -22.5650  -11.9390   22.4440 H   0  0  0  0  0  0  0  0  0  0  0  0
  -21.2380  -13.0500   22.2590 H   0  0  0  0  0  0  0  0  0  0  0  0
  -25.4170  -15.1390   20.1370 N   0  0  0  0  0  0  0  0  0  0  0  0
  -24.6440  -15.7830   20.2620 H   0  0  0  0  0  0  0  0  0  0  0  0
  -26.2480  -15.5840   19.7670 H   0  0  0  0  0  0  0  0  0  0  0  0
  -30.0100  -25.4230   18.8000 C   0  0  0  0  0  2  0  0  0  0  0  0
  -28.5340  -25.8540   18.9120 C   0  0  0  0  0  2  0  0  0  0  0  0
  -28.3400  -26.8240   19.9450 O   0  0  0  0  0  0  0  0  0  0  0  0
  -24.4950  -31.8500   23.1900 C   0  0  0  0  0  0  0  0  0  0  0  0
  -27.1380  -27.5060   19.9700 C   0  0  0  0  0  0  0  0  0  0  0  0
  -23.2830  -30.4980   21.5090 C   0  0  0  0  0  3  0  0  0  0  0  0
  -24.7310  -28.9960   20.0430 C   0  0  0  0  0  0  0  0  0  0  0  0
  -25.8080  -30.8580   21.3200 C   0  0  0  0  0  2  0  0  0  0  0  0
  -25.8880  -29.5030   20.6470 C   0  0  0  0  0  0  0  0  0  0  0  0
  -27.0880  -28.7590   20.6190 C   0  0  0  0  0  3  0  0  0  0  0  0
  -25.9550  -27.0030   19.3760 C   0  0  0  0  0  3  0  0  0  0  0  0
  -24.7570  -27.7420   19.4110 C   0  0  0  0  0  3  0  0  0  0  0  0
  -23.4890  -29.8570   20.1100 C   0  0  0  0  0  2  0  0  0  0  0  0
  -24.5460  -31.0830   22.0650 N   0  0  0  0  0  0  0  0  0  0  0  0
  -23.4150  -32.1090   23.7400 O   0  0  0  0  0  0  0  0  0  0  0  0
  -22.6320  -29.4500   22.4420 C   0  0  0  0  0  0  0  0  0  0  0  0
  -21.3080  -29.2700   22.3050 N   0  0  0  0  0  0  0  0  0  0  0  0
  -23.3140  -28.8070   23.2430 O   0  0  0  0  0  0  0  0  0  0  0  0
  -20.8200  -29.8460   21.6320 H   0  0  0  0  0  0  0  0  0  0  0  0
  -17.9350  -28.0610   22.7600 C   0  0  0  0  0  0  0  0  0  0  0  0
  -20.4910  -28.3130   23.0490 C   0  0  0  0  0  3  0  0  0  0  0  0
  -20.5970  -26.8970   22.4360 C   0  0  0  0  0  2  0  0  0  0  0  0
  -19.5000  -26.6000   21.4090 C   0  0  0  0  0  2  0  0  0  0  0  0
  -18.1140  -26.7280   22.0510 C   0  0  0  0  0  2  0  0  0  0  0  0
  -19.0510  -28.8100   23.2140 C   0  0  0  0  0  0  0  0  0  0  0  0
  -18.8300  -30.0580   23.8380 C   0  0  0  0  0  3  0  0  0  0  0  0
  -17.5240  -30.5550   24.0110 C   0  0  0  0  0  3  0  0  0  0  0  0
  -16.4230  -29.8020   23.5710 C   0  0  0  0  0  3  0  0  0  0  0  0
  -16.6280  -28.5550   22.9530 C   0  0  0  0  0  3  0  0  0  0  0  0
  -25.7840  -32.4590   23.8250 C   0  0  0  0  0  3  0  0  0  0  0  0
  -26.2800  -31.6730   25.1010 C   0  0  1  0  0  0  0  0  0  0  0  0
  -25.1740  -31.4460   26.1580 C   0  0  0  0  0  1  0  0  0  0  0  0
  -26.8490  -30.2910   24.7050 C   0  0  0  0  0  1  0  0  0  0  0  0
  -27.4340  -32.4500   25.7790 C   0  0  0  0  0  1  0  0  0  0  0  0
  -25.4910  -33.8590   24.1580 N   0  0  0  0  0  0  0  0  0  0  0  0
  -25.8610  -34.9100   23.4130 C   0  0  0  0  0  0  0  0  0  0  0  0
  -26.5560  -34.8030   22.3990 O   0  0  0  0  0  0  0  0  0  0  0  0
  -24.8800  -34.0190   24.9450 H   0  0  0  0  0  0  0  0  0  0  0  0
  -24.1840  -36.7420   23.0150 C   0  0  0  0  0  1  0  0  0  0  0  0
  -25.3850  -36.3030   23.8670 C   0  0  0  0  0  3  0  0  0  0  0  0
  -27.5030  -37.1370   24.7880 C   0  0  0  0  0  1  0  0  0  0  0  0
  -26.4430  -37.3350   23.8030 N   0  0  0  0  0  0  0  0  0  0  0  0
  -26.0500  -38.2620   23.9420 H   0  0  0  0  0  0  0  0  0  0  0  0
  2  1  1  0
  3  1  2  0
  4  6  2  0
  4  5  1  0
  5  2  2  0
  6  3  1  0
  7  5  1  0
  8 10  1  0
  9 11  1  0
  9 12  1  0
 11 13  1  0
 12  7  1  0
 12  8  1  0
 13 22  1  0
 13 10  1  0
 14 22  1  0
 15 20  1  0
 16 17  1  0
 16 15  1  0
 18 17  1  0
 18 27  1  0
 18 19  1  0
 20 14  1  0
 20 19  1  0
 21 14  2  0
 22 23  1  0
 24 25  2  0
 25 44  1  0
 26 25  1  0
 26 29  1  0
 27 24  1  0
 27 28  1  0
 28 26  2  0
 29 30  1  0
 30 31  2  0
 32 35  1  0
 32 31  1  0
 33 32  2  0
 34 33  1  0
 34 29  2  0
 35 36  1  0
 36 41  2  0
 36 37  1  0
 37 38  2  0
 38 39  1  0
 39 43  1  0
 40 39  2  0
 41 40  1  0
 42 41  1  0
 44 45  1  0
 45 48  1  0
 45 47  1  0
 46 44  2  0
 49 50  1  0
 49 24  1  0
 51 49  1  0
 52 53  1  0
 52  6  1  0
 53 54  1  0
 54 56  1  0
 55 66  2  0
 56 61  1  0
 57 65  1  0
 57 67  1  0
 58 64  1  0
 58 60  1  0
 59 65  1  0
 60 59  1  0
 61 60  2  0
 62 63  1  0
 62 56  2  0
 63 58  2  0
 64 57  1  0
 65 55  1  0
 67 69  2  0
 68 67  1  0
 70 68  1  0
 71 80  2  0
 71 76  1  0
 72 68  1  0
 72 76  1  0
 73 72  1  0
 74 75  1  0
 74 73  1  0
 75 71  1  0
 76 77  2  0
 77 78  1  0
 79 78  2  0
 80 79  1  0
 81 55  1  0
 81 86  1  0
 81 82  1  0
 82 85  1  1
 82 83  1  0
 84 82  1  0
 86 89  1  0
 87 91  1  0
 87 86  1  0
 88 87  2  0
 91 90  1  0
 93 91  1  0
 93 94  1  0
 93 92  1  0
M  ISO  4  14 100  22 100  53 101  54 101
M  END
>  <TORSDO>  (5) 
F 20

>  <SCORE>  (5) 
-12.411

>  <name>  (5) 
4

>  <ligand_id>  (5) 
4

>  <original_smiles>  (5) 
[H]c1c([H])c([H])c2c(c1[H])C([H])([H])C([H])([H])C([H])([H])C2([H])N([H])C(=O)C1([H])N(C(=O)C([H])(N([H])C(=O)C([H])(N([H])C([H])([H])[H])C([H])([H])[H])C(C([H])([H])[H])(C([H])([H])[H])C([H])([H])[H])C([H])([H])c2c([H])c(OC([H])([H])C([H])([H])c3c([H])c([H])c([H])c(C([H])([H])C4([H])C([H])([H])C([H])([H])C([H])(N([H])C(=O)N5C([H])([H])C([H])([H])C([H])([H])C([H])(n6nc(-c7c([H])c([H])c(Oc8c([H])c([H])c(F)c([H])c8F)c([H])c7[H])c(C(=O)N([H])[H])c6N([H])[H])C5([H])[H])C([H])([H])C4([H])[H])c3[H])c([H])c([H])c2C1([H])[H]

>  <smiles>  (5) 
[H]c1c([H])c([H])c2c(c1[H])C([H])([H])C([H])([H])C([H])([H])C2([H])N([H])C(=O)C1([H])N(C(=O)C([H])(N([H])C(=O)C([H])(N([H])C([H])([H])[H])C([H])([H])[H])C(C([H])([H])[H])(C([H])([H])[H])C([H])([H])[H])C([H])([H])c2c([H])c(OC([H])([H])C([H])([H])c3c([H])c([H])c([H])c(C([H])([H])C4([H])C([H])([H])C([H])([H])C([H])(N([H])C(=O)N5C([H])([H])C([H])([H])C([H])([H])C([H])(n6nc(-c7c([H])c([H])c(Oc8c([H])c([H])c(F)c([H])c8F)c([H])c7[H])c(C(=O)N([H])[H])c6N([H])[H])C5([H])[H])C([H])([H])C4([H])[H])c3[H])c([H])c([H])c2C1([H])[H]

$$$$
5:0:0
     RDKit          3D

 95103  0  0  1  0  0  0  0  0999 V2000
  -28.1330  -22.4620   26.1060 C   0  0  0  0  0  3  0  0  0  0  0  0
  -29.1060  -21.9020   25.2540 C   0  0  0  0  0  3  0  0  0  0  0  0
  -27.9280  -23.8540   26.1320 C   0  0  0  0  0  3  0  0  0  0  0  0
  -29.6790  -24.1260   24.4590 C   0  0  0  0  0  3  0  0  0  0  0  0
  -29.8860  -22.7320   24.4150 C   0  0  0  0  0  0  0  0  0  0  0  0
  -28.7060  -24.6910   25.3070 C   0  0  0  0  0  0  0  0  0  0  0  0
  -30.9040  -22.2020   23.4880 C   0  0  0  0  0  3  0  0  0  0  0  0
  -31.1130  -20.9090   23.1820 C   0  0  0  0  0  3  0  0  0  0  0  0
  -32.1500  -20.4180   22.1880 C   0  0  0  0  0  2  0  0  0  0  0  0
  -31.5900  -19.3920   21.1830 C   0  0  0  0  0  2  0  0  0  0  0  0
  -31.1930  -18.0540   21.8300 C   0  0  0  0  0  2  0  0  0  0  0  0
  -31.4250  -16.8310   20.9290 C   0  0  0  0  0  2  0  0  0  0  0  0
  -30.8620  -15.5450   21.5730 C   0  0  0  0  0  2  0  0  0  0  0  0
  -31.4820  -14.2360   21.0560 C   0  0  0  0  0  0  0  0  0  0  0  0
  -31.5090  -11.7590   21.1300 C   0  0  0  0  0  2  0  0  0  0  0  0
  -30.7760  -11.1020   19.9490 C   0  0  0  0  0  2  0  0  0  0  0  0
  -29.2690  -10.9790   20.2420 C   0  0  0  0  0  2  0  0  0  0  0  0
  -28.6540  -12.3200   20.7240 C   0  0  0  0  0  3  0  0  0  0  0  0
  -29.4990  -12.9240   21.8700 C   0  0  0  0  0  2  0  0  0  0  0  0
  -30.8880  -13.0640   21.4000 N   0  0  0  0  0  0  0  0  0  0  0  0
  -32.5350  -14.2810   20.4100 O   0  0  0  0  0  0  0  0  0  0  0  0
  -26.3250  -13.1040   21.5040 C   0  0  0  0  0  0  0  0  0  0  0  0
  -25.1480  -12.4300   21.6850 C   0  0  0  0  0  0  0  0  0  0  0  0
  -25.4250  -11.0630   21.3760 C   0  0  0  0  0  0  0  0  0  0  0  0
  -27.2550  -12.1510   21.1130 N   0  0  0  0  0  0  0  0  0  0  0  0
  -26.7110  -10.9070   21.0860 N   0  0  0  0  0  0  0  0  0  0  0  0
  -24.5290   -9.9030   21.2820 C   0  0  0  0  0  0  0  0  0  0  0  0
  -24.6220   -8.8250   22.1910 C   0  0  0  0  0  3  0  0  0  0  0  0
  -23.7420   -7.7270   22.0930 C   0  0  0  0  0  3  0  0  0  0  0  0
  -22.7520   -7.7000   21.0830 C   0  0  0  0  0  0  0  0  0  0  0  0
  -22.6770   -8.7650   20.1660 C   0  0  0  0  0  3  0  0  0  0  0  0
  -23.5590   -9.8550   20.2610 C   0  0  0  0  0  3  0  0  0  0  0  0
  -21.8660   -6.6680   20.8960 O   0  0  0  0  0  0  0  0  0  0  0  0
  -21.3100   -5.9970   21.9560 C   0  0  0  0  0  0  0  0  0  0  0  0
  -20.4650   -6.6410   22.8860 C   0  0  0  0  0  3  0  0  0  0  0  0
  -19.8600   -5.8970   23.9200 C   0  0  0  0  0  3  0  0  0  0  0  0
  -20.0920   -4.5110   24.0170 C   0  0  0  0  0  0  0  0  0  0  0  0
  -20.9300   -3.8680   23.0890 C   0  0  0  0  0  3  0  0  0  0  0  0
  -21.5340   -4.6100   22.0600 C   0  0  0  0  0  0  0  0  0  0  0  0
  -22.3240   -3.9820   21.1560 F   0  0  0  0  0  0  0  0  0  0  0  0
  -19.5040   -3.7950   25.0040 F   0  0  0  0  0  0  0  0  0  0  0  0
  -23.8160  -13.0280   22.0330 C   0  0  0  0  0  0  0  0  0  0  0  0
  -22.9860  -12.2940   22.7650 N   0  0  0  0  0  0  0  0  0  0  0  0
  -23.5220  -14.1750   21.6970 O   0  0  0  0  0  0  0  0  0  0  0  0
  -23.2350  -11.3620   23.0640 H   0  0  0  0  0  0  0  0  0  0  0  0
  -22.0870  -12.6680   23.0310 H   0  0  0  0  0  0  0  0  0  0  0  0
  -26.6810  -14.4450   21.6230 N   0  0  0  0  0  0  0  0  0  0  0  0
  -26.0080  -15.1670   21.8560 H   0  0  0  0  0  0  0  0  0  0  0  0
  -27.6050  -14.8130   21.4320 H   0  0  0  0  0  0  0  0  0  0  0  0
  -28.4950  -26.1950   25.3260 C   0  0  0  0  0  2  0  0  0  0  0  0
  -27.7000  -26.7050   24.1130 C   0  0  0  0  0  2  0  0  0  0  0  0
  -28.3500  -26.4110   22.7460 C   0  0  0  0  0  2  0  0  0  0  0  0
  -27.5780  -27.1030   21.6160 C   0  0  0  0  0  3  0  0  0  0  0  0
  -28.2480  -27.0390   20.2130 C   0  0  0  0  0  3  0  0  0  0  0  0
  -27.6680  -27.8450   19.1660 O   0  0  0  0  0  0  0  0  0  0  0  0
  -24.8330  -32.0490   24.0890 C   0  0  0  0  0  0  0  0  0  0  0  0
  -26.5660  -28.5740   19.5280 C   0  0  0  0  0  0  0  0  0  0  0  0
  -23.2370  -31.0420   22.4870 C   0  0  0  0  0  3  0  0  0  0  0  0
  -24.2780  -29.9350   20.4340 C   0  0  0  0  0  0  0  0  0  0  0  0
  -25.6520  -31.5240   21.8010 C   0  0  0  0  0  2  0  0  0  0  0  0
  -25.5500  -30.3520   20.8480 C   0  0  0  0  0  0  0  0  0  0  0  0
  -26.7010  -29.6800   20.3920 C   0  0  0  0  0  3  0  0  0  0  0  0
  -25.2870  -28.1700   19.0990 C   0  0  0  0  0  3  0  0  0  0  0  0
  -24.1390  -28.8440   19.5560 C   0  0  0  0  0  3  0  0  0  0  0  0
  -23.0990  -30.7120   20.9750 C   0  0  0  0  0  2  0  0  0  0  0  0
  -24.6050  -31.5380   22.8470 N   0  0  0  0  0  0  0  0  0  0  0  0
  -23.9160  -32.1560   24.9150 O   0  0  0  0  0  0  0  0  0  0  0  0
  -22.8000  -29.8060   23.3040 C   0  0  0  0  0  0  0  0  0  0  0  0
  -21.6320  -29.2440   22.9540 N   0  0  0  0  0  0  0  0  0  0  0  0
  -23.5140  -29.3580   24.2050 O   0  0  0  0  0  0  0  0  0  0  0  0
  -21.1040  -29.6750   22.2080 H   0  0  0  0  0  0  0  0  0  0  0  0
  -19.0310  -26.7730   22.5520 C   0  0  0  0  0  0  0  0  0  0  0  0
  -21.0390  -28.0530   23.5570 C   0  0  0  0  0  3  0  0  0  0  0  0
  -21.8740  -26.7920   23.2340 C   0  0  0  0  0  2  0  0  0  0  0  0
  -21.3890  -26.0530   21.9830 C   0  0  0  0  0  2  0  0  0  0  0  0
  -19.9290  -25.6170   22.1490 C   0  0  0  0  0  2  0  0  0  0  0  0
  -19.5530  -27.9230   23.2000 C   0  0  0  0  0  0  0  0  0  0  0  0
  -18.6810  -28.9850   23.5220 C   0  0  0  0  0  3  0  0  0  0  0  0
  -17.3090  -28.9080   23.2140 C   0  0  0  0  0  3  0  0  0  0  0  0
  -16.7940  -27.7610   22.5870 C   0  0  0  0  0  3  0  0  0  0  0  0
  -17.6530  -26.6960   22.2590 C   0  0  0  0  0  3  0  0  0  0  0  0
  -26.2480  -32.5490   24.5240 C   0  0  0  0  0  3  0  0  0  0  0  0
  -26.9110  -31.6460   25.6360 C   0  0  1  0  0  0  0  0  0  0  0  0
  -25.9890  -31.3740   26.8480 C   0  0  0  0  0  1  0  0  0  0  0  0
  -27.3370  -30.2790   25.0480 C   0  0  0  0  0  1  0  0  0  0  0  0
  -28.2000  -32.3230   26.1580 C   0  0  0  0  0  1  0  0  0  0  0  0
  -26.1010  -33.9320   24.9940 N   0  0  0  0  0  0  0  0  0  0  0  0
  -26.4980  -35.0120   24.3080 C   0  0  0  0  0  0  0  0  0  0  0  0
  -27.0960  -34.9390   23.2310 O   0  0  0  0  0  0  0  0  0  0  0  0
  -25.5710  -34.0700   25.8410 H   0  0  0  0  0  0  0  0  0  0  0  0
  -24.9570  -36.9970   24.2020 C   0  0  0  0  0  1  0  0  0  0  0  0
  -26.1790  -36.3930   24.9120 C   0  0  0  0  0  3  0  0  0  0  0  0
  -28.4170  -36.9870   25.7300 C   0  0  0  0  0  1  0  0  0  0  0  0
  -27.3130  -37.3420   24.8440 N   0  0  0  0  0  0  0  0  0  0  0  0
  -27.0100  -38.2830   25.0750 H   0  0  0  0  0  0  0  0  0  0  0  0
  1  3  1  0
  2  1  2  0
  4  6  1  0
  5  4  2  0
  5  2  1  0
  6 50  1  0
  6  3  2  0
  7  5  1  0
  8  7  2  0
  9  8  1  0
 10 11  1  0
 10  9  1  0
 12 13  1  0
 12 11  1  0
 14 20  1  0
 14 13  1  0
 15 20  1  0
 16 17  1  0
 16 15  1  0
 18 17  1  0
 18 25  1  0
 18 19  1  0
 20 19  1  0
 21 14  2  0
 22 47  1  0
 22 23  2  0
 23 42  1  0
 24 23  1  0
 25 22  1  0
 26 25  1  0
 26 24  2  0
 27 24  1  0
 27 28  1  0
 29 28  2  0
 30 29  1  0
 31 32  1  0
 31 30  2  0
 32 27  2  0
 33 30  1  0
 33 34  1  0
 34 39  2  0
 34 35  1  0
 35 36  2  0
 36 37  1  0
 37 41  1  0
 38 37  2  0
 39 38  1  0
 40 39  1  0
 42 43  1  0
 43 46  1  0
 43 45  1  0
 44 42  2  0
 47 48  1  0
 49 47  1  0
 51 50  1  0
 52 51  1  0
 53 52  1  0
 54 53  2  0
 55 57  1  0
 55 54  1  0
 56 67  2  0
 57 62  1  0
 58 66  1  0
 58 68  1  0
 59 61  1  0
 59 65  1  0
 60 66  1  0
 61 60  1  0
 62 61  2  0
 63 57  2  0
 63 64  1  0
 64 59  2  0
 65 58  1  0
 66 56  1  0
 68 70  2  0
 69 68  1  0
 71 69  1  0
 72 77  1  0
 73 69  1  0
 74 73  1  0
 75 76  1  0
 75 74  1  0
 76 72  1  0
 77 78  2  0
 77 73  1  0
 79 78  1  0
 80 79  2  0
 81 72  2  0
 81 80  1  0
 82 56  1  0
 82 87  1  0
 82 83  1  0
 83 86  1  1
 83 84  1  0
 85 83  1  0
 87 90  1  0
 88 92  1  0
 88 87  1  0
 89 88  2  0
 92 91  1  0
 94 92  1  0
 94 95  1  0
 94 93  1  0
M  ISO  4  13 100  14 100  54 101  55 101
M  END
>  <TORSDO>  (6) 
F 27

>  <SCORE>  (6) 
4.643

>  <name>  (6) 
5

>  <ligand_id>  (6) 
5

>  <original_smiles>  (6) 
[H]C(=C([H])C([H])([H])C([H])([H])C([H])([H])C([H])([H])C([H])([H])C(=O)N1C([H])([H])C([H])([H])C([H])([H])C([H])(n2nc(-c3c([H])c([H])c(Oc4c([H])c([H])c(F)c([H])c4F)c([H])c3[H])c(C(=O)N([H])[H])c2N([H])[H])C1([H])[H])c1c([H])c([H])c([H])c(C([H])([H])C([H])([H])C([H])([H])C([H])([H])C([H])([H])Oc2c([H])c([H])c3c(c2[H])C([H])([H])N(C(=O)C([H])(N([H])C(=O)C([H])(N([H])C([H])([H])[H])C([H])([H])[H])C(C([H])([H])[H])(C([H])([H])[H])C([H])([H])[H])C([H])(C(=O)N([H])C2([H])c4c([H])c([H])c([H])c([H])c4C([H])([H])C([H])([H])C2([H])[H])C3([H])[H])c1[H]

>  <smiles>  (6) 
[H]C(=C([H])C([H])([H])C([H])([H])C([H])([H])C([H])([H])C([H])([H])C(=O)N1C([H])([H])C([H])([H])C([H])([H])C([H])(n2nc(-c3c([H])c([H])c(Oc4c([H])c([H])c(F)c([H])c4F)c([H])c3[H])c(C(=O)N([H])[H])c2N([H])[H])C1([H])[H])c1c([H])c([H])c([H])c(C([H])([H])C([H])([H])C([H])([H])C([H])([H])C([H])([H])Oc2c([H])c([H])c3c(c2[H])C([H])([H])N(C(=O)C([H])(N([H])C(=O)C([H])(N([H])C([H])([H])[H])C([H])([H])[H])C(C([H])([H])[H])(C([H])([H])[H])C([H])([H])[H])C([H])(C(=O)N([H])C2([H])c4c([H])c([H])c([H])c([H])c4C([H])([H])C([H])([H])C2([H])[H])C3([H])[H])c1[H]

$$$$
6:0:0
     RDKit          3D

 97106  0  0  1  0  0  0  0  0999 V2000
  -25.6340  -23.4220   18.9370 C   0  0  0  0  0  3  0  0  0  0  0  0
  -25.5650  -24.7120   19.4960 C   0  0  0  0  0  3  0  0  0  0  0  0
  -24.9830  -22.4710   21.0840 C   0  0  0  0  0  3  0  0  0  0  0  0
  -25.3510  -22.2880   19.7340 C   0  0  0  0  0  0  0  0  0  0  0  0
  -25.2550  -24.8900   20.8620 C   0  0  0  0  0  0  0  0  0  0  0  0
  -24.9370  -23.7610   21.6490 C   0  0  0  0  0  0  0  0  0  0  0  0
  -24.5870  -23.9100   22.9490 F   0  0  0  0  0  0  0  0  0  0  0  0
  -25.4690  -20.8860   19.1510 C   0  0  0  0  0  2  0  0  0  0  0  0
  -26.6970  -20.7570   18.2340 C   0  0  0  0  0  2  0  0  0  0  0  0
  -27.2780  -19.3270   18.1450 C   0  0  0  0  0  2  0  0  0  0  0  0
  -32.1480  -16.6690   19.2770 C   0  0  0  0  0  0  0  0  0  0  0  0
  -32.5560  -14.3540   20.0660 C   0  0  0  0  0  2  0  0  0  0  0  0
  -31.9110  -13.3260   19.1090 C   0  0  0  0  0  2  0  0  0  0  0  0
  -30.4170  -13.1110   19.4250 C   0  0  0  0  0  2  0  0  0  0  0  0
  -29.6500  -14.4490   19.5840 C   0  0  0  0  0  3  0  0  0  0  0  0
  -30.4170  -15.3450   20.5670 C   0  0  0  0  0  2  0  0  0  0  0  0
  -31.7600  -15.5910   20.0170 N   0  0  0  0  0  0  0  0  0  0  0  0
  -33.2430  -16.7010   18.6970 O   0  0  0  0  0  0  0  0  0  0  0  0
  -29.5580  -18.4300   17.3690 C   0  0  0  0  0  2  0  0  0  0  0  0
  -29.0860  -18.6610   19.8430 C   0  0  0  0  0  2  0  0  0  0  0  0
  -31.0480  -18.2270   17.7160 C   0  0  0  0  0  2  0  0  0  0  0  0
  -30.6110  -18.4800   20.0710 C   0  0  0  0  0  2  0  0  0  0  0  0
  -28.7960  -19.2420   18.4440 C   0  0  0  0  0  3  0  0  0  0  0  0
  -31.1830  -17.6010   19.0360 N   0  0  0  0  0  0  0  0  0  0  0  0
  -27.2780  -15.1800   20.2740 C   0  0  0  0  0  0  0  0  0  0  0  0
  -26.1630  -14.4630   20.6150 C   0  0  0  0  0  0  0  0  0  0  0  0
  -26.5430  -13.0870   20.5440 C   0  0  0  0  0  0  0  0  0  0  0  0
  -28.2720  -14.2450   20.0260 N   0  0  0  0  0  0  0  0  0  0  0  0
  -27.8300  -12.9810   20.2400 N   0  0  0  0  0  0  0  0  0  0  0  0
  -25.7420  -11.8650   20.6800 C   0  0  0  0  0  0  0  0  0  0  0  0
  -25.9320  -10.9770   21.7610 C   0  0  0  0  0  3  0  0  0  0  0  0
  -25.1380   -9.8160   21.8820 C   0  0  0  0  0  3  0  0  0  0  0  0
  -24.1440   -9.5320   20.9170 C   0  0  0  0  0  0  0  0  0  0  0  0
  -23.9710  -10.4090   19.8300 C   0  0  0  0  0  3  0  0  0  0  0  0
  -24.7670  -11.5620   19.7080 C   0  0  0  0  0  3  0  0  0  0  0  0
  -23.3460   -8.4130   20.9370 O   0  0  0  0  0  0  0  0  0  0  0  0
  -22.7570   -7.9690   22.0950 C   0  0  0  0  0  0  0  0  0  0  0  0
  -21.8910   -8.7900   22.8490 C   0  0  0  0  0  3  0  0  0  0  0  0
  -21.2510   -8.2730   23.9950 C   0  0  0  0  0  3  0  0  0  0  0  0
  -21.4700   -6.9370   24.3800 C   0  0  0  0  0  0  0  0  0  0  0  0
  -22.3280   -6.1160   23.6270 C   0  0  0  0  0  3  0  0  0  0  0  0
  -22.9670   -6.6310   22.4860 C   0  0  0  0  0  0  0  0  0  0  0  0
  -23.7800   -5.8310   21.7510 F   0  0  0  0  0  0  0  0  0  0  0  0
  -20.8480   -6.4380   25.4720 F   0  0  0  0  0  0  0  0  0  0  0  0
  -24.7950  -15.0140   20.8940 C   0  0  0  0  0  0  0  0  0  0  0  0
  -24.0350  -14.3680   21.7710 N   0  0  0  0  0  0  0  0  0  0  0  0
  -24.4060  -16.0530   20.3620 O   0  0  0  0  0  0  0  0  0  0  0  0
  -24.3530  -13.5240   22.2230 H   0  0  0  0  0  0  0  0  0  0  0  0
  -23.1180  -14.7280   21.9950 H   0  0  0  0  0  0  0  0  0  0  0  0
  -27.5200  -16.5430   20.1270 N   0  0  0  0  0  0  0  0  0  0  0  0
  -26.7750  -17.2260   20.1880 H   0  0  0  0  0  0  0  0  0  0  0  0
  -28.3730  -16.9200   19.7310 H   0  0  0  0  0  0  0  0  0  0  0  0
  -25.2590  -26.2900   21.4640 C   0  0  0  0  0  2  0  0  0  0  0  0
  -26.6430  -26.7670   21.9820 C   0  0  0  0  0  2  0  0  0  0  0  0
  -27.8870  -26.1280   21.3130 C   0  0  0  0  0  2  0  0  0  0  0  0
  -28.8950  -27.1000   20.6450 C   0  0  0  0  0  2  0  0  0  0  0  0
  -28.4260  -27.6350   19.3930 O   0  0  0  0  0  0  0  0  0  0  0  0
  -24.6700  -31.9190   23.5490 C   0  0  0  0  0  0  0  0  0  0  0  0
  -27.2750  -28.3640   19.5160 C   0  0  0  0  0  0  0  0  0  0  0  0
  -23.4050  -30.8040   21.7330 C   0  0  0  0  0  3  0  0  0  0  0  0
  -24.8200  -29.6690   19.9390 C   0  0  0  0  0  0  0  0  0  0  0  0
  -25.8820  -31.3600   21.4510 C   0  0  0  0  0  2  0  0  0  0  0  0
  -25.9870  -30.1540   20.5450 C   0  0  0  0  0  0  0  0  0  0  0  0
  -27.2210  -29.5170   20.3240 C   0  0  0  0  0  3  0  0  0  0  0  0
  -26.1060  -27.8990   18.8770 C   0  0  0  0  0  3  0  0  0  0  0  0
  -24.8730  -28.5450   19.0940 C   0  0  0  0  0  3  0  0  0  0  0  0
  -23.5410  -30.4130   20.2360 C   0  0  0  0  0  2  0  0  0  0  0  0
  -24.6740  -31.3640   22.3050 N   0  0  0  0  0  0  0  0  0  0  0  0
  -23.6240  -32.0140   24.2030 O   0  0  0  0  0  0  0  0  0  0  0  0
  -22.8720  -29.5830   22.5150 C   0  0  0  0  0  0  0  0  0  0  0  0
  -21.5810  -29.2670   22.3180 N   0  0  0  0  0  0  0  0  0  0  0  0
  -23.6160  -28.9270   23.2500 O   0  0  0  0  0  0  0  0  0  0  0  0
  -21.0410  -29.8600   21.7050 H   0  0  0  0  0  0  0  0  0  0  0  0
  -18.4050  -27.5600   22.4280 C   0  0  0  0  0  0  0  0  0  0  0  0
  -20.8740  -28.1370   22.9180 C   0  0  0  0  0  3  0  0  0  0  0  0
  -21.2210  -26.8200   22.1860 C   0  0  0  0  0  2  0  0  0  0  0  0
  -20.2450  -26.4850   21.0580 C   0  0  0  0  0  2  0  0  0  0  0  0
  -18.8190  -26.3490   21.6080 C   0  0  0  0  0  2  0  0  0  0  0  0
  -19.3700  -28.4090   23.0310 C   0  0  0  0  0  0  0  0  0  0  0  0
  -18.9370  -29.5460   23.7480 C   0  0  0  0  0  3  0  0  0  0  0  0
  -17.5640  -29.8370   23.8750 C   0  0  0  0  0  3  0  0  0  0  0  0
  -16.6090  -28.9810   23.2950 C   0  0  0  0  0  3  0  0  0  0  0  0
  -17.0300  -27.8450   22.5810 C   0  0  0  0  0  3  0  0  0  0  0  0
  -25.9710  -32.4790   24.2040 C   0  0  0  0  0  3  0  0  0  0  0  0
  -25.7280  -33.8870   24.5430 N   0  0  0  0  0  0  0  0  0  0  0  0
  -26.1690  -34.9260   23.8220 C   0  0  0  0  0  0  0  0  0  0  0  0
  -26.8950  -34.7960   22.8330 O   0  0  0  0  0  0  0  0  0  0  0  0
  -25.1010  -34.0650   25.3140 H   0  0  0  0  0  0  0  0  0  0  0  0
  -24.5720  -36.8140   23.3840 C   0  0  0  0  0  1  0  0  0  0  0  0
  -25.7340  -36.3340   24.2670 C   0  0  0  0  0  3  0  0  0  0  0  0
  -27.8660  -37.0770   25.2340 C   0  0  0  0  0  1  0  0  0  0  0  0
  -26.8320  -37.3270   24.2340 N   0  0  0  0  0  0  0  0  0  0  0  0
  -26.4740  -38.2690   24.3760 H   0  0  0  0  0  0  0  0  0  0  0  0
  -26.4250  -31.6700   25.4810 C   0  0  1  0  0  0  0  0  0  0  0  0
  -25.2970  -31.4640   26.5190 C   0  0  0  0  0  1  0  0  0  0  0  0
  -26.9660  -30.2780   25.0780 C   0  0  0  0  0  1  0  0  0  0  0  0
  -27.5970  -32.4040   26.1760 C   0  0  0  0  0  1  0  0  0  0  0  0
  1  2  2  0
  1  4  1  0
  2  5  1  0
  3  6  1  0
  4  3  2  0
  5 53  1  0
  5  6  2  0
  6  7  1  0
  8  4  1  0
  9  8  1  0
 10  9  1  0
 11 17  1  0
 13 14  1  0
 13 12  1  0
 15 14  1  0
 15 28  1  0
 15 16  1  0
 17 12  1  0
 17 16  1  0
 18 11  2  0
 19 21  1  0
 19 23  1  0
 20 22  1  0
 21 24  1  0
 23 10  1  0
 23 20  1  0
 24 11  1  0
 24 22  1  0
 25 26  2  0
 26 45  1  0
 27 26  1  0
 27 30  1  0
 28 29  1  0
 28 25  1  0
 29 27  2  0
 30 31  1  0
 31 32  2  0
 33 36  1  0
 33 32  1  0
 34 33  2  0
 35 34  1  0
 35 30  2  0
 36 37  1  0
 37 42  2  0
 37 38  1  0
 38 39  2  0
 39 40  1  0
 40 44  1  0
 41 40  2  0
 42 41  1  0
 43 42  1  0
 45 46  1  0
 46 49  1  0
 46 48  1  0
 47 45  2  0
 50 51  1  0
 50 25  1  0
 52 50  1  0
 53 54  1  0
 55 54  1  0
 56 55  1  0
 57 59  1  0
 57 56  1  0
 58 69  2  0
 59 64  1  0
 60 68  1  0
 60 70  1  0
 61 67  1  0
 61 63  1  0
 62 68  1  0
 63 62  1  0
 64 63  2  0
 65 66  1  0
 65 59  2  0
 66 61  2  0
 67 60  1  0
 68 58  1  0
 70 72  2  0
 71 70  1  0
 73 71  1  0
 74 83  2  0
 74 79  1  0
 75 71  1  0
 75 79  1  0
 76 75  1  0
 77 78  1  0
 77 76  1  0
 78 74  1  0
 79 80  2  0
 80 81  1  0
 82 81  2  0
 83 82  1  0
 84 58  1  0
 84 85  1  0
 84 94  1  0
 85 88  1  0
 86 90  1  0
 86 85  1  0
 87 86  2  0
 90 89  1  0
 92 90  1  0
 92 93  1  0
 92 91  1  0
 94 97  1  1
 94 95  1  0
 96 94  1  0
M  ISO  4  11 100  24 100  56 101  57 101
M  END
>  <TORSDO>  (7) 
F 23

>  <SCORE>  (7) 
-6.236

>  <name>  (7) 
6

>  <ligand_id>  (7) 
6

>  <original_smiles>  (7) 
[H]c1c([H])c([H])c2c(c1[H])C([H])([H])C([H])([H])C([H])([H])C2([H])N([H])C(=O)C1([H])N(C(=O)C([H])(N([H])C(=O)C([H])(N([H])C([H])([H])[H])C([H])([H])[H])C(C([H])([H])[H])(C([H])([H])[H])C([H])([H])[H])C([H])([H])c2c([H])c(OC([H])([H])C([H])([H])C([H])([H])C([H])([H])c3c([H])c([H])c(C([H])([H])C([H])([H])C([H])([H])C4([H])C([H])([H])C([H])([H])N(C(=O)N5C([H])([H])C([H])([H])C([H])([H])C([H])(n6nc(-c7c([H])c([H])c(Oc8c([H])c([H])c(F)c([H])c8F)c([H])c7[H])c(C(=O)N([H])[H])c6N([H])[H])C5([H])[H])C([H])([H])C4([H])[H])c([H])c3F)c([H])c([H])c2C1([H])[H]

>  <smiles>  (7) 
[H]c1c([H])c([H])c2c(c1[H])C([H])([H])C([H])([H])C([H])([H])C2([H])N([H])C(=O)C1([H])N(C(=O)C([H])(N([H])C(=O)C([H])(N([H])C([H])([H])[H])C([H])([H])[H])C(C([H])([H])[H])(C([H])([H])[H])C([H])([H])[H])C([H])([H])c2c([H])c(OC([H])([H])C([H])([H])C([H])([H])C([H])([H])c3c([H])c([H])c(C([H])([H])C([H])([H])C([H])([H])C4([H])C([H])([H])C([H])([H])N(C(=O)N5C([H])([H])C([H])([H])C([H])([H])C([H])(n6nc(-c7c([H])c([H])c(Oc8c([H])c([H])c(F)c([H])c8F)c([H])c7[H])c(C(=O)N([H])[H])c6N([H])[H])C5([H])[H])C([H])([H])C4([H])[H])c([H])c3F)c([H])c([H])c2C1([H])[H]

$$$$
7:0:0
     RDKit          3D

 92 99  0  0  1  0  0  0  0  0999 V2000
  -27.0230  -23.2840   19.3740 C   0  0  0  0  0  3  0  0  0  0  0  0
  -25.8050  -22.8010   19.0600 C   0  0  0  0  0  3  0  0  0  0  0  0
  -28.4130  -25.0380   20.1800 C   0  0  0  0  0  3  0  0  0  0  0  0
  -27.3140  -24.2840   20.3930 C   0  0  0  0  0  0  0  0  0  0  0  0
  -27.1840  -23.9280   22.8960 C   0  0  0  0  0  1  0  0  0  0  0  0
  -26.4450  -24.4270   21.6420 C   0  0  0  0  0  2  0  0  0  0  0  0
  -28.9820  -26.1630   21.0260 C   0  0  0  0  0  2  0  0  0  0  0  0
  -28.9320  -27.3940   20.3150 O   0  0  0  0  0  0  0  0  0  0  0  0
  -24.7770  -32.0460   23.7150 C   0  0  0  0  0  0  0  0  0  0  0  0
  -27.7250  -28.0400   20.3700 C   0  0  0  0  0  0  0  0  0  0  0  0
  -23.6950  -30.7730   21.8890 C   0  0  0  0  0  3  0  0  0  0  0  0
  -25.2690  -29.4220   20.4060 C   0  0  0  0  0  0  0  0  0  0  0  0
  -26.2080  -31.2350   21.8510 C   0  0  0  0  0  2  0  0  0  0  0  0
  -26.3750  -29.9380   21.0950 C   0  0  0  0  0  0  0  0  0  0  0  0
  -27.6040  -29.2500   21.0840 C   0  0  0  0  0  3  0  0  0  0  0  0
  -26.6100  -27.5300   19.6740 C   0  0  0  0  0  3  0  0  0  0  0  0
  -25.3790  -28.2120   19.6960 C   0  0  0  0  0  3  0  0  0  0  0  0
  -23.9930  -30.2320   20.4660 C   0  0  0  0  0  2  0  0  0  0  0  0
  -24.9060  -31.3610   22.5450 N   0  0  0  0  0  0  0  0  0  0  0  0
  -23.6640  -32.2330   24.2270 O   0  0  0  0  0  0  0  0  0  0  0  0
  -23.0410  -29.6450   22.7140 C   0  0  0  0  0  0  0  0  0  0  0  0
  -21.7530  -29.3820   22.4460 N   0  0  0  0  0  0  0  0  0  0  0  0
  -23.6890  -29.0090   23.5500 O   0  0  0  0  0  0  0  0  0  0  0  0
  -21.2880  -29.9540   21.7550 H   0  0  0  0  0  0  0  0  0  0  0  0
  -18.4390  -27.9450   22.5450 C   0  0  0  0  0  0  0  0  0  0  0  0
  -20.9390  -28.3370   23.0650 C   0  0  0  0  0  3  0  0  0  0  0  0
  -21.1930  -26.9670   22.3930 C   0  0  0  0  0  2  0  0  0  0  0  0
  -20.2010  -26.6510   21.2710 C   0  0  0  0  0  2  0  0  0  0  0  0
  -18.7630  -26.6610   21.7970 C   0  0  0  0  0  2  0  0  0  0  0  0
  -19.4620  -28.7380   23.1280 C   0  0  0  0  0  0  0  0  0  0  0  0
  -19.1110  -29.9370   23.7840 C   0  0  0  0  0  3  0  0  0  0  0  0
  -17.7650  -30.3460   23.8620 C   0  0  0  0  0  3  0  0  0  0  0  0
  -16.7520  -29.5510   23.2970 C   0  0  0  0  0  3  0  0  0  0  0  0
  -17.0910  -28.3530   22.6420 C   0  0  0  0  0  3  0  0  0  0  0  0
  -26.0120  -32.6530   24.4520 C   0  0  0  0  0  3  0  0  0  0  0  0
  -26.3750  -31.8910   25.7860 C   0  0  1  0  0  0  0  0  0  0  0  0
  -25.1600  -31.6510   26.7130 C   0  0  0  0  0  1  0  0  0  0  0  0
  -27.0100  -30.5170   25.4710 C   0  0  0  0  0  1  0  0  0  0  0  0
  -27.4290  -32.6960   26.5810 C   0  0  0  0  0  1  0  0  0  0  0  0
  -25.7170  -34.0650   24.7240 N   0  0  0  0  0  0  0  0  0  0  0  0
  -26.1560  -35.0890   23.9790 C   0  0  0  0  0  0  0  0  0  0  0  0
  -26.9210  -34.9430   23.0210 O   0  0  0  0  0  0  0  0  0  0  0  0
  -25.0540  -34.2560   25.4610 H   0  0  0  0  0  0  0  0  0  0  0  0
  -24.5280  -36.9170   23.4060 C   0  0  0  0  0  1  0  0  0  0  0  0
  -25.6670  -36.5000   24.3520 C   0  0  0  0  0  3  0  0  0  0  0  0
  -27.7350  -37.3360   25.3770 C   0  0  0  0  0  1  0  0  0  0  0  0
  -26.7370  -37.5210   24.3260 N   0  0  0  0  0  0  0  0  0  0  0  0
  -26.3480  -38.4540   24.4220 H   0  0  0  0  0  0  0  0  0  0  0  0
  -25.6110  -21.7630   18.0270 C   0  0  0  0  0  0  0  0  0  0  0  0
  -24.5360  -21.6390   17.4380 O   0  0  0  0  0  0  0  0  0  0  0  0
  -26.7490  -20.7950   17.6780 C   0  0  0  0  0  2  0  0  0  0  0  0
  -27.0710  -19.8580   18.8540 C   0  0  0  0  0  2  0  0  0  0  0  0
  -28.2390  -18.9030   18.5740 C   0  0  0  0  0  2  0  0  0  0  0  0
  -28.6130  -18.1150   19.8350 C   0  0  0  0  0  2  0  0  0  0  0  0
  -29.7020  -17.0680   19.5850 C   0  0  0  0  0  2  0  0  0  0  0  0
  -30.0470  -16.2680   20.8580 C   0  0  0  0  0  2  0  0  0  0  0  0
  -30.8120  -14.9860   20.5040 C   0  0  0  0  0  0  0  0  0  0  0  0
  -30.7820  -12.5790   19.9740 C   0  0  0  0  0  2  0  0  0  0  0  0
  -29.9590  -12.3450   18.6900 C   0  0  0  0  0  2  0  0  0  0  0  0
  -28.4560  -12.2070   19.0060 C   0  0  0  0  0  2  0  0  0  0  0  0
  -27.9330  -13.3220   19.9490 C   0  0  0  0  0  3  0  0  0  0  0  0
  -28.8790  -13.4930   21.1580 C   0  0  0  0  0  2  0  0  0  0  0  0
  -30.2350  -13.7620   20.6510 N   0  0  0  0  0  0  0  0  0  0  0  0
  -31.9270  -15.1330   19.9940 O   0  0  0  0  0  0  0  0  0  0  0  0
  -25.5160  -13.9680   20.5670 C   0  0  0  0  0  0  0  0  0  0  0  0
  -24.4220  -13.2090   20.8830 C   0  0  0  0  0  0  0  0  0  0  0  0
  -24.8600  -11.8500   20.8520 C   0  0  0  0  0  0  0  0  0  0  0  0
  -26.5560  -13.0710   20.3640 N   0  0  0  0  0  0  0  0  0  0  0  0
  -26.1580  -11.7930   20.5890 N   0  0  0  0  0  0  0  0  0  0  0  0
  -24.1070  -10.5980   20.9990 C   0  0  0  0  0  0  0  0  0  0  0  0
  -24.4210   -9.6610   22.0110 C   0  0  0  0  0  3  0  0  0  0  0  0
  -23.6700   -8.4720   22.1430 C   0  0  0  0  0  3  0  0  0  0  0  0
  -22.5930   -8.2130   21.2640 C   0  0  0  0  0  0  0  0  0  0  0  0
  -22.2980   -9.1380   20.2470 C   0  0  0  0  0  3  0  0  0  0  0  0
  -23.0480  -10.3170   20.1120 C   0  0  0  0  0  3  0  0  0  0  0  0
  -21.8290   -7.0720   21.2970 O   0  0  0  0  0  0  0  0  0  0  0  0
  -21.5450   -6.4290   22.4770 C   0  0  0  0  0  0  0  0  0  0  0  0
  -20.8660   -7.0780   23.5300 C   0  0  0  0  0  3  0  0  0  0  0  0
  -20.5320   -6.3640   24.6980 C   0  0  0  0  0  3  0  0  0  0  0  0
  -20.8670   -5.0020   24.8130 C   0  0  0  0  0  0  0  0  0  0  0  0
  -21.5390   -4.3520   23.7620 C   0  0  0  0  0  3  0  0  0  0  0  0
  -21.8740   -5.0640   22.5960 C   0  0  0  0  0  0  0  0  0  0  0  0
  -22.5020   -4.4250   21.5780 F   0  0  0  0  0  0  0  0  0  0  0  0
  -20.5370   -4.3140   25.9300 F   0  0  0  0  0  0  0  0  0  0  0  0
  -23.0240  -13.7090   21.1070 C   0  0  0  0  0  0  0  0  0  0  0  0
  -22.2550  -13.0320   21.9500 N   0  0  0  0  0  0  0  0  0  0  0  0
  -22.6160  -14.7350   20.5670 O   0  0  0  0  0  0  0  0  0  0  0  0
  -22.5920  -12.2020   22.4180 H   0  0  0  0  0  0  0  0  0  0  0  0
  -21.3170  -13.3570   22.1400 H   0  0  0  0  0  0  0  0  0  0  0  0
  -25.7090  -15.3380   20.4220 N   0  0  0  0  0  0  0  0  0  0  0  0
  -24.9500  -16.0020   20.5220 H   0  0  0  0  0  0  0  0  0  0  0  0
  -26.5960  -15.7740   20.2060 H   0  0  0  0  0  0  0  0  0  0  0  0
  1  4  1  0
  2  1  2  0
  3  4  2  0
  3  7  1  0
  4  6  1  0
  6  5  1  0
  8 10  1  0
  8  7  1  0
  9 20  2  0
 10 15  1  0
 11 19  1  0
 11 21  1  0
 12 18  1  0
 12 14  1  0
 13 19  1  0
 14 13  1  0
 15 14  2  0
 16 17  1  0
 16 10  2  0
 17 12  2  0
 18 11  1  0
 19  9  1  0
 21 23  2  0
 22 21  1  0
 24 22  1  0
 25 34  2  0
 25 30  1  0
 26 22  1  0
 26 30  1  0
 27 26  1  0
 28 29  1  0
 28 27  1  0
 29 25  1  0
 30 31  2  0
 31 32  1  0
 33 32  2  0
 34 33  1  0
 35  9  1  0
 35 40  1  0
 35 36  1  0
 36 39  1  1
 36 37  1  0
 38 36  1  0
 40 43  1  0
 41 45  1  0
 41 40  1  0
 42 41  2  0
 45 44  1  0
 47 45  1  0
 47 48  1  0
 47 46  1  0
 49  2  1  0
 50 49  2  0
 51 49  1  0
 51 52  1  0
 53 52  1  0
 53 54  1  0
 55 54  1  0
 55 56  1  0
 57 63  1  0
 57 56  1  0
 58 63  1  0
 59 60  1  0
 59 58  1  0
 61 60  1  0
 61 68  1  0
 61 62  1  0
 63 62  1  0
 64 57  2  0
 65 66  2  0
 66 85  1  0
 67 66  1  0
 67 70  1  0
 68 65  1  0
 68 69  1  0
 69 67  2  0
 70 71  1  0
 71 72  2  0
 73 76  1  0
 73 72  1  0
 74 73  2  0
 75 74  1  0
 75 70  2  0
 76 77  1  0
 77 82  2  0
 77 78  1  0
 78 79  2  0
 79 80  1  0
 80 84  1  0
 81 80  2  0
 82 81  1  0
 83 82  1  0
 85 86  1  0
 86 89  1  0
 86 88  1  0
 87 85  2  0
 90 91  1  0
 90 65  1  0
 92 90  1  0
M  ISO  4   7 101   8 101  56 100  57 100
M  END
>  <TORSDO>  (8) 
F 26

>  <SCORE>  (8) 
-10.162

>  <name>  (8) 
7

>  <ligand_id>  (8) 
7

>  <original_smiles>  (8) 
[H]C(C(=O)C([H])([H])C([H])([H])C([H])([H])C([H])([H])C([H])([H])C([H])([H])C(=O)N1C([H])([H])C([H])([H])C([H])([H])C([H])(n2nc(-c3c([H])c([H])c(Oc4c([H])c([H])c(F)c([H])c4F)c([H])c3[H])c(C(=O)N([H])[H])c2N([H])[H])C1([H])[H])=C([H])C(=C([H])C([H])([H])Oc1c([H])c([H])c2c(c1[H])C([H])([H])N(C(=O)C([H])(N([H])C(=O)C([H])(N([H])C([H])([H])[H])C([H])([H])[H])C(C([H])([H])[H])(C([H])([H])[H])C([H])([H])[H])C([H])(C(=O)N([H])C1([H])c3c([H])c([H])c([H])c([H])c3C([H])([H])C([H])([H])C1([H])[H])C2([H])[H])C([H])([H])C([H])([H])[H]

>  <smiles>  (8) 
[H]C(C(=O)C([H])([H])C([H])([H])C([H])([H])C([H])([H])C([H])([H])C([H])([H])C(=O)N1C([H])([H])C([H])([H])C([H])([H])C([H])(n2nc(-c3c([H])c([H])c(Oc4c([H])c([H])c(F)c([H])c4F)c([H])c3[H])c(C(=O)N([H])[H])c2N([H])[H])C1([H])[H])=C([H])C(=C([H])C([H])([H])Oc1c([H])c([H])c2c(c1[H])C([H])([H])N(C(=O)C([H])(N([H])C(=O)C([H])(N([H])C([H])([H])[H])C([H])([H])[H])C(C([H])([H])[H])(C([H])([H])[H])C([H])([H])[H])C([H])(C(=O)N([H])C1([H])c3c([H])c([H])c([H])c([H])c3C([H])([H])C([H])([H])C1([H])[H])C2([H])[H])C([H])([H])C([H])([H])[H]

$$$$
8:0:0
     RDKit          3D

 94102  0  0  1  0  0  0  0  0999 V2000
  -32.1910  -25.3510   22.3240 C   0  0  0  0  0  1  0  0  0  0  0  0
  -30.9460  -25.0960   21.4620 C   0  0  0  0  0  3  0  0  0  0  0  0
  -31.1150  -21.9360   19.3060 C   0  0  0  0  0  3  0  0  0  0  0  0
  -30.6050  -21.2630   21.5940 C   0  0  0  0  0  3  0  0  0  0  0  0
  -31.1230  -23.2840   19.7030 C   0  0  0  0  0  3  0  0  0  0  0  0
  -30.6040  -22.6150   21.9900 C   0  0  0  0  0  3  0  0  0  0  0  0
  -30.8740  -20.9200   20.2530 C   0  0  0  0  0  0  0  0  0  0  0  0
  -30.8790  -23.6320   21.0480 C   0  0  0  0  0  0  0  0  0  0  0  0
  -31.0340  -19.4720   19.8340 C   0  0  0  0  0  2  0  0  0  0  0  0
  -29.9720  -18.4750   20.3390 C   0  0  0  0  0  2  0  0  0  0  0  0
  -30.4690  -17.0720   19.9620 C   0  0  0  0  0  2  0  0  0  0  0  0
  -29.7320  -15.8250   20.5100 C   0  0  0  0  0  2  0  0  0  0  0  0
  -30.3610  -14.5540   19.8980 C   0  0  0  0  0  0  0  0  0  0  0  0
  -30.1280  -12.2620   19.0440 C   0  0  0  0  0  2  0  0  0  0  0  0
  -29.1340  -12.2550   17.8680 C   0  0  0  0  0  2  0  0  0  0  0  0
  -27.6960  -12.0680   18.3850 C   0  0  0  0  0  2  0  0  0  0  0  0
  -27.3430  -13.0400   19.5440 C   0  0  0  0  0  3  0  0  0  0  0  0
  -28.4570  -13.0740   20.6160 C   0  0  0  0  0  2  0  0  0  0  0  0
  -29.7340  -13.3520   19.9490 N   0  0  0  0  0  0  0  0  0  0  0  0
  -31.4190  -14.6920   19.2780 O   0  0  0  0  0  0  0  0  0  0  0  0
  -24.9810  -13.5630   20.4220 C   0  0  0  0  0  0  0  0  0  0  0  0
  -23.9750  -12.7550   20.8790 C   0  0  0  0  0  0  0  0  0  0  0  0
  -24.4870  -11.4210   20.8320 C   0  0  0  0  0  0  0  0  0  0  0  0
  -26.0420  -12.7210   20.1260 N   0  0  0  0  0  0  0  0  0  0  0  0
  -25.7510  -11.4290   20.4290 N   0  0  0  0  0  0  0  0  0  0  0  0
  -23.8270  -10.1340   21.0920 C   0  0  0  0  0  0  0  0  0  0  0  0
  -24.2860   -9.2600   22.1020 C   0  0  0  0  0  3  0  0  0  0  0  0
  -23.6230   -8.0370   22.3460 C   0  0  0  0  0  3  0  0  0  0  0  0
  -22.4880   -7.6800   21.5790 C   0  0  0  0  0  0  0  0  0  0  0  0
  -22.0510   -8.5430   20.5590 C   0  0  0  0  0  3  0  0  0  0  0  0
  -22.7140   -9.7570   20.3140 C   0  0  0  0  0  3  0  0  0  0  0  0
  -21.7970   -6.5010   21.7280 O   0  0  0  0  0  0  0  0  0  0  0  0
  -21.6690   -5.8920   22.9500 C   0  0  0  0  0  0  0  0  0  0  0  0
  -21.0230   -6.5260   24.0350 C   0  0  0  0  0  3  0  0  0  0  0  0
  -20.8510   -5.8370   25.2520 C   0  0  0  0  0  3  0  0  0  0  0  0
  -21.3130   -4.5130   25.3840 C   0  0  0  0  0  0  0  0  0  0  0  0
  -21.9510   -3.8790   24.3040 C   0  0  0  0  0  3  0  0  0  0  0  0
  -22.1250   -4.5660   23.0900 C   0  0  0  0  0  0  0  0  0  0  0  0
  -22.7210   -3.9430   22.0440 F   0  0  0  0  0  0  0  0  0  0  0  0
  -21.1410   -3.8490   26.5500 F   0  0  0  0  0  0  0  0  0  0  0  0
  -22.5830  -13.1810   21.2480 C   0  0  0  0  0  0  0  0  0  0  0  0
  -21.9470  -12.4660   22.1700 N   0  0  0  0  0  0  0  0  0  0  0  0
  -22.0700  -14.1840   20.7540 O   0  0  0  0  0  0  0  0  0  0  0  0
  -22.3760  -11.6550   22.5910 H   0  0  0  0  0  0  0  0  0  0  0  0
  -21.0160  -12.7320   22.4570 H   0  0  0  0  0  0  0  0  0  0  0  0
  -25.0800  -14.9350   20.2140 N   0  0  0  0  0  0  0  0  0  0  0  0
  -24.3040  -15.5700   20.3710 H   0  0  0  0  0  0  0  0  0  0  0  0
  -25.8960  -15.3970   19.8330 H   0  0  0  0  0  0  0  0  0  0  0  0
  -29.6710  -25.6000   22.1780 C   0  0  0  0  0  2  0  0  0  0  0  0
  -28.3490  -25.4520   21.4140 C   0  0  0  0  0  0  0  0  0  0  0  0
  -27.3260  -25.1180   22.0190 O   0  0  0  0  0  0  0  0  0  0  0  0
  -28.2920  -25.7360   19.9100 C   0  0  0  0  0  2  0  0  0  0  0  0
  -28.6150  -27.1890   19.5380 C   0  0  0  0  0  2  0  0  0  0  0  0
  -27.7960  -27.5470   18.4240 O   0  0  0  0  0  0  0  0  0  0  0  0
  -24.0690  -31.4810   23.0240 C   0  0  0  0  0  0  0  0  0  0  0  0
  -26.6200  -28.1860   18.7270 C   0  0  0  0  0  0  0  0  0  0  0  0
  -22.7830  -30.5060   21.1430 C   0  0  0  0  0  3  0  0  0  0  0  0
  -24.1720  -29.4740   19.2730 C   0  0  0  0  0  0  0  0  0  0  0  0
  -25.2630  -31.0490   20.8860 C   0  0  0  0  0  2  0  0  0  0  0  0
  -25.3450  -29.9000   19.9080 C   0  0  0  0  0  0  0  0  0  0  0  0
  -26.5690  -29.2670   19.6330 C   0  0  0  0  0  3  0  0  0  0  0  0
  -25.4380  -27.7710   18.0820 C   0  0  0  0  0  3  0  0  0  0  0  0
  -24.2110  -28.4070   18.3580 C   0  0  0  0  0  3  0  0  0  0  0  0
  -22.9070  -30.2230   19.6210 C   0  0  0  0  0  2  0  0  0  0  0  0
  -24.0600  -31.0110   21.7440 N   0  0  0  0  0  0  0  0  0  0  0  0
  -23.0260  -31.5460   23.6880 O   0  0  0  0  0  0  0  0  0  0  0  0
  -22.2380  -29.2370   21.8360 C   0  0  0  0  0  0  0  0  0  0  0  0
  -20.9150  -29.0290   21.7400 N   0  0  0  0  0  0  0  0  0  0  0  0
  -22.9970  -28.4560   22.4150 O   0  0  0  0  0  0  0  0  0  0  0  0
  -20.3640  -29.7220   21.2520 H   0  0  0  0  0  0  0  0  0  0  0  0
  -17.6180  -27.6040   22.1270 C   0  0  0  0  0  0  0  0  0  0  0  0
  -20.1830  -27.8840   22.2800 C   0  0  0  0  0  3  0  0  0  0  0  0
  -20.2710  -26.6690   21.3290 C   0  0  0  0  0  2  0  0  0  0  0  0
  -19.1000  -26.5880   20.3450 C   0  0  0  0  0  2  0  0  0  0  0  0
  -17.7690  -26.4960   21.0980 C   0  0  0  0  0  2  0  0  0  0  0  0
  -18.7520  -28.2670   22.6700 C   0  0  0  0  0  0  0  0  0  0  0  0
  -18.5550  -29.3130   23.5970 C   0  0  0  0  0  3  0  0  0  0  0  0
  -17.2570  -29.6980   23.9830 C   0  0  0  0  0  3  0  0  0  0  0  0
  -16.1400  -29.0300   23.4540 C   0  0  0  0  0  3  0  0  0  0  0  0
  -16.3210  -27.9840   22.5320 C   0  0  0  0  0  3  0  0  0  0  0  0
  -25.3810  -31.9830   23.7030 C   0  0  0  0  0  3  0  0  0  0  0  0
  -25.9440  -30.9830   24.7850 C   0  0  1  0  0  0  0  0  0  0  0  0
  -24.8900  -30.5370   25.8260 C   0  0  0  0  0  1  0  0  0  0  0  0
  -26.5100  -29.7110   24.1090 C   0  0  0  0  0  1  0  0  0  0  0  0
  -27.1200  -31.6370   25.5460 C   0  0  0  0  0  1  0  0  0  0  0  0
  -25.0950  -33.2930   24.3040 N   0  0  0  0  0  0  0  0  0  0  0  0
  -25.4620  -34.4670   23.7740 C   0  0  0  0  0  0  0  0  0  0  0  0
  -26.1510  -34.5560   22.7540 O   0  0  0  0  0  0  0  0  0  0  0  0
  -24.4820  -33.2970   25.1060 H   0  0  0  0  0  0  0  0  0  0  0  0
  -23.7910  -36.3470   23.7380 C   0  0  0  0  0  1  0  0  0  0  0  0
  -24.9900  -35.7480   24.4890 C   0  0  0  0  0  3  0  0  0  0  0  0
  -27.1070  -36.3820   25.5570 C   0  0  0  0  0  1  0  0  0  0  0  0
  -26.0500  -36.7690   24.6270 N   0  0  0  0  0  0  0  0  0  0  0  0
  -25.6610  -37.6540   24.9420 H   0  0  0  0  0  0  0  0  0  0  0  0
  2 49  1  0
  2  1  1  0
  3  5  2  0
  3  7  1  0
  4  6  1  0
  5  8  1  0
  7  4  2  0
  8  2  1  0
  8  6  2  0
  9  7  1  0
  9 10  1  0
 11 10  1  0
 11 12  1  0
 13 19  1  0
 13 12  1  0
 14 19  1  0
 15 16  1  0
 15 14  1  0
 17 16  1  0
 17 24  1  0
 17 18  1  0
 19 18  1  0
 20 13  2  0
 21 22  2  0
 22 41  1  0
 23 22  1  0
 23 26  1  0
 24 21  1  0
 24 25  1  0
 25 23  2  0
 26 27  1  0
 27 28  2  0
 29 32  1  0
 29 28  1  0
 30 29  2  0
 31 30  1  0
 31 26  2  0
 32 33  1  0
 33 38  2  0
 33 34  1  0
 34 35  2  0
 35 36  1  0
 36 40  1  0
 37 36  2  0
 38 37  1  0
 39 38  1  0
 41 42  1  0
 42 45  1  0
 42 44  1  0
 43 41  2  0
 46 47  1  0
 46 21  1  0
 48 46  1  0
 50 51  2  0
 50 49  1  0
 52 50  1  0
 53 52  1  0
 54 56  1  0
 54 53  1  0
 55 66  2  0
 56 61  1  0
 57 65  1  0
 57 67  1  0
 58 64  1  0
 58 60  1  0
 59 65  1  0
 60 59  1  0
 61 60  2  0
 62 63  1  0
 62 56  2  0
 63 58  2  0
 64 57  1  0
 65 55  1  0
 67 69  2  0
 68 67  1  0
 70 68  1  0
 71 80  2  0
 71 76  1  0
 72 68  1  0
 72 76  1  0
 73 72  1  0
 74 75  1  0
 74 73  1  0
 75 71  1  0
 76 77  2  0
 77 78  1  0
 79 78  2  0
 80 79  1  0
 81 55  1  0
 81 86  1  0
 81 82  1  0
 82 85  1  1
 82 83  1  0
 84 82  1  0
 86 89  1  0
 87 86  1  0
 87 91  1  0
 88 87  2  0
 91 90  1  0
 91 93  1  0
 93 94  1  0
 93 92  1  0
M  ISO  4  12 100  13 100  53 101  54 101
M  END
>  <TORSDO>  (9) 
F 25

>  <SCORE>  (9) 
-6.521

>  <name>  (9) 
8

>  <ligand_id>  (9) 
8

>  <original_smiles>  (9) 
[H]c1c([H])c([H])c2c(c1[H])C([H])([H])C([H])([H])C([H])([H])C2([H])N([H])C(=O)C1([H])N(C(=O)C([H])(N([H])C(=O)C([H])(N([H])C([H])([H])[H])C([H])([H])[H])C(C([H])([H])[H])(C([H])([H])[H])C([H])([H])[H])C([H])([H])c2c([H])c(OC([H])([H])C([H])([H])C(=O)C([H])([H])C([H])(c3c([H])c([H])c(C([H])([H])C([H])([H])C([H])([H])C([H])([H])C(=O)N4C([H])([H])C([H])([H])C([H])([H])C([H])(n5nc(-c6c([H])c([H])c(Oc7c([H])c([H])c(F)c([H])c7F)c([H])c6[H])c(C(=O)N([H])[H])c5N([H])[H])C4([H])[H])c([H])c3[H])C([H])([H])[H])c([H])c([H])c2C1([H])[H]

>  <smiles>  (9) 
[H]c1c([H])c([H])c2c(c1[H])C([H])([H])C([H])([H])C([H])([H])C2([H])N([H])C(=O)C1([H])N(C(=O)C([H])(N([H])C(=O)C([H])(N([H])C([H])([H])[H])C([H])([H])[H])C(C([H])([H])[H])(C([H])([H])[H])C([H])([H])[H])C([H])([H])c2c([H])c(OC([H])([H])C([H])([H])C(=O)C([H])([H])C([H])(c3c([H])c([H])c(C([H])([H])C([H])([H])C([H])([H])C([H])([H])C(=O)N4C([H])([H])C([H])([H])C([H])([H])C([H])(n5nc(-c6c([H])c([H])c(Oc7c([H])c([H])c(F)c([H])c7F)c([H])c6[H])c(C(=O)N([H])[H])c5N([H])[H])C4([H])[H])c([H])c3[H])C([H])([H])[H])c([H])c([H])c2C1([H])[H]

$$$$
9:0:0
     RDKit          3D

 94103  0  0  1  0  0  0  0  0999 V2000
  -29.7930  -21.0310   24.8400 C   0  0  0  0  0  3  0  0  0  0  0  0
  -29.4740  -19.9640   23.9780 C   0  0  0  0  0  3  0  0  0  0  0  0
  -30.2260  -22.2610   24.3090 C   0  0  0  0  0  3  0  0  0  0  0  0
  -30.0190  -21.3590   22.0530 C   0  0  0  0  0  3  0  0  0  0  0  0
  -29.5860  -20.1230   22.5820 C   0  0  0  0  0  0  0  0  0  0  0  0
  -30.3400  -22.4330   22.9130 C   0  0  0  0  0  0  0  0  0  0  0  0
  -29.2310  -18.9690   21.6570 C   0  0  0  0  0  2  0  0  0  0  0  0
  -32.2850  -14.7420   19.3950 C   0  0  0  0  0  0  0  0  0  0  0  0
  -31.9030  -12.4150   18.6720 C   0  0  0  0  0  2  0  0  0  0  0  0
  -30.7790  -12.3680   17.6190 C   0  0  0  0  0  2  0  0  0  0  0  0
  -29.3990  -12.2650   18.2960 C   0  0  0  0  0  2  0  0  0  0  0  0
  -29.2090  -13.3140   19.4230 C   0  0  0  0  0  3  0  0  0  0  0  0
  -30.4270  -13.3210   20.3700 C   0  0  0  0  0  2  0  0  0  0  0  0
  -31.6400  -13.5540   19.5650 N   0  0  0  0  0  0  0  0  0  0  0  0
  -33.2210  -14.8830   18.5980 O   0  0  0  0  0  0  0  0  0  0  0  0
  -30.3640  -17.8600   19.6550 C   0  0  0  0  0  2  0  0  0  0  0  0
  -30.7100  -16.8880   21.9560 C   0  0  0  0  0  2  0  0  0  0  0  0
  -31.5830  -17.0530   19.1810 C   0  0  0  0  0  2  0  0  0  0  0  0
  -31.9150  -16.1040   21.3940 C   0  0  0  0  0  2  0  0  0  0  0  0
  -30.4670  -18.1850   21.1570 C   0  0  0  0  0  3  0  0  0  0  0  0
  -31.7070  -15.8200   19.9670 N   0  0  0  0  0  0  0  0  0  0  0  0
  -27.1330  -14.0110   20.7820 C   0  0  0  0  0  0  0  0  0  0  0  0
  -26.0670  -13.2940   21.2540 C   0  0  0  0  0  0  0  0  0  0  0  0
  -26.3040  -11.9380   20.8730 C   0  0  0  0  0  0  0  0  0  0  0  0
  -27.9620  -13.0920   20.1540 N   0  0  0  0  0  0  0  0  0  0  0  0
  -27.4750  -11.8290   20.2600 N   0  0  0  0  0  0  0  0  0  0  0  0
  -25.4560  -10.7460   21.0070 C   0  0  0  0  0  0  0  0  0  0  0  0
  -25.8740   -9.6220   21.7540 C   0  0  0  0  0  3  0  0  0  0  0  0
  -25.0350   -8.4950   21.8820 C   0  0  0  0  0  3  0  0  0  0  0  0
  -23.7620   -8.4840   21.2630 C   0  0  0  0  0  0  0  0  0  0  0  0
  -23.3600   -9.5950   20.5010 C   0  0  0  0  0  3  0  0  0  0  0  0
  -24.1990  -10.7150   20.3710 C   0  0  0  0  0  3  0  0  0  0  0  0
  -22.8900   -7.4230   21.3120 O   0  0  0  0  0  0  0  0  0  0  0  0
  -22.5960   -6.7860   22.4910 C   0  0  0  0  0  0  0  0  0  0  0  0
  -22.1200   -7.4900   23.6190 C   0  0  0  0  0  3  0  0  0  0  0  0
  -21.7640   -6.7870   24.7870 C   0  0  0  0  0  3  0  0  0  0  0  0
  -21.8730   -5.3840   24.8290 C   0  0  0  0  0  0  0  0  0  0  0  0
  -22.3420   -4.6820   23.7040 C   0  0  0  0  0  3  0  0  0  0  0  0
  -22.6990   -5.3810   22.5380 C   0  0  0  0  0  0  0  0  0  0  0  0
  -23.1300   -4.6980   21.4500 F   0  0  0  0  0  0  0  0  0  0  0  0
  -21.5240   -4.7090   25.9480 F   0  0  0  0  0  0  0  0  0  0  0  0
  -24.8480  -13.8470   21.9370 C   0  0  0  0  0  0  0  0  0  0  0  0
  -24.2660  -13.0880   22.8590 N   0  0  0  0  0  0  0  0  0  0  0  0
  -24.4340  -14.9780   21.6890 O   0  0  0  0  0  0  0  0  0  0  0  0
  -24.6180  -12.1680   23.0770 H   0  0  0  0  0  0  0  0  0  0  0  0
  -23.4560  -13.4330   23.3550 H   0  0  0  0  0  0  0  0  0  0  0  0
  -27.4590  -15.3640   20.8160 N   0  0  0  0  0  0  0  0  0  0  0  0
  -26.8450  -16.0590   21.2250 H   0  0  0  0  0  0  0  0  0  0  0  0
  -28.2890  -15.7620   20.3960 H   0  0  0  0  0  0  0  0  0  0  0  0
  -30.7960  -23.7730   22.3520 C   0  0  0  0  0  2  0  0  0  0  0  0
  -29.9230  -24.2630   21.1850 C   0  0  0  0  0  2  0  0  0  0  0  0
  -29.9750  -25.7900   20.9830 C   0  0  0  0  0  2  0  0  0  0  0  0
  -29.1490  -26.2420   19.7700 C   0  0  0  0  0  2  0  0  0  0  0  0
  -28.9580  -27.6600   19.8170 O   0  0  0  0  0  0  0  0  0  0  0  0
  -24.2750  -31.6700   23.3450 C   0  0  0  0  0  0  0  0  0  0  0  0
  -27.6590  -28.1200   19.8740 C   0  0  0  0  0  0  0  0  0  0  0  0
  -23.3260  -30.2070   21.5890 C   0  0  0  0  0  3  0  0  0  0  0  0
  -25.0170  -29.1140   20.0270 C   0  0  0  0  0  0  0  0  0  0  0  0
  -25.7270  -31.0700   21.4110 C   0  0  0  0  0  2  0  0  0  0  0  0
  -26.0620  -29.8020   20.6550 C   0  0  0  0  0  0  0  0  0  0  0  0
  -27.3850  -29.3120   20.5780 C   0  0  0  0  0  3  0  0  0  0  0  0
  -26.5960  -27.4500   19.2240 C   0  0  0  0  0  3  0  0  0  0  0  0
  -25.2790  -27.9350   19.3100 C   0  0  0  0  0  3  0  0  0  0  0  0
  -23.6320  -29.7050   20.1540 C   0  0  0  0  0  2  0  0  0  0  0  0
  -24.4590  -30.9940   22.1750 N   0  0  0  0  0  0  0  0  0  0  0  0
  -23.1740  -31.6790   23.9120 O   0  0  0  0  0  0  0  0  0  0  0  0
  -22.9080  -28.9990   22.4570 C   0  0  0  0  0  0  0  0  0  0  0  0
  -21.7020  -28.4670   22.1980 N   0  0  0  0  0  0  0  0  0  0  0  0
  -23.6670  -28.5430   23.3160 O   0  0  0  0  0  0  0  0  0  0  0  0
  -21.1380  -28.9020   21.4820 H   0  0  0  0  0  0  0  0  0  0  0  0
  -18.8180  -26.2930   22.2440 C   0  0  0  0  0  0  0  0  0  0  0  0
  -21.1140  -27.3050   22.8630 C   0  0  0  0  0  3  0  0  0  0  0  0
  -21.7250  -25.9900   22.3270 C   0  0  0  0  0  2  0  0  0  0  0  0
  -20.9210  -25.3780   21.1750 C   0  0  0  0  0  2  0  0  0  0  0  0
  -19.4860  -25.0790   21.6200 C   0  0  0  0  0  2  0  0  0  0  0  0
  -19.5830  -27.3450   22.8130 C   0  0  0  0  0  0  0  0  0  0  0  0
  -18.9130  -28.4660   23.3500 C   0  0  0  0  0  3  0  0  0  0  0  0
  -17.5080  -28.5470   23.3240 C   0  0  0  0  0  3  0  0  0  0  0  0
  -16.7550  -27.4950   22.7740 C   0  0  0  0  0  3  0  0  0  0  0  0
  -17.4090  -26.3700   22.2400 C   0  0  0  0  0  3  0  0  0  0  0  0
  -25.4290  -32.4800   24.0120 C   0  0  0  0  0  3  0  0  0  0  0  0
  -25.0400  -33.8970   23.9960 N   0  0  0  0  0  0  0  0  0  0  0  0
  -25.5250  -34.8080   23.1420 C   0  0  0  0  0  0  0  0  0  0  0  0
  -26.4110  -34.5540   22.3230 O   0  0  0  0  0  0  0  0  0  0  0  0
  -24.2800  -34.1640   24.6050 H   0  0  0  0  0  0  0  0  0  0  0  0
  -23.9390  -36.4240   22.0460 C   0  0  0  0  0  1  0  0  0  0  0  0
  -24.9290  -36.2280   23.2060 C   0  0  0  0  0  3  0  0  0  0  0  0
  -26.7800  -37.3370   24.3780 C   0  0  0  0  0  1  0  0  0  0  0  0
  -25.9500  -37.2970   23.1770 N   0  0  0  0  0  0  0  0  0  0  0  0
  -25.5140  -38.2080   23.0640 H   0  0  0  0  0  0  0  0  0  0  0  0
  -25.7540  -32.0060   25.4810 C   0  0  1  0  0  0  0  0  0  0  0  0
  -24.5120  -31.9240   26.3970 C   0  0  0  0  0  1  0  0  0  0  0  0
  -26.4250  -30.6120   25.4650 C   0  0  0  0  0  1  0  0  0  0  0  0
  -26.7660  -32.9770   26.1340 C   0  0  0  0  0  1  0  0  0  0  0  0
  2  1  2  0
  3  1  1  0
  4  5  2  0
  4  6  1  0
  5  2  1  0
  6  3  2  0
  7  5  1  0
  8 14  1  0
  8 21  1  0
  9 14  1  0
 10 11  1  0
 10  9  1  0
 12 11  1  0
 12 25  1  0
 12 13  1  0
 14 13  1  0
 15  8  2  0
 16 20  1  0
 18 16  1  0
 18 21  1  0
 19 17  1  0
 20  7  1  0
 20 17  1  0
 21 19  1  0
 22 47  1  0
 22 23  2  0
 23 42  1  0
 24 27  1  0
 24 23  1  0
 25 26  1  0
 25 22  1  0
 26 24  2  0
 27 28  1  0
 28 29  2  0
 30 33  1  0
 30 29  1  0
 31 30  2  0
 32 31  1  0
 32 27  2  0
 33 34  1  0
 34 39  2  0
 34 35  1  0
 35 36  2  0
 36 37  1  0
 37 41  1  0
 38 37  2  0
 39 38  1  0
 40 39  1  0
 42 43  1  0
 43 45  1  0
 43 46  1  0
 44 42  2  0
 47 48  1  0
 49 47  1  0
 50  6  1  0
 51 50  1  0
 52 51  1  0
 53 54  1  0
 53 52  1  0
 54 56  1  0
 55 66  2  0
 56 61  1  0
 57 65  1  0
 57 67  1  0
 58 64  1  0
 58 60  1  0
 59 65  1  0
 60 59  1  0
 61 60  2  0
 62 63  1  0
 62 56  2  0
 63 58  2  0
 64 57  1  0
 65 55  1  0
 67 69  2  0
 68 67  1  0
 70 68  1  0
 71 76  1  0
 72 68  1  0
 73 72  1  0
 74 75  1  0
 74 73  1  0
 75 71  1  0
 76 72  1  0
 76 77  2  0
 78 77  1  0
 79 78  2  0
 80 71  2  0
 80 79  1  0
 81 55  1  0
 81 91  1  0
 82 81  1  0
 82 85  1  0
 83 87  1  0
 83 82  1  0
 84 83  2  0
 87 86  1  0
 89 87  1  0
 89 88  1  0
 90 89  1  0
 91 94  1  1
 91 92  1  0
 93 91  1  0
M  ISO  4   8 100  21 100  53 101  54 101
M  END
>  <TORSDO>  (10) 
F 21

>  <SCORE>  (10) 
-2.930

>  <name>  (10) 
9

>  <ligand_id>  (10) 
9

>  <original_smiles>  (10) 
[H]c1c([H])c([H])c2c(c1[H])C([H])([H])C([H])([H])C([H])([H])C2([H])N([H])C(=O)C1([H])N(C(=O)C([H])(N([H])C(=O)C([H])(N([H])C([H])([H])[H])C([H])([H])[H])C(C([H])([H])[H])(C([H])([H])[H])C([H])([H])[H])C([H])([H])c2c([H])c(OC([H])([H])C([H])([H])C([H])([H])C([H])([H])c3c([H])c([H])c([H])c(C([H])([H])C4([H])C([H])([H])C([H])([H])N(C(=O)N5C([H])([H])C([H])([H])C([H])([H])C([H])(n6nc(-c7c([H])c([H])c(Oc8c([H])c([H])c(F)c([H])c8F)c([H])c7[H])c(C(=O)N([H])[H])c6N([H])[H])C5([H])[H])C([H])([H])C4([H])[H])c3[H])c([H])c([H])c2C1([H])[H]

>  <smiles>  (10) 
[H]c1c([H])c([H])c2c(c1[H])C([H])([H])C([H])([H])C([H])([H])C2([H])N([H])C(=O)C1([H])N(C(=O)C([H])(N([H])C(=O)C([H])(N([H])C([H])([H])[H])C([H])([H])[H])C(C([H])([H])[H])(C([H])([H])[H])C([H])([H])[H])C([H])([H])c2c([H])c(OC([H])([H])C([H])([H])C([H])([H])C([H])([H])c3c([H])c([H])c([H])c(C([H])([H])C4([H])C([H])([H])C([H])([H])N(C(=O)N5C([H])([H])C([H])([H])C([H])([H])C([H])(n6nc(-c7c([H])c([H])c(Oc8c([H])c([H])c(F)c([H])c8F)c([H])c7[H])c(C(=O)N([H])[H])c6N([H])[H])C5([H])[H])C([H])([H])C4([H])[H])c3[H])c([H])c([H])c2C1([H])[H]

$$$$
10:0:0
     RDKit          3D

 89 96  0  0  1  0  0  0  0  0999 V2000
  -28.6750  -24.5040   21.1190 C   0  0  0  0  0  3  0  0  0  0  0  0
  -28.6260  -25.3700   19.8260 C   0  0  0  0  0  2  0  0  0  0  0  0
  -28.4910  -26.7820   20.1050 O   0  0  0  0  0  0  0  0  0  0  0  0
  -24.6070  -31.8830   23.2230 C   0  0  0  0  0  0  0  0  0  0  0  0
  -27.2730  -27.4390   20.1330 C   0  0  0  0  0  0  0  0  0  0  0  0
  -23.4040  -30.4760   21.5820 C   0  0  0  0  0  3  0  0  0  0  0  0
  -24.8630  -28.9370   20.1600 C   0  0  0  0  0  0  0  0  0  0  0  0
  -25.9290  -30.8440   21.3780 C   0  0  0  0  0  2  0  0  0  0  0  0
  -26.0190  -29.4680   20.7430 C   0  0  0  0  0  0  0  0  0  0  0  0
  -27.2220  -28.7260   20.7230 C   0  0  0  0  0  3  0  0  0  0  0  0
  -26.0900  -26.9170   19.5610 C   0  0  0  0  0  3  0  0  0  0  0  0
  -24.8930  -27.6610   19.5710 C   0  0  0  0  0  3  0  0  0  0  0  0
  -23.6160  -29.7920   20.2040 C   0  0  0  0  0  2  0  0  0  0  0  0
  -24.6660  -31.0850   22.1200 N   0  0  0  0  0  0  0  0  0  0  0  0
  -23.5260  -32.1510   23.7640 O   0  0  0  0  0  0  0  0  0  0  0  0
  -22.7560  -29.4560   22.5430 C   0  0  0  0  0  0  0  0  0  0  0  0
  -21.4310  -29.2730   22.4180 N   0  0  0  0  0  0  0  0  0  0  0  0
  -23.4410  -28.8290   23.3560 O   0  0  0  0  0  0  0  0  0  0  0  0
  -20.9400  -29.8340   21.7360 H   0  0  0  0  0  0  0  0  0  0  0  0
  -18.0590  -28.0690   22.9090 C   0  0  0  0  0  0  0  0  0  0  0  0
  -20.6160  -28.3320   23.1850 C   0  0  0  0  0  3  0  0  0  0  0  0
  -20.7230  -26.9010   22.6070 C   0  0  0  0  0  2  0  0  0  0  0  0
  -19.6220  -26.5780   21.5910 C   0  0  0  0  0  2  0  0  0  0  0  0
  -18.2400  -26.7210   22.2320 C   0  0  0  0  0  2  0  0  0  0  0  0
  -19.1760  -28.8320   23.3430 C   0  0  0  0  0  0  0  0  0  0  0  0
  -18.9550  -30.0940   23.9340 C   0  0  0  0  0  3  0  0  0  0  0  0
  -17.6490  -30.5940   24.0990 C   0  0  0  0  0  3  0  0  0  0  0  0
  -16.5470  -29.8270   23.6830 C   0  0  0  0  0  3  0  0  0  0  0  0
  -16.7520  -28.5670   23.0930 C   0  0  0  0  0  3  0  0  0  0  0  0
  -25.8900  -32.5180   23.8450 C   0  0  0  0  0  3  0  0  0  0  0  0
  -26.4110  -31.7440   25.1190 C   0  0  1  0  0  0  0  0  0  0  0  0
  -25.3220  -31.5020   26.1900 C   0  0  0  0  0  1  0  0  0  0  0  0
  -26.9980  -30.3700   24.7200 C   0  0  0  0  0  1  0  0  0  0  0  0
  -27.5590  -32.5430   25.7830 C   0  0  0  0  0  1  0  0  0  0  0  0
  -25.5770  -33.9150   24.1770 N   0  0  0  0  0  0  0  0  0  0  0  0
  -25.9100  -34.9690   23.4210 C   0  0  0  0  0  0  0  0  0  0  0  0
  -26.5840  -34.8680   22.3920 O   0  0  0  0  0  0  0  0  0  0  0  0
  -24.9830  -34.0640   24.9780 H   0  0  0  0  0  0  0  0  0  0  0  0
  -24.1800  -36.7600   23.0620 C   0  0  0  0  0  1  0  0  0  0  0  0
  -25.4190  -36.3570   23.8790 C   0  0  0  0  0  3  0  0  0  0  0  0
  -27.5490  -37.2420   24.7150 C   0  0  0  0  0  1  0  0  0  0  0  0
  -26.4480  -37.4110   23.7710 N   0  0  0  0  0  0  0  0  0  0  0  0
  -26.0410  -38.3290   23.9200 H   0  0  0  0  0  0  0  0  0  0  0  0
  -29.5900  -25.1990   22.1620 C   0  0  0  0  0  2  0  0  0  0  0  0
  -29.5430  -24.5650   23.4300 O   0  0  0  0  0  0  0  0  0  0  0  0
  -30.1390  -25.0320   24.0090 H   0  0  0  0  0  0  0  0  0  0  0  0
  -29.1650  -23.0300   20.8860 C   0  0  0  0  0  2  0  0  0  0  0  0
  -28.1970  -22.0500   20.1730 C   0  0  0  0  0  2  0  0  0  0  0  0
  -28.2570  -20.5790   20.6870 C   0  0  0  0  0  2  0  0  0  0  0  0
  -29.3670  -19.6370   20.1390 C   0  0  0  0  0  2  0  0  0  0  0  0
  -29.3870  -18.2670   20.8850 C   0  0  0  0  0  2  0  0  0  0  0  0
  -30.2190  -17.1140   20.2460 C   0  0  0  0  0  2  0  0  0  0  0  0
  -30.1070  -15.7600   21.0230 C   0  0  0  0  0  2  0  0  0  0  0  0
  -30.7710  -14.5350   20.3290 C   0  0  0  0  0  0  0  0  0  0  0  0
  -30.4720  -12.3780   19.1530 C   0  0  0  0  0  2  0  0  0  0  0  0
  -29.5180  -12.6010   17.9600 C   0  0  0  0  0  2  0  0  0  0  0  0
  -28.0420  -12.4740   18.3990 C   0  0  0  0  0  2  0  0  0  0  0  0
  -27.7250  -13.2900   19.6820 C   0  0  0  0  0  3  0  0  0  0  0  0
  -28.7910  -13.0310   20.7710 C   0  0  0  0  0  2  0  0  0  0  0  0
  -30.1080  -13.3490   20.1990 N   0  0  0  0  0  0  0  0  0  0  0  0
  -31.8860  -14.7060   19.8260 O   0  0  0  0  0  0  0  0  0  0  0  0
  -25.3340  -13.9190   20.3940 C   0  0  0  0  0  0  0  0  0  0  0  0
  -24.2610  -13.1540   20.7750 C   0  0  0  0  0  0  0  0  0  0  0  0
  -24.7130  -11.8000   20.7510 C   0  0  0  0  0  0  0  0  0  0  0  0
  -26.3720  -13.0270   20.1690 N   0  0  0  0  0  0  0  0  0  0  0  0
  -26.0020  -11.7490   20.4380 N   0  0  0  0  0  0  0  0  0  0  0  0
  -23.9790  -10.5440   20.9540 C   0  0  0  0  0  0  0  0  0  0  0  0
  -24.4090   -9.5820   21.8940 C   0  0  0  0  0  3  0  0  0  0  0  0
  -23.6780   -8.3890   22.0840 C   0  0  0  0  0  3  0  0  0  0  0  0
  -22.5000   -8.1520   21.3360 C   0  0  0  0  0  0  0  0  0  0  0  0
  -22.0890   -9.1040   20.3840 C   0  0  0  0  0  3  0  0  0  0  0  0
  -22.8200  -10.2870   20.1920 C   0  0  0  0  0  3  0  0  0  0  0  0
  -21.7390   -7.0130   21.4350 O   0  0  0  0  0  0  0  0  0  0  0  0
  -21.6870   -6.2800   22.5940 C   0  0  0  0  0  0  0  0  0  0  0  0
  -21.2790   -6.8520   23.8190 C   0  0  0  0  0  3  0  0  0  0  0  0
  -21.1750   -6.0470   24.9710 C   0  0  0  0  0  3  0  0  0  0  0  0
  -21.4650   -4.6710   24.8980 C   0  0  0  0  0  0  0  0  0  0  0  0
  -21.8630   -4.0980   23.6770 C   0  0  0  0  0  3  0  0  0  0  0  0
  -21.9720   -4.9010   22.5280 C   0  0  0  0  0  0  0  0  0  0  0  0
  -22.3370   -4.3400   21.3490 F   0  0  0  0  0  0  0  0  0  0  0  0
  -21.3570   -3.8960   26.0030 F   0  0  0  0  0  0  0  0  0  0  0  0
  -22.8690  -13.6430   21.0500 C   0  0  0  0  0  0  0  0  0  0  0  0
  -22.1390  -12.9600   21.9260 N   0  0  0  0  0  0  0  0  0  0  0  0
  -22.4340  -14.6660   20.5220 O   0  0  0  0  0  0  0  0  0  0  0  0
  -22.5020  -12.1350   22.3830 H   0  0  0  0  0  0  0  0  0  0  0  0
  -21.2030  -13.2680   22.1430 H   0  0  0  0  0  0  0  0  0  0  0  0
  -25.5090  -15.2860   20.2050 N   0  0  0  0  0  0  0  0  0  0  0  0
  -24.7530  -15.9540   20.3110 H   0  0  0  0  0  0  0  0  0  0  0  0
  -26.3720  -15.7140   19.8930 H   0  0  0  0  0  0  0  0  0  0  0  0
  1  2  1  0
  1 44  1  0
  2  3  1  0
  3  5  1  0
  4 15  2  0
  5 10  1  0
  6 14  1  0
  6 16  1  0
  7 13  1  0
  7  9  1  0
  8 14  1  0
  9  8  1  0
 10  9  2  0
 11 12  1  0
 11  5  2  0
 12  7  2  0
 13  6  1  0
 14  4  1  0
 16 18  2  0
 17 16  1  0
 19 17  1  0
 20 29  2  0
 20 25  1  0
 21 17  1  0
 21 25  1  0
 22 21  1  0
 23 24  1  0
 23 22  1  0
 24 20  1  0
 25 26  2  0
 26 27  1  0
 28 27  2  0
 29 28  1  0
 30  4  1  0
 30 35  1  0
 30 31  1  0
 31 34  1  1
 31 32  1  0
 33 31  1  0
 35 38  1  0
 36 40  1  0
 36 35  1  0
 37 36  2  0
 40 39  1  0
 42 40  1  0
 42 43  1  0
 42 41  1  0
 44 45  1  0
 45 46  1  0
 47  1  1  0
 48 49  1  0
 48 47  1  0
 50 49  1  0
 50 51  1  0
 52 51  1  0
 52 53  1  0
 54 53  1  0
 55 60  1  0
 56 57  1  0
 56 55  1  0
 58 57  1  0
 58 65  1  0
 58 59  1  0
 60 54  1  0
 60 59  1  0
 61 54  2  0
 62 63  2  0
 63 82  1  0
 64 63  1  0
 64 67  1  0
 65 62  1  0
 65 66  1  0
 66 64  2  0
 67 68  1  0
 68 69  2  0
 70 73  1  0
 70 69  1  0
 71 70  2  0
 72 71  1  0
 72 67  2  0
 73 74  1  0
 74 75  1  0
 75 76  2  0
 77 76  1  0
 77 81  1  0
 78 77  2  0
 79 74  2  0
 79 78  1  0
 80 79  1  0
 82 83  1  0
 83 86  1  0
 83 85  1  0
 84 82  2  0
 87 88  1  0
 87 62  1  0
 89 87  1  0
M  ISO  4   2 101   3 101  53 100  54 100
M  END
>  <TORSDO>  (11) 
F 26

>  <SCORE>  (11) 
-12.160

>  <name>  (11) 
10

>  <ligand_id>  (11) 
10

>  <original_smiles>  (11) 
[H]OC([H])([H])C([H])(C([H])([H])Oc1c([H])c([H])c2c(c1[H])C([H])([H])N(C(=O)C([H])(N([H])C(=O)C([H])(N([H])C([H])([H])[H])C([H])([H])[H])C(C([H])([H])[H])(C([H])([H])[H])C([H])([H])[H])C([H])(C(=O)N([H])C1([H])c3c([H])c([H])c([H])c([H])c3C([H])([H])C([H])([H])C1([H])[H])C2([H])[H])C([H])([H])C([H])([H])C([H])([H])C([H])([H])C([H])([H])C([H])([H])C([H])([H])C(=O)N1C([H])([H])C([H])([H])C([H])([H])C([H])(n2nc(-c3c([H])c([H])c(Oc4c([H])c([H])c(F)c([H])c4F)c([H])c3[H])c(C(=O)N([H])[H])c2N([H])[H])C1([H])[H]

>  <smiles>  (11) 
[H]OC([H])([H])C([H])(C([H])([H])Oc1c([H])c([H])c2c(c1[H])C([H])([H])N(C(=O)C([H])(N([H])C(=O)C([H])(N([H])C([H])([H])[H])C([H])([H])[H])C(C([H])([H])[H])(C([H])([H])[H])C([H])([H])[H])C([H])(C(=O)N([H])C1([H])c3c([H])c([H])c([H])c([H])c3C([H])([H])C([H])([H])C1([H])[H])C2([H])[H])C([H])([H])C([H])([H])C([H])([H])C([H])([H])C([H])([H])C([H])([H])C([H])([H])C(=O)N1C([H])([H])C([H])([H])C([H])([H])C([H])(n2nc(-c3c([H])c([H])c(Oc4c([H])c([H])c(F)c([H])c4F)c([H])c3[H])c(C(=O)N([H])[H])c2N([H])[H])C1([H])[H]

$$$$
11:0:0
     RDKit          3D

 95102  0  0  1  0  0  0  0  0999 V2000
  -32.1840  -26.4410   21.2960 C   0  0  0  0  0  0  0  0  0  0  0  0
  -30.8700  -26.6800   21.3000 N   0  0  0  0  0  0  0  0  0  0  0  0
  -32.8610  -26.3510   22.3200 O   0  0  0  0  0  0  0  0  0  0  0  0
  -30.4460  -26.8300   20.3940 H   0  0  0  0  0  0  0  0  0  0  0  0
  -32.5720  -27.3450   18.9480 C   0  0  0  0  0  1  0  0  0  0  0  0
  -32.7990  -26.1640   19.9110 C   0  0  0  0  0  3  0  0  0  0  0  0
  -32.2490  -24.8420   19.3170 C   0  0  0  0  0  2  0  0  0  0  0  0
  -32.5720  -23.5820   20.1450 C   0  0  0  0  0  2  0  0  0  0  0  0
  -31.6280  -22.4000   19.8800 C   0  0  0  0  0  2  0  0  0  0  0  0
  -32.0110  -21.2020   20.7560 C   0  0  0  0  0  2  0  0  0  0  0  0
  -31.1800  -19.9460   20.4770 C   0  0  0  0  0  2  0  0  0  0  0  0
  -31.5170  -18.8410   21.4830 C   0  0  0  0  0  2  0  0  0  0  0  0
  -30.9350  -17.4850   21.0860 C   0  0  0  0  0  2  0  0  0  0  0  0
  -31.1630  -16.4280   22.1790 C   0  0  0  0  0  2  0  0  0  0  0  0
  -30.3730  -15.1270   21.9560 C   0  0  0  0  0  2  0  0  0  0  0  0
  -30.7810  -14.2960   20.7310 C   0  0  0  0  0  0  0  0  0  0  0  0
  -30.4220  -12.2810   19.3450 C   0  0  0  0  0  2  0  0  0  0  0  0
  -29.4760  -12.5550   18.1640 C   0  0  0  0  0  2  0  0  0  0  0  0
  -28.0020  -12.3990   18.5930 C   0  0  0  0  0  2  0  0  0  0  0  0
  -27.6760  -13.1930   19.8870 C   0  0  0  0  0  3  0  0  0  0  0  0
  -28.7200  -12.8770   20.9810 C   0  0  0  0  0  2  0  0  0  0  0  0
  -30.0550  -13.1880   20.4390 N   0  0  0  0  0  0  0  0  0  0  0  0
  -31.7860  -14.6200   20.0850 O   0  0  0  0  0  0  0  0  0  0  0  0
  -25.2680  -13.8150   20.5670 C   0  0  0  0  0  0  0  0  0  0  0  0
  -24.1890  -13.0430   20.9180 C   0  0  0  0  0  0  0  0  0  0  0  0
  -24.6430  -11.6900   20.8730 C   0  0  0  0  0  0  0  0  0  0  0  0
  -26.3110  -12.9280   20.3430 N   0  0  0  0  0  0  0  0  0  0  0  0
  -25.9350  -11.6440   20.5750 N   0  0  0  0  0  0  0  0  0  0  0  0
  -23.9090  -10.4290   21.0400 C   0  0  0  0  0  0  0  0  0  0  0  0
  -24.3630   -9.4220   21.9190 C   0  0  0  0  0  3  0  0  0  0  0  0
  -23.6310   -8.2240   22.0750 C   0  0  0  0  0  3  0  0  0  0  0  0
  -22.4300   -8.0290   21.3540 C   0  0  0  0  0  0  0  0  0  0  0  0
  -21.9940   -9.0260   20.4650 C   0  0  0  0  0  3  0  0  0  0  0  0
  -22.7260  -10.2140   20.3060 C   0  0  0  0  0  3  0  0  0  0  0  0
  -21.6640   -6.8900   21.4240 O   0  0  0  0  0  0  0  0  0  0  0  0
  -21.6860   -6.0760   22.5290 C   0  0  0  0  0  0  0  0  0  0  0  0
  -21.4010   -6.5660   23.8220 C   0  0  0  0  0  3  0  0  0  0  0  0
  -21.3660   -5.6810   24.9180 C   0  0  0  0  0  3  0  0  0  0  0  0
  -21.6050   -4.3070   24.7220 C   0  0  0  0  0  0  0  0  0  0  0  0
  -21.8830   -3.8170   23.4340 C   0  0  0  0  0  3  0  0  0  0  0  0
  -21.9200   -4.6990   22.3390 C   0  0  0  0  0  0  0  0  0  0  0  0
  -22.1670   -4.2180   21.0960 F   0  0  0  0  0  0  0  0  0  0  0  0
  -21.5620   -3.4540   25.7730 F   0  0  0  0  0  0  0  0  0  0  0  0
  -22.7910  -13.5230   21.1830 C   0  0  0  0  0  0  0  0  0  0  0  0
  -22.0540  -12.8180   22.0380 N   0  0  0  0  0  0  0  0  0  0  0  0
  -22.3580  -14.5530   20.6720 O   0  0  0  0  0  0  0  0  0  0  0  0
  -22.4140  -11.9870   22.4790 H   0  0  0  0  0  0  0  0  0  0  0  0
  -21.1130  -13.1160   22.2500 H   0  0  0  0  0  0  0  0  0  0  0  0
  -25.4460  -15.1860   20.4070 N   0  0  0  0  0  0  0  0  0  0  0  0
  -24.6890  -15.8530   20.5170 H   0  0  0  0  0  0  0  0  0  0  0  0
  -26.3160  -15.6200   20.1190 H   0  0  0  0  0  0  0  0  0  0  0  0
  -29.9140  -26.4960   22.3890 C   0  0  0  0  0  2  0  0  0  0  0  0
  -28.8650  -25.4130   22.0340 C   0  0  0  0  0  2  0  0  0  0  0  0
  -28.4160  -25.4140   20.5530 C   0  0  0  0  0  2  0  0  0  0  0  0
  -28.3970  -26.7470   20.0330 O   0  0  0  0  0  0  0  0  0  0  0  0
  -24.6130  -31.8690   23.2110 C   0  0  0  0  0  0  0  0  0  0  0  0
  -27.2170  -27.4400   20.1030 C   0  0  0  0  0  0  0  0  0  0  0  0
  -23.4010  -30.4960   21.5490 C   0  0  0  0  0  3  0  0  0  0  0  0
  -24.8420  -28.9570   20.1210 C   0  0  0  0  0  0  0  0  0  0  0  0
  -25.9310  -30.8290   21.3770 C   0  0  0  0  0  2  0  0  0  0  0  0
  -26.0030  -29.4670   20.7190 C   0  0  0  0  0  0  0  0  0  0  0  0
  -27.1950  -28.7130   20.7090 C   0  0  0  0  0  3  0  0  0  0  0  0
  -26.0450  -26.9320   19.5060 C   0  0  0  0  0  3  0  0  0  0  0  0
  -24.8570  -27.6870   19.5140 C   0  0  0  0  0  3  0  0  0  0  0  0
  -23.6130  -29.8330   20.1610 C   0  0  0  0  0  2  0  0  0  0  0  0
  -24.6650  -31.0790   22.1020 N   0  0  0  0  0  0  0  0  0  0  0  0
  -23.5330  -32.1460   23.7470 O   0  0  0  0  0  0  0  0  0  0  0  0
  -22.7420  -29.4660   22.4940 C   0  0  0  0  0  0  0  0  0  0  0  0
  -21.4140  -29.3030   22.3680 N   0  0  0  0  0  0  0  0  0  0  0  0
  -23.4200  -28.8220   23.2980 O   0  0  0  0  0  0  0  0  0  0  0  0
  -20.9310  -29.8770   21.6900 H   0  0  0  0  0  0  0  0  0  0  0  0
  -18.0290  -28.1400   22.8510 C   0  0  0  0  0  0  0  0  0  0  0  0
  -20.5870  -28.3680   23.1300 C   0  0  0  0  0  3  0  0  0  0  0  0
  -20.6790  -26.9420   22.5410 C   0  0  0  0  0  2  0  0  0  0  0  0
  -19.5770  -26.6400   21.5220 C   0  0  0  0  0  2  0  0  0  0  0  0
  -18.1940  -26.7940   22.1620 C   0  0  0  0  0  2  0  0  0  0  0  0
  -19.1540  -28.8860   23.2910 C   0  0  0  0  0  0  0  0  0  0  0  0
  -18.9460  -30.1460   23.8920 C   0  0  0  0  0  3  0  0  0  0  0  0
  -17.6460  -30.6600   24.0590 C   0  0  0  0  0  3  0  0  0  0  0  0
  -16.5360  -29.9100   23.6340 C   0  0  0  0  0  3  0  0  0  0  0  0
  -16.7280  -28.6530   23.0340 C   0  0  0  0  0  3  0  0  0  0  0  0
  -25.9040  -32.4800   23.8430 C   0  0  0  0  0  3  0  0  0  0  0  0
  -25.5960  -33.8650   24.2310 N   0  0  0  0  0  0  0  0  0  0  0  0
  -25.9050  -34.9480   23.5080 C   0  0  0  0  0  0  0  0  0  0  0  0
  -26.5600  -34.8930   22.4620 O   0  0  0  0  0  0  0  0  0  0  0  0
  -25.0180  -33.9890   25.0490 H   0  0  0  0  0  0  0  0  0  0  0  0
  -24.1460  -36.7310   23.2630 C   0  0  0  0  0  1  0  0  0  0  0  0
  -25.4120  -36.3120   24.0280 C   0  0  0  0  0  3  0  0  0  0  0  0
  -27.5570  -37.1800   24.8430 C   0  0  0  0  0  1  0  0  0  0  0  0
  -26.4300  -37.3820   23.9370 N   0  0  0  0  0  0  0  0  0  0  0  0
  -26.0190  -38.2890   24.1410 H   0  0  0  0  0  0  0  0  0  0  0  0
  -26.4350  -31.6600   25.0840 C   0  0  1  0  0  0  0  0  0  0  0  0
  -25.3460  -31.3860   26.1450 C   0  0  0  0  0  1  0  0  0  0  0  0
  -27.0250  -30.2990   24.6480 C   0  0  0  0  0  1  0  0  0  0  0  0
  -27.5750  -32.4440   25.7760 C   0  0  0  0  0  1  0  0  0  0  0  0
  1  2  1  0
  1  3  2  0
  2 52  1  0
  4  2  1  0
  6  5  1  0
  6  1  1  0
  7  6  1  0
  7  8  1  0
  9  8  1  0
  9 10  1  0
 11 10  1  0
 11 12  1  0
 13 12  1  0
 13 14  1  0
 15 14  1  0
 16 15  1  0
 17 22  1  0
 18 19  1  0
 18 17  1  0
 20 19  1  0
 20 27  1  0
 20 21  1  0
 22 16  1  0
 22 21  1  0
 23 16  2  0
 24 25  2  0
 25 44  1  0
 26 25  1  0
 26 29  1  0
 27 24  1  0
 27 28  1  0
 28 26  2  0
 29 30  1  0
 30 31  2  0
 32 35  1  0
 32 31  1  0
 33 32  2  0
 34 33  1  0
 34 29  2  0
 35 36  1  0
 36 37  1  0
 37 38  2  0
 39 38  1  0
 39 43  1  0
 40 39  2  0
 41 36  2  0
 41 40  1  0
 42 41  1  0
 44 45  1  0
 45 48  1  0
 45 47  1  0
 46 44  2  0
 49 50  1  0
 49 24  1  0
 51 49  1  0
 53 52  1  0
 54 53  1  0
 55 57  1  0
 55 54  1  0
 56 67  2  0
 57 62  1  0
 58 66  1  0
 58 68  1  0
 59 65  1  0
 59 61  1  0
 60 66  1  0
 61 60  1  0
 62 61  2  0
 63 64  1  0
 63 57  2  0
 64 59  2  0
 65 58  1  0
 66 56  1  0
 68 70  2  0
 69 68  1  0
 71 69  1  0
 72 81  2  0
 72 77  1  0
 73 69  1  0
 73 77  1  0
 74 73  1  0
 75 76  1  0
 75 74  1  0
 76 72  1  0
 77 78  2  0
 78 79  1  0
 80 79  2  0
 81 80  1  0
 82 56  1  0
 82 83  1  0
 82 92  1  0
 83 86  1  0
 84 88  1  0
 84 83  1  0
 85 84  2  0
 88 87  1  0
 90 88  1  0
 90 91  1  0
 90 89  1  0
 92 95  1  1
 92 93  1  0
 94 92  1  0
M  ISO  4  15 100  16 100  54 101  55 101
M  END
>  <TORSDO>  (12) 
F 29

>  <SCORE>  (12) 
-9.983

>  <name>  (12) 
11

>  <ligand_id>  (12) 
11

>  <original_smiles>  (12) 
[H]c1c([H])c([H])c2c(c1[H])C([H])([H])C([H])([H])C([H])([H])C2([H])N([H])C(=O)C1([H])N(C(=O)C([H])(N([H])C(=O)C([H])(N([H])C([H])([H])[H])C([H])([H])[H])C(C([H])([H])[H])(C([H])([H])[H])C([H])([H])[H])C([H])([H])c2c([H])c(OC([H])([H])C([H])([H])C([H])([H])N([H])C(=O)C([H])(C([H])([H])[H])C([H])([H])C([H])([H])C([H])([H])C([H])([H])C([H])([H])C([H])([H])C([H])([H])C([H])([H])C([H])([H])C(=O)N3C([H])([H])C([H])([H])C([H])([H])C([H])(n4nc(-c5c([H])c([H])c(Oc6c([H])c([H])c(F)c([H])c6F)c([H])c5[H])c(C(=O)N([H])[H])c4N([H])[H])C3([H])[H])c([H])c([H])c2C1([H])[H]

>  <smiles>  (12) 
[H]c1c([H])c([H])c2c(c1[H])C([H])([H])C([H])([H])C([H])([H])C2([H])N([H])C(=O)C1([H])N(C(=O)C([H])(N([H])C(=O)C([H])(N([H])C([H])([H])[H])C([H])([H])[H])C(C([H])([H])[H])(C([H])([H])[H])C([H])([H])[H])C([H])([H])c2c([H])c(OC([H])([H])C([H])([H])C([H])([H])N([H])C(=O)C([H])(C([H])([H])[H])C([H])([H])C([H])([H])C([H])([H])C([H])([H])C([H])([H])C([H])([H])C([H])([H])C([H])([H])C([H])([H])C(=O)N3C([H])([H])C([H])([H])C([H])([H])C([H])(n4nc(-c5c([H])c([H])c(Oc6c([H])c([H])c(F)c([H])c6F)c([H])c5[H])c(C(=O)N([H])[H])c4N([H])[H])C3([H])[H])c([H])c([H])c2C1([H])[H]

$$$$
12:0:0
     RDKit          3D

 96104  0  0  1  0  0  0  0  0999 V2000
  -30.3430  -23.1160   19.1540 C   0  0  0  0  0  3  0  0  0  0  0  0
  -30.3760  -21.7140   19.2180 C   0  0  0  0  0  3  0  0  0  0  0  0
  -30.4640  -23.0140   16.7250 C   0  0  0  0  0  3  0  0  0  0  0  0
  -30.3870  -23.7790   17.9060 C   0  0  0  0  0  0  0  0  0  0  0  0
  -30.4450  -20.9410   18.0380 C   0  0  0  0  0  0  0  0  0  0  0  0
  -30.5010  -21.6040   16.7840 C   0  0  0  0  0  0  0  0  0  0  0  0
  -30.5800  -20.8250   15.4820 C   0  0  0  0  0  1  0  0  0  0  0  0
  -30.2940  -25.2730   17.8400 C   0  0  0  0  0  0  0  0  0  0  0  0
  -30.8800  -25.9090   18.8570 N   0  0  0  0  0  0  0  0  0  0  0  0
  -29.7310  -25.8440   16.9020 O   0  0  0  0  0  0  0  0  0  0  0  0
  -31.3790  -25.3370   19.5250 H   0  0  0  0  0  0  0  0  0  0  0  0
  -30.6830  -27.3090   19.1960 C   0  0  0  0  0  2  0  0  0  0  0  0
  -29.7460  -27.4260   20.4040 C   0  0  0  0  0  2  0  0  0  0  0  0
  -28.4840  -26.7910   20.1300 O   0  0  0  0  0  0  0  0  0  0  0  0
  -24.5910  -31.9020   23.2460 C   0  0  0  0  0  0  0  0  0  0  0  0
  -27.3110  -27.5190   20.2000 C   0  0  0  0  0  0  0  0  0  0  0  0
  -23.3890  -30.4810   21.6060 C   0  0  0  0  0  3  0  0  0  0  0  0
  -24.8560  -28.9390   20.1970 C   0  0  0  0  0  0  0  0  0  0  0  0
  -25.8990  -30.8720   21.4020 C   0  0  0  0  0  2  0  0  0  0  0  0
  -25.9920  -29.4950   20.7900 C   0  0  0  0  0  0  0  0  0  0  0  0
  -27.2050  -28.7870   20.8150 C   0  0  0  0  0  3  0  0  0  0  0  0
  -26.1520  -26.9580   19.6200 C   0  0  0  0  0  3  0  0  0  0  0  0
  -24.9260  -27.6590   19.6140 C   0  0  0  0  0  3  0  0  0  0  0  0
  -23.6010  -29.7820   20.2320 C   0  0  0  0  0  2  0  0  0  0  0  0
  -24.6430  -31.1000   22.1430 N   0  0  0  0  0  0  0  0  0  0  0  0
  -23.5110  -32.1740   23.7860 O   0  0  0  0  0  0  0  0  0  0  0  0
  -22.7440  -29.4670   22.5770 C   0  0  0  0  0  0  0  0  0  0  0  0
  -21.4220  -29.2770   22.4450 N   0  0  0  0  0  0  0  0  0  0  0  0
  -23.4300  -28.8530   23.3980 O   0  0  0  0  0  0  0  0  0  0  0  0
  -20.9330  -29.8270   21.7510 H   0  0  0  0  0  0  0  0  0  0  0  0
  -18.0490  -28.0950   22.9460 C   0  0  0  0  0  0  0  0  0  0  0  0
  -20.6060  -28.3440   23.2190 C   0  0  0  0  0  3  0  0  0  0  0  0
  -20.7060  -26.9120   22.6460 C   0  0  0  0  0  2  0  0  0  0  0  0
  -19.6030  -26.5900   21.6320 C   0  0  0  0  0  2  0  0  0  0  0  0
  -18.2220  -26.7410   22.2750 C   0  0  0  0  0  2  0  0  0  0  0  0
  -19.1690  -28.8540   23.3740 C   0  0  0  0  0  0  0  0  0  0  0  0
  -18.9540  -30.1210   23.9570 C   0  0  0  0  0  3  0  0  0  0  0  0
  -17.6520  -30.6270   24.1200 C   0  0  0  0  0  3  0  0  0  0  0  0
  -16.5450  -29.8640   23.7080 C   0  0  0  0  0  3  0  0  0  0  0  0
  -16.7440  -28.6000   23.1260 C   0  0  0  0  0  3  0  0  0  0  0  0
  -25.8790  -32.5350   23.8620 C   0  0  0  0  0  3  0  0  0  0  0  0
  -25.5720  -33.9340   24.1840 N   0  0  0  0  0  0  0  0  0  0  0  0
  -25.9160  -34.9810   23.4220 C   0  0  0  0  0  0  0  0  0  0  0  0
  -26.5980  -34.8710   22.3990 O   0  0  0  0  0  0  0  0  0  0  0  0
  -24.9690  -34.0940   24.9780 H   0  0  0  0  0  0  0  0  0  0  0  0
  -24.2060  -36.7800   23.0250 C   0  0  0  0  0  1  0  0  0  0  0  0
  -25.4260  -36.3730   23.8650 C   0  0  0  0  0  3  0  0  0  0  0  0
  -27.5490  -37.2490   24.7370 C   0  0  0  0  0  1  0  0  0  0  0  0
  -26.4660  -37.4200   23.7700 N   0  0  0  0  0  0  0  0  0  0  0  0
  -26.0630  -38.3440   23.9050 H   0  0  0  0  0  0  0  0  0  0  0  0
  -26.4020  -31.7680   25.1380 C   0  0  1  0  0  0  0  0  0  0  0  0
  -25.3130  -31.5220   26.2070 C   0  0  0  0  0  1  0  0  0  0  0  0
  -26.9970  -30.3960   24.7400 C   0  0  0  0  0  1  0  0  0  0  0  0
  -27.5480  -32.5700   25.8000 C   0  0  0  0  0  1  0  0  0  0  0  0
  -30.4160  -19.4130   18.0960 C   0  0  0  0  0  2  0  0  0  0  0  0
  -30.1440  -18.7820   19.4860 C   0  0  0  0  0  2  0  0  0  0  0  0
  -28.6870  -16.8320   18.6930 C   0  0  0  0  0  1  0  0  0  0  0  0
  -29.9470  -17.2500   19.4660 C   0  0  0  0  0  3  0  0  0  0  0  0
  -30.2440  -15.4690   21.3300 C   0  0  0  0  0  3  0  0  0  0  0  0
  -29.8660  -16.6920   20.8890 C   0  0  0  0  0  3  0  0  0  0  0  0
  -30.8530  -14.4760   20.4620 C   0  0  0  0  0  0  0  0  0  0  0  0
  -30.4720  -12.4030   19.1860 C   0  0  0  0  0  2  0  0  0  0  0  0
  -29.5210  -12.6850   18.0060 C   0  0  0  0  0  2  0  0  0  0  0  0
  -28.0470  -12.5660   18.4450 C   0  0  0  0  0  2  0  0  0  0  0  0
  -27.7450  -13.3250   19.7650 C   0  0  0  0  0  3  0  0  0  0  0  0
  -28.8100  -13.0260   20.8420 C   0  0  0  0  0  2  0  0  0  0  0  0
  -30.1360  -13.3320   20.2730 N   0  0  0  0  0  0  0  0  0  0  0  0
  -31.9310  -14.6790   19.8990 O   0  0  0  0  0  0  0  0  0  0  0  0
  -25.3430  -13.9320   20.4540 C   0  0  0  0  0  0  0  0  0  0  0  0
  -24.2750  -13.1620   20.8230 C   0  0  0  0  0  0  0  0  0  0  0  0
  -24.7390  -11.8110   20.8020 C   0  0  0  0  0  0  0  0  0  0  0  0
  -26.3920  -13.0520   20.2400 N   0  0  0  0  0  0  0  0  0  0  0  0
  -26.0300  -11.7700   20.5010 N   0  0  0  0  0  0  0  0  0  0  0  0
  -24.0160  -10.5490   21.0000 C   0  0  0  0  0  0  0  0  0  0  0  0
  -24.4470   -9.5910   21.9430 C   0  0  0  0  0  3  0  0  0  0  0  0
  -23.7260   -8.3920   22.1250 C   0  0  0  0  0  3  0  0  0  0  0  0
  -22.5590   -8.1420   21.3630 C   0  0  0  0  0  0  0  0  0  0  0  0
  -22.1450   -9.0930   20.4120 C   0  0  0  0  0  3  0  0  0  0  0  0
  -22.8680  -10.2840   20.2280 C   0  0  0  0  0  3  0  0  0  0  0  0
  -21.8120   -6.9940   21.4530 O   0  0  0  0  0  0  0  0  0  0  0  0
  -21.7540   -6.2630   22.6120 C   0  0  0  0  0  0  0  0  0  0  0  0
  -21.3070   -6.8260   23.8280 C   0  0  0  0  0  3  0  0  0  0  0  0
  -21.1940   -6.0210   24.9770 C   0  0  0  0  0  3  0  0  0  0  0  0
  -21.5200   -4.6520   24.9140 C   0  0  0  0  0  0  0  0  0  0  0  0
  -21.9630   -4.0880   23.7040 C   0  0  0  0  0  3  0  0  0  0  0  0
  -22.0740   -4.8910   22.5550 C   0  0  0  0  0  0  0  0  0  0  0  0
  -22.4790   -4.3390   21.3870 F   0  0  0  0  0  0  0  0  0  0  0  0
  -21.4050   -3.8750   26.0160 F   0  0  0  0  0  0  0  0  0  0  0  0
  -22.8790  -13.6420   21.0920 C   0  0  0  0  0  0  0  0  0  0  0  0
  -22.1510  -12.9520   21.9630 N   0  0  0  0  0  0  0  0  0  0  0  0
  -22.4420  -14.6660   20.5690 O   0  0  0  0  0  0  0  0  0  0  0  0
  -22.5140  -12.1210   22.4050 H   0  0  0  0  0  0  0  0  0  0  0  0
  -21.2190  -13.2640   22.1920 H   0  0  0  0  0  0  0  0  0  0  0  0
  -25.5020  -15.3010   20.2620 N   0  0  0  0  0  0  0  0  0  0  0  0
  -24.7350  -15.9550   20.3650 H   0  0  0  0  0  0  0  0  0  0  0  0
  -26.3600  -15.7390   19.9480 H   0  0  0  0  0  0  0  0  0  0  0  0
  1  2  1  0
  3  6  2  0
  3  4  1  0
  4  1  2  0
  5 55  1  0
  5  2  2  0
  6  5  1  0
  7  6  1  0
  8  4  1  0
  8  9  1  0
  9 12  1  0
  9 11  1  0
 10  8  2  0
 12 13  1  0
 14 16  1  0
 14 13  1  0
 15 26  2  0
 16 21  1  0
 17 25  1  0
 17 27  1  0
 18 24  1  0
 18 20  1  0
 19 25  1  0
 20 21  2  0
 20 19  1  0
 22 16  2  0
 23 22  1  0
 23 18  2  0
 24 17  1  0
 25 15  1  0
 27 29  2  0
 28 27  1  0
 30 28  1  0
 31 40  2  0
 31 36  1  0
 32 28  1  0
 32 36  1  0
 33 32  1  0
 34 35  1  0
 34 33  1  0
 35 31  1  0
 36 37  2  0
 37 38  1  0
 39 38  2  0
 40 39  1  0
 41 15  1  0
 41 42  1  0
 41 51  1  0
 42 45  1  0
 43 47  1  0
 43 42  1  0
 44 43  2  0
 47 46  1  0
 49 47  1  0
 49 50  1  0
 49 48  1  0
 51 54  1  1
 51 52  1  0
 53 51  1  0
 55 56  1  0
 58 57  1  0
 58 56  1  0
 58 60  1  0
 60 59  2  0
 61 59  1  0
 62 67  1  0
 63 64  1  0
 63 62  1  0
 65 64  1  0
 65 72  1  0
 65 66  1  0
 67 61  1  0
 67 66  1  0
 68 61  2  0
 69 70  2  0
 70 89  1  0
 71 70  1  0
 71 74  1  0
 72 69  1  0
 72 73  1  0
 73 71  2  0
 74 75  1  0
 75 76  2  0
 77 80  1  0
 77 76  1  0
 78 77  2  0
 79 78  1  0
 79 74  2  0
 80 81  1  0
 81 82  1  0
 82 83  2  0
 84 83  1  0
 84 88  1  0
 85 84  2  0
 86 81  2  0
 86 85  1  0
 87 86  1  0
 89 90  1  0
 90 93  1  0
 90 92  1  0
 91 89  2  0
 94 95  1  0
 94 69  1  0
 96 94  1  0
M  ISO  4  13 101  14 101  59 100  61 100
M  END
>  <TORSDO>  (13) 
F 23

>  <SCORE>  (13) 
-12.828

>  <name>  (13) 
12

>  <ligand_id>  (13) 
12

>  <original_smiles>  (13) 
[H]C(C(=O)N1C([H])([H])C([H])([H])C([H])([H])C([H])(n2nc(-c3c([H])c([H])c(Oc4c([H])c([H])c(F)c([H])c4F)c([H])c3[H])c(C(=O)N([H])[H])c2N([H])[H])C1([H])[H])=C([H])C([H])(C([H])([H])[H])C([H])([H])C([H])([H])c1c([H])c([H])c(C(=O)N([H])C([H])([H])C([H])([H])Oc2c([H])c([H])c3c(c2[H])C([H])([H])N(C(=O)C([H])(N([H])C(=O)C([H])(N([H])C([H])([H])[H])C([H])([H])[H])C(C([H])([H])[H])(C([H])([H])[H])C([H])([H])[H])C([H])(C(=O)N([H])C2([H])c4c([H])c([H])c([H])c([H])c4C([H])([H])C([H])([H])C2([H])[H])C3([H])[H])c([H])c1C([H])([H])[H]

>  <smiles>  (13) 
[H]C(C(=O)N1C([H])([H])C([H])([H])C([H])([H])C([H])(n2nc(-c3c([H])c([H])c(Oc4c([H])c([H])c(F)c([H])c4F)c([H])c3[H])c(C(=O)N([H])[H])c2N([H])[H])C1([H])[H])=C([H])C([H])(C([H])([H])[H])C([H])([H])C([H])([H])c1c([H])c([H])c(C(=O)N([H])C([H])([H])C([H])([H])Oc2c([H])c([H])c3c(c2[H])C([H])([H])N(C(=O)C([H])(N([H])C(=O)C([H])(N([H])C([H])([H])[H])C([H])([H])[H])C(C([H])([H])[H])(C([H])([H])[H])C([H])([H])[H])C([H])(C(=O)N([H])C2([H])c4c([H])c([H])c([H])c([H])c4C([H])([H])C([H])([H])C2([H])[H])C3([H])[H])c([H])c1C([H])([H])[H]

$$$$
13:0:0
     RDKit          3D

 93101  0  0  1  0  0  0  0  0999 V2000
  -28.5040  -23.8770   20.4360 C   0  0  0  0  0  2  0  0  0  0  0  0
  -28.6010  -23.0190   22.6500 C   0  0  0  0  0  2  0  0  0  0  0  0
  -28.1080  -25.0630   21.3180 C   0  0  0  0  0  3  0  0  0  0  0  0
  -28.0770  -22.6550   21.2490 C   0  0  0  0  0  3  0  0  0  0  0  0
  -28.5010  -24.5690   22.7290 C   0  0  0  0  0  3  0  0  0  0  0  0
  -28.5550  -21.3860   20.6380 N   0  0  0  0  0  4  0  0  0  0  0  0
  -29.2900  -21.6120   19.9830 H   0  0  0  0  0  0  0  0  0  0  0  0
  -27.7980  -20.9930   20.0900 H   0  0  0  0  0  0  0  0  0  0  0  0
  -29.0660  -20.3220   21.5310 C   0  0  0  0  0  2  0  0  0  0  0  0
  -29.4220  -19.0710   20.7010 C   0  0  0  0  0  2  0  0  0  0  0  0
  -30.1700  -17.9830   21.4840 C   0  0  0  0  0  2  0  0  0  0  0  0
  -30.4880  -16.7840   20.5700 C   0  0  0  0  0  2  0  0  0  0  0  0
  -31.2330  -15.6470   21.2890 C   0  0  0  0  0  2  0  0  0  0  0  0
  -31.7160  -14.5880   20.2790 C   0  0  0  0  0  0  0  0  0  0  0  0
  -31.3010  -12.5390   18.9630 C   0  0  0  0  0  2  0  0  0  0  0  0
  -30.3510  -12.8080   17.7770 C   0  0  0  0  0  2  0  0  0  0  0  0
  -28.8720  -12.7290   18.2040 C   0  0  0  0  0  2  0  0  0  0  0  0
  -28.5910  -13.5770   19.4780 C   0  0  0  0  0  3  0  0  0  0  0  0
  -29.6190  -13.2330   20.5720 C   0  0  0  0  0  2  0  0  0  0  0  0
  -30.9710  -13.4810   20.0420 N   0  0  0  0  0  0  0  0  0  0  0  0
  -32.7760  -14.8120   19.6740 O   0  0  0  0  0  0  0  0  0  0  0  0
  -26.2700  -14.3600   20.2730 C   0  0  0  0  0  0  0  0  0  0  0  0
  -25.1530  -13.6640   20.6530 C   0  0  0  0  0  0  0  0  0  0  0  0
  -25.5060  -12.2790   20.5650 C   0  0  0  0  0  0  0  0  0  0  0  0
  -27.2320  -13.4040   19.9750 N   0  0  0  0  0  0  0  0  0  0  0  0
  -26.7760  -12.1500   20.2110 N   0  0  0  0  0  0  0  0  0  0  0  0
  -24.6910  -11.0750   20.7370 C   0  0  0  0  0  0  0  0  0  0  0  0
  -25.0250  -10.0860   21.6890 C   0  0  0  0  0  3  0  0  0  0  0  0
  -24.2140   -8.9380   21.8440 C   0  0  0  0  0  3  0  0  0  0  0  0
  -23.0590   -8.7760   21.0440 C   0  0  0  0  0  0  0  0  0  0  0  0
  -22.7370   -9.7570   20.0900 C   0  0  0  0  0  3  0  0  0  0  0  0
  -23.5450  -10.8950   19.9350 C   0  0  0  0  0  3  0  0  0  0  0  0
  -22.2260   -7.6850   21.1100 O   0  0  0  0  0  0  0  0  0  0  0  0
  -22.0150   -7.0090   22.2840 C   0  0  0  0  0  0  0  0  0  0  0  0
  -21.5280   -7.6590   23.4410 C   0  0  0  0  0  3  0  0  0  0  0  0
  -21.2580   -6.9130   24.6030 C   0  0  0  0  0  3  0  0  0  0  0  0
  -21.4650   -5.5190   24.6110 C   0  0  0  0  0  0  0  0  0  0  0  0
  -21.9570   -4.8740   23.4640 C   0  0  0  0  0  3  0  0  0  0  0  0
  -22.2240   -5.6160   22.3000 C   0  0  0  0  0  0  0  0  0  0  0  0
  -22.6780   -4.9890   21.1870 F   0  0  0  0  0  0  0  0  0  0  0  0
  -21.2040   -4.7990   25.7250 F   0  0  0  0  0  0  0  0  0  0  0  0
  -23.8080  -14.2420   20.9810 C   0  0  0  0  0  0  0  0  0  0  0  0
  -23.0560  -13.5950   21.8640 N   0  0  0  0  0  0  0  0  0  0  0  0
  -23.4370  -15.3120   20.4930 O   0  0  0  0  0  0  0  0  0  0  0  0
  -23.3620  -12.7290   22.2840 H   0  0  0  0  0  0  0  0  0  0  0  0
  -22.1610  -13.9810   22.1360 H   0  0  0  0  0  0  0  0  0  0  0  0
  -26.5340  -15.7170   20.1370 N   0  0  0  0  0  0  0  0  0  0  0  0
  -25.7730  -16.3880   20.1560 H   0  0  0  0  0  0  0  0  0  0  0  0
  -27.3950  -16.1000   19.7630 H   0  0  0  0  0  0  0  0  0  0  0  0
  -27.5440  -24.9400   23.7090 O   0  0  0  0  0  0  0  0  0  0  0  0
  -27.0180  -25.6630   23.3750 H   0  0  0  0  0  0  0  0  0  0  0  0
  -28.8040  -26.3740   20.8860 C   0  0  0  0  0  2  0  0  0  0  0  0
  -28.2930  -26.8390   19.6410 O   0  0  0  0  0  0  0  0  0  0  0  0
  -24.6350  -31.9110   23.0720 C   0  0  0  0  0  0  0  0  0  0  0  0
  -27.1450  -27.5780   19.7530 C   0  0  0  0  0  0  0  0  0  0  0  0
  -23.3490  -30.5370   21.4580 C   0  0  0  0  0  3  0  0  0  0  0  0
  -24.7400  -29.0280   19.9390 C   0  0  0  0  0  0  0  0  0  0  0  0
  -25.8560  -30.9110   21.1520 C   0  0  0  0  0  2  0  0  0  0  0  0
  -25.9140  -29.5510   20.4950 C   0  0  0  0  0  0  0  0  0  0  0  0
  -27.1190  -28.8230   20.4200 C   0  0  0  0  0  3  0  0  0  0  0  0
  -25.9710  -27.0730   19.1690 C   0  0  0  0  0  3  0  0  0  0  0  0
  -24.7600  -27.7800   19.2890 C   0  0  0  0  0  3  0  0  0  0  0  0
  -23.4890  -29.8670   20.0630 C   0  0  0  0  0  2  0  0  0  0  0  0
  -24.6310  -31.1320   21.9510 N   0  0  0  0  0  0  0  0  0  0  0  0
  -23.5820  -32.1740   23.6670 O   0  0  0  0  0  0  0  0  0  0  0  0
  -22.7340  -29.5050   22.4290 C   0  0  0  0  0  0  0  0  0  0  0  0
  -21.4110  -29.3020   22.3300 N   0  0  0  0  0  0  0  0  0  0  0  0
  -23.4500  -28.8840   23.2210 O   0  0  0  0  0  0  0  0  0  0  0  0
  -20.8960  -29.8380   21.6450 H   0  0  0  0  0  0  0  0  0  0  0  0
  -18.0880  -28.0070   22.8650 C   0  0  0  0  0  0  0  0  0  0  0  0
  -20.6390  -28.3440   23.1190 C   0  0  0  0  0  3  0  0  0  0  0  0
  -20.7850  -26.9160   22.5460 C   0  0  0  0  0  2  0  0  0  0  0  0
  -19.6880  -26.5570   21.5380 C   0  0  0  0  0  2  0  0  0  0  0  0
  -18.3030  -26.6630   22.1890 C   0  0  0  0  0  2  0  0  0  0  0  0
  -19.1850  -28.8020   23.2870 C   0  0  0  0  0  0  0  0  0  0  0  0
  -18.9360  -30.0620   23.8790 C   0  0  0  0  0  3  0  0  0  0  0  0
  -17.6190  -30.5240   24.0590 C   0  0  0  0  0  3  0  0  0  0  0  0
  -16.5350  -29.7280   23.6540 C   0  0  0  0  0  3  0  0  0  0  0  0
  -16.7690  -28.4740   23.0580 C   0  0  0  0  0  3  0  0  0  0  0  0
  -25.9530  -32.5230   23.6450 C   0  0  0  0  0  3  0  0  0  0  0  0
  -25.6580  -33.9030   24.0550 N   0  0  0  0  0  0  0  0  0  0  0  0
  -25.9590  -34.9900   23.3320 C   0  0  0  0  0  0  0  0  0  0  0  0
  -26.5920  -34.9360   22.2760 O   0  0  0  0  0  0  0  0  0  0  0  0
  -25.1010  -34.0180   24.8880 H   0  0  0  0  0  0  0  0  0  0  0  0
  -24.2200  -36.7920   23.1100 C   0  0  0  0  0  1  0  0  0  0  0  0
  -25.4830  -36.3540   23.8680 C   0  0  0  0  0  3  0  0  0  0  0  0
  -27.6400  -37.1970   24.6810 C   0  0  0  0  0  1  0  0  0  0  0  0
  -26.5130  -37.4110   23.7760 N   0  0  0  0  0  0  0  0  0  0  0  0
  -26.1130  -38.3230   23.9810 H   0  0  0  0  0  0  0  0  0  0  0  0
  -26.5480  -31.7040   24.8580 C   0  0  1  0  0  0  0  0  0  0  0  0
  -25.5110  -31.4160   25.9680 C   0  0  0  0  0  1  0  0  0  0  0  0
  -27.1210  -30.3500   24.3760 C   0  0  0  0  0  1  0  0  0  0  0  0
  -27.7310  -32.4740   25.4940 C   0  0  0  0  0  1  0  0  0  0  0  0
  1  4  1  0
  1  3  1  0
  2  5  1  0
  3 52  1  0
  3  5  1  0
  4  6  1  0
  4  2  1  0
  5 50  1  0
  6  9  1  0
  7  6  1  0
  8  6  1  0
 10 11  1  0
 10  9  1  0
 12 13  1  0
 12 11  1  0
 14 13  1  0
 15 20  1  0
 16 17  1  0
 16 15  1  0
 18 17  1  0
 18 25  1  0
 18 19  1  0
 20 14  1  0
 20 19  1  0
 21 14  2  0
 22 23  2  0
 23 42  1  0
 24 23  1  0
 24 27  1  0
 25 26  1  0
 25 22  1  0
 26 24  2  0
 27 28  1  0
 28 29  2  0
 30 33  1  0
 30 29  1  0
 31 30  2  0
 32 31  1  0
 32 27  2  0
 33 34  1  0
 34 39  2  0
 34 35  1  0
 35 36  2  0
 36 37  1  0
 37 41  1  0
 38 37  2  0
 39 38  1  0
 40 39  1  0
 42 43  1  0
 43 46  1  0
 43 45  1  0
 44 42  2  0
 47 48  1  0
 47 22  1  0
 49 47  1  0
 51 50  1  0
 53 55  1  0
 53 52  1  0
 54 65  2  0
 55 60  1  0
 56 64  1  0
 56 66  1  0
 57 63  1  0
 57 59  1  0
 58 64  1  0
 59 58  1  0
 60 59  2  0
 61 62  1  0
 61 55  2  0
 62 57  2  0
 63 56  1  0
 64 54  1  0
 66 68  2  0
 67 66  1  0
 69 67  1  0
 70 79  2  0
 70 75  1  0
 71 67  1  0
 71 75  1  0
 72 71  1  0
 73 74  1  0
 73 72  1  0
 74 70  1  0
 75 76  2  0
 76 77  1  0
 78 77  2  0
 79 78  1  0
 80 54  1  0
 80 81  1  0
 80 90  1  0
 81 84  1  0
 82 86  1  0
 82 81  1  0
 83 82  2  0
 86 85  1  0
 88 86  1  0
 88 89  1  0
 88 87  1  0
 90 93  1  1
 90 91  1  0
 92 90  1  0
M  ISO  4  13 100  14 100  52 101  53 101
M  END
>  <TORSDO>  (14) 
F 24

>  <SCORE>  (14) 
-10.498

>  <name>  (14) 
13

>  <ligand_id>  (14) 
13

>  <original_smiles>  (14) 
[H]OC1([H])C([H])([H])C([H])([N+]([H])([H])C([H])([H])C([H])([H])C([H])([H])C([H])([H])C([H])([H])C(=O)N2C([H])([H])C([H])([H])C([H])([H])C([H])(n3nc(-c4c([H])c([H])c(Oc5c([H])c([H])c(F)c([H])c5F)c([H])c4[H])c(C(=O)N([H])[H])c3N([H])[H])C2([H])[H])C([H])([H])C1([H])C([H])([H])Oc1c([H])c([H])c2c(c1[H])C([H])([H])N(C(=O)C([H])(N([H])C(=O)C([H])(N([H])C([H])([H])[H])C([H])([H])[H])C(C([H])([H])[H])(C([H])([H])[H])C([H])([H])[H])C([H])(C(=O)N([H])C1([H])c3c([H])c([H])c([H])c([H])c3C([H])([H])C([H])([H])C1([H])[H])C2([H])[H]

>  <smiles>  (14) 
[H]OC1([H])C([H])([H])C([H])([N+]([H])([H])C([H])([H])C([H])([H])C([H])([H])C([H])([H])C([H])([H])C(=O)N2C([H])([H])C([H])([H])C([H])([H])C([H])(n3nc(-c4c([H])c([H])c(Oc5c([H])c([H])c(F)c([H])c5F)c([H])c4[H])c(C(=O)N([H])[H])c3N([H])[H])C2([H])[H])C([H])([H])C1([H])C([H])([H])Oc1c([H])c([H])c2c(c1[H])C([H])([H])N(C(=O)C([H])(N([H])C(=O)C([H])(N([H])C([H])([H])[H])C([H])([H])[H])C(C([H])([H])[H])(C([H])([H])[H])C([H])([H])[H])C([H])(C(=O)N([H])C1([H])c3c([H])c([H])c([H])c([H])c3C([H])([H])C([H])([H])C1([H])[H])C2([H])[H]

$$$$
14:0:0
     RDKit          3D

 95104  0  0  1  0  0  0  0  0999 V2000
  -29.5460  -21.0240   22.6280 C   0  0  0  0  0  3  0  0  0  0  0  0
  -30.1000  -22.2800   22.9420 C   0  0  0  0  0  3  0  0  0  0  0  0
  -28.2570  -22.0460   20.8320 C   0  0  0  0  0  3  0  0  0  0  0  0
  -28.6420  -20.8960   21.5520 C   0  0  0  0  0  0  0  0  0  0  0  0
  -29.7390  -23.4280   22.2040 C   0  0  0  0  0  0  0  0  0  0  0  0
  -28.7920  -23.3050   21.1610 C   0  0  0  0  0  0  0  0  0  0  0  0
  -28.3940  -24.3930   20.4610 F   0  0  0  0  0  0  0  0  0  0  0  0
  -28.1010  -19.5360   21.1390 C   0  0  0  0  0  2  0  0  0  0  0  0
  -28.5750  -19.1340   19.7280 C   0  0  0  0  0  2  0  0  0  0  0  0
  -32.2960  -14.8960   19.5020 C   0  0  0  0  0  0  0  0  0  0  0  0
  -31.9440  -12.4700   19.2580 C   0  0  0  0  0  2  0  0  0  0  0  0
  -30.9790  -12.2200   18.0800 C   0  0  0  0  0  2  0  0  0  0  0  0
  -29.5080  -12.2960   18.5430 C   0  0  0  0  0  2  0  0  0  0  0  0
  -29.2120  -13.5620   19.3910 C   0  0  0  0  0  3  0  0  0  0  0  0
  -30.2820  -13.7310   20.4910 C   0  0  0  0  0  2  0  0  0  0  0  0
  -31.6030  -13.7750   19.8410 N   0  0  0  0  0  0  0  0  0  0  0  0
  -33.3740  -14.8610   18.8960 O   0  0  0  0  0  0  0  0  0  0  0  0
  -30.1780  -17.6560   18.4000 C   0  0  0  0  0  2  0  0  0  0  0  0
  -30.1650  -17.5250   20.9340 C   0  0  0  0  0  2  0  0  0  0  0  0
  -31.5370  -16.9380   18.4260 C   0  0  0  0  0  2  0  0  0  0  0  0
  -31.5180  -16.7900   20.8520 C   0  0  0  0  0  2  0  0  0  0  0  0
  -29.9510  -18.4370   19.7070 C   0  0  0  0  0  3  0  0  0  0  0  0
  -31.5990  -16.0470   19.5890 N   0  0  0  0  0  0  0  0  0  0  0  0
  -27.0420  -14.5760   20.3420 C   0  0  0  0  0  0  0  0  0  0  0  0
  -25.8610  -14.0040   20.7310 C   0  0  0  0  0  0  0  0  0  0  0  0
  -26.0230  -12.5970   20.5400 C   0  0  0  0  0  0  0  0  0  0  0  0
  -27.8620  -13.5270   19.9510 N   0  0  0  0  0  0  0  0  0  0  0  0
  -27.2530  -12.3260   20.1220 N   0  0  0  0  0  0  0  0  0  0  0  0
  -25.0600  -11.4980   20.6800 C   0  0  0  0  0  0  0  0  0  0  0  0
  -25.3490  -10.3590   21.4630 C   0  0  0  0  0  3  0  0  0  0  0  0
  -24.4010   -9.3210   21.5950 C   0  0  0  0  0  3  0  0  0  0  0  0
  -23.1470   -9.4180   20.9440 C   0  0  0  0  0  0  0  0  0  0  0  0
  -22.8740  -10.5440   20.1470 C   0  0  0  0  0  3  0  0  0  0  0  0
  -23.8220  -11.5730   20.0120 C   0  0  0  0  0  3  0  0  0  0  0  0
  -22.1740   -8.4490   20.9950 O   0  0  0  0  0  0  0  0  0  0  0  0
  -22.0100   -7.6520   22.0990 C   0  0  0  0  0  0  0  0  0  0  0  0
  -21.7820   -8.1940   23.3820 C   0  0  0  0  0  3  0  0  0  0  0  0
  -21.5490   -7.3370   24.4770 C   0  0  0  0  0  3  0  0  0  0  0  0
  -21.5350   -5.9420   24.2890 C   0  0  0  0  0  0  0  0  0  0  0  0
  -21.7580   -5.4010   23.0100 C   0  0  0  0  0  3  0  0  0  0  0  0
  -21.9930   -6.2550   21.9180 C   0  0  0  0  0  0  0  0  0  0  0  0
  -22.1850   -5.7280   20.6850 F   0  0  0  0  0  0  0  0  0  0  0  0
  -21.3040   -5.1180   25.3390 F   0  0  0  0  0  0  0  0  0  0  0  0
  -24.6180  -14.7240   21.1660 C   0  0  0  0  0  0  0  0  0  0  0  0
  -23.8260  -14.1090   22.0380 N   0  0  0  0  0  0  0  0  0  0  0  0
  -24.3650  -15.8610   20.7690 O   0  0  0  0  0  0  0  0  0  0  0  0
  -24.0440  -13.1840   22.3790 H   0  0  0  0  0  0  0  0  0  0  0  0
  -22.9910  -14.5690   22.3700 H   0  0  0  0  0  0  0  0  0  0  0  0
  -27.4770  -15.8940   20.2710 N   0  0  0  0  0  0  0  0  0  0  0  0
  -26.8730  -16.6730   20.5050 H   0  0  0  0  0  0  0  0  0  0  0  0
  -28.3870  -16.1800   19.9390 H   0  0  0  0  0  0  0  0  0  0  0  0
  -30.3780  -24.7720   22.5300 C   0  0  0  0  0  2  0  0  0  0  0  0
  -30.6450  -25.6180   21.2700 C   0  0  0  0  0  2  0  0  0  0  0  0
  -31.0500  -27.0740   21.5550 C   0  0  0  0  0  2  0  0  0  0  0  0
  -30.6200  -27.8980   20.4700 O   0  0  0  0  0  0  0  0  0  0  0  0
  -25.1910  -31.2640   23.6380 C   0  0  0  0  0  0  0  0  0  0  0  0
  -29.2900  -28.2430   20.4690 C   0  0  0  0  0  0  0  0  0  0  0  0
  -24.5970  -29.8130   21.7200 C   0  0  0  0  0  3  0  0  0  0  0  0
  -26.5620  -28.9580   20.3330 C   0  0  0  0  0  0  0  0  0  0  0  0
  -26.9020  -30.9060   21.8630 C   0  0  0  0  0  2  0  0  0  0  0  0
  -27.4480  -29.7110   21.1140 C   0  0  0  0  0  0  0  0  0  0  0  0
  -28.8120  -29.3580   21.1900 C   0  0  0  0  0  3  0  0  0  0  0  0
  -28.3940  -27.4920   19.6830 C   0  0  0  0  0  3  0  0  0  0  0  0
  -27.0290  -27.8420   19.6150 C   0  0  0  0  0  3  0  0  0  0  0  0
  -25.1170  -29.4080   20.3130 C   0  0  0  0  0  2  0  0  0  0  0  0
  -25.5710  -30.6700   22.4700 N   0  0  0  0  0  0  0  0  0  0  0  0
  -24.0360  -31.1440   24.0690 O   0  0  0  0  0  0  0  0  0  0  0  0
  -24.2000  -28.5310   22.4850 C   0  0  0  0  0  0  0  0  0  0  0  0
  -23.0310  -27.9670   22.1390 N   0  0  0  0  0  0  0  0  0  0  0  0
  -24.9460  -28.0480   23.3410 O   0  0  0  0  0  0  0  0  0  0  0  0
  -22.4720  -28.4280   21.4340 H   0  0  0  0  0  0  0  0  0  0  0  0
  -20.2040  -25.7290   21.9730 C   0  0  0  0  0  0  0  0  0  0  0  0
  -22.4720  -26.7350   22.6930 C   0  0  0  0  0  3  0  0  0  0  0  0
  -23.1160  -25.4890   22.0410 C   0  0  0  0  0  2  0  0  0  0  0  0
  -22.3300  -24.9670   20.8340 C   0  0  0  0  0  2  0  0  0  0  0  0
  -20.9030  -24.5940   21.2440 C   0  0  0  0  0  2  0  0  0  0  0  0
  -20.9410  -26.7440   22.6390 C   0  0  0  0  0  0  0  0  0  0  0  0
  -20.2410  -27.7970   23.2680 C   0  0  0  0  0  3  0  0  0  0  0  0
  -18.8350  -27.8420   23.2440 C   0  0  0  0  0  3  0  0  0  0  0  0
  -18.1110  -26.8230   22.6000 C   0  0  0  0  0  3  0  0  0  0  0  0
  -18.7950  -25.7690   21.9680 C   0  0  0  0  0  3  0  0  0  0  0  0
  -26.1790  -32.1400   24.4710 C   0  0  0  0  0  3  0  0  0  0  0  0
  -25.6010  -33.4870   24.5660 N   0  0  0  0  0  0  0  0  0  0  0  0
  -25.9510  -34.5200   23.7880 C   0  0  0  0  0  0  0  0  0  0  0  0
  -26.8560  -34.4540   22.9510 O   0  0  0  0  0  0  0  0  0  0  0  0
  -24.8160  -33.6000   25.1900 H   0  0  0  0  0  0  0  0  0  0  0  0
  -24.1030  -35.9540   22.8660 C   0  0  0  0  0  1  0  0  0  0  0  0
  -25.1710  -35.8350   23.9650 C   0  0  0  0  0  3  0  0  0  0  0  0
  -26.9200  -37.1240   25.1080 C   0  0  0  0  0  1  0  0  0  0  0  0
  -26.0320  -37.0360   23.9520 N   0  0  0  0  0  0  0  0  0  0  0  0
  -25.4690  -37.8810   23.9190 H   0  0  0  0  0  0  0  0  0  0  0  0
  -26.4770  -31.5520   25.9060 C   0  0  1  0  0  0  0  0  0  0  0  0
  -25.2060  -31.2070   26.7140 C   0  0  0  0  0  1  0  0  0  0  0  0
  -27.3340  -30.2670   25.8010 C   0  0  0  0  0  1  0  0  0  0  0  0
  -27.3030  -32.5680   26.7280 C   0  0  0  0  0  1  0  0  0  0  0  0
  1  2  1  0
  3  6  2  0
  3  4  1  0
  4  1  2  0
  5 52  1  0
  5  2  2  0
  6  5  1  0
  7  6  1  0
  8  4  1  0
  9  8  1  0
 10 23  1  0
 10 16  1  0
 11 16  1  0
 12 13  1  0
 12 11  1  0
 14 13  1  0
 14 27  1  0
 14 15  1  0
 16 15  1  0
 17 10  2  0
 18 20  1  0
 18 22  1  0
 20 23  1  0
 21 19  1  0
 22  9  1  0
 22 19  1  0
 23 21  1  0
 24 25  2  0
 25 44  1  0
 26 29  1  0
 26 25  1  0
 27 28  1  0
 27 24  1  0
 28 26  2  0
 29 30  1  0
 30 31  2  0
 32 35  1  0
 32 31  1  0
 33 32  2  0
 34 33  1  0
 34 29  2  0
 35 36  1  0
 36 37  1  0
 37 38  2  0
 39 38  1  0
 39 43  1  0
 40 39  2  0
 41 36  2  0
 41 40  1  0
 42 41  1  0
 44 45  1  0
 45 48  1  0
 45 47  1  0
 46 44  2  0
 49 24  1  0
 49 50  1  0
 51 49  1  0
 53 54  1  0
 53 52  1  0
 55 54  1  0
 56 67  2  0
 57 55  1  0
 57 62  1  0
 58 66  1  0
 58 68  1  0
 59 61  1  0
 60 66  1  0
 61 62  2  0
 61 60  1  0
 63 57  2  0
 64 63  1  0
 64 59  2  0
 65 59  1  0
 65 58  1  0
 66 56  1  0
 68 70  2  0
 69 68  1  0
 71 69  1  0
 72 77  1  0
 73 69  1  0
 74 73  1  0
 75 76  1  0
 75 74  1  0
 76 72  1  0
 77 73  1  0
 77 78  2  0
 79 78  1  0
 80 79  2  0
 81 72  2  0
 81 80  1  0
 82 56  1  0
 82 83  1  0
 82 92  1  0
 83 86  1  0
 84 88  1  0
 84 83  1  0
 85 84  2  0
 88 87  1  0
 90 88  1  0
 90 89  1  0
 91 90  1  0
 92 93  1  1
 92 95  1  0
 94 92  1  0
M  ISO  4  10 100  23 100  54 101  55 101
M  END
>  <TORSDO>  (15) 
F 21

>  <SCORE>  (15) 
-7.412

>  <name>  (15) 
14

>  <ligand_id>  (15) 
14

>  <original_smiles>  (15) 
[H]c1c([H])c([H])c2c(c1[H])C([H])([H])C([H])([H])C([H])([H])C2([H])N([H])C(=O)C1([H])N(C(=O)C([H])(N([H])C(=O)C([H])(N([H])C([H])([H])[H])C([H])([H])[H])C(C([H])([H])[H])(C([H])([H])[H])C([H])([H])[H])C([H])([H])c2c([H])c(OC([H])([H])C([H])([H])C([H])([H])c3c([H])c([H])c(C([H])([H])C([H])([H])C4([H])C([H])([H])C([H])([H])N(C(=O)N5C([H])([H])C([H])([H])C([H])([H])C([H])(n6nc(-c7c([H])c([H])c(Oc8c([H])c([H])c(F)c([H])c8F)c([H])c7[H])c(C(=O)N([H])[H])c6N([H])[H])C5([H])[H])C([H])([H])C4([H])[H])c([H])c3F)c([H])c([H])c2C1([H])[H]

>  <smiles>  (15) 
[H]c1c([H])c([H])c2c(c1[H])C([H])([H])C([H])([H])C([H])([H])C2([H])N([H])C(=O)C1([H])N(C(=O)C([H])(N([H])C(=O)C([H])(N([H])C([H])([H])[H])C([H])([H])[H])C(C([H])([H])[H])(C([H])([H])[H])C([H])([H])[H])C([H])([H])c2c([H])c(OC([H])([H])C([H])([H])C([H])([H])c3c([H])c([H])c(C([H])([H])C([H])([H])C4([H])C([H])([H])C([H])([H])N(C(=O)N5C([H])([H])C([H])([H])C([H])([H])C([H])(n6nc(-c7c([H])c([H])c(Oc8c([H])c([H])c(F)c([H])c8F)c([H])c7[H])c(C(=O)N([H])[H])c6N([H])[H])C5([H])[H])C([H])([H])C4([H])[H])c([H])c3F)c([H])c([H])c2C1([H])[H]

$$$$
15:0:0
     RDKit          3D

 98106  0  0  1  0  0  0  0  0999 V2000
  -29.3370  -24.7810   24.2660 C   0  0  0  0  0  3  0  0  0  0  0  0
  -29.7180  -23.4340   24.1280 C   0  0  0  0  0  3  0  0  0  0  0  0
  -28.5750  -25.4050   23.2600 C   0  0  0  0  0  3  0  0  0  0  0  0
  -29.3350  -22.7050   22.9840 C   0  0  0  0  0  0  0  0  0  0  0  0
  -28.1990  -24.6940   22.1000 C   0  0  0  0  0  0  0  0  0  0  0  0
  -28.5780  -23.3370   21.9690 C   0  0  0  0  0  0  0  0  0  0  0  0
  -28.2190  -22.6250   20.8620 O   0  0  0  0  0  0  0  0  0  0  0  0
  -28.6570  -21.7830   20.8330 H   0  0  0  0  0  0  0  0  0  0  0  0
  -27.3860  -25.3870   21.0090 C   0  0  0  0  0  2  0  0  0  0  0  0
  -27.8030  -26.8430   20.7430 C   0  0  0  0  0  2  0  0  0  0  0  0
  -26.9770  -27.4740   19.6150 C   0  0  0  0  0  2  0  0  0  0  0  0
  -26.7860  -28.8580   19.8930 O   0  0  0  0  0  0  0  0  0  0  0  0
  -27.9500  -32.1610   26.0770 C   0  0  0  0  0  0  0  0  0  0  0  0
  -26.3260  -29.1410   21.1540 C   0  0  0  0  0  0  0  0  0  0  0  0
  -26.0170  -30.6170   26.0240 C   0  0  0  0  0  3  0  0  0  0  0  0
  -25.3430  -29.7670   23.7200 C   0  0  0  0  0  0  0  0  0  0  0  0
  -26.8120  -31.7850   23.8950 C   0  0  0  0  0  2  0  0  0  0  0  0
  -26.3150  -30.5820   23.1230 C   0  0  0  0  0  0  0  0  0  0  0  0
  -26.8080  -30.2750   21.8380 C   0  0  0  0  0  3  0  0  0  0  0  0
  -25.3440  -28.3290   21.7610 C   0  0  0  0  0  3  0  0  0  0  0  0
  -24.8550  -28.6340   23.0440 C   0  0  0  0  0  3  0  0  0  0  0  0
  -24.8590  -30.1770   25.0910 C   0  0  0  0  0  2  0  0  0  0  0  0
  -26.9870  -31.5350   25.3450 N   0  0  0  0  0  0  0  0  0  0  0  0
  -28.0120  -32.0200   27.3070 O   0  0  0  0  0  0  0  0  0  0  0  0
  -26.6830  -29.3530   26.6150 C   0  0  0  0  0  0  0  0  0  0  0  0
  -26.2090  -28.9290   27.7980 N   0  0  0  0  0  0  0  0  0  0  0  0
  -27.5770  -28.7630   26.0040 O   0  0  0  0  0  0  0  0  0  0  0  0
  -25.4790  -29.4740   28.2330 H   0  0  0  0  0  0  0  0  0  0  0  0
  -25.8050  -27.0940   30.8820 C   0  0  0  0  0  0  0  0  0  0  0  0
  -26.6520  -27.7430   28.5280 C   0  0  0  0  0  3  0  0  0  0  0  0
  -25.9220  -26.4760   28.0260 C   0  0  0  0  0  2  0  0  0  0  0  0
  -24.6620  -26.1470   28.8330 C   0  0  0  0  0  2  0  0  0  0  0  0
  -25.0100  -25.9330   30.3090 C   0  0  0  0  0  2  0  0  0  0  0  0
  -26.5650  -27.9520   30.0430 C   0  0  0  0  0  0  0  0  0  0  0  0
  -27.2600  -29.0350   30.6210 C   0  0  0  0  0  3  0  0  0  0  0  0
  -27.2100  -29.2640   32.0100 C   0  0  0  0  0  3  0  0  0  0  0  0
  -26.4730  -28.4010   32.8390 C   0  0  0  0  0  3  0  0  0  0  0  0
  -25.7750  -27.3180   32.2750 C   0  0  0  0  0  3  0  0  0  0  0  0
  -29.0030  -33.1010   25.4120 C   0  0  0  0  0  3  0  0  0  0  0  0
  -29.2820  -34.1910   26.3550 N   0  0  0  0  0  0  0  0  0  0  0  0
  -28.8000  -35.4360   26.2430 C   0  0  0  0  0  0  0  0  0  0  0  0
  -28.1210  -35.8080   25.2800 O   0  0  0  0  0  0  0  0  0  0  0  0
  -29.7750  -33.9440   27.2000 H   0  0  0  0  0  0  0  0  0  0  0  0
  -27.8590  -36.6520   28.2360 C   0  0  0  0  0  1  0  0  0  0  0  0
  -29.1170  -36.4240   27.3810 C   0  0  0  0  0  3  0  0  0  0  0  0
  -30.9670  -37.6380   26.3170 C   0  0  0  0  0  1  0  0  0  0  0  0
  -29.6330  -37.7260   26.9030 N   0  0  0  0  0  0  0  0  0  0  0  0
  -29.6660  -38.4010   27.6620 H   0  0  0  0  0  0  0  0  0  0  0  0
  -30.3360  -32.3570   25.0100 C   0  0  1  0  0  0  0  0  0  0  0  0
  -30.8370  -31.3580   26.0790 C   0  0  0  0  0  1  0  0  0  0  0  0
  -30.1460  -31.5800   23.6850 C   0  0  0  0  0  1  0  0  0  0  0  0
  -31.4610  -33.3900   24.7630 C   0  0  0  0  0  1  0  0  0  0  0  0
  -29.7280  -21.2410   22.8570 C   0  0  0  0  0  2  0  0  0  0  0  0
  -30.6220  -20.9630   21.6330 C   0  0  0  0  0  2  0  0  0  0  0  0
  -29.8510  -20.2670   20.5050 C   0  0  0  0  0  2  0  0  0  0  0  0
  -30.6980  -19.9720   19.2560 C   0  0  0  0  0  2  0  0  0  0  0  0
  -29.9210  -20.1510   17.9400 C   0  0  0  0  0  2  0  0  0  0  0  0
  -28.4510  -19.6940   17.9950 C   0  0  0  0  0  2  0  0  0  0  0  0
  -27.6280  -20.2170   16.8050 C   0  0  0  0  0  2  0  0  0  0  0  0
  -26.2090  -20.6780   17.1820 C   0  0  0  0  0  2  0  0  0  0  0  0
  -26.1800  -22.0980   17.7960 C   0  0  0  0  0  2  0  0  0  0  0  0
  -24.7620  -22.6420   18.0810 C   0  0  0  0  0  2  0  0  0  0  0  0
  -23.8660  -22.7890   16.8360 C   0  0  0  0  0  0  0  0  0  0  0  0
  -21.6000  -22.7590   15.8500 C   0  0  0  0  0  2  0  0  0  0  0  0
  -21.0190  -24.1660   15.6380 C   0  0  0  0  0  2  0  0  0  0  0  0
  -20.3270  -24.6670   16.9200 C   0  0  0  0  0  2  0  0  0  0  0  0
  -21.2240  -24.5110   18.1760 C   0  0  0  0  0  3  0  0  0  0  0  0
  -21.8170  -23.0860   18.2590 C   0  0  0  0  0  2  0  0  0  0  0  0
  -22.5190  -22.8020   16.9950 N   0  0  0  0  0  0  0  0  0  0  0  0
  -24.3960  -22.8340   15.7200 O   0  0  0  0  0  0  0  0  0  0  0  0
  -20.5490  -26.0340   20.1410 C   0  0  0  0  0  0  0  0  0  0  0  0
  -19.6190  -25.8850   21.1370 C   0  0  0  0  0  0  0  0  0  0  0  0
  -19.0280  -24.6020   20.9340 C   0  0  0  0  0  0  0  0  0  0  0  0
  -20.4970  -24.8670   19.3940 N   0  0  0  0  0  0  0  0  0  0  0  0
  -19.6060  -23.9840   19.9120 N   0  0  0  0  0  0  0  0  0  0  0  0
  -17.9040  -23.9470   21.6180 C   0  0  0  0  0  0  0  0  0  0  0  0
  -18.0280  -22.6540   22.1720 C   0  0  0  0  0  3  0  0  0  0  0  0
  -16.9390  -22.0550   22.8400 C   0  0  0  0  0  3  0  0  0  0  0  0
  -15.7120  -22.7490   22.9620 C   0  0  0  0  0  0  0  0  0  0  0  0
  -15.5870  -24.0260   22.3890 C   0  0  0  0  0  3  0  0  0  0  0  0
  -16.6700  -24.6180   21.7190 C   0  0  0  0  0  3  0  0  0  0  0  0
  -14.5920  -22.2340   23.5700 O   0  0  0  0  0  0  0  0  0  0  0  0
  -14.6820  -21.3240   24.5940 C   0  0  0  0  0  0  0  0  0  0  0  0
  -15.3500  -21.6270   25.8010 C   0  0  0  0  0  3  0  0  0  0  0  0
  -15.3590  -20.6890   26.8540 C   0  0  0  0  0  3  0  0  0  0  0  0
  -14.6970  -19.4560   26.7050 C   0  0  0  0  0  0  0  0  0  0  0  0
  -14.0260  -19.1570   25.5060 C   0  0  0  0  0  3  0  0  0  0  0  0
  -14.0170  -20.0900   24.4540 C   0  0  0  0  0  0  0  0  0  0  0  0
  -13.3530  -19.8050   23.3090 F   0  0  0  0  0  0  0  0  0  0  0  0
  -14.6980  -18.5590   27.7180 F   0  0  0  0  0  0  0  0  0  0  0  0
  -19.2340  -26.9110   22.1640 C   0  0  0  0  0  0  0  0  0  0  0  0
  -18.8000  -26.4690   23.3400 N   0  0  0  0  0  0  0  0  0  0  0  0
  -19.3660  -28.1140   21.9470 O   0  0  0  0  0  0  0  0  0  0  0  0
  -18.7120  -25.4810   23.5270 H   0  0  0  0  0  0  0  0  0  0  0  0
  -18.5510  -27.1300   24.0630 H   0  0  0  0  0  0  0  0  0  0  0  0
  -21.4140  -27.0700   19.7990 N   0  0  0  0  0  0  0  0  0  0  0  0
  -21.4270  -27.9530   20.2960 H   0  0  0  0  0  0  0  0  0  0  0  0
  -22.0400  -27.0550   19.0040 H   0  0  0  0  0  0  0  0  0  0  0  0
  2  1  1  0
  3  1  2  0
  4  2  2  0
  5  3  1  0
  6  5  2  0
  6  4  1  0
  7  6  1  0
  8  7  1  0
  9  5  1  0
 10  9  1  0
 11 12  1  0
 11 10  1  0
 12 14  1  0
 13 24  2  0
 14 20  2  0
 14 19  1  0
 15 25  1  0
 16 22  1  0
 17 23  1  0
 18 16  1  0
 18 17  1  0
 19 18  2  0
 20 21  1  0
 21 16  2  0
 22 15  1  0
 23 15  1  0
 23 13  1  0
 25 26  1  0
 26 28  1  0
 27 25  2  0
 29 38  1  0
 30 26  1  0
 30 34  1  0
 31 30  1  0
 31 32  1  0
 32 33  1  0
 33 29  1  0
 34 35  1  0
 34 29  2  0
 35 36  2  0
 36 37  1  0
 38 37  2  0
 39 13  1  0
 39 40  1  0
 40 43  1  0
 41 40  1  0
 41 45  1  0
 42 41  2  0
 45 44  1  0
 46 47  1  0
 47 45  1  0
 47 48  1  0
 49 39  1  0
 49 50  1  1
 51 49  1  0
 52 49  1  0
 53  4  1  0
 54 53  1  0
 55 54  1  0
 56 55  1  0
 57 58  1  0
 57 56  1  0
 59 60  1  0
 59 58  1  0
 60 61  1  0
 61 62  1  0
 63 69  1  0
 63 62  1  0
 64 69  1  0
 65 64  1  0
 65 66  1  0
 67 66  1  0
 67 68  1  0
 67 74  1  0
 69 68  1  0
 70 63  2  0
 71 72  2  0
 72 91  1  0
 73 72  1  0
 73 76  1  0
 74 75  1  0
 74 71  1  0
 75 73  2  0
 76 81  2  0
 76 77  1  0
 77 78  2  0
 78 79  1  0
 79 82  1  0
 80 79  2  0
 81 80  1  0
 82 83  1  0
 83 84  1  0
 84 85  2  0
 86 85  1  0
 86 90  1  0
 87 86  2  0
 88 83  2  0
 88 87  1  0
 89 88  1  0
 91 92  1  0
 92 94  1  0
 92 95  1  0
 93 91  2  0
 96 71  1  0
 96 97  1  0
 98 96  1  0
M  ISO  4  11 101  12 101  62 100  63 100
M  END
>  <TORSDO>  (16) 
F 30

>  <SCORE>  (16) 
-4.287

>  <name>  (16) 
15

>  <ligand_id>  (16) 
15

>  <original_smiles>  (16) 
[H]Oc1c(C([H])([H])C([H])([H])C([H])([H])Oc2c([H])c([H])c3c(c2[H])C([H])([H])N(C(=O)C([H])(N([H])C(=O)C([H])(N([H])C([H])([H])[H])C([H])([H])[H])C(C([H])([H])[H])(C([H])([H])[H])C([H])([H])[H])C([H])(C(=O)N([H])C2([H])c4c([H])c([H])c([H])c([H])c4C([H])([H])C([H])([H])C2([H])[H])C3([H])[H])c([H])c([H])c([H])c1C([H])([H])C([H])([H])C([H])([H])C([H])([H])C([H])([H])C([H])([H])C([H])([H])C([H])([H])C([H])([H])C([H])([H])C(=O)N1C([H])([H])C([H])([H])C([H])([H])C([H])(n2nc(-c3c([H])c([H])c(Oc4c([H])c([H])c(F)c([H])c4F)c([H])c3[H])c(C(=O)N([H])[H])c2N([H])[H])C1([H])[H]

>  <smiles>  (16) 
[H]Oc1c(C([H])([H])C([H])([H])C([H])([H])Oc2c([H])c([H])c3c(c2[H])C([H])([H])N(C(=O)C([H])(N([H])C(=O)C([H])(N([H])C([H])([H])[H])C([H])([H])[H])C(C([H])([H])[H])(C([H])([H])[H])C([H])([H])[H])C([H])(C(=O)N([H])C2([H])c4c([H])c([H])c([H])c([H])c4C([H])([H])C([H])([H])C2([H])[H])C3([H])[H])c([H])c([H])c([H])c1C([H])([H])C([H])([H])C([H])([H])C([H])([H])C([H])([H])C([H])([H])C([H])([H])C([H])([H])C([H])([H])C([H])([H])C(=O)N1C([H])([H])C([H])([H])C([H])([H])C([H])(n2nc(-c3c([H])c([H])c(Oc4c([H])c([H])c(F)c([H])c4F)c([H])c3[H])c(C(=O)N([H])[H])c2N([H])[H])C1([H])[H]

$$$$
16:0:0
     RDKit          3D

 98106  0  0  1  0  0  0  0  0999 V2000
  -31.7370  -25.3750   21.1970 C   0  0  0  0  0  3  0  0  0  0  0  0
  -33.2240  -25.1870   19.2770 C   0  0  0  0  0  3  0  0  0  0  0  0
  -31.4830  -26.7200   20.8650 C   0  0  0  0  0  3  0  0  0  0  0  0
  -32.9710  -26.5270   18.9410 C   0  0  0  0  0  3  0  0  0  0  0  0
  -32.5950  -24.5880   20.3900 C   0  0  0  0  0  0  0  0  0  0  0  0
  -32.0810  -27.2910   19.7220 C   0  0  0  0  0  0  0  0  0  0  0  0
  -32.9050  -23.1610   20.6860 C   0  0  0  0  0  0  0  0  0  0  0  0
  -34.0000  -22.6500   20.4320 O   0  0  0  0  0  0  0  0  0  0  0  0
  -31.8010  -22.2660   21.2480 C   0  0  0  0  0  2  0  0  0  0  0  0
  -31.5600  -21.0470   20.3460 C   0  0  0  0  0  2  0  0  0  0  0  0
  -30.4700  -20.1210   20.9010 C   0  0  0  0  0  2  0  0  0  0  0  0
  -30.3460  -18.8630   20.0390 C   0  0  0  0  0  2  0  0  0  0  0  0
  -29.6920  -17.6640   20.7500 C   0  0  0  0  0  2  0  0  0  0  0  0
  -30.2270  -16.3670   20.1310 C   0  0  0  0  0  2  0  0  0  0  0  0
  -29.8300  -15.0420   20.8120 C   0  0  0  0  0  2  0  0  0  0  0  0
  -30.4590  -13.8500   20.0580 C   0  0  0  0  0  0  0  0  0  0  0  0
  -30.0930  -11.7110   18.8960 C   0  0  0  0  0  2  0  0  0  0  0  0
  -29.0420  -11.9270   17.7890 C   0  0  0  0  0  2  0  0  0  0  0  0
  -27.6140  -11.7680   18.3480 C   0  0  0  0  0  2  0  0  0  0  0  0
  -27.3840  -12.5840   19.6490 C   0  0  0  0  0  3  0  0  0  0  0  0
  -28.5370  -12.3550   20.6530 C   0  0  0  0  0  2  0  0  0  0  0  0
  -29.7990  -12.6690   19.9730 N   0  0  0  0  0  0  0  0  0  0  0  0
  -31.5160  -14.0400   19.4480 O   0  0  0  0  0  0  0  0  0  0  0  0
  -25.0760  -13.1530   20.6330 C   0  0  0  0  0  0  0  0  0  0  0  0
  -24.0450  -12.3590   21.0690 C   0  0  0  0  0  0  0  0  0  0  0  0
  -24.4950  -11.0130   20.9160 C   0  0  0  0  0  0  0  0  0  0  0  0
  -26.0860  -12.2860   20.2490 N   0  0  0  0  0  0  0  0  0  0  0  0
  -25.7450  -10.9910   20.4720 N   0  0  0  0  0  0  0  0  0  0  0  0
  -23.7880   -9.7400   21.1110 C   0  0  0  0  0  0  0  0  0  0  0  0
  -24.2700   -8.7570   22.0040 C   0  0  0  0  0  3  0  0  0  0  0  0
  -23.5620   -7.5500   22.1880 C   0  0  0  0  0  3  0  0  0  0  0  0
  -22.3600   -7.3170   21.4790 C   0  0  0  0  0  0  0  0  0  0  0  0
  -21.8970   -8.2880   20.5750 C   0  0  0  0  0  3  0  0  0  0  0  0
  -22.6050   -9.4870   20.3890 C   0  0  0  0  0  3  0  0  0  0  0  0
  -21.6210   -6.1630   21.5740 O   0  0  0  0  0  0  0  0  0  0  0  0
  -21.5900   -5.4190   22.7270 C   0  0  0  0  0  0  0  0  0  0  0  0
  -21.1280   -5.9580   23.9490 C   0  0  0  0  0  3  0  0  0  0  0  0
  -21.0480   -5.1400   25.0930 C   0  0  0  0  0  3  0  0  0  0  0  0
  -21.4190   -3.7840   25.0170 C   0  0  0  0  0  0  0  0  0  0  0  0
  -21.8740   -3.2460   23.8010 C   0  0  0  0  0  3  0  0  0  0  0  0
  -21.9560   -4.0600   22.6580 C   0  0  0  0  0  0  0  0  0  0  0  0
  -22.3750   -3.5310   21.4840 F   0  0  0  0  0  0  0  0  0  0  0  0
  -21.3350   -2.9960   26.1140 F   0  0  0  0  0  0  0  0  0  0  0  0
  -22.6870  -12.8200   21.5110 C   0  0  0  0  0  0  0  0  0  0  0  0
  -22.0480  -12.0730   22.4070 N   0  0  0  0  0  0  0  0  0  0  0  0
  -22.2030  -13.8730   21.1020 O   0  0  0  0  0  0  0  0  0  0  0  0
  -22.4520  -11.2180   22.7600 H   0  0  0  0  0  0  0  0  0  0  0  0
  -21.1420  -12.3630   22.7440 H   0  0  0  0  0  0  0  0  0  0  0  0
  -25.2280  -14.5310   20.5160 N   0  0  0  0  0  0  0  0  0  0  0  0
  -24.4850  -15.1820   20.7420 H   0  0  0  0  0  0  0  0  0  0  0  0
  -26.0500  -14.9850   20.1360 H   0  0  0  0  0  0  0  0  0  0  0  0
  -31.7870  -28.7260   19.3270 C   0  0  0  0  0  2  0  0  0  0  0  0
  -31.8470  -30.0360   17.2450 C   0  0  0  0  0  1  0  0  0  0  0  0
  -31.3730  -28.7910   17.9040 N   0  0  2  0  0  4  0  0  0  0  0  0
  -31.8880  -28.0440   17.4590 H   0  0  0  0  0  0  0  0  0  0  0  0
  -29.9200  -28.5540   17.6480 C   0  0  0  0  0  2  0  0  0  0  0  0
  -29.4060  -27.0910   17.8290 C   0  0  0  0  0  2  0  0  0  0  0  0
  -28.8540  -26.7400   19.1120 O   0  0  0  0  0  0  0  0  0  0  0  0
  -25.1650  -31.3480   23.0610 C   0  0  0  0  0  0  0  0  0  0  0  0
  -27.6550  -27.3570   19.3580 C   0  0  0  0  0  0  0  0  0  0  0  0
  -23.8920  -30.2500   21.2340 C   0  0  0  0  0  3  0  0  0  0  0  0
  -25.2890  -28.8650   19.6060 C   0  0  0  0  0  0  0  0  0  0  0  0
  -26.4190  -30.5460   21.0730 C   0  0  0  0  0  2  0  0  0  0  0  0
  -26.4520  -29.2630   20.2770 C   0  0  0  0  0  0  0  0  0  0  0  0
  -27.6250  -28.4930   20.1870 C   0  0  0  0  0  3  0  0  0  0  0  0
  -26.4770  -26.9350   18.7090 C   0  0  0  0  0  3  0  0  0  0  0  0
  -25.2900  -27.6860   18.8340 C   0  0  0  0  0  3  0  0  0  0  0  0
  -24.0760  -29.7530   19.7700 C   0  0  0  0  0  2  0  0  0  0  0  0
  -25.1760  -30.7190   21.8520 N   0  0  0  0  0  0  0  0  0  0  0  0
  -24.1020  -31.5760   23.6510 O   0  0  0  0  0  0  0  0  0  0  0  0
  -23.2060  -29.1330   22.0460 C   0  0  0  0  0  0  0  0  0  0  0  0
  -21.8690  -29.0620   21.9580 N   0  0  0  0  0  0  0  0  0  0  0  0
  -23.8740  -28.3380   22.7140 O   0  0  0  0  0  0  0  0  0  0  0  0
  -21.3920  -29.7590   21.4030 H   0  0  0  0  0  0  0  0  0  0  0  0
  -18.4370  -28.0830   22.4930 C   0  0  0  0  0  0  0  0  0  0  0  0
  -21.0190  -28.0680   22.6120 C   0  0  0  0  0  3  0  0  0  0  0  0
  -20.9500  -26.7690   21.7780 C   0  0  0  0  0  2  0  0  0  0  0  0
  -19.7630  -26.7360   20.8090 C   0  0  0  0  0  2  0  0  0  0  0  0
  -18.4400  -26.8720   21.5700 C   0  0  0  0  0  2  0  0  0  0  0  0
  -19.6480  -28.6510   22.9700 C   0  0  0  0  0  0  0  0  0  0  0  0
  -19.5920  -29.7940   23.7980 C   0  0  0  0  0  3  0  0  0  0  0  0
  -18.3560  -30.3700   24.1490 C   0  0  0  0  0  3  0  0  0  0  0  0
  -17.1600  -29.7970   23.6820 C   0  0  0  0  0  3  0  0  0  0  0  0
  -17.2000  -28.6540   22.8630 C   0  0  0  0  0  3  0  0  0  0  0  0
  -26.4860  -31.8310   23.7440 C   0  0  0  0  0  3  0  0  0  0  0  0
  -26.2360  -33.1660   24.3010 N   0  0  0  0  0  0  0  0  0  0  0  0
  -26.5980  -34.3150   23.7150 C   0  0  0  0  0  0  0  0  0  0  0  0
  -27.2520  -34.3550   22.6690 O   0  0  0  0  0  0  0  0  0  0  0  0
  -25.6580  -33.2110   25.1280 H   0  0  0  0  0  0  0  0  0  0  0  0
  -24.9310  -36.1960   23.6740 C   0  0  0  0  0  1  0  0  0  0  0  0
  -26.1640  -35.6280   24.3930 C   0  0  0  0  0  3  0  0  0  0  0  0
  -28.3320  -36.3010   25.3280 C   0  0  0  0  0  1  0  0  0  0  0  0
  -27.2320  -36.6490   24.4340 N   0  0  0  0  0  0  0  0  0  0  0  0
  -26.8600  -37.5480   24.7280 H   0  0  0  0  0  0  0  0  0  0  0  0
  -27.0000  -30.8450   24.8640 C   0  0  1  0  0  0  0  0  0  0  0  0
  -25.9200  -30.4760   25.9060 C   0  0  0  0  0  1  0  0  0  0  0  0
  -27.5220  -29.5330   24.2390 C   0  0  0  0  0  1  0  0  0  0  0  0
  -28.1960  -31.4740   25.6190 C   0  0  0  0  0  1  0  0  0  0  0  0
  2  5  1  0
  3  1  1  0
  4  2  2  0
  4  6  1  0
  5  7  1  0
  5  1  2  0
  6  3  2  0
  7  9  1  0
  8  7  2  0
 10 11  1  0
 10  9  1  0
 12 13  1  0
 12 11  1  0
 14 13  1  0
 14 15  1  0
 16 15  1  0
 17 22  1  0
 18 19  1  0
 18 17  1  0
 20 19  1  0
 20 27  1  0
 20 21  1  0
 22 16  1  0
 22 21  1  0
 23 16  2  0
 24 25  2  0
 25 44  1  0
 26 25  1  0
 26 29  1  0
 27 28  1  0
 27 24  1  0
 28 26  2  0
 29 30  1  0
 30 31  2  0
 32 35  1  0
 32 31  1  0
 33 32  2  0
 34 33  1  0
 34 29  2  0
 35 36  1  0
 36 37  1  0
 37 38  2  0
 39 38  1  0
 39 43  1  0
 40 39  2  0
 41 36  2  0
 41 40  1  0
 42 41  1  0
 44 45  1  0
 45 48  1  0
 45 47  1  0
 46 44  2  0
 49 24  1  0
 49 50  1  0
 51 49  1  0
 52  6  1  0
 53 54  1  0
 54 52  1  0
 54 55  1  6
 56 57  1  0
 56 54  1  0
 57 58  1  0
 58 60  1  0
 59 70  2  0
 60 65  1  0
 61 69  1  0
 61 71  1  0
 62 68  1  0
 62 64  1  0
 63 69  1  0
 64 63  1  0
 65 64  2  0
 66 67  1  0
 66 60  2  0
 67 62  2  0
 68 61  1  0
 69 59  1  0
 71 73  2  0
 72 71  1  0
 74 72  1  0
 75 84  2  0
 75 80  1  0
 76 72  1  0
 76 80  1  0
 77 76  1  0
 78 79  1  0
 78 77  1  0
 79 75  1  0
 80 81  2  0
 81 82  1  0
 83 82  2  0
 84 83  1  0
 85 59  1  0
 85 86  1  0
 85 95  1  0
 86 89  1  0
 87 86  1  0
 87 91  1  0
 88 87  2  0
 91 90  1  0
 91 93  1  0
 93 94  1  0
 93 92  1  0
 95 98  1  1
 95 96  1  0
 97 95  1  0
M  ISO  4  15 100  16 100  57 101  58 101
M  END
>  <TORSDO>  (17) 
F 28

>  <SCORE>  (17) 
-7.458

>  <name>  (17) 
16

>  <ligand_id>  (17) 
16

>  <original_smiles>  (17) 
[H]c1c([H])c([H])c2c(c1[H])C([H])([H])C([H])([H])C([H])([H])C2([H])N([H])C(=O)C1([H])N(C(=O)C([H])(N([H])C(=O)C([H])(N([H])C([H])([H])[H])C([H])([H])[H])C(C([H])([H])[H])(C([H])([H])[H])C([H])([H])[H])C([H])([H])c2c([H])c(OC([H])([H])C([H])([H])[N+]([H])(C([H])([H])[H])C([H])([H])c3c([H])c([H])c(C(=O)C([H])([H])C([H])([H])C([H])([H])C([H])([H])C([H])([H])C([H])([H])C([H])([H])C(=O)N4C([H])([H])C([H])([H])C([H])([H])C([H])(n5nc(-c6c([H])c([H])c(Oc7c([H])c([H])c(F)c([H])c7F)c([H])c6[H])c(C(=O)N([H])[H])c5N([H])[H])C4([H])[H])c([H])c3[H])c([H])c([H])c2C1([H])[H]

>  <smiles>  (17) 
[H]c1c([H])c([H])c2c(c1[H])C([H])([H])C([H])([H])C([H])([H])C2([H])N([H])C(=O)C1([H])N(C(=O)C([H])(N([H])C(=O)C([H])(N([H])C([H])([H])[H])C([H])([H])[H])C(C([H])([H])[H])(C([H])([H])[H])C([H])([H])[H])C([H])([H])c2c([H])c(OC([H])([H])C([H])([H])[N+]([H])(C([H])([H])[H])C([H])([H])c3c([H])c([H])c(C(=O)C([H])([H])C([H])([H])C([H])([H])C([H])([H])C([H])([H])C([H])([H])C([H])([H])C(=O)N4C([H])([H])C([H])([H])C([H])([H])C([H])(n5nc(-c6c([H])c([H])c(Oc7c([H])c([H])c(F)c([H])c7F)c([H])c6[H])c(C(=O)N([H])[H])c5N([H])[H])C4([H])[H])c([H])c3[H])c([H])c([H])c2C1([H])[H]

$$$$
17:0:0
     RDKit          3D

 91 98  0  0  1  0  0  0  0  0999 V2000
  -28.8400  -22.6080   20.7690 C   0  0  0  0  0  3  0  0  0  0  0  0
  -29.7590  -21.4590   20.3230 N   0  0  0  0  0  4  0  0  0  0  0  0
  -30.0270  -21.6250   19.3670 H   0  0  0  0  0  0  0  0  0  0  0  0
  -30.6050  -21.5360   20.8680 H   0  0  0  0  0  0  0  0  0  0  0  0
  -29.2900  -20.0030   20.3950 C   0  0  0  0  0  2  0  0  0  0  0  0
  -30.3750  -18.8410   20.5350 C   0  0  0  0  0  2  0  0  0  0  0  0
  -30.0190  -17.3770   19.9880 C   0  0  0  0  0  2  0  0  0  0  0  0
  -30.1020  -16.0780   20.9160 C   0  0  0  0  0  2  0  0  0  0  0  0
  -30.7190  -14.7580   20.2880 C   0  0  0  0  0  0  0  0  0  0  0  0
  -30.4510  -12.5330   19.2020 C   0  0  0  0  0  2  0  0  0  0  0  0
  -29.4890  -12.6650   18.0010 C   0  0  0  0  0  2  0  0  0  0  0  0
  -28.0270  -12.4980   18.4530 C   0  0  0  0  0  2  0  0  0  0  0  0
  -27.6870  -13.3480   19.7060 C   0  0  0  0  0  3  0  0  0  0  0  0
  -28.7670  -13.2030   20.8020 C   0  0  0  0  0  2  0  0  0  0  0  0
  -30.0650  -13.5520   20.2060 N   0  0  0  0  0  0  0  0  0  0  0  0
  -31.8400  -14.8780   19.7900 O   0  0  0  0  0  0  0  0  0  0  0  0
  -25.2980  -13.9100   20.4580 C   0  0  0  0  0  0  0  0  0  0  0  0
  -24.2430  -13.1240   20.8380 C   0  0  0  0  0  0  0  0  0  0  0  0
  -24.7210  -11.7780   20.7990 C   0  0  0  0  0  0  0  0  0  0  0  0
  -26.3490  -13.0430   20.2090 N   0  0  0  0  0  0  0  0  0  0  0  0
  -26.0070  -11.7540   20.4700 N   0  0  0  0  0  0  0  0  0  0  0  0
  -24.0080  -10.5090   20.9980 C   0  0  0  0  0  0  0  0  0  0  0  0
  -24.4500   -9.5530   21.9400 C   0  0  0  0  0  3  0  0  0  0  0  0
  -23.7410   -8.3470   22.1250 C   0  0  0  0  0  3  0  0  0  0  0  0
  -22.5740   -8.0870   21.3660 C   0  0  0  0  0  0  0  0  0  0  0  0
  -22.1490   -9.0310   20.4130 C   0  0  0  0  0  3  0  0  0  0  0  0
  -22.8610  -10.2300   20.2280 C   0  0  0  0  0  3  0  0  0  0  0  0
  -21.8350   -6.9320   21.4590 O   0  0  0  0  0  0  0  0  0  0  0  0
  -21.7850   -6.2010   22.6190 C   0  0  0  0  0  0  0  0  0  0  0  0
  -21.3150   -6.7550   23.8300 C   0  0  0  0  0  3  0  0  0  0  0  0
  -21.2160   -5.9490   24.9820 C   0  0  0  0  0  3  0  0  0  0  0  0
  -21.5760   -4.5900   24.9240 C   0  0  0  0  0  0  0  0  0  0  0  0
  -22.0420   -4.0350   23.7200 C   0  0  0  0  0  3  0  0  0  0  0  0
  -22.1450   -4.8370   22.5700 C   0  0  0  0  0  0  0  0  0  0  0  0
  -22.5740   -4.2940   21.4050 F   0  0  0  0  0  0  0  0  0  0  0  0
  -21.4730   -3.8130   26.0280 F   0  0  0  0  0  0  0  0  0  0  0  0
  -22.8470  -13.5880   21.1300 C   0  0  0  0  0  0  0  0  0  0  0  0
  -22.1320  -12.8780   21.9980 N   0  0  0  0  0  0  0  0  0  0  0  0
  -22.3940  -14.6150   20.6260 O   0  0  0  0  0  0  0  0  0  0  0  0
  -22.5080  -12.0490   22.4330 H   0  0  0  0  0  0  0  0  0  0  0  0
  -21.1960  -13.1750   22.2320 H   0  0  0  0  0  0  0  0  0  0  0  0
  -25.4490  -15.2800   20.2860 N   0  0  0  0  0  0  0  0  0  0  0  0
  -24.6780  -15.9300   20.4000 H   0  0  0  0  0  0  0  0  0  0  0  0
  -26.3000  -15.7230   19.9620 H   0  0  0  0  0  0  0  0  0  0  0  0
  -27.3220  -22.3130   20.5980 C   0  0  0  0  0  2  0  0  0  0  0  0
  -26.7610  -22.4530   19.1770 C   0  0  0  0  0  0  0  0  0  0  0  0
  -25.3580  -23.0260   19.0260 C   0  0  0  0  0  1  0  0  0  0  0  0
  -27.4060  -22.1040   18.1880 O   0  0  0  0  0  0  0  0  0  0  0  0
  -29.2100  -24.0940   20.2560 C   0  0  0  0  0  3  0  0  0  0  0  0
  -28.4780  -25.3330   20.9550 C   0  0  0  0  0  3  0  0  0  0  0  0
  -28.5760  -26.6890   20.3740 O   0  0  0  0  0  0  0  0  0  0  0  0
  -24.6440  -31.9860   23.3090 C   0  0  0  0  0  0  0  0  0  0  0  0
  -27.4240  -27.4830   20.3430 C   0  0  0  0  0  0  0  0  0  0  0  0
  -23.5050  -30.5640   21.6390 C   0  0  0  0  0  3  0  0  0  0  0  0
  -25.0200  -29.0230   20.2650 C   0  0  0  0  0  0  0  0  0  0  0  0
  -26.0380  -30.9330   21.5140 C   0  0  0  0  0  2  0  0  0  0  0  0
  -26.1630  -29.5540   20.8780 C   0  0  0  0  0  0  0  0  0  0  0  0
  -27.3710  -28.7970   20.8960 C   0  0  0  0  0  3  0  0  0  0  0  0
  -26.2590  -26.9920   19.7150 C   0  0  0  0  0  3  0  0  0  0  0  0
  -25.0680  -27.7460   19.6760 C   0  0  0  0  0  3  0  0  0  0  0  0
  -23.7660  -29.8720   20.2730 C   0  0  0  0  0  2  0  0  0  0  0  0
  -24.7460  -31.1800   22.2120 N   0  0  0  0  0  0  0  0  0  0  0  0
  -23.5460  -32.2490   23.8180 O   0  0  0  0  0  0  0  0  0  0  0  0
  -22.8300  -29.5480   22.5900 C   0  0  0  0  0  0  0  0  0  0  0  0
  -21.5070  -29.3640   22.4400 N   0  0  0  0  0  0  0  0  0  0  0  0
  -23.4980  -28.9260   23.4200 O   0  0  0  0  0  0  0  0  0  0  0  0
  -21.0270  -29.9190   21.7450 H   0  0  0  0  0  0  0  0  0  0  0  0
  -18.1250  -28.1690   22.9050 C   0  0  0  0  0  0  0  0  0  0  0  0
  -20.6810  -28.4190   23.1970 C   0  0  0  0  0  3  0  0  0  0  0  0
  -20.7850  -26.9920   22.6110 C   0  0  0  0  0  2  0  0  0  0  0  0
  -19.6890  -26.6820   21.5850 C   0  0  0  0  0  2  0  0  0  0  0  0
  -18.3030  -26.8260   22.2170 C   0  0  0  0  0  2  0  0  0  0  0  0
  -19.2410  -28.9230   23.3520 C   0  0  0  0  0  0  0  0  0  0  0  0
  -19.0210  -30.1800   23.9530 C   0  0  0  0  0  3  0  0  0  0  0  0
  -17.7150  -30.6810   24.1180 C   0  0  0  0  0  3  0  0  0  0  0  0
  -16.6110  -29.9230   23.6880 C   0  0  0  0  0  3  0  0  0  0  0  0
  -16.8180  -28.6700   23.0850 C   0  0  0  0  0  3  0  0  0  0  0  0
  -25.9060  -32.6350   23.9620 C   0  0  0  0  0  3  0  0  0  0  0  0
  -26.3780  -31.8970   25.2750 C   0  0  1  0  0  0  0  0  0  0  0  0
  -25.2480  -31.6760   26.3060 C   0  0  0  0  0  1  0  0  0  0  0  0
  -26.9830  -30.5130   24.9410 C   0  0  0  0  0  1  0  0  0  0  0  0
  -27.4990  -32.7140   25.9590 C   0  0  0  0  0  1  0  0  0  0  0  0
  -25.5860  -34.0400   24.2470 N   0  0  0  0  0  0  0  0  0  0  0  0
  -25.9410  -35.0750   23.4740 C   0  0  0  0  0  0  0  0  0  0  0  0
  -26.6430  -34.9460   22.4670 O   0  0  0  0  0  0  0  0  0  0  0  0
  -24.9690  -34.2130   25.0270 H   0  0  0  0  0  0  0  0  0  0  0  0
  -24.2260  -36.8610   23.0260 C   0  0  0  0  0  1  0  0  0  0  0  0
  -25.4420  -36.4750   23.8830 C   0  0  0  0  0  3  0  0  0  0  0  0
  -27.5460  -37.3890   24.7590 C   0  0  0  0  0  1  0  0  0  0  0  0
  -26.4780  -37.5260   23.7730 N   0  0  0  0  0  0  0  0  0  0  0  0
  -26.0660  -38.4490   23.8810 H   0  0  0  0  0  0  0  0  0  0  0  0
  1 49  1  0
  2  5  1  0
  2  1  1  0
  2  4  1  0
  3  2  1  0
  5  6  1  0
  7  6  1  0
  7  8  1  0
  9  8  1  0
 10 15  1  0
 11 12  1  0
 11 10  1  0
 13 12  1  0
 13 20  1  0
 13 14  1  0
 15  9  1  0
 15 14  1  0
 16  9  2  0
 17 18  2  0
 18 37  1  0
 19 18  1  0
 19 22  1  0
 20 17  1  0
 20 21  1  0
 21 19  2  0
 22 23  1  0
 23 24  2  0
 25 28  1  0
 25 24  1  0
 26 25  2  0
 27 26  1  0
 27 22  2  0
 28 29  1  0
 29 30  1  0
 30 31  2  0
 32 31  1  0
 32 36  1  0
 33 32  2  0
 34 29  2  0
 34 33  1  0
 35 34  1  0
 37 38  1  0
 38 41  1  0
 38 40  1  0
 39 37  2  0
 42 43  1  0
 42 17  1  0
 44 42  1  0
 45  1  1  0
 46 45  1  0
 47 46  1  0
 48 46  2  0
 49 50  2  0
 51 50  1  0
 52 63  2  0
 53 51  1  0
 53 58  1  0
 54 62  1  0
 54 64  1  0
 55 61  1  0
 55 57  1  0
 56 62  1  0
 57 58  2  0
 57 56  1  0
 59 53  2  0
 60 59  1  0
 60 55  2  0
 61 54  1  0
 62 52  1  0
 64 66  2  0
 65 64  1  0
 67 65  1  0
 68 77  2  0
 68 73  1  0
 69 65  1  0
 69 73  1  0
 70 69  1  0
 71 72  1  0
 71 70  1  0
 72 68  1  0
 73 74  2  0
 74 75  1  0
 76 75  2  0
 77 76  1  0
 78 52  1  0
 78 83  1  0
 78 79  1  0
 79 82  1  1
 79 80  1  0
 81 79  1  0
 83 86  1  0
 84 88  1  0
 84 83  1  0
 85 84  2  0
 88 87  1  0
 90 91  1  0
 90 88  1  0
 90 89  1  0
M  ISO  4   8 100   9 100  50 101  51 101
M  END
>  <TORSDO>  (18) 
F 25

>  <SCORE>  (18) 
-12.174

>  <name>  (18) 
17

>  <ligand_id>  (18) 
17

>  <original_smiles>  (18) 
[H]c1c([H])c([H])c2c(c1[H])C([H])([H])C([H])([H])C([H])([H])C2([H])N([H])C(=O)C1([H])N(C(=O)C([H])(N([H])C(=O)C([H])(N([H])C([H])([H])[H])C([H])([H])[H])C(C([H])([H])[H])(C([H])([H])[H])C([H])([H])[H])C([H])([H])c2c([H])c(OC([H])([H])C([H])([H])C([H])(C([H])([H])C(=O)C([H])([H])[H])[N+]([H])([H])C([H])([H])C([H])([H])C([H])([H])C([H])([H])C(=O)N3C([H])([H])C([H])([H])C([H])([H])C([H])(n4nc(-c5c([H])c([H])c(Oc6c([H])c([H])c(F)c([H])c6F)c([H])c5[H])c(C(=O)N([H])[H])c4N([H])[H])C3([H])[H])c([H])c([H])c2C1([H])[H]

>  <smiles>  (18) 
[H]c1c([H])c([H])c2c(c1[H])C([H])([H])C([H])([H])C([H])([H])C2([H])N([H])C(=O)C1([H])N(C(=O)C([H])(N([H])C(=O)C([H])(N([H])C([H])([H])[H])C([H])([H])[H])C(C([H])([H])[H])(C([H])([H])[H])C([H])([H])[H])C([H])([H])c2c([H])c(OC([H])([H])C([H])([H])C([H])(C([H])([H])C(=O)C([H])([H])[H])[N+]([H])([H])C([H])([H])C([H])([H])C([H])([H])C([H])([H])C(=O)N3C([H])([H])C([H])([H])C([H])([H])C([H])(n4nc(-c5c([H])c([H])c(Oc6c([H])c([H])c(F)c([H])c6F)c([H])c5[H])c(C(=O)N([H])[H])c4N([H])[H])C3([H])[H])c([H])c([H])c2C1([H])[H]

$$$$
18:0:0
     RDKit          3D

 93100  0  0  1  0  0  0  0  0999 V2000
  -33.3160  -23.9350   23.9470 C   0  0  0  0  0  2  0  0  0  0  0  0
  -32.6430  -25.3220   23.9890 C   0  0  0  0  0  2  0  0  0  0  0  0
  -31.8590  -25.7020   22.7220 C   0  0  0  0  0  2  0  0  0  0  0  0
  -30.5470  -24.9220   22.5450 C   0  0  0  0  0  2  0  0  0  0  0  0
  -29.7910  -25.2620   21.2510 C   0  0  0  0  0  2  0  0  0  0  0  0
  -29.1790  -26.6690   21.2120 C   0  0  0  0  0  2  0  0  0  0  0  0
  -28.3870  -26.7300   20.0310 O   0  0  0  0  0  0  0  0  0  0  0  0
  -24.6030  -31.8740   23.2160 C   0  0  0  0  0  0  0  0  0  0  0  0
  -27.2450  -27.4880   20.0940 C   0  0  0  0  0  0  0  0  0  0  0  0
  -23.3900  -30.4970   21.5510 C   0  0  0  0  0  3  0  0  0  0  0  0
  -24.8440  -28.9650   20.1220 C   0  0  0  0  0  0  0  0  0  0  0  0
  -25.9150  -30.8530   21.3680 C   0  0  0  0  0  2  0  0  0  0  0  0
  -25.9960  -29.4880   20.7230 C   0  0  0  0  0  0  0  0  0  0  0  0
  -27.1970  -28.7520   20.7240 C   0  0  0  0  0  3  0  0  0  0  0  0
  -26.0840  -26.9750   19.4830 C   0  0  0  0  0  3  0  0  0  0  0  0
  -24.8780  -27.7020   19.5030 C   0  0  0  0  0  3  0  0  0  0  0  0
  -23.6050  -29.8300   20.1640 C   0  0  0  0  0  2  0  0  0  0  0  0
  -24.6520  -31.0900   22.1020 N   0  0  0  0  0  0  0  0  0  0  0  0
  -23.5240  -32.1470   23.7570 O   0  0  0  0  0  0  0  0  0  0  0  0
  -22.7360  -29.4680   22.5000 C   0  0  0  0  0  0  0  0  0  0  0  0
  -21.4090  -29.3030   22.3750 N   0  0  0  0  0  0  0  0  0  0  0  0
  -23.4150  -28.8230   23.3020 O   0  0  0  0  0  0  0  0  0  0  0  0
  -20.9240  -29.8790   21.7010 H   0  0  0  0  0  0  0  0  0  0  0  0
  -18.0260  -28.1380   22.8510 C   0  0  0  0  0  0  0  0  0  0  0  0
  -20.5830  -28.3680   23.1350 C   0  0  0  0  0  3  0  0  0  0  0  0
  -20.6750  -26.9420   22.5460 C   0  0  0  0  0  2  0  0  0  0  0  0
  -19.5750  -26.6390   21.5240 C   0  0  0  0  0  2  0  0  0  0  0  0
  -18.1920  -26.7930   22.1640 C   0  0  0  0  0  2  0  0  0  0  0  0
  -19.1500  -28.8840   23.2910 C   0  0  0  0  0  0  0  0  0  0  0  0
  -18.9460  -30.1450   23.8930 C   0  0  0  0  0  3  0  0  0  0  0  0
  -17.6460  -30.6600   24.0570 C   0  0  0  0  0  3  0  0  0  0  0  0
  -16.5340  -29.9120   23.6320 C   0  0  0  0  0  3  0  0  0  0  0  0
  -16.7240  -28.6530   23.0360 C   0  0  0  0  0  3  0  0  0  0  0  0
  -25.8960  -32.4850   23.8430 C   0  0  0  0  0  3  0  0  0  0  0  0
  -26.4450  -31.6570   25.0710 C   0  0  1  0  0  0  0  0  0  0  0  0
  -25.3770  -31.3610   26.1470 C   0  0  0  0  0  1  0  0  0  0  0  0
  -27.0300  -30.3030   24.6050 C   0  0  0  0  0  1  0  0  0  0  0  0
  -27.6050  -32.4250   25.7480 C   0  0  0  0  0  1  0  0  0  0  0  0
  -25.5860  -33.8650   24.2370 N   0  0  0  0  0  0  0  0  0  0  0  0
  -25.9030  -34.9490   23.5160 C   0  0  0  0  0  0  0  0  0  0  0  0
  -26.5590  -34.8930   22.4720 O   0  0  0  0  0  0  0  0  0  0  0  0
  -25.0020  -33.9820   25.0510 H   0  0  0  0  0  0  0  0  0  0  0  0
  -24.1480  -36.7300   23.2650 C   0  0  0  0  0  1  0  0  0  0  0  0
  -25.4100  -36.3120   24.0360 C   0  0  0  0  0  3  0  0  0  0  0  0
  -27.5590  -37.1790   24.8470 C   0  0  0  0  0  1  0  0  0  0  0  0
  -26.4270  -37.3800   23.9450 N   0  0  0  0  0  0  0  0  0  0  0  0
  -26.0170  -38.2870   24.1520 H   0  0  0  0  0  0  0  0  0  0  0  0
  -34.2970  -23.7480   25.1230 C   0  0  0  0  0  2  0  0  0  0  0  0
  -34.9610  -22.3600   25.2340 C   0  0  0  0  0  2  0  0  0  0  0  0
  -33.9900  -21.1770   25.4550 C   0  0  0  0  0  2  0  0  0  0  0  0
  -33.7170  -20.3530   24.1800 C   0  0  0  0  0  2  0  0  0  0  0  0
  -32.6660  -19.2390   24.3730 C   0  0  0  0  0  2  0  0  0  0  0  0
  -32.5370  -18.3320   23.1300 C   0  0  0  0  0  2  0  0  0  0  0  0
  -31.5410  -17.1480   23.2530 C   0  0  0  0  0  2  0  0  0  0  0  0
  -31.6190  -16.2550   21.9850 C   0  0  0  0  0  2  0  0  0  0  0  0
  -30.8880  -14.3210   20.7180 C   0  0  0  0  0  0  0  0  0  0  0  0
  -30.4030  -12.2780   19.4280 C   0  0  0  0  0  2  0  0  0  0  0  0
  -29.4890  -12.5220   18.2140 C   0  0  0  0  0  2  0  0  0  0  0  0
  -28.0180  -12.3690   18.6260 C   0  0  0  0  0  2  0  0  0  0  0  0
  -27.6720  -13.2160   19.8760 C   0  0  0  0  0  3  0  0  0  0  0  0
  -28.7090  -13.0300   21.0110 C   0  0  0  0  0  2  0  0  0  0  0  0
  -30.0770  -13.2410   20.4980 N   0  0  0  0  0  0  0  0  0  0  0  0
  -31.7310  -14.6580   19.8790 O   0  0  0  0  0  0  0  0  0  0  0  0
  -30.6160  -14.2810   23.1870 C   0  0  0  0  0  1  0  0  0  0  0  0
  -30.8440  -14.9830   21.9140 N   0  0  0  0  0  0  0  0  0  0  0  0
  -25.2630  -13.8190   20.5690 C   0  0  0  0  0  0  0  0  0  0  0  0
  -24.1870  -13.0450   20.9170 C   0  0  0  0  0  0  0  0  0  0  0  0
  -24.6440  -11.6930   20.8730 C   0  0  0  0  0  0  0  0  0  0  0  0
  -26.3090  -12.9390   20.3400 N   0  0  0  0  0  0  0  0  0  0  0  0
  -25.9380  -11.6540   20.5770 N   0  0  0  0  0  0  0  0  0  0  0  0
  -23.9090  -10.4300   21.0390 C   0  0  0  0  0  0  0  0  0  0  0  0
  -24.3630   -9.4220   21.9170 C   0  0  0  0  0  3  0  0  0  0  0  0
  -23.6300   -8.2260   22.0750 C   0  0  0  0  0  3  0  0  0  0  0  0
  -22.4280   -8.0290   21.3550 C   0  0  0  0  0  0  0  0  0  0  0  0
  -21.9920   -9.0270   20.4660 C   0  0  0  0  0  3  0  0  0  0  0  0
  -22.7250  -10.2150   20.3060 C   0  0  0  0  0  3  0  0  0  0  0  0
  -21.6650   -6.8890   21.4240 O   0  0  0  0  0  0  0  0  0  0  0  0
  -21.6860   -6.0740   22.5280 C   0  0  0  0  0  0  0  0  0  0  0  0
  -21.4020   -6.5640   23.8210 C   0  0  0  0  0  3  0  0  0  0  0  0
  -21.3660   -5.6800   24.9170 C   0  0  0  0  0  3  0  0  0  0  0  0
  -21.6040   -4.3060   24.7230 C   0  0  0  0  0  0  0  0  0  0  0  0
  -21.8820   -3.8150   23.4350 C   0  0  0  0  0  3  0  0  0  0  0  0
  -21.9190   -4.6970   22.3400 C   0  0  0  0  0  0  0  0  0  0  0  0
  -22.1660   -4.2160   21.0980 F   0  0  0  0  0  0  0  0  0  0  0  0
  -21.5630   -3.4540   25.7730 F   0  0  0  0  0  0  0  0  0  0  0  0
  -22.7880  -13.5240   21.1820 C   0  0  0  0  0  0  0  0  0  0  0  0
  -22.0530  -12.8250   22.0390 N   0  0  0  0  0  0  0  0  0  0  0  0
  -22.3570  -14.5550   20.6670 O   0  0  0  0  0  0  0  0  0  0  0  0
  -22.4140  -11.9920   22.4810 H   0  0  0  0  0  0  0  0  0  0  0  0
  -21.1150  -13.1290   22.2590 H   0  0  0  0  0  0  0  0  0  0  0  0
  -25.4330  -15.1910   20.4110 N   0  0  0  0  0  0  0  0  0  0  0  0
  -24.6680  -15.8480   20.5280 H   0  0  0  0  0  0  0  0  0  0  0  0
  -26.2960  -15.6350   20.1200 H   0  0  0  0  0  0  0  0  0  0  0  0
  1  2  1  0
  1 48  1  0
  3  2  1  0
  4  3  1  0
  5  4  1  0
  6  5  1  0
  7  9  1  0
  7  6  1  0
  8 19  2  0
  9 14  1  0
 10 18  1  0
 10 20  1  0
 11 17  1  0
 11 13  1  0
 12 18  1  0
 13 14  2  0
 13 12  1  0
 15 16  1  0
 15  9  2  0
 16 11  2  0
 17 10  1  0
 18  8  1  0
 20 22  2  0
 21 20  1  0
 23 21  1  0
 24 33  2  0
 24 29  1  0
 25 21  1  0
 25 29  1  0
 26 25  1  0
 27 28  1  0
 27 26  1  0
 28 24  1  0
 29 30  2  0
 30 31  1  0
 32 31  2  0
 33 32  1  0
 34  8  1  0
 34 39  1  0
 34 35  1  0
 35 38  1  1
 35 36  1  0
 37 35  1  0
 39 42  1  0
 40 44  1  0
 40 39  1  0
 41 40  2  0
 44 43  1  0
 46 44  1  0
 46 47  1  0
 46 45  1  0
 48 49  1  0
 49 50  1  0
 51 52  1  0
 51 50  1  0
 53 54  1  0
 53 52  1  0
 55 54  1  0
 56 65  1  0
 57 62  1  0
 58 59  1  0
 58 57  1  0
 60 59  1  0
 60 69  1  0
 60 61  1  0
 62 56  1  0
 62 61  1  0
 63 56  2  0
 65 55  1  0
 65 64  1  0
 66 67  2  0
 67 86  1  0
 68 67  1  0
 68 71  1  0
 69 66  1  0
 69 70  1  0
 70 68  2  0
 71 72  1  0
 72 73  2  0
 74 77  1  0
 74 73  1  0
 75 74  2  0
 76 75  1  0
 76 71  2  0
 77 78  1  0
 78 79  1  0
 79 80  2  0
 81 80  1  0
 81 85  1  0
 82 81  2  0
 83 78  2  0
 83 82  1  0
 84 83  1  0
 86 87  1  0
 87 90  1  0
 87 89  1  0
 88 86  2  0
 91 92  1  0
 91 66  1  0
 93 91  1  0
M  ISO  4   6 101   7 101  56 100  65 100
M  END
>  <TORSDO>  (19) 
F 29

>  <SCORE>  (19) 
31.549

>  <name>  (19) 
18

>  <ligand_id>  (19) 
18

>  <original_smiles>  (19) 
[H]c1c([H])c([H])c2c(c1[H])C([H])([H])C([H])([H])C([H])([H])C2([H])N([H])C(=O)C1([H])N(C(=O)C([H])(N([H])C(=O)C([H])(N([H])C([H])([H])[H])C([H])([H])[H])C(C([H])([H])[H])(C([H])([H])[H])C([H])([H])[H])C([H])([H])c2c([H])c(OC([H])([H])C([H])([H])C([H])([H])C([H])([H])C([H])([H])C([H])([H])C([H])([H])C([H])([H])C([H])([H])C([H])([H])C([H])([H])C([H])([H])C([H])([H])C([H])([H])N(C(=O)N3C([H])([H])C([H])([H])C([H])([H])C([H])(n4nc(-c5c([H])c([H])c(Oc6c([H])c([H])c(F)c([H])c6F)c([H])c5[H])c(C(=O)N([H])[H])c4N([H])[H])C3([H])[H])C([H])([H])[H])c([H])c([H])c2C1([H])[H]

>  <smiles>  (19) 
[H]c1c([H])c([H])c2c(c1[H])C([H])([H])C([H])([H])C([H])([H])C2([H])N([H])C(=O)C1([H])N(C(=O)C([H])(N([H])C(=O)C([H])(N([H])C([H])([H])[H])C([H])([H])[H])C(C([H])([H])[H])(C([H])([H])[H])C([H])([H])[H])C([H])([H])c2c([H])c(OC([H])([H])C([H])([H])C([H])([H])C([H])([H])C([H])([H])C([H])([H])C([H])([H])C([H])([H])C([H])([H])C([H])([H])C([H])([H])C([H])([H])C([H])([H])C([H])([H])N(C(=O)N3C([H])([H])C([H])([H])C([H])([H])C([H])(n4nc(-c5c([H])c([H])c(Oc6c([H])c([H])c(F)c([H])c6F)c([H])c5[H])c(C(=O)N([H])[H])c4N([H])[H])C3([H])[H])C([H])([H])[H])c([H])c([H])c2C1([H])[H]

$$$$
19:0:0
     RDKit          3D

 97105  0  0  1  0  0  0  0  0999 V2000
  -27.5820  -22.5660   21.6960 C   0  0  0  0  0  3  0  0  0  0  0  0
  -28.7270  -23.2050   22.2040 C   0  0  0  0  0  3  0  0  0  0  0  0
  -26.3650  -24.6700   21.7870 C   0  0  0  0  0  3  0  0  0  0  0  0
  -26.3940  -23.2940   21.4580 C   0  0  0  0  0  0  0  0  0  0  0  0
  -28.7110  -24.5820   22.5030 C   0  0  0  0  0  0  0  0  0  0  0  0
  -27.5120  -25.3160   22.3080 C   0  0  0  0  0  0  0  0  0  0  0  0
  -27.4460  -26.6780   22.6090 N   0  0  0  0  0  0  0  0  0  0  0  0
  -26.5950  -27.2120   22.4750 H   0  0  0  0  0  0  0  0  0  0  0  0
  -28.2740  -27.2410   22.7740 H   0  0  0  0  0  0  0  0  0  0  0  0
  -25.1820  -22.6280   20.8920 C   0  0  0  0  0  0  0  0  0  0  0  0
  -24.0330  -22.9220   21.2380 O   0  0  0  0  0  0  0  0  0  0  0  0
  -25.3810  -21.5440   19.8170 C   0  0  0  0  0  2  0  0  0  0  0  0
  -26.8590  -21.1800   19.5520 C   0  0  0  0  0  2  0  0  0  0  0  0
  -27.2450  -19.7540   20.0030 C   0  0  0  0  0  2  0  0  0  0  0  0
  -28.6020  -19.3220   19.4170 C   0  0  0  0  0  2  0  0  0  0  0  0
  -29.3190  -18.1650   20.1580 C   0  0  0  0  0  2  0  0  0  0  0  0
  -30.2940  -17.3820   19.2390 C   0  0  0  0  0  2  0  0  0  0  0  0
  -31.4370  -16.5520   19.8670 C   0  0  0  0  0  0  0  0  0  0  0  0
  -32.0430  -14.2510   20.4870 C   0  0  0  0  0  2  0  0  0  0  0  0
  -31.4520  -13.3150   19.4080 C   0  0  0  0  0  2  0  0  0  0  0  0
  -29.9840  -12.9400   19.7250 C   0  0  0  0  0  2  0  0  0  0  0  0
  -29.1100  -14.1730   20.0790 C   0  0  0  0  0  3  0  0  0  0  0  0
  -29.8530  -15.0420   21.1160 C   0  0  0  0  0  2  0  0  0  0  0  0
  -31.1580  -15.4200   20.5640 N   0  0  0  0  0  0  0  0  0  0  0  0
  -32.5840  -16.8210   19.4940 O   0  0  0  0  0  0  0  0  0  0  0  0
  -26.6740  -14.5810   20.8150 C   0  0  0  0  0  0  0  0  0  0  0  0
  -25.6700  -13.7320   21.1810 C   0  0  0  0  0  0  0  0  0  0  0  0
  -26.2180  -12.4160   21.0880 C   0  0  0  0  0  0  0  0  0  0  0  0
  -27.7800  -13.7860   20.5520 N   0  0  0  0  0  0  0  0  0  0  0  0
  -27.5070  -12.4740   20.7700 N   0  0  0  0  0  0  0  0  0  0  0  0
  -25.5720  -11.1070   21.2200 C   0  0  0  0  0  0  0  0  0  0  0  0
  -25.4550  -10.4620   22.4700 C   0  0  0  0  0  3  0  0  0  0  0  0
  -24.8100   -9.2110   22.5710 C   0  0  0  0  0  3  0  0  0  0  0  0
  -24.2750   -8.5910   21.4160 C   0  0  0  0  0  0  0  0  0  0  0  0
  -24.4190   -9.2270   20.1690 C   0  0  0  0  0  3  0  0  0  0  0  0
  -25.0650  -10.4690   20.0700 C   0  0  0  0  0  3  0  0  0  0  0  0
  -23.6620   -7.3630   21.4150 O   0  0  0  0  0  0  0  0  0  0  0  0
  -22.5780   -7.1020   22.2170 C   0  0  0  0  0  0  0  0  0  0  0  0
  -21.3540   -7.7810   22.0500 C   0  0  0  0  0  3  0  0  0  0  0  0
  -20.2420   -7.4360   22.8490 C   0  0  0  0  0  3  0  0  0  0  0  0
  -20.3560   -6.4090   23.8050 C   0  0  0  0  0  0  0  0  0  0  0  0
  -21.5740   -5.7290   23.9690 C   0  0  0  0  0  3  0  0  0  0  0  0
  -22.6840   -6.0740   23.1730 C   0  0  0  0  0  0  0  0  0  0  0  0
  -23.8500   -5.4030   23.3190 F   0  0  0  0  0  0  0  0  0  0  0  0
  -19.2890   -6.0690   24.5680 F   0  0  0  0  0  0  0  0  0  0  0  0
  -24.2500  -14.1100   21.4900 C   0  0  0  0  0  0  0  0  0  0  0  0
  -23.6060  -13.3960   22.4030 N   0  0  0  0  0  0  0  0  0  0  0  0
  -23.7220  -15.0870   20.9570 O   0  0  0  0  0  0  0  0  0  0  0  0
  -24.0410  -12.6090   22.8640 H   0  0  0  0  0  0  0  0  0  0  0  0
  -22.6600  -13.6460   22.6540 H   0  0  0  0  0  0  0  0  0  0  0  0
  -26.7210  -15.9590   20.6480 N   0  0  0  0  0  0  0  0  0  0  0  0
  -25.8560  -16.4890   20.6620 H   0  0  0  0  0  0  0  0  0  0  0  0
  -27.4780  -16.4250   20.1670 H   0  0  0  0  0  0  0  0  0  0  0  0
  -30.0020  -25.2150   23.0280 C   0  0  0  0  0  2  0  0  0  0  0  0
  -29.8500  -25.7950   24.4590 C   0  0  0  0  0  2  0  0  0  0  0  0
  -30.9800  -26.7370   24.9630 C   0  0  0  0  0  2  0  0  0  0  0  0
  -31.4940  -27.6690   24.0110 O   0  0  0  0  0  0  0  0  0  0  0  0
  -25.6000  -31.4790   22.7210 C   0  0  0  0  0  0  0  0  0  0  0  0
  -30.5660  -28.1310   23.1180 C   0  0  0  0  0  0  0  0  0  0  0  0
  -26.3190  -29.9200   20.9420 C   0  0  0  0  0  3  0  0  0  0  0  0
  -28.6540  -28.9270   21.2140 C   0  0  0  0  0  0  0  0  0  0  0  0
  -28.0340  -30.9610   22.5380 C   0  0  0  0  0  2  0  0  0  0  0  0
  -28.8720  -29.7120   22.3550 C   0  0  0  0  0  0  0  0  0  0  0  0
  -29.8340  -29.3250   23.3130 C   0  0  0  0  0  3  0  0  0  0  0  0
  -30.3450  -27.3600   21.9670 C   0  0  0  0  0  3  0  0  0  0  0  0
  -29.3880  -27.7430   21.0130 C   0  0  0  0  0  3  0  0  0  0  0  0
  -27.6100  -29.4190   20.2400 C   0  0  0  0  0  2  0  0  0  0  0  0
  -26.6200  -30.8020   22.1180 N   0  0  0  0  0  0  0  0  0  0  0  0
  -24.4450  -31.4210   22.2800 O   0  0  0  0  0  0  0  0  0  0  0  0
  -25.4410  -28.7030   21.2960 C   0  0  0  0  0  0  0  0  0  0  0  0
  -24.7390  -28.1510   20.2940 N   0  0  0  0  0  0  0  0  0  0  0  0
  -25.4170  -28.2650   22.4490 O   0  0  0  0  0  0  0  0  0  0  0  0
  -24.7780  -28.5960   19.3890 H   0  0  0  0  0  0  0  0  0  0  0  0
  -22.4230  -26.0830   18.4520 C   0  0  0  0  0  0  0  0  0  0  0  0
  -23.8800  -26.9700   20.3890 C   0  0  0  0  0  3  0  0  0  0  0  0
  -24.6920  -25.6670   20.2360 C   0  0  0  0  0  2  0  0  0  0  0  0
  -24.7470  -25.1580   18.7890 C   0  0  0  0  0  2  0  0  0  0  0  0
  -23.3390  -24.8860   18.2660 C   0  0  0  0  0  2  0  0  0  0  0  0
  -22.6840  -27.0700   19.4390 C   0  0  0  0  0  0  0  0  0  0  0  0
  -21.8150  -28.1780   19.5410 C   0  0  0  0  0  3  0  0  0  0  0  0
  -20.7150  -28.3180   18.6760 C   0  0  0  0  0  3  0  0  0  0  0  0
  -20.4560  -27.3280   17.7110 C   0  0  0  0  0  3  0  0  0  0  0  0
  -21.3010  -26.2080   17.6090 C   0  0  0  0  0  3  0  0  0  0  0  0
  -25.8420  -32.3890   23.9690 C   0  0  0  0  0  3  0  0  0  0  0  0
  -25.3170  -33.7240   23.6520 N   0  0  0  0  0  0  0  0  0  0  0  0
  -26.0630  -34.7490   23.2230 C   0  0  0  0  0  0  0  0  0  0  0  0
  -27.2900  -34.6880   23.1150 O   0  0  0  0  0  0  0  0  0  0  0  0
  -24.3140  -33.8390   23.6760 H   0  0  0  0  0  0  0  0  0  0  0  0
  -25.1780  -36.1470   21.3260 C   0  0  0  0  0  1  0  0  0  0  0  0
  -25.3270  -36.0520   22.8540 C   0  0  0  0  0  3  0  0  0  0  0  0
  -25.9430  -37.4020   24.8110 C   0  0  0  0  0  1  0  0  0  0  0  0
  -25.9960  -37.2690   23.3590 N   0  0  0  0  0  0  0  0  0  0  0  0
  -25.5830  -38.1010   22.9460 H   0  0  0  0  0  0  0  0  0  0  0  0
  -25.1860  -31.8290   25.2930 C   0  0  1  0  0  0  0  0  0  0  0  0
  -23.7060  -31.4190   25.1280 C   0  0  0  0  0  1  0  0  0  0  0  0
  -25.9680  -30.6020   25.8170 C   0  0  0  0  0  1  0  0  0  0  0  0
  -25.2550  -32.8960   26.4110 C   0  0  0  0  0  1  0  0  0  0  0  0
  1  2  1  0
  2  5  2  0
  3  6  2  0
  4  1  2  0
  4  3  1  0
  5 54  1  0
  6  5  1  0
  6  7  1  0
  7  9  1  0
  8  7  1  0
 10 11  2  0
 10  4  1  0
 12 10  1  0
 13 12  1  0
 13 14  1  0
 15 14  1  0
 15 16  1  0
 17 18  1  0
 17 16  1  0
 18 24  1  0
 19 24  1  0
 20 21  1  0
 20 19  1  0
 22 21  1  0
 22 29  1  0
 22 23  1  0
 24 23  1  0
 25 18  2  0
 26 27  2  0
 27 46  1  0
 28 27  1  0
 28 31  1  0
 29 30  1  0
 29 26  1  0
 30 28  2  0
 31 32  1  0
 32 33  2  0
 34 33  1  0
 35 34  2  0
 36 35  1  0
 36 31  2  0
 37 34  1  0
 37 38  1  0
 38 43  1  0
 39 38  2  0
 39 40  1  0
 40 41  2  0
 41 42  1  0
 41 45  1  0
 43 44  1  0
 43 42  2  0
 46 47  1  0
 47 50  1  0
 47 49  1  0
 48 46  2  0
 51 52  1  0
 51 26  1  0
 53 51  1  0
 54 55  1  0
 55 56  1  0
 57 56  1  0
 59 64  1  0
 59 57  1  0
 60 70  1  0
 60 68  1  0
 61 63  1  0
 63 62  1  0
 63 64  2  0
 65 59  2  0
 66 61  2  0
 66 65  1  0
 67 60  1  0
 67 61  1  0
 68 62  1  0
 68 58  1  0
 69 58  2  0
 70 72  2  0
 71 70  1  0
 73 71  1  0
 74 79  1  0
 75 71  1  0
 76 75  1  0
 77 76  1  0
 78 74  1  0
 78 77  1  0
 79 80  2  0
 79 75  1  0
 81 80  1  0
 82 81  2  0
 83 82  1  0
 83 74  2  0
 84 58  1  0
 84 94  1  0
 85 88  1  0
 85 84  1  0
 86 85  1  0
 87 86  2  0
 90 89  1  0
 90 86  1  0
 90 92  1  0
 92 91  1  0
 93 92  1  0
 94 96  1  1
 94 97  1  0
 95 94  1  0
M  ISO  4  17 100  18 100  56 101  57 101
M  END
>  <TORSDO>  (20) 
F 27

>  <SCORE>  (20) 
4.417

>  <name>  (20) 
19

>  <ligand_id>  (20) 
19

>  <original_smiles>  (20) 
[H]c1c([H])c([H])c2c(c1[H])C([H])([H])C([H])([H])C([H])([H])C2([H])N([H])C(=O)C1([H])N(C(=O)C([H])(N([H])C(=O)C([H])(N([H])C([H])([H])[H])C([H])([H])[H])C(C([H])([H])[H])(C([H])([H])[H])C([H])([H])[H])C([H])([H])c2c([H])c(OC([H])([H])C([H])([H])C([H])([H])c3c([H])c([H])c(C(=O)C([H])([H])C([H])([H])C([H])([H])C([H])([H])C([H])([H])C([H])([H])C(=O)N4C([H])([H])C([H])([H])C([H])([H])C([H])(n5nc(-c6c([H])c([H])c(Oc7c([H])c([H])c(F)c([H])c7F)c([H])c6[H])c(C(=O)N([H])[H])c5N([H])[H])C4([H])[H])c([H])c3N([H])[H])c([H])c([H])c2C1([H])[H]

>  <smiles>  (20) 
[H]c1c([H])c([H])c2c(c1[H])C([H])([H])C([H])([H])C([H])([H])C2([H])N([H])C(=O)C1([H])N(C(=O)C([H])(N([H])C(=O)C([H])(N([H])C([H])([H])[H])C([H])([H])[H])C(C([H])([H])[H])(C([H])([H])[H])C([H])([H])[H])C([H])([H])c2c([H])c(OC([H])([H])C([H])([H])C([H])([H])c3c([H])c([H])c(C(=O)C([H])([H])C([H])([H])C([H])([H])C([H])([H])C([H])([H])C([H])([H])C(=O)N4C([H])([H])C([H])([H])C([H])([H])C([H])(n5nc(-c6c([H])c([H])c(Oc7c([H])c([H])c(F)c([H])c7F)c([H])c6[H])c(C(=O)N([H])[H])c5N([H])[H])C4([H])[H])c([H])c3N([H])[H])c([H])c([H])c2C1([H])[H]

$$$$
20:0:0
     RDKit          3D

 97106  0  0  1  0  0  0  0  0999 V2000
  -29.0360  -21.1150   26.8630 C   0  0  0  0  0  3  0  0  0  0  0  0
  -30.1340  -20.2340   26.8980 C   0  0  0  0  0  3  0  0  0  0  0  0
  -28.8110  -21.9220   25.7300 C   0  0  0  0  0  3  0  0  0  0  0  0
  -30.7870  -20.9730   24.6670 C   0  0  0  0  0  3  0  0  0  0  0  0
  -31.0030  -20.1490   25.7910 C   0  0  0  0  0  0  0  0  0  0  0  0
  -29.6880  -21.8570   24.6250 C   0  0  0  0  0  0  0  0  0  0  0  0
  -29.6660  -24.2120   23.6540 C   0  0  0  0  0  2  0  0  0  0  0  0
  -28.0870  -22.5150   22.7440 C   0  0  0  0  0  2  0  0  0  0  0  0
  -29.6060  -25.0230   22.3400 C   0  0  0  0  0  2  0  0  0  0  0  0
  -27.9900  -23.2590   21.3990 C   0  0  0  0  0  2  0  0  0  0  0  0
  -29.4670  -22.7170   23.3860 C   0  0  0  0  0  3  0  0  0  0  0  0
  -28.3400  -24.7630   21.4850 C   0  0  0  0  0  3  0  0  0  0  0  0
  -28.5020  -25.3720   20.0660 C   0  0  0  0  0  2  0  0  0  0  0  0
  -28.4520  -26.7980   20.0940 O   0  0  0  0  0  0  0  0  0  0  0  0
  -24.6080  -31.8660   23.2120 C   0  0  0  0  0  0  0  0  0  0  0  0
  -27.2360  -27.4490   20.1080 C   0  0  0  0  0  0  0  0  0  0  0  0
  -23.3940  -30.4860   21.5560 C   0  0  0  0  0  3  0  0  0  0  0  0
  -24.8370  -28.9540   20.1260 C   0  0  0  0  0  0  0  0  0  0  0  0
  -25.9240  -30.8360   21.3660 C   0  0  0  0  0  2  0  0  0  0  0  0
  -25.9980  -29.4770   20.7050 C   0  0  0  0  0  0  0  0  0  0  0  0
  -27.2000  -28.7400   20.6760 C   0  0  0  0  0  3  0  0  0  0  0  0
  -26.0430  -26.9160   19.5610 C   0  0  0  0  0  3  0  0  0  0  0  0
  -24.8530  -27.6690   19.5550 C   0  0  0  0  0  3  0  0  0  0  0  0
  -23.5980  -29.8200   20.1700 C   0  0  0  0  0  2  0  0  0  0  0  0
  -24.6600  -31.0800   22.1010 N   0  0  0  0  0  0  0  0  0  0  0  0
  -23.5290  -32.1370   23.7540 O   0  0  0  0  0  0  0  0  0  0  0  0
  -22.7400  -29.4560   22.5050 C   0  0  0  0  0  0  0  0  0  0  0  0
  -21.4130  -29.2870   22.3770 N   0  0  0  0  0  0  0  0  0  0  0  0
  -23.4180  -28.8150   23.3120 O   0  0  0  0  0  0  0  0  0  0  0  0
  -20.9210  -29.8540   21.6980 H   0  0  0  0  0  0  0  0  0  0  0  0
  -18.0280  -28.1290   22.8550 C   0  0  0  0  0  0  0  0  0  0  0  0
  -20.5870  -28.3520   23.1390 C   0  0  0  0  0  3  0  0  0  0  0  0
  -20.6760  -26.9270   22.5430 C   0  0  0  0  0  2  0  0  0  0  0  0
  -19.5740  -26.6340   21.5210 C   0  0  0  0  0  2  0  0  0  0  0  0
  -18.1920  -26.7860   22.1620 C   0  0  0  0  0  2  0  0  0  0  0  0
  -19.1530  -28.8750   23.2950 C   0  0  0  0  0  0  0  0  0  0  0  0
  -18.9450  -30.1370   23.8910 C   0  0  0  0  0  3  0  0  0  0  0  0
  -17.6460  -30.6530   24.0520 C   0  0  0  0  0  3  0  0  0  0  0  0
  -16.5350  -29.9010   23.6340 C   0  0  0  0  0  3  0  0  0  0  0  0
  -16.7270  -28.6400   23.0460 C   0  0  0  0  0  3  0  0  0  0  0  0
  -25.8970  -32.4790   23.8440 C   0  0  0  0  0  3  0  0  0  0  0  0
  -25.5870  -33.8610   24.2360 N   0  0  0  0  0  0  0  0  0  0  0  0
  -25.9060  -34.9490   23.5200 C   0  0  0  0  0  0  0  0  0  0  0  0
  -26.5620  -34.8920   22.4750 O   0  0  0  0  0  0  0  0  0  0  0  0
  -25.0100  -33.9830   25.0540 H   0  0  0  0  0  0  0  0  0  0  0  0
  -24.1480  -36.7300   23.2640 C   0  0  0  0  0  1  0  0  0  0  0  0
  -25.4100  -36.3130   24.0380 C   0  0  0  0  0  3  0  0  0  0  0  0
  -27.5610  -37.1750   24.8470 C   0  0  0  0  0  1  0  0  0  0  0  0
  -26.4300  -37.3810   23.9480 N   0  0  0  0  0  0  0  0  0  0  0  0
  -26.0230  -38.2910   24.1530 H   0  0  0  0  0  0  0  0  0  0  0  0
  -26.4460  -31.6590   25.0760 C   0  0  1  0  0  0  0  0  0  0  0  0
  -25.3750  -31.3630   26.1540 C   0  0  0  0  0  1  0  0  0  0  0  0
  -27.0330  -30.3050   24.6110 C   0  0  0  0  0  1  0  0  0  0  0  0
  -27.6050  -32.4340   25.7490 C   0  0  0  0  0  1  0  0  0  0  0  0
  -32.1780  -19.2510   25.8130 C   0  0  0  0  0  0  0  0  0  0  0  0
  -33.3170  -19.6210   25.5160 O   0  0  0  0  0  0  0  0  0  0  0  0
  -31.9190  -17.7850   26.1650 C   0  0  0  0  0  2  0  0  0  0  0  0
  -32.2760  -16.8240   25.0090 C   0  0  0  0  0  2  0  0  0  0  0  0
  -31.1800  -16.7130   23.9280 C   0  0  0  0  0  2  0  0  0  0  0  0
  -31.6090  -15.8480   22.7200 C   0  0  0  0  0  2  0  0  0  0  0  0
  -30.4060  -15.2890   21.9210 C   0  0  0  0  0  2  0  0  0  0  0  0
  -30.7890  -14.3590   20.7450 C   0  0  0  0  0  0  0  0  0  0  0  0
  -30.4200  -12.3090   19.3960 C   0  0  0  0  0  2  0  0  0  0  0  0
  -29.4870  -12.5270   18.1910 C   0  0  0  0  0  2  0  0  0  0  0  0
  -28.0140  -12.3650   18.6080 C   0  0  0  0  0  2  0  0  0  0  0  0
  -27.6670  -13.1980   19.8690 C   0  0  0  0  0  3  0  0  0  0  0  0
  -28.7010  -12.9530   20.9880 C   0  0  0  0  0  2  0  0  0  0  0  0
  -30.0450  -13.2540   20.4630 N   0  0  0  0  0  0  0  0  0  0  0  0
  -31.7970  -14.6480   20.0910 O   0  0  0  0  0  0  0  0  0  0  0  0
  -25.2630  -13.8150   20.5640 C   0  0  0  0  0  0  0  0  0  0  0  0
  -24.1860  -13.0420   20.9140 C   0  0  0  0  0  0  0  0  0  0  0  0
  -24.6410  -11.6890   20.8710 C   0  0  0  0  0  0  0  0  0  0  0  0
  -26.3050  -12.9300   20.3300 N   0  0  0  0  0  0  0  0  0  0  0  0
  -25.9320  -11.6460   20.5700 N   0  0  0  0  0  0  0  0  0  0  0  0
  -23.9060  -10.4280   21.0390 C   0  0  0  0  0  0  0  0  0  0  0  0
  -24.3610   -9.4200   21.9190 C   0  0  0  0  0  3  0  0  0  0  0  0
  -23.6290   -8.2240   22.0770 C   0  0  0  0  0  3  0  0  0  0  0  0
  -22.4280   -8.0280   21.3550 C   0  0  0  0  0  0  0  0  0  0  0  0
  -21.9900   -9.0250   20.4660 C   0  0  0  0  0  3  0  0  0  0  0  0
  -22.7220  -10.2130   20.3050 C   0  0  0  0  0  3  0  0  0  0  0  0
  -21.6640   -6.8890   21.4250 O   0  0  0  0  0  0  0  0  0  0  0  0
  -21.6850   -6.0730   22.5280 C   0  0  0  0  0  0  0  0  0  0  0  0
  -21.4010   -6.5640   23.8210 C   0  0  0  0  0  3  0  0  0  0  0  0
  -21.3660   -5.6790   24.9180 C   0  0  0  0  0  3  0  0  0  0  0  0
  -21.6040   -4.3060   24.7230 C   0  0  0  0  0  0  0  0  0  0  0  0
  -21.8820   -3.8150   23.4360 C   0  0  0  0  0  3  0  0  0  0  0  0
  -21.9190   -4.6960   22.3410 C   0  0  0  0  0  0  0  0  0  0  0  0
  -22.1660   -4.2150   21.0990 F   0  0  0  0  0  0  0  0  0  0  0  0
  -21.5630   -3.4540   25.7750 F   0  0  0  0  0  0  0  0  0  0  0  0
  -22.7900  -13.5250   21.1810 C   0  0  0  0  0  0  0  0  0  0  0  0
  -22.0530  -12.8240   22.0380 N   0  0  0  0  0  0  0  0  0  0  0  0
  -22.3580  -14.5550   20.6690 O   0  0  0  0  0  0  0  0  0  0  0  0
  -22.4130  -11.9890   22.4750 H   0  0  0  0  0  0  0  0  0  0  0  0
  -21.1150  -13.1290   22.2590 H   0  0  0  0  0  0  0  0  0  0  0  0
  -25.4340  -15.1870   20.4080 N   0  0  0  0  0  0  0  0  0  0  0  0
  -24.6690  -15.8410   20.5280 H   0  0  0  0  0  0  0  0  0  0  0  0
  -26.2940  -15.6310   20.1120 H   0  0  0  0  0  0  0  0  0  0  0  0
  1  2  1  0
  3  1  2  0
  4  5  1  0
  5 55  1  0
  5  2  2  0
  6  4  2  0
  6  3  1  0
  8 11  1  0
  9  7  1  0
 10 12  1  0
 10  8  1  0
 11  7  1  0
 11  6  1  0
 12 13  1  0
 12  9  1  0
 13 14  1  0
 14 16  1  0
 15 26  2  0
 16 21  1  0
 17 25  1  0
 17 27  1  0
 18 24  1  0
 18 20  1  0
 19 25  1  0
 20 19  1  0
 21 20  2  0
 22 16  2  0
 23 22  1  0
 23 18  2  0
 24 17  1  0
 25 15  1  0
 27 29  2  0
 28 27  1  0
 30 28  1  0
 31 40  2  0
 31 36  1  0
 32 28  1  0
 32 36  1  0
 33 32  1  0
 34 35  1  0
 34 33  1  0
 35 31  1  0
 36 37  2  0
 37 38  1  0
 39 38  2  0
 40 39  1  0
 41 15  1  0
 41 42  1  0
 41 51  1  0
 42 45  1  0
 43 47  1  0
 43 42  1  0
 44 43  2  0
 47 46  1  0
 49 47  1  0
 49 50  1  0
 49 48  1  0
 51 54  1  1
 51 52  1  0
 53 51  1  0
 55 57  1  0
 56 55  2  0
 58 57  1  0
 59 58  1  0
 60 59  1  0
 61 60  1  0
 62 61  1  0
 63 68  1  0
 64 65  1  0
 64 63  1  0
 66 65  1  0
 66 73  1  0
 66 67  1  0
 68 62  1  0
 68 67  1  0
 69 62  2  0
 70 71  2  0
 71 90  1  0
 72 71  1  0
 72 75  1  0
 73 70  1  0
 73 74  1  0
 74 72  2  0
 75 76  1  0
 76 77  2  0
 78 81  1  0
 78 77  1  0
 79 78  2  0
 80 79  1  0
 80 75  2  0
 81 82  1  0
 82 83  1  0
 83 84  2  0
 85 84  1  0
 85 89  1  0
 86 85  2  0
 87 82  2  0
 87 86  1  0
 88 87  1  0
 90 91  1  0
 91 94  1  0
 91 93  1  0
 92 90  2  0
 95 96  1  0
 95 70  1  0
 97 95  1  0
M  ISO  4  13 101  14 101  61 100  62 100
M  END
>  <TORSDO>  (21) 
F 24

>  <SCORE>  (21) 
33.219

>  <name>  (21) 
20

>  <ligand_id>  (21) 
20

>  <original_smiles>  (21) 
[H]c1c([H])c([H])c2c(c1[H])C([H])([H])C([H])([H])C([H])([H])C2([H])N([H])C(=O)C1([H])N(C(=O)C([H])(N([H])C(=O)C([H])(N([H])C([H])([H])[H])C([H])([H])[H])C(C([H])([H])[H])(C([H])([H])[H])C([H])([H])[H])C([H])([H])c2c([H])c(OC([H])([H])C3([H])C([H])([H])C([H])([H])C([H])(c4c([H])c([H])c([H])c(C(=O)C([H])([H])C([H])([H])C([H])([H])C([H])([H])C([H])([H])C(=O)N5C([H])([H])C([H])([H])C([H])([H])C([H])(n6nc(-c7c([H])c([H])c(Oc8c([H])c([H])c(F)c([H])c8F)c([H])c7[H])c(C(=O)N([H])[H])c6N([H])[H])C5([H])[H])c4[H])C([H])([H])C3([H])[H])c([H])c([H])c2C1([H])[H]

>  <smiles>  (21) 
[H]c1c([H])c([H])c2c(c1[H])C([H])([H])C([H])([H])C([H])([H])C2([H])N([H])C(=O)C1([H])N(C(=O)C([H])(N([H])C(=O)C([H])(N([H])C([H])([H])[H])C([H])([H])[H])C(C([H])([H])[H])(C([H])([H])[H])C([H])([H])[H])C([H])([H])c2c([H])c(OC([H])([H])C3([H])C([H])([H])C([H])([H])C([H])(c4c([H])c([H])c([H])c(C(=O)C([H])([H])C([H])([H])C([H])([H])C([H])([H])C([H])([H])C(=O)N5C([H])([H])C([H])([H])C([H])([H])C([H])(n6nc(-c7c([H])c([H])c(Oc8c([H])c([H])c(F)c([H])c8F)c([H])c7[H])c(C(=O)N([H])[H])c6N([H])[H])C5([H])[H])c4[H])C([H])([H])C3([H])[H])c([H])c([H])c2C1([H])[H]

$$$$
21:0:0
     RDKit          3D

 91 99  0  0  1  0  0  0  0  0999 V2000
  -30.8860  -21.8760   21.2250 C   0  0  0  0  0  2  0  0  0  0  0  0
  -29.9090  -19.6950   22.1170 C   0  0  0  0  0  3  0  0  0  0  0  0
  -30.7440  -19.7390   19.8330 C   0  0  0  0  0  3  0  0  0  0  0  0
  -29.5840  -18.3300   21.9700 C   0  0  0  0  0  3  0  0  0  0  0  0
  -30.4240  -18.3730   19.6870 C   0  0  0  0  0  3  0  0  0  0  0  0
  -30.4920  -20.4110   21.0490 C   0  0  0  0  0  0  0  0  0  0  0  0
  -29.8440  -17.6550   20.7570 C   0  0  0  0  0  0  0  0  0  0  0  0
  -29.4880  -16.1730   20.5980 C   0  0  0  0  0  2  0  0  0  0  0  0
  -30.9330  -14.3760   19.7180 C   0  0  0  0  0  0  0  0  0  0  0  0
  -30.4700  -12.2150   18.5980 C   0  0  0  0  0  2  0  0  0  0  0  0
  -29.4320  -12.3740   17.4710 C   0  0  0  0  0  2  0  0  0  0  0  0
  -28.0040  -12.2370   18.0370 C   0  0  0  0  0  2  0  0  0  0  0  0
  -27.7730  -13.1490   19.2690 C   0  0  0  0  0  3  0  0  0  0  0  0
  -28.9100  -12.9660   20.2990 C   0  0  0  0  0  2  0  0  0  0  0  0
  -30.1930  -13.2340   19.6260 N   0  0  0  0  0  0  0  0  0  0  0  0
  -31.9390  -14.5680   19.0240 O   0  0  0  0  0  0  0  0  0  0  0  0
  -31.6600  -15.6450   21.6620 C   0  0  0  0  0  1  0  0  0  0  0  0
  -30.6140  -15.2260   20.7240 N   0  0  0  0  0  0  0  0  0  0  0  0
  -25.4750  -13.8380   20.1990 C   0  0  0  0  0  0  0  0  0  0  0  0
  -24.4230  -13.1000   20.6720 C   0  0  0  0  0  0  0  0  0  0  0  0
  -24.8370  -11.7350   20.6050 C   0  0  0  0  0  0  0  0  0  0  0  0
  -26.4630  -12.9230   19.8720 N   0  0  0  0  0  0  0  0  0  0  0  0
  -26.0890  -11.6530   20.1750 N   0  0  0  0  0  0  0  0  0  0  0  0
  -24.0950  -10.4970   20.8730 C   0  0  0  0  0  0  0  0  0  0  0  0
  -24.5490   -9.5570   21.8240 C   0  0  0  0  0  3  0  0  0  0  0  0
  -23.8100   -8.3800   22.0750 C   0  0  0  0  0  3  0  0  0  0  0  0
  -22.6040   -8.1370   21.3770 C   0  0  0  0  0  0  0  0  0  0  0  0
  -22.1690   -9.0650   20.4150 C   0  0  0  0  0  3  0  0  0  0  0  0
  -22.9080  -10.2320   20.1620 C   0  0  0  0  0  3  0  0  0  0  0  0
  -21.8350   -7.0090   21.5370 O   0  0  0  0  0  0  0  0  0  0  0  0
  -21.7730   -6.3450   22.7350 C   0  0  0  0  0  0  0  0  0  0  0  0
  -21.3530   -6.9850   23.9210 C   0  0  0  0  0  3  0  0  0  0  0  0
  -21.2370   -6.2460   25.1150 C   0  0  0  0  0  3  0  0  0  0  0  0
  -21.5320   -4.8690   25.1240 C   0  0  0  0  0  0  0  0  0  0  0  0
  -21.9450   -4.2290   23.9420 C   0  0  0  0  0  3  0  0  0  0  0  0
  -22.0620   -4.9660   22.7490 C   0  0  0  0  0  0  0  0  0  0  0  0
  -22.4400   -4.3410   21.6080 F   0  0  0  0  0  0  0  0  0  0  0  0
  -21.4130   -4.1570   26.2690 F   0  0  0  0  0  0  0  0  0  0  0  0
  -23.0720  -13.6210   21.0730 C   0  0  0  0  0  0  0  0  0  0  0  0
  -22.4190  -12.9600   22.0230 N   0  0  0  0  0  0  0  0  0  0  0  0
  -22.6090  -14.6480   20.5770 O   0  0  0  0  0  0  0  0  0  0  0  0
  -22.8080  -12.1290   22.4440 H   0  0  0  0  0  0  0  0  0  0  0  0
  -21.5160  -13.2890   22.3340 H   0  0  0  0  0  0  0  0  0  0  0  0
  -25.6660  -15.2030   20.0010 N   0  0  0  0  0  0  0  0  0  0  0  0
  -24.9330  -15.8810   20.1750 H   0  0  0  0  0  0  0  0  0  0  0  0
  -26.4960  -15.6130   19.5930 H   0  0  0  0  0  0  0  0  0  0  0  0
  -30.1990  -22.8510   20.2430 C   0  0  0  0  0  2  0  0  0  0  0  0
  -30.6680  -24.3130   20.4360 C   0  0  0  0  0  2  0  0  0  0  0  0
  -30.2630  -25.2720   19.2970 C   0  0  0  0  0  2  0  0  0  0  0  0
  -28.8020  -25.7530   19.3230 C   0  0  0  0  0  2  0  0  0  0  0  0
  -28.6500  -26.8970   20.1690 O   0  0  0  0  0  0  0  0  0  0  0  0
  -24.6090  -31.8820   23.2600 C   0  0  0  0  0  0  0  0  0  0  0  0
  -27.4360  -27.5590   20.1610 C   0  0  0  0  0  0  0  0  0  0  0  0
  -23.4790  -30.4890   21.5580 C   0  0  0  0  0  3  0  0  0  0  0  0
  -25.0020  -29.0070   20.1510 C   0  0  0  0  0  0  0  0  0  0  0  0
  -26.0020  -30.8990   21.4420 C   0  0  0  0  0  2  0  0  0  0  0  0
  -26.1300  -29.5420   20.7820 C   0  0  0  0  0  0  0  0  0  0  0  0
  -27.3470  -28.8200   20.7910 C   0  0  0  0  0  3  0  0  0  0  0  0
  -26.2770  -27.0300   19.5410 C   0  0  0  0  0  3  0  0  0  0  0  0
  -25.0660  -27.7460   19.5370 C   0  0  0  0  0  3  0  0  0  0  0  0
  -23.7420  -29.8420   20.1740 C   0  0  0  0  0  2  0  0  0  0  0  0
  -24.7120  -31.1050   22.1470 N   0  0  0  0  0  0  0  0  0  0  0  0
  -23.5060  -32.1220   23.7730 O   0  0  0  0  0  0  0  0  0  0  0  0
  -22.8180  -29.4380   22.4780 C   0  0  0  0  0  0  0  0  0  0  0  0
  -21.5000  -29.2370   22.3080 N   0  0  0  0  0  0  0  0  0  0  0  0
  -23.4890  -28.8040   23.2970 O   0  0  0  0  0  0  0  0  0  0  0  0
  -21.0220  -29.7990   21.6190 H   0  0  0  0  0  0  0  0  0  0  0  0
  -18.1310  -27.9910   22.6870 C   0  0  0  0  0  0  0  0  0  0  0  0
  -20.6770  -28.2710   23.0340 C   0  0  0  0  0  3  0  0  0  0  0  0
  -20.8130  -26.8570   22.4250 C   0  0  0  0  0  2  0  0  0  0  0  0
  -19.7410  -26.5460   21.3750 C   0  0  0  0  0  2  0  0  0  0  0  0
  -18.3400  -26.6610   21.9830 C   0  0  0  0  0  2  0  0  0  0  0  0
  -19.2290  -28.7540   23.1660 C   0  0  0  0  0  0  0  0  0  0  0  0
  -18.9790  -30.0010   23.7800 C   0  0  0  0  0  3  0  0  0  0  0  0
  -17.6630  -30.4820   23.9240 C   0  0  0  0  0  3  0  0  0  0  0  0
  -16.5810  -29.7130   23.4640 C   0  0  0  0  0  3  0  0  0  0  0  0
  -16.8150  -28.4700   22.8500 C   0  0  0  0  0  3  0  0  0  0  0  0
  -25.8630  -32.5240   23.9300 C   0  0  0  0  0  3  0  0  0  0  0  0
  -25.5240  -33.9150   24.2600 N   0  0  0  0  0  0  0  0  0  0  0  0
  -25.8680  -34.9770   23.5190 C   0  0  0  0  0  0  0  0  0  0  0  0
  -26.5740  -34.8890   22.5110 O   0  0  0  0  0  0  0  0  0  0  0  0
  -24.8980  -34.0550   25.0400 H   0  0  0  0  0  0  0  0  0  0  0  0
  -24.1290  -36.7460   23.1140 C   0  0  0  0  0  1  0  0  0  0  0  0
  -25.3450  -36.3540   23.9680 C   0  0  0  0  0  3  0  0  0  0  0  0
  -27.4390  -37.2570   24.8790 C   0  0  0  0  0  1  0  0  0  0  0  0
  -26.3650  -37.4220   23.9010 N   0  0  0  0  0  0  0  0  0  0  0  0
  -25.9430  -38.3350   24.0460 H   0  0  0  0  0  0  0  0  0  0  0  0
  -26.3460  -31.7480   25.2160 C   0  0  1  0  0  0  0  0  0  0  0  0
  -25.2170  -31.4800   26.2380 C   0  0  0  0  0  1  0  0  0  0  0  0
  -26.9710  -30.3880   24.8300 C   0  0  0  0  0  1  0  0  0  0  0  0
  -27.4550  -32.5580   25.9260 C   0  0  0  0  0  1  0  0  0  0  0  0
  3  6  1  0
  4  2  1  0
  5  3  2  0
  5  7  1  0
  6  1  1  0
  6  2  2  0
  7  4  2  0
  8 18  1  0
  8  7  1  0
  9 18  1  0
 10 15  1  0
 11 12  1  0
 11 10  1  0
 13 12  1  0
 13 22  1  0
 13 14  1  0
 15  9  1  0
 15 14  1  0
 16  9  2  0
 18 17  1  0
 19 20  2  0
 20 39  1  0
 21 20  1  0
 21 24  1  0
 22 23  1  0
 22 19  1  0
 23 21  2  0
 24 25  1  0
 25 26  2  0
 27 30  1  0
 27 26  1  0
 28 27  2  0
 29 28  1  0
 29 24  2  0
 30 31  1  0
 31 36  2  0
 31 32  1  0
 32 33  2  0
 33 34  1  0
 34 38  1  0
 35 34  2  0
 36 35  1  0
 37 36  1  0
 39 40  1  0
 40 43  1  0
 40 42  1  0
 41 39  2  0
 44 45  1  0
 44 19  1  0
 46 44  1  0
 47 48  1  0
 47  1  1  0
 49 50  1  0
 49 48  1  0
 50 51  1  0
 52 63  2  0
 53 51  1  0
 53 58  1  0
 54 62  1  0
 54 64  1  0
 55 61  1  0
 55 57  1  0
 56 62  1  0
 57 58  2  0
 57 56  1  0
 59 53  2  0
 60 59  1  0
 60 55  2  0
 61 54  1  0
 62 52  1  0
 64 66  2  0
 65 64  1  0
 67 65  1  0
 68 77  2  0
 68 73  1  0
 69 65  1  0
 69 73  1  0
 70 69  1  0
 71 72  1  0
 71 70  1  0
 72 68  1  0
 73 74  2  0
 74 75  1  0
 76 75  2  0
 77 76  1  0
 78 52  1  0
 78 79  1  0
 78 88  1  0
 79 82  1  0
 80 84  1  0
 80 79  1  0
 81 80  2  0
 84 83  1  0
 86 84  1  0
 86 87  1  0
 86 85  1  0
 88 91  1  1
 88 89  1  0
 90 88  1  0
M  ISO  4   9 100  18 100  50 101  51 101
M  END
>  <TORSDO>  (22) 
F 22

>  <SCORE>  (22) 
-11.100

>  <name>  (22) 
21

>  <ligand_id>  (22) 
21

>  <original_smiles>  (22) 
[H]c1c([H])c([H])c2c(c1[H])C([H])([H])C([H])([H])C([H])([H])C2([H])N([H])C(=O)C1([H])N(C(=O)C([H])(N([H])C(=O)C([H])(N([H])C([H])([H])[H])C([H])([H])[H])C(C([H])([H])[H])(C([H])([H])[H])C([H])([H])[H])C([H])([H])c2c([H])c(OC([H])([H])C([H])([H])C([H])([H])C([H])([H])C([H])([H])c3c([H])c([H])c(C([H])([H])N(C(=O)N4C([H])([H])C([H])([H])C([H])([H])C([H])(n5nc(-c6c([H])c([H])c(Oc7c([H])c([H])c(F)c([H])c7F)c([H])c6[H])c(C(=O)N([H])[H])c5N([H])[H])C4([H])[H])C([H])([H])[H])c([H])c3[H])c([H])c([H])c2C1([H])[H]

>  <smiles>  (22) 
[H]c1c([H])c([H])c2c(c1[H])C([H])([H])C([H])([H])C([H])([H])C2([H])N([H])C(=O)C1([H])N(C(=O)C([H])(N([H])C(=O)C([H])(N([H])C([H])([H])[H])C([H])([H])[H])C(C([H])([H])[H])(C([H])([H])[H])C([H])([H])[H])C([H])([H])c2c([H])c(OC([H])([H])C([H])([H])C([H])([H])C([H])([H])C([H])([H])c3c([H])c([H])c(C([H])([H])N(C(=O)N4C([H])([H])C([H])([H])C([H])([H])C([H])(n5nc(-c6c([H])c([H])c(Oc7c([H])c([H])c(F)c([H])c7F)c([H])c6[H])c(C(=O)N([H])[H])c5N([H])[H])C4([H])[H])C([H])([H])[H])c([H])c3[H])c([H])c([H])c2C1([H])[H]

$$$$
22:0:0
     RDKit          3D

 93101  0  0  1  0  0  0  0  0999 V2000
  -28.1800  -20.7260   20.4830 C   0  0  0  0  0  3  0  0  0  0  0  0
  -29.8770  -21.3950   22.0950 C   0  0  0  0  0  3  0  0  0  0  0  0
  -27.6260  -22.0200   20.5300 C   0  0  0  0  0  3  0  0  0  0  0  0
  -29.3260  -22.6900   22.1390 C   0  0  0  0  0  3  0  0  0  0  0  0
  -29.3170  -20.4010   21.2610 C   0  0  0  0  0  0  0  0  0  0  0  0
  -28.1940  -23.0070   21.3620 C   0  0  0  0  0  0  0  0  0  0  0  0
  -29.8980  -19.0260   21.2930 C   0  0  0  0  0  0  0  0  0  0  0  0
  -30.3580  -18.5250   22.3230 O   0  0  0  0  0  0  0  0  0  0  0  0
  -29.9750  -18.2330   19.9820 C   0  0  0  0  0  2  0  0  0  0  0  0
  -31.4100  -17.7920   19.6210 C   0  0  0  0  0  2  0  0  0  0  0  0
  -32.0310  -16.7270   20.5490 C   0  0  0  0  0  2  0  0  0  0  0  0
  -31.7580  -14.4240   19.6410 C   0  0  0  0  0  0  0  0  0  0  0  0
  -31.3090  -12.1150   18.9010 C   0  0  0  0  0  2  0  0  0  0  0  0
  -30.3140  -12.0850   17.7270 C   0  0  0  0  0  2  0  0  0  0  0  0
  -28.8630  -12.0780   18.2430 C   0  0  0  0  0  2  0  0  0  0  0  0
  -28.6010  -13.1830   19.2990 C   0  0  0  0  0  3  0  0  0  0  0  0
  -29.6960  -13.1700   20.3880 C   0  0  0  0  0  2  0  0  0  0  0  0
  -31.0120  -13.2920   19.7290 N   0  0  0  0  0  0  0  0  0  0  0  0
  -32.7470  -14.5310   18.9110 O   0  0  0  0  0  0  0  0  0  0  0  0
  -31.3660  -15.4300   20.4330 N   0  0  0  0  0  0  0  0  0  0  0  0
  -30.5680  -15.2590   21.0260 H   0  0  0  0  0  0  0  0  0  0  0  0
  -26.3540  -14.0500   20.2130 C   0  0  0  0  0  0  0  0  0  0  0  0
  -25.2330  -13.3980   20.6510 C   0  0  0  0  0  0  0  0  0  0  0  0
  -25.5210  -12.0030   20.5480 C   0  0  0  0  0  0  0  0  0  0  0  0
  -27.2640  -13.0590   19.8780 N   0  0  0  0  0  0  0  0  0  0  0  0
  -26.7680  -11.8210   20.1320 N   0  0  0  0  0  0  0  0  0  0  0  0
  -24.6650  -10.8310   20.7660 C   0  0  0  0  0  0  0  0  0  0  0  0
  -24.9990   -9.8370   21.7140 C   0  0  0  0  0  3  0  0  0  0  0  0
  -24.1510   -8.7290   21.9180 C   0  0  0  0  0  3  0  0  0  0  0  0
  -22.9530   -8.6050   21.1750 C   0  0  0  0  0  0  0  0  0  0  0  0
  -22.6360   -9.5840   20.2180 C   0  0  0  0  0  3  0  0  0  0  0  0
  -23.4840  -10.6850   20.0110 C   0  0  0  0  0  3  0  0  0  0  0  0
  -22.0810   -7.5490   21.2880 O   0  0  0  0  0  0  0  0  0  0  0  0
  -21.8870   -6.9010   22.4820 C   0  0  0  0  0  0  0  0  0  0  0  0
  -21.4390   -7.5800   23.6350 C   0  0  0  0  0  3  0  0  0  0  0  0
  -21.1870   -6.8620   24.8210 C   0  0  0  0  0  3  0  0  0  0  0  0
  -21.3710   -5.4660   24.8540 C   0  0  0  0  0  0  0  0  0  0  0  0
  -21.8110   -4.7880   23.7050 C   0  0  0  0  0  3  0  0  0  0  0  0
  -22.0650   -5.5020   22.5210 C   0  0  0  0  0  0  0  0  0  0  0  0
  -22.4690   -4.8400   21.4100 F   0  0  0  0  0  0  0  0  0  0  0  0
  -21.1210   -4.7760   25.9910 F   0  0  0  0  0  0  0  0  0  0  0  0
  -23.9300  -14.0290   21.0520 C   0  0  0  0  0  0  0  0  0  0  0  0
  -23.2040  -13.4030   21.9730 N   0  0  0  0  0  0  0  0  0  0  0  0
  -23.5710  -15.1080   20.5840 O   0  0  0  0  0  0  0  0  0  0  0  0
  -23.5090  -12.5280   22.3730 H   0  0  0  0  0  0  0  0  0  0  0  0
  -22.3320  -13.8080   22.2840 H   0  0  0  0  0  0  0  0  0  0  0  0
  -26.6700  -15.3960   20.0540 N   0  0  0  0  0  0  0  0  0  0  0  0
  -25.9980  -16.1340   20.2340 H   0  0  0  0  0  0  0  0  0  0  0  0
  -27.5360  -15.7360   19.6570 H   0  0  0  0  0  0  0  0  0  0  0  0
  -27.5670  -24.3860   21.4700 C   0  0  0  0  0  2  0  0  0  0  0  0
  -28.4000  -25.5040   20.8200 C   0  0  0  0  0  2  0  0  0  0  0  0
  -28.2770  -25.5760   19.2800 C   0  0  0  0  0  2  0  0  0  0  0  0
  -28.2270  -26.9310   18.8190 O   0  0  0  0  0  0  0  0  0  0  0  0
  -24.6080  -31.5030   22.8570 C   0  0  0  0  0  0  0  0  0  0  0  0
  -27.0330  -27.5950   18.9950 C   0  0  0  0  0  0  0  0  0  0  0  0
  -23.2740  -30.2700   21.1780 C   0  0  0  0  0  3  0  0  0  0  0  0
  -24.6110  -28.9770   19.4350 C   0  0  0  0  0  0  0  0  0  0  0  0
  -25.7540  -30.7510   20.7760 C   0  0  0  0  0  2  0  0  0  0  0  0
  -25.8070  -29.4760   19.9630 C   0  0  0  0  0  0  0  0  0  0  0  0
  -27.0220  -28.7950   19.7370 C   0  0  0  0  0  3  0  0  0  0  0  0
  -25.8180  -27.1030   18.4660 C   0  0  0  0  0  3  0  0  0  0  0  0
  -24.6100  -27.7890   18.6850 C   0  0  0  0  0  3  0  0  0  0  0  0
  -23.3560  -29.7730   19.7100 C   0  0  0  0  0  2  0  0  0  0  0  0
  -24.5690  -30.8490   21.6610 N   0  0  0  0  0  0  0  0  0  0  0  0
  -23.5820  -31.6670   23.5310 O   0  0  0  0  0  0  0  0  0  0  0  0
  -22.7510  -29.1140   22.0610 C   0  0  0  0  0  0  0  0  0  0  0  0
  -21.4330  -28.8680   22.0010 N   0  0  0  0  0  0  0  0  0  0  0  0
  -23.5240  -28.4480   22.7530 O   0  0  0  0  0  0  0  0  0  0  0  0
  -20.8660  -29.4650   21.4150 H   0  0  0  0  0  0  0  0  0  0  0  0
  -18.1830  -27.3730   22.5070 C   0  0  0  0  0  0  0  0  0  0  0  0
  -20.7230  -27.8070   22.7140 C   0  0  0  0  0  3  0  0  0  0  0  0
  -20.9100  -26.4420   22.0130 C   0  0  0  0  0  2  0  0  0  0  0  0
  -19.7950  -26.1200   21.0120 C   0  0  0  0  0  2  0  0  0  0  0  0
  -18.4340  -26.1020   21.7130 C   0  0  0  0  0  2  0  0  0  0  0  0
  -19.2580  -28.1820   22.9640 C   0  0  0  0  0  0  0  0  0  0  0  0
  -18.9690  -29.3720   23.6670 C   0  0  0  0  0  3  0  0  0  0  0  0
  -17.6370  -29.7550   23.9170 C   0  0  0  0  0  3  0  0  0  0  0  0
  -16.5780  -28.9420   23.4770 C   0  0  0  0  0  3  0  0  0  0  0  0
  -16.8520  -27.7530   22.7780 C   0  0  0  0  0  3  0  0  0  0  0  0
  -25.9370  -32.0980   23.4210 C   0  0  0  0  0  3  0  0  0  0  0  0
  -25.6260  -33.4180   23.9850 N   0  0  0  0  0  0  0  0  0  0  0  0
  -25.8640  -34.5830   23.3670 C   0  0  0  0  0  0  0  0  0  0  0  0
  -26.4430  -34.6600   22.2800 O   0  0  0  0  0  0  0  0  0  0  0  0
  -25.1000  -33.4300   24.8460 H   0  0  0  0  0  0  0  0  0  0  0  0
  -24.0680  -36.3420   23.4290 C   0  0  0  0  0  1  0  0  0  0  0  0
  -25.3820  -35.8680   24.0680 C   0  0  0  0  0  3  0  0  0  0  0  0
  -27.5580  -36.6960   24.8490 C   0  0  0  0  0  1  0  0  0  0  0  0
  -26.3770  -36.9640   24.0350 N   0  0  0  0  0  0  0  0  0  0  0  0
  -25.9620  -37.8350   24.3530 H   0  0  0  0  0  0  0  0  0  0  0  0
  -26.6220  -31.1760   24.5030 C   0  0  1  0  0  0  0  0  0  0  0  0
  -25.6700  -30.7380   25.6400 C   0  0  0  0  0  1  0  0  0  0  0  0
  -27.1910  -29.8970   23.8450 C   0  0  0  0  0  1  0  0  0  0  0  0
  -27.8200  -31.9180   25.1410 C   0  0  0  0  0  1  0  0  0  0  0  0
  1  3  2  0
  1  5  1  0
  2  4  1  0
  3  6  1  0
  5  7  1  0
  5  2  2  0
  6 50  1  0
  6  4  2  0
  7  8  2  0
  9  7  1  0
 10  9  1  0
 10 11  1  0
 12 18  1  0
 12 20  1  0
 13 18  1  0
 14 15  1  0
 14 13  1  0
 16 15  1  0
 16 25  1  0
 16 17  1  0
 18 17  1  0
 19 12  2  0
 20 11  1  0
 20 21  1  0
 22 23  2  0
 23 42  1  0
 24 23  1  0
 24 27  1  0
 25 26  1  0
 25 22  1  0
 26 24  2  0
 27 28  1  0
 28 29  2  0
 30 33  1  0
 30 29  1  0
 31 30  2  0
 32 31  1  0
 32 27  2  0
 33 34  1  0
 34 39  2  0
 34 35  1  0
 35 36  2  0
 36 37  1  0
 37 41  1  0
 38 37  2  0
 39 38  1  0
 40 39  1  0
 42 43  1  0
 43 46  1  0
 43 45  1  0
 44 42  2  0
 47 22  1  0
 47 48  1  0
 49 47  1  0
 51 50  1  0
 52 51  1  0
 53 55  1  0
 53 52  1  0
 54 65  2  0
 55 60  1  0
 56 64  1  0
 56 66  1  0
 57 63  1  0
 57 59  1  0
 58 64  1  0
 59 58  1  0
 60 59  2  0
 61 62  1  0
 61 55  2  0
 62 57  2  0
 63 56  1  0
 64 54  1  0
 66 68  2  0
 67 66  1  0
 69 67  1  0
 70 79  2  0
 70 75  1  0
 71 67  1  0
 71 75  1  0
 72 71  1  0
 73 74  1  0
 73 72  1  0
 74 70  1  0
 75 76  2  0
 76 77  1  0
 78 77  2  0
 79 78  1  0
 80 54  1  0
 80 81  1  0
 80 90  1  0
 81 84  1  0
 82 81  1  0
 82 86  1  0
 83 82  2  0
 86 85  1  0
 88 86  1  0
 88 89  1  0
 88 87  1  0
 90 93  1  1
 90 91  1  0
 92 90  1  0
M  ISO  4  12 100  20 100  52 101  53 101
M  END
>  <TORSDO>  (23) 
F 23

>  <SCORE>  (23) 
-10.278

>  <name>  (23) 
22

>  <ligand_id>  (23) 
22

>  <original_smiles>  (23) 
[H]c1c([H])c([H])c2c(c1[H])C([H])([H])C([H])([H])C([H])([H])C2([H])N([H])C(=O)C1([H])N(C(=O)C([H])(N([H])C(=O)C([H])(N([H])C([H])([H])[H])C([H])([H])[H])C(C([H])([H])[H])(C([H])([H])[H])C([H])([H])[H])C([H])([H])c2c([H])c(OC([H])([H])C([H])([H])C([H])([H])c3c([H])c([H])c(C(=O)C([H])([H])C([H])([H])C([H])([H])N([H])C(=O)N4C([H])([H])C([H])([H])C([H])([H])C([H])(n5nc(-c6c([H])c([H])c(Oc7c([H])c([H])c(F)c([H])c7F)c([H])c6[H])c(C(=O)N([H])[H])c5N([H])[H])C4([H])[H])c([H])c3[H])c([H])c([H])c2C1([H])[H]

>  <smiles>  (23) 
[H]c1c([H])c([H])c2c(c1[H])C([H])([H])C([H])([H])C([H])([H])C2([H])N([H])C(=O)C1([H])N(C(=O)C([H])(N([H])C(=O)C([H])(N([H])C([H])([H])[H])C([H])([H])[H])C(C([H])([H])[H])(C([H])([H])[H])C([H])([H])[H])C([H])([H])c2c([H])c(OC([H])([H])C([H])([H])C([H])([H])c3c([H])c([H])c(C(=O)C([H])([H])C([H])([H])C([H])([H])N([H])C(=O)N4C([H])([H])C([H])([H])C([H])([H])C([H])(n5nc(-c6c([H])c([H])c(Oc7c([H])c([H])c(F)c([H])c7F)c([H])c6[H])c(C(=O)N([H])[H])c5N([H])[H])C4([H])[H])c([H])c3[H])c([H])c([H])c2C1([H])[H]

$$$$
23:0:0
     RDKit          3D

 92 99  0  0  1  0  0  0  0  0999 V2000
  -31.6480  -24.4240   24.9280 C   0  0  0  0  0  2  0  0  0  0  0  0
  -32.9770  -23.4250   26.7350 C   0  0  0  0  0  1  0  0  0  0  0  0
  -32.3220  -23.1970   25.4260 N   0  0  1  0  0  4  0  0  0  0  0  0
  -33.0780  -23.0080   24.7850 H   0  0  0  0  0  0  0  0  0  0  0  0
  -31.4600  -21.9850   25.4280 C   0  0  0  0  0  2  0  0  0  0  0  0
  -31.8610  -21.0200   24.3000 C   0  0  0  0  0  2  0  0  0  0  0  0
  -30.9950  -19.7540   24.2490 C   0  0  0  0  0  2  0  0  0  0  0  0
  -31.4500  -18.8060   23.1310 C   0  0  0  0  0  2  0  0  0  0  0  0
  -30.5990  -17.5350   23.0350 C   0  0  0  0  0  2  0  0  0  0  0  0
  -31.0960  -16.6070   21.9160 C   0  0  0  0  0  2  0  0  0  0  0  0
  -30.2340  -15.3410   21.7620 C   0  0  0  0  0  2  0  0  0  0  0  0
  -30.7460  -14.3650   20.6870 C   0  0  0  0  0  0  0  0  0  0  0  0
  -30.4170  -12.2880   19.3840 C   0  0  0  0  0  2  0  0  0  0  0  0
  -29.4810  -12.5220   18.1860 C   0  0  0  0  0  2  0  0  0  0  0  0
  -28.0060  -12.3770   18.6080 C   0  0  0  0  0  2  0  0  0  0  0  0
  -27.6660  -13.1990   19.8800 C   0  0  0  0  0  3  0  0  0  0  0  0
  -28.7070  -12.9350   20.9910 C   0  0  0  0  0  2  0  0  0  0  0  0
  -30.0420  -13.2300   20.4470 N   0  0  0  0  0  0  0  0  0  0  0  0
  -31.7820  -14.6420   20.0710 O   0  0  0  0  0  0  0  0  0  0  0  0
  -25.2610  -13.8150   20.5680 C   0  0  0  0  0  0  0  0  0  0  0  0
  -24.1860  -13.0430   20.9170 C   0  0  0  0  0  0  0  0  0  0  0  0
  -24.6400  -11.6900   20.8720 C   0  0  0  0  0  0  0  0  0  0  0  0
  -26.3050  -12.9310   20.3390 N   0  0  0  0  0  0  0  0  0  0  0  0
  -25.9320  -11.6470   20.5750 N   0  0  0  0  0  0  0  0  0  0  0  0
  -23.9060  -10.4280   21.0400 C   0  0  0  0  0  0  0  0  0  0  0  0
  -24.3610   -9.4200   21.9180 C   0  0  0  0  0  3  0  0  0  0  0  0
  -23.6280   -8.2230   22.0760 C   0  0  0  0  0  3  0  0  0  0  0  0
  -22.4270   -8.0270   21.3540 C   0  0  0  0  0  0  0  0  0  0  0  0
  -21.9910   -9.0250   20.4640 C   0  0  0  0  0  3  0  0  0  0  0  0
  -22.7240  -10.2130   20.3050 C   0  0  0  0  0  3  0  0  0  0  0  0
  -21.6630   -6.8870   21.4230 O   0  0  0  0  0  0  0  0  0  0  0  0
  -21.6850   -6.0730   22.5280 C   0  0  0  0  0  0  0  0  0  0  0  0
  -21.4020   -6.5640   23.8210 C   0  0  0  0  0  3  0  0  0  0  0  0
  -21.3660   -5.6790   24.9180 C   0  0  0  0  0  3  0  0  0  0  0  0
  -21.6050   -4.3060   24.7230 C   0  0  0  0  0  0  0  0  0  0  0  0
  -21.8820   -3.8140   23.4350 C   0  0  0  0  0  3  0  0  0  0  0  0
  -21.9190   -4.6950   22.3400 C   0  0  0  0  0  0  0  0  0  0  0  0
  -22.1660   -4.2140   21.0980 F   0  0  0  0  0  0  0  0  0  0  0  0
  -21.5630   -3.4540   25.7750 F   0  0  0  0  0  0  0  0  0  0  0  0
  -22.7870  -13.5220   21.1830 C   0  0  0  0  0  0  0  0  0  0  0  0
  -22.0520  -12.8210   22.0390 N   0  0  0  0  0  0  0  0  0  0  0  0
  -22.3550  -14.5540   20.6690 O   0  0  0  0  0  0  0  0  0  0  0  0
  -22.4140  -11.9860   22.4750 H   0  0  0  0  0  0  0  0  0  0  0  0
  -21.1130  -13.1220   22.2590 H   0  0  0  0  0  0  0  0  0  0  0  0
  -25.4360  -15.1870   20.4100 N   0  0  0  0  0  0  0  0  0  0  0  0
  -24.6750  -15.8490   20.5190 H   0  0  0  0  0  0  0  0  0  0  0  0
  -26.3010  -15.6230   20.1140 H   0  0  0  0  0  0  0  0  0  0  0  0
  -31.1780  -24.3300   23.4610 C   0  0  0  0  0  2  0  0  0  0  0  0
  -30.5960  -25.6600   22.9620 C   0  0  0  0  0  2  0  0  0  0  0  0
  -29.9400  -25.5690   21.5730 C   0  0  0  0  0  2  0  0  0  0  0  0
  -29.2790  -26.8980   21.1860 C   0  0  0  0  0  2  0  0  0  0  0  0
  -28.3890  -26.7110   20.0860 O   0  0  0  0  0  0  0  0  0  0  0  0
  -24.6070  -31.8720   23.2120 C   0  0  0  0  0  0  0  0  0  0  0  0
  -27.2510  -27.4850   20.0990 C   0  0  0  0  0  0  0  0  0  0  0  0
  -23.3930  -30.4920   21.5520 C   0  0  0  0  0  3  0  0  0  0  0  0
  -24.8430  -28.9640   20.1120 C   0  0  0  0  0  0  0  0  0  0  0  0
  -25.9120  -30.8580   21.3530 C   0  0  0  0  0  2  0  0  0  0  0  0
  -25.9940  -29.4950   20.7040 C   0  0  0  0  0  0  0  0  0  0  0  0
  -27.1980  -28.7680   20.6930 C   0  0  0  0  0  3  0  0  0  0  0  0
  -26.0890  -26.9660   19.4910 C   0  0  0  0  0  3  0  0  0  0  0  0
  -24.8840  -27.6960   19.5020 C   0  0  0  0  0  3  0  0  0  0  0  0
  -23.5980  -29.8200   20.1660 C   0  0  0  0  0  2  0  0  0  0  0  0
  -24.6560  -31.0860   22.0990 N   0  0  0  0  0  0  0  0  0  0  0  0
  -23.5280  -32.1440   23.7560 O   0  0  0  0  0  0  0  0  0  0  0  0
  -22.7370  -29.4660   22.5020 C   0  0  0  0  0  0  0  0  0  0  0  0
  -21.4100  -29.3010   22.3760 N   0  0  0  0  0  0  0  0  0  0  0  0
  -23.4170  -28.8210   23.3040 O   0  0  0  0  0  0  0  0  0  0  0  0
  -20.9240  -29.8760   21.7020 H   0  0  0  0  0  0  0  0  0  0  0  0
  -18.0260  -28.1360   22.8500 C   0  0  0  0  0  0  0  0  0  0  0  0
  -20.5840  -28.3630   23.1340 C   0  0  0  0  0  3  0  0  0  0  0  0
  -20.6740  -26.9370   22.5420 C   0  0  0  0  0  2  0  0  0  0  0  0
  -19.5730  -26.6380   21.5200 C   0  0  0  0  0  2  0  0  0  0  0  0
  -18.1910  -26.7910   22.1610 C   0  0  0  0  0  2  0  0  0  0  0  0
  -19.1510  -28.8810   23.2920 C   0  0  0  0  0  0  0  0  0  0  0  0
  -18.9440  -30.1430   23.8920 C   0  0  0  0  0  3  0  0  0  0  0  0
  -17.6440  -30.6580   24.0560 C   0  0  0  0  0  3  0  0  0  0  0  0
  -16.5330  -29.9080   23.6320 C   0  0  0  0  0  3  0  0  0  0  0  0
  -16.7250  -28.6490   23.0360 C   0  0  0  0  0  3  0  0  0  0  0  0
  -25.8990  -32.4840   23.8410 C   0  0  0  0  0  3  0  0  0  0  0  0
  -26.4450  -31.6600   25.0700 C   0  0  1  0  0  0  0  0  0  0  0  0
  -25.3730  -31.3660   26.1460 C   0  0  0  0  0  1  0  0  0  0  0  0
  -27.0270  -30.3060   24.6000 C   0  0  0  0  0  1  0  0  0  0  0  0
  -27.6020  -32.4310   25.7480 C   0  0  0  0  0  1  0  0  0  0  0  0
  -25.5870  -33.8640   24.2350 N   0  0  0  0  0  0  0  0  0  0  0  0
  -25.9030  -34.9480   23.5150 C   0  0  0  0  0  0  0  0  0  0  0  0
  -26.5590  -34.8930   22.4710 O   0  0  0  0  0  0  0  0  0  0  0  0
  -25.0040  -33.9810   25.0510 H   0  0  0  0  0  0  0  0  0  0  0  0
  -24.1490  -36.7310   23.2640 C   0  0  0  0  0  1  0  0  0  0  0  0
  -25.4110  -36.3120   24.0350 C   0  0  0  0  0  3  0  0  0  0  0  0
  -27.5590  -37.1820   24.8470 C   0  0  0  0  0  1  0  0  0  0  0  0
  -26.4290  -37.3800   23.9420 N   0  0  0  0  0  0  0  0  0  0  0  0
  -26.0190  -38.2880   24.1400 H   0  0  0  0  0  0  0  0  0  0  0  0
  1  3  1  0
  3  5  1  0
  3  2  1  0
  3  4  1  6
  6  5  1  0
  7  6  1  0
  8  7  1  0
  9  8  1  0
 10  9  1  0
 11 10  1  0
 12 11  1  0
 13 18  1  0
 14 15  1  0
 14 13  1  0
 16 15  1  0
 16 23  1  0
 16 17  1  0
 18 12  1  0
 18 17  1  0
 19 12  2  0
 20 21  2  0
 21 40  1  0
 22 21  1  0
 22 25  1  0
 23 20  1  0
 23 24  1  0
 24 22  2  0
 25 26  1  0
 26 27  2  0
 28 31  1  0
 28 27  1  0
 29 28  2  0
 30 29  1  0
 30 25  2  0
 31 32  1  0
 32 33  1  0
 33 34  2  0
 35 34  1  0
 35 39  1  0
 36 35  2  0
 37 32  2  0
 37 36  1  0
 38 37  1  0
 40 41  1  0
 41 44  1  0
 41 43  1  0
 42 40  2  0
 45 46  1  0
 45 20  1  0
 47 45  1  0
 48  1  1  0
 49 48  1  0
 50 49  1  0
 51 50  1  0
 52 54  1  0
 52 51  1  0
 53 64  2  0
 54 59  1  0
 55 63  1  0
 55 65  1  0
 56 62  1  0
 56 58  1  0
 57 63  1  0
 58 57  1  0
 59 58  2  0
 60 61  1  0
 60 54  2  0
 61 56  2  0
 62 55  1  0
 63 53  1  0
 65 67  2  0
 66 65  1  0
 68 66  1  0
 69 78  2  0
 69 74  1  0
 70 66  1  0
 70 74  1  0
 71 70  1  0
 72 73  1  0
 72 71  1  0
 73 69  1  0
 74 75  2  0
 75 76  1  0
 77 76  2  0
 78 77  1  0
 79 53  1  0
 79 84  1  0
 79 80  1  0
 80 83  1  1
 80 81  1  0
 82 80  1  0
 84 87  1  0
 85 89  1  0
 85 84  1  0
 86 85  2  0
 89 88  1  0
 91 89  1  0
 91 92  1  0
 91 90  1  0
M  ISO  4  11 100  12 100  51 101  52 101
M  END
>  <TORSDO>  (24) 
F 28

>  <SCORE>  (24) 
4.419

>  <name>  (24) 
23

>  <ligand_id>  (24) 
23

>  <original_smiles>  (24) 
[H]c1c([H])c([H])c2c(c1[H])C([H])([H])C([H])([H])C([H])([H])C2([H])N([H])C(=O)C1([H])N(C(=O)C([H])(N([H])C(=O)C([H])(N([H])C([H])([H])[H])C([H])([H])[H])C(C([H])([H])[H])(C([H])([H])[H])C([H])([H])[H])C([H])([H])c2c([H])c(OC([H])([H])C([H])([H])C([H])([H])C([H])([H])C([H])([H])[N+]([H])(C([H])([H])[H])C([H])([H])C([H])([H])C([H])([H])C([H])([H])C([H])([H])C([H])([H])C([H])([H])C(=O)N3C([H])([H])C([H])([H])C([H])([H])C([H])(n4nc(-c5c([H])c([H])c(Oc6c([H])c([H])c(F)c([H])c6F)c([H])c5[H])c(C(=O)N([H])[H])c4N([H])[H])C3([H])[H])c([H])c([H])c2C1([H])[H]

>  <smiles>  (24) 
[H]c1c([H])c([H])c2c(c1[H])C([H])([H])C([H])([H])C([H])([H])C2([H])N([H])C(=O)C1([H])N(C(=O)C([H])(N([H])C(=O)C([H])(N([H])C([H])([H])[H])C([H])([H])[H])C(C([H])([H])[H])(C([H])([H])[H])C([H])([H])[H])C([H])([H])c2c([H])c(OC([H])([H])C([H])([H])C([H])([H])C([H])([H])C([H])([H])[N+]([H])(C([H])([H])[H])C([H])([H])C([H])([H])C([H])([H])C([H])([H])C([H])([H])C([H])([H])C([H])([H])C(=O)N3C([H])([H])C([H])([H])C([H])([H])C([H])(n4nc(-c5c([H])c([H])c(Oc6c([H])c([H])c(F)c([H])c6F)c([H])c5[H])c(C(=O)N([H])[H])c4N([H])[H])C3([H])[H])c([H])c([H])c2C1([H])[H]

$$$$
24:0:0
     RDKit          3D

 94103  0  0  1  0  0  0  0  0999 V2000
  -28.9460  -21.4710   22.5350 C   0  0  0  0  0  3  0  0  0  0  0  0
  -28.0040  -22.0540   20.3650 C   0  0  0  0  0  3  0  0  0  0  0  0
  -29.2090  -22.8370   22.7860 C   0  0  0  0  0  3  0  0  0  0  0  0
  -28.2750  -23.4130   20.6120 C   0  0  0  0  0  3  0  0  0  0  0  0
  -28.3460  -21.0760   21.3200 C   0  0  0  0  0  0  0  0  0  0  0  0
  -28.8820  -23.8160   21.8210 C   0  0  0  0  0  0  0  0  0  0  0  0
  -28.0770  -19.6130   21.0080 C   0  0  0  0  0  2  0  0  0  0  0  0
  -28.6510  -19.2020   19.6400 C   0  0  0  0  0  2  0  0  0  0  0  0
  -32.4280  -15.0490   19.6630 C   0  0  0  0  0  0  0  0  0  0  0  0
  -32.0740  -12.6240   19.4050 C   0  0  0  0  0  2  0  0  0  0  0  0
  -31.1530  -12.3680   18.1940 C   0  0  0  0  0  2  0  0  0  0  0  0
  -29.6700  -12.4310   18.6110 C   0  0  0  0  0  2  0  0  0  0  0  0
  -29.3380  -13.6970   19.4450 C   0  0  0  0  0  3  0  0  0  0  0  0
  -30.3690  -13.8900   20.5770 C   0  0  0  0  0  2  0  0  0  0  0  0
  -31.7120  -13.9320   19.9700 N   0  0  0  0  0  0  0  0  0  0  0  0
  -33.5330  -15.0050   19.1100 O   0  0  0  0  0  0  0  0  0  0  0  0
  -30.3930  -17.8060   18.4250 C   0  0  0  0  0  2  0  0  0  0  0  0
  -30.2690  -17.7320   20.9630 C   0  0  0  0  0  2  0  0  0  0  0  0
  -31.7510  -17.0970   18.5350 C   0  0  0  0  0  2  0  0  0  0  0  0
  -31.6150  -16.9790   20.9500 C   0  0  0  0  0  2  0  0  0  0  0  0
  -30.0730  -18.6080   19.7020 C   0  0  0  0  0  3  0  0  0  0  0  0
  -31.7380  -16.2120   19.7050 N   0  0  0  0  0  0  0  0  0  0  0  0
  -27.1190  -14.6970   20.2910 C   0  0  0  0  0  0  0  0  0  0  0  0
  -25.9360  -14.1140   20.6580 C   0  0  0  0  0  0  0  0  0  0  0  0
  -26.1300  -12.7060   20.5200 C   0  0  0  0  0  0  0  0  0  0  0  0
  -27.9720  -13.6520   19.9620 N   0  0  0  0  0  0  0  0  0  0  0  0
  -27.3770  -12.4460   20.1530 N   0  0  0  0  0  0  0  0  0  0  0  0
  -25.1830  -11.5920   20.6600 C   0  0  0  0  0  0  0  0  0  0  0  0
  -25.4540  -10.4950   21.5070 C   0  0  0  0  0  3  0  0  0  0  0  0
  -24.5200   -9.4450   21.6400 C   0  0  0  0  0  3  0  0  0  0  0  0
  -23.2990   -9.4870   20.9240 C   0  0  0  0  0  0  0  0  0  0  0  0
  -23.0450  -10.5700   20.0650 C   0  0  0  0  0  3  0  0  0  0  0  0
  -23.9770  -11.6120   19.9310 C   0  0  0  0  0  3  0  0  0  0  0  0
  -22.3440   -8.5010   20.9710 O   0  0  0  0  0  0  0  0  0  0  0  0
  -22.1320   -7.7580   22.1050 C   0  0  0  0  0  0  0  0  0  0  0  0
  -21.8330   -8.3610   23.3460 C   0  0  0  0  0  3  0  0  0  0  0  0
  -21.5540   -7.5580   24.4700 C   0  0  0  0  0  3  0  0  0  0  0  0
  -21.5610   -6.1550   24.3530 C   0  0  0  0  0  0  0  0  0  0  0  0
  -21.8530   -5.5530   23.1160 C   0  0  0  0  0  3  0  0  0  0  0  0
  -22.1340   -6.3530   21.9950 C   0  0  0  0  0  0  0  0  0  0  0  0
  -22.3930   -5.7670   20.8010 F   0  0  0  0  0  0  0  0  0  0  0  0
  -21.2850   -5.3830   25.4300 F   0  0  0  0  0  0  0  0  0  0  0  0
  -24.6640  -14.8250   21.0260 C   0  0  0  0  0  0  0  0  0  0  0  0
  -23.8550  -14.2240   21.8920 N   0  0  0  0  0  0  0  0  0  0  0  0
  -24.4050  -15.9420   20.5820 O   0  0  0  0  0  0  0  0  0  0  0  0
  -24.0790  -13.3170   22.2720 H   0  0  0  0  0  0  0  0  0  0  0  0
  -23.0010  -14.6800   22.1800 H   0  0  0  0  0  0  0  0  0  0  0  0
  -27.5330  -16.0190   20.1920 N   0  0  0  0  0  0  0  0  0  0  0  0
  -26.9110  -16.7960   20.3840 H   0  0  0  0  0  0  0  0  0  0  0  0
  -28.4520  -16.3100   19.8880 H   0  0  0  0  0  0  0  0  0  0  0  0
  -29.1340  -25.3000   22.0670 C   0  0  0  0  0  2  0  0  0  0  0  0
  -30.6150  -25.7000   22.1990 C   0  0  0  0  0  2  0  0  0  0  0  0
  -30.8330  -27.2120   22.0050 C   0  0  0  0  0  2  0  0  0  0  0  0
  -30.3340  -27.5960   20.7240 O   0  0  0  0  0  0  0  0  0  0  0  0
  -25.1710  -31.6530   23.5240 C   0  0  0  0  0  0  0  0  0  0  0  0
  -29.0500  -28.0800   20.6700 C   0  0  0  0  0  0  0  0  0  0  0  0
  -24.4890  -30.1150   21.7070 C   0  0  0  0  0  3  0  0  0  0  0  0
  -26.3960  -29.0040   20.4300 C   0  0  0  0  0  0  0  0  0  0  0  0
  -26.8730  -31.0280   21.8190 C   0  0  0  0  0  2  0  0  0  0  0  0
  -27.3300  -29.7400   21.1700 C   0  0  0  0  0  0  0  0  0  0  0  0
  -28.6590  -29.2860   21.2950 C   0  0  0  0  0  3  0  0  0  0  0  0
  -28.1060  -27.3560   19.9160 C   0  0  0  0  0  3  0  0  0  0  0  0
  -26.7760  -27.8050   19.8030 C   0  0  0  0  0  3  0  0  0  0  0  0
  -24.9960  -29.5710   20.3440 C   0  0  0  0  0  2  0  0  0  0  0  0
  -25.5190  -30.9470   22.4110 N   0  0  0  0  0  0  0  0  0  0  0  0
  -24.0050  -31.6570   23.9400 O   0  0  0  0  0  0  0  0  0  0  0  0
  -23.9780  -28.9270   22.5540 C   0  0  0  0  0  0  0  0  0  0  0  0
  -22.7650  -28.4460   22.2370 N   0  0  0  0  0  0  0  0  0  0  0  0
  -24.6730  -28.4420   23.4500 O   0  0  0  0  0  0  0  0  0  0  0  0
  -22.2520  -28.9090   21.5000 H   0  0  0  0  0  0  0  0  0  0  0  0
  -19.7370  -26.4770   22.2230 C   0  0  0  0  0  0  0  0  0  0  0  0
  -22.0970  -27.3110   22.8710 C   0  0  0  0  0  3  0  0  0  0  0  0
  -22.6150  -25.9700   22.3030 C   0  0  0  0  0  2  0  0  0  0  0  0
  -21.7740  -25.4430   21.1360 C   0  0  0  0  0  2  0  0  0  0  0  0
  -20.3200  -25.2360   21.5710 C   0  0  0  0  0  2  0  0  0  0  0  0
  -20.5710  -27.4590   22.8210 C   0  0  0  0  0  0  0  0  0  0  0  0
  -19.9770  -28.6110   23.3830 C   0  0  0  0  0  3  0  0  0  0  0  0
  -18.5810  -28.7870   23.3590 C   0  0  0  0  0  3  0  0  0  0  0  0
  -17.7590  -27.8030   22.7800 C   0  0  0  0  0  3  0  0  0  0  0  0
  -18.3370  -26.6500   22.2170 C   0  0  0  0  0  3  0  0  0  0  0  0
  -26.2140  -32.5060   24.3120 C   0  0  0  0  0  3  0  0  0  0  0  0
  -25.6620  -33.8600   24.4470 N   0  0  0  0  0  0  0  0  0  0  0  0
  -25.9890  -34.8940   23.6610 C   0  0  0  0  0  0  0  0  0  0  0  0
  -26.8540  -34.8230   22.7830 O   0  0  0  0  0  0  0  0  0  0  0  0
  -24.9120  -33.9810   25.1110 H   0  0  0  0  0  0  0  0  0  0  0  0
  -24.1370  -36.3760   22.8280 C   0  0  0  0  0  1  0  0  0  0  0  0
  -25.2400  -36.2210   23.8860 C   0  0  0  0  0  3  0  0  0  0  0  0
  -27.0500  -37.4610   24.9880 C   0  0  0  0  0  1  0  0  0  0  0  0
  -26.1220  -37.4080   23.8620 N   0  0  0  0  0  0  0  0  0  0  0  0
  -25.5750  -38.2640   23.8620 H   0  0  0  0  0  0  0  0  0  0  0  0
  -26.5750  -31.9050   25.7260 C   0  0  1  0  0  0  0  0  0  0  0  0
  -25.3370  -31.5440   26.5800 C   0  0  0  0  0  1  0  0  0  0  0  0
  -27.4320  -30.6260   25.5700 C   0  0  0  0  0  1  0  0  0  0  0  0
  -27.4290  -32.9170   26.5260 C   0  0  0  0  0  1  0  0  0  0  0  0
  1  3  1  0
  2  4  2  0
  2  5  1  0
  4  6  1  0
  5  1  2  0
  6 51  1  0
  6  3  2  0
  7  5  1  0
  8  7  1  0
  9 22  1  0
  9 15  1  0
 10 15  1  0
 11 12  1  0
 11 10  1  0
 13 12  1  0
 13 26  1  0
 13 14  1  0
 15 14  1  0
 16  9  2  0
 17 19  1  0
 17 21  1  0
 19 22  1  0
 20 18  1  0
 21  8  1  0
 21 18  1  0
 22 20  1  0
 23 24  2  0
 24 43  1  0
 25 24  1  0
 25 28  1  0
 26 27  1  0
 26 23  1  0
 27 25  2  0
 28 29  1  0
 29 30  2  0
 31 34  1  0
 31 30  1  0
 32 31  2  0
 33 32  1  0
 33 28  2  0
 34 35  1  0
 35 36  1  0
 36 37  2  0
 38 37  1  0
 38 42  1  0
 39 38  2  0
 40 35  2  0
 40 39  1  0
 41 40  1  0
 43 44  1  0
 44 47  1  0
 44 46  1  0
 45 43  2  0
 48 23  1  0
 48 49  1  0
 50 48  1  0
 51 52  1  0
 53 52  1  0
 54 53  1  0
 55 66  2  0
 56 54  1  0
 56 61  1  0
 57 65  1  0
 57 67  1  0
 58 60  1  0
 59 65  1  0
 60 61  2  0
 60 59  1  0
 62 56  2  0
 63 62  1  0
 63 58  2  0
 64 58  1  0
 64 57  1  0
 65 55  1  0
 67 69  2  0
 68 67  1  0
 70 68  1  0
 71 76  1  0
 72 68  1  0
 73 72  1  0
 74 75  1  0
 74 73  1  0
 75 71  1  0
 76 72  1  0
 76 77  2  0
 78 77  1  0
 79 78  2  0
 80 71  2  0
 80 79  1  0
 81 55  1  0
 81 82  1  0
 81 91  1  0
 82 85  1  0
 83 87  1  0
 83 82  1  0
 84 83  2  0
 87 86  1  0
 89 90  1  0
 89 87  1  0
 89 88  1  0
 91 94  1  1
 91 92  1  0
 93 91  1  0
M  ISO  4   9 100  22 100  53 101  54 101
M  END
>  <TORSDO>  (25) 
F 21

>  <SCORE>  (25) 
-8.368

>  <name>  (25) 
24

>  <ligand_id>  (25) 
24

>  <original_smiles>  (25) 
[H]c1c([H])c([H])c2c(c1[H])C([H])([H])C([H])([H])C([H])([H])C2([H])N([H])C(=O)C1([H])N(C(=O)C([H])(N([H])C(=O)C([H])(N([H])C([H])([H])[H])C([H])([H])[H])C(C([H])([H])[H])(C([H])([H])[H])C([H])([H])[H])C([H])([H])c2c([H])c(OC([H])([H])C([H])([H])C([H])([H])c3c([H])c([H])c(C([H])([H])C([H])([H])C4([H])C([H])([H])C([H])([H])N(C(=O)N5C([H])([H])C([H])([H])C([H])([H])C([H])(n6nc(-c7c([H])c([H])c(Oc8c([H])c([H])c(F)c([H])c8F)c([H])c7[H])c(C(=O)N([H])[H])c6N([H])[H])C5([H])[H])C([H])([H])C4([H])[H])c([H])c3[H])c([H])c([H])c2C1([H])[H]

>  <smiles>  (25) 
[H]c1c([H])c([H])c2c(c1[H])C([H])([H])C([H])([H])C([H])([H])C2([H])N([H])C(=O)C1([H])N(C(=O)C([H])(N([H])C(=O)C([H])(N([H])C([H])([H])[H])C([H])([H])[H])C(C([H])([H])[H])(C([H])([H])[H])C([H])([H])[H])C([H])([H])c2c([H])c(OC([H])([H])C([H])([H])C([H])([H])c3c([H])c([H])c(C([H])([H])C([H])([H])C4([H])C([H])([H])C([H])([H])N(C(=O)N5C([H])([H])C([H])([H])C([H])([H])C([H])(n6nc(-c7c([H])c([H])c(Oc8c([H])c([H])c(F)c([H])c8F)c([H])c7[H])c(C(=O)N([H])[H])c6N([H])[H])C5([H])[H])C([H])([H])C4([H])[H])c([H])c3[H])c([H])c([H])c2C1([H])[H]

$$$$
25:0:0
     RDKit          3D

 89 96  0  0  1  0  0  0  0  0999 V2000
  -29.3570  -21.6810   20.6570 C   0  0  0  0  0  2  0  0  0  0  0  0
  -28.7480  -22.9970   21.2180 C   0  0  0  0  0  2  0  0  0  0  0  0
  -28.9030  -24.2700   20.3390 C   0  0  0  0  0  2  0  0  0  0  0  0
  -28.3180  -25.5350   21.0250 C   0  0  0  0  0  2  0  0  0  0  0  0
  -28.4600  -26.7530   20.2630 O   0  0  0  0  0  0  0  0  0  0  0  0
  -24.5700  -31.9110   23.2790 C   0  0  0  0  0  0  0  0  0  0  0  0
  -27.3150  -27.5180   20.2230 C   0  0  0  0  0  0  0  0  0  0  0  0
  -23.4140  -30.5180   21.5950 C   0  0  0  0  0  3  0  0  0  0  0  0
  -24.9130  -29.0080   20.1870 C   0  0  0  0  0  0  0  0  0  0  0  0
  -25.9400  -30.9010   21.4580 C   0  0  0  0  0  2  0  0  0  0  0  0
  -26.0540  -29.5370   20.8040 C   0  0  0  0  0  0  0  0  0  0  0  0
  -27.2620  -28.8010   20.8170 C   0  0  0  0  0  3  0  0  0  0  0  0
  -26.1630  -27.0060   19.5910 C   0  0  0  0  0  3  0  0  0  0  0  0
  -24.9630  -27.7420   19.5750 C   0  0  0  0  0  3  0  0  0  0  0  0
  -23.6610  -29.8540   20.2130 C   0  0  0  0  0  2  0  0  0  0  0  0
  -24.6580  -31.1230   22.1700 N   0  0  0  0  0  0  0  0  0  0  0  0
  -23.4750  -32.1680   23.7970 O   0  0  0  0  0  0  0  0  0  0  0  0
  -22.7480  -29.4820   22.5300 C   0  0  0  0  0  0  0  0  0  0  0  0
  -21.4280  -29.2950   22.3750 N   0  0  0  0  0  0  0  0  0  0  0  0
  -23.4180  -28.8480   23.3500 O   0  0  0  0  0  0  0  0  0  0  0  0
  -20.9480  -29.8570   21.6860 H   0  0  0  0  0  0  0  0  0  0  0  0
  -18.0460  -28.0920   22.8020 C   0  0  0  0  0  0  0  0  0  0  0  0
  -20.6000  -28.3440   23.1170 C   0  0  0  0  0  3  0  0  0  0  0  0
  -20.7120  -26.9230   22.5170 C   0  0  0  0  0  2  0  0  0  0  0  0
  -19.6250  -26.6200   21.4810 C   0  0  0  0  0  2  0  0  0  0  0  0
  -18.2330  -26.7550   22.1070 C   0  0  0  0  0  2  0  0  0  0  0  0
  -19.1590  -28.8460   23.2630 C   0  0  0  0  0  0  0  0  0  0  0  0
  -18.9320  -30.0990   23.8720 C   0  0  0  0  0  3  0  0  0  0  0  0
  -17.6250  -30.5990   24.0250 C   0  0  0  0  0  3  0  0  0  0  0  0
  -16.5260  -29.8420   23.5820 C   0  0  0  0  0  3  0  0  0  0  0  0
  -16.7380  -28.5900   22.9770 C   0  0  0  0  0  3  0  0  0  0  0  0
  -25.8370  -32.5450   23.9340 C   0  0  0  0  0  3  0  0  0  0  0  0
  -25.5200  -33.9450   24.2470 N   0  0  0  0  0  0  0  0  0  0  0  0
  -25.8790  -34.9920   23.4920 C   0  0  0  0  0  0  0  0  0  0  0  0
  -26.5800  -34.8820   22.4840 O   0  0  0  0  0  0  0  0  0  0  0  0
  -24.9020  -34.1050   25.0280 H   0  0  0  0  0  0  0  0  0  0  0  0
  -24.1700  -36.7860   23.0620 C   0  0  0  0  0  1  0  0  0  0  0  0
  -25.3780  -36.3840   23.9240 C   0  0  0  0  0  3  0  0  0  0  0  0
  -27.4790  -37.2670   24.8360 C   0  0  0  0  0  1  0  0  0  0  0  0
  -26.4160  -37.4350   23.8490 N   0  0  0  0  0  0  0  0  0  0  0  0
  -26.0060  -38.3560   23.9770 H   0  0  0  0  0  0  0  0  0  0  0  0
  -26.3180  -31.7800   25.2280 C   0  0  1  0  0  0  0  0  0  0  0  0
  -25.1930  -31.5440   26.2640 C   0  0  0  0  0  1  0  0  0  0  0  0
  -26.9140  -30.4030   24.8570 C   0  0  0  0  0  1  0  0  0  0  0  0
  -27.4460  -32.5790   25.9210 C   0  0  0  0  0  1  0  0  0  0  0  0
  -29.1310  -20.4680   21.6090 C   0  0  0  0  0  2  0  0  0  0  0  0
  -31.4430  -19.4140   21.1960 C   0  0  0  0  0  1  0  0  0  0  0  0
  -29.9350  -19.1520   21.3580 C   0  0  0  0  0  3  0  0  0  0  0  0
  -29.3320  -18.2380   20.2550 C   0  0  0  0  0  2  0  0  0  0  0  0
  -30.0740  -15.7690   20.5470 C   0  0  0  0  0  3  0  0  0  0  0  0
  -30.1440  -16.9760   19.9210 C   0  0  0  0  0  0  0  0  0  0  0  0
  -30.8720  -14.6020   20.1310 C   0  0  0  0  0  0  0  0  0  0  0  0
  -30.5630  -12.4150   19.0580 C   0  0  0  0  0  2  0  0  0  0  0  0
  -29.5850  -12.6020   17.8770 C   0  0  0  0  0  2  0  0  0  0  0  0
  -28.1200  -12.4740   18.3470 C   0  0  0  0  0  2  0  0  0  0  0  0
  -27.8200  -13.3170   19.6140 C   0  0  0  0  0  3  0  0  0  0  0  0
  -28.9070  -13.1010   20.6880 C   0  0  0  0  0  2  0  0  0  0  0  0
  -30.2130  -13.4100   20.0850 N   0  0  0  0  0  0  0  0  0  0  0  0
  -32.0260  -14.7090   19.7040 O   0  0  0  0  0  0  0  0  0  0  0  0
  -25.4460  -13.9270   20.3980 C   0  0  0  0  0  0  0  0  0  0  0  0
  -24.3920  -13.1580   20.8110 C   0  0  0  0  0  0  0  0  0  0  0  0
  -24.8540  -11.8070   20.7780 C   0  0  0  0  0  0  0  0  0  0  0  0
  -26.4830  -13.0450   20.1400 N   0  0  0  0  0  0  0  0  0  0  0  0
  -26.1320  -11.7650   20.4260 N   0  0  0  0  0  0  0  0  0  0  0  0
  -24.1370  -10.5460   21.0080 C   0  0  0  0  0  0  0  0  0  0  0  0
  -24.5700   -9.6140   21.9760 C   0  0  0  0  0  3  0  0  0  0  0  0
  -23.8540   -8.4170   22.1880 C   0  0  0  0  0  3  0  0  0  0  0  0
  -22.6910   -8.1420   21.4290 C   0  0  0  0  0  0  0  0  0  0  0  0
  -22.2780   -9.0630   20.4500 C   0  0  0  0  0  3  0  0  0  0  0  0
  -22.9950  -10.2510   20.2370 C   0  0  0  0  0  3  0  0  0  0  0  0
  -21.9460   -6.9940   21.5480 O   0  0  0  0  0  0  0  0  0  0  0  0
  -21.8560   -6.3130   22.7360 C   0  0  0  0  0  0  0  0  0  0  0  0
  -21.3420   -6.9170   23.9040 C   0  0  0  0  0  3  0  0  0  0  0  0
  -21.2010   -6.1610   25.0850 C   0  0  0  0  0  3  0  0  0  0  0  0
  -21.5670   -4.8010   25.0980 C   0  0  0  0  0  0  0  0  0  0  0  0
  -22.0740   -4.1970   23.9360 C   0  0  0  0  0  3  0  0  0  0  0  0
  -22.2150   -4.9500   22.7560 C   0  0  0  0  0  0  0  0  0  0  0  0
  -22.6850   -4.3560   21.6330 F   0  0  0  0  0  0  0  0  0  0  0  0
  -21.4260   -4.0730   26.2310 F   0  0  0  0  0  0  0  0  0  0  0  0
  -23.0030  -13.6370   21.1240 C   0  0  0  0  0  0  0  0  0  0  0  0
  -22.3020  -12.9450   22.0160 N   0  0  0  0  0  0  0  0  0  0  0  0
  -22.5470  -14.6590   20.6110 O   0  0  0  0  0  0  0  0  0  0  0  0
  -22.6900  -12.1240   22.4560 H   0  0  0  0  0  0  0  0  0  0  0  0
  -21.3680  -13.2430   22.2610 H   0  0  0  0  0  0  0  0  0  0  0  0
  -25.6040  -15.2970   20.2050 N   0  0  0  0  0  0  0  0  0  0  0  0
  -24.8430  -15.9530   20.3380 H   0  0  0  0  0  0  0  0  0  0  0  0
  -26.4510  -15.7350   19.8610 H   0  0  0  0  0  0  0  0  0  0  0  0
  -30.9200  -17.2300   18.8560 O   0  0  0  0  0  0  0  0  0  0  0  0
  -30.8310  -18.1520   18.6470 H   0  0  0  0  0  0  0  0  0  0  0  0
  1  2  1  0
  1 46  1  0
  3  4  1  0
  3  2  1  0
  5  4  1  0
  6 17  2  0
  7  5  1  0
  7 12  1  0
  8 16  1  0
  8 18  1  0
  9 15  1  0
  9 11  1  0
 10 16  1  0
 11 12  2  0
 11 10  1  0
 13  7  2  0
 14 13  1  0
 14  9  2  0
 15  8  1  0
 16  6  1  0
 18 20  2  0
 19 18  1  0
 21 19  1  0
 22 31  2  0
 22 27  1  0
 23 19  1  0
 23 27  1  0
 24 23  1  0
 25 26  1  0
 25 24  1  0
 26 22  1  0
 27 28  2  0
 28 29  1  0
 30 29  2  0
 31 30  1  0
 32  6  1  0
 32 33  1  0
 32 42  1  0
 33 36  1  0
 34 38  1  0
 34 33  1  0
 35 34  2  0
 38 37  1  0
 40 38  1  0
 40 41  1  0
 40 39  1  0
 42 45  1  1
 42 43  1  0
 44 42  1  0
 48 47  1  0
 48 46  1  0
 49 48  1  0
 51 49  1  0
 51 50  2  0
 52 50  1  0
 53 58  1  0
 54 55  1  0
 54 53  1  0
 56 55  1  0
 56 63  1  0
 56 57  1  0
 58 52  1  0
 58 57  1  0
 59 52  2  0
 60 61  2  0
 61 80  1  0
 62 61  1  0
 62 65  1  0
 63 60  1  0
 63 64  1  0
 64 62  2  0
 65 66  1  0
 66 67  2  0
 68 71  1  0
 68 67  1  0
 69 68  2  0
 70 69  1  0
 70 65  2  0
 71 72  1  0
 72 77  2  0
 72 73  1  0
 73 74  2  0
 74 75  1  0
 75 79  1  0
 76 75  2  0
 77 76  1  0
 78 77  1  0
 80 81  1  0
 81 84  1  0
 81 83  1  0
 82 80  2  0
 85 86  1  0
 85 60  1  0
 87 85  1  0
 88 51  1  0
 89 88  1  0
M  ISO  4   4 101   5 101  50 100  52 100
M  END
>  <TORSDO>  (26) 
F 24

>  <SCORE>  (26) 
-12.090

>  <name>  (26) 
25

>  <ligand_id>  (26) 
25

>  <original_smiles>  (26) 
[H]OC(=C([H])C(=O)N1C([H])([H])C([H])([H])C([H])([H])C([H])(n2nc(-c3c([H])c([H])c(Oc4c([H])c([H])c(F)c([H])c4F)c([H])c3[H])c(C(=O)N([H])[H])c2N([H])[H])C1([H])[H])C([H])([H])C([H])(C([H])([H])[H])C([H])([H])C([H])([H])C([H])([H])C([H])([H])C([H])([H])Oc1c([H])c([H])c2c(c1[H])C([H])([H])N(C(=O)C([H])(N([H])C(=O)C([H])(N([H])C([H])([H])[H])C([H])([H])[H])C(C([H])([H])[H])(C([H])([H])[H])C([H])([H])[H])C([H])(C(=O)N([H])C1([H])c3c([H])c([H])c([H])c([H])c3C([H])([H])C([H])([H])C1([H])[H])C2([H])[H]

>  <smiles>  (26) 
[H]OC(=C([H])C(=O)N1C([H])([H])C([H])([H])C([H])([H])C([H])(n2nc(-c3c([H])c([H])c(Oc4c([H])c([H])c(F)c([H])c4F)c([H])c3[H])c(C(=O)N([H])[H])c2N([H])[H])C1([H])[H])C([H])([H])C([H])(C([H])([H])[H])C([H])([H])C([H])([H])C([H])([H])C([H])([H])C([H])([H])Oc1c([H])c([H])c2c(c1[H])C([H])([H])N(C(=O)C([H])(N([H])C(=O)C([H])(N([H])C([H])([H])[H])C([H])([H])[H])C(C([H])([H])[H])(C([H])([H])[H])C([H])([H])[H])C([H])(C(=O)N([H])C1([H])c3c([H])c([H])c([H])c([H])c3C([H])([H])C([H])([H])C1([H])[H])C2([H])[H]

$$$$
26:0:0
     RDKit          3D

 93100  0  0  1  0  0  0  0  0999 V2000
  -28.3160  -21.6490   21.8110 C   0  0  0  0  0  2  0  0  0  0  0  0
  -28.2080  -20.3420   21.0110 C   0  0  0  0  0  2  0  0  0  0  0  0
  -29.4730  -19.4880   21.2090 C   0  0  0  0  0  2  0  0  0  0  0  0
  -29.3750  -18.0630   20.6350 C   0  0  0  0  0  2  0  0  0  0  0  0
  -30.7300  -17.3070   20.6190 C   0  0  0  0  0  3  0  0  0  0  0  0
  -31.2370  -14.8020   20.4310 C   0  0  0  0  0  0  0  0  0  0  0  0
  -30.8790  -12.7040   19.2200 C   0  0  0  0  0  2  0  0  0  0  0  0
  -29.9580  -13.0200   18.0240 C   0  0  0  0  0  2  0  0  0  0  0  0
  -28.4700  -12.9570   18.4290 C   0  0  0  0  0  2  0  0  0  0  0  0
  -28.1640  -13.7320   19.7390 C   0  0  0  0  0  3  0  0  0  0  0  0
  -29.1960  -13.3920   20.8390 C   0  0  0  0  0  2  0  0  0  0  0  0
  -30.5390  -13.6470   20.2910 N   0  0  0  0  0  0  0  0  0  0  0  0
  -32.4250  -14.9220   20.1380 O   0  0  0  0  0  0  0  0  0  0  0  0
  -30.4410  -15.8630   20.6530 N   0  0  0  0  0  0  0  0  0  0  0  0
  -29.4790  -15.6180   20.8280 H   0  0  0  0  0  0  0  0  0  0  0  0
  -25.7840  -14.4280   20.4280 C   0  0  0  0  0  0  0  0  0  0  0  0
  -24.6790  -13.6930   20.7610 C   0  0  0  0  0  0  0  0  0  0  0  0
  -25.0830  -12.3240   20.7000 C   0  0  0  0  0  0  0  0  0  0  0  0
  -26.7950  -13.5080   20.1920 N   0  0  0  0  0  0  0  0  0  0  0  0
  -26.3760  -12.2360   20.4130 N   0  0  0  0  0  0  0  0  0  0  0  0
  -24.3030  -11.0900   20.8430 C   0  0  0  0  0  0  0  0  0  0  0  0
  -24.6790  -10.0850   21.7620 C   0  0  0  0  0  3  0  0  0  0  0  0
  -23.9040   -8.9120   21.8980 C   0  0  0  0  0  3  0  0  0  0  0  0
  -22.7390   -8.7390   21.1120 C   0  0  0  0  0  0  0  0  0  0  0  0
  -22.3820   -9.7330   20.1830 C   0  0  0  0  0  3  0  0  0  0  0  0
  -23.1570  -10.8950   20.0470 C   0  0  0  0  0  3  0  0  0  0  0  0
  -21.9400   -7.6210   21.1550 O   0  0  0  0  0  0  0  0  0  0  0  0
  -21.8050   -6.8780   22.3000 C   0  0  0  0  0  0  0  0  0  0  0  0
  -21.3470   -7.4460   23.5070 C   0  0  0  0  0  3  0  0  0  0  0  0
  -21.1530   -6.6310   24.6410 C   0  0  0  0  0  3  0  0  0  0  0  0
  -21.4090   -5.2500   24.5680 C   0  0  0  0  0  0  0  0  0  0  0  0
  -21.8630   -4.6800   23.3650 C   0  0  0  0  0  3  0  0  0  0  0  0
  -22.0580   -5.4930   22.2340 C   0  0  0  0  0  0  0  0  0  0  0  0
  -22.4720   -4.9350   21.0720 F   0  0  0  0  0  0  0  0  0  0  0  0
  -21.2160   -4.4670   25.6550 F   0  0  0  0  0  0  0  0  0  0  0  0
  -23.2980  -14.2190   21.0230 C   0  0  0  0  0  0  0  0  0  0  0  0
  -22.5400  -13.5480   21.8830 N   0  0  0  0  0  0  0  0  0  0  0  0
  -22.9000  -15.2590   20.5030 O   0  0  0  0  0  0  0  0  0  0  0  0
  -22.8680  -12.7010   22.3220 H   0  0  0  0  0  0  0  0  0  0  0  0
  -21.6130  -13.8850   22.1010 H   0  0  0  0  0  0  0  0  0  0  0  0
  -26.0040  -15.7970   20.2860 N   0  0  0  0  0  0  0  0  0  0  0  0
  -25.2500  -16.4660   20.3890 H   0  0  0  0  0  0  0  0  0  0  0  0
  -26.8620  -16.2180   19.9570 H   0  0  0  0  0  0  0  0  0  0  0  0
  -33.1020  -17.8290   19.6990 C   0  0  0  0  0  1  0  0  0  0  0  0
  -31.5880  -17.7880   19.3980 C   0  0  0  0  0  3  0  0  0  0  0  0
  -31.8500  -17.7240   16.8170 C   0  0  0  0  0  1  0  0  0  0  0  0
  -31.2630  -17.0600   18.0720 C   0  0  0  0  0  2  0  0  0  0  0  0
  -27.0730  -22.5510   21.7160 C   0  0  0  0  0  2  0  0  0  0  0  0
  -27.3040  -23.9920   22.2180 C   0  0  0  0  0  2  0  0  0  0  0  0
  -28.3960  -24.7730   21.4580 C   0  0  0  0  0  2  0  0  0  0  0  0
  -28.5840  -26.2170   21.9540 C   0  0  0  0  0  2  0  0  0  0  0  0
  -29.3910  -27.0830   20.9640 C   0  0  0  0  0  2  0  0  0  0  0  0
  -28.7020  -27.2450   19.7150 O   0  0  0  0  0  0  0  0  0  0  0  0
  -24.5290  -31.8410   23.1570 C   0  0  0  0  0  0  0  0  0  0  0  0
  -27.5010  -27.9130   19.7660 C   0  0  0  0  0  0  0  0  0  0  0  0
  -23.4170  -30.4860   21.3990 C   0  0  0  0  0  3  0  0  0  0  0  0
  -24.9810  -29.1830   19.8620 C   0  0  0  0  0  0  0  0  0  0  0  0
  -25.8970  -31.0770   21.2250 C   0  0  0  0  0  2  0  0  0  0  0  0
  -26.0870  -29.7650   20.4950 C   0  0  0  0  0  0  0  0  0  0  0  0
  -27.3440  -29.1360   20.4530 C   0  0  0  0  0  3  0  0  0  0  0  0
  -26.3900  -27.3470   19.1060 C   0  0  0  0  0  3  0  0  0  0  0  0
  -25.1250  -27.9680   19.1650 C   0  0  0  0  0  3  0  0  0  0  0  0
  -23.6710  -29.9320   19.9670 C   0  0  0  0  0  2  0  0  0  0  0  0
  -24.6330  -31.1420   21.9920 N   0  0  0  0  0  0  0  0  0  0  0  0
  -23.4350  -31.9870   23.7220 O   0  0  0  0  0  0  0  0  0  0  0  0
  -22.8540  -29.3460   22.2740 C   0  0  0  0  0  0  0  0  0  0  0  0
  -21.5410  -29.0860   22.1540 N   0  0  0  0  0  0  0  0  0  0  0  0
  -23.5910  -28.7010   23.0220 O   0  0  0  0  0  0  0  0  0  0  0  0
  -20.9910  -29.6770   21.5490 H   0  0  0  0  0  0  0  0  0  0  0  0
  -18.2630  -27.6600   22.6110 C   0  0  0  0  0  0  0  0  0  0  0  0
  -20.8080  -28.0340   22.8550 C   0  0  0  0  0  3  0  0  0  0  0  0
  -20.9730  -26.6730   22.1420 C   0  0  0  0  0  2  0  0  0  0  0  0
  -19.8670  -26.3910   21.1190 C   0  0  0  0  0  2  0  0  0  0  0  0
  -18.4930  -26.3990   21.7990 C   0  0  0  0  0  2  0  0  0  0  0  0
  -19.3490  -28.4390   23.0950 C   0  0  0  0  0  0  0  0  0  0  0  0
  -19.0750  -29.6250   23.8060 C   0  0  0  0  0  3  0  0  0  0  0  0
  -17.7510  -30.0390   24.0400 C   0  0  0  0  0  3  0  0  0  0  0  0
  -16.6790  -29.2550   23.5750 C   0  0  0  0  0  3  0  0  0  0  0  0
  -16.9370  -28.0690   22.8650 C   0  0  0  0  0  3  0  0  0  0  0  0
  -25.7680  -32.5160   23.8240 C   0  0  0  0  0  3  0  0  0  0  0  0
  -26.2820  -31.7480   25.1020 C   0  0  1  0  0  0  0  0  0  0  0  0
  -25.1730  -31.4520   26.1390 C   0  0  0  0  0  1  0  0  0  0  0  0
  -26.9240  -30.4020   24.7010 C   0  0  0  0  0  1  0  0  0  0  0  0
  -27.3860  -32.5730   25.8020 C   0  0  0  0  0  1  0  0  0  0  0  0
  -25.3940  -33.8970   24.1610 N   0  0  0  0  0  0  0  0  0  0  0  0
  -25.7160  -34.9710   23.4250 C   0  0  0  0  0  0  0  0  0  0  0  0
  -26.4260  -34.9060   22.4180 O   0  0  0  0  0  0  0  0  0  0  0  0
  -24.7790  -34.0230   24.9500 H   0  0  0  0  0  0  0  0  0  0  0  0
  -23.9310  -36.6930   23.0250 C   0  0  0  0  0  1  0  0  0  0  0  0
  -25.1590  -36.3340   23.8800 C   0  0  0  0  0  3  0  0  0  0  0  0
  -27.2270  -37.2890   24.7920 C   0  0  0  0  0  1  0  0  0  0  0  0
  -26.1540  -37.4290   23.8130 N   0  0  0  0  0  0  0  0  0  0  0  0
  -25.7080  -38.3320   23.9550 H   0  0  0  0  0  0  0  0  0  0  0  0
  2  3  1  0
  2  1  1  0
  4  3  1  0
  5  4  1  0
  5 14  1  0
  6 14  1  0
  7 12  1  0
  8  9  1  0
  8  7  1  0
 10  9  1  0
 10 19  1  0
 10 11  1  0
 12  6  1  0
 12 11  1  0
 13  6  2  0
 14 15  1  0
 16 17  2  0
 17 36  1  0
 18 17  1  0
 18 21  1  0
 19 20  1  0
 19 16  1  0
 20 18  2  0
 21 22  1  0
 22 23  2  0
 24 27  1  0
 24 23  1  0
 25 24  2  0
 26 25  1  0
 26 21  2  0
 27 28  1  0
 28 29  1  0
 29 30  2  0
 31 30  1  0
 31 35  1  0
 32 31  2  0
 33 28  2  0
 33 32  1  0
 34 33  1  0
 36 37  1  0
 37 40  1  0
 37 39  1  0
 38 36  2  0
 41 42  1  0
 41 16  1  0
 43 41  1  0
 45 44  1  0
 45  5  1  0
 46 47  1  0
 47 45  1  0
 48  1  1  0
 48 49  1  0
 50 51  1  0
 50 49  1  0
 52 51  1  0
 53 55  1  0
 53 52  1  0
 54 65  2  0
 55 60  1  0
 56 64  1  0
 56 66  1  0
 57 63  1  0
 57 59  1  0
 58 64  1  0
 59 58  1  0
 60 59  2  0
 61 62  1  0
 61 55  2  0
 62 57  2  0
 63 56  1  0
 64 54  1  0
 66 68  2  0
 67 66  1  0
 69 67  1  0
 70 79  2  0
 70 75  1  0
 71 67  1  0
 71 75  1  0
 72 71  1  0
 73 74  1  0
 73 72  1  0
 74 70  1  0
 75 76  2  0
 76 77  1  0
 78 77  2  0
 79 78  1  0
 80 54  1  0
 80 85  1  0
 80 81  1  0
 81 84  1  1
 81 82  1  0
 83 81  1  0
 85 88  1  0
 86 90  1  0
 86 85  1  0
 87 86  2  0
 90 89  1  0
 92 90  1  0
 92 93  1  0
 92 91  1  0
M  ISO  4   6 100  14 100  52 101  53 101
M  END
>  <TORSDO>  (27) 
F 27

>  <SCORE>  (27) 
-9.788

>  <name>  (27) 
26

>  <ligand_id>  (27) 
26

>  <original_smiles>  (27) 
[H]c1c([H])c([H])c2c(c1[H])C([H])([H])C([H])([H])C([H])([H])C2([H])N([H])C(=O)C1([H])N(C(=O)C([H])(N([H])C(=O)C([H])(N([H])C([H])([H])[H])C([H])([H])[H])C(C([H])([H])[H])(C([H])([H])[H])C([H])([H])[H])C([H])([H])c2c([H])c(OC([H])([H])C([H])([H])C([H])([H])C([H])([H])C([H])([H])C([H])([H])C([H])([H])C([H])([H])C([H])([H])C([H])(N([H])C(=O)N3C([H])([H])C([H])([H])C([H])([H])C([H])(n4nc(-c5c([H])c([H])c(Oc6c([H])c([H])c(F)c([H])c6F)c([H])c5[H])c(C(=O)N([H])[H])c4N([H])[H])C3([H])[H])C([H])(C([H])([H])[H])C([H])([H])C([H])([H])[H])c([H])c([H])c2C1([H])[H]

>  <smiles>  (27) 
[H]c1c([H])c([H])c2c(c1[H])C([H])([H])C([H])([H])C([H])([H])C2([H])N([H])C(=O)C1([H])N(C(=O)C([H])(N([H])C(=O)C([H])(N([H])C([H])([H])[H])C([H])([H])[H])C(C([H])([H])[H])(C([H])([H])[H])C([H])([H])[H])C([H])([H])c2c([H])c(OC([H])([H])C([H])([H])C([H])([H])C([H])([H])C([H])([H])C([H])([H])C([H])([H])C([H])([H])C([H])([H])C([H])(N([H])C(=O)N3C([H])([H])C([H])([H])C([H])([H])C([H])(n4nc(-c5c([H])c([H])c(Oc6c([H])c([H])c(F)c([H])c6F)c([H])c5[H])c(C(=O)N([H])[H])c4N([H])[H])C3([H])[H])C([H])(C([H])([H])[H])C([H])([H])C([H])([H])[H])c([H])c([H])c2C1([H])[H]

$$$$
27:0:0
     RDKit          3D

 94101  0  0  1  0  0  0  0  0999 V2000
  -24.9970  -21.4450   19.5060 C   0  0  0  0  0  2  0  0  0  0  0  0
  -26.3180  -21.5040   20.3030 C   0  0  0  0  0  2  0  0  0  0  0  0
  -27.3500  -20.4420   19.8840 C   0  0  0  0  0  2  0  0  0  0  0  0
  -27.8820  -20.6250   18.4530 C   0  0  0  0  0  2  0  0  0  0  0  0
  -28.6660  -19.4000   17.9650 C   0  0  0  0  0  2  0  0  0  0  0  0
  -29.7390  -19.7610   16.9250 C   0  0  0  0  0  2  0  0  0  0  0  0
  -30.8700  -18.7240   16.8340 C   0  0  0  0  0  2  0  0  0  0  0  0
  -31.3290  -18.1600   18.1870 C   0  0  0  0  0  2  0  0  0  0  0  0
  -32.6310  -17.3570   18.0470 C   0  0  0  0  0  2  0  0  0  0  0  0
  -32.9890  -16.5330   19.2930 C   0  0  0  0  0  2  0  0  0  0  0  0
  -32.3220  -14.1580   18.9920 C   0  0  0  0  0  0  0  0  0  0  0  0
  -32.1340  -11.7830   19.6170 C   0  0  0  0  0  2  0  0  0  0  0  0
  -31.2090  -10.9620   18.7060 C   0  0  0  0  0  2  0  0  0  0  0  0
  -29.7560  -11.0520   19.1980 C   0  0  0  0  0  2  0  0  0  0  0  0
  -29.3010  -12.5170   19.4200 C   0  0  0  0  0  3  0  0  0  0  0  0
  -30.3290  -13.3000   20.2680 C   0  0  0  0  0  2  0  0  0  0  0  0
  -31.6630  -13.1730   19.6490 N   0  0  0  0  0  0  0  0  0  0  0  0
  -33.2080  -13.9470   18.1570 O   0  0  0  0  0  0  0  0  0  0  0  0
  -32.1120  -15.3810   19.4930 N   0  0  0  0  0  0  0  0  0  0  0  0
  -31.4120  -15.4540   20.2180 H   0  0  0  0  0  0  0  0  0  0  0  0
  -27.2590  -13.6610   20.4950 C   0  0  0  0  0  0  0  0  0  0  0  0
  -26.0300  -13.1810   20.8670 C   0  0  0  0  0  0  0  0  0  0  0  0
  -26.0490  -11.7830   20.5720 C   0  0  0  0  0  0  0  0  0  0  0  0
  -27.9630  -12.5700   20.0100 N   0  0  0  0  0  0  0  0  0  0  0  0
  -27.2400  -11.4260   20.1090 N   0  0  0  0  0  0  0  0  0  0  0  0
  -24.9830  -10.7760   20.6530 C   0  0  0  0  0  0  0  0  0  0  0  0
  -25.1170   -9.6190   21.4530 C   0  0  0  0  0  3  0  0  0  0  0  0
  -24.0720   -8.6740   21.5270 C   0  0  0  0  0  3  0  0  0  0  0  0
  -22.8750   -8.8820   20.8010 C   0  0  0  0  0  0  0  0  0  0  0  0
  -22.7560  -10.0220   19.9880 C   0  0  0  0  0  3  0  0  0  0  0  0
  -23.8000  -10.9590   19.9100 C   0  0  0  0  0  3  0  0  0  0  0  0
  -21.8170   -8.0040   20.7920 O   0  0  0  0  0  0  0  0  0  0  0  0
  -21.5120   -7.2340   21.8850 C   0  0  0  0  0  0  0  0  0  0  0  0
  -21.1660   -7.8060   23.1280 C   0  0  0  0  0  3  0  0  0  0  0  0
  -20.7920   -6.9780   24.2050 C   0  0  0  0  0  3  0  0  0  0  0  0
  -20.7540   -5.5810   24.0390 C   0  0  0  0  0  0  0  0  0  0  0  0
  -21.0930   -5.0090   22.8000 C   0  0  0  0  0  3  0  0  0  0  0  0
  -21.4680   -5.8330   21.7260 C   0  0  0  0  0  0  0  0  0  0  0  0
  -21.7730   -5.2780   20.5280 F   0  0  0  0  0  0  0  0  0  0  0  0
  -20.3880   -4.7850   25.0720 F   0  0  0  0  0  0  0  0  0  0  0  0
  -24.8720  -13.9870   21.3790 C   0  0  0  0  0  0  0  0  0  0  0  0
  -24.0460  -13.3970   22.2370 N   0  0  0  0  0  0  0  0  0  0  0  0
  -24.7190  -15.1640   21.0570 O   0  0  0  0  0  0  0  0  0  0  0  0
  -24.1820  -12.4370   22.5160 H   0  0  0  0  0  0  0  0  0  0  0  0
  -23.2660  -13.9130   22.6190 H   0  0  0  0  0  0  0  0  0  0  0  0
  -27.8250  -14.9310   20.5130 N   0  0  0  0  0  0  0  0  0  0  0  0
  -27.3140  -15.7510   20.8190 H   0  0  0  0  0  0  0  0  0  0  0  0
  -28.7570  -15.1470   20.1810 H   0  0  0  0  0  0  0  0  0  0  0  0
  -25.0150  -22.0780   18.1020 C   0  0  0  0  0  2  0  0  0  0  0  0
  -25.6880  -23.4340   18.0720 C   0  0  0  0  0  3  0  0  0  0  0  0
  -26.6020  -23.8170   17.1660 C   0  0  0  0  0  3  0  0  0  0  0  0
  -27.2580  -25.1820   17.1630 C   0  0  0  0  0  2  0  0  0  0  0  0
  -26.8350  -26.0360   15.9480 C   0  0  0  0  0  2  0  0  0  0  0  0
  -26.8990  -27.4320   16.2350 O   0  0  0  0  0  0  0  0  0  0  0  0
  -25.0080  -30.1790   22.4870 C   0  0  0  0  0  0  0  0  0  0  0  0
  -25.8710  -28.0090   16.9520 C   0  0  0  0  0  0  0  0  0  0  0  0
  -23.1530  -29.7580   20.9060 C   0  0  0  0  0  3  0  0  0  0  0  0
  -23.8420  -29.2040   18.5170 C   0  0  0  0  0  0  0  0  0  0  0  0
  -25.5100  -30.2620   20.0480 C   0  0  0  0  0  2  0  0  0  0  0  0
  -25.1880  -29.4050   18.8440 C   0  0  0  0  0  0  0  0  0  0  0  0
  -26.2040  -28.8160   18.0620 C   0  0  0  0  0  3  0  0  0  0  0  0
  -24.5040  -27.8220   16.6330 C   0  0  0  0  0  3  0  0  0  0  0  0
  -23.4930  -28.4090   17.4130 C   0  0  0  0  0  3  0  0  0  0  0  0
  -22.8110  -29.8730   19.3970 C   0  0  0  0  0  2  0  0  0  0  0  0
  -24.5940  -30.0490   21.1950 N   0  0  0  0  0  0  0  0  0  0  0  0
  -24.2050  -30.1060   23.4270 O   0  0  0  0  0  0  0  0  0  0  0  0
  -22.6930  -28.3710   21.4100 C   0  0  0  0  0  0  0  0  0  0  0  0
  -21.3690  -28.1440   21.4100 N   0  0  0  0  0  0  0  0  0  0  0  0
  -23.5150  -27.5210   21.7630 O   0  0  0  0  0  0  0  0  0  0  0  0
  -20.7610  -28.8960   21.1170 H   0  0  0  0  0  0  0  0  0  0  0  0
  -18.1920  -26.4240   21.4620 C   0  0  0  0  0  0  0  0  0  0  0  0
  -20.7090  -26.9000   21.8040 C   0  0  0  0  0  3  0  0  0  0  0  0
  -20.9570  -25.7830   20.7650 C   0  0  0  0  0  2  0  0  0  0  0  0
  -19.8570  -25.6910   19.7030 C   0  0  0  0  0  2  0  0  0  0  0  0
  -18.4980  -25.4250   20.3580 C   0  0  0  0  0  2  0  0  0  0  0  0
  -19.2290  -27.1280   22.1290 C   0  0  0  0  0  0  0  0  0  0  0  0
  -18.8880  -28.0720   23.1220 C   0  0  0  0  0  3  0  0  0  0  0  0
  -17.5400  -28.3170   23.4490 C   0  0  0  0  0  3  0  0  0  0  0  0
  -16.5190  -27.6060   22.7980 C   0  0  0  0  0  3  0  0  0  0  0  0
  -16.8460  -26.6570   21.8110 C   0  0  0  0  0  3  0  0  0  0  0  0
  -26.5030  -30.4530   22.8440 C   0  0  0  0  0  3  0  0  0  0  0  0
  -26.5290  -31.5300   23.8420 N   0  0  0  0  0  0  0  0  0  0  0  0
  -26.8730  -32.7980   23.5830 C   0  0  0  0  0  0  0  0  0  0  0  0
  -27.2780  -33.1690   22.4770 O   0  0  0  0  0  0  0  0  0  0  0  0
  -26.1600  -31.3080   24.7560 H   0  0  0  0  0  0  0  0  0  0  0  0
  -25.4980  -34.6840   24.5180 C   0  0  0  0  0  1  0  0  0  0  0  0
  -26.7490  -33.8170   24.7310 C   0  0  0  0  0  3  0  0  0  0  0  0
  -29.1230  -33.9670   25.3380 C   0  0  0  0  0  1  0  0  0  0  0  0
  -27.9380  -34.6850   24.8770 N   0  0  0  0  0  0  0  0  0  0  0  0
  -27.7520  -35.4440   25.5280 H   0  0  0  0  0  0  0  0  0  0  0  0
  -27.2580  -29.1760   23.3820 C   0  0  1  0  0  0  0  0  0  0  0  0
  -26.5250  -28.4620   24.5430 C   0  0  0  0  0  1  0  0  0  0  0  0
  -27.4640  -28.1460   22.2470 C   0  0  0  0  0  1  0  0  0  0  0  0
  -28.6680  -29.5730   23.8800 C   0  0  0  0  0  1  0  0  0  0  0  0
  1  2  1  0
  3  2  1  0
  4  3  1  0
  5  4  1  0
  6  5  1  0
  7  6  1  0
  7  8  1  0
  9  8  1  0
  9 10  1  0
 10 19  1  0
 11 19  1  0
 11 17  1  0
 12 17  1  0
 13 14  1  0
 13 12  1  0
 15 14  1  0
 15 24  1  0
 15 16  1  0
 17 16  1  0
 18 11  2  0
 19 20  1  0
 21 46  1  0
 21 22  2  0
 22 41  1  0
 23 26  1  0
 23 22  1  0
 24 25  1  0
 24 21  1  0
 25 23  2  0
 26 27  1  0
 27 28  2  0
 29 28  1  0
 30 29  2  0
 31 30  1  0
 31 26  2  0
 32 29  1  0
 32 33  1  0
 33 34  1  0
 34 35  2  0
 36 35  1  0
 36 40  1  0
 37 36  2  0
 38 33  2  0
 38 37  1  0
 39 38  1  0
 41 42  1  0
 42 44  1  0
 42 45  1  0
 43 41  2  0
 46 47  1  0
 48 46  1  0
 49  1  1  0
 50 49  1  0
 51 50  2  0
 52 51  1  0
 53 54  1  0
 53 52  1  0
 54 56  1  0
 55 66  2  0
 56 61  1  0
 57 65  1  0
 57 67  1  0
 58 60  1  0
 58 64  1  0
 59 65  1  0
 60 59  1  0
 61 60  2  0
 62 56  2  0
 62 63  1  0
 63 58  2  0
 64 57  1  0
 65 55  1  0
 67 68  1  0
 67 69  2  0
 70 68  1  0
 71 80  2  0
 71 76  1  0
 72 68  1  0
 72 76  1  0
 73 72  1  0
 74 75  1  0
 74 73  1  0
 75 71  1  0
 76 77  2  0
 77 78  1  0
 79 78  2  0
 80 79  1  0
 81 55  1  0
 81 91  1  0
 81 82  1  0
 82 85  1  0
 83 82  1  0
 83 87  1  0
 84 83  2  0
 87 86  1  0
 87 89  1  0
 89 88  1  0
 89 90  1  0
 91 94  1  1
 91 92  1  0
 93 91  1  0
M  ISO  4  11 100  19 100  53 101  54 101
M  END
>  <TORSDO>  (28) 
F 29

>  <SCORE>  (28) 
-4.305

>  <name>  (28) 
27

>  <ligand_id>  (28) 
27

>  <original_smiles>  (28) 
[H]C(=C([H])C([H])([H])C([H])([H])C([H])([H])C([H])([H])C([H])([H])C([H])([H])C([H])([H])C([H])([H])C([H])([H])C([H])([H])C([H])([H])N([H])C(=O)N1C([H])([H])C([H])([H])C([H])([H])C([H])(n2nc(-c3c([H])c([H])c(Oc4c([H])c([H])c(F)c([H])c4F)c([H])c3[H])c(C(=O)N([H])[H])c2N([H])[H])C1([H])[H])C([H])([H])C([H])([H])Oc1c([H])c([H])c2c(c1[H])C([H])([H])N(C(=O)C([H])(N([H])C(=O)C([H])(N([H])C([H])([H])[H])C([H])([H])[H])C(C([H])([H])[H])(C([H])([H])[H])C([H])([H])[H])C([H])(C(=O)N([H])C1([H])c3c([H])c([H])c([H])c([H])c3C([H])([H])C([H])([H])C1([H])[H])C2([H])[H]

>  <smiles>  (28) 
[H]C(=C([H])C([H])([H])C([H])([H])C([H])([H])C([H])([H])C([H])([H])C([H])([H])C([H])([H])C([H])([H])C([H])([H])C([H])([H])C([H])([H])N([H])C(=O)N1C([H])([H])C([H])([H])C([H])([H])C([H])(n2nc(-c3c([H])c([H])c(Oc4c([H])c([H])c(F)c([H])c4F)c([H])c3[H])c(C(=O)N([H])[H])c2N([H])[H])C1([H])[H])C([H])([H])C([H])([H])Oc1c([H])c([H])c2c(c1[H])C([H])([H])N(C(=O)C([H])(N([H])C(=O)C([H])(N([H])C([H])([H])[H])C([H])([H])[H])C(C([H])([H])[H])(C([H])([H])[H])C([H])([H])[H])C([H])(C(=O)N([H])C1([H])c3c([H])c([H])c([H])c([H])c3C([H])([H])C([H])([H])C1([H])[H])C2([H])[H]

$$$$
28:0:0
     RDKit          3D

 95102  0  0  1  0  0  0  0  0999 V2000
  -22.5300  -23.2750   18.9680 C   0  0  0  0  0  2  0  0  0  0  0  0
  -23.4810  -23.5800   20.1400 C   0  0  0  0  0  2  0  0  0  0  0  0
  -24.9630  -23.4060   19.7960 C   0  0  0  0  0  2  0  0  0  0  0  0
  -25.9030  -23.8380   20.9230 C   0  0  0  0  0  2  0  0  0  0  0  0
  -27.3480  -23.3800   20.6580 C   0  0  0  0  0  2  0  0  0  0  0  0
  -28.3980  -24.2640   21.3610 C   0  0  0  0  0  2  0  0  0  0  0  0
  -29.3190  -25.0460   20.3960 C   0  0  0  0  0  2  0  0  0  0  0  0
  -29.2220  -26.4500   20.6330 O   0  0  0  0  0  0  0  0  0  0  0  0
  -24.7470  -31.2840   23.3020 C   0  0  0  0  0  0  0  0  0  0  0  0
  -27.9850  -27.0540   20.5070 C   0  0  0  0  0  0  0  0  0  0  0  0
  -23.8080  -29.8040   21.5610 C   0  0  0  0  0  3  0  0  0  0  0  0
  -25.4920  -28.3750   20.2950 C   0  0  0  0  0  0  0  0  0  0  0  0
  -26.3100  -30.3360   21.6120 C   0  0  0  0  0  2  0  0  0  0  0  0
  -26.5480  -28.9750   20.9930 C   0  0  0  0  0  0  0  0  0  0  0  0
  -27.7910  -28.3170   21.1070 C   0  0  0  0  0  3  0  0  0  0  0  0
  -26.9080  -26.4710   19.7950 C   0  0  0  0  0  3  0  0  0  0  0  0
  -25.6650  -27.1150   19.7010 C   0  0  0  0  0  3  0  0  0  0  0  0
  -24.1950  -29.1440   20.2100 C   0  0  0  0  0  2  0  0  0  0  0  0
  -24.9670  -30.4910   22.2170 N   0  0  0  0  0  0  0  0  0  0  0  0
  -23.6010  -31.4780   23.7320 O   0  0  0  0  0  0  0  0  0  0  0  0
  -23.1390  -28.7360   22.4570 C   0  0  0  0  0  0  0  0  0  0  0  0
  -21.9070  -28.3420   22.0960 N   0  0  0  0  0  0  0  0  0  0  0  0
  -23.7320  -28.2670   23.4320 O   0  0  0  0  0  0  0  0  0  0  0  0
  -21.4850  -28.7830   21.2910 H   0  0  0  0  0  0  0  0  0  0  0  0
  -18.7380  -26.6090   22.0210 C   0  0  0  0  0  0  0  0  0  0  0  0
  -21.1010  -27.3290   22.7790 C   0  0  0  0  0  3  0  0  0  0  0  0
  -21.5480  -25.9020   22.3830 C   0  0  0  0  0  2  0  0  0  0  0  0
  -20.7640  -25.3500   21.1900 C   0  0  0  0  0  2  0  0  0  0  0  0
  -19.2740  -25.2710   21.5360 C   0  0  0  0  0  2  0  0  0  0  0  0
  -19.6020  -27.5830   22.5880 C   0  0  0  0  0  0  0  0  0  0  0  0
  -19.0650  -28.8290   22.9830 C   0  0  0  0  0  3  0  0  0  0  0  0
  -17.6930  -29.1040   22.8240 C   0  0  0  0  0  3  0  0  0  0  0  0
  -16.8400  -28.1270   22.2850 C   0  0  0  0  0  3  0  0  0  0  0  0
  -17.3610  -26.8820   21.8900 C   0  0  0  0  0  3  0  0  0  0  0  0
  -25.9200  -31.9980   24.0410 C   0  0  0  0  0  3  0  0  0  0  0  0
  -25.5080  -33.3870   24.2780 N   0  0  0  0  0  0  0  0  0  0  0  0
  -25.8470  -34.4230   23.4960 C   0  0  0  0  0  0  0  0  0  0  0  0
  -26.6120  -34.3140   22.5340 O   0  0  0  0  0  0  0  0  0  0  0  0
  -24.8390  -33.5410   25.0170 H   0  0  0  0  0  0  0  0  0  0  0  0
  -24.0400  -36.0770   22.9300 C   0  0  0  0  0  1  0  0  0  0  0  0
  -25.2460  -35.7990   23.8400 C   0  0  0  0  0  3  0  0  0  0  0  0
  -27.2580  -36.8690   24.7540 C   0  0  0  0  0  1  0  0  0  0  0  0
  -26.2160  -36.9090   23.7310 N   0  0  0  0  0  0  0  0  0  0  0  0
  -25.7450  -37.8080   23.7930 H   0  0  0  0  0  0  0  0  0  0  0  0
  -26.3260  -31.2980   25.3960 C   0  0  1  0  0  0  0  0  0  0  0  0
  -25.1210  -30.9610   26.3080 C   0  0  0  0  0  1  0  0  0  0  0  0
  -27.0910  -29.9820   25.1210 C   0  0  0  0  0  1  0  0  0  0  0  0
  -27.2880  -32.2140   26.1900 C   0  0  0  0  0  1  0  0  0  0  0  0
  -22.8600  -22.0140   18.1410 C   0  0  0  0  0  2  0  0  0  0  0  0
  -24.3250  -21.8570   17.6660 C   0  0  0  0  0  2  0  0  0  0  0  0
  -24.9620  -20.5400   18.1550 C   0  0  0  0  0  2  0  0  0  0  0  0
  -26.4960  -20.5700   18.2970 C   0  0  0  0  0  2  0  0  0  0  0  0
  -27.0440  -19.2390   18.8490 C   0  0  0  0  0  2  0  0  0  0  0  0
  -28.5220  -19.2830   19.2860 C   0  0  0  0  0  2  0  0  0  0  0  0
  -28.9180  -18.0260   20.0790 C   0  0  0  0  0  2  0  0  0  0  0  0
  -30.4060  -17.9440   20.4640 C   0  0  0  0  0  2  0  0  0  0  0  0
  -30.6610  -17.1600   21.7730 C   0  0  0  0  0  2  0  0  0  0  0  0
  -31.0450  -14.8120   21.0260 C   0  0  0  0  0  0  0  0  0  0  0  0
  -30.7360  -12.9410   19.4680 C   0  0  0  0  0  2  0  0  0  0  0  0
  -29.8710  -13.4480   18.2980 C   0  0  0  0  0  2  0  0  0  0  0  0
  -28.3740  -13.2880   18.6190 C   0  0  0  0  0  2  0  0  0  0  0  0
  -27.9980  -13.8500   20.0160 C   0  0  0  0  0  3  0  0  0  0  0  0
  -28.9850  -13.3670   21.1030 C   0  0  0  0  0  2  0  0  0  0  0  0
  -30.3500  -13.7050   20.6600 N   0  0  0  0  0  0  0  0  0  0  0  0
  -32.1990  -15.0470   20.6600 O   0  0  0  0  0  0  0  0  0  0  0  0
  -30.3110  -15.7460   21.6410 N   0  0  0  0  0  0  0  0  0  0  0  0
  -29.3700  -15.4810   21.8880 H   0  0  0  0  0  0  0  0  0  0  0  0
  -25.5290  -14.4170   20.4860 C   0  0  0  0  0  0  0  0  0  0  0  0
  -24.4490  -13.6250   20.7610 C   0  0  0  0  0  0  0  0  0  0  0  0
  -24.9410  -12.2840   20.7890 C   0  0  0  0  0  0  0  0  0  0  0  0
  -26.6100  -13.5590   20.3630 N   0  0  0  0  0  0  0  0  0  0  0  0
  -26.2550  -12.2720   20.6030 N   0  0  0  0  0  0  0  0  0  0  0  0
  -24.2330  -11.0080   20.9250 C   0  0  0  0  0  0  0  0  0  0  0  0
  -24.5990  -10.0610   21.9090 C   0  0  0  0  0  3  0  0  0  0  0  0
  -23.8920   -8.8480   22.0280 C   0  0  0  0  0  3  0  0  0  0  0  0
  -22.8030   -8.5720   21.1640 C   0  0  0  0  0  0  0  0  0  0  0  0
  -22.4610   -9.5100   20.1730 C   0  0  0  0  0  3  0  0  0  0  0  0
  -23.1690  -10.7150   20.0480 C   0  0  0  0  0  3  0  0  0  0  0  0
  -22.0720   -7.4090   21.1920 O   0  0  0  0  0  0  0  0  0  0  0  0
  -21.8180   -6.7480   22.3680 C   0  0  0  0  0  0  0  0  0  0  0  0
  -21.1810   -7.3840   23.4560 C   0  0  0  0  0  3  0  0  0  0  0  0
  -20.8740   -6.6480   24.6190 C   0  0  0  0  0  3  0  0  0  0  0  0
  -21.1970   -5.2800   24.6930 C   0  0  0  0  0  0  0  0  0  0  0  0
  -21.8270   -4.6450   23.6090 C   0  0  0  0  0  3  0  0  0  0  0  0
  -22.1330   -5.3770   22.4490 C   0  0  0  0  0  0  0  0  0  0  0  0
  -22.7210   -4.7560   21.3970 F   0  0  0  0  0  0  0  0  0  0  0  0
  -20.8990   -4.5700   25.8080 F   0  0  0  0  0  0  0  0  0  0  0  0
  -23.0210  -14.0720   20.8990 C   0  0  0  0  0  0  0  0  0  0  0  0
  -22.2400  -13.3770   21.7200 N   0  0  0  0  0  0  0  0  0  0  0  0
  -22.6010  -15.0700   20.3160 O   0  0  0  0  0  0  0  0  0  0  0  0
  -22.5940  -12.5700   22.2140 H   0  0  0  0  0  0  0  0  0  0  0  0
  -21.2780  -13.6530   21.8540 H   0  0  0  0  0  0  0  0  0  0  0  0
  -25.6670  -15.7910   20.3120 N   0  0  0  0  0  0  0  0  0  0  0  0
  -24.8650  -16.4100   20.3260 H   0  0  0  0  0  0  0  0  0  0  0  0
  -26.5240  -16.2620   20.0600 H   0  0  0  0  0  0  0  0  0  0  0  0
  1  2  1  0
  3  2  1  0
  3  4  1  0
  5  4  1  0
  5  6  1  0
  7  8  1  0
  7  6  1  0
  9 20  2  0
 10  8  1  0
 10 15  1  0
 11 19  1  0
 11 21  1  0
 12 14  1  0
 13 19  1  0
 14 15  2  0
 14 13  1  0
 16 10  2  0
 17 16  1  0
 17 12  2  0
 18 12  1  0
 18 11  1  0
 19  9  1  0
 21 23  2  0
 22 21  1  0
 24 22  1  0
 25 30  1  0
 26 22  1  0
 27 26  1  0
 28 29  1  0
 28 27  1  0
 29 25  1  0
 30 26  1  0
 30 31  2  0
 32 31  1  0
 33 32  2  0
 34 25  2  0
 34 33  1  0
 35  9  1  0
 35 36  1  0
 35 45  1  0
 36 39  1  0
 37 41  1  0
 37 36  1  0
 38 37  2  0
 41 40  1  0
 43 44  1  0
 43 41  1  0
 43 42  1  0
 45 48  1  1
 45 46  1  0
 47 45  1  0
 49  1  1  0
 50 49  1  0
 50 51  1  0
 51 52  1  0
 52 53  1  0
 53 54  1  0
 54 55  1  0
 55 56  1  0
 56 57  1  0
 58 66  1  0
 59 64  1  0
 60 61  1  0
 60 59  1  0
 62 61  1  0
 62 71  1  0
 62 63  1  0
 64 58  1  0
 64 63  1  0
 65 58  2  0
 66 57  1  0
 66 67  1  0
 68 69  2  0
 69 70  1  0
 69 88  1  0
 70 73  1  0
 71 68  1  0
 71 72  1  0
 72 70  2  0
 73 74  1  0
 74 75  2  0
 76 79  1  0
 76 75  1  0
 77 76  2  0
 78 77  1  0
 78 73  2  0
 79 80  1  0
 80 85  2  0
 80 81  1  0
 81 82  2  0
 82 83  1  0
 83 87  1  0
 84 83  2  0
 85 84  1  0
 86 85  1  0
 88 89  1  0
 89 92  1  0
 89 91  1  0
 90 88  2  0
 93 94  1  0
 93 68  1  0
 95 93  1  0
M  ISO  4   7 101   8 101  58 100  66 100
M  END
>  <TORSDO>  (29) 
F 31

>  <SCORE>  (29) 
-8.426

>  <name>  (29) 
28

>  <ligand_id>  (29) 
28

>  <original_smiles>  (29) 
[H]c1c([H])c([H])c2c(c1[H])C([H])([H])C([H])([H])C([H])([H])C2([H])N([H])C(=O)C1([H])N(C(=O)C([H])(N([H])C(=O)C([H])(N([H])C([H])([H])[H])C([H])([H])[H])C(C([H])([H])[H])(C([H])([H])[H])C([H])([H])[H])C([H])([H])c2c([H])c(OC([H])([H])C([H])([H])C([H])([H])C([H])([H])C([H])([H])C([H])([H])C([H])([H])C([H])([H])C([H])([H])C([H])([H])C([H])([H])C([H])([H])C([H])([H])C([H])([H])C([H])([H])C([H])([H])N([H])C(=O)N3C([H])([H])C([H])([H])C([H])([H])C([H])(n4nc(-c5c([H])c([H])c(Oc6c([H])c([H])c(F)c([H])c6F)c([H])c5[H])c(C(=O)N([H])[H])c4N([H])[H])C3([H])[H])c([H])c([H])c2C1([H])[H]

>  <smiles>  (29) 
[H]c1c([H])c([H])c2c(c1[H])C([H])([H])C([H])([H])C([H])([H])C2([H])N([H])C(=O)C1([H])N(C(=O)C([H])(N([H])C(=O)C([H])(N([H])C([H])([H])[H])C([H])([H])[H])C(C([H])([H])[H])(C([H])([H])[H])C([H])([H])[H])C([H])([H])c2c([H])c(OC([H])([H])C([H])([H])C([H])([H])C([H])([H])C([H])([H])C([H])([H])C([H])([H])C([H])([H])C([H])([H])C([H])([H])C([H])([H])C([H])([H])C([H])([H])C([H])([H])C([H])([H])C([H])([H])N([H])C(=O)N3C([H])([H])C([H])([H])C([H])([H])C([H])(n4nc(-c5c([H])c([H])c(Oc6c([H])c([H])c(F)c([H])c6F)c([H])c5[H])c(C(=O)N([H])[H])c4N([H])[H])C3([H])[H])c([H])c([H])c2C1([H])[H]

$$$$
29:0:0
     RDKit          3D

 89 96  0  0  1  0  0  0  0  0999 V2000
  -29.2850  -22.6280   21.4260 C   0  0  0  0  0  2  0  0  0  0  0  0
  -29.3450  -24.0580   20.8620 C   0  0  0  0  0  2  0  0  0  0  0  0
  -28.2530  -24.3360   19.8130 C   0  0  0  0  0  2  0  0  0  0  0  0
  -28.4310  -25.6960   19.1150 C   0  0  0  0  0  2  0  0  0  0  0  0
  -28.2590  -26.7820   20.0280 O   0  0  0  0  0  0  0  0  0  0  0  0
  -24.5070  -31.9110   23.2190 C   0  0  0  0  0  0  0  0  0  0  0  0
  -27.0570  -27.4560   20.0670 C   0  0  0  0  0  0  0  0  0  0  0  0
  -23.2590  -30.5360   21.5860 C   0  0  0  0  0  3  0  0  0  0  0  0
  -24.6720  -28.9780   20.1410 C   0  0  0  0  0  0  0  0  0  0  0  0
  -25.7860  -30.8550   21.3600 C   0  0  0  0  0  2  0  0  0  0  0  0
  -25.8430  -29.4830   20.7190 C   0  0  0  0  0  0  0  0  0  0  0  0
  -27.0330  -28.7260   20.6870 C   0  0  0  0  0  3  0  0  0  0  0  0
  -25.8570  -26.9480   19.5140 C   0  0  0  0  0  3  0  0  0  0  0  0
  -24.6720  -27.7050   19.5450 C   0  0  0  0  0  3  0  0  0  0  0  0
  -23.4420  -29.8540   20.2030 C   0  0  0  0  0  2  0  0  0  0  0  0
  -24.5370  -31.1160   22.1130 N   0  0  0  0  0  0  0  0  0  0  0  0
  -23.4370  -32.1990   23.7730 O   0  0  0  0  0  0  0  0  0  0  0  0
  -22.6030  -29.5210   22.5490 C   0  0  0  0  0  0  0  0  0  0  0  0
  -21.2780  -29.3400   22.4160 N   0  0  0  0  0  0  0  0  0  0  0  0
  -23.2830  -28.8980   23.3670 O   0  0  0  0  0  0  0  0  0  0  0  0
  -20.7910  -29.8910   21.7220 H   0  0  0  0  0  0  0  0  0  0  0  0
  -17.9070  -28.1300   22.8760 C   0  0  0  0  0  0  0  0  0  0  0  0
  -20.4590  -28.4070   23.1860 C   0  0  0  0  0  3  0  0  0  0  0  0
  -20.5800  -26.9690   22.6320 C   0  0  0  0  0  2  0  0  0  0  0  0
  -19.4970  -26.6250   21.6050 C   0  0  0  0  0  2  0  0  0  0  0  0
  -18.1040  -26.7720   22.2240 C   0  0  0  0  0  2  0  0  0  0  0  0
  -19.0140  -28.9040   23.3140 C   0  0  0  0  0  0  0  0  0  0  0  0
  -18.7800  -30.1760   23.8810 C   0  0  0  0  0  3  0  0  0  0  0  0
  -17.4710  -30.6740   24.0150 C   0  0  0  0  0  3  0  0  0  0  0  0
  -16.3770  -29.8970   23.5950 C   0  0  0  0  0  3  0  0  0  0  0  0
  -16.5960  -28.6260   23.0330 C   0  0  0  0  0  3  0  0  0  0  0  0
  -25.8110  -32.5170   23.8270 C   0  0  0  0  0  3  0  0  0  0  0  0
  -26.3400  -31.7240   25.0850 C   0  0  1  0  0  0  0  0  0  0  0  0
  -25.2600  -31.4920   26.1680 C   0  0  0  0  0  1  0  0  0  0  0  0
  -26.8960  -30.3420   24.6690 C   0  0  0  0  0  1  0  0  0  0  0  0
  -27.5090  -32.4950   25.7380 C   0  0  0  0  0  1  0  0  0  0  0  0
  -25.5280  -33.9150   24.1730 N   0  0  0  0  0  0  0  0  0  0  0  0
  -25.8720  -34.9690   23.4190 C   0  0  0  0  0  0  0  0  0  0  0  0
  -26.5350  -34.8640   22.3820 O   0  0  0  0  0  0  0  0  0  0  0  0
  -24.9430  -34.0730   24.9800 H   0  0  0  0  0  0  0  0  0  0  0  0
  -24.1720  -36.7920   23.0830 C   0  0  0  0  0  1  0  0  0  0  0  0
  -25.4080  -36.3610   23.8880 C   0  0  0  0  0  3  0  0  0  0  0  0
  -27.5620  -37.1990   24.7200 C   0  0  0  0  0  1  0  0  0  0  0  0
  -26.4580  -37.3990   23.7840 N   0  0  0  0  0  0  0  0  0  0  0  0
  -26.0680  -38.3240   23.9450 H   0  0  0  0  0  0  0  0  0  0  0  0
  -30.2580  -22.4310   22.6010 C   0  0  0  0  0  2  0  0  0  0  0  0
  -30.5150  -20.9580   22.9730 C   0  0  0  0  0  2  0  0  0  0  0  0
  -31.4450  -20.2270   21.9820 C   0  0  0  0  0  2  0  0  0  0  0  0
  -31.9500  -18.8540   22.4770 C   0  0  0  0  0  2  0  0  0  0  0  0
  -30.9770  -17.6870   22.2570 C   0  0  0  0  0  0  0  0  0  0  0  0
  -29.8690  -17.7170   22.7990 O   0  0  0  0  0  0  0  0  0  0  0  0
  -31.4320  -16.5680   21.4110 C   0  0  0  0  0  3  0  0  0  0  0  0
  -30.6300  -15.5380   21.0620 C   0  0  0  0  0  3  0  0  0  0  0  0
  -31.1430  -14.4890   20.1810 C   0  0  0  0  0  0  0  0  0  0  0  0
  -30.6680  -12.3990   18.9480 C   0  0  0  0  0  2  0  0  0  0  0  0
  -29.7050  -12.6770   17.7780 C   0  0  0  0  0  2  0  0  0  0  0  0
  -28.2420  -12.5730   18.2490 C   0  0  0  0  0  2  0  0  0  0  0  0
  -27.9750  -13.3950   19.5410 C   0  0  0  0  0  3  0  0  0  0  0  0
  -29.0510  -13.1000   20.6100 C   0  0  0  0  0  2  0  0  0  0  0  0
  -30.3710  -13.3730   20.0140 N   0  0  0  0  0  0  0  0  0  0  0  0
  -32.2010  -14.6350   19.5600 O   0  0  0  0  0  0  0  0  0  0  0  0
  -25.6130  -14.0770   20.3020 C   0  0  0  0  0  0  0  0  0  0  0  0
  -24.5310  -13.3400   20.6990 C   0  0  0  0  0  0  0  0  0  0  0  0
  -24.9470  -11.9750   20.6560 C   0  0  0  0  0  0  0  0  0  0  0  0
  -26.6260  -13.1640   20.0480 N   0  0  0  0  0  0  0  0  0  0  0  0
  -26.2260  -11.8940   20.3130 N   0  0  0  0  0  0  0  0  0  0  0  0
  -24.1850  -10.7370   20.8680 C   0  0  0  0  0  0  0  0  0  0  0  0
  -24.5970   -9.7680   21.8090 C   0  0  0  0  0  3  0  0  0  0  0  0
  -23.8380   -8.5960   22.0080 C   0  0  0  0  0  3  0  0  0  0  0  0
  -22.6520   -8.3830   21.2650 C   0  0  0  0  0  0  0  0  0  0  0  0
  -22.2590   -9.3400   20.3130 C   0  0  0  0  0  3  0  0  0  0  0  0
  -23.0180  -10.5050   20.1120 C   0  0  0  0  0  3  0  0  0  0  0  0
  -21.8660   -7.2610   21.3720 O   0  0  0  0  0  0  0  0  0  0  0  0
  -21.7780   -6.5540   22.5440 C   0  0  0  0  0  0  0  0  0  0  0  0
  -21.3670   -7.1620   23.7520 C   0  0  0  0  0  3  0  0  0  0  0  0
  -21.2210   -6.3840   24.9170 C   0  0  0  0  0  3  0  0  0  0  0  0
  -21.4760   -5.0000   24.8760 C   0  0  0  0  0  0  0  0  0  0  0  0
  -21.8790   -4.3920   23.6750 C   0  0  0  0  0  3  0  0  0  0  0  0
  -22.0270   -5.1680   22.5110 C   0  0  0  0  0  0  0  0  0  0  0  0
  -22.3960   -4.5740   21.3510 F   0  0  0  0  0  0  0  0  0  0  0  0
  -21.3280   -4.2510   25.9950 F   0  0  0  0  0  0  0  0  0  0  0  0
  -23.1580  -13.8640   21.0110 C   0  0  0  0  0  0  0  0  0  0  0  0
  -22.4380  -13.2000   21.9080 N   0  0  0  0  0  0  0  0  0  0  0  0
  -22.7350  -14.8990   20.4970 O   0  0  0  0  0  0  0  0  0  0  0  0
  -22.7940  -12.3660   22.3510 H   0  0  0  0  0  0  0  0  0  0  0  0
  -21.5200  -13.5350   22.1610 H   0  0  0  0  0  0  0  0  0  0  0  0
  -25.8100  -15.4430   20.1210 N   0  0  0  0  0  0  0  0  0  0  0  0
  -25.0590  -16.1110   20.2550 H   0  0  0  0  0  0  0  0  0  0  0  0
  -26.6690  -15.8720   19.8000 H   0  0  0  0  0  0  0  0  0  0  0  0
  1 46  1  0
  2  1  1  0
  3  2  1  0
  4  3  1  0
  4  5  1  0
  5  7  1  0
  6 17  2  0
  7 12  1  0
  8 16  1  0
  8 18  1  0
  9 15  1  0
  9 11  1  0
 10 16  1  0
 11 10  1  0
 12 11  2  0
 13 14  1  0
 13  7  2  0
 14  9  2  0
 15  8  1  0
 16  6  1  0
 18 20  2  0
 19 18  1  0
 21 19  1  0
 22 31  2  0
 22 27  1  0
 23 19  1  0
 23 27  1  0
 24 23  1  0
 25 26  1  0
 25 24  1  0
 26 22  1  0
 27 28  2  0
 28 29  1  0
 30 29  2  0
 31 30  1  0
 32  6  1  0
 32 37  1  0
 32 33  1  0
 33 36  1  1
 33 34  1  0
 35 33  1  0
 37 40  1  0
 38 42  1  0
 38 37  1  0
 39 38  2  0
 42 41  1  0
 44 42  1  0
 44 45  1  0
 44 43  1  0
 46 47  1  0
 48 49  1  0
 48 47  1  0
 50 49  1  0
 50 51  2  0
 52 50  1  0
 53 52  2  0
 54 53  1  0
 55 60  1  0
 56 57  1  0
 56 55  1  0
 58 57  1  0
 58 65  1  0
 58 59  1  0
 60 54  1  0
 60 59  1  0
 61 54  2  0
 62 63  2  0
 63 82  1  0
 64 63  1  0
 64 67  1  0
 65 62  1  0
 65 66  1  0
 66 64  2  0
 67 68  1  0
 68 69  2  0
 70 73  1  0
 70 69  1  0
 71 70  2  0
 72 71  1  0
 72 67  2  0
 73 74  1  0
 74 75  1  0
 75 76  2  0
 77 76  1  0
 77 81  1  0
 78 77  2  0
 79 74  2  0
 79 78  1  0
 80 79  1  0
 82 83  1  0
 83 86  1  0
 83 85  1  0
 84 82  2  0
 87 88  1  0
 87 62  1  0
 89 87  1  0
M  ISO  4   4 101   5 101  53 100  54 100
M  END
>  <TORSDO>  (30) 
F 25

>  <SCORE>  (30) 
-11.344

>  <name>  (30) 
29

>  <ligand_id>  (30) 
29

>  <original_smiles>  (30) 
[H]C(C(=O)N1C([H])([H])C([H])([H])C([H])([H])C([H])(n2nc(-c3c([H])c([H])c(Oc4c([H])c([H])c(F)c([H])c4F)c([H])c3[H])c(C(=O)N([H])[H])c2N([H])[H])C1([H])[H])=C([H])C(=O)C([H])([H])C([H])([H])C([H])([H])C([H])([H])C([H])([H])C([H])([H])C([H])([H])C([H])([H])Oc1c([H])c([H])c2c(c1[H])C([H])([H])N(C(=O)C([H])(N([H])C(=O)C([H])(N([H])C([H])([H])[H])C([H])([H])[H])C(C([H])([H])[H])(C([H])([H])[H])C([H])([H])[H])C([H])(C(=O)N([H])C1([H])c3c([H])c([H])c([H])c([H])c3C([H])([H])C([H])([H])C1([H])[H])C2([H])[H]

>  <smiles>  (30) 
[H]C(C(=O)N1C([H])([H])C([H])([H])C([H])([H])C([H])(n2nc(-c3c([H])c([H])c(Oc4c([H])c([H])c(F)c([H])c4F)c([H])c3[H])c(C(=O)N([H])[H])c2N([H])[H])C1([H])[H])=C([H])C(=O)C([H])([H])C([H])([H])C([H])([H])C([H])([H])C([H])([H])C([H])([H])C([H])([H])C([H])([H])Oc1c([H])c([H])c2c(c1[H])C([H])([H])N(C(=O)C([H])(N([H])C(=O)C([H])(N([H])C([H])([H])[H])C([H])([H])[H])C(C([H])([H])[H])(C([H])([H])[H])C([H])([H])[H])C([H])(C(=O)N([H])C1([H])c3c([H])c([H])c([H])c([H])c3C([H])([H])C([H])([H])C1([H])[H])C2([H])[H]

$$$$
30:0:0
     RDKit          3D

105113  0  0  1  0  0  0  0  0999 V2000
  -21.4650  -31.3770   23.7480 N   0  0  0  0  0  4  0  0  0  0  0  0
  -20.4630  -31.4130   23.8650 H   0  0  0  0  0  0  0  0  0  0  0  0
  -21.6100  -30.6510   23.0680 H   0  0  0  0  0  0  0  0  0  0  0  0
  -21.7290  -32.7700   22.9980 C   0  0  0  0  0  2  0  0  0  0  0  0
  -22.0870  -33.0510   21.3340 C   0  0  0  0  0  2  0  0  0  0  0  0
  -23.5000  -33.0470   20.3590 C   0  0  0  0  0  2  0  0  0  0  0  0
  -23.7570  -32.2820   18.8580 C   0  0  0  0  0  2  0  0  0  0  0  0
  -25.1400  -31.4470   18.2620 C   0  0  0  0  0  2  0  0  0  0  0  0
  -25.4170  -30.2720   17.0740 C   0  0  0  0  0  2  0  0  0  0  0  0
  -25.7200  -28.6080   16.9750 C   0  0  0  0  0  3  0  0  0  0  0  0
  -27.0930  -27.6620   17.2000 C   0  0  0  0  0  3  0  0  0  0  0  0
  -27.1130  -25.9730   17.0880 C   0  0  0  0  0  3  0  0  0  0  0  0
  -28.0390  -24.8780   17.9690 C   0  0  0  0  0  3  0  0  0  0  0  0
  -28.1710  -23.2380   17.6630 C   0  0  0  0  0  3  0  0  0  0  0  0
  -28.5680  -22.0600   18.7870 C   0  0  0  0  0  3  0  0  0  0  0  0
  -29.0070  -20.4770   18.4460 C   0  0  0  0  0  3  0  0  0  0  0  0
  -29.1310  -19.2200   19.5540 C   0  0  0  0  0  3  0  0  0  0  0  0
  -29.7730  -17.6840   19.2770 C   0  0  0  0  0  3  0  0  0  0  0  0
  -29.6610  -16.3640   20.3230 C   0  0  0  0  0  3  0  0  0  0  0  0
  -30.5070  -14.9360   20.2450 C   0  0  0  0  0  0  0  0  0  0  0  0
  -30.4360  -12.5450   19.4740 C   0  0  0  0  0  2  0  0  0  0  0  0
  -29.5150  -12.5050   18.2340 C   0  0  0  0  0  2  0  0  0  0  0  0
  -28.0450  -12.3110   18.6520 C   0  0  0  0  0  2  0  0  0  0  0  0
  -27.6270  -13.2470   19.8170 C   0  0  0  0  0  3  0  0  0  0  0  0
  -28.6800  -13.2840   20.9430 C   0  0  0  0  0  2  0  0  0  0  0  0
  -29.9600  -13.6600   20.3320 N   0  0  0  0  0  0  0  0  0  0  0  0
  -31.7160  -14.9970   20.0000 O   0  0  0  0  0  0  0  0  0  0  0  0
  -25.2500  -13.8230   20.5690 C   0  0  0  0  0  0  0  0  0  0  0  0
  -24.1780  -13.0410   20.9240 C   0  0  0  0  0  0  0  0  0  0  0  0
  -24.6420  -11.6940   20.8730 C   0  0  0  0  0  0  0  0  0  0  0  0
  -26.2890  -12.9430   20.3180 N   0  0  0  0  0  0  0  0  0  0  0  0
  -25.9350  -11.6570   20.5700 N   0  0  0  0  0  0  0  0  0  0  0  0
  -23.9100  -10.4290   21.0390 C   0  0  0  0  0  0  0  0  0  0  0  0
  -24.3630   -9.4210   21.9170 C   0  0  0  0  0  3  0  0  0  0  0  0
  -23.6300   -8.2250   22.0750 C   0  0  0  0  0  3  0  0  0  0  0  0
  -22.4280   -8.0290   21.3550 C   0  0  0  0  0  0  0  0  0  0  0  0
  -21.9920   -9.0260   20.4640 C   0  0  0  0  0  3  0  0  0  0  0  0
  -22.7260  -10.2140   20.3050 C   0  0  0  0  0  3  0  0  0  0  0  0
  -21.6650   -6.8880   21.4230 O   0  0  0  0  0  0  0  0  0  0  0  0
  -21.6860   -6.0740   22.5270 C   0  0  0  0  0  0  0  0  0  0  0  0
  -21.4020   -6.5640   23.8210 C   0  0  0  0  0  3  0  0  0  0  0  0
  -21.3660   -5.6790   24.9170 C   0  0  0  0  0  3  0  0  0  0  0  0
  -21.6040   -4.3060   24.7220 C   0  0  0  0  0  0  0  0  0  0  0  0
  -21.8820   -3.8150   23.4340 C   0  0  0  0  0  3  0  0  0  0  0  0
  -21.9200   -4.6970   22.3400 C   0  0  0  0  0  0  0  0  0  0  0  0
  -22.1670   -4.2150   21.0980 F   0  0  0  0  0  0  0  0  0  0  0  0
  -21.5630   -3.4540   25.7740 F   0  0  0  0  0  0  0  0  0  0  0  0
  -22.7820  -13.5220   21.1870 C   0  0  0  0  0  0  0  0  0  0  0  0
  -22.0480  -12.8180   22.0450 N   0  0  0  0  0  0  0  0  0  0  0  0
  -22.3510  -14.5500   20.6730 O   0  0  0  0  0  0  0  0  0  0  0  0
  -22.4120  -11.9870   22.4820 H   0  0  0  0  0  0  0  0  0  0  0  0
  -21.1100  -13.1190   22.2630 H   0  0  0  0  0  0  0  0  0  0  0  0
  -25.4160  -15.1930   20.4160 N   0  0  0  0  0  0  0  0  0  0  0  0
  -24.6490  -15.8450   20.5400 H   0  0  0  0  0  0  0  0  0  0  0  0
  -26.2700  -15.6400   20.1030 H   0  0  0  0  0  0  0  0  0  0  0  0
  -21.9650  -30.7040   25.1470 C   0  0  0  0  0  2  0  0  0  0  0  0
  -25.2340  -28.4910   25.8420 C   0  0  0  0  0  3  0  0  0  0  0  0
  -23.7540  -26.9860   24.9180 C   0  0  0  0  0  3  0  0  0  0  0  0
  -24.1470  -29.3900   26.0870 C   0  0  0  0  0  3  0  0  0  0  0  0
  -22.6810  -27.9140   25.2580 C   0  0  0  0  0  3  0  0  0  0  0  0
  -25.1200  -27.4240   24.9110 C   0  0  0  0  0  0  0  0  0  0  0  0
  -22.9170  -29.3440   25.4010 C   0  0  0  0  0  0  0  0  0  0  0  0
  -26.4140  -26.8140   24.1380 C   0  0  0  0  0  2  0  0  0  0  0  0
  -26.4790  -26.4120   22.5430 C   0  0  0  0  0  2  0  0  0  0  0  0
  -27.6300  -26.5850   21.4990 O   0  0  0  0  0  0  0  0  0  0  0  0
  -24.8480  -31.7650   23.2020 C   0  0  0  0  0  0  0  0  0  0  0  0
  -27.1630  -27.3550   20.4890 C   0  0  0  0  0  0  0  0  0  0  0  0
  -23.4750  -30.3390   21.4660 C   0  0  0  0  0  3  0  0  0  0  0  0
  -24.9300  -28.8670   20.0960 C   0  0  0  0  0  0  0  0  0  0  0  0
  -26.0070  -30.7720   21.3970 C   0  0  0  0  0  2  0  0  0  0  0  0
  -26.0740  -29.4620   20.6560 C   0  0  0  0  0  0  0  0  0  0  0  0
  -27.2510  -28.7220   20.7470 C   0  0  0  0  0  3  0  0  0  0  0  0
  -26.0770  -26.7970   19.7970 C   0  0  0  0  0  3  0  0  0  0  0  0
  -24.9350  -27.5570   19.6170 C   0  0  0  0  0  3  0  0  0  0  0  0
  -23.6390  -29.5560   20.1580 C   0  0  0  0  0  2  0  0  0  0  0  0
  -24.7460  -30.9750   22.0820 N   0  0  0  0  0  0  0  0  0  0  0  0
  -23.9220  -31.9650   23.9150 O   0  0  0  0  0  0  0  0  0  0  0  0
  -22.7570  -29.3170   22.2660 C   0  0  0  0  0  0  0  0  0  0  0  0
  -21.3960  -29.2440   22.1690 N   0  0  0  0  0  0  0  0  0  0  0  0
  -23.4800  -28.5750   22.8580 O   0  0  0  0  0  0  0  0  0  0  0  0
  -20.9530  -29.8080   21.4480 H   0  0  0  0  0  0  0  0  0  0  0  0
  -17.9470  -28.1450   22.7030 C   0  0  0  0  0  0  0  0  0  0  0  0
  -20.4890  -28.3880   22.9490 C   0  0  0  0  0  3  0  0  0  0  0  0
  -20.5900  -26.9030   22.5500 C   0  0  0  0  0  2  0  0  0  0  0  0
  -19.5500  -26.5650   21.4880 C   0  0  0  0  0  2  0  0  0  0  0  0
  -18.1310  -26.7900   22.0290 C   0  0  0  0  0  2  0  0  0  0  0  0
  -19.0560  -28.8930   23.1570 C   0  0  0  0  0  0  0  0  0  0  0  0
  -18.7820  -30.0500   23.9250 C   0  0  0  0  0  3  0  0  0  0  0  0
  -17.4990  -30.5620   24.1070 C   0  0  0  0  0  3  0  0  0  0  0  0
  -16.4160  -29.8650   23.5700 C   0  0  0  0  0  3  0  0  0  0  0  0
  -16.6390  -28.6400   22.9140 C   0  0  0  0  0  3  0  0  0  0  0  0
  -26.1040  -32.4990   23.7590 C   0  0  0  0  0  3  0  0  0  0  0  0
  -25.6990  -33.8550   24.1640 N   0  0  0  0  0  0  0  0  0  0  0  0
  -25.9380  -34.9580   23.4530 C   0  0  0  0  0  0  0  0  0  0  0  0
  -26.5790  -34.9340   22.4040 O   0  0  0  0  0  0  0  0  0  0  0  0
  -25.1430  -33.9230   25.0020 H   0  0  0  0  0  0  0  0  0  0  0  0
  -24.1470  -36.7160   23.2630 C   0  0  0  0  0  1  0  0  0  0  0  0
  -25.4210  -36.2970   24.0090 C   0  0  0  0  0  3  0  0  0  0  0  0
  -27.5580  -37.1760   24.8290 C   0  0  0  0  0  1  0  0  0  0  0  0
  -26.4230  -37.3810   23.9330 N   0  0  0  0  0  0  0  0  0  0  0  0
  -25.9960  -38.2760   24.1470 H   0  0  0  0  0  0  0  0  0  0  0  0
  -26.6670  -31.7800   25.0400 C   0  0  1  0  0  0  0  0  0  0  0  0
  -25.7190  -31.8230   26.2600 C   0  0  0  0  0  1  0  0  0  0  0  0
  -27.2050  -30.3900   24.6370 C   0  0  0  0  0  1  0  0  0  0  0  0
  -27.9120  -32.4940   25.5970 C   0  0  0  0  0  1  0  0  0  0  0  0
  1  2  1  0
  1 56  1  0
  3  1  1  0
  4  1  1  0
  5  4  1  0
  6  5  1  0
  7  6  1  0
  8  7  1  0
  9  8  1  0
 10  9  1  0
 10 11  2  0
 12 11  1  0
 12 13  2  0
 14 13  1  0
 14 15  2  0
 16 15  1  0
 16 17  2  0
 18 17  1  0
 18 19  2  0
 20 19  1  0
 20 26  1  0
 21 26  1  0
 22 23  1  0
 22 21  1  0
 24 23  1  0
 24 31  1  0
 24 25  1  0
 26 25  1  0
 27 20  2  0
 28 29  2  0
 29 48  1  0
 30 29  1  0
 30 33  1  0
 31 28  1  0
 31 32  1  0
 32 30  2  0
 33 34  1  0
 34 35  2  0
 36 39  1  0
 36 35  1  0
 37 36  2  0
 38 37  1  0
 38 33  2  0
 39 40  1  0
 40 41  1  0
 41 42  2  0
 43 42  1  0
 43 47  1  0
 44 43  2  0
 45 40  2  0
 45 44  1  0
 46 45  1  0
 48 49  1  0
 49 52  1  0
 49 51  1  0
 50 48  2  0
 53 54  1  0
 53 28  1  0
 55 53  1  0
 56 62  1  0
 57 59  1  0
 58 60  2  0
 60 62  1  0
 61 58  1  0
 61 57  2  0
 62 59  2  0
 63 61  1  0
 64 63  1  0
 65 64  1  0
 66 77  2  0
 67 72  1  0
 67 65  1  0
 68 76  1  0
 68 78  1  0
 69 75  1  0
 69 71  1  0
 70 76  1  0
 71 72  2  0
 71 70  1  0
 73 67  2  0
 74 73  1  0
 74 69  2  0
 75 68  1  0
 76 66  1  0
 78 80  2  0
 79 78  1  0
 81 79  1  0
 82 91  2  0
 82 87  1  0
 83 79  1  0
 83 87  1  0
 84 83  1  0
 85 86  1  0
 85 84  1  0
 86 82  1  0
 87 88  2  0
 88 89  1  0
 90 89  2  0
 91 90  1  0
 92 66  1  0
 92 93  1  0
 92102  1  0
 93 96  1  0
 94 98  1  0
 94 93  1  0
 95 94  2  0
 98 97  1  0
100 98  1  0
100101  1  0
100 99  1  0
102105  1  1
102103  1  0
104102  1  0
M  ISO  4  19 100  20 100  64 101  65 101
M  END
>  <TORSDO>  (31) 
F 36

>  <SCORE>  (31) 
11.372

>  <name>  (31) 
30

>  <ligand_id>  (31) 
30

>  <original_smiles>  (31) 
[H]c1c([H])c([H])c2c(c1[H])C([H])([H])C([H])([H])C([H])([H])C2([H])N([H])C(=O)C1([H])N(C(=O)C([H])(N([H])C(=O)C([H])(N([H])C([H])([H])[H])C([H])([H])[H])C(C([H])([H])[H])(C([H])([H])[H])C([H])([H])[H])C([H])([H])c2c([H])c(OC([H])([H])C([H])([H])c3c([H])c([H])c(C([H])([H])[N+]([H])([H])C([H])([H])C([H])([H])C([H])([H])C([H])([H])C([H])([H])C([H])([H])C([H])([H])C([H])([H])C([H])([H])C([H])([H])C([H])([H])C([H])([H])C([H])([H])C([H])([H])C([H])([H])C([H])([H])C(=O)N4C([H])([H])C([H])([H])C([H])([H])C([H])(n5nc(-c6c([H])c([H])c(Oc7c([H])c([H])c(F)c([H])c7F)c([H])c6[H])c(C(=O)N([H])[H])c5N([H])[H])C4([H])[H])c([H])c3[H])c([H])c([H])c2C1([H])[H]

>  <smiles>  (31) 
[H]c1c([H])c([H])c2c(c1[H])C([H])([H])C([H])([H])C([H])([H])C2([H])N([H])C(=O)C1([H])N(C(=O)C([H])(N([H])C(=O)C([H])(N([H])C([H])([H])[H])C([H])([H])[H])C(C([H])([H])[H])(C([H])([H])[H])C([H])([H])[H])C([H])([H])c2c([H])c(OC([H])([H])C([H])([H])c3c([H])c([H])c(C([H])([H])[N+]([H])([H])C([H])([H])C([H])([H])C([H])([H])C([H])([H])C([H])([H])C([H])([H])C([H])([H])C([H])([H])C([H])([H])C([H])([H])C([H])([H])C([H])([H])C([H])([H])C([H])([H])C([H])([H])C([H])([H])C(=O)N4C([H])([H])C([H])([H])C([H])([H])C([H])(n5nc(-c6c([H])c([H])c(Oc7c([H])c([H])c(F)c([H])c7F)c([H])c6[H])c(C(=O)N([H])[H])c5N([H])[H])C4([H])[H])c([H])c3[H])c([H])c([H])c2C1([H])[H]

$$$$
31:0:0
     RDKit          3D

 93102  0  0  1  0  0  0  0  0999 V2000
  -28.9350  -21.9890   23.2640 C   0  0  0  0  0  3  0  0  0  0  0  0
  -28.7060  -20.9150   22.3880 C   0  0  0  0  0  3  0  0  0  0  0  0
  -29.7540  -23.0610   22.8670 C   0  0  0  0  0  3  0  0  0  0  0  0
  -30.0790  -22.0100   20.6930 C   0  0  0  0  0  3  0  0  0  0  0  0
  -29.2880  -20.9140   21.1040 C   0  0  0  0  0  0  0  0  0  0  0  0
  -30.3250  -23.0880   21.5740 C   0  0  0  0  0  0  0  0  0  0  0  0
  -29.1100  -19.7090   20.1970 C   0  0  0  0  0  2  0  0  0  0  0  0
  -32.5450  -15.1770   19.6410 C   0  0  0  0  0  0  0  0  0  0  0  0
  -32.1960  -12.7960   19.1070 C   0  0  0  0  0  2  0  0  0  0  0  0
  -31.2610  -12.6820   17.8860 C   0  0  0  0  0  2  0  0  0  0  0  0
  -29.7800  -12.7120   18.3170 C   0  0  0  0  0  2  0  0  0  0  0  0
  -29.4640  -13.8750   19.2960 C   0  0  0  0  0  3  0  0  0  0  0  0
  -30.5040  -13.9140   20.4330 C   0  0  0  0  0  2  0  0  0  0  0  0
  -31.8410  -14.0280   19.8280 N   0  0  0  0  0  0  0  0  0  0  0  0
  -33.6460  -15.2000   19.0750 O   0  0  0  0  0  0  0  0  0  0  0  0
  -30.6150  -18.1960   18.7790 C   0  0  0  0  0  2  0  0  0  0  0  0
  -30.3860  -17.7220   21.2360 C   0  0  0  0  0  2  0  0  0  0  0  0
  -31.9000  -17.3520   18.7710 C   0  0  0  0  0  2  0  0  0  0  0  0
  -31.6940  -16.9040   21.1590 C   0  0  0  0  0  2  0  0  0  0  0  0
  -30.3780  -18.8270   20.1620 C   0  0  0  0  0  3  0  0  0  0  0  0
  -31.8460  -16.3210   19.8180 N   0  0  0  0  0  0  0  0  0  0  0  0
  -27.2090  -14.8020   20.1270 C   0  0  0  0  0  0  0  0  0  0  0  0
  -26.0530  -14.1780   20.5140 C   0  0  0  0  0  0  0  0  0  0  0  0
  -26.3090  -12.7760   20.4130 C   0  0  0  0  0  0  0  0  0  0  0  0
  -28.1030  -13.7870   19.8180 N   0  0  0  0  0  0  0  0  0  0  0  0
  -27.5640  -12.5610   20.0440 N   0  0  0  0  0  0  0  0  0  0  0  0
  -25.4120  -11.6260   20.5880 C   0  0  0  0  0  0  0  0  0  0  0  0
  -25.6830  -10.6170   21.5390 C   0  0  0  0  0  3  0  0  0  0  0  0
  -24.7980   -9.5300   21.6990 C   0  0  0  0  0  3  0  0  0  0  0  0
  -23.6270   -9.4450   20.9080 C   0  0  0  0  0  0  0  0  0  0  0  0
  -23.3740  -10.4400   19.9480 C   0  0  0  0  0  3  0  0  0  0  0  0
  -24.2600  -11.5190   19.7860 C   0  0  0  0  0  3  0  0  0  0  0  0
  -22.7220   -8.4130   20.9770 O   0  0  0  0  0  0  0  0  0  0  0  0
  -22.3780   -7.8360   22.1740 C   0  0  0  0  0  0  0  0  0  0  0  0
  -21.8940   -8.6000   23.2570 C   0  0  0  0  0  3  0  0  0  0  0  0
  -21.4860   -7.9590   24.4450 C   0  0  0  0  0  3  0  0  0  0  0  0
  -21.5540   -6.5560   24.5470 C   0  0  0  0  0  0  0  0  0  0  0  0
  -22.0320   -5.7930   23.4680 C   0  0  0  0  0  3  0  0  0  0  0  0
  -22.4420   -6.4320   22.2830 C   0  0  0  0  0  0  0  0  0  0  0  0
  -22.8810   -5.6900   21.2380 F   0  0  0  0  0  0  0  0  0  0  0  0
  -21.1560   -5.9400   25.6840 F   0  0  0  0  0  0  0  0  0  0  0  0
  -24.7520  -14.8410   20.8660 C   0  0  0  0  0  0  0  0  0  0  0  0
  -23.9770  -14.2370   21.7600 N   0  0  0  0  0  0  0  0  0  0  0  0
  -24.4370  -15.9270   20.3810 O   0  0  0  0  0  0  0  0  0  0  0  0
  -24.2450  -13.3570   22.1740 H   0  0  0  0  0  0  0  0  0  0  0  0
  -23.1050  -14.6650   22.0360 H   0  0  0  0  0  0  0  0  0  0  0  0
  -27.5680  -16.1380   19.9930 N   0  0  0  0  0  0  0  0  0  0  0  0
  -26.9150  -16.8950   20.1630 H   0  0  0  0  0  0  0  0  0  0  0  0
  -28.4740  -16.4550   19.6720 H   0  0  0  0  0  0  0  0  0  0  0  0
  -31.2410  -24.2290   21.1400 C   0  0  0  0  0  2  0  0  0  0  0  0
  -30.6940  -25.6370   21.4530 C   0  0  0  0  0  2  0  0  0  0  0  0
  -31.4620  -26.7550   20.7320 C   0  0  0  0  0  2  0  0  0  0  0  0
  -30.9980  -28.0330   21.1660 O   0  0  0  0  0  0  0  0  0  0  0  0
  -25.6300  -31.7310   23.9870 C   0  0  0  0  0  0  0  0  0  0  0  0
  -29.6660  -28.3690   21.0490 C   0  0  0  0  0  0  0  0  0  0  0  0
  -25.0250  -30.2380   22.1070 C   0  0  0  0  0  3  0  0  0  0  0  0
  -26.9790  -29.2270   20.8230 C   0  0  0  0  0  0  0  0  0  0  0  0
  -27.3820  -31.2070   22.2970 C   0  0  0  0  0  2  0  0  0  0  0  0
  -27.8850  -29.9610   21.5990 C   0  0  0  0  0  0  0  0  0  0  0  0
  -29.2260  -29.5370   21.7100 C   0  0  0  0  0  3  0  0  0  0  0  0
  -28.7350  -27.6280   20.2820 C   0  0  0  0  0  3  0  0  0  0  0  0
  -27.3990  -28.0560   20.1650 C   0  0  0  0  0  3  0  0  0  0  0  0
  -25.5670  -29.7560   20.7350 C   0  0  0  0  0  2  0  0  0  0  0  0
  -26.0180  -31.0710   22.8600 N   0  0  0  0  0  0  0  0  0  0  0  0
  -24.4560  -31.6880   24.3830 O   0  0  0  0  0  0  0  0  0  0  0  0
  -24.5350  -29.0070   22.9020 C   0  0  0  0  0  0  0  0  0  0  0  0
  -23.3780  -28.4570   22.4960 N   0  0  0  0  0  0  0  0  0  0  0  0
  -25.1990  -28.5510   23.8370 O   0  0  0  0  0  0  0  0  0  0  0  0
  -22.8880  -28.8970   21.7300 H   0  0  0  0  0  0  0  0  0  0  0  0
  -20.5290  -26.2580   22.2050 C   0  0  0  0  0  0  0  0  0  0  0  0
  -22.7440  -27.2710   23.0670 C   0  0  0  0  0  3  0  0  0  0  0  0
  -23.4170  -25.9770   22.5560 C   0  0  0  0  0  2  0  0  0  0  0  0
  -22.7330  -25.3920   21.3150 C   0  0  0  0  0  2  0  0  0  0  0  0
  -21.2660  -25.0700   21.6140 C   0  0  0  0  0  2  0  0  0  0  0  0
  -21.2240  -27.2990   22.8750 C   0  0  0  0  0  0  0  0  0  0  0  0
  -20.4940  -28.4000   23.3760 C   0  0  0  0  0  3  0  0  0  0  0  0
  -19.0980  -28.4690   23.2170 C   0  0  0  0  0  3  0  0  0  0  0  0
  -18.4120  -27.4260   22.5700 C   0  0  0  0  0  3  0  0  0  0  0  0
  -19.1260  -26.3240   22.0690 C   0  0  0  0  0  3  0  0  0  0  0  0
  -26.6330  -32.5880   24.8200 C   0  0  0  0  0  3  0  0  0  0  0  0
  -26.9990  -31.9410   26.2110 C   0  0  1  0  0  0  0  0  0  0  0  0
  -25.7660  -31.4930   27.0310 C   0  0  0  0  0  1  0  0  0  0  0  0
  -27.9110  -30.7070   26.0140 C   0  0  0  0  0  1  0  0  0  0  0  0
  -27.7990  -32.9500   27.0690 C   0  0  0  0  0  1  0  0  0  0  0  0
  -26.0290  -33.9130   25.0080 N   0  0  0  0  0  0  0  0  0  0  0  0
  -26.3240  -34.9930   24.2710 C   0  0  0  0  0  0  0  0  0  0  0  0
  -27.1980  -34.9940   23.4000 O   0  0  0  0  0  0  0  0  0  0  0  0
  -25.2660  -33.9730   25.6650 H   0  0  0  0  0  0  0  0  0  0  0  0
  -24.4220  -36.4380   23.4880 C   0  0  0  0  0  1  0  0  0  0  0  0
  -25.5240  -36.2790   24.5470 C   0  0  0  0  0  3  0  0  0  0  0  0
  -27.2830  -37.5360   25.7120 C   0  0  0  0  0  1  0  0  0  0  0  0
  -26.3610  -37.4980   24.5800 N   0  0  0  0  0  0  0  0  0  0  0  0
  -25.7810  -38.3320   24.6180 H   0  0  0  0  0  0  0  0  0  0  0  0
  2  1  2  0
  3  1  1  0
  4  5  2  0
  4  6  1  0
  5  2  1  0
  6  3  2  0
  7  5  1  0
  8 21  1  0
  8 14  1  0
  9 14  1  0
 10 11  1  0
 10  9  1  0
 12 11  1  0
 12 25  1  0
 12 13  1  0
 14 13  1  0
 15  8  2  0
 16 20  1  0
 18 16  1  0
 18 21  1  0
 19 17  1  0
 20  7  1  0
 20 17  1  0
 21 19  1  0
 22 23  2  0
 23 42  1  0
 24 23  1  0
 24 27  1  0
 25 26  1  0
 25 22  1  0
 26 24  2  0
 27 28  1  0
 28 29  2  0
 30 33  1  0
 30 29  1  0
 31 30  2  0
 32 31  1  0
 32 27  2  0
 33 34  1  0
 34 39  2  0
 34 35  1  0
 35 36  2  0
 36 37  1  0
 37 41  1  0
 38 37  2  0
 39 38  1  0
 40 39  1  0
 42 43  1  0
 43 46  1  0
 43 45  1  0
 44 42  2  0
 47 22  1  0
 47 48  1  0
 49 47  1  0
 50 51  1  0
 50  6  1  0
 52 53  1  0
 52 51  1  0
 54 65  2  0
 55 53  1  0
 55 60  1  0
 56 64  1  0
 56 66  1  0
 57 59  1  0
 58 64  1  0
 59 60  2  0
 59 58  1  0
 61 55  2  0
 62 61  1  0
 62 57  2  0
 63 57  1  0
 63 56  1  0
 64 54  1  0
 66 68  2  0
 67 66  1  0
 69 67  1  0
 70 75  1  0
 71 67  1  0
 72 71  1  0
 73 74  1  0
 73 72  1  0
 74 70  1  0
 75 71  1  0
 75 76  2  0
 77 76  1  0
 78 77  2  0
 79 70  2  0
 79 78  1  0
 80 54  1  0
 80 85  1  0
 80 81  1  0
 81 82  1  1
 81 84  1  0
 83 81  1  0
 85 88  1  0
 86 90  1  0
 86 85  1  0
 87 86  2  0
 90 89  1  0
 90 92  1  0
 92 93  1  0
 92 91  1  0
M  ISO  4   8 100  21 100  52 101  53 101
M  END
>  <TORSDO>  (32) 
F 20

>  <SCORE>  (32) 
-6.962

>  <name>  (32) 
31

>  <ligand_id>  (32) 
31

>  <original_smiles>  (32) 
[H]c1c([H])c([H])c2c(c1[H])C([H])([H])C([H])([H])C([H])([H])C2([H])N([H])C(=O)C1([H])N(C(=O)C([H])(N([H])C(=O)C([H])(N([H])C([H])([H])[H])C([H])([H])[H])C(C([H])([H])[H])(C([H])([H])[H])C([H])([H])[H])C([H])([H])c2c([H])c(OC([H])([H])C([H])([H])C([H])([H])c3c([H])c([H])c([H])c(C([H])([H])C4([H])C([H])([H])C([H])([H])N(C(=O)N5C([H])([H])C([H])([H])C([H])([H])C([H])(n6nc(-c7c([H])c([H])c(Oc8c([H])c([H])c(F)c([H])c8F)c([H])c7[H])c(C(=O)N([H])[H])c6N([H])[H])C5([H])[H])C([H])([H])C4([H])[H])c3[H])c([H])c([H])c2C1([H])[H]

>  <smiles>  (32) 
[H]c1c([H])c([H])c2c(c1[H])C([H])([H])C([H])([H])C([H])([H])C2([H])N([H])C(=O)C1([H])N(C(=O)C([H])(N([H])C(=O)C([H])(N([H])C([H])([H])[H])C([H])([H])[H])C(C([H])([H])[H])(C([H])([H])[H])C([H])([H])[H])C([H])([H])c2c([H])c(OC([H])([H])C([H])([H])C([H])([H])c3c([H])c([H])c([H])c(C([H])([H])C4([H])C([H])([H])C([H])([H])N(C(=O)N5C([H])([H])C([H])([H])C([H])([H])C([H])(n6nc(-c7c([H])c([H])c(Oc8c([H])c([H])c(F)c([H])c8F)c([H])c7[H])c(C(=O)N([H])[H])c6N([H])[H])C5([H])[H])C([H])([H])C4([H])[H])c3[H])c([H])c([H])c2C1([H])[H]

$$$$
32:0:0
     RDKit          3D

 88 95  0  0  1  0  0  0  0  0999 V2000
  -29.5960  -23.0820   22.8510 C   0  0  0  0  0  0  0  0  0  0  0  0
  -28.7120  -22.7570   23.6490 O   0  0  0  0  0  0  0  0  0  0  0  0
  -30.4360  -22.0410   22.1000 C   0  0  0  0  0  2  0  0  0  0  0  0
  -29.9510  -20.5920   22.3030 C   0  0  0  0  0  2  0  0  0  0  0  0
  -30.7800  -19.5620   21.5140 C   0  0  0  0  0  2  0  0  0  0  0  0
  -30.2750  -18.1260   21.7340 C   0  0  0  0  0  2  0  0  0  0  0  0
  -31.0630  -17.0680   20.9420 C   0  0  0  0  0  2  0  0  0  0  0  0
  -30.5100  -15.6430   21.1690 C   0  0  0  0  0  2  0  0  0  0  0  0
  -31.0870  -14.5740   20.2190 C   0  0  0  0  0  0  0  0  0  0  0  0
  -30.6820  -12.5220   18.9020 C   0  0  0  0  0  2  0  0  0  0  0  0
  -29.6760  -12.8180   17.7700 C   0  0  0  0  0  2  0  0  0  0  0  0
  -28.2250  -12.6840   18.2720 C   0  0  0  0  0  2  0  0  0  0  0  0
  -27.9780  -13.4530   19.5980 C   0  0  0  0  0  3  0  0  0  0  0  0
  -29.0810  -13.1210   20.6280 C   0  0  0  0  0  2  0  0  0  0  0  0
  -30.3820  -13.4300   20.0160 N   0  0  0  0  0  0  0  0  0  0  0  0
  -32.1410  -14.8150   19.6210 O   0  0  0  0  0  0  0  0  0  0  0  0
  -25.6180  -14.0760   20.4250 C   0  0  0  0  0  0  0  0  0  0  0  0
  -24.5570  -13.3070   20.8230 C   0  0  0  0  0  0  0  0  0  0  0  0
  -24.9980  -11.9520   20.7380 C   0  0  0  0  0  0  0  0  0  0  0  0
  -26.6420  -13.1870   20.1280 N   0  0  0  0  0  0  0  0  0  0  0  0
  -26.2730  -11.9040   20.3700 N   0  0  0  0  0  0  0  0  0  0  0  0
  -24.2660  -10.6940   20.9310 C   0  0  0  0  0  0  0  0  0  0  0  0
  -24.6850   -9.7330   21.8770 C   0  0  0  0  0  3  0  0  0  0  0  0
  -23.9550   -8.5380   22.0560 C   0  0  0  0  0  3  0  0  0  0  0  0
  -22.7920   -8.2970   21.2890 C   0  0  0  0  0  0  0  0  0  0  0  0
  -22.3910   -9.2460   20.3320 C   0  0  0  0  0  3  0  0  0  0  0  0
  -23.1220  -10.4320   20.1510 C   0  0  0  0  0  3  0  0  0  0  0  0
  -22.0340   -7.1530   21.3770 O   0  0  0  0  0  0  0  0  0  0  0  0
  -21.9060   -6.4630   22.5560 C   0  0  0  0  0  0  0  0  0  0  0  0
  -21.3880   -7.0690   23.7210 C   0  0  0  0  0  3  0  0  0  0  0  0
  -21.2090   -6.3050   24.8910 C   0  0  0  0  0  3  0  0  0  0  0  0
  -21.5380   -4.9350   24.8960 C   0  0  0  0  0  0  0  0  0  0  0  0
  -22.0480   -4.3290   23.7340 C   0  0  0  0  0  3  0  0  0  0  0  0
  -22.2290   -5.0910   22.5670 C   0  0  0  0  0  0  0  0  0  0  0  0
  -22.7010   -4.4980   21.4440 F   0  0  0  0  0  0  0  0  0  0  0  0
  -21.3580   -4.1990   26.0180 F   0  0  0  0  0  0  0  0  0  0  0  0
  -23.1800  -13.7940   21.1720 C   0  0  0  0  0  0  0  0  0  0  0  0
  -22.4860  -13.0840   22.0560 N   0  0  0  0  0  0  0  0  0  0  0  0
  -22.7300  -14.8350   20.6980 O   0  0  0  0  0  0  0  0  0  0  0  0
  -22.8640  -12.2410   22.4610 H   0  0  0  0  0  0  0  0  0  0  0  0
  -21.5640  -13.3900   22.3320 H   0  0  0  0  0  0  0  0  0  0  0  0
  -25.7940  -15.4480   20.2730 N   0  0  0  0  0  0  0  0  0  0  0  0
  -25.0430  -16.1120   20.4340 H   0  0  0  0  0  0  0  0  0  0  0  0
  -26.6420  -15.8840   19.9320 H   0  0  0  0  0  0  0  0  0  0  0  0
  -29.8880  -24.5540   22.5680 C   0  0  0  0  0  2  0  0  0  0  0  0
  -29.0320  -25.0920   21.4090 C   0  0  0  0  0  2  0  0  0  0  0  0
  -29.3120  -26.5680   21.0930 C   0  0  0  0  0  2  0  0  0  0  0  0
  -28.6230  -26.8960   19.8910 O   0  0  0  0  0  0  0  0  0  0  0  0
  -24.7360  -31.7830   23.3510 C   0  0  0  0  0  0  0  0  0  0  0  0
  -27.4500  -27.5970   20.0210 C   0  0  0  0  0  0  0  0  0  0  0  0
  -23.5430  -30.4530   21.6360 C   0  0  0  0  0  3  0  0  0  0  0  0
  -25.0190  -29.0220   20.1260 C   0  0  0  0  0  0  0  0  0  0  0  0
  -26.0550  -30.8770   21.4450 C   0  0  0  0  0  2  0  0  0  0  0  0
  -26.1640  -29.5430   20.7420 C   0  0  0  0  0  0  0  0  0  0  0  0
  -27.3820  -28.8350   20.6970 C   0  0  0  0  0  3  0  0  0  0  0  0
  -26.2960  -27.0850   19.3960 C   0  0  0  0  0  3  0  0  0  0  0  0
  -25.0760  -27.7880   19.4530 C   0  0  0  0  0  3  0  0  0  0  0  0
  -23.7570  -29.8510   20.2200 C   0  0  0  0  0  2  0  0  0  0  0  0
  -24.7950  -31.0490   22.2040 N   0  0  0  0  0  0  0  0  0  0  0  0
  -23.6540  -32.0040   23.9120 O   0  0  0  0  0  0  0  0  0  0  0  0
  -22.9160  -29.3680   22.5410 C   0  0  0  0  0  0  0  0  0  0  0  0
  -21.5980  -29.1600   22.3970 N   0  0  0  0  0  0  0  0  0  0  0  0
  -23.6140  -28.7190   23.3260 O   0  0  0  0  0  0  0  0  0  0  0  0
  -21.0970  -29.7390   21.7370 H   0  0  0  0  0  0  0  0  0  0  0  0
  -18.2530  -27.8600   22.8090 C   0  0  0  0  0  0  0  0  0  0  0  0
  -20.8010  -28.1650   23.1130 C   0  0  0  0  0  3  0  0  0  0  0  0
  -20.9430  -26.7680   22.4660 C   0  0  0  0  0  2  0  0  0  0  0  0
  -19.8550  -26.4710   21.4280 C   0  0  0  0  0  2  0  0  0  0  0  0
  -18.4670  -26.5510   22.0680 C   0  0  0  0  0  2  0  0  0  0  0  0
  -19.3490  -28.6260   23.2850 C   0  0  0  0  0  0  0  0  0  0  0  0
  -19.0970  -29.8540   23.9350 C   0  0  0  0  0  3  0  0  0  0  0  0
  -17.7810  -30.3170   24.1130 C   0  0  0  0  0  3  0  0  0  0  0  0
  -16.6970  -29.5470   23.6540 C   0  0  0  0  0  3  0  0  0  0  0  0
  -16.9350  -28.3210   23.0080 C   0  0  0  0  0  3  0  0  0  0  0  0
  -26.0160  -32.3970   23.9980 C   0  0  0  0  0  3  0  0  0  0  0  0
  -26.5400  -31.5780   25.2410 C   0  0  1  0  0  0  0  0  0  0  0  0
  -25.4480  -31.2840   26.2960 C   0  0  0  0  0  1  0  0  0  0  0  0
  -27.1370  -30.2250   24.7880 C   0  0  0  0  0  1  0  0  0  0  0  0
  -27.6810  -32.3550   25.9390 C   0  0  0  0  0  1  0  0  0  0  0  0
  -25.6990  -33.7780   24.3820 N   0  0  0  0  0  0  0  0  0  0  0  0
  -26.0370  -34.8610   23.6690 C   0  0  0  0  0  0  0  0  0  0  0  0
  -26.7230  -34.8020   22.6440 O   0  0  0  0  0  0  0  0  0  0  0  0
  -25.0950  -33.8980   25.1820 H   0  0  0  0  0  0  0  0  0  0  0  0
  -24.3110  -36.6620   23.3520 C   0  0  0  0  0  1  0  0  0  0  0  0
  -25.5350  -36.2280   24.1740 C   0  0  0  0  0  3  0  0  0  0  0  0
  -27.6460  -37.0820   25.0900 C   0  0  0  0  0  1  0  0  0  0  0  0
  -26.5660  -37.2870   24.1280 N   0  0  0  0  0  0  0  0  0  0  0  0
  -26.1540  -38.1990   24.3030 H   0  0  0  0  0  0  0  0  0  0  0  0
  1  2  2  0
  3  4  1  0
  3  1  1  0
  5  6  1  0
  5  4  1  0
  7  8  1  0
  7  6  1  0
  9  8  1  0
 10 15  1  0
 11 12  1  0
 11 10  1  0
 13 12  1  0
 13 20  1  0
 13 14  1  0
 15  9  1  0
 15 14  1  0
 16  9  2  0
 17 18  2  0
 18 37  1  0
 19 18  1  0
 19 22  1  0
 20 21  1  0
 20 17  1  0
 21 19  2  0
 22 23  1  0
 23 24  2  0
 25 28  1  0
 25 24  1  0
 26 25  2  0
 27 26  1  0
 27 22  2  0
 28 29  1  0
 29 34  2  0
 29 30  1  0
 30 31  2  0
 31 32  1  0
 32 36  1  0
 33 32  2  0
 34 33  1  0
 35 34  1  0
 37 38  1  0
 38 41  1  0
 38 40  1  0
 39 37  2  0
 42 17  1  0
 42 43  1  0
 44 42  1  0
 45  1  1  0
 46 45  1  0
 47 46  1  0
 48 50  1  0
 48 47  1  0
 49 60  2  0
 50 55  1  0
 51 59  1  0
 51 61  1  0
 52 58  1  0
 52 54  1  0
 53 59  1  0
 54 53  1  0
 55 54  2  0
 56 57  1  0
 56 50  2  0
 57 52  2  0
 58 51  1  0
 59 49  1  0
 61 63  2  0
 62 61  1  0
 64 62  1  0
 65 74  2  0
 65 70  1  0
 66 62  1  0
 66 70  1  0
 67 66  1  0
 68 69  1  0
 68 67  1  0
 69 65  1  0
 70 71  2  0
 71 72  1  0
 73 72  2  0
 74 73  1  0
 75 49  1  0
 75 80  1  0
 75 76  1  0
 76 79  1  1
 76 77  1  0
 78 76  1  0
 80 83  1  0
 81 85  1  0
 81 80  1  0
 82 81  2  0
 85 84  1  0
 87 85  1  0
 87 88  1  0
 87 86  1  0
M  ISO  4   8 100   9 100  47 101  48 101
M  END
>  <TORSDO>  (33) 
F 25

>  <SCORE>  (33) 
-10.533

>  <name>  (33) 
32

>  <ligand_id>  (33) 
32

>  <original_smiles>  (33) 
[H]c1c([H])c([H])c2c(c1[H])C([H])([H])C([H])([H])C([H])([H])C2([H])N([H])C(=O)C1([H])N(C(=O)C([H])(N([H])C(=O)C([H])(N([H])C([H])([H])[H])C([H])([H])[H])C(C([H])([H])[H])(C([H])([H])[H])C([H])([H])[H])C([H])([H])c2c([H])c(OC([H])([H])C([H])([H])C([H])([H])C(=O)C([H])([H])C([H])([H])C([H])([H])C([H])([H])C([H])([H])C([H])([H])C(=O)N3C([H])([H])C([H])([H])C([H])([H])C([H])(n4nc(-c5c([H])c([H])c(Oc6c([H])c([H])c(F)c([H])c6F)c([H])c5[H])c(C(=O)N([H])[H])c4N([H])[H])C3([H])[H])c([H])c([H])c2C1([H])[H]

>  <smiles>  (33) 
[H]c1c([H])c([H])c2c(c1[H])C([H])([H])C([H])([H])C([H])([H])C2([H])N([H])C(=O)C1([H])N(C(=O)C([H])(N([H])C(=O)C([H])(N([H])C([H])([H])[H])C([H])([H])[H])C(C([H])([H])[H])(C([H])([H])[H])C([H])([H])[H])C([H])([H])c2c([H])c(OC([H])([H])C([H])([H])C([H])([H])C(=O)C([H])([H])C([H])([H])C([H])([H])C([H])([H])C([H])([H])C([H])([H])C(=O)N3C([H])([H])C([H])([H])C([H])([H])C([H])(n4nc(-c5c([H])c([H])c(Oc6c([H])c([H])c(F)c([H])c6F)c([H])c5[H])c(C(=O)N([H])[H])c4N([H])[H])C3([H])[H])c([H])c([H])c2C1([H])[H]

$$$$
33:0:0
     RDKit          3D

 95102  0  0  1  0  0  0  0  0999 V2000
  -21.7320  -27.0660   20.6230 C   0  0  0  0  0  3  0  0  0  0  0  0
  -21.0280  -28.5170   21.6430 C   0  0  0  0  0  3  0  0  0  0  0  0
  -23.0860  -25.8480   23.0330 C   0  0  0  0  0  3  0  0  0  0  0  0
  -22.8610  -25.7750   21.3570 C   0  0  0  0  0  0  0  0  0  0  0  0
  -22.6330  -27.1170   24.1180 C   0  0  0  0  0  0  0  0  0  0  0  0
  -21.4920  -28.5370   23.5400 C   0  0  0  0  0  0  0  0  0  0  0  0
  -20.3430  -30.7100   23.8500 C   0  0  0  0  0  1  0  0  0  0  0  0
  -21.3160  -29.7080   24.3190 N   0  0  0  0  0  0  0  0  0  0  0  0
  -22.2150  -30.1220   24.5730 H   0  0  0  0  0  0  0  0  0  0  0  0
  -23.9880  -24.4980   20.5830 C   0  0  0  0  0  3  0  0  0  0  0  0
  -25.4060  -23.2280   21.0160 C   0  0  0  0  0  3  0  0  0  0  0  0
  -26.4940  -21.8060   20.2240 C   0  0  0  0  0  3  0  0  0  0  0  0
  -27.6480  -20.2940   20.6800 C   0  0  0  0  0  3  0  0  0  0  0  0
  -28.6500  -18.7960   19.9110 C   0  0  0  0  0  3  0  0  0  0  0  0
  -29.5100  -17.1180   20.4160 C   0  0  0  0  0  3  0  0  0  0  0  0
  -30.6560  -15.7100   19.8810 C   0  0  0  0  0  0  0  0  0  0  0  0
  -31.1010  -13.2060   19.0220 C   0  0  0  0  0  2  0  0  0  0  0  0
  -30.1930  -12.8470   17.8080 C   0  0  0  0  0  2  0  0  0  0  0  0
  -28.7510  -12.5450   18.2600 C   0  0  0  0  0  2  0  0  0  0  0  0
  -28.3050  -13.5380   19.3580 C   0  0  0  0  0  3  0  0  0  0  0  0
  -29.3120  -13.6440   20.5000 C   0  0  0  0  0  2  0  0  0  0  0  0
  -30.4390  -14.2900   19.8760 N   0  0  0  0  0  0  0  0  0  0  0  0
  -31.8470  -15.8670   19.4990 O   0  0  0  0  0  0  0  0  0  0  0  0
  -26.0360  -14.2200   20.2160 C   0  0  0  0  0  0  0  0  0  0  0  0
  -24.9640  -13.4940   20.6370 C   0  0  0  0  0  0  0  0  0  0  0  0
  -25.3610  -12.1220   20.5670 C   0  0  0  0  0  0  0  0  0  0  0  0
  -26.9990  -13.2860   19.8940 N   0  0  0  0  0  0  0  0  0  0  0  0
  -26.6230  -12.0200   20.1810 N   0  0  0  0  0  0  0  0  0  0  0  0
  -24.5900  -10.8970   20.7740 C   0  0  0  0  0  0  0  0  0  0  0  0
  -24.9540   -9.9500   21.7560 C   0  0  0  0  0  3  0  0  0  0  0  0
  -24.1800   -8.7860   21.9440 C   0  0  0  0  0  3  0  0  0  0  0  0
  -23.0310   -8.5640   21.1490 C   0  0  0  0  0  0  0  0  0  0  0  0
  -22.6890   -9.4980   20.1560 C   0  0  0  0  0  3  0  0  0  0  0  0
  -23.4630  -10.6530   19.9660 C   0  0  0  0  0  3  0  0  0  0  0  0
  -22.2310   -7.4520   21.2460 O   0  0  0  0  0  0  0  0  0  0  0  0
  -21.9950   -6.8400   22.4490 C   0  0  0  0  0  0  0  0  0  0  0  0
  -21.4510   -7.5400   23.5480 C   0  0  0  0  0  3  0  0  0  0  0  0
  -21.1600   -6.8560   24.7450 C   0  0  0  0  0  3  0  0  0  0  0  0
  -21.4030   -5.4720   24.8420 C   0  0  0  0  0  0  0  0  0  0  0  0
  -21.9400   -4.7730   23.7460 C   0  0  0  0  0  3  0  0  0  0  0  0
  -22.2340   -5.4560   22.5530 C   0  0  0  0  0  0  0  0  0  0  0  0
  -22.7320   -4.7740   21.4930 F   0  0  0  0  0  0  0  0  0  0  0  0
  -21.1160   -4.8120   25.9870 F   0  0  0  0  0  0  0  0  0  0  0  0
  -23.6120  -14.0400   20.9810 C   0  0  0  0  0  0  0  0  0  0  0  0
  -22.9150  -13.4020   21.9130 N   0  0  0  0  0  0  0  0  0  0  0  0
  -23.1890  -15.0680   20.4540 O   0  0  0  0  0  0  0  0  0  0  0  0
  -23.2770  -12.5710   22.3580 H   0  0  0  0  0  0  0  0  0  0  0  0
  -22.0080  -13.7490   22.1880 H   0  0  0  0  0  0  0  0  0  0  0  0
  -26.2630  -15.5840   20.0510 N   0  0  0  0  0  0  0  0  0  0  0  0
  -25.5320  -16.2680   20.2090 H   0  0  0  0  0  0  0  0  0  0  0  0
  -27.0940  -15.9830   19.6340 H   0  0  0  0  0  0  0  0  0  0  0  0
  -24.0900  -27.1040   24.8700 C   0  0  0  0  0  2  0  0  0  0  0  0
  -25.5780  -26.5830   24.1120 C   0  0  0  0  0  3  0  0  0  0  0  0
  -26.1910  -26.8870   22.5720 C   0  0  0  0  0  3  0  0  0  0  0  0
  -27.4330  -26.5460   21.6470 O   0  0  0  0  0  0  0  0  0  0  0  0
  -24.5070  -31.7040   22.9850 C   0  0  0  0  0  0  0  0  0  0  0  0
  -27.3040  -27.2760   20.4870 C   0  0  0  0  0  0  0  0  0  0  0  0
  -23.6060  -30.1220   21.2820 C   0  0  0  0  0  3  0  0  0  0  0  0
  -25.1360  -28.8360   19.7930 C   0  0  0  0  0  0  0  0  0  0  0  0
  -26.0210  -30.7660   21.2060 C   0  0  0  0  0  2  0  0  0  0  0  0
  -26.2090  -29.4140   20.5000 C   0  0  0  0  0  0  0  0  0  0  0  0
  -27.3740  -28.6610   20.7210 C   0  0  0  0  0  3  0  0  0  0  0  0
  -26.3620  -26.7510   19.5750 C   0  0  0  0  0  3  0  0  0  0  0  0
  -25.2250  -27.5250   19.2750 C   0  0  0  0  0  3  0  0  0  0  0  0
  -23.8360  -29.6100   19.8420 C   0  0  0  0  0  2  0  0  0  0  0  0
  -24.6910  -30.9950   21.8150 N   0  0  0  0  0  0  0  0  0  0  0  0
  -23.3920  -31.8740   23.4790 O   0  0  0  0  0  0  0  0  0  0  0  0
  -23.7760  -28.9090   22.1670 C   0  0  0  0  0  0  0  0  0  0  0  0
  -23.1300  -27.7400   21.9880 N   0  0  0  0  0  2  0  0  0  0  0  0
  -24.2360  -29.0350   23.2620 O   0  0  0  0  0  0  0  0  0  0  0  0
  -23.2270  -27.4530   21.0270 H   0  0  0  0  0  0  0  0  0  0  0  0
  -17.9760  -27.0600   22.1870 C   0  0  0  0  0  0  0  0  0  0  0  0
  -20.6980  -26.6230   22.8310 C   0  0  0  0  0  2  0  0  0  0  0  0
  -20.1700  -25.2500   22.4430 C   0  0  0  0  0  2  0  0  0  0  0  0
  -19.3290  -25.2120   21.1770 C   0  0  0  0  0  2  0  0  0  0  0  0
  -17.9760  -25.7280   21.5180 C   0  0  0  0  0  2  0  0  0  0  0  0
  -19.1300  -27.5230   22.8860 C   0  0  0  0  0  0  0  0  0  0  0  0
  -18.7540  -28.7630   23.5680 C   0  0  0  0  0  3  0  0  0  0  0  0
  -17.5600  -29.5280   23.4080 C   0  0  0  0  0  3  0  0  0  0  0  0
  -16.5000  -28.9790   22.6960 C   0  0  0  0  0  3  0  0  0  0  0  0
  -16.7170  -27.7180   22.1350 C   0  0  0  0  0  3  0  0  0  0  0  0
  -25.6860  -32.2890   23.8090 C   0  0  0  0  0  3  0  0  0  0  0  0
  -26.0460  -31.5210   25.1490 C   0  0  1  0  0  0  0  0  0  0  0  0
  -24.8390  -31.2080   26.0700 C   0  0  0  0  0  1  0  0  0  0  0  0
  -26.8010  -30.2060   24.8580 C   0  0  0  0  0  1  0  0  0  0  0  0
  -27.0450  -32.3760   25.9650 C   0  0  0  0  0  1  0  0  0  0  0  0
  -25.2840  -33.6590   24.1210 N   0  0  0  0  0  0  0  0  0  0  0  0
  -25.6070  -34.7050   23.3590 C   0  0  0  0  0  0  0  0  0  0  0  0
  -26.3560  -34.6080   22.3840 O   0  0  0  0  0  0  0  0  0  0  0  0
  -24.6210  -33.7830   24.8720 H   0  0  0  0  0  0  0  0  0  0  0  0
  -23.8480  -36.4110   22.8130 C   0  0  0  0  0  1  0  0  0  0  0  0
  -25.0180  -36.0700   23.7470 C   0  0  0  0  0  3  0  0  0  0  0  0
  -27.0400  -37.0250   24.7560 C   0  0  0  0  0  1  0  0  0  0  0  0
  -26.0200  -37.1550   23.7180 N   0  0  0  0  0  0  0  0  0  0  0  0
  -25.5740  -38.0630   23.8210 H   0  0  0  0  0  0  0  0  0  0  0  0
  1  4  2  0
  1  2  1  0
  2  6  2  0
  3  5  2  0
  4  3  1  0
  5 52  1  0
  6  5  1  0
  6  8  1  0
  7  8  1  0
  8  9  1  0
 10 11  2  0
 10  4  1  0
 12 13  2  0
 12 11  1  0
 14 15  2  0
 14 13  1  0
 16 15  1  0
 17 22  1  0
 18 19  1  0
 18 17  1  0
 20 19  1  0
 20 27  1  0
 20 21  1  0
 22 16  1  0
 22 21  1  0
 23 16  2  0
 24 25  2  0
 25 44  1  0
 26 25  1  0
 26 29  1  0
 27 28  1  0
 27 24  1  0
 28 26  2  0
 29 30  1  0
 30 31  2  0
 32 35  1  0
 32 31  1  0
 33 32  2  0
 34 33  1  0
 34 29  2  0
 35 36  1  0
 36 41  2  0
 36 37  1  0
 37 38  2  0
 38 39  1  0
 39 43  1  0
 40 39  2  0
 41 40  1  0
 42 41  1  0
 44 45  1  0
 45 48  1  0
 45 47  1  0
 46 44  2  0
 49 50  1  0
 49 24  1  0
 51 49  1  0
 53 52  1  0
 54 53  2  0
 55 54  1  0
 56 67  2  0
 57 62  1  0
 57 55  1  0
 58 66  1  0
 58 68  1  0
 59 65  1  0
 59 61  1  0
 60 66  1  0
 61 62  2  0
 61 60  1  0
 63 57  2  0
 64 63  1  0
 64 59  2  0
 65 58  1  0
 66 56  1  0
 68 70  2  0
 69 68  1  0
 71 69  1  0
 72 77  1  0
 73 77  1  0
 74 73  1  0
 75 76  1  0
 75 74  1  0
 76 72  1  0
 77 78  2  0
 79 78  1  0
 80 79  2  0
 81 72  2  0
 81 80  1  0
 82 56  1  0
 82 87  1  0
 82 83  1  0
 83 86  1  1
 83 84  1  0
 85 83  1  0
 87 90  1  0
 88 92  1  0
 88 87  1  0
 89 88  2  0
 92 91  1  0
 94 92  1  0
 94 95  1  0
 94 93  1  0
M  ISO  4  15 100  16 100  54 101  55 101
M  END
>  <TORSDO>  (34) 
F 26

>  <SCORE>  (34) 
-11.266

>  <name>  (34) 
33

>  <ligand_id>  (34) 
33

>  <original_smiles>  (34) 
[H]c1c([H])c([H])c2c(c1[H])C([H])([H])C([H])([H])C([H])([H])C2([H])N([H])C(=O)C1([H])N(C(=O)C([H])(N([H])C(=O)C([H])(N([H])C([H])([H])[H])C([H])([H])[H])C(C([H])([H])[H])(C([H])([H])[H])C([H])([H])[H])C([H])([H])c2c([H])c(OC([H])([H])C([H])([H])C([H])([H])c3c([H])c(C([H])([H])C([H])([H])C([H])([H])C([H])([H])C([H])([H])C([H])([H])C(=O)N4C([H])([H])C([H])([H])C([H])([H])C([H])(n5nc(-c6c([H])c([H])c(Oc7c([H])c([H])c(F)c([H])c7F)c([H])c6[H])c(C(=O)N([H])[H])c5N([H])[H])C4([H])[H])c([H])c([H])c3N([H])C([H])([H])[H])c([H])c([H])c2C1([H])[H]

>  <smiles>  (34) 
[H]c1c([H])c([H])c2c(c1[H])C([H])([H])C([H])([H])C([H])([H])C2([H])N([H])C(=O)C1([H])N(C(=O)C([H])(N([H])C(=O)C([H])(N([H])C([H])([H])[H])C([H])([H])[H])C(C([H])([H])[H])(C([H])([H])[H])C([H])([H])[H])C([H])([H])c2c([H])c(OC([H])([H])C([H])([H])C([H])([H])c3c([H])c(C([H])([H])C([H])([H])C([H])([H])C([H])([H])C([H])([H])C([H])([H])C(=O)N4C([H])([H])C([H])([H])C([H])([H])C([H])(n5nc(-c6c([H])c([H])c(Oc7c([H])c([H])c(F)c([H])c7F)c([H])c6[H])c(C(=O)N([H])[H])c5N([H])[H])C4([H])[H])c([H])c([H])c3N([H])C([H])([H])[H])c([H])c([H])c2C1([H])[H]

$$$$
34:0:0
     RDKit          3D

 93102  0  0  1  0  0  0  0  0999 V2000
  -26.6010  -22.7520   17.9480 C   0  0  0  0  0  3  0  0  0  0  0  0
  -26.9360  -21.8070   18.9310 C   0  0  0  0  0  3  0  0  0  0  0  0
  -27.2080  -24.0170   17.9480 C   0  0  0  0  0  3  0  0  0  0  0  0
  -28.5050  -23.3970   19.9060 C   0  0  0  0  0  3  0  0  0  0  0  0
  -27.9450  -22.0830   19.8790 C   0  0  0  0  0  0  0  0  0  0  0  0
  -28.1170  -24.3850   18.9610 C   0  0  0  0  0  0  0  0  0  0  0  0
  -28.3100  -21.0410   20.9560 C   0  0  0  0  0  2  0  0  0  0  0  0
  -30.0780  -19.1460   21.1220 C   0  0  0  0  0  2  0  0  0  0  0  0
  -28.5490  -19.0260   19.1510 C   0  0  0  0  0  2  0  0  0  0  0  0
  -30.6090  -17.7430   20.6900 C   0  0  0  0  0  2  0  0  0  0  0  0
  -28.6630  -17.4800   19.0610 C   0  0  0  0  0  2  0  0  0  0  0  0
  -28.6740  -19.5390   20.6000 C   0  0  0  0  0  3  0  0  0  0  0  0
  -29.5430  -16.7640   20.1340 C   0  0  0  0  0  3  0  0  0  0  0  0
  -30.8590  -14.5500   19.9730 C   0  0  0  0  0  0  0  0  0  0  0  0
  -30.4900  -12.3470   18.9520 C   0  0  0  0  0  2  0  0  0  0  0  0
  -29.5150  -12.5570   17.7740 C   0  0  0  0  0  2  0  0  0  0  0  0
  -28.0550  -12.4460   18.2670 C   0  0  0  0  0  2  0  0  0  0  0  0
  -27.7730  -13.3150   19.5260 C   0  0  0  0  0  3  0  0  0  0  0  0
  -28.8760  -13.1360   20.5950 C   0  0  0  0  0  2  0  0  0  0  0  0
  -30.1680  -13.3810   19.9440 N   0  0  0  0  0  0  0  0  0  0  0  0
  -32.0640  -14.6120   19.7380 O   0  0  0  0  0  0  0  0  0  0  0  0
  -30.1420  -15.5800   19.4850 N   0  0  0  0  0  0  0  0  0  0  0  0
  -30.5410  -15.8560   18.6000 H   0  0  0  0  0  0  0  0  0  0  0  0
  -25.4260  -13.9580   20.3550 C   0  0  0  0  0  0  0  0  0  0  0  0
  -24.3620  -13.1960   20.7660 C   0  0  0  0  0  0  0  0  0  0  0  0
  -24.8030  -11.8370   20.7060 C   0  0  0  0  0  0  0  0  0  0  0  0
  -26.4420  -13.0580   20.0700 N   0  0  0  0  0  0  0  0  0  0  0  0
  -26.0790  -11.7810   20.3510 N   0  0  0  0  0  0  0  0  0  0  0  0
  -24.0690  -10.5840   20.9160 C   0  0  0  0  0  0  0  0  0  0  0  0
  -24.5130   -9.6160   21.8450 C   0  0  0  0  0  3  0  0  0  0  0  0
  -23.7800   -8.4260   22.0430 C   0  0  0  0  0  3  0  0  0  0  0  0
  -22.5890   -8.1970   21.3150 C   0  0  0  0  0  0  0  0  0  0  0  0
  -22.1640   -9.1520   20.3760 C   0  0  0  0  0  3  0  0  0  0  0  0
  -22.8970  -10.3330   20.1750 C   0  0  0  0  0  3  0  0  0  0  0  0
  -21.8250   -7.0600   21.4260 O   0  0  0  0  0  0  0  0  0  0  0  0
  -21.7710   -6.3380   22.5910 C   0  0  0  0  0  0  0  0  0  0  0  0
  -21.3620   -6.9230   23.8090 C   0  0  0  0  0  3  0  0  0  0  0  0
  -21.2490   -6.1290   24.9680 C   0  0  0  0  0  3  0  0  0  0  0  0
  -21.5390   -4.7520   24.9110 C   0  0  0  0  0  0  0  0  0  0  0  0
  -21.9440   -4.1670   23.7000 C   0  0  0  0  0  3  0  0  0  0  0  0
  -22.0550   -4.9580   22.5420 C   0  0  0  0  0  0  0  0  0  0  0  0
  -22.4250   -4.3860   21.3710 F   0  0  0  0  0  0  0  0  0  0  0  0
  -21.4230   -3.9890   26.0230 F   0  0  0  0  0  0  0  0  0  0  0  0
  -22.9840  -13.6880   21.0910 C   0  0  0  0  0  0  0  0  0  0  0  0
  -22.2810  -13.0030   21.9860 N   0  0  0  0  0  0  0  0  0  0  0  0
  -22.5390  -14.7190   20.5850 O   0  0  0  0  0  0  0  0  0  0  0  0
  -22.6580  -12.1660   22.4100 H   0  0  0  0  0  0  0  0  0  0  0  0
  -21.3590  -13.3170   22.2510 H   0  0  0  0  0  0  0  0  0  0  0  0
  -25.6130  -15.3250   20.1770 N   0  0  0  0  0  0  0  0  0  0  0  0
  -24.8830  -16.0170   20.3090 H   0  0  0  0  0  0  0  0  0  0  0  0
  -26.4670  -15.7110   19.7950 H   0  0  0  0  0  0  0  0  0  0  0  0
  -28.7130  -25.8090   18.9160 C   0  0  0  0  0  2  0  0  0  0  0  0
  -28.4020  -26.7410   19.9770 O   0  0  0  0  0  0  0  0  0  0  0  0
  -24.6320  -31.9020   23.1470 C   0  0  0  0  0  0  0  0  0  0  0  0
  -27.2300  -27.4830   19.9540 C   0  0  0  0  0  0  0  0  0  0  0  0
  -23.4060  -30.5190   21.5050 C   0  0  0  0  0  3  0  0  0  0  0  0
  -24.8390  -29.0130   20.0230 C   0  0  0  0  0  0  0  0  0  0  0  0
  -25.9260  -30.8780   21.2730 C   0  0  0  0  0  2  0  0  0  0  0  0
  -26.0030  -29.5140   20.6120 C   0  0  0  0  0  0  0  0  0  0  0  0
  -27.1960  -28.7520   20.5860 C   0  0  0  0  0  3  0  0  0  0  0  0
  -26.0390  -27.0020   19.3670 C   0  0  0  0  0  3  0  0  0  0  0  0
  -24.8530  -27.7560   19.3970 C   0  0  0  0  0  3  0  0  0  0  0  0
  -23.5920  -29.8650   20.1100 C   0  0  0  0  0  2  0  0  0  0  0  0
  -24.6750  -31.1130   22.0340 N   0  0  0  0  0  0  0  0  0  0  0  0
  -23.5560  -32.1660   23.7040 O   0  0  0  0  0  0  0  0  0  0  0  0
  -22.7700  -29.4820   22.4600 C   0  0  0  0  0  0  0  0  0  0  0  0
  -21.4440  -29.3140   22.3610 N   0  0  0  0  0  0  0  0  0  0  0  0
  -23.4680  -28.8350   23.2440 O   0  0  0  0  0  0  0  0  0  0  0  0
  -20.9450  -29.9120   21.7180 H   0  0  0  0  0  0  0  0  0  0  0  0
  -18.0830  -28.1080   22.8800 C   0  0  0  0  0  0  0  0  0  0  0  0
  -20.6450  -28.3460   23.1110 C   0  0  0  0  0  3  0  0  0  0  0  0
  -20.7440  -26.9310   22.4870 C   0  0  0  0  0  2  0  0  0  0  0  0
  -19.6090  -26.6060   21.5080 C   0  0  0  0  0  2  0  0  0  0  0  0
  -18.2360  -26.7670   22.1790 C   0  0  0  0  0  2  0  0  0  0  0  0
  -19.2150  -28.8530   23.3060 C   0  0  0  0  0  0  0  0  0  0  0  0
  -19.0190  -30.1050   23.9300 C   0  0  0  0  0  3  0  0  0  0  0  0
  -17.7260  -30.6120   24.1430 C   0  0  0  0  0  3  0  0  0  0  0  0
  -16.6080  -29.8670   23.7310 C   0  0  0  0  0  3  0  0  0  0  0  0
  -16.7870  -28.6220   23.0990 C   0  0  0  0  0  3  0  0  0  0  0  0
  -25.9230  -32.5290   23.7570 C   0  0  0  0  0  3  0  0  0  0  0  0
  -26.4800  -31.7290   24.9980 C   0  0  1  0  0  0  0  0  0  0  0  0
  -25.4160  -31.4550   26.0860 C   0  0  0  0  0  1  0  0  0  0  0  0
  -27.0580  -30.3660   24.5500 C   0  0  0  0  0  1  0  0  0  0  0  0
  -27.6440  -32.5090   25.6550 C   0  0  0  0  0  1  0  0  0  0  0  0
  -25.6130  -33.9160   24.1280 N   0  0  0  0  0  0  0  0  0  0  0  0
  -25.9190  -34.9910   23.3900 C   0  0  0  0  0  0  0  0  0  0  0  0
  -26.5680  -34.9190   22.3410 O   0  0  0  0  0  0  0  0  0  0  0  0
  -25.0390  -34.0460   24.9500 H   0  0  0  0  0  0  0  0  0  0  0  0
  -24.1700  -36.7750   23.1150 C   0  0  0  0  0  1  0  0  0  0  0  0
  -25.4300  -36.3610   23.8930 C   0  0  0  0  0  3  0  0  0  0  0  0
  -27.5750  -37.2400   24.7040 C   0  0  0  0  0  1  0  0  0  0  0  0
  -26.4520  -37.4250   23.7880 N   0  0  0  0  0  0  0  0  0  0  0  0
  -26.0430  -38.3380   23.9710 H   0  0  0  0  0  0  0  0  0  0  0  0
  1  2  1  0
  2  5  2  0
  3  1  2  0
  3  6  1  0
  5  4  1  0
  5  7  1  0
  6  4  2  0
  9 12  1  0
 10  8  1  0
 11  9  1  0
 11 13  1  0
 12  7  1  0
 12  8  1  0
 13 22  1  0
 13 10  1  0
 15 20  1  0
 16 17  1  0
 16 15  1  0
 18 17  1  0
 18 27  1  0
 18 19  1  0
 20 14  1  0
 20 19  1  0
 21 14  2  0
 22 14  1  0
 23 22  1  0
 24 25  2  0
 25 44  1  0
 26 25  1  0
 26 29  1  0
 27 28  1  0
 27 24  1  0
 28 26  2  0
 29 30  1  0
 30 31  2  0
 32 35  1  0
 32 31  1  0
 33 32  2  0
 34 33  1  0
 34 29  2  0
 35 36  1  0
 36 37  1  0
 37 38  2  0
 39 38  1  0
 39 43  1  0
 40 39  2  0
 41 36  2  0
 41 40  1  0
 42 41  1  0
 44 45  1  0
 45 48  1  0
 45 47  1  0
 46 44  2  0
 49 50  1  0
 49 24  1  0
 51 49  1  0
 52  6  1  0
 52 53  1  0
 54 65  2  0
 55 53  1  0
 55 60  1  0
 56 64  1  0
 56 66  1  0
 57 63  1  0
 57 59  1  0
 58 64  1  0
 59 58  1  0
 60 59  2  0
 61 62  1  0
 61 55  2  0
 62 57  2  0
 63 56  1  0
 64 54  1  0
 66 68  2  0
 67 66  1  0
 69 67  1  0
 70 79  2  0
 70 75  1  0
 71 67  1  0
 71 75  1  0
 72 71  1  0
 73 74  1  0
 73 72  1  0
 74 70  1  0
 75 76  2  0
 76 77  1  0
 78 77  2  0
 79 78  1  0
 80 54  1  0
 80 85  1  0
 80 81  1  0
 81 84  1  1
 81 82  1  0
 83 81  1  0
 85 88  1  0
 86 90  1  0
 86 85  1  0
 87 86  2  0
 90 89  1  0
 92 90  1  0
 92 93  1  0
 92 91  1  0
M  ISO  4  14 100  22 100  52 101  53 101
M  END
>  <TORSDO>  (35) 
F 19

>  <SCORE>  (35) 
-14.270

>  <name>  (35) 
34

>  <ligand_id>  (35) 
34

>  <original_smiles>  (35) 
[H]c1c([H])c([H])c2c(c1[H])C([H])([H])C([H])([H])C([H])([H])C2([H])N([H])C(=O)C1([H])N(C(=O)C([H])(N([H])C(=O)C([H])(N([H])C([H])([H])[H])C([H])([H])[H])C(C([H])([H])[H])(C([H])([H])[H])C([H])([H])[H])C([H])([H])c2c([H])c(OC([H])([H])c3c([H])c([H])c([H])c(C([H])([H])C4([H])C([H])([H])C([H])([H])C([H])(N([H])C(=O)N5C([H])([H])C([H])([H])C([H])([H])C([H])(n6nc(-c7c([H])c([H])c(Oc8c([H])c([H])c(F)c([H])c8F)c([H])c7[H])c(C(=O)N([H])[H])c6N([H])[H])C5([H])[H])C([H])([H])C4([H])[H])c3[H])c([H])c([H])c2C1([H])[H]

>  <smiles>  (35) 
[H]c1c([H])c([H])c2c(c1[H])C([H])([H])C([H])([H])C([H])([H])C2([H])N([H])C(=O)C1([H])N(C(=O)C([H])(N([H])C(=O)C([H])(N([H])C([H])([H])[H])C([H])([H])[H])C(C([H])([H])[H])(C([H])([H])[H])C([H])([H])[H])C([H])([H])c2c([H])c(OC([H])([H])c3c([H])c([H])c([H])c(C([H])([H])C4([H])C([H])([H])C([H])([H])C([H])(N([H])C(=O)N5C([H])([H])C([H])([H])C([H])([H])C([H])(n6nc(-c7c([H])c([H])c(Oc8c([H])c([H])c(F)c([H])c8F)c([H])c7[H])c(C(=O)N([H])[H])c6N([H])[H])C5([H])[H])C([H])([H])C4([H])[H])c3[H])c([H])c([H])c2C1([H])[H]

$$$$
35:0:0
     RDKit          3D

 94101  0  0  1  0  0  0  0  0999 V2000
  -23.2850  -21.6210   23.5930 C   0  0  0  0  0  2  0  0  0  0  0  0
  -24.0400  -22.2740   22.4200 C   0  0  0  0  0  2  0  0  0  0  0  0
  -24.7620  -23.5690   22.8310 C   0  0  0  0  0  2  0  0  0  0  0  0
  -26.0490  -23.8160   22.0280 C   0  0  0  0  0  2  0  0  0  0  0  0
  -26.8210  -25.0590   22.5090 C   0  0  0  0  0  2  0  0  0  0  0  0
  -28.2620  -25.1490   21.9640 C   0  0  0  0  0  2  0  0  0  0  0  0
  -28.4000  -25.3820   20.4430 C   0  0  0  0  0  2  0  0  0  0  0  0
  -28.4250  -26.7700   20.1070 O   0  0  0  0  0  0  0  0  0  0  0  0
  -24.6100  -31.8720   23.2100 C   0  0  0  0  0  0  0  0  0  0  0  0
  -27.2370  -27.4590   20.1110 C   0  0  0  0  0  0  0  0  0  0  0  0
  -23.3990  -30.4920   21.5490 C   0  0  0  0  0  3  0  0  0  0  0  0
  -24.8470  -28.9570   20.1180 C   0  0  0  0  0  0  0  0  0  0  0  0
  -25.9220  -30.8490   21.3550 C   0  0  0  0  0  2  0  0  0  0  0  0
  -26.0010  -29.4800   20.7120 C   0  0  0  0  0  0  0  0  0  0  0  0
  -27.2010  -28.7390   20.7020 C   0  0  0  0  0  3  0  0  0  0  0  0
  -26.0680  -26.9440   19.5070 C   0  0  0  0  0  3  0  0  0  0  0  0
  -24.8740  -27.6890   19.5100 C   0  0  0  0  0  3  0  0  0  0  0  0
  -23.6050  -29.8170   20.1650 C   0  0  0  0  0  2  0  0  0  0  0  0
  -24.6620  -31.0860   22.0970 N   0  0  0  0  0  0  0  0  0  0  0  0
  -23.5300  -32.1450   23.7510 O   0  0  0  0  0  0  0  0  0  0  0  0
  -22.7400  -29.4670   22.5000 C   0  0  0  0  0  0  0  0  0  0  0  0
  -21.4130  -29.3040   22.3730 N   0  0  0  0  0  0  0  0  0  0  0  0
  -23.4170  -28.8230   23.3040 O   0  0  0  0  0  0  0  0  0  0  0  0
  -20.9330  -29.8700   21.6860 H   0  0  0  0  0  0  0  0  0  0  0  0
  -18.0290  -28.1390   22.8490 C   0  0  0  0  0  0  0  0  0  0  0  0
  -20.5860  -28.3710   23.1370 C   0  0  0  0  0  3  0  0  0  0  0  0
  -20.6800  -26.9420   22.5520 C   0  0  0  0  0  2  0  0  0  0  0  0
  -19.5820  -26.6370   21.5290 C   0  0  0  0  0  2  0  0  0  0  0  0
  -18.1950  -26.7950   22.1600 C   0  0  0  0  0  2  0  0  0  0  0  0
  -19.1510  -28.8870   23.2910 C   0  0  0  0  0  0  0  0  0  0  0  0
  -18.9410  -30.1480   23.8930 C   0  0  0  0  0  3  0  0  0  0  0  0
  -17.6400  -30.6590   24.0580 C   0  0  0  0  0  3  0  0  0  0  0  0
  -16.5310  -29.9090   23.6290 C   0  0  0  0  0  3  0  0  0  0  0  0
  -16.7260  -28.6520   23.0310 C   0  0  0  0  0  3  0  0  0  0  0  0
  -25.9010  -32.4850   23.8410 C   0  0  0  0  0  3  0  0  0  0  0  0
  -25.5870  -33.8640   24.2340 N   0  0  0  0  0  0  0  0  0  0  0  0
  -25.9030  -34.9490   23.5140 C   0  0  0  0  0  0  0  0  0  0  0  0
  -26.5590  -34.8940   22.4700 O   0  0  0  0  0  0  0  0  0  0  0  0
  -24.9970  -33.9810   25.0460 H   0  0  0  0  0  0  0  0  0  0  0  0
  -24.1490  -36.7330   23.2640 C   0  0  0  0  0  1  0  0  0  0  0  0
  -25.4100  -36.3120   24.0350 C   0  0  0  0  0  3  0  0  0  0  0  0
  -27.5580  -37.1810   24.8460 C   0  0  0  0  0  1  0  0  0  0  0  0
  -26.4300  -37.3800   23.9400 N   0  0  0  0  0  0  0  0  0  0  0  0
  -26.0200  -38.2880   24.1370 H   0  0  0  0  0  0  0  0  0  0  0  0
  -26.4440  -31.6600   25.0710 C   0  0  1  0  0  0  0  0  0  0  0  0
  -25.3720  -31.3700   26.1470 C   0  0  0  0  0  1  0  0  0  0  0  0
  -27.0250  -30.3050   24.6040 C   0  0  0  0  0  1  0  0  0  0  0  0
  -27.6040  -32.4290   25.7460 C   0  0  0  0  0  1  0  0  0  0  0  0
  -22.6360  -20.2600   23.2700 C   0  0  0  0  0  2  0  0  0  0  0  0
  -23.5680  -19.1820   22.6780 C   0  0  0  0  0  2  0  0  0  0  0  0
  -24.8180  -18.8700   23.5220 C   0  0  0  0  0  2  0  0  0  0  0  0
  -25.6410  -17.7040   22.9450 C   0  0  0  0  0  2  0  0  0  0  0  0
  -27.0310  -17.5610   23.5860 C   0  0  0  0  0  2  0  0  0  0  0  0
  -27.8610  -16.4230   22.9650 C   0  0  0  0  0  2  0  0  0  0  0  0
  -29.3270  -16.4450   23.4390 C   0  0  0  0  0  2  0  0  0  0  0  0
  -30.2060  -15.3220   22.8590 C   0  0  0  0  0  2  0  0  0  0  0  0
  -30.7540  -14.3830   20.6520 C   0  0  0  0  0  0  0  0  0  0  0  0
  -30.4130  -12.2750   19.4190 C   0  0  0  0  0  2  0  0  0  0  0  0
  -29.4910  -12.4970   18.2050 C   0  0  0  0  0  2  0  0  0  0  0  0
  -28.0130  -12.3580   18.6140 C   0  0  0  0  0  2  0  0  0  0  0  0
  -27.6630  -13.1990   19.8690 C   0  0  0  0  0  3  0  0  0  0  0  0
  -28.6920  -12.9580   20.9920 C   0  0  0  0  0  2  0  0  0  0  0  0
  -30.0410  -13.2390   20.4660 N   0  0  0  0  0  0  0  0  0  0  0  0
  -31.8010  -14.6340   20.0500 O   0  0  0  0  0  0  0  0  0  0  0  0
  -30.1850  -15.3360   21.3970 N   0  0  0  0  0  0  0  0  0  0  0  0
  -30.4260  -16.2520   21.0460 H   0  0  0  0  0  0  0  0  0  0  0  0
  -25.2610  -13.8160   20.5640 C   0  0  0  0  0  0  0  0  0  0  0  0
  -24.1860  -13.0450   20.9160 C   0  0  0  0  0  0  0  0  0  0  0  0
  -24.6390  -11.6910   20.8730 C   0  0  0  0  0  0  0  0  0  0  0  0
  -26.3020  -12.9300   20.3290 N   0  0  0  0  0  0  0  0  0  0  0  0
  -25.9300  -11.6470   20.5720 N   0  0  0  0  0  0  0  0  0  0  0  0
  -23.9060  -10.4300   21.0420 C   0  0  0  0  0  0  0  0  0  0  0  0
  -24.3620   -9.4220   21.9200 C   0  0  0  0  0  3  0  0  0  0  0  0
  -23.6300   -8.2250   22.0750 C   0  0  0  0  0  3  0  0  0  0  0  0
  -22.4290   -8.0280   21.3540 C   0  0  0  0  0  0  0  0  0  0  0  0
  -21.9920   -9.0270   20.4650 C   0  0  0  0  0  3  0  0  0  0  0  0
  -22.7250  -10.2140   20.3070 C   0  0  0  0  0  3  0  0  0  0  0  0
  -21.6640   -6.8880   21.4250 O   0  0  0  0  0  0  0  0  0  0  0  0
  -21.6860   -6.0740   22.5290 C   0  0  0  0  0  0  0  0  0  0  0  0
  -21.4020   -6.5640   23.8220 C   0  0  0  0  0  3  0  0  0  0  0  0
  -21.3650   -5.6800   24.9180 C   0  0  0  0  0  3  0  0  0  0  0  0
  -21.6050   -4.3070   24.7250 C   0  0  0  0  0  0  0  0  0  0  0  0
  -21.8820   -3.8150   23.4370 C   0  0  0  0  0  3  0  0  0  0  0  0
  -21.9190   -4.6960   22.3420 C   0  0  0  0  0  0  0  0  0  0  0  0
  -22.1650   -4.2150   21.1000 F   0  0  0  0  0  0  0  0  0  0  0  0
  -21.5630   -3.4550   25.7760 F   0  0  0  0  0  0  0  0  0  0  0  0
  -22.7890  -13.5250   21.1840 C   0  0  0  0  0  0  0  0  0  0  0  0
  -22.0540  -12.8220   22.0390 N   0  0  0  0  0  0  0  0  0  0  0  0
  -22.3540  -14.5560   20.6720 O   0  0  0  0  0  0  0  0  0  0  0  0
  -22.4170  -11.9880   22.4780 H   0  0  0  0  0  0  0  0  0  0  0  0
  -21.1190  -13.1270   22.2650 H   0  0  0  0  0  0  0  0  0  0  0  0
  -25.4410  -15.1850   20.4000 N   0  0  0  0  0  0  0  0  0  0  0  0
  -24.7000  -15.8620   20.5410 H   0  0  0  0  0  0  0  0  0  0  0  0
  -26.3220  -15.6050   20.1360 H   0  0  0  0  0  0  0  0  0  0  0  0
  2  3  1  0
  2  1  1  0
  4  5  1  0
  4  3  1  0
  6  5  1  0
  7  6  1  0
  8 10  1  0
  8  7  1  0
  9 20  2  0
 10 15  1  0
 11 19  1  0
 11 21  1  0
 12 18  1  0
 12 14  1  0
 13 19  1  0
 14 13  1  0
 15 14  2  0
 16 17  1  0
 16 10  2  0
 17 12  2  0
 18 11  1  0
 19  9  1  0
 21 23  2  0
 22 21  1  0
 24 22  1  0
 25 34  2  0
 25 30  1  0
 26 22  1  0
 26 30  1  0
 27 26  1  0
 28 29  1  0
 28 27  1  0
 29 25  1  0
 30 31  2  0
 31 32  1  0
 33 32  2  0
 34 33  1  0
 35  9  1  0
 35 36  1  0
 35 45  1  0
 36 39  1  0
 37 41  1  0
 37 36  1  0
 38 37  2  0
 41 40  1  0
 43 41  1  0
 43 44  1  0
 43 42  1  0
 45 48  1  1
 45 46  1  0
 47 45  1  0
 49  1  1  0
 50 49  1  0
 50 51  1  0
 52 51  1  0
 52 53  1  0
 54 55  1  0
 54 53  1  0
 56 55  1  0
 57 65  1  0
 58 63  1  0
 59 60  1  0
 59 58  1  0
 61 60  1  0
 61 70  1  0
 61 62  1  0
 63 57  1  0
 63 62  1  0
 64 57  2  0
 65 56  1  0
 66 65  1  0
 67 68  2  0
 68 87  1  0
 69 68  1  0
 69 72  1  0
 70 67  1  0
 70 71  1  0
 71 69  2  0
 72 73  1  0
 73 74  2  0
 75 78  1  0
 75 74  1  0
 76 75  2  0
 77 76  1  0
 77 72  2  0
 78 79  1  0
 79 80  1  0
 80 81  2  0
 82 81  1  0
 82 86  1  0
 83 82  2  0
 84 79  2  0
 84 83  1  0
 85 84  1  0
 87 88  1  0
 88 91  1  0
 88 90  1  0
 89 87  2  0
 92 93  1  0
 92 67  1  0
 94 92  1  0
M  ISO  4   7 101   8 101  57 100  65 100
M  END
>  <TORSDO>  (36) 
F 30

>  <SCORE>  (36) 
47.470

>  <name>  (36) 
35

>  <ligand_id>  (36) 
35

>  <original_smiles>  (36) 
[H]c1c([H])c([H])c2c(c1[H])C([H])([H])C([H])([H])C([H])([H])C2([H])N([H])C(=O)C1([H])N(C(=O)C([H])(N([H])C(=O)C([H])(N([H])C([H])([H])[H])C([H])([H])[H])C(C([H])([H])[H])(C([H])([H])[H])C([H])([H])[H])C([H])([H])c2c([H])c(OC([H])([H])C([H])([H])C([H])([H])C([H])([H])C([H])([H])C([H])([H])C([H])([H])C([H])([H])C([H])([H])C([H])([H])C([H])([H])C([H])([H])C([H])([H])C([H])([H])C([H])([H])N([H])C(=O)N3C([H])([H])C([H])([H])C([H])([H])C([H])(n4nc(-c5c([H])c([H])c(Oc6c([H])c([H])c(F)c([H])c6F)c([H])c5[H])c(C(=O)N([H])[H])c4N([H])[H])C3([H])[H])c([H])c([H])c2C1([H])[H]

>  <smiles>  (36) 
[H]c1c([H])c([H])c2c(c1[H])C([H])([H])C([H])([H])C([H])([H])C2([H])N([H])C(=O)C1([H])N(C(=O)C([H])(N([H])C(=O)C([H])(N([H])C([H])([H])[H])C([H])([H])[H])C(C([H])([H])[H])(C([H])([H])[H])C([H])([H])[H])C([H])([H])c2c([H])c(OC([H])([H])C([H])([H])C([H])([H])C([H])([H])C([H])([H])C([H])([H])C([H])([H])C([H])([H])C([H])([H])C([H])([H])C([H])([H])C([H])([H])C([H])([H])C([H])([H])C([H])([H])N([H])C(=O)N3C([H])([H])C([H])([H])C([H])([H])C([H])(n4nc(-c5c([H])c([H])c(Oc6c([H])c([H])c(F)c([H])c6F)c([H])c5[H])c(C(=O)N([H])[H])c4N([H])[H])C3([H])[H])c([H])c([H])c2C1([H])[H]

$$$$
36:0:0
     RDKit          3D

 94101  0  0  1  0  0  0  0  0999 V2000
  -30.4870  -23.1960   17.6360 C   0  0  0  0  0  3  0  0  0  0  0  0
  -30.9770  -23.4920   20.0090 C   0  0  0  0  0  3  0  0  0  0  0  0
  -29.8380  -24.4440   17.6120 C   0  0  0  0  0  3  0  0  0  0  0  0
  -30.3350  -24.7440   19.9820 C   0  0  0  0  0  3  0  0  0  0  0  0
  -31.0310  -22.7060   18.8410 C   0  0  0  0  0  0  0  0  0  0  0  0
  -29.7340  -25.2080   18.7930 C   0  0  0  0  0  0  0  0  0  0  0  0
  -31.5820  -21.2980   18.9020 C   0  0  0  0  0  2  0  0  0  0  0  0
  -30.4240  -20.2940   18.8830 C   0  0  0  0  0  2  0  0  0  0  0  0
  -30.8640  -18.8410   19.0520 C   0  0  0  0  0  2  0  0  0  0  0  0
  -29.6630  -17.9020   18.9310 C   0  0  0  0  0  2  0  0  0  0  0  0
  -30.0460  -16.4370   19.1320 C   0  0  0  0  0  2  0  0  0  0  0  0
  -28.8370  -15.5100   18.9240 C   0  0  0  0  0  2  0  0  0  0  0  0
  -29.1320  -13.9640   18.6130 C   0  0  0  0  0  1  0  0  0  0  0  0
  -29.3430  -11.6500   20.1610 C   0  0  0  0  0  1  0  0  0  0  0  0
  -30.4910  -11.3130   21.3210 C   0  0  0  0  0  2  0  0  0  0  0  0
  -31.4420  -12.4400   21.9860 C   0  0  0  0  0  2  0  0  0  0  0  0
  -31.5760  -13.7060   21.1270 C   0  0  0  0  0  0  0  0  0  0  0  0
  -31.1900  -12.5410   18.9180 C   0  0  0  0  0  2  0  0  0  0  0  0
  -29.8130  -11.7300   17.7820 C   0  0  0  0  0  3  0  0  0  0  0  0
  -27.9300  -11.9460   18.3100 C   0  0  0  0  0  3  0  0  0  0  0  0
  -27.5540  -13.1230   19.8080 C   0  0  0  0  0  0  0  0  0  0  0  0
  -28.9860  -13.7890   20.8960 C   0  0  0  0  0  3  0  0  0  0  0  0
  -30.6570  -13.5820   20.3100 N   0  0  0  0  0  0  0  0  0  0  0  0
  -32.5970  -14.3020   20.7950 O   0  0  0  0  0  0  0  0  0  0  0  0
  -25.4270  -13.7830   20.7990 C   0  0  0  0  0  0  0  0  0  0  0  0
  -24.3620  -13.0090   21.1180 C   0  0  0  0  0  0  0  0  0  0  0  0
  -24.8070  -11.6520   21.0340 C   0  0  0  0  0  0  0  0  0  0  0  0
  -26.3950  -12.8620   20.5020 N   0  0  0  0  0  0  0  0  0  0  0  0
  -26.0760  -11.5860   20.7140 N   0  0  0  0  0  0  0  0  0  0  0  0
  -24.0950  -10.3960   21.1570 C   0  0  0  0  0  0  0  0  0  0  0  0
  -24.5140   -9.4150   22.0800 C   0  0  0  0  0  3  0  0  0  0  0  0
  -23.7890   -8.2160   22.2080 C   0  0  0  0  0  3  0  0  0  0  0  0
  -22.6420   -8.0000   21.4090 C   0  0  0  0  0  0  0  0  0  0  0  0
  -22.2590   -8.9650   20.4620 C   0  0  0  0  0  3  0  0  0  0  0  0
  -22.9840  -10.1570   20.3320 C   0  0  0  0  0  3  0  0  0  0  0  0
  -21.8760   -6.8650   21.4630 O   0  0  0  0  0  0  0  0  0  0  0  0
  -21.7390   -6.1510   22.6240 C   0  0  0  0  0  0  0  0  0  0  0  0
  -21.2220   -6.7330   23.8030 C   0  0  0  0  0  3  0  0  0  0  0  0
  -21.0350   -5.9400   24.9520 C   0  0  0  0  0  3  0  0  0  0  0  0
  -21.3550   -4.5690   24.9220 C   0  0  0  0  0  0  0  0  0  0  0  0
  -21.8670   -3.9900   23.7470 C   0  0  0  0  0  3  0  0  0  0  0  0
  -22.0580   -4.7800   22.6010 C   0  0  0  0  0  0  0  0  0  0  0  0
  -22.5340   -4.2160   21.4650 F   0  0  0  0  0  0  0  0  0  0  0  0
  -21.1650   -3.8040   26.0210 F   0  0  0  0  0  0  0  0  0  0  0  0
  -22.9820  -13.5070   21.3580 C   0  0  0  0  0  0  0  0  0  0  0  0
  -22.2330  -12.8030   22.1950 N   0  0  0  0  0  0  0  0  0  0  0  0
  -22.5840  -14.5510   20.8440 O   0  0  0  0  0  0  0  0  0  0  0  0
  -22.5850  -11.9640   22.6320 H   0  0  0  0  0  0  0  0  0  0  0  0
  -21.2940  -13.1100   22.4090 H   0  0  0  0  0  0  0  0  0  0  0  0
  -25.6370  -15.1580   20.6570 N   0  0  0  0  0  0  0  0  0  0  0  0
  -24.9000  -15.8340   20.8160 H   0  0  0  0  0  0  0  0  0  0  0  0
  -26.5080  -15.5800   20.3610 H   0  0  0  0  0  0  0  0  0  0  0  0
  -28.9570  -26.5090   18.7800 C   0  0  0  0  0  2  0  0  0  0  0  0
  -28.4730  -26.8390   20.0800 O   0  0  0  0  0  0  0  0  0  0  0  0
  -24.6250  -31.8740   23.2670 C   0  0  0  0  0  0  0  0  0  0  0  0
  -27.2860  -27.5210   20.1120 C   0  0  0  0  0  0  0  0  0  0  0  0
  -23.4130  -30.4770   21.6200 C   0  0  0  0  0  3  0  0  0  0  0  0
  -24.8670  -28.9610   20.1760 C   0  0  0  0  0  0  0  0  0  0  0  0
  -25.9300  -30.8650   21.4060 C   0  0  0  0  0  2  0  0  0  0  0  0
  -26.0210  -29.5000   20.7610 C   0  0  0  0  0  0  0  0  0  0  0  0
  -27.2300  -28.7780   20.7420 C   0  0  0  0  0  3  0  0  0  0  0  0
  -26.1150  -26.9710   19.5480 C   0  0  0  0  0  3  0  0  0  0  0  0
  -24.9050  -27.6900   19.5760 C   0  0  0  0  0  3  0  0  0  0  0  0
  -23.6160  -29.8070   20.2350 C   0  0  0  0  0  2  0  0  0  0  0  0
  -24.6740  -31.0860   22.1560 N   0  0  0  0  0  0  0  0  0  0  0  0
  -23.5460  -32.1340   23.8180 O   0  0  0  0  0  0  0  0  0  0  0  0
  -22.7800  -29.4430   22.5780 C   0  0  0  0  0  0  0  0  0  0  0  0
  -21.4570  -29.2490   22.4530 N   0  0  0  0  0  0  0  0  0  0  0  0
  -23.4730  -28.8190   23.3850 O   0  0  0  0  0  0  0  0  0  0  0  0
  -20.9590  -29.8040   21.7710 H   0  0  0  0  0  0  0  0  0  0  0  0
  -18.0970  -28.0170   22.9420 C   0  0  0  0  0  0  0  0  0  0  0  0
  -20.6510  -28.2990   23.2190 C   0  0  0  0  0  3  0  0  0  0  0  0
  -20.7700  -26.8720   22.6380 C   0  0  0  0  0  2  0  0  0  0  0  0
  -19.6730  -26.5420   21.6220 C   0  0  0  0  0  2  0  0  0  0  0  0
  -18.2890  -26.6710   22.2640 C   0  0  0  0  0  2  0  0  0  0  0  0
  -19.2070  -28.7890   23.3770 C   0  0  0  0  0  0  0  0  0  0  0  0
  -18.9760  -30.0500   23.9690 C   0  0  0  0  0  3  0  0  0  0  0  0
  -17.6670  -30.5380   24.1330 C   0  0  0  0  0  3  0  0  0  0  0  0
  -16.5700  -29.7640   23.7150 C   0  0  0  0  0  3  0  0  0  0  0  0
  -16.7870  -28.5060   23.1270 C   0  0  0  0  0  3  0  0  0  0  0  0
  -25.9130  -32.5050   23.8800 C   0  0  0  0  0  3  0  0  0  0  0  0
  -26.4440  -31.7310   25.1490 C   0  0  1  0  0  0  0  0  0  0  0  0
  -25.3600  -31.4830   26.2240 C   0  0  0  0  0  1  0  0  0  0  0  0
  -27.0290  -30.3570   24.7430 C   0  0  0  0  0  1  0  0  0  0  0  0
  -27.5960  -32.5260   25.8050 C   0  0  0  0  0  1  0  0  0  0  0  0
  -25.6040  -33.9020   24.2150 N   0  0  0  0  0  0  0  0  0  0  0  0
  -25.9400  -34.9560   23.4590 C   0  0  0  0  0  0  0  0  0  0  0  0
  -26.6140  -34.8550   22.4300 O   0  0  0  0  0  0  0  0  0  0  0  0
  -25.0070  -34.0540   25.0140 H   0  0  0  0  0  0  0  0  0  0  0  0
  -24.2210  -36.7530   23.0880 C   0  0  0  0  0  1  0  0  0  0  0  0
  -25.4480  -36.3420   23.9160 C   0  0  0  0  0  3  0  0  0  0  0  0
  -27.5730  -37.2150   24.7830 C   0  0  0  0  0  1  0  0  0  0  0  0
  -26.4860  -37.3930   23.8240 N   0  0  0  0  0  0  0  0  0  0  0  0
  -26.0810  -38.3130   23.9720 H   0  0  0  0  0  0  0  0  0  0  0  0
  1  5  1  0
  3  1  2  0
  3  6  1  0
  4  2  1  0
  5  7  1  0
  5  2  2  0
  6  4  2  0
  8  7  1  0
  8  9  1  0
 10  9  1  0
 10 11  1  0
 12 11  1  0
 13 12  1  0
 14 15  1  0
 15 16  1  0
 17 16  1  0
 18 23  1  0
 19 20  2  0
 19 18  1  0
 20 21  1  0
 21 28  1  0
 21 22  2  0
 23 22  1  0
 23 17  1  0
 24 17  2  0
 25 26  2  0
 26 45  1  0
 27 26  1  0
 27 30  1  0
 28 29  1  0
 28 25  1  0
 29 27  2  0
 30 31  1  0
 31 32  2  0
 33 36  1  0
 33 32  1  0
 34 33  2  0
 35 34  1  0
 35 30  2  0
 36 37  1  0
 37 38  1  0
 38 39  2  0
 40 39  1  0
 40 44  1  0
 41 40  2  0
 42 37  2  0
 42 41  1  0
 43 42  1  0
 45 46  1  0
 46 49  1  0
 46 48  1  0
 47 45  2  0
 50 25  1  0
 50 51  1  0
 52 50  1  0
 53  6  1  0
 53 54  1  0
 54 56  1  0
 55 66  2  0
 56 61  1  0
 57 65  1  0
 57 67  1  0
 58 64  1  0
 58 60  1  0
 59 65  1  0
 60 59  1  0
 61 60  2  0
 62 63  1  0
 62 56  2  0
 63 58  2  0
 64 57  1  0
 65 55  1  0
 67 69  2  0
 68 67  1  0
 70 68  1  0
 71 80  2  0
 71 76  1  0
 72 68  1  0
 72 76  1  0
 73 72  1  0
 74 75  1  0
 74 73  1  0
 75 71  1  0
 76 77  2  0
 77 78  1  0
 79 78  2  0
 80 79  1  0
 81 55  1  0
 81 86  1  0
 81 82  1  0
 82 85  1  1
 82 83  1  0
 84 82  1  0
 86 89  1  0
 87 91  1  0
 87 86  1  0
 88 87  2  0
 91 90  1  0
 93 91  1  0
 93 94  1  0
 93 92  1  0
M  ISO  4  16 100  17 100  53 101  54 101
M  END
>  <TORSDO>  (37) 
F 27

>  <SCORE>  (37) 
-11.587

>  <name>  (37) 
36

>  <ligand_id>  (37) 
36

>  <original_smiles>  (37) 
[H]c1c([H])c([H])c2c(c1[H])C([H])([H])C([H])([H])C([H])([H])C2([H])N([H])C(=O)C1([H])N(C(=O)C([H])(N([H])C(=O)C([H])(N([H])C([H])([H])[H])C([H])([H])[H])C(C([H])([H])[H])(C([H])([H])[H])C([H])([H])[H])C([H])([H])c2c([H])c(OC([H])([H])c3c([H])c([H])c(C([H])([H])C([H])([H])C([H])([H])C([H])([H])C([H])([H])C([H])([H])C([H])([H])C([H])([H])C([H])([H])C([H])([H])C(=O)N4C([H])([H])C([H])([H])C([H])([H])C([H])(n5nc(-c6c([H])c([H])c(Oc7c([H])c([H])c(F)c([H])c7F)c([H])c6[H])c(C(=O)N([H])[H])c5N([H])[H])C4([H])[H])c([H])c3[H])c([H])c([H])c2C1([H])[H]

>  <smiles>  (37) 
[H]c1c([H])c([H])c2c(c1[H])C([H])([H])C([H])([H])C([H])([H])C2([H])N([H])C(=O)C1([H])N(C(=O)C([H])(N([H])C(=O)C([H])(N([H])C([H])([H])[H])C([H])([H])[H])C(C([H])([H])[H])(C([H])([H])[H])C([H])([H])[H])C([H])([H])c2c([H])c(OC([H])([H])c3c([H])c([H])c(C([H])([H])C([H])([H])C([H])([H])C([H])([H])C([H])([H])C([H])([H])C([H])([H])C([H])([H])C([H])([H])C([H])([H])C(=O)N4C([H])([H])C([H])([H])C([H])([H])C([H])(n5nc(-c6c([H])c([H])c(Oc7c([H])c([H])c(F)c([H])c7F)c([H])c6[H])c(C(=O)N([H])[H])c5N([H])[H])C4([H])[H])c([H])c3[H])c([H])c([H])c2C1([H])[H]

$$$$
37:0:0
     RDKit          3D

 95104  0  0  1  0  0  0  0  0999 V2000
  -28.3930  -24.4760   24.4050 C   0  0  0  0  0  2  0  0  0  0  0  0
  -30.4350  -25.6290   23.3710 C   0  0  0  0  0  2  0  0  0  0  0  0
  -27.4860  -24.9520   23.2440 C   0  0  0  0  0  2  0  0  0  0  0  0
  -29.3940  -26.4300   22.5550 C   0  0  0  0  0  2  0  0  0  0  0  0
  -29.8920  -24.3380   24.0470 C   0  0  0  0  0  3  0  0  0  0  0  0
  -28.2590  -25.5300   22.0380 C   0  0  0  0  0  3  0  0  0  0  0  0
  -31.6070  -22.6120   23.3170 C   0  0  0  0  0  3  0  0  0  0  0  0
  -29.3330  -22.3350   22.5080 C   0  0  0  0  0  3  0  0  0  0  0  0
  -32.0070  -21.4750   22.5850 C   0  0  0  0  0  3  0  0  0  0  0  0
  -29.7320  -21.2110   21.7660 C   0  0  0  0  0  3  0  0  0  0  0  0
  -30.2700  -23.0670   23.2730 C   0  0  0  0  0  0  0  0  0  0  0  0
  -31.0710  -20.7780   21.7940 C   0  0  0  0  0  0  0  0  0  0  0  0
  -31.5040  -19.5990   20.9410 C   0  0  0  0  0  2  0  0  0  0  0  0
  -30.9390  -18.2520   21.4240 C   0  0  0  0  0  2  0  0  0  0  0  0
  -31.4080  -17.0850   20.5430 C   0  0  0  0  0  2  0  0  0  0  0  0
  -30.7400  -15.7480   20.9160 C   0  0  0  0  0  2  0  0  0  0  0  0
  -31.2880  -14.5450   20.1320 C   0  0  0  0  0  0  0  0  0  0  0  0
  -31.0470  -12.1930   19.4140 C   0  0  0  0  0  2  0  0  0  0  0  0
  -30.1110  -12.0720   18.1980 C   0  0  0  0  0  2  0  0  0  0  0  0
  -28.6410  -11.9780   18.6470 C   0  0  0  0  0  2  0  0  0  0  0  0
  -28.2570  -13.0840   19.6640 C   0  0  0  0  0  3  0  0  0  0  0  0
  -29.3000  -13.1650   20.8020 C   0  0  0  0  0  2  0  0  0  0  0  0
  -30.6270  -13.3620   20.1960 N   0  0  0  0  0  0  0  0  0  0  0  0
  -32.3150  -14.6920   19.4590 O   0  0  0  0  0  0  0  0  0  0  0  0
  -25.9370  -13.8230   20.5070 C   0  0  0  0  0  0  0  0  0  0  0  0
  -24.8280  -13.1070   20.8760 C   0  0  0  0  0  0  0  0  0  0  0  0
  -25.1860  -11.7300   20.7440 C   0  0  0  0  0  0  0  0  0  0  0  0
  -26.9050  -12.8830   20.1830 N   0  0  0  0  0  0  0  0  0  0  0  0
  -26.4570  -11.6170   20.3780 N   0  0  0  0  0  0  0  0  0  0  0  0
  -24.3770  -10.5140   20.8920 C   0  0  0  0  0  0  0  0  0  0  0  0
  -24.6700   -9.5470   21.8780 C   0  0  0  0  0  3  0  0  0  0  0  0
  -23.8670   -8.3940   22.0110 C   0  0  0  0  0  3  0  0  0  0  0  0
  -22.7550   -8.2000   21.1570 C   0  0  0  0  0  0  0  0  0  0  0  0
  -22.4820   -9.1560   20.1610 C   0  0  0  0  0  3  0  0  0  0  0  0
  -23.2860  -10.3000   20.0260 C   0  0  0  0  0  3  0  0  0  0  0  0
  -21.9340   -7.0990   21.1960 O   0  0  0  0  0  0  0  0  0  0  0  0
  -21.6010   -6.4930   22.3800 C   0  0  0  0  0  0  0  0  0  0  0  0
  -20.9420   -7.1900   23.4160 C   0  0  0  0  0  3  0  0  0  0  0  0
  -20.5560   -6.5100   24.5890 C   0  0  0  0  0  3  0  0  0  0  0  0
  -20.8190   -5.1340   24.7230 C   0  0  0  0  0  0  0  0  0  0  0  0
  -21.4710   -4.4360   23.6910 C   0  0  0  0  0  3  0  0  0  0  0  0
  -21.8580   -5.1140   22.5220 C   0  0  0  0  0  0  0  0  0  0  0  0
  -22.4670   -4.4320   21.5220 F   0  0  0  0  0  0  0  0  0  0  0  0
  -20.4420   -4.4780   25.8460 F   0  0  0  0  0  0  0  0  0  0  0  0
  -23.4830  -13.6650   21.2380 C   0  0  0  0  0  0  0  0  0  0  0  0
  -22.7530  -12.9850   22.1170 N   0  0  0  0  0  0  0  0  0  0  0  0
  -23.0890  -14.7370   20.7810 O   0  0  0  0  0  0  0  0  0  0  0  0
  -23.0840  -12.1150   22.5080 H   0  0  0  0  0  0  0  0  0  0  0  0
  -21.8520  -13.3390   22.4030 H   0  0  0  0  0  0  0  0  0  0  0  0
  -26.1970  -15.1860   20.4040 N   0  0  0  0  0  0  0  0  0  0  0  0
  -25.4890  -15.8890   20.5870 H   0  0  0  0  0  0  0  0  0  0  0  0
  -27.0730  -15.5790   20.0830 H   0  0  0  0  0  0  0  0  0  0  0  0
  -27.2840  -26.2220   21.0690 C   0  0  0  0  0  2  0  0  0  0  0  0
  -27.8830  -26.6540   19.7100 C   0  0  0  0  0  2  0  0  0  0  0  0
  -26.8660  -27.0070   18.7670 O   0  0  0  0  0  0  0  0  0  0  0  0
  -24.8910  -31.5270   23.8900 C   0  0  0  0  0  0  0  0  0  0  0  0
  -25.9520  -27.9270   19.2150 C   0  0  0  0  0  0  0  0  0  0  0  0
  -23.1550  -30.9450   22.2230 C   0  0  0  0  0  3  0  0  0  0  0  0
  -23.9830  -29.7110   20.1490 C   0  0  0  0  0  0  0  0  0  0  0  0
  -25.6300  -30.9180   21.5940 C   0  0  0  0  0  2  0  0  0  0  0  0
  -25.3040  -29.8240   20.6030 C   0  0  0  0  0  0  0  0  0  0  0  0
  -26.2940  -28.9330   20.1430 C   0  0  0  0  0  3  0  0  0  0  0  0
  -24.6260  -27.8300   18.7510 C   0  0  0  0  0  3  0  0  0  0  0  0
  -23.6350  -28.7120   19.2230 C   0  0  0  0  0  3  0  0  0  0  0  0
  -22.9850  -30.7070   20.6980 C   0  0  0  0  0  2  0  0  0  0  0  0
  -24.5880  -31.1210   22.6250 N   0  0  0  0  0  0  0  0  0  0  0  0
  -23.9980  -31.7980   24.7060 O   0  0  0  0  0  0  0  0  0  0  0  0
  -22.4430  -29.8020   22.9810 C   0  0  0  0  0  0  0  0  0  0  0  0
  -21.1120  -29.7200   22.8210 N   0  0  0  0  0  0  0  0  0  0  0  0
  -23.0840  -29.0030   23.6680 O   0  0  0  0  0  0  0  0  0  0  0  0
  -20.6610  -30.4160   22.2450 H   0  0  0  0  0  0  0  0  0  0  0  0
  -17.7420  -28.4220   22.7980 C   0  0  0  0  0  0  0  0  0  0  0  0
  -20.2380  -28.7040   23.4070 C   0  0  0  0  0  3  0  0  0  0  0  0
  -20.4530  -27.3300   22.7350 C   0  0  0  0  0  2  0  0  0  0  0  0
  -19.4940  -27.0710   21.5680 C   0  0  0  0  0  2  0  0  0  0  0  0
  -18.0400  -27.1370   22.0440 C   0  0  0  0  0  2  0  0  0  0  0  0
  -18.7760  -29.1670   23.4240 C   0  0  0  0  0  0  0  0  0  0  0  0
  -18.4500  -30.3730   24.0800 C   0  0  0  0  0  3  0  0  0  0  0  0
  -17.1210  -30.8350   24.1200 C   0  0  0  0  0  3  0  0  0  0  0  0
  -16.0990  -30.0860   23.5130 C   0  0  0  0  0  3  0  0  0  0  0  0
  -16.4090  -28.8820   22.8580 C   0  0  0  0  0  3  0  0  0  0  0  0
  -26.3690  -31.6950   24.3640 C   0  0  0  0  0  3  0  0  0  0  0  0
  -26.4580  -32.9670   25.0920 N   0  0  0  0  0  0  0  0  0  0  0  0
  -27.0080  -34.0860   24.6020 C   0  0  0  0  0  0  0  0  0  0  0  0
  -27.5650  -34.1330   23.5020 O   0  0  0  0  0  0  0  0  0  0  0  0
  -25.9770  -33.0150   25.9780 H   0  0  0  0  0  0  0  0  0  0  0  0
  -25.8160  -36.2740   24.9330 C   0  0  0  0  0  1  0  0  0  0  0  0
  -26.9250  -35.3560   25.4710 C   0  0  0  0  0  3  0  0  0  0  0  0
  -29.2420  -35.3940   26.2820 C   0  0  0  0  0  1  0  0  0  0  0  0
  -28.2000  -36.1030   25.5440 N   0  0  0  0  0  0  0  0  0  0  0  0
  -28.0620  -37.0090   25.9820 H   0  0  0  0  0  0  0  0  0  0  0  0
  -26.8750  -30.4980   25.2600 C   0  0  1  0  0  0  0  0  0  0  0  0
  -25.9210  -30.1510   26.4280 C   0  0  0  0  0  1  0  0  0  0  0  0
  -27.0640  -29.2210   24.4090 C   0  0  0  0  0  1  0  0  0  0  0  0
  -28.2590  -30.8410   25.8600 C   0  0  0  0  0  1  0  0  0  0  0  0
  2  5  1  0
  3  1  1  0
  4  2  1  0
  5 11  1  0
  5  1  1  0
  6 53  1  0
  6  4  1  0
  6  3  1  0
  8 11  2  0
  9  7  2  0
 10 12  2  0
 10  8  1  0
 11  7  1  0
 12  9  1  0
 13 14  1  0
 13 12  1  0
 15 16  1  0
 15 14  1  0
 17 23  1  0
 17 16  1  0
 18 23  1  0
 19 20  1  0
 19 18  1  0
 21 20  1  0
 21 28  1  0
 21 22  1  0
 23 22  1  0
 24 17  2  0
 25 26  2  0
 26 45  1  0
 27 26  1  0
 27 30  1  0
 28 29  1  0
 28 25  1  0
 29 27  2  0
 30 31  1  0
 31 32  2  0
 33 36  1  0
 33 32  1  0
 34 33  2  0
 35 34  1  0
 35 30  2  0
 36 37  1  0
 37 42  2  0
 37 38  1  0
 38 39  2  0
 39 40  1  0
 40 44  1  0
 41 40  2  0
 42 41  1  0
 43 42  1  0
 45 46  1  0
 46 49  1  0
 46 48  1  0
 47 45  2  0
 50 25  1  0
 50 51  1  0
 52 50  1  0
 54 53  1  0
 55 57  1  0
 55 54  1  0
 56 67  2  0
 57 62  1  0
 58 66  1  0
 58 68  1  0
 59 61  1  0
 59 65  1  0
 60 66  1  0
 61 60  1  0
 62 61  2  0
 63 57  2  0
 63 64  1  0
 64 59  2  0
 65 58  1  0
 66 56  1  0
 68 70  2  0
 69 68  1  0
 71 69  1  0
 72 81  2  0
 72 77  1  0
 73 69  1  0
 73 77  1  0
 74 73  1  0
 75 76  1  0
 75 74  1  0
 76 72  1  0
 77 78  2  0
 78 79  1  0
 80 79  2  0
 81 80  1  0
 82 56  1  0
 82 83  1  0
 82 92  1  0
 83 86  1  0
 84 83  1  0
 84 88  1  0
 85 84  2  0
 88 87  1  0
 88 90  1  0
 90 91  1  0
 90 89  1  0
 92 95  1  1
 92 93  1  0
 94 92  1  0
M  ISO  4  16 100  17 100  54 101  55 101
M  END
>  <TORSDO>  (38) 
F 23

>  <SCORE>  (38) 
-6.670

>  <name>  (38) 
37

>  <ligand_id>  (38) 
37

>  <original_smiles>  (38) 
[H]c1c([H])c([H])c2c(c1[H])C([H])([H])C([H])([H])C([H])([H])C2([H])N([H])C(=O)C1([H])N(C(=O)C([H])(N([H])C(=O)C([H])(N([H])C([H])([H])[H])C([H])([H])[H])C(C([H])([H])[H])(C([H])([H])[H])C([H])([H])[H])C([H])([H])c2c([H])c(OC([H])([H])C([H])([H])C3([H])C([H])([H])C([H])([H])C([H])(c4c([H])c([H])c(C([H])([H])C([H])([H])C([H])([H])C([H])([H])C(=O)N5C([H])([H])C([H])([H])C([H])([H])C([H])(n6nc(-c7c([H])c([H])c(Oc8c([H])c([H])c(F)c([H])c8F)c([H])c7[H])c(C(=O)N([H])[H])c6N([H])[H])C5([H])[H])c([H])c4[H])C([H])([H])C3([H])[H])c([H])c([H])c2C1([H])[H]

>  <smiles>  (38) 
[H]c1c([H])c([H])c2c(c1[H])C([H])([H])C([H])([H])C([H])([H])C2([H])N([H])C(=O)C1([H])N(C(=O)C([H])(N([H])C(=O)C([H])(N([H])C([H])([H])[H])C([H])([H])[H])C(C([H])([H])[H])(C([H])([H])[H])C([H])([H])[H])C([H])([H])c2c([H])c(OC([H])([H])C([H])([H])C3([H])C([H])([H])C([H])([H])C([H])(c4c([H])c([H])c(C([H])([H])C([H])([H])C([H])([H])C([H])([H])C(=O)N5C([H])([H])C([H])([H])C([H])([H])C([H])(n6nc(-c7c([H])c([H])c(Oc8c([H])c([H])c(F)c([H])c8F)c([H])c7[H])c(C(=O)N([H])[H])c6N([H])[H])C5([H])[H])c([H])c4[H])C([H])([H])C3([H])[H])c([H])c([H])c2C1([H])[H]

$$$$
38:0:0
     RDKit          3D

 92 99  0  0  1  0  0  0  0  0999 V2000
  -29.3260  -21.0150   20.6090 C   0  0  0  0  0  3  0  0  0  0  0  0
  -28.2590  -20.9080   19.4910 C   0  0  0  0  0  2  0  0  0  0  0  0
  -28.8120  -20.7040   18.0630 C   0  0  0  0  0  2  0  0  0  0  0  0
  -27.7380  -20.6370   17.0580 N   0  0  0  0  0  4  0  0  0  0  0  0
  -27.1190  -19.8680   17.2410 H   0  0  0  0  0  0  0  0  0  0  0  0
  -28.1350  -20.5080   16.1430 H   0  0  0  0  0  0  0  0  0  0  0  0
  -27.2030  -21.4870   17.0460 H   0  0  0  0  0  0  0  0  0  0  0  0
  -30.1900  -22.3170   20.5090 C   0  0  0  0  0  2  0  0  0  0  0  0
  -29.5410  -23.7010   20.1640 C   0  0  0  0  0  2  0  0  0  0  0  0
  -28.6100  -24.3590   21.2170 C   0  0  0  0  0  2  0  0  0  0  0  0
  -28.7270  -25.9110   21.3500 C   0  0  0  0  0  2  0  0  0  0  0  0
  -28.4120  -26.6530   20.1620 O   0  0  0  0  0  0  0  0  0  0  0  0
  -24.6140  -31.8720   23.2770 C   0  0  0  0  0  0  0  0  0  0  0  0
  -27.2660  -27.4190   20.2130 C   0  0  0  0  0  0  0  0  0  0  0  0
  -23.4140  -30.4710   21.6270 C   0  0  0  0  0  3  0  0  0  0  0  0
  -24.8760  -28.9310   20.2090 C   0  0  0  0  0  0  0  0  0  0  0  0
  -25.9410  -30.8260   21.4420 C   0  0  0  0  0  2  0  0  0  0  0  0
  -26.0310  -29.4520   20.8080 C   0  0  0  0  0  0  0  0  0  0  0  0
  -27.2310  -28.7000   20.8140 C   0  0  0  0  0  3  0  0  0  0  0  0
  -26.1010  -26.9160   19.6030 C   0  0  0  0  0  3  0  0  0  0  0  0
  -24.9060  -27.6610   19.6050 C   0  0  0  0  0  3  0  0  0  0  0  0
  -23.6300  -29.7900   20.2490 C   0  0  0  0  0  2  0  0  0  0  0  0
  -24.6750  -31.0720   22.1730 N   0  0  0  0  0  0  0  0  0  0  0  0
  -23.5320  -32.1440   23.8120 O   0  0  0  0  0  0  0  0  0  0  0  0
  -22.7580  -29.4510   22.5850 C   0  0  0  0  0  0  0  0  0  0  0  0
  -21.4330  -29.2720   22.4540 N   0  0  0  0  0  0  0  0  0  0  0  0
  -23.4380  -28.8220   23.4010 O   0  0  0  0  0  0  0  0  0  0  0  0
  -20.9470  -29.8300   21.7660 H   0  0  0  0  0  0  0  0  0  0  0  0
  -18.0530  -28.0960   22.9510 C   0  0  0  0  0  0  0  0  0  0  0  0
  -20.6130  -28.3350   23.2210 C   0  0  0  0  0  3  0  0  0  0  0  0
  -20.7040  -26.9070   22.6340 C   0  0  0  0  0  2  0  0  0  0  0  0
  -19.5980  -26.6000   21.6190 C   0  0  0  0  0  2  0  0  0  0  0  0
  -18.2190  -26.7500   22.2650 C   0  0  0  0  0  2  0  0  0  0  0  0
  -19.1770  -28.8480   23.3840 C   0  0  0  0  0  0  0  0  0  0  0  0
  -18.9680  -30.1090   23.9830 C   0  0  0  0  0  3  0  0  0  0  0  0
  -17.6690  -30.6200   24.1540 C   0  0  0  0  0  3  0  0  0  0  0  0
  -16.5580  -29.8650   23.7370 C   0  0  0  0  0  3  0  0  0  0  0  0
  -16.7510  -28.6050   23.1420 C   0  0  0  0  0  3  0  0  0  0  0  0
  -25.8990  -32.5000   23.9020 C   0  0  0  0  0  3  0  0  0  0  0  0
  -26.4020  -31.7380   25.1880 C   0  0  1  0  0  0  0  0  0  0  0  0
  -25.2990  -31.5170   26.2500 C   0  0  0  0  0  1  0  0  0  0  0  0
  -26.9790  -30.3530   24.8120 C   0  0  0  0  0  1  0  0  0  0  0  0
  -27.5520  -32.5310   25.8530 C   0  0  0  0  0  1  0  0  0  0  0  0
  -25.5990  -33.9030   24.2130 N   0  0  0  0  0  0  0  0  0  0  0  0
  -25.9460  -34.9440   23.4440 C   0  0  0  0  0  0  0  0  0  0  0  0
  -26.6250  -34.8240   22.4200 O   0  0  0  0  0  0  0  0  0  0  0  0
  -24.9980  -34.0720   25.0080 H   0  0  0  0  0  0  0  0  0  0  0  0
  -24.2380  -36.7470   23.0460 C   0  0  0  0  0  1  0  0  0  0  0  0
  -25.4630  -36.3410   23.8800 C   0  0  0  0  0  3  0  0  0  0  0  0
  -27.5910  -37.2180   24.7350 C   0  0  0  0  0  1  0  0  0  0  0  0
  -26.5060  -37.3840   23.7720 N   0  0  0  0  0  0  0  0  0  0  0  0
  -26.1050  -38.3090   23.9020 H   0  0  0  0  0  0  0  0  0  0  0  0
  -30.2500  -19.7450   20.7020 C   0  0  0  0  0  2  0  0  0  0  0  0
  -29.5860  -18.3560   20.9580 C   0  0  0  0  0  2  0  0  0  0  0  0
  -30.5600  -17.1470   20.7930 C   0  0  0  0  0  2  0  0  0  0  0  0
  -29.9690  -15.7380   21.1360 C   0  0  0  0  0  2  0  0  0  0  0  0
  -30.7040  -14.5220   20.4930 C   0  0  0  0  0  0  0  0  0  0  0  0
  -30.4360  -12.3690   19.2970 C   0  0  0  0  0  2  0  0  0  0  0  0
  -29.4930  -12.5830   18.0940 C   0  0  0  0  0  2  0  0  0  0  0  0
  -28.0190  -12.4280   18.5180 C   0  0  0  0  0  2  0  0  0  0  0  0
  -27.6750  -13.2460   19.7900 C   0  0  0  0  0  3  0  0  0  0  0  0
  -28.7300  -13.0200   20.8970 C   0  0  0  0  0  2  0  0  0  0  0  0
  -30.0530  -13.3340   20.3400 N   0  0  0  0  0  0  0  0  0  0  0  0
  -31.8330  -14.7010   20.0260 O   0  0  0  0  0  0  0  0  0  0  0  0
  -25.2700  -13.8410   20.4870 C   0  0  0  0  0  0  0  0  0  0  0  0
  -24.2050  -13.0630   20.8510 C   0  0  0  0  0  0  0  0  0  0  0  0
  -24.6750  -11.7140   20.8260 C   0  0  0  0  0  0  0  0  0  0  0  0
  -26.3220  -12.9650   20.2640 N   0  0  0  0  0  0  0  0  0  0  0  0
  -25.9660  -11.6810   20.5260 N   0  0  0  0  0  0  0  0  0  0  0  0
  -23.9550  -10.4480   21.0150 C   0  0  0  0  0  0  0  0  0  0  0  0
  -24.3840   -9.4880   21.9570 C   0  0  0  0  0  3  0  0  0  0  0  0
  -23.6660   -8.2850   22.1330 C   0  0  0  0  0  3  0  0  0  0  0  0
  -22.5050   -8.0340   21.3660 C   0  0  0  0  0  0  0  0  0  0  0  0
  -22.0940   -8.9840   20.4120 C   0  0  0  0  0  3  0  0  0  0  0  0
  -22.8120  -10.1770   20.2350 C   0  0  0  0  0  3  0  0  0  0  0  0
  -21.7580   -6.8840   21.4500 O   0  0  0  0  0  0  0  0  0  0  0  0
  -21.7010   -6.1460   22.6060 C   0  0  0  0  0  0  0  0  0  0  0  0
  -21.2410   -6.7000   23.8200 C   0  0  0  0  0  3  0  0  0  0  0  0
  -21.1330   -5.8870   24.9670 C   0  0  0  0  0  3  0  0  0  0  0  0
  -21.4750   -4.5240   24.8990 C   0  0  0  0  0  0  0  0  0  0  0  0
  -21.9280   -3.9690   23.6890 C   0  0  0  0  0  3  0  0  0  0  0  0
  -22.0370   -4.7790   22.5440 C   0  0  0  0  0  0  0  0  0  0  0  0
  -22.4540   -4.2370   21.3750 F   0  0  0  0  0  0  0  0  0  0  0  0
  -21.3630   -3.7410   25.9980 F   0  0  0  0  0  0  0  0  0  0  0  0
  -22.8030  -13.5310   21.1160 C   0  0  0  0  0  0  0  0  0  0  0  0
  -22.0750  -12.8300   21.9760 N   0  0  0  0  0  0  0  0  0  0  0  0
  -22.3620  -14.5540   20.5940 O   0  0  0  0  0  0  0  0  0  0  0  0
  -22.4440  -12.0010   22.4190 H   0  0  0  0  0  0  0  0  0  0  0  0
  -21.1340  -13.1250   22.1970 H   0  0  0  0  0  0  0  0  0  0  0  0
  -25.4300  -15.2120   20.3080 N   0  0  0  0  0  0  0  0  0  0  0  0
  -24.6630  -15.8670   20.4190 H   0  0  0  0  0  0  0  0  0  0  0  0
  -26.2870  -15.6540   20.0010 H   0  0  0  0  0  0  0  0  0  0  0  0
  1  2  1  0
  1 53  1  0
  3  2  1  0
  4  5  1  0
  4  3  1  0
  6  4  1  0
  7  4  1  0
  8  1  1  0
  9  8  1  0
  9 10  1  0
 10 11  1  0
 12 14  1  0
 12 11  1  0
 13 24  2  0
 14 19  1  0
 15 23  1  0
 15 25  1  0
 16 22  1  0
 16 18  1  0
 17 23  1  0
 18 19  2  0
 18 17  1  0
 20 21  1  0
 20 14  2  0
 21 16  2  0
 22 15  1  0
 23 13  1  0
 25 27  2  0
 26 25  1  0
 28 26  1  0
 29 38  2  0
 29 34  1  0
 30 26  1  0
 30 34  1  0
 31 30  1  0
 32 33  1  0
 32 31  1  0
 33 29  1  0
 34 35  2  0
 35 36  1  0
 37 36  2  0
 38 37  1  0
 39 13  1  0
 39 44  1  0
 39 40  1  0
 40 43  1  1
 40 41  1  0
 42 40  1  0
 44 47  1  0
 45 49  1  0
 45 44  1  0
 46 45  2  0
 49 48  1  0
 51 49  1  0
 51 52  1  0
 51 50  1  0
 53 54  1  0
 55 54  1  0
 55 56  1  0
 57 56  1  0
 58 63  1  0
 59 60  1  0
 59 58  1  0
 61 60  1  0
 61 68  1  0
 61 62  1  0
 63 57  1  0
 63 62  1  0
 64 57  2  0
 65 66  2  0
 66 85  1  0
 67 66  1  0
 67 70  1  0
 68 65  1  0
 68 69  1  0
 69 67  2  0
 70 71  1  0
 71 72  2  0
 73 76  1  0
 73 72  1  0
 74 73  2  0
 75 74  1  0
 75 70  2  0
 76 77  1  0
 77 78  1  0
 78 79  2  0
 80 79  1  0
 80 84  1  0
 81 80  2  0
 82 77  2  0
 82 81  1  0
 83 82  1  0
 85 86  1  0
 86 89  1  0
 86 88  1  0
 87 85  2  0
 90 91  1  0
 90 65  1  0
 92 90  1  0
M  ISO  4  11 101  12 101  56 100  57 100
M  END
>  <TORSDO>  (39) 
F 27

>  <SCORE>  (39) 
-11.657

>  <name>  (39) 
38

>  <ligand_id>  (39) 
38

>  <original_smiles>  (39) 
[H]c1c([H])c([H])c2c(c1[H])C([H])([H])C([H])([H])C([H])([H])C2([H])N([H])C(=O)C1([H])N(C(=O)C([H])(N([H])C(=O)C([H])(N([H])C([H])([H])[H])C([H])([H])[H])C(C([H])([H])[H])(C([H])([H])[H])C([H])([H])[H])C([H])([H])c2c([H])c(OC([H])([H])C([H])([H])C([H])([H])C([H])([H])C([H])(C([H])([H])C([H])([H])C([H])([H])C([H])([H])C(=O)N3C([H])([H])C([H])([H])C([H])([H])C([H])(n4nc(-c5c([H])c([H])c(Oc6c([H])c([H])c(F)c([H])c6F)c([H])c5[H])c(C(=O)N([H])[H])c4N([H])[H])C3([H])[H])C([H])([H])C([H])([H])[N+]([H])([H])[H])c([H])c([H])c2C1([H])[H]

>  <smiles>  (39) 
[H]c1c([H])c([H])c2c(c1[H])C([H])([H])C([H])([H])C([H])([H])C2([H])N([H])C(=O)C1([H])N(C(=O)C([H])(N([H])C(=O)C([H])(N([H])C([H])([H])[H])C([H])([H])[H])C(C([H])([H])[H])(C([H])([H])[H])C([H])([H])[H])C([H])([H])c2c([H])c(OC([H])([H])C([H])([H])C([H])([H])C([H])([H])C([H])(C([H])([H])C([H])([H])C([H])([H])C([H])([H])C(=O)N3C([H])([H])C([H])([H])C([H])([H])C([H])(n4nc(-c5c([H])c([H])c(Oc6c([H])c([H])c(F)c([H])c6F)c([H])c5[H])c(C(=O)N([H])[H])c4N([H])[H])C3([H])[H])C([H])([H])C([H])([H])[N+]([H])([H])[H])c([H])c([H])c2C1([H])[H]

$$$$
39:0:0
     RDKit          3D

 84 91  0  0  1  0  0  0  0  0999 V2000
  -27.9800  -23.9960   20.1820 C   0  0  0  0  0  2  0  0  0  0  0  0
  -29.8440  -22.5880   21.5690 C   0  0  0  0  0  1  0  0  0  0  0  0
  -29.0000  -22.3980   20.3000 C   0  0  0  0  0  3  0  0  0  0  0  0
  -28.6970  -20.5900   20.2150 C   0  0  0  0  0  0  0  0  0  0  0  0
  -27.4970  -20.3260   20.1050 O   0  0  0  0  0  0  0  0  0  0  0  0
  -29.7190  -19.0730   20.2490 C   0  0  0  0  0  3  0  0  0  0  0  0
  -29.4340  -17.2010   20.3490 C   0  0  0  0  0  3  0  0  0  0  0  0
  -30.3250  -15.6070   20.1490 C   0  0  0  0  0  0  0  0  0  0  0  0
  -30.4270  -13.0990   19.2890 C   0  0  0  0  0  2  0  0  0  0  0  0
  -29.5000  -12.8040   18.0760 C   0  0  0  0  0  2  0  0  0  0  0  0
  -28.0740  -12.4620   18.5380 C   0  0  0  0  0  2  0  0  0  0  0  0
  -27.6000  -13.4220   19.6550 C   0  0  0  0  0  3  0  0  0  0  0  0
  -28.6540  -13.6480   20.7590 C   0  0  0  0  0  2  0  0  0  0  0  0
  -29.8480  -14.2370   20.1200 N   0  0  0  0  0  0  0  0  0  0  0  0
  -31.5410  -15.6040   19.8900 O   0  0  0  0  0  0  0  0  0  0  0  0
  -25.2470  -13.9290   20.4760 C   0  0  0  0  0  0  0  0  0  0  0  0
  -24.2020  -13.1340   20.8540 C   0  0  0  0  0  0  0  0  0  0  0  0
  -24.6830  -11.7900   20.7910 C   0  0  0  0  0  0  0  0  0  0  0  0
  -26.2930  -13.0700   20.1920 N   0  0  0  0  0  0  0  0  0  0  0  0
  -25.9690  -11.7760   20.4520 N   0  0  0  0  0  0  0  0  0  0  0  0
  -23.9720  -10.5170   20.9760 C   0  0  0  0  0  0  0  0  0  0  0  0
  -24.4070   -9.5550   21.9140 C   0  0  0  0  0  3  0  0  0  0  0  0
  -23.6910   -8.3500   22.0880 C   0  0  0  0  0  3  0  0  0  0  0  0
  -22.5270   -8.0980   21.3250 C   0  0  0  0  0  0  0  0  0  0  0  0
  -22.1100   -9.0500   20.3780 C   0  0  0  0  0  3  0  0  0  0  0  0
  -22.8260  -10.2460   20.2010 C   0  0  0  0  0  3  0  0  0  0  0  0
  -21.7840   -6.9460   21.4080 O   0  0  0  0  0  0  0  0  0  0  0  0
  -21.6990   -6.2250   22.5730 C   0  0  0  0  0  0  0  0  0  0  0  0
  -21.1820   -6.7890   23.7610 C   0  0  0  0  0  3  0  0  0  0  0  0
  -21.0480   -5.9930   24.9160 C   0  0  0  0  0  3  0  0  0  0  0  0
  -21.4210   -4.6360   24.8850 C   0  0  0  0  0  0  0  0  0  0  0  0
  -21.9300   -4.0720   23.7020 C   0  0  0  0  0  3  0  0  0  0  0  0
  -22.0650   -4.8650   22.5490 C   0  0  0  0  0  0  0  0  0  0  0  0
  -22.5370   -4.3110   21.4050 F   0  0  0  0  0  0  0  0  0  0  0  0
  -21.2850   -3.8690   25.9920 F   0  0  0  0  0  0  0  0  0  0  0  0
  -22.8060  -13.5930   21.1550 C   0  0  0  0  0  0  0  0  0  0  0  0
  -22.1040  -12.8850   22.0310 N   0  0  0  0  0  0  0  0  0  0  0  0
  -22.3480  -14.6160   20.6480 O   0  0  0  0  0  0  0  0  0  0  0  0
  -22.4880  -12.0580   22.4640 H   0  0  0  0  0  0  0  0  0  0  0  0
  -21.1670  -13.1750   22.2740 H   0  0  0  0  0  0  0  0  0  0  0  0
  -25.3920  -15.3040   20.3190 N   0  0  0  0  0  0  0  0  0  0  0  0
  -24.6220  -15.9490   20.4620 H   0  0  0  0  0  0  0  0  0  0  0  0
  -26.2310  -15.7590   19.9820 H   0  0  0  0  0  0  0  0  0  0  0  0
  -28.1850  -25.7070   20.2880 O   0  0  0  0  0  0  0  0  0  0  0  0
  -24.6790  -31.8950   23.2300 C   0  0  0  0  0  0  0  0  0  0  0  0
  -27.1970  -26.8770   20.2350 C   0  0  0  0  0  0  0  0  0  0  0  0
  -23.4830  -30.4990   21.5970 C   0  0  0  0  0  3  0  0  0  0  0  0
  -24.9220  -28.8600   20.1810 C   0  0  0  0  0  0  0  0  0  0  0  0
  -26.0570  -30.6580   21.4620 C   0  0  0  0  0  2  0  0  0  0  0  0
  -26.1170  -29.2330   20.8070 C   0  0  0  0  0  0  0  0  0  0  0  0
  -27.2430  -28.2680   20.8020 C   0  0  0  0  0  3  0  0  0  0  0  0
  -25.9680  -26.6910   19.5590 C   0  0  0  0  0  3  0  0  0  0  0  0
  -24.8810  -27.6120   19.5350 C   0  0  0  0  0  3  0  0  0  0  0  0
  -23.7140  -29.8030   20.2260 C   0  0  0  0  0  2  0  0  0  0  0  0
  -24.7630  -31.0480   22.1490 N   0  0  0  0  0  0  0  0  0  0  0  0
  -23.5890  -32.1950   23.7460 O   0  0  0  0  0  0  0  0  0  0  0  0
  -22.7740  -29.5180   22.5690 C   0  0  0  0  0  0  0  0  0  0  0  0
  -21.4420  -29.3590   22.4420 N   0  0  0  0  0  0  0  0  0  0  0  0
  -23.4320  -28.8980   23.4080 O   0  0  0  0  0  0  0  0  0  0  0  0
  -20.9620  -29.9090   21.7420 H   0  0  0  0  0  0  0  0  0  0  0  0
  -18.0570  -28.1500   22.9540 C   0  0  0  0  0  0  0  0  0  0  0  0
  -20.6170  -28.4240   23.2170 C   0  0  0  0  0  3  0  0  0  0  0  0
  -20.7200  -26.9890   22.6490 C   0  0  0  0  0  2  0  0  0  0  0  0
  -19.6190  -26.6610   21.6350 C   0  0  0  0  0  2  0  0  0  0  0  0
  -18.2380  -26.8000   22.2780 C   0  0  0  0  0  2  0  0  0  0  0  0
  -19.1730  -28.9190   23.3800 C   0  0  0  0  0  0  0  0  0  0  0  0
  -18.9470  -30.1780   23.9770 C   0  0  0  0  0  3  0  0  0  0  0  0
  -17.6390  -30.6690   24.1500 C   0  0  0  0  0  3  0  0  0  0  0  0
  -16.5380  -29.8980   23.7380 C   0  0  0  0  0  3  0  0  0  0  0  0
  -16.7480  -28.6390   23.1460 C   0  0  0  0  0  3  0  0  0  0  0  0
  -25.9480  -32.5410   23.8650 C   0  0  0  0  0  3  0  0  0  0  0  0
  -26.4420  -31.7870   25.1620 C   0  0  1  0  0  0  0  0  0  0  0  0
  -25.3330  -31.5740   26.2200 C   0  0  0  0  0  1  0  0  0  0  0  0
  -27.0220  -30.3990   24.8100 C   0  0  0  0  0  1  0  0  0  0  0  0
  -27.5880  -32.5840   25.8270 C   0  0  0  0  0  1  0  0  0  0  0  0
  -25.6330  -33.9460   24.1910 N   0  0  0  0  0  0  0  0  0  0  0  0
  -25.9450  -35.0030   23.4290 C   0  0  0  0  0  0  0  0  0  0  0  0
  -26.5860  -34.8990   22.3810 O   0  0  0  0  0  0  0  0  0  0  0  0
  -25.0590  -34.0990   25.0080 H   0  0  0  0  0  0  0  0  0  0  0  0
  -24.1980  -36.7970   23.1410 C   0  0  0  0  0  1  0  0  0  0  0  0
  -25.4730  -36.3950   23.9010 C   0  0  0  0  0  3  0  0  0  0  0  0
  -27.6300  -37.3030   24.6460 C   0  0  0  0  0  1  0  0  0  0  0  0
  -26.4960  -37.4520   23.7380 N   0  0  0  0  0  0  0  0  0  0  0  0
  -26.0900  -38.3720   23.8890 H   0  0  0  0  0  0  0  0  0  0  0  0
  1 44  1  0
  1  3  1  0
  3  2  1  0
  4  6  1  0
  4  3  1  0
  5  4  2  0
  6  7  2  0
  8  7  1  0
  9 14  1  0
 10 11  1  0
 10  9  1  0
 12 11  1  0
 12 19  1  0
 12 13  1  0
 14  8  1  0
 14 13  1  0
 15  8  2  0
 16 17  2  0
 17 36  1  0
 18 17  1  0
 18 21  1  0
 19 20  1  0
 19 16  1  0
 20 18  2  0
 21 22  1  0
 22 23  2  0
 24 27  1  0
 24 23  1  0
 25 24  2  0
 26 25  1  0
 26 21  2  0
 27 28  1  0
 28 29  1  0
 29 30  2  0
 31 30  1  0
 31 35  1  0
 32 31  2  0
 33 28  2  0
 33 32  1  0
 34 33  1  0
 36 37  1  0
 37 40  1  0
 37 39  1  0
 38 36  2  0
 41 42  1  0
 41 16  1  0
 43 41  1  0
 45 56  2  0
 46 44  1  0
 46 51  1  0
 47 55  1  0
 47 57  1  0
 48 54  1  0
 48 50  1  0
 49 55  1  0
 50 49  1  0
 51 50  2  0
 52 46  2  0
 53 52  1  0
 53 48  2  0
 54 47  1  0
 55 45  1  0
 57 59  2  0
 58 57  1  0
 60 58  1  0
 61 70  2  0
 61 66  1  0
 62 58  1  0
 62 66  1  0
 63 62  1  0
 64 65  1  0
 64 63  1  0
 65 61  1  0
 66 67  2  0
 67 68  1  0
 69 68  2  0
 70 69  1  0
 71 45  1  0
 71 76  1  0
 71 72  1  0
 72 75  1  1
 72 73  1  0
 74 72  1  0
 76 79  1  0
 77 81  1  0
 77 76  1  0
 78 77  2  0
 81 80  1  0
 83 84  1  0
 83 81  1  0
 83 82  1  0
M  ISO  4   1 101   7 100   8 100  44 101
M  END
>  <TORSDO>  (40) 
F 20

>  <SCORE>  (40) 
-16.309

>  <name>  (40) 
39

>  <ligand_id>  (40) 
39

>  <original_smiles>  (40) 
[H]c1c([H])c([H])c2c(c1[H])C([H])([H])C([H])([H])C([H])([H])C2([H])N([H])C(=O)C1([H])N(C(=O)C([H])(N([H])C(=O)C([H])(N([H])C([H])([H])[H])C([H])([H])[H])C(C([H])([H])[H])(C([H])([H])[H])C([H])([H])[H])C([H])([H])c2c([H])c(OC([H])([H])C([H])(C(=O)C([H])([H])C([H])([H])C(=O)N3C([H])([H])C([H])([H])C([H])([H])C([H])(n4nc(-c5c([H])c([H])c(Oc6c([H])c([H])c(F)c([H])c6F)c([H])c5[H])c(C(=O)N([H])[H])c4N([H])[H])C3([H])[H])C([H])([H])[H])c([H])c([H])c2C1([H])[H]

>  <smiles>  (40) 
[H]c1c([H])c([H])c2c(c1[H])C([H])([H])C([H])([H])C([H])([H])C2([H])N([H])C(=O)C1([H])N(C(=O)C([H])(N([H])C(=O)C([H])(N([H])C([H])([H])[H])C([H])([H])[H])C(C([H])([H])[H])(C([H])([H])[H])C([H])([H])[H])C([H])([H])c2c([H])c(OC([H])([H])C([H])(C(=O)C([H])([H])C([H])([H])C(=O)N3C([H])([H])C([H])([H])C([H])([H])C([H])(n4nc(-c5c([H])c([H])c(Oc6c([H])c([H])c(F)c([H])c6F)c([H])c5[H])c(C(=O)N([H])[H])c4N([H])[H])C3([H])[H])C([H])([H])[H])c([H])c([H])c2C1([H])[H]

$$$$
40:0:0
     RDKit          3D

 92100  0  0  1  0  0  0  0  0999 V2000
  -30.5110  -20.2000   17.2150 C   0  0  0  0  0  2  0  0  0  0  0  0
  -30.8510  -19.1510   19.5030 C   0  0  0  0  0  3  0  0  0  0  0  0
  -29.1880  -18.1840   18.0070 C   0  0  0  0  0  3  0  0  0  0  0  0
  -30.5700  -18.1540   20.4590 C   0  0  0  0  0  3  0  0  0  0  0  0
  -28.9090  -17.1870   18.9620 C   0  0  0  0  0  3  0  0  0  0  0  0
  -30.1680  -19.1630   18.2700 C   0  0  0  0  0  0  0  0  0  0  0  0
  -29.6070  -17.1600   20.1890 C   0  0  0  0  0  0  0  0  0  0  0  0
  -29.3330  -16.0610   21.2090 C   0  0  0  0  0  2  0  0  0  0  0  0
  -30.7180  -14.2860   20.2230 C   0  0  0  0  0  0  0  0  0  0  0  0
  -30.2520  -12.2450   18.9120 C   0  0  0  0  0  2  0  0  0  0  0  0
  -29.2540  -12.5260   17.7750 C   0  0  0  0  0  2  0  0  0  0  0  0
  -27.8030  -12.3930   18.2770 C   0  0  0  0  0  2  0  0  0  0  0  0
  -27.5550  -13.1870   19.5860 C   0  0  0  0  0  3  0  0  0  0  0  0
  -28.6540  -12.8750   20.6260 C   0  0  0  0  0  2  0  0  0  0  0  0
  -29.9620  -13.1730   20.0160 N   0  0  0  0  0  0  0  0  0  0  0  0
  -31.7460  -14.5210   19.5760 O   0  0  0  0  0  0  0  0  0  0  0  0
  -31.4400  -15.3410   22.2770 C   0  0  0  0  0  1  0  0  0  0  0  0
  -30.3920  -15.0380   21.2980 N   0  0  0  0  0  0  0  0  0  0  0  0
  -25.1990  -13.8390   20.3950 C   0  0  0  0  0  0  0  0  0  0  0  0
  -24.1350  -13.0840   20.8080 C   0  0  0  0  0  0  0  0  0  0  0  0
  -24.5700  -11.7250   20.7490 C   0  0  0  0  0  0  0  0  0  0  0  0
  -26.2190  -12.9400   20.1190 N   0  0  0  0  0  0  0  0  0  0  0  0
  -25.8440  -11.6640   20.3860 N   0  0  0  0  0  0  0  0  0  0  0  0
  -23.8320  -10.4730   20.9640 C   0  0  0  0  0  0  0  0  0  0  0  0
  -24.2730   -9.5070   21.8940 C   0  0  0  0  0  3  0  0  0  0  0  0
  -23.5370   -8.3190   22.0950 C   0  0  0  0  0  3  0  0  0  0  0  0
  -22.3460   -8.0900   21.3650 C   0  0  0  0  0  0  0  0  0  0  0  0
  -21.9260   -9.0460   20.4230 C   0  0  0  0  0  3  0  0  0  0  0  0
  -22.6620  -10.2250   20.2200 C   0  0  0  0  0  3  0  0  0  0  0  0
  -21.5810   -6.9550   21.4750 O   0  0  0  0  0  0  0  0  0  0  0  0
  -21.5450   -6.2220   22.6340 C   0  0  0  0  0  0  0  0  0  0  0  0
  -21.1220   -6.7850   23.8580 C   0  0  0  0  0  3  0  0  0  0  0  0
  -21.0330   -5.9780   25.0110 C   0  0  0  0  0  3  0  0  0  0  0  0
  -21.3560   -4.6100   24.9390 C   0  0  0  0  0  0  0  0  0  0  0  0
  -21.7710   -4.0470   23.7190 C   0  0  0  0  0  3  0  0  0  0  0  0
  -21.8620   -4.8510   22.5690 C   0  0  0  0  0  0  0  0  0  0  0  0
  -22.2430   -4.2990   21.3920 F   0  0  0  0  0  0  0  0  0  0  0  0
  -21.2630   -3.8320   26.0430 F   0  0  0  0  0  0  0  0  0  0  0  0
  -22.7590  -13.5830   21.1440 C   0  0  0  0  0  0  0  0  0  0  0  0
  -22.0580  -12.8920   22.0370 N   0  0  0  0  0  0  0  0  0  0  0  0
  -22.3150  -14.6190   20.6510 O   0  0  0  0  0  0  0  0  0  0  0  0
  -22.4290  -12.0520   22.4560 H   0  0  0  0  0  0  0  0  0  0  0  0
  -21.1370  -13.2090   22.3060 H   0  0  0  0  0  0  0  0  0  0  0  0
  -25.3790  -15.2070   20.2170 N   0  0  0  0  0  0  0  0  0  0  0  0
  -24.6260  -15.8720   20.3610 H   0  0  0  0  0  0  0  0  0  0  0  0
  -26.2160  -15.6370   19.8480 H   0  0  0  0  0  0  0  0  0  0  0  0
  -29.5020  -21.3580   17.1150 C   0  0  0  0  0  2  0  0  0  0  0  0
  -29.4300  -22.2400   18.3750 C   0  0  0  0  0  2  0  0  0  0  0  0
  -28.9050  -23.6500   18.0630 C   0  0  0  0  0  2  0  0  0  0  0  0
  -28.7780  -24.5520   19.3040 C   0  0  0  0  0  2  0  0  0  0  0  0
  -28.7800  -26.0420   18.9270 C   0  0  0  0  0  2  0  0  0  0  0  0
  -28.4930  -26.8580   20.0620 O   0  0  0  0  0  0  0  0  0  0  0  0
  -24.6310  -31.9320   23.1990 C   0  0  0  0  0  0  0  0  0  0  0  0
  -27.2820  -27.5130   20.0980 C   0  0  0  0  0  0  0  0  0  0  0  0
  -23.4130  -30.5070   21.5840 C   0  0  0  0  0  3  0  0  0  0  0  0
  -24.8590  -28.9680   20.1570 C   0  0  0  0  0  0  0  0  0  0  0  0
  -25.9300  -30.8880   21.3490 C   0  0  0  0  0  2  0  0  0  0  0  0
  -26.0170  -29.5130   20.7250 C   0  0  0  0  0  0  0  0  0  0  0  0
  -27.2260  -28.7860   20.7060 C   0  0  0  0  0  3  0  0  0  0  0  0
  -26.0980  -26.9640   19.5530 C   0  0  0  0  0  3  0  0  0  0  0  0
  -24.8910  -27.6870   19.5780 C   0  0  0  0  0  3  0  0  0  0  0  0
  -23.6070  -29.8130   20.2100 C   0  0  0  0  0  2  0  0  0  0  0  0
  -24.6770  -31.1250   22.1020 N   0  0  0  0  0  0  0  0  0  0  0  0
  -23.5550  -32.2010   23.7520 O   0  0  0  0  0  0  0  0  0  0  0  0
  -22.7850  -29.4890   22.5610 C   0  0  0  0  0  0  0  0  0  0  0  0
  -21.4620  -29.2860   22.4450 N   0  0  0  0  0  0  0  0  0  0  0  0
  -23.4830  -28.8820   23.3770 O   0  0  0  0  0  0  0  0  0  0  0  0
  -20.9580  -29.8300   21.7580 H   0  0  0  0  0  0  0  0  0  0  0  0
  -18.1080  -28.0630   22.9840 C   0  0  0  0  0  0  0  0  0  0  0  0
  -20.6640  -28.3480   23.2320 C   0  0  0  0  0  3  0  0  0  0  0  0
  -20.7760  -26.9130   22.6670 C   0  0  0  0  0  2  0  0  0  0  0  0
  -19.6690  -26.5710   21.6660 C   0  0  0  0  0  2  0  0  0  0  0  0
  -18.2910  -26.7090   22.3210 C   0  0  0  0  0  2  0  0  0  0  0  0
  -19.2230  -28.8390   23.3970 C   0  0  0  0  0  0  0  0  0  0  0  0
  -18.9980  -30.1070   23.9780 C   0  0  0  0  0  3  0  0  0  0  0  0
  -17.6900  -30.6000   24.1470 C   0  0  0  0  0  3  0  0  0  0  0  0
  -16.5900  -29.8210   23.7520 C   0  0  0  0  0  3  0  0  0  0  0  0
  -16.7990  -28.5550   23.1760 C   0  0  0  0  0  3  0  0  0  0  0  0
  -25.9210  -32.5780   23.7950 C   0  0  0  0  0  3  0  0  0  0  0  0
  -25.5940  -33.9640   24.1540 N   0  0  0  0  0  0  0  0  0  0  0  0
  -25.9020  -35.0340   23.4090 C   0  0  0  0  0  0  0  0  0  0  0  0
  -26.5590  -34.9610   22.3680 O   0  0  0  0  0  0  0  0  0  0  0  0
  -25.0060  -34.0940   24.9630 H   0  0  0  0  0  0  0  0  0  0  0  0
  -24.1530  -36.8130   23.0940 C   0  0  0  0  0  1  0  0  0  0  0  0
  -25.3980  -36.4050   23.8980 C   0  0  0  0  0  3  0  0  0  0  0  0
  -27.5180  -37.2970   24.7560 C   0  0  0  0  0  1  0  0  0  0  0  0
  -26.4180  -37.4720   23.8110 N   0  0  0  0  0  0  0  0  0  0  0  0
  -26.0000  -38.3840   23.9780 H   0  0  0  0  0  0  0  0  0  0  0  0
  -26.4890  -31.7960   25.0420 C   0  0  1  0  0  0  0  0  0  0  0  0
  -25.4300  -31.5160   26.1340 C   0  0  0  0  0  1  0  0  0  0  0  0
  -27.0920  -30.4400   24.6080 C   0  0  0  0  0  1  0  0  0  0  0  0
  -27.6400  -32.6040   25.6870 C   0  0  0  0  0  1  0  0  0  0  0  0
  1  6  1  0
  2  4  1  0
  3  6  1  0
  3  5  2  0
  5  7  1  0
  6  2  2  0
  7  4  2  0
  7  8  1  0
  8 18  1  0
  9 18  1  0
 10 15  1  0
 11 12  1  0
 11 10  1  0
 13 12  1  0
 13 22  1  0
 13 14  1  0
 15  9  1  0
 15 14  1  0
 16  9  2  0
 18 17  1  0
 19 20  2  0
 20 39  1  0
 21 20  1  0
 21 24  1  0
 22 23  1  0
 22 19  1  0
 23 21  2  0
 24 25  1  0
 25 26  2  0
 27 30  1  0
 27 26  1  0
 28 27  2  0
 29 28  1  0
 29 24  2  0
 30 31  1  0
 31 32  1  0
 32 33  2  0
 34 33  1  0
 34 38  1  0
 35 34  2  0
 36 31  2  0
 36 35  1  0
 37 36  1  0
 39 40  1  0
 40 43  1  0
 40 42  1  0
 41 39  2  0
 44 45  1  0
 44 19  1  0
 46 44  1  0
 47  1  1  0
 47 48  1  0
 49 48  1  0
 49 50  1  0
 51 50  1  0
 51 52  1  0
 52 54  1  0
 53 64  2  0
 54 59  1  0
 55 63  1  0
 55 65  1  0
 56 62  1  0
 56 58  1  0
 57 63  1  0
 58 57  1  0
 59 58  2  0
 60 61  1  0
 60 54  2  0
 61 56  2  0
 62 55  1  0
 63 53  1  0
 65 67  2  0
 66 65  1  0
 68 66  1  0
 69 78  2  0
 69 74  1  0
 70 66  1  0
 70 74  1  0
 71 70  1  0
 72 73  1  0
 72 71  1  0
 73 69  1  0
 74 75  2  0
 75 76  1  0
 77 76  2  0
 78 77  1  0
 79 53  1  0
 79 80  1  0
 79 89  1  0
 80 83  1  0
 81 85  1  0
 81 80  1  0
 82 81  2  0
 85 84  1  0
 87 85  1  0
 87 88  1  0
 87 86  1  0
 89 92  1  1
 89 90  1  0
 91 89  1  0
M  ISO  4   9 100  18 100  51 101  52 101
M  END
>  <TORSDO>  (41) 
F 23

>  <SCORE>  (41) 
-12.073

>  <name>  (41) 
40

>  <ligand_id>  (41) 
40

>  <original_smiles>  (41) 
[H]c1c([H])c([H])c2c(c1[H])C([H])([H])C([H])([H])C([H])([H])C2([H])N([H])C(=O)C1([H])N(C(=O)C([H])(N([H])C(=O)C([H])(N([H])C([H])([H])[H])C([H])([H])[H])C(C([H])([H])[H])(C([H])([H])[H])C([H])([H])[H])C([H])([H])c2c([H])c(OC([H])([H])C([H])([H])C([H])([H])C([H])([H])C([H])([H])C([H])([H])c3c([H])c([H])c(C([H])([H])N(C(=O)N4C([H])([H])C([H])([H])C([H])([H])C([H])(n5nc(-c6c([H])c([H])c(Oc7c([H])c([H])c(F)c([H])c7F)c([H])c6[H])c(C(=O)N([H])[H])c5N([H])[H])C4([H])[H])C([H])([H])[H])c([H])c3[H])c([H])c([H])c2C1([H])[H]

>  <smiles>  (41) 
[H]c1c([H])c([H])c2c(c1[H])C([H])([H])C([H])([H])C([H])([H])C2([H])N([H])C(=O)C1([H])N(C(=O)C([H])(N([H])C(=O)C([H])(N([H])C([H])([H])[H])C([H])([H])[H])C(C([H])([H])[H])(C([H])([H])[H])C([H])([H])[H])C([H])([H])c2c([H])c(OC([H])([H])C([H])([H])C([H])([H])C([H])([H])C([H])([H])C([H])([H])c3c([H])c([H])c(C([H])([H])N(C(=O)N4C([H])([H])C([H])([H])C([H])([H])C([H])(n5nc(-c6c([H])c([H])c(Oc7c([H])c([H])c(F)c([H])c7F)c([H])c6[H])c(C(=O)N([H])[H])c5N([H])[H])C4([H])[H])C([H])([H])[H])c([H])c3[H])c([H])c([H])c2C1([H])[H]

$$$$
41:0:0
     RDKit          3D

 96103  0  0  1  0  0  0  0  0999 V2000
  -31.9830  -28.7090   26.0070 C   0  0  0  0  0  2  0  0  0  0  0  0
  -33.1850  -28.0170   26.6780 C   0  0  0  0  0  2  0  0  0  0  0  0
  -32.8400  -26.6630   27.3300 C   0  0  0  0  0  2  0  0  0  0  0  0
  -33.0980  -25.4720   26.3880 C   0  0  0  0  0  2  0  0  0  0  0  0
  -32.1690  -24.2680   26.6170 C   0  0  0  0  0  2  0  0  0  0  0  0
  -32.4800  -23.1520   25.6090 C   0  0  0  0  0  2  0  0  0  0  0  0
  -31.5040  -21.9640   25.6320 C   0  0  0  0  0  2  0  0  0  0  0  0
  -31.8980  -20.9290   24.5650 C   0  0  0  0  0  2  0  0  0  0  0  0
  -30.9410  -19.7330   24.4370 C   0  0  0  0  0  2  0  0  0  0  0  0
  -31.4060  -18.7720   23.3290 C   0  0  0  0  0  2  0  0  0  0  0  0
  -30.4990  -17.5480   23.1180 C   0  0  0  0  0  2  0  0  0  0  0  0
  -31.0300  -16.6290   21.9980 C   0  0  0  0  0  2  0  0  0  0  0  0
  -30.1760  -15.3610   21.7760 C   0  0  0  0  0  2  0  0  0  0  0  0
  -30.7250  -14.3860   20.7090 C   0  0  0  0  0  0  0  0  0  0  0  0
  -30.4230  -12.3080   19.3900 C   0  0  0  0  0  2  0  0  0  0  0  0
  -29.4840  -12.5400   18.1900 C   0  0  0  0  0  2  0  0  0  0  0  0
  -28.0090  -12.3810   18.6080 C   0  0  0  0  0  2  0  0  0  0  0  0
  -27.6660  -13.1980   19.8810 C   0  0  0  0  0  3  0  0  0  0  0  0
  -28.7030  -12.9290   20.9930 C   0  0  0  0  0  2  0  0  0  0  0  0
  -30.0370  -13.2420   20.4580 N   0  0  0  0  0  0  0  0  0  0  0  0
  -31.7670  -14.6720   20.1080 O   0  0  0  0  0  0  0  0  0  0  0  0
  -25.2610  -13.8140   20.5670 C   0  0  0  0  0  0  0  0  0  0  0  0
  -24.1840  -13.0430   20.9160 C   0  0  0  0  0  0  0  0  0  0  0  0
  -24.6390  -11.6900   20.8740 C   0  0  0  0  0  0  0  0  0  0  0  0
  -26.3040  -12.9300   20.3370 N   0  0  0  0  0  0  0  0  0  0  0  0
  -25.9310  -11.6470   20.5750 N   0  0  0  0  0  0  0  0  0  0  0  0
  -23.9060  -10.4280   21.0410 C   0  0  0  0  0  0  0  0  0  0  0  0
  -24.3610   -9.4200   21.9190 C   0  0  0  0  0  3  0  0  0  0  0  0
  -23.6290   -8.2240   22.0760 C   0  0  0  0  0  3  0  0  0  0  0  0
  -22.4270   -8.0280   21.3550 C   0  0  0  0  0  0  0  0  0  0  0  0
  -21.9910   -9.0260   20.4650 C   0  0  0  0  0  3  0  0  0  0  0  0
  -22.7240  -10.2130   20.3060 C   0  0  0  0  0  3  0  0  0  0  0  0
  -21.6640   -6.8880   21.4240 O   0  0  0  0  0  0  0  0  0  0  0  0
  -21.6850   -6.0730   22.5280 C   0  0  0  0  0  0  0  0  0  0  0  0
  -21.4010   -6.5640   23.8210 C   0  0  0  0  0  3  0  0  0  0  0  0
  -21.3660   -5.6790   24.9180 C   0  0  0  0  0  3  0  0  0  0  0  0
  -21.6040   -4.3060   24.7230 C   0  0  0  0  0  0  0  0  0  0  0  0
  -21.8820   -3.8150   23.4360 C   0  0  0  0  0  3  0  0  0  0  0  0
  -21.9190   -4.6960   22.3410 C   0  0  0  0  0  0  0  0  0  0  0  0
  -22.1660   -4.2150   21.0980 F   0  0  0  0  0  0  0  0  0  0  0  0
  -21.5630   -3.4540   25.7740 F   0  0  0  0  0  0  0  0  0  0  0  0
  -22.7880  -13.5240   21.1830 C   0  0  0  0  0  0  0  0  0  0  0  0
  -22.0510  -12.8230   22.0390 N   0  0  0  0  0  0  0  0  0  0  0  0
  -22.3570  -14.5550   20.6680 O   0  0  0  0  0  0  0  0  0  0  0  0
  -22.4120  -11.9880   22.4750 H   0  0  0  0  0  0  0  0  0  0  0  0
  -21.1140  -13.1280   22.2610 H   0  0  0  0  0  0  0  0  0  0  0  0
  -25.4350  -15.1860   20.4090 N   0  0  0  0  0  0  0  0  0  0  0  0
  -24.6720  -15.8470   20.5210 H   0  0  0  0  0  0  0  0  0  0  0  0
  -26.2990  -15.6250   20.1150 H   0  0  0  0  0  0  0  0  0  0  0  0
  -31.2900  -27.8750   24.9160 C   0  0  0  0  0  2  0  0  0  0  0  0
  -30.0850  -28.5960   24.2980 C   0  0  0  0  0  2  0  0  0  0  0  0
  -29.1530  -27.6690   23.4920 C   0  0  0  0  0  2  0  0  0  0  0  0
  -29.6700  -27.2230   22.1200 C   0  0  0  0  0  0  0  0  0  0  0  0
  -30.7210  -27.6600   21.6390 O   0  0  0  0  0  0  0  0  0  0  0  0
  -28.7820  -26.2370   21.3510 C   0  0  0  0  0  2  0  0  0  0  0  0
  -28.4070  -26.7530   20.0700 O   0  0  0  0  0  0  0  0  0  0  0  0
  -24.6060  -31.8720   23.2110 C   0  0  0  0  0  0  0  0  0  0  0  0
  -27.2490  -27.4900   20.0910 C   0  0  0  0  0  0  0  0  0  0  0  0
  -23.3920  -30.4930   21.5500 C   0  0  0  0  0  3  0  0  0  0  0  0
  -24.8430  -28.9630   20.1150 C   0  0  0  0  0  0  0  0  0  0  0  0
  -25.9150  -30.8570   21.3550 C   0  0  0  0  0  2  0  0  0  0  0  0
  -25.9960  -29.4960   20.7030 C   0  0  0  0  0  0  0  0  0  0  0  0
  -27.2010  -28.7710   20.6800 C   0  0  0  0  0  3  0  0  0  0  0  0
  -26.0850  -26.9590   19.5000 C   0  0  0  0  0  3  0  0  0  0  0  0
  -24.8800  -27.6920   19.5120 C   0  0  0  0  0  3  0  0  0  0  0  0
  -23.5990  -29.8210   20.1660 C   0  0  0  0  0  2  0  0  0  0  0  0
  -24.6560  -31.0870   22.0980 N   0  0  0  0  0  0  0  0  0  0  0  0
  -23.5270  -32.1410   23.7550 O   0  0  0  0  0  0  0  0  0  0  0  0
  -22.7390  -29.4650   22.5010 C   0  0  0  0  0  0  0  0  0  0  0  0
  -21.4120  -29.3010   22.3750 N   0  0  0  0  0  0  0  0  0  0  0  0
  -23.4190  -28.8210   23.3040 O   0  0  0  0  0  0  0  0  0  0  0  0
  -20.9290  -29.8740   21.6970 H   0  0  0  0  0  0  0  0  0  0  0  0
  -18.0260  -28.1380   22.8490 C   0  0  0  0  0  0  0  0  0  0  0  0
  -20.5850  -28.3640   23.1330 C   0  0  0  0  0  3  0  0  0  0  0  0
  -20.6750  -26.9380   22.5420 C   0  0  0  0  0  2  0  0  0  0  0  0
  -19.5740  -26.6380   21.5200 C   0  0  0  0  0  2  0  0  0  0  0  0
  -18.1910  -26.7920   22.1600 C   0  0  0  0  0  2  0  0  0  0  0  0
  -19.1510  -28.8820   23.2910 C   0  0  0  0  0  0  0  0  0  0  0  0
  -18.9440  -30.1430   23.8940 C   0  0  0  0  0  3  0  0  0  0  0  0
  -17.6450  -30.6590   24.0570 C   0  0  0  0  0  3  0  0  0  0  0  0
  -16.5340  -29.9100   23.6310 C   0  0  0  0  0  3  0  0  0  0  0  0
  -16.7250  -28.6510   23.0350 C   0  0  0  0  0  3  0  0  0  0  0  0
  -25.8970  -32.4870   23.8380 C   0  0  0  0  0  3  0  0  0  0  0  0
  -25.5820  -33.8650   24.2300 N   0  0  0  0  0  0  0  0  0  0  0  0
  -25.9000  -34.9510   23.5120 C   0  0  0  0  0  0  0  0  0  0  0  0
  -26.5590  -34.8970   22.4700 O   0  0  0  0  0  0  0  0  0  0  0  0
  -24.9960  -33.9840   25.0440 H   0  0  0  0  0  0  0  0  0  0  0  0
  -24.1480  -36.7340   23.2630 C   0  0  0  0  0  1  0  0  0  0  0  0
  -25.4090  -36.3140   24.0330 C   0  0  0  0  0  3  0  0  0  0  0  0
  -27.5580  -37.1800   24.8450 C   0  0  0  0  0  1  0  0  0  0  0  0
  -26.4300  -37.3800   23.9390 N   0  0  0  0  0  0  0  0  0  0  0  0
  -26.0210  -38.2880   24.1410 H   0  0  0  0  0  0  0  0  0  0  0  0
  -26.4440  -31.6690   25.0710 C   0  0  1  0  0  0  0  0  0  0  0  0
  -25.3770  -31.3780   26.1510 C   0  0  0  0  0  1  0  0  0  0  0  0
  -27.0210  -30.3180   24.6030 C   0  0  0  0  0  1  0  0  0  0  0  0
  -27.6040  -32.4440   25.7420 C   0  0  0  0  0  1  0  0  0  0  0  0
  1  2  1  0
  2  3  1  0
  4  5  1  0
  4  3  1  0
  6  7  1  0
  6  5  1  0
  8  7  1  0
  9  8  1  0
 10  9  1  0
 11 10  1  0
 12 11  1  0
 13 12  1  0
 14 13  1  0
 15 20  1  0
 16 17  1  0
 16 15  1  0
 18 17  1  0
 18 25  1  0
 18 19  1  0
 20 14  1  0
 20 19  1  0
 21 14  2  0
 22 23  2  0
 23 42  1  0
 24 23  1  0
 24 27  1  0
 25 22  1  0
 25 26  1  0
 26 24  2  0
 27 28  1  0
 28 29  2  0
 30 33  1  0
 30 29  1  0
 31 30  2  0
 32 31  1  0
 32 27  2  0
 33 34  1  0
 34 35  1  0
 35 36  2  0
 37 36  1  0
 37 41  1  0
 38 37  2  0
 39 34  2  0
 39 38  1  0
 40 39  1  0
 42 43  1  0
 43 46  1  0
 43 45  1  0
 44 42  2  0
 47 48  1  0
 47 22  1  0
 49 47  1  0
 50  1  1  0
 51 50  1  0
 52 51  1  0
 53 52  1  0
 54 53  2  0
 55 53  1  0
 56 58  1  0
 56 55  1  0
 57 68  2  0
 58 63  1  0
 59 67  1  0
 59 69  1  0
 60 66  1  0
 60 62  1  0
 61 67  1  0
 62 61  1  0
 63 62  2  0
 64 65  1  0
 64 58  2  0
 65 60  2  0
 66 59  1  0
 67 57  1  0
 69 71  2  0
 70 69  1  0
 72 70  1  0
 73 82  2  0
 73 78  1  0
 74 70  1  0
 74 78  1  0
 75 74  1  0
 76 77  1  0
 76 75  1  0
 77 73  1  0
 78 79  2  0
 79 80  1  0
 81 80  2  0
 82 81  1  0
 83 57  1  0
 83 84  1  0
 83 93  1  0
 84 87  1  0
 85 89  1  0
 85 84  1  0
 86 85  2  0
 89 88  1  0
 91 89  1  0
 91 92  1  0
 91 90  1  0
 93 96  1  1
 93 94  1  0
 95 93  1  0
M  ISO  4  13 100  14 100  55 101  56 101
M  END
>  <TORSDO>  (42) 
F 33

>  <SCORE>  (42) 
10.791

>  <name>  (42) 
41

>  <ligand_id>  (42) 
41

>  <original_smiles>  (42) 
[H]c1c([H])c([H])c2c(c1[H])C([H])([H])C([H])([H])C([H])([H])C2([H])N([H])C(=O)C1([H])N(C(=O)C([H])(N([H])C(=O)C([H])(N([H])C([H])([H])[H])C([H])([H])[H])C(C([H])([H])[H])(C([H])([H])[H])C([H])([H])[H])C([H])([H])c2c([H])c(OC([H])([H])C(=O)C([H])([H])C([H])([H])C([H])([H])C([H])([H])C([H])([H])C([H])([H])C([H])([H])C([H])([H])C([H])([H])C([H])([H])C([H])([H])C([H])([H])C([H])([H])C([H])([H])C([H])([H])C([H])([H])C(=O)N3C([H])([H])C([H])([H])C([H])([H])C([H])(n4nc(-c5c([H])c([H])c(Oc6c([H])c([H])c(F)c([H])c6F)c([H])c5[H])c(C(=O)N([H])[H])c4N([H])[H])C3([H])[H])c([H])c([H])c2C1([H])[H]

>  <smiles>  (42) 
[H]c1c([H])c([H])c2c(c1[H])C([H])([H])C([H])([H])C([H])([H])C2([H])N([H])C(=O)C1([H])N(C(=O)C([H])(N([H])C(=O)C([H])(N([H])C([H])([H])[H])C([H])([H])[H])C(C([H])([H])[H])(C([H])([H])[H])C([H])([H])[H])C([H])([H])c2c([H])c(OC([H])([H])C(=O)C([H])([H])C([H])([H])C([H])([H])C([H])([H])C([H])([H])C([H])([H])C([H])([H])C([H])([H])C([H])([H])C([H])([H])C([H])([H])C([H])([H])C([H])([H])C([H])([H])C([H])([H])C([H])([H])C(=O)N3C([H])([H])C([H])([H])C([H])([H])C([H])(n4nc(-c5c([H])c([H])c(Oc6c([H])c([H])c(F)c([H])c6F)c([H])c5[H])c(C(=O)N([H])[H])c4N([H])[H])C3([H])[H])c([H])c([H])c2C1([H])[H]

$$$$
42:0:0
     RDKit          3D

 96101  0  0  1  0  0  0  0  0999 V2000
  -22.9780  -30.4690   25.5670 C   0  0  0  0  0  3  0  0  0  0  0  0
  -23.4340  -29.0890   25.8900 C   0  0  0  0  0  3  0  0  0  0  0  0
  -22.0880  -30.7700   24.4290 C   0  0  0  0  0  3  0  0  0  0  0  0
  -22.8120  -27.9270   25.3060 C   0  0  0  0  0  0  0  0  0  0  0  0
  -21.5980  -29.7320   23.5840 C   0  0  0  0  0  2  0  0  0  0  0  0
  -21.6050  -28.6820   24.8020 C   0  0  0  0  0  3  0  0  0  0  0  0
  -23.2780  -26.2230   25.1560 C   0  0  0  0  0  0  0  0  0  0  0  0
  -22.3540  -25.4550   25.4330 O   0  0  0  0  0  0  0  0  0  0  0  0
  -24.6860  -25.2720   24.6140 C   0  0  0  0  0  2  0  0  0  0  0  0
  -24.9120  -23.5820   23.8950 C   0  0  0  0  0  3  0  0  0  0  0  0
  -26.2680  -22.3380   23.7150 C   0  0  0  0  0  3  0  0  0  0  0  0
  -26.5970  -20.8180   22.7160 C   0  0  0  0  0  3  0  0  0  0  0  0
  -27.7860  -19.4030   22.7440 C   0  0  0  0  0  3  0  0  0  0  0  0
  -28.3320  -18.0470   21.6100 C   0  0  0  0  0  3  0  0  0  0  0  0
  -29.2370  -16.4510   21.7960 C   0  0  0  0  0  3  0  0  0  0  0  0
  -30.1230  -15.2050   20.8390 C   0  0  0  0  0  0  0  0  0  0  0  0
  -30.4160  -12.8510   19.6460 C   0  0  0  0  0  2  0  0  0  0  0  0
  -29.5500  -12.6590   18.3630 C   0  0  0  0  0  2  0  0  0  0  0  0
  -28.0860  -12.3380   18.7170 C   0  0  0  0  0  2  0  0  0  0  0  0
  -27.5960  -13.2410   19.8730 C   0  0  0  0  0  3  0  0  0  0  0  0
  -28.5530  -13.2270   21.0720 C   0  0  0  0  0  2  0  0  0  0  0  0
  -29.7730  -13.8490   20.6000 N   0  0  0  0  0  0  0  0  0  0  0  0
  -31.2610  -15.4270   20.3630 O   0  0  0  0  0  0  0  0  0  0  0  0
  -25.2240  -13.8170   20.5660 C   0  0  0  0  0  0  0  0  0  0  0  0
  -24.1590  -13.0400   20.9190 C   0  0  0  0  0  0  0  0  0  0  0  0
  -24.6210  -11.6880   20.8700 C   0  0  0  0  0  0  0  0  0  0  0  0
  -26.2540  -12.9340   20.3100 N   0  0  0  0  0  0  0  0  0  0  0  0
  -25.9090  -11.6480   20.5600 N   0  0  0  0  0  0  0  0  0  0  0  0
  -23.8960  -10.4260   21.0400 C   0  0  0  0  0  0  0  0  0  0  0  0
  -24.3560   -9.4200   21.9180 C   0  0  0  0  0  3  0  0  0  0  0  0
  -23.6260   -8.2220   22.0750 C   0  0  0  0  0  3  0  0  0  0  0  0
  -22.4250   -8.0250   21.3540 C   0  0  0  0  0  0  0  0  0  0  0  0
  -21.9850   -9.0200   20.4640 C   0  0  0  0  0  3  0  0  0  0  0  0
  -22.7150  -10.2090   20.3050 C   0  0  0  0  0  3  0  0  0  0  0  0
  -21.6630   -6.8840   21.4240 O   0  0  0  0  0  0  0  0  0  0  0  0
  -21.6840   -6.0710   22.5280 C   0  0  0  0  0  0  0  0  0  0  0  0
  -21.4010   -6.5630   23.8210 C   0  0  0  0  0  3  0  0  0  0  0  0
  -21.3660   -5.6780   24.9180 C   0  0  0  0  0  3  0  0  0  0  0  0
  -21.6050   -4.3050   24.7230 C   0  0  0  0  0  0  0  0  0  0  0  0
  -21.8820   -3.8130   23.4360 C   0  0  0  0  0  3  0  0  0  0  0  0
  -21.9190   -4.6940   22.3410 C   0  0  0  0  0  0  0  0  0  0  0  0
  -22.1660   -4.2130   21.0990 F   0  0  0  0  0  0  0  0  0  0  0  0
  -21.5630   -3.4530   25.7750 F   0  0  0  0  0  0  0  0  0  0  0  0
  -22.7650  -13.5190   21.1900 C   0  0  0  0  0  0  0  0  0  0  0  0
  -22.0340  -12.8180   22.0480 N   0  0  0  0  0  0  0  0  0  0  0  0
  -22.3350  -14.5510   20.6770 O   0  0  0  0  0  0  0  0  0  0  0  0
  -22.3970  -11.9840   22.4840 H   0  0  0  0  0  0  0  0  0  0  0  0
  -21.0970  -13.1210   22.2730 H   0  0  0  0  0  0  0  0  0  0  0  0
  -25.4000  -15.1910   20.4210 N   0  0  0  0  0  0  0  0  0  0  0  0
  -24.6410  -15.8500   20.5510 H   0  0  0  0  0  0  0  0  0  0  0  0
  -26.2570  -15.6300   20.1090 H   0  0  0  0  0  0  0  0  0  0  0  0
  -20.6530  -28.7950   25.7960 O   0  0  0  0  0  0  0  0  0  0  0  0
  -20.9130  -28.3530   26.5950 H   0  0  0  0  0  0  0  0  0  0  0  0
  -21.5660  -29.4410   21.5280 C   0  0  0  0  0 15  0  0  0  0  0  0
  -22.8630  -28.1090   20.3700 C   0  0  0  0  0 15  0  0  0  0  0  0
  -24.5660  -27.2940   20.6780 O   0  0  0  0  0  1  0  0  0  0  0  0
  -24.8940  -31.9660   23.2440 C   0  0  0  0  0  0  0  0  0  0  0  0
  -25.9930  -27.3450   20.3040 C   0  0  0  0  0  3  0  0  0  0  0  0
  -23.9060  -30.1870   21.8780 C   0  0  0  0  0  3  0  0  0  0  0  0
  -25.1420  -29.6180   19.7040 C   0  0  0  0  0  3  0  0  0  0  0  0
  -26.2760  -30.7760   21.5920 C   0  0  0  0  0  2  0  0  0  0  0  0
  -26.1820  -29.6230   20.6290 C   0  0  0  0  0  3  0  0  0  0  0  0
  -26.7910  -28.3930   20.8500 C   0  0  0  0  0  2  0  0  0  0  0  0
  -25.8890  -27.4140   18.9500 C   0  0  0  0  0  2  0  0  0  0  0  0
  -25.1060  -28.5660   18.7190 C   0  0  0  0  0  2  0  0  0  0  0  0
  -23.9870  -30.4200   20.2520 C   0  0  0  0  0  2  0  0  0  0  0  0
  -25.0340  -30.9510   22.3600 N   0  0  0  0  0  0  0  0  0  0  0  0
  -23.8210  -32.4890   23.5410 O   0  0  0  0  0  0  0  0  0  0  0  0
  -23.7080  -28.6460   22.6990 C   0  0  0  0  0  0  0  0  0  0  0  0
  -22.5210  -27.6190   22.7390 N   0  0  0  0  0  0  0  0  0  0  0  0
  -24.6330  -28.3610   23.3810 O   0  0  0  0  0  0  0  0  0  0  0  0
  -22.9250  -26.7330   22.9940 H   0  0  0  0  0  0  0  0  0  0  0  0
  -18.0340  -27.9050   22.7120 C   0  0  0  0  0  0  0  0  0  0  0  0
  -20.7570  -27.4330   22.8430 C   0  0  0  0  0  3  0  0  0  0  0  0
  -20.4840  -26.2250   22.0650 C   0  0  0  0  0  2  0  0  0  0  0  0
  -19.3170  -26.4300   21.1590 C   0  0  0  0  0  2  0  0  0  0  0  0
  -18.0460  -26.6000   21.9830 C   0  0  0  0  0  2  0  0  0  0  0  0
  -19.2870  -28.4480   23.1140 C   0  0  0  0  0  0  0  0  0  0  0  0
  -18.9710  -29.7630   23.7540 C   0  0  0  0  0  3  0  0  0  0  0  0
  -17.7220  -30.3980   23.9370 C   0  0  0  0  0  3  0  0  0  0  0  0
  -16.5730  -29.7450   23.5230 C   0  0  0  0  0  3  0  0  0  0  0  0
  -16.7500  -28.4950   22.9190 C   0  0  0  0  0  3  0  0  0  0  0  0
  -26.1370  -32.5610   23.8980 C   0  0  0  0  0  3  0  0  0  0  0  0
  -26.6550  -31.7470   25.1380 C   0  0  1  0  0  0  0  0  0  0  0  0
  -25.6780  -31.6150   26.3070 C   0  0  0  0  0  1  0  0  0  0  0  0
  -27.1660  -30.3370   24.7580 C   0  0  0  0  0  1  0  0  0  0  0  0
  -27.8570  -32.5020   25.7200 C   0  0  0  0  0  1  0  0  0  0  0  0
  -25.7850  -33.9280   24.2920 N   0  0  0  0  0  0  0  0  0  0  0  0
  -25.9540  -34.9900   23.5070 C   0  0  0  0  0  0  0  0  0  0  0  0
  -26.5420  -34.9290   22.4250 O   0  0  0  0  0  0  0  0  0  0  0  0
  -25.2560  -34.0370   25.1450 H   0  0  0  0  0  0  0  0  0  0  0  0
  -24.1590  -36.7360   23.2510 C   0  0  0  0  0  1  0  0  0  0  0  0
  -25.4230  -36.3350   24.0270 C   0  0  0  0  0  3  0  0  0  0  0  0
  -27.5640  -37.2040   24.8480 C   0  0  0  0  0  1  0  0  0  0  0  0
  -26.4300  -37.4130   23.9500 N   0  0  0  0  0  0  0  0  0  0  0  0
  -26.0120  -38.3130   24.1690 H   0  0  0  0  0  0  0  0  0  0  0  0
  1  2  1  0
  3  1  2  0
  4  2  2  0
  5  3  1  0
  5  6  1  0
  6  4  1  0
  6 52  1  0
  7  4  1  0
  7  8  2  0
  9  7  1  0
 10  9  1  0
 11 10  2  0
 12 13  2  0
 12 11  1  0
 14 15  2  0
 14 13  1  0
 16 15  1  0
 17 22  1  0
 18 19  1  0
 18 17  1  0
 20 19  1  0
 20 27  1  0
 20 21  1  0
 22 16  1  0
 22 21  1  0
 23 16  2  0
 24 25  2  0
 25 44  1  0
 26 25  1  0
 26 29  1  0
 27 28  1  0
 27 24  1  0
 28 26  2  0
 29 30  1  0
 30 31  2  0
 32 35  1  0
 32 31  1  0
 33 32  2  0
 34 33  1  0
 34 29  2  0
 35 36  1  0
 36 37  1  0
 37 38  2  0
 39 38  1  0
 39 43  1  0
 40 39  2  0
 41 36  2  0
 41 40  1  0
 42 41  1  0
 44 45  1  0
 45 48  1  0
 45 47  1  0
 46 44  2  0
 49 50  1  0
 49 24  1  0
 51 49  1  0
 52 53  1  0
 57 68  2  0
 58 56  1  0
 58 63  1  0
 59 67  1  0
 59 69  1  0
 60 65  1  0
 60 66  1  0
 60 62  1  0
 61 67  1  0
 62 63  1  0
 62 61  1  0
 64 58  1  0
 65 64  1  0
 66 59  1  0
 67 57  1  0
 69 70  1  0
 69 71  2  0
 70 72  1  0
 73 82  2  0
 73 78  1  0
 74 70  1  0
 74 78  1  0
 75 74  1  0
 76 77  1  0
 76 75  1  0
 77 73  1  0
 78 79  2  0
 79 80  1  0
 81 80  2  0
 82 81  1  0
 83 57  1  0
 83 88  1  0
 83 84  1  0
 84 87  1  1
 84 85  1  0
 86 84  1  0
 88 91  1  0
 89 93  1  0
 89 88  1  0
 90 89  2  0
 93 92  1  0
 95 93  1  0
 95 96  1  0
 95 94  1  0
M  ISO  4  15 100  16 100  55 101  56 101
M  END
>  <TORSDO>  (43) 
F 27

>  <SCORE>  (43) 
27.931

>  <name>  (43) 
42

>  <ligand_id>  (43) 
42

>  <original_smiles>  (43) 
[H]Oc1c(C(=O)C([H])([H])C([H])([H])C([H])([H])C([H])([H])C([H])([H])C([H])([H])C([H])([H])C(=O)N2C([H])([H])C([H])([H])C([H])([H])C([H])(n3nc(-c4c([H])c([H])c(Oc5c([H])c([H])c(F)c([H])c5F)c([H])c4[H])c(C(=O)N([H])[H])c3N([H])[H])C2([H])[H])c([H])c([H])c([H])c1C([H])([H])C([H])([H])Oc1c([H])c([H])c2c(c1[H])C([H])([H])N(C(=O)C([H])(N([H])C(=O)C([H])(N([H])C([H])([H])[H])C([H])([H])[H])C(C([H])([H])[H])(C([H])([H])[H])C([H])([H])[H])C([H])(C(=O)N([H])C1([H])c3c([H])c([H])c([H])c([H])c3C([H])([H])C([H])([H])C1([H])[H])C2([H])[H]

>  <smiles>  (43) 
[H]Oc1c(C(=O)C([H])([H])C([H])([H])C([H])([H])C([H])([H])C([H])([H])C([H])([H])C([H])([H])C(=O)N2C([H])([H])C([H])([H])C([H])([H])C([H])(n3nc(-c4c([H])c([H])c(Oc5c([H])c([H])c(F)c([H])c5F)c([H])c4[H])c(C(=O)N([H])[H])c3N([H])[H])C2([H])[H])c([H])c([H])c([H])c1C([H])([H])C([H])([H])Oc1c([H])c([H])c2c(c1[H])C([H])([H])N(C(=O)C([H])(N([H])C(=O)C([H])(N([H])C([H])([H])[H])C([H])([H])[H])C(C([H])([H])[H])(C([H])([H])[H])C([H])([H])[H])C([H])(C(=O)N([H])C1([H])c3c([H])c([H])c([H])c([H])c3C([H])([H])C([H])([H])C1([H])[H])C2([H])[H]

$$$$
43:0:0
     RDKit          3D

 94102  0  0  1  0  0  0  0  0999 V2000
  -29.4280  -23.1280   26.3100 C   0  0  0  0  0  3  0  0  0  0  0  0
  -30.4030  -22.3910   25.6170 C   0  0  0  0  0  3  0  0  0  0  0  0
  -28.8160  -24.2350   25.6970 C   0  0  0  0  0  3  0  0  0  0  0  0
  -30.1360  -23.8560   23.6850 C   0  0  0  0  0  3  0  0  0  0  0  0
  -30.7710  -22.7460   24.2970 C   0  0  0  0  0  0  0  0  0  0  0  0
  -29.1670  -24.6130   24.3850 C   0  0  0  0  0  0  0  0  0  0  0  0
  -31.8110  -21.9830   23.5390 C   0  0  0  0  0  0  0  0  0  0  0  0
  -32.0930  -22.2180   22.3600 O   0  0  0  0  0  0  0  0  0  0  0  0
  -32.5720  -20.8700   24.2700 C   0  0  0  0  0  2  0  0  0  0  0  0
  -31.7980  -19.5380   24.3510 C   0  0  0  0  0  2  0  0  0  0  0  0
  -31.8290  -18.7390   23.0420 C   0  0  0  0  0  2  0  0  0  0  0  0
  -31.0140  -17.4390   23.1180 C   0  0  0  0  0  2  0  0  0  0  0  0
  -31.2270  -16.5830   21.8650 C   0  0  0  0  0  2  0  0  0  0  0  0
  -30.3560  -15.3090   21.8110 C   0  0  0  0  0  2  0  0  0  0  0  0
  -30.7750  -14.3480   20.6840 C   0  0  0  0  0  0  0  0  0  0  0  0
  -30.4120  -12.2810   19.3850 C   0  0  0  0  0  2  0  0  0  0  0  0
  -29.4810  -12.5310   18.1860 C   0  0  0  0  0  2  0  0  0  0  0  0
  -28.0050  -12.3920   18.6060 C   0  0  0  0  0  2  0  0  0  0  0  0
  -27.6710  -13.2040   19.8870 C   0  0  0  0  0  3  0  0  0  0  0  0
  -28.7140  -12.9410   20.9970 C   0  0  0  0  0  2  0  0  0  0  0  0
  -30.0490  -13.2260   20.4490 N   0  0  0  0  0  0  0  0  0  0  0  0
  -31.7890  -14.6180   20.0300 O   0  0  0  0  0  0  0  0  0  0  0  0
  -25.2620  -13.8160   20.5700 C   0  0  0  0  0  0  0  0  0  0  0  0
  -24.1860  -13.0440   20.9160 C   0  0  0  0  0  0  0  0  0  0  0  0
  -24.6400  -11.6910   20.8720 C   0  0  0  0  0  0  0  0  0  0  0  0
  -26.3080  -12.9330   20.3440 N   0  0  0  0  0  0  0  0  0  0  0  0
  -25.9340  -11.6490   20.5780 N   0  0  0  0  0  0  0  0  0  0  0  0
  -23.9060  -10.4290   21.0400 C   0  0  0  0  0  0  0  0  0  0  0  0
  -24.3610   -9.4210   21.9180 C   0  0  0  0  0  3  0  0  0  0  0  0
  -23.6290   -8.2250   22.0750 C   0  0  0  0  0  3  0  0  0  0  0  0
  -22.4270   -8.0280   21.3540 C   0  0  0  0  0  0  0  0  0  0  0  0
  -21.9910   -9.0260   20.4650 C   0  0  0  0  0  3  0  0  0  0  0  0
  -22.7240  -10.2130   20.3050 C   0  0  0  0  0  3  0  0  0  0  0  0
  -21.6640   -6.8880   21.4240 O   0  0  0  0  0  0  0  0  0  0  0  0
  -21.6850   -6.0740   22.5280 C   0  0  0  0  0  0  0  0  0  0  0  0
  -21.4010   -6.5640   23.8210 C   0  0  0  0  0  3  0  0  0  0  0  0
  -21.3660   -5.6790   24.9180 C   0  0  0  0  0  3  0  0  0  0  0  0
  -21.6040   -4.3050   24.7230 C   0  0  0  0  0  0  0  0  0  0  0  0
  -21.8820   -3.8150   23.4350 C   0  0  0  0  0  3  0  0  0  0  0  0
  -21.9190   -4.6960   22.3400 C   0  0  0  0  0  0  0  0  0  0  0  0
  -22.1660   -4.2150   21.0980 F   0  0  0  0  0  0  0  0  0  0  0  0
  -21.5630   -3.4540   25.7740 F   0  0  0  0  0  0  0  0  0  0  0  0
  -22.7880  -13.5240   21.1820 C   0  0  0  0  0  0  0  0  0  0  0  0
  -22.0510  -12.8240   22.0380 N   0  0  0  0  0  0  0  0  0  0  0  0
  -22.3570  -14.5550   20.6670 O   0  0  0  0  0  0  0  0  0  0  0  0
  -22.4110  -11.9910   22.4780 H   0  0  0  0  0  0  0  0  0  0  0  0
  -21.1120  -13.1280   22.2560 H   0  0  0  0  0  0  0  0  0  0  0  0
  -25.4340  -15.1880   20.4100 N   0  0  0  0  0  0  0  0  0  0  0  0
  -24.6720  -15.8470   20.5210 H   0  0  0  0  0  0  0  0  0  0  0  0
  -26.2980  -15.6270   20.1160 H   0  0  0  0  0  0  0  0  0  0  0  0
  -28.4860  -25.8450   23.8010 C   0  0  0  0  0  2  0  0  0  0  0  0
  -29.0360  -26.4220   22.4800 C   0  0  0  0  0  2  0  0  0  0  0  0
  -28.4480  -25.7870   21.1990 C   0  0  0  0  0  2  0  0  0  0  0  0
  -28.3980  -26.7300   20.1220 O   0  0  0  0  0  0  0  0  0  0  0  0
  -24.6090  -31.8690   23.2110 C   0  0  0  0  0  0  0  0  0  0  0  0
  -27.2440  -27.4740   20.1050 C   0  0  0  0  0  0  0  0  0  0  0  0
  -23.3960  -30.4900   21.5490 C   0  0  0  0  0  3  0  0  0  0  0  0
  -24.8470  -28.9610   20.1130 C   0  0  0  0  0  0  0  0  0  0  0  0
  -25.9180  -30.8520   21.3540 C   0  0  0  0  0  2  0  0  0  0  0  0
  -26.0020  -29.4890   20.7020 C   0  0  0  0  0  0  0  0  0  0  0  0
  -27.2060  -28.7570   20.6890 C   0  0  0  0  0  3  0  0  0  0  0  0
  -26.0790  -26.9500   19.5060 C   0  0  0  0  0  3  0  0  0  0  0  0
  -24.8800  -27.6900   19.5090 C   0  0  0  0  0  3  0  0  0  0  0  0
  -23.6030  -29.8190   20.1650 C   0  0  0  0  0  2  0  0  0  0  0  0
  -24.6590  -31.0830   22.0980 N   0  0  0  0  0  0  0  0  0  0  0  0
  -23.5300  -32.1420   23.7540 O   0  0  0  0  0  0  0  0  0  0  0  0
  -22.7390  -29.4650   22.5000 C   0  0  0  0  0  0  0  0  0  0  0  0
  -21.4120  -29.3010   22.3750 N   0  0  0  0  0  0  0  0  0  0  0  0
  -23.4180  -28.8200   23.3030 O   0  0  0  0  0  0  0  0  0  0  0  0
  -20.9270  -29.8740   21.6990 H   0  0  0  0  0  0  0  0  0  0  0  0
  -18.0270  -28.1370   22.8490 C   0  0  0  0  0  0  0  0  0  0  0  0
  -20.5850  -28.3630   23.1340 C   0  0  0  0  0  3  0  0  0  0  0  0
  -20.6750  -26.9380   22.5430 C   0  0  0  0  0  2  0  0  0  0  0  0
  -19.5730  -26.6380   21.5210 C   0  0  0  0  0  2  0  0  0  0  0  0
  -18.1910  -26.7910   22.1620 C   0  0  0  0  0  2  0  0  0  0  0  0
  -19.1520  -28.8820   23.2910 C   0  0  0  0  0  0  0  0  0  0  0  0
  -18.9450  -30.1430   23.8910 C   0  0  0  0  0  3  0  0  0  0  0  0
  -17.6460  -30.6570   24.0570 C   0  0  0  0  0  3  0  0  0  0  0  0
  -16.5350  -29.9080   23.6330 C   0  0  0  0  0  3  0  0  0  0  0  0
  -16.7260  -28.6500   23.0340 C   0  0  0  0  0  3  0  0  0  0  0  0
  -25.9000  -32.4830   23.8390 C   0  0  0  0  0  3  0  0  0  0  0  0
  -26.4450  -31.6590   25.0700 C   0  0  1  0  0  0  0  0  0  0  0  0
  -25.3740  -31.3700   26.1470 C   0  0  0  0  0  1  0  0  0  0  0  0
  -27.0280  -30.3040   24.6030 C   0  0  0  0  0  1  0  0  0  0  0  0
  -27.6030  -32.4320   25.7470 C   0  0  0  0  0  1  0  0  0  0  0  0
  -25.5860  -33.8620   24.2330 N   0  0  0  0  0  0  0  0  0  0  0  0
  -25.9020  -34.9480   23.5140 C   0  0  0  0  0  0  0  0  0  0  0  0
  -26.5590  -34.8930   22.4700 O   0  0  0  0  0  0  0  0  0  0  0  0
  -25.0000  -33.9790   25.0460 H   0  0  0  0  0  0  0  0  0  0  0  0
  -24.1490  -36.7320   23.2640 C   0  0  0  0  0  1  0  0  0  0  0  0
  -25.4100  -36.3110   24.0340 C   0  0  0  0  0  3  0  0  0  0  0  0
  -27.5580  -37.1820   24.8460 C   0  0  0  0  0  1  0  0  0  0  0  0
  -26.4300  -37.3790   23.9400 N   0  0  0  0  0  0  0  0  0  0  0  0
  -26.0200  -38.2870   24.1400 H   0  0  0  0  0  0  0  0  0  0  0  0
  2  1  2  0
  3  1  1  0
  4  5  2  0
  4  6  1  0
  5  2  1  0
  6  3  2  0
  7  9  1  0
  7  5  1  0
  8  7  2  0
  9 10  1  0
 11 12  1  0
 11 10  1  0
 13 12  1  0
 14 13  1  0
 15 14  1  0
 16 21  1  0
 17 18  1  0
 17 16  1  0
 19 18  1  0
 19 26  1  0
 19 20  1  0
 21 15  1  0
 21 20  1  0
 22 15  2  0
 23 24  2  0
 24 43  1  0
 25 24  1  0
 25 28  1  0
 26 23  1  0
 26 27  1  0
 27 25  2  0
 28 29  1  0
 29 30  2  0
 31 34  1  0
 31 30  1  0
 32 31  2  0
 33 32  1  0
 33 28  2  0
 34 35  1  0
 35 36  1  0
 36 37  2  0
 38 37  1  0
 38 42  1  0
 39 38  2  0
 40 35  2  0
 40 39  1  0
 41 40  1  0
 43 44  1  0
 44 47  1  0
 44 46  1  0
 45 43  2  0
 48 49  1  0
 48 23  1  0
 50 48  1  0
 51  6  1  0
 52 51  1  0
 53 52  1  0
 54 53  1  0
 55 66  2  0
 56 54  1  0
 56 61  1  0
 57 65  1  0
 57 67  1  0
 58 64  1  0
 58 60  1  0
 59 65  1  0
 60 59  1  0
 61 60  2  0
 62 63  1  0
 62 56  2  0
 63 58  2  0
 64 57  1  0
 65 55  1  0
 67 69  2  0
 68 67  1  0
 70 68  1  0
 71 80  2  0
 71 76  1  0
 72 68  1  0
 72 76  1  0
 73 72  1  0
 74 75  1  0
 74 73  1  0
 75 71  1  0
 76 77  2  0
 77 78  1  0
 79 78  2  0
 80 79  1  0
 81 55  1  0
 81 86  1  0
 81 82  1  0
 82 85  1  1
 82 83  1  0
 84 82  1  0
 86 89  1  0
 87 91  1  0
 87 86  1  0
 88 87  2  0
 91 90  1  0
 93 91  1  0
 93 94  1  0
 93 92  1  0
M  ISO  4  14 100  15 100  53 101  54 101
M  END
>  <TORSDO>  (44) 
F 26

>  <SCORE>  (44) 
-2.001

>  <name>  (44) 
43

>  <ligand_id>  (44) 
43

>  <original_smiles>  (44) 
[H]c1c([H])c(C(=O)C([H])([H])C([H])([H])C([H])([H])C([H])([H])C([H])([H])C([H])([H])C(=O)N2C([H])([H])C([H])([H])C([H])([H])C([H])(n3nc(-c4c([H])c([H])c(Oc5c([H])c([H])c(F)c([H])c5F)c([H])c4[H])c(C(=O)N([H])[H])c3N([H])[H])C2([H])[H])c([H])c(C([H])([H])C([H])([H])C([H])([H])Oc2c([H])c([H])c3c(c2[H])C([H])([H])N(C(=O)C([H])(N([H])C(=O)C([H])(N([H])C([H])([H])[H])C([H])([H])[H])C(C([H])([H])[H])(C([H])([H])[H])C([H])([H])[H])C([H])(C(=O)N([H])C2([H])c4c([H])c([H])c([H])c([H])c4C([H])([H])C([H])([H])C2([H])[H])C3([H])[H])c1[H]

>  <smiles>  (44) 
[H]c1c([H])c(C(=O)C([H])([H])C([H])([H])C([H])([H])C([H])([H])C([H])([H])C([H])([H])C(=O)N2C([H])([H])C([H])([H])C([H])([H])C([H])(n3nc(-c4c([H])c([H])c(Oc5c([H])c([H])c(F)c([H])c5F)c([H])c4[H])c(C(=O)N([H])[H])c3N([H])[H])C2([H])[H])c([H])c(C([H])([H])C([H])([H])C([H])([H])Oc2c([H])c([H])c3c(c2[H])C([H])([H])N(C(=O)C([H])(N([H])C(=O)C([H])(N([H])C([H])([H])[H])C([H])([H])[H])C(C([H])([H])[H])(C([H])([H])[H])C([H])([H])[H])C([H])(C(=O)N([H])C2([H])c4c([H])c([H])c([H])c([H])c4C([H])([H])C([H])([H])C2([H])[H])C3([H])[H])c1[H]

$$$$
44:0:0
     RDKit          3D

 96105  0  0  1  0  0  0  0  0999 V2000
  -30.3030  -22.6740   16.8120 C   0  0  0  0  0  3  0  0  0  0  0  0
  -30.9790  -22.0380   19.0620 C   0  0  0  0  0  3  0  0  0  0  0  0
  -30.1350  -24.0030   17.2340 C   0  0  0  0  0  3  0  0  0  0  0  0
  -30.8040  -23.3730   19.4890 C   0  0  0  0  0  3  0  0  0  0  0  0
  -30.7450  -21.6830   17.7130 C   0  0  0  0  0  0  0  0  0  0  0  0
  -30.3990  -24.3660   18.5680 C   0  0  0  0  0  0  0  0  0  0  0  0
  -31.0320  -20.2900   17.1570 C   0  0  0  0  0  2  0  0  0  0  0  0
  -30.9320  -19.0670   18.0970 C   0  0  0  0  0  2  0  0  0  0  0  0
  -27.1280  -19.0220   18.7390 C   0  0  0  0  0  3  0  0  0  0  0  0
  -26.9890  -17.8910   19.5590 C   0  0  0  0  0  3  0  0  0  0  0  0
  -28.4000  -19.3910   18.2710 C   0  0  0  0  0  3  0  0  0  0  0  0
  -28.1210  -17.1290   19.9040 C   0  0  0  0  0  3  0  0  0  0  0  0
  -29.5520  -18.6470   18.6230 C   0  0  0  0  0  0  0  0  0  0  0  0
  -29.4100  -17.4890   19.4480 C   0  0  0  0  0  0  0  0  0  0  0  0
  -30.6460  -16.6730   19.8710 C   0  0  0  0  0  2  0  0  0  0  0  0
  -31.0090  -14.2520   19.9180 C   0  0  0  0  0  0  0  0  0  0  0  0
  -30.5410  -12.0990   18.8090 C   0  0  0  0  0  2  0  0  0  0  0  0
  -29.5130  -12.3090   17.6790 C   0  0  0  0  0  2  0  0  0  0  0  0
  -28.0740  -12.2090   18.2220 C   0  0  0  0  0  2  0  0  0  0  0  0
  -27.8540  -13.0630   19.4980 C   0  0  0  0  0  3  0  0  0  0  0  0
  -28.9890  -12.8250   20.5160 C   0  0  0  0  0  2  0  0  0  0  0  0
  -30.2700  -13.1080   19.8470 N   0  0  0  0  0  0  0  0  0  0  0  0
  -32.0690  -14.3700   19.2920 O   0  0  0  0  0  0  0  0  0  0  0  0
  -30.3480  -15.3870   21.9690 C   0  0  0  0  0  1  0  0  0  0  0  0
  -30.4340  -15.3400   20.4970 N   0  0  0  0  0  0  0  0  0  0  0  0
  -25.5420  -13.7160   20.4170 C   0  0  0  0  0  0  0  0  0  0  0  0
  -24.4930  -12.9670   20.8740 C   0  0  0  0  0  0  0  0  0  0  0  0
  -24.9140  -11.6060   20.7880 C   0  0  0  0  0  0  0  0  0  0  0  0
  -26.5420  -12.8150   20.0890 N   0  0  0  0  0  0  0  0  0  0  0  0
  -26.1710  -11.5380   20.3660 N   0  0  0  0  0  0  0  0  0  0  0  0
  -24.1720  -10.3620   21.0250 C   0  0  0  0  0  0  0  0  0  0  0  0
  -24.6090   -9.4110   21.9730 C   0  0  0  0  0  3  0  0  0  0  0  0
  -23.8670   -8.2320   22.2000 C   0  0  0  0  0  3  0  0  0  0  0  0
  -22.6740   -7.9950   21.4760 C   0  0  0  0  0  0  0  0  0  0  0  0
  -22.2560   -8.9330   20.5170 C   0  0  0  0  0  3  0  0  0  0  0  0
  -22.9980  -10.1030   20.2890 C   0  0  0  0  0  3  0  0  0  0  0  0
  -21.9010   -6.8680   21.6110 O   0  0  0  0  0  0  0  0  0  0  0  0
  -21.8070   -6.1980   22.8040 C   0  0  0  0  0  0  0  0  0  0  0  0
  -21.3280   -6.8240   23.9740 C   0  0  0  0  0  3  0  0  0  0  0  0
  -21.1820   -6.0800   25.1620 C   0  0  0  0  0  3  0  0  0  0  0  0
  -21.5050   -4.7110   25.1800 C   0  0  0  0  0  0  0  0  0  0  0  0
  -21.9780   -4.0830   24.0140 C   0  0  0  0  0  3  0  0  0  0  0  0
  -22.1260   -4.8250   22.8290 C   0  0  0  0  0  0  0  0  0  0  0  0
  -22.5620   -4.2100   21.7040 F   0  0  0  0  0  0  0  0  0  0  0  0
  -21.3570   -3.9950   26.3200 F   0  0  0  0  0  0  0  0  0  0  0  0
  -23.1400  -13.4800   21.2720 C   0  0  0  0  0  0  0  0  0  0  0  0
  -22.4790  -12.8070   22.2060 N   0  0  0  0  0  0  0  0  0  0  0  0
  -22.6820  -14.5150   20.7880 O   0  0  0  0  0  0  0  0  0  0  0  0
  -22.8660  -11.9690   22.6160 H   0  0  0  0  0  0  0  0  0  0  0  0
  -21.5740  -13.1330   22.5150 H   0  0  0  0  0  0  0  0  0  0  0  0
  -25.7180  -15.0800   20.2310 N   0  0  0  0  0  0  0  0  0  0  0  0
  -24.9670  -15.7420   20.3940 H   0  0  0  0  0  0  0  0  0  0  0  0
  -26.5310  -15.5030   19.8030 H   0  0  0  0  0  0  0  0  0  0  0  0
  -30.3210  -25.8340   18.9620 C   0  0  0  0  0  2  0  0  0  0  0  0
  -28.9110  -26.4460   18.8720 C   0  0  0  0  0  2  0  0  0  0  0  0
  -28.3440  -26.5930   20.1690 O   0  0  0  0  0  0  0  0  0  0  0  0
  -24.5580  -31.7960   23.2050 C   0  0  0  0  0  0  0  0  0  0  0  0
  -27.1760  -27.3120   20.1840 C   0  0  0  0  0  0  0  0  0  0  0  0
  -23.3410  -30.3770   21.5820 C   0  0  0  0  0  3  0  0  0  0  0  0
  -24.7850  -28.8060   20.1830 C   0  0  0  0  0  0  0  0  0  0  0  0
  -25.8670  -30.7190   21.3800 C   0  0  0  0  0  2  0  0  0  0  0  0
  -25.9410  -29.3350   20.7730 C   0  0  0  0  0  0  0  0  0  0  0  0
  -27.1370  -28.5860   20.7870 C   0  0  0  0  0  3  0  0  0  0  0  0
  -26.0050  -26.7820   19.6040 C   0  0  0  0  0  3  0  0  0  0  0  0
  -24.8080  -27.5250   19.6040 C   0  0  0  0  0  3  0  0  0  0  0  0
  -23.5470  -29.6730   20.2120 C   0  0  0  0  0  2  0  0  0  0  0  0
  -24.6060  -30.9800   22.1140 N   0  0  0  0  0  0  0  0  0  0  0  0
  -23.4800  -32.0840   23.7410 O   0  0  0  0  0  0  0  0  0  0  0  0
  -22.6850  -29.3740   22.5570 C   0  0  0  0  0  0  0  0  0  0  0  0
  -21.3570  -29.2120   22.4410 N   0  0  0  0  0  0  0  0  0  0  0  0
  -23.3650  -28.7470   23.3730 O   0  0  0  0  0  0  0  0  0  0  0  0
  -20.8730  -29.7720   21.7530 H   0  0  0  0  0  0  0  0  0  0  0  0
  -17.9660  -28.0840   22.9730 C   0  0  0  0  0  0  0  0  0  0  0  0
  -20.5300  -28.2940   23.2230 C   0  0  0  0  0  3  0  0  0  0  0  0
  -20.6010  -26.8580   22.6540 C   0  0  0  0  0  2  0  0  0  0  0  0
  -19.4840  -26.5510   21.6510 C   0  0  0  0  0  2  0  0  0  0  0  0
  -18.1110  -26.7260   22.3050 C   0  0  0  0  0  2  0  0  0  0  0  0
  -19.1030  -28.8260   23.3880 C   0  0  0  0  0  0  0  0  0  0  0  0
  -18.9140  -30.0990   23.9710 C   0  0  0  0  0  3  0  0  0  0  0  0
  -17.6200  -30.6270   24.1430 C   0  0  0  0  0  3  0  0  0  0  0  0
  -16.4990  -29.8810   23.7450 C   0  0  0  0  0  3  0  0  0  0  0  0
  -16.6720  -28.6110   23.1660 C   0  0  0  0  0  3  0  0  0  0  0  0
  -25.8500  -32.4250   23.8150 C   0  0  0  0  0  3  0  0  0  0  0  0
  -25.5440  -33.8190   24.1580 N   0  0  0  0  0  0  0  0  0  0  0  0
  -25.8690  -34.8760   23.4000 C   0  0  0  0  0  0  0  0  0  0  0  0
  -26.5280  -34.7780   22.3620 O   0  0  0  0  0  0  0  0  0  0  0  0
  -24.9580  -33.9690   24.9650 H   0  0  0  0  0  0  0  0  0  0  0  0
  -24.1370  -36.6690   23.0660 C   0  0  0  0  0  1  0  0  0  0  0  0
  -25.3830  -36.2600   23.8680 C   0  0  0  0  0  3  0  0  0  0  0  0
  -27.5190  -37.1430   24.6970 C   0  0  0  0  0  1  0  0  0  0  0  0
  -26.4140  -37.3140   23.7580 N   0  0  0  0  0  0  0  0  0  0  0  0
  -26.0080  -38.2340   23.9080 H   0  0  0  0  0  0  0  0  0  0  0  0
  -26.3860  -31.6430   25.0780 C   0  0  1  0  0  0  0  0  0  0  0  0
  -25.3070  -31.3890   26.1570 C   0  0  0  0  0  1  0  0  0  0  0  0
  -26.9690  -30.2720   24.6630 C   0  0  0  0  0  1  0  0  0  0  0  0
  -27.5400  -32.4350   25.7350 C   0  0  0  0  0  1  0  0  0  0  0  0
  1  3  2  0
  1  5  1  0
  2  4  1  0
  3  6  1  0
  5  2  2  0
  6 54  1  0
  6  4  2  0
  7  5  1  0
  7  8  1  0
  8 13  1  0
  9 10  1  0
 10 12  2  0
 11 13  1  0
 11  9  2  0
 13 14  2  0
 14 15  1  0
 14 12  1  0
 15 25  1  0
 16 25  1  0
 17 22  1  0
 18 19  1  0
 18 17  1  0
 20 19  1  0
 20 29  1  0
 20 21  1  0
 22 16  1  0
 22 21  1  0
 23 16  2  0
 25 24  1  0
 26 27  2  0
 27 46  1  0
 28 27  1  0
 28 31  1  0
 29 30  1  0
 29 26  1  0
 30 28  2  0
 31 32  1  0
 32 33  2  0
 34 37  1  0
 34 33  1  0
 35 34  2  0
 36 35  1  0
 36 31  2  0
 37 38  1  0
 38 43  2  0
 38 39  1  0
 39 40  2  0
 40 41  1  0
 41 45  1  0
 42 41  2  0
 43 42  1  0
 44 43  1  0
 46 47  1  0
 47 50  1  0
 47 49  1  0
 48 46  2  0
 51 52  1  0
 51 26  1  0
 53 51  1  0
 55 54  1  0
 55 56  1  0
 56 58  1  0
 57 68  2  0
 58 63  1  0
 59 67  1  0
 59 69  1  0
 60 66  1  0
 60 62  1  0
 61 67  1  0
 62 63  2  0
 62 61  1  0
 64 65  1  0
 64 58  2  0
 65 60  2  0
 66 59  1  0
 67 57  1  0
 69 71  2  0
 70 69  1  0
 72 70  1  0
 73 82  2  0
 73 78  1  0
 74 70  1  0
 74 78  1  0
 75 74  1  0
 76 77  1  0
 76 75  1  0
 77 73  1  0
 78 79  2  0
 79 80  1  0
 81 80  2  0
 82 81  1  0
 83 57  1  0
 83 84  1  0
 83 93  1  0
 84 87  1  0
 85 89  1  0
 85 84  1  0
 86 85  2  0
 89 88  1  0
 91 89  1  0
 91 92  1  0
 91 90  1  0
 93 96  1  1
 93 94  1  0
 95 93  1  0
M  ISO  4  16 100  25 100  55 101  56 101
M  END
>  <TORSDO>  (45) 
F 22

>  <SCORE>  (45) 
-12.644

>  <name>  (45) 
44

>  <ligand_id>  (45) 
44

>  <original_smiles>  (45) 
[H]c1c([H])c([H])c(C([H])([H])C([H])([H])c2c([H])c([H])c(C([H])([H])C([H])([H])Oc3c([H])c([H])c4c(c3[H])C([H])([H])N(C(=O)C([H])(N([H])C(=O)C([H])(N([H])C([H])([H])[H])C([H])([H])[H])C(C([H])([H])[H])(C([H])([H])[H])C([H])([H])[H])C([H])(C(=O)N([H])C3([H])c5c([H])c([H])c([H])c([H])c5C([H])([H])C([H])([H])C3([H])[H])C4([H])[H])c([H])c2[H])c(C([H])([H])N(C(=O)N2C([H])([H])C([H])([H])C([H])([H])C([H])(n3nc(-c4c([H])c([H])c(Oc5c([H])c([H])c(F)c([H])c5F)c([H])c4[H])c(C(=O)N([H])[H])c3N([H])[H])C2([H])[H])C([H])([H])[H])c1[H]

>  <smiles>  (45) 
[H]c1c([H])c([H])c(C([H])([H])C([H])([H])c2c([H])c([H])c(C([H])([H])C([H])([H])Oc3c([H])c([H])c4c(c3[H])C([H])([H])N(C(=O)C([H])(N([H])C(=O)C([H])(N([H])C([H])([H])[H])C([H])([H])[H])C(C([H])([H])[H])(C([H])([H])[H])C([H])([H])[H])C([H])(C(=O)N([H])C3([H])c5c([H])c([H])c([H])c([H])c5C([H])([H])C([H])([H])C3([H])[H])C4([H])[H])c([H])c2[H])c(C([H])([H])N(C(=O)N2C([H])([H])C([H])([H])C([H])([H])C([H])(n3nc(-c4c([H])c([H])c(Oc5c([H])c([H])c(F)c([H])c5F)c([H])c4[H])c(C(=O)N([H])[H])c3N([H])[H])C2([H])[H])C([H])([H])[H])c1[H]

$$$$
45:0:0
     RDKit          3D

 90 97  0  0  1  0  0  0  0  0999 V2000
  -31.8100  -23.3860   20.4040 C   0  0  0  0  0  2  0  0  0  0  0  0
  -33.6800  -21.8560   20.0110 C   0  0  0  0  0  1  0  0  0  0  0  0
  -32.2120  -21.9730   20.1990 N   0  0  1  0  0  4  0  0  0  0  0  0
  -31.7980  -21.6930   19.3220 H   0  0  0  0  0  0  0  0  0  0  0  0
  -31.6800  -21.0530   21.2370 C   0  0  0  0  0  2  0  0  0  0  0  0
  -31.9200  -19.5780   20.8890 C   0  0  0  0  0  2  0  0  0  0  0  0
  -31.0410  -18.6210   21.6980 C   0  0  0  0  0  2  0  0  0  0  0  0
  -31.3720  -17.1820   21.3180 C   0  0  0  0  0  2  0  0  0  0  0  0
  -30.4470  -16.1370   21.9510 C   0  0  0  0  0  2  0  0  0  0  0  0
  -30.9910  -14.7090   21.7970 C   0  0  0  0  0  2  0  0  0  0  0  0
  -30.9810  -14.1850   20.3500 C   0  0  0  0  0  0  0  0  0  0  0  0
  -30.4040  -12.2820   18.8970 C   0  0  0  0  0  2  0  0  0  0  0  0
  -29.4080  -12.5960   17.7720 C   0  0  0  0  0  2  0  0  0  0  0  0
  -27.9640  -12.4630   18.2800 C   0  0  0  0  0  2  0  0  0  0  0  0
  -27.7270  -13.2570   19.5890 C   0  0  0  0  0  3  0  0  0  0  0  0
  -28.8180  -12.9490   20.6390 C   0  0  0  0  0  2  0  0  0  0  0  0
  -30.1390  -13.1760   20.0300 N   0  0  0  0  0  0  0  0  0  0  0  0
  -31.8620  -14.5830   19.5790 O   0  0  0  0  0  0  0  0  0  0  0  0
  -25.3700  -13.9160   20.3990 C   0  0  0  0  0  0  0  0  0  0  0  0
  -24.3020  -13.1610   20.8100 C   0  0  0  0  0  0  0  0  0  0  0  0
  -24.7340  -11.8010   20.7510 C   0  0  0  0  0  0  0  0  0  0  0  0
  -26.3870  -13.0140   20.1220 N   0  0  0  0  0  0  0  0  0  0  0  0
  -26.0090  -11.7380   20.3870 N   0  0  0  0  0  0  0  0  0  0  0  0
  -23.9910  -10.5530   20.9650 C   0  0  0  0  0  0  0  0  0  0  0  0
  -24.4400   -9.5730   21.8800 C   0  0  0  0  0  3  0  0  0  0  0  0
  -23.6990   -8.3880   22.0800 C   0  0  0  0  0  3  0  0  0  0  0  0
  -22.4960   -8.1750   21.3670 C   0  0  0  0  0  0  0  0  0  0  0  0
  -22.0650   -9.1420   20.4400 C   0  0  0  0  0  3  0  0  0  0  0  0
  -22.8060  -10.3190   20.2390 C   0  0  0  0  0  3  0  0  0  0  0  0
  -21.7230   -7.0430   21.4790 O   0  0  0  0  0  0  0  0  0  0  0  0
  -21.6990   -6.2990   22.6320 C   0  0  0  0  0  0  0  0  0  0  0  0
  -21.3490   -6.8650   23.8770 C   0  0  0  0  0  3  0  0  0  0  0  0
  -21.2690   -6.0490   25.0230 C   0  0  0  0  0  3  0  0  0  0  0  0
  -21.5300   -4.6700   24.9260 C   0  0  0  0  0  0  0  0  0  0  0  0
  -21.8730   -4.1030   23.6860 C   0  0  0  0  0  3  0  0  0  0  0  0
  -21.9550   -4.9160   22.5420 C   0  0  0  0  0  0  0  0  0  0  0  0
  -22.2660   -4.3620   21.3450 F   0  0  0  0  0  0  0  0  0  0  0  0
  -21.4450   -3.8850   26.0260 F   0  0  0  0  0  0  0  0  0  0  0  0
  -22.9260  -13.6640   21.1440 C   0  0  0  0  0  0  0  0  0  0  0  0
  -22.2240  -12.9790   22.0400 N   0  0  0  0  0  0  0  0  0  0  0  0
  -22.4850  -14.6980   20.6450 O   0  0  0  0  0  0  0  0  0  0  0  0
  -22.5920  -12.1420   22.4660 H   0  0  0  0  0  0  0  0  0  0  0  0
  -21.3010  -13.2960   22.3040 H   0  0  0  0  0  0  0  0  0  0  0  0
  -25.5560  -15.2830   20.2220 N   0  0  0  0  0  0  0  0  0  0  0  0
  -24.8110  -15.9560   20.3660 H   0  0  0  0  0  0  0  0  0  0  0  0
  -26.4100  -15.7060   19.8790 H   0  0  0  0  0  0  0  0  0  0  0  0
  -30.2930  -23.6320   20.2800 C   0  0  0  0  0  2  0  0  0  0  0  0
  -29.9830  -25.1270   20.2890 C   0  0  0  0  0  2  0  0  0  0  0  0
  -28.5010  -25.4520   20.0920 C   0  0  0  0  0  2  0  0  0  0  0  0
  -28.4500  -26.8630   20.1460 O   0  0  0  0  0  0  0  0  0  0  0  0
  -24.5840  -31.9020   23.2300 C   0  0  0  0  0  0  0  0  0  0  0  0
  -27.2300  -27.4890   20.1580 C   0  0  0  0  0  0  0  0  0  0  0  0
  -23.3710  -30.4990   21.5910 C   0  0  0  0  0  3  0  0  0  0  0  0
  -24.8200  -28.9540   20.1720 C   0  0  0  0  0  0  0  0  0  0  0  0
  -25.8920  -30.8680   21.3810 C   0  0  0  0  0  2  0  0  0  0  0  0
  -25.9740  -29.4970   20.7510 C   0  0  0  0  0  0  0  0  0  0  0  0
  -27.1800  -28.7720   20.7360 C   0  0  0  0  0  3  0  0  0  0  0  0
  -26.0590  -26.9380   19.5910 C   0  0  0  0  0  3  0  0  0  0  0  0
  -24.8560  -27.6740   19.5890 C   0  0  0  0  0  3  0  0  0  0  0  0
  -23.5740  -29.8120   20.2130 C   0  0  0  0  0  2  0  0  0  0  0  0
  -24.6350  -31.1030   22.1270 N   0  0  0  0  0  0  0  0  0  0  0  0
  -23.5040  -32.1760   23.7720 O   0  0  0  0  0  0  0  0  0  0  0  0
  -22.7230  -29.4790   22.5530 C   0  0  0  0  0  0  0  0  0  0  0  0
  -21.3990  -29.2990   22.4260 N   0  0  0  0  0  0  0  0  0  0  0  0
  -23.4080  -28.8520   23.3670 O   0  0  0  0  0  0  0  0  0  0  0  0
  -20.9120  -29.8600   21.7410 H   0  0  0  0  0  0  0  0  0  0  0  0
  -18.0210  -28.1120   22.9030 C   0  0  0  0  0  0  0  0  0  0  0  0
  -20.5770  -28.3650   23.1930 C   0  0  0  0  0  3  0  0  0  0  0  0
  -20.6820  -26.9330   22.6210 C   0  0  0  0  0  2  0  0  0  0  0  0
  -19.5850  -26.6070   21.6020 C   0  0  0  0  0  2  0  0  0  0  0  0
  -18.2000  -26.7580   22.2360 C   0  0  0  0  0  2  0  0  0  0  0  0
  -19.1380  -28.8730   23.3390 C   0  0  0  0  0  0  0  0  0  0  0  0
  -18.9210  -30.1400   23.9230 C   0  0  0  0  0  3  0  0  0  0  0  0
  -17.6170  -30.6480   24.0770 C   0  0  0  0  0  3  0  0  0  0  0  0
  -16.5130  -29.8820   23.6600 C   0  0  0  0  0  3  0  0  0  0  0  0
  -16.7150  -28.6170   23.0800 C   0  0  0  0  0  3  0  0  0  0  0  0
  -25.8730  -32.5280   23.8510 C   0  0  0  0  0  3  0  0  0  0  0  0
  -26.3960  -31.7500   25.1200 C   0  0  1  0  0  0  0  0  0  0  0  0
  -25.3070  -31.5080   26.1920 C   0  0  0  0  0  1  0  0  0  0  0  0
  -26.9740  -30.3770   24.7110 C   0  0  0  0  0  1  0  0  0  0  0  0
  -27.5510  -32.5410   25.7800 C   0  0  0  0  0  1  0  0  0  0  0  0
  -25.5670  -33.9250   24.1850 N   0  0  0  0  0  0  0  0  0  0  0  0
  -25.9050  -34.9780   23.4310 C   0  0  0  0  0  0  0  0  0  0  0  0
  -26.5800  -34.8770   22.4020 O   0  0  0  0  0  0  0  0  0  0  0  0
  -24.9740  -34.0780   24.9870 H   0  0  0  0  0  0  0  0  0  0  0  0
  -24.1830  -36.7740   23.0740 C   0  0  0  0  0  1  0  0  0  0  0  0
  -25.4190  -36.3650   23.8920 C   0  0  0  0  0  3  0  0  0  0  0  0
  -27.5530  -37.2380   24.7340 C   0  0  0  0  0  1  0  0  0  0  0  0
  -26.4540  -37.4150   23.7880 N   0  0  0  0  0  0  0  0  0  0  0  0
  -26.0510  -38.3350   23.9420 H   0  0  0  0  0  0  0  0  0  0  0  0
  2  3  1  0
  3  1  1  0
  3  5  1  0
  3  4  1  6
  6  5  1  0
  6  7  1  0
  8  7  1  0
  8  9  1  0
 10  9  1  0
 11 10  1  0
 12 17  1  0
 13 14  1  0
 13 12  1  0
 15 14  1  0
 15 22  1  0
 15 16  1  0
 17 11  1  0
 17 16  1  0
 18 11  2  0
 19 20  2  0
 20 39  1  0
 21 20  1  0
 21 24  1  0
 22 23  1  0
 22 19  1  0
 23 21  2  0
 24 25  1  0
 25 26  2  0
 27 30  1  0
 27 26  1  0
 28 27  2  0
 29 28  1  0
 29 24  2  0
 30 31  1  0
 31 32  1  0
 32 33  2  0
 34 33  1  0
 34 38  1  0
 35 34  2  0
 36 31  2  0
 36 35  1  0
 37 36  1  0
 39 40  1  0
 40 43  1  0
 40 42  1  0
 41 39  2  0
 44 45  1  0
 44 19  1  0
 46 44  1  0
 47 48  1  0
 47  1  1  0
 49 50  1  0
 49 48  1  0
 50 52  1  0
 51 62  2  0
 52 57  1  0
 53 61  1  0
 53 63  1  0
 54 60  1  0
 54 56  1  0
 55 61  1  0
 56 55  1  0
 57 56  2  0
 58 52  2  0
 59 58  1  0
 59 54  2  0
 60 53  1  0
 61 51  1  0
 63 65  2  0
 64 63  1  0
 66 64  1  0
 67 76  2  0
 67 72  1  0
 68 64  1  0
 68 72  1  0
 69 68  1  0
 70 71  1  0
 70 69  1  0
 71 67  1  0
 72 73  2  0
 73 74  1  0
 75 74  2  0
 76 75  1  0
 77 51  1  0
 77 82  1  0
 77 78  1  0
 78 81  1  1
 78 79  1  0
 80 78  1  0
 82 85  1  0
 83 87  1  0
 83 82  1  0
 84 83  2  0
 87 86  1  0
 89 87  1  0
 89 90  1  0
 89 88  1  0
M  ISO  4  10 100  11 100  49 101  50 101
M  END
>  <TORSDO>  (46) 
F 26

>  <SCORE>  (46) 
-11.616

>  <name>  (46) 
45

>  <ligand_id>  (46) 
45

>  <original_smiles>  (46) 
[H]c1c([H])c([H])c2c(c1[H])C([H])([H])C([H])([H])C([H])([H])C2([H])N([H])C(=O)C1([H])N(C(=O)C([H])(N([H])C(=O)C([H])(N([H])C([H])([H])[H])C([H])([H])[H])C(C([H])([H])[H])(C([H])([H])[H])C([H])([H])[H])C([H])([H])c2c([H])c(OC([H])([H])C([H])([H])C([H])([H])C([H])([H])[N+]([H])(C([H])([H])[H])C([H])([H])C([H])([H])C([H])([H])C([H])([H])C([H])([H])C([H])([H])C(=O)N3C([H])([H])C([H])([H])C([H])([H])C([H])(n4nc(-c5c([H])c([H])c(Oc6c([H])c([H])c(F)c([H])c6F)c([H])c5[H])c(C(=O)N([H])[H])c4N([H])[H])C3([H])[H])c([H])c([H])c2C1([H])[H]

>  <smiles>  (46) 
[H]c1c([H])c([H])c2c(c1[H])C([H])([H])C([H])([H])C([H])([H])C2([H])N([H])C(=O)C1([H])N(C(=O)C([H])(N([H])C(=O)C([H])(N([H])C([H])([H])[H])C([H])([H])[H])C(C([H])([H])[H])(C([H])([H])[H])C([H])([H])[H])C([H])([H])c2c([H])c(OC([H])([H])C([H])([H])C([H])([H])C([H])([H])[N+]([H])(C([H])([H])[H])C([H])([H])C([H])([H])C([H])([H])C([H])([H])C([H])([H])C([H])([H])C(=O)N3C([H])([H])C([H])([H])C([H])([H])C([H])(n4nc(-c5c([H])c([H])c(Oc6c([H])c([H])c(F)c([H])c6F)c([H])c5[H])c(C(=O)N([H])[H])c4N([H])[H])C3([H])[H])c([H])c([H])c2C1([H])[H]

$$$$
46:0:0
     RDKit          3D

 85 92  0  0  1  0  0  0  0  0999 V2000
  -30.0070  -22.3650   19.1760 C   0  0  0  0  0  1  0  0  0  0  0  0
  -28.9520  -22.1690   20.2720 C   0  0  0  0  0  3  0  0  0  0  0  0
  -28.6710  -20.2520   20.3150 C   0  0  0  0  0  2  0  0  0  0  0  0
  -29.4120  -17.1360   20.3350 C   0  0  0  0  0  3  0  0  0  0  0  0
  -29.6260  -18.6600   20.2710 C   0  0  0  0  0  0  0  0  0  0  0  0
  -30.2670  -15.6510   20.2480 C   0  0  0  0  0  0  0  0  0  0  0  0
  -30.3830  -13.1040   19.4520 C   0  0  0  0  0  2  0  0  0  0  0  0
  -29.5070  -12.7320   18.2220 C   0  0  0  0  0  2  0  0  0  0  0  0
  -28.0750  -12.3760   18.6520 C   0  0  0  0  0  2  0  0  0  0  0  0
  -27.5520  -13.3680   19.7150 C   0  0  0  0  0  3  0  0  0  0  0  0
  -28.5650  -13.6730   20.8400 C   0  0  0  0  0  2  0  0  0  0  0  0
  -29.7620  -14.2800   20.2150 N   0  0  0  0  0  0  0  0  0  0  0  0
  -31.4980  -15.5790   20.0630 O   0  0  0  0  0  0  0  0  0  0  0  0
  -25.1740  -13.8710   20.4540 C   0  0  0  0  0  0  0  0  0  0  0  0
  -24.1240  -13.0760   20.8180 C   0  0  0  0  0  0  0  0  0  0  0  0
  -24.6170  -11.7350   20.8050 C   0  0  0  0  0  0  0  0  0  0  0  0
  -26.2340  -13.0140   20.2240 N   0  0  0  0  0  0  0  0  0  0  0  0
  -25.9130  -11.7230   20.5050 N   0  0  0  0  0  0  0  0  0  0  0  0
  -23.9080  -10.4620   20.9980 C   0  0  0  0  0  0  0  0  0  0  0  0
  -24.3380   -9.5100   21.9490 C   0  0  0  0  0  3  0  0  0  0  0  0
  -23.6240   -8.3060   22.1310 C   0  0  0  0  0  3  0  0  0  0  0  0
  -22.4630   -8.0450   21.3640 C   0  0  0  0  0  0  0  0  0  0  0  0
  -22.0520   -8.9860   20.4030 C   0  0  0  0  0  3  0  0  0  0  0  0
  -22.7670  -10.1810   20.2190 C   0  0  0  0  0  3  0  0  0  0  0  0
  -21.7210   -6.8920   21.4550 O   0  0  0  0  0  0  0  0  0  0  0  0
  -21.6630   -6.1630   22.6150 C   0  0  0  0  0  0  0  0  0  0  0  0
  -21.2050   -6.7260   23.8270 C   0  0  0  0  0  3  0  0  0  0  0  0
  -21.0960   -5.9210   24.9800 C   0  0  0  0  0  3  0  0  0  0  0  0
  -21.4340   -4.5570   24.9220 C   0  0  0  0  0  0  0  0  0  0  0  0
  -21.8850   -3.9930   23.7150 C   0  0  0  0  0  3  0  0  0  0  0  0
  -21.9950   -4.7940   22.5640 C   0  0  0  0  0  0  0  0  0  0  0  0
  -22.4100   -4.2420   21.3990 F   0  0  0  0  0  0  0  0  0  0  0  0
  -21.3220   -3.7820   26.0260 F   0  0  0  0  0  0  0  0  0  0  0  0
  -22.7160  -13.5330   21.0620 C   0  0  0  0  0  0  0  0  0  0  0  0
  -21.9880  -12.8410   21.9310 N   0  0  0  0  0  0  0  0  0  0  0  0
  -22.2700  -14.5420   20.5160 O   0  0  0  0  0  0  0  0  0  0  0  0
  -22.3630  -12.0260   22.3950 H   0  0  0  0  0  0  0  0  0  0  0  0
  -21.0430  -13.1310   22.1370 H   0  0  0  0  0  0  0  0  0  0  0  0
  -25.3150  -15.2430   20.2670 N   0  0  0  0  0  0  0  0  0  0  0  0
  -24.5360  -15.8840   20.3640 H   0  0  0  0  0  0  0  0  0  0  0  0
  -26.1580  -15.6920   19.9330 H   0  0  0  0  0  0  0  0  0  0  0  0
  -30.8940  -19.0610   20.1240 O   0  0  0  0  0  0  0  0  0  0  0  0
  -30.8900  -20.0110   20.1070 H   0  0  0  0  0  0  0  0  0  0  0  0
  -27.9420  -23.8220   20.2010 C   0  0  0  0  0  2  0  0  0  0  0  0
  -28.1330  -25.5670   20.2670 O   0  0  0  0  0  0  0  0  0  0  0  0
  -24.6280  -31.8470   23.1640 C   0  0  0  0  0  0  0  0  0  0  0  0
  -27.1540  -26.7670   20.2070 C   0  0  0  0  0  0  0  0  0  0  0  0
  -23.4400  -30.4450   21.5300 C   0  0  0  0  0  3  0  0  0  0  0  0
  -24.8880  -28.7890   20.1310 C   0  0  0  0  0  0  0  0  0  0  0  0
  -26.0190  -30.5880   21.4120 C   0  0  0  0  0  2  0  0  0  0  0  0
  -26.0820  -29.1530   20.7630 C   0  0  0  0  0  0  0  0  0  0  0  0
  -27.2020  -28.1710   20.7670 C   0  0  0  0  0  3  0  0  0  0  0  0
  -25.9260  -26.6070   19.5190 C   0  0  0  0  0  3  0  0  0  0  0  0
  -24.8470  -27.5420   19.4840 C   0  0  0  0  0  3  0  0  0  0  0  0
  -23.6810  -29.7410   20.1640 C   0  0  0  0  0  2  0  0  0  0  0  0
  -24.7190  -30.9930   22.0870 N   0  0  0  0  0  0  0  0  0  0  0  0
  -23.5340  -32.1510   23.6700 O   0  0  0  0  0  0  0  0  0  0  0  0
  -22.7210  -29.4710   22.5040 C   0  0  0  0  0  0  0  0  0  0  0  0
  -21.3870  -29.3320   22.3870 N   0  0  0  0  0  0  0  0  0  0  0  0
  -23.3750  -28.8390   23.3360 O   0  0  0  0  0  0  0  0  0  0  0  0
  -20.9090  -29.8930   21.6950 H   0  0  0  0  0  0  0  0  0  0  0  0
  -17.9870  -28.1680   22.9270 C   0  0  0  0  0  0  0  0  0  0  0  0
  -20.5530  -28.4050   23.1620 C   0  0  0  0  0  3  0  0  0  0  0  0
  -20.6300  -26.9720   22.5830 C   0  0  0  0  0  2  0  0  0  0  0  0
  -19.5150  -26.6670   21.5780 C   0  0  0  0  0  2  0  0  0  0  0  0
  -18.1410  -26.8220   22.2370 C   0  0  0  0  0  2  0  0  0  0  0  0
  -19.1180  -28.9170   23.3460 C   0  0  0  0  0  0  0  0  0  0  0  0
  -18.9160  -30.1730   23.9580 C   0  0  0  0  0  3  0  0  0  0  0  0
  -17.6170  -30.6820   24.1480 C   0  0  0  0  0  3  0  0  0  0  0  0
  -16.5010  -29.9310   23.7410 C   0  0  0  0  0  3  0  0  0  0  0  0
  -16.6880  -28.6740   23.1370 C   0  0  0  0  0  3  0  0  0  0  0  0
  -25.8910  -32.4970   23.8050 C   0  0  0  0  0  3  0  0  0  0  0  0
  -26.3960  -31.7280   25.0890 C   0  0  1  0  0  0  0  0  0  0  0  0
  -25.2950  -31.4920   26.1500 C   0  0  0  0  0  1  0  0  0  0  0  0
  -26.9830  -30.3490   24.7150 C   0  0  0  0  0  1  0  0  0  0  0  0
  -27.5430  -32.5240   25.7580 C   0  0  0  0  0  1  0  0  0  0  0  0
  -25.5620  -33.8930   24.1560 N   0  0  0  0  0  0  0  0  0  0  0  0
  -25.8680  -34.9680   23.4170 C   0  0  0  0  0  0  0  0  0  0  0  0
  -26.5140  -34.8900   22.3700 O   0  0  0  0  0  0  0  0  0  0  0  0
  -24.9840  -34.0250   24.9730 H   0  0  0  0  0  0  0  0  0  0  0  0
  -24.1070  -36.7530   23.1630 C   0  0  0  0  0  1  0  0  0  0  0  0
  -25.3850  -36.3470   23.9150 C   0  0  0  0  0  3  0  0  0  0  0  0
  -27.5400  -37.2540   24.6710 C   0  0  0  0  0  1  0  0  0  0  0  0
  -26.4000  -37.4160   23.7730 N   0  0  0  0  0  0  0  0  0  0  0  0
  -25.9870  -38.3290   23.9450 H   0  0  0  0  0  0  0  0  0  0  0  0
  2  1  1  0
  2  3  1  0
  5  3  1  0
  5  4  2  0
  6  4  1  0
  7 12  1  0
  8  9  1  0
  8  7  1  0
 10  9  1  0
 10 17  1  0
 10 11  1  0
 12  6  1  0
 12 11  1  0
 13  6  2  0
 14 15  2  0
 15 34  1  0
 16 15  1  0
 16 19  1  0
 17 14  1  0
 17 18  1  0
 18 16  2  0
 19 20  1  0
 20 21  2  0
 22 25  1  0
 22 21  1  0
 23 22  2  0
 24 23  1  0
 24 19  2  0
 25 26  1  0
 26 27  1  0
 27 28  2  0
 29 28  1  0
 29 33  1  0
 30 29  2  0
 31 26  2  0
 31 30  1  0
 32 31  1  0
 34 35  1  0
 35 38  1  0
 35 37  1  0
 36 34  2  0
 39 40  1  0
 39 14  1  0
 41 39  1  0
 42  5  1  0
 43 42  1  0
 44 45  1  0
 44  2  1  0
 46 57  2  0
 47 45  1  0
 47 52  1  0
 48 56  1  0
 48 58  1  0
 49 55  1  0
 49 51  1  0
 50 56  1  0
 51 52  2  0
 51 50  1  0
 53 47  2  0
 54 53  1  0
 54 49  2  0
 55 48  1  0
 56 46  1  0
 58 60  2  0
 59 58  1  0
 61 59  1  0
 62 71  2  0
 62 67  1  0
 63 59  1  0
 63 67  1  0
 64 63  1  0
 65 66  1  0
 65 64  1  0
 66 62  1  0
 67 68  2  0
 68 69  1  0
 70 69  2  0
 71 70  1  0
 72 46  1  0
 72 77  1  0
 72 73  1  0
 73 76  1  1
 73 74  1  0
 75 73  1  0
 77 80  1  0
 78 82  1  0
 78 77  1  0
 79 78  2  0
 82 81  1  0
 84 82  1  0
 84 85  1  0
 84 83  1  0
M  ISO  4   4 100   6 100  44 101  45 101
M  END
>  <TORSDO>  (47) 
F 20

>  <SCORE>  (47) 
-16.110

>  <name>  (47) 
46

>  <ligand_id>  (47) 
46

>  <original_smiles>  (47) 
[H]OC(=C([H])C(=O)N1C([H])([H])C([H])([H])C([H])([H])C([H])(n2nc(-c3c([H])c([H])c(Oc4c([H])c([H])c(F)c([H])c4F)c([H])c3[H])c(C(=O)N([H])[H])c2N([H])[H])C1([H])[H])C([H])([H])C([H])(C([H])([H])[H])C([H])([H])Oc1c([H])c([H])c2c(c1[H])C([H])([H])N(C(=O)C([H])(N([H])C(=O)C([H])(N([H])C([H])([H])[H])C([H])([H])[H])C(C([H])([H])[H])(C([H])([H])[H])C([H])([H])[H])C([H])(C(=O)N([H])C1([H])c3c([H])c([H])c([H])c([H])c3C([H])([H])C([H])([H])C1([H])[H])C2([H])[H]

>  <smiles>  (47) 
[H]OC(=C([H])C(=O)N1C([H])([H])C([H])([H])C([H])([H])C([H])(n2nc(-c3c([H])c([H])c(Oc4c([H])c([H])c(F)c([H])c4F)c([H])c3[H])c(C(=O)N([H])[H])c2N([H])[H])C1([H])[H])C([H])([H])C([H])(C([H])([H])[H])C([H])([H])Oc1c([H])c([H])c2c(c1[H])C([H])([H])N(C(=O)C([H])(N([H])C(=O)C([H])(N([H])C([H])([H])[H])C([H])([H])[H])C(C([H])([H])[H])(C([H])([H])[H])C([H])([H])[H])C([H])(C(=O)N([H])C1([H])c3c([H])c([H])c([H])c([H])c3C([H])([H])C([H])([H])C1([H])[H])C2([H])[H]

$$$$
47:0:0
     RDKit          3D

 94101  0  0  1  0  0  0  0  0999 V2000
  -28.8060  -24.2880   20.1110 C   0  0  0  0  0  3  0  0  0  0  0  0
  -28.4130  -23.0310   19.7710 C   0  0  0  0  0  0  0  0  0  0  0  0
  -27.7450  -22.6740   18.4390 C   0  0  0  0  0  2  0  0  0  0  0  0
  -26.3960  -21.9470   18.6250 C   0  0  0  0  0  2  0  0  0  0  0  0
  -25.6270  -21.6560   17.3260 C   0  0  0  0  0  2  0  0  0  0  0  0
  -24.2830  -20.9610   17.6270 C   0  0  0  0  0  2  0  0  0  0  0  0
  -23.5530  -20.5690   16.4100 N   0  0  0  0  0  4  0  0  0  0  0  0
  -23.3660  -21.3640   15.8280 H   0  0  0  0  0  0  0  0  0  0  0  0
  -22.6740  -20.1530   16.6640 H   0  0  0  0  0  0  0  0  0  0  0  0
  -24.0740  -19.8910   15.8830 H   0  0  0  0  0  0  0  0  0  0  0  0
  -28.5800  -21.8610   20.7630 C   0  0  0  0  0  2  0  0  0  0  0  0
  -29.3190  -20.5590   20.2950 C   0  0  0  0  0  2  0  0  0  0  0  0
  -28.8220  -19.2990   21.0720 C   0  0  0  0  0  2  0  0  0  0  0  0
  -29.8040  -18.1210   21.3670 C   0  0  0  0  0  2  0  0  0  0  0  0
  -29.9090  -16.9230   20.3710 C   0  0  0  0  0  2  0  0  0  0  0  0
  -30.3580  -15.5930   21.0680 C   0  0  0  0  0  2  0  0  0  0  0  0
  -30.8360  -14.4430   20.1320 C   0  0  0  0  0  0  0  0  0  0  0  0
  -30.4940  -12.2850   18.9560 C   0  0  0  0  0  2  0  0  0  0  0  0
  -29.4920  -12.4540   17.7920 C   0  0  0  0  0  2  0  0  0  0  0  0
  -28.0380  -12.3240   18.2850 C   0  0  0  0  0  2  0  0  0  0  0  0
  -27.7610  -13.1760   19.5530 C   0  0  0  0  0  3  0  0  0  0  0  0
  -28.8560  -12.9360   20.6120 C   0  0  0  0  0  2  0  0  0  0  0  0
  -30.1530  -13.2670   20.0030 N   0  0  0  0  0  0  0  0  0  0  0  0
  -31.8770  -14.6460   19.4990 O   0  0  0  0  0  0  0  0  0  0  0  0
  -25.4010  -13.8190   20.3590 C   0  0  0  0  0  0  0  0  0  0  0  0
  -24.3350  -13.0620   20.7680 C   0  0  0  0  0  0  0  0  0  0  0  0
  -24.7700  -11.7020   20.7070 C   0  0  0  0  0  0  0  0  0  0  0  0
  -26.4220  -12.9220   20.0830 N   0  0  0  0  0  0  0  0  0  0  0  0
  -26.0460  -11.6430   20.3470 N   0  0  0  0  0  0  0  0  0  0  0  0
  -24.0330  -10.4500   20.9220 C   0  0  0  0  0  0  0  0  0  0  0  0
  -24.4820   -9.4770   21.8410 C   0  0  0  0  0  3  0  0  0  0  0  0
  -23.7460   -8.2890   22.0420 C   0  0  0  0  0  3  0  0  0  0  0  0
  -22.5470   -8.0660   21.3220 C   0  0  0  0  0  0  0  0  0  0  0  0
  -22.1160   -9.0300   20.3930 C   0  0  0  0  0  3  0  0  0  0  0  0
  -22.8520  -10.2090   20.1900 C   0  0  0  0  0  3  0  0  0  0  0  0
  -21.7810   -6.9320   21.4330 O   0  0  0  0  0  0  0  0  0  0  0  0
  -21.7450   -6.1980   22.5920 C   0  0  0  0  0  0  0  0  0  0  0  0
  -21.3580   -6.7700   23.8230 C   0  0  0  0  0  3  0  0  0  0  0  0
  -21.2680   -5.9640   24.9750 C   0  0  0  0  0  3  0  0  0  0  0  0
  -21.5530   -4.5870   24.8970 C   0  0  0  0  0  0  0  0  0  0  0  0
  -21.9330   -4.0160   23.6690 C   0  0  0  0  0  3  0  0  0  0  0  0
  -22.0240   -4.8190   22.5200 C   0  0  0  0  0  0  0  0  0  0  0  0
  -22.3700   -4.2580   21.3350 F   0  0  0  0  0  0  0  0  0  0  0  0
  -21.4590   -3.8120   26.0030 F   0  0  0  0  0  0  0  0  0  0  0  0
  -22.9590  -13.5590   21.1060 C   0  0  0  0  0  0  0  0  0  0  0  0
  -22.2630  -12.8690   22.0020 N   0  0  0  0  0  0  0  0  0  0  0  0
  -22.5140  -14.5940   20.6100 O   0  0  0  0  0  0  0  0  0  0  0  0
  -22.6380  -12.0310   22.4200 H   0  0  0  0  0  0  0  0  0  0  0  0
  -21.3410  -13.1810   22.2720 H   0  0  0  0  0  0  0  0  0  0  0  0
  -25.5860  -15.1860   20.1830 N   0  0  0  0  0  0  0  0  0  0  0  0
  -24.8440  -15.8620   20.3380 H   0  0  0  0  0  0  0  0  0  0  0  0
  -26.4470  -15.6060   19.8550 H   0  0  0  0  0  0  0  0  0  0  0  0
  -28.7110  -25.6030   19.3270 C   0  0  0  0  0  2  0  0  0  0  0  0
  -28.4880  -26.7440   20.1860 O   0  0  0  0  0  0  0  0  0  0  0  0
  -24.6430  -31.8880   23.3010 C   0  0  0  0  0  0  0  0  0  0  0  0
  -27.2830  -27.4300   20.1980 C   0  0  0  0  0  0  0  0  0  0  0  0
  -23.4300  -30.4830   21.6680 C   0  0  0  0  0  3  0  0  0  0  0  0
  -24.8790  -28.9410   20.2440 C   0  0  0  0  0  0  0  0  0  0  0  0
  -25.9560  -30.8420   21.4540 C   0  0  0  0  0  2  0  0  0  0  0  0
  -26.0410  -29.4640   20.8210 C   0  0  0  0  0  0  0  0  0  0  0  0
  -27.2390  -28.7120   20.8020 C   0  0  0  0  0  3  0  0  0  0  0  0
  -26.0870  -26.9120   19.6490 C   0  0  0  0  0  3  0  0  0  0  0  0
  -24.8960  -27.6620   19.6660 C   0  0  0  0  0  3  0  0  0  0  0  0
  -23.6370  -29.8050   20.2870 C   0  0  0  0  0  2  0  0  0  0  0  0
  -24.6960  -31.0850   22.2010 N   0  0  0  0  0  0  0  0  0  0  0  0
  -23.5640  -32.1570   23.8480 O   0  0  0  0  0  0  0  0  0  0  0  0
  -22.7870  -29.4590   22.6320 C   0  0  0  0  0  0  0  0  0  0  0  0
  -21.4620  -29.2730   22.5120 N   0  0  0  0  0  0  0  0  0  0  0  0
  -23.4750  -28.8380   23.4430 O   0  0  0  0  0  0  0  0  0  0  0  0
  -20.9650  -29.8300   21.8310 H   0  0  0  0  0  0  0  0  0  0  0  0
  -18.0990  -28.0550   23.0110 C   0  0  0  0  0  0  0  0  0  0  0  0
  -20.6540  -28.3320   23.2880 C   0  0  0  0  0  3  0  0  0  0  0  0
  -20.7680  -26.8970   22.7200 C   0  0  0  0  0  2  0  0  0  0  0  0
  -19.6690  -26.5600   21.7080 C   0  0  0  0  0  2  0  0  0  0  0  0
  -18.2850  -26.7010   22.3470 C   0  0  0  0  0  2  0  0  0  0  0  0
  -19.2120  -28.8250   23.4420 C   0  0  0  0  0  0  0  0  0  0  0  0
  -18.9850  -30.0920   24.0240 C   0  0  0  0  0  3  0  0  0  0  0  0
  -17.6760  -30.5850   24.1840 C   0  0  0  0  0  3  0  0  0  0  0  0
  -16.5780  -29.8110   23.7760 C   0  0  0  0  0  3  0  0  0  0  0  0
  -16.7890  -28.5490   23.1930 C   0  0  0  0  0  3  0  0  0  0  0  0
  -25.9290  -32.5250   23.9130 C   0  0  0  0  0  3  0  0  0  0  0  0
  -26.4550  -31.7610   25.1900 C   0  0  1  0  0  0  0  0  0  0  0  0
  -25.3660  -31.5260   26.2640 C   0  0  0  0  0  1  0  0  0  0  0  0
  -27.0390  -30.3860   24.7960 C   0  0  0  0  0  1  0  0  0  0  0  0
  -27.6050  -32.5610   25.8470 C   0  0  0  0  0  1  0  0  0  0  0  0
  -25.6240  -33.9250   24.2350 N   0  0  0  0  0  0  0  0  0  0  0  0
  -25.9470  -34.9710   23.4640 C   0  0  0  0  0  0  0  0  0  0  0  0
  -26.6070  -34.8600   22.4280 O   0  0  0  0  0  0  0  0  0  0  0  0
  -25.0490  -34.0890   25.0490 H   0  0  0  0  0  0  0  0  0  0  0  0
  -24.2120  -36.7530   23.1030 C   0  0  0  0  0  1  0  0  0  0  0  0
  -25.4580  -36.3610   23.9120 C   0  0  0  0  0  3  0  0  0  0  0  0
  -27.5960  -37.2550   24.7200 C   0  0  0  0  0  1  0  0  0  0  0  0
  -26.4870  -37.4160   23.7840 N   0  0  0  0  0  0  0  0  0  0  0  0
  -26.0810  -38.3360   23.9320 H   0  0  0  0  0  0  0  0  0  0  0  0
  2  1  2  0
  2 11  1  0
  3  4  1  0
  3  2  1  0
  5  6  1  0
  5  4  1  0
  7  9  1  0
  7  6  1  0
  8  7  1  0
 10  7  1  0
 12 11  1  0
 12 13  1  0
 13 14  1  0
 15 16  1  0
 15 14  1  0
 17 16  1  0
 18 23  1  0
 19 20  1  0
 19 18  1  0
 21 20  1  0
 21 28  1  0
 21 22  1  0
 23 17  1  0
 23 22  1  0
 24 17  2  0
 25 26  2  0
 26 45  1  0
 27 26  1  0
 27 30  1  0
 28 29  1  0
 28 25  1  0
 29 27  2  0
 30 31  1  0
 31 32  2  0
 33 36  1  0
 33 32  1  0
 34 33  2  0
 35 34  1  0
 35 30  2  0
 36 37  1  0
 37 38  1  0
 38 39  2  0
 40 39  1  0
 40 44  1  0
 41 40  2  0
 42 37  2  0
 42 41  1  0
 43 42  1  0
 45 46  1  0
 46 49  1  0
 46 48  1  0
 47 45  2  0
 50 51  1  0
 50 25  1  0
 52 50  1  0
 53  1  1  0
 53 54  1  0
 54 56  1  0
 55 66  2  0
 56 61  1  0
 57 65  1  0
 57 67  1  0
 58 64  1  0
 58 60  1  0
 59 65  1  0
 60 59  1  0
 61 60  2  0
 62 63  1  0
 62 56  2  0
 63 58  2  0
 64 57  1  0
 65 55  1  0
 67 69  2  0
 68 67  1  0
 70 68  1  0
 71 80  2  0
 71 76  1  0
 72 68  1  0
 72 76  1  0
 73 72  1  0
 74 75  1  0
 74 73  1  0
 75 71  1  0
 76 77  2  0
 77 78  1  0
 79 78  2  0
 80 79  1  0
 81 55  1  0
 81 86  1  0
 81 82  1  0
 82 85  1  1
 82 83  1  0
 84 82  1  0
 86 89  1  0
 87 91  1  0
 87 86  1  0
 88 87  2  0
 91 90  1  0
 93 91  1  0
 93 94  1  0
 93 92  1  0
M  ISO  4  16 100  17 100  53 101  54 101
M  END
>  <TORSDO>  (48) 
F 28

>  <SCORE>  (48) 
-10.684

>  <name>  (48) 
47

>  <ligand_id>  (48) 
47

>  <original_smiles>  (48) 
[H]C(=C(C([H])([H])C([H])([H])C([H])([H])C([H])([H])C([H])([H])C([H])([H])C(=O)N1C([H])([H])C([H])([H])C([H])([H])C([H])(n2nc(-c3c([H])c([H])c(Oc4c([H])c([H])c(F)c([H])c4F)c([H])c3[H])c(C(=O)N([H])[H])c2N([H])[H])C1([H])[H])C([H])([H])C([H])([H])C([H])([H])C([H])([H])[N+]([H])([H])[H])C([H])([H])Oc1c([H])c([H])c2c(c1[H])C([H])([H])N(C(=O)C([H])(N([H])C(=O)C([H])(N([H])C([H])([H])[H])C([H])([H])[H])C(C([H])([H])[H])(C([H])([H])[H])C([H])([H])[H])C([H])(C(=O)N([H])C1([H])c3c([H])c([H])c([H])c([H])c3C([H])([H])C([H])([H])C1([H])[H])C2([H])[H]

>  <smiles>  (48) 
[H]C(=C(C([H])([H])C([H])([H])C([H])([H])C([H])([H])C([H])([H])C([H])([H])C(=O)N1C([H])([H])C([H])([H])C([H])([H])C([H])(n2nc(-c3c([H])c([H])c(Oc4c([H])c([H])c(F)c([H])c4F)c([H])c3[H])c(C(=O)N([H])[H])c2N([H])[H])C1([H])[H])C([H])([H])C([H])([H])C([H])([H])C([H])([H])[N+]([H])([H])[H])C([H])([H])Oc1c([H])c([H])c2c(c1[H])C([H])([H])N(C(=O)C([H])(N([H])C(=O)C([H])(N([H])C([H])([H])[H])C([H])([H])[H])C(C([H])([H])[H])(C([H])([H])[H])C([H])([H])[H])C([H])(C(=O)N([H])C1([H])c3c([H])c([H])c([H])c([H])c3C([H])([H])C([H])([H])C1([H])[H])C2([H])[H]

$$$$
48:0:0
     RDKit          3D

101108  0  0  1  0  0  0  0  0999 V2000
  -23.2330  -27.0280   17.7070 C   0  0  0  0  0  3  0  0  0  0  0  0
  -24.5820  -27.2920   16.9680 C   0  0  0  0  0  3  0  0  0  0  0  0
  -24.0610  -26.1650   14.5190 C   0  0  0  0  0  2  0  0  0  0  0  0
  -22.0200  -26.1560   17.0600 C   0  0  0  0  0  2  0  0  0  0  0  0
  -22.5520  -25.6680   14.9160 C   0  0  0  0  0  2  0  0  0  0  0  0
  -25.0520  -26.7790   15.5830 C   0  0  0  0  0  0  0  0  0  0  0  0
  -22.0100  -24.9420   13.6210 C   0  0  0  0  0  1  0  0  0  0  0  0
  -22.0060  -25.3690   18.5950 C   0  0  0  0  0  0  0  0  0  0  0  0
  -22.7690  -25.3250   19.7440 N   0  0  0  0  0  0  0  0  0  0  0  0
  -21.3490  -24.3410   18.7520 O   0  0  0  0  0  0  0  0  0  0  0  0
  -23.5470  -25.9720   19.7580 H   0  0  0  0  0  0  0  0  0  0  0  0
  -22.6320  -24.4040   21.0750 C   0  0  0  0  0  2  0  0  0  0  0  0
  -22.7770  -24.6950   22.7650 C   0  0  0  0  0  2  0  0  0  0  0  0
  -24.1520  -24.5350   23.8110 C   0  0  0  0  0  2  0  0  0  0  0  0
  -25.0400  -25.5870   24.6190 O   0  0  0  0  0  0  0  0  0  0  0  0
  -28.9670  -31.4260   24.6530 C   0  0  0  0  0  0  0  0  0  0  0  0
  -25.7120  -26.4640   23.8380 C   0  0  0  0  0  3  0  0  0  0  0  0
  -29.3700  -29.3400   25.7570 C   0  0  0  0  0  3  0  0  0  0  0  0
  -27.7070  -27.5990   25.2960 C   0  0  0  0  0  3  0  0  0  0  0  0
  -26.9720  -29.9160   25.0290 C   0  0  0  0  0  2  0  0  0  0  0  0
  -26.7300  -28.4360   24.8000 C   0  0  0  0  0  0  0  0  0  0  0  0
  -25.6500  -27.8610   24.0920 C   0  0  0  0  0  3  0  0  0  0  0  0
  -26.9460  -25.8630   23.7740 C   0  0  0  0  0  3  0  0  0  0  0  0
  -27.9170  -26.4110   24.6090 C   0  0  0  0  0  3  0  0  0  0  0  0
  -28.6070  -28.1930   26.3440 C   0  0  0  0  0  2  0  0  0  0  0  0
  -28.4330  -30.2660   25.0940 N   0  0  0  0  0  0  0  0  0  0  0  0
  -30.1630  -31.7090   24.8330 O   0  0  0  0  0  0  0  0  0  0  0  0
  -30.4230  -28.7560   24.8110 C   0  0  0  0  0  0  0  0  0  0  0  0
  -29.9480  -27.9200   23.8970 N   0  0  0  0  0  4  0  0  0  0  0  0
  -31.6110  -29.0890   24.8750 O   0  0  0  0  0  0  0  0  0  0  0  0
  -28.9780  -27.6350   23.9240 H   0  0  0  0  0  0  0  0  0  0  0  0
  -30.0680  -27.9620   19.9340 C   0  0  0  0  0  0  0  0  0  0  0  0
  -30.7720  -27.4200   22.8530 C   0  0  0  0  0  0  0  0  0  0  0  0
  -32.5210  -27.9850   23.1730 C   0  0  0  0  0  2  0  0  0  0  0  0
  -33.5190  -28.9440   21.9150 C   0  0  0  0  0  1  0  0  0  0  0  0
  -31.5530  -28.8990   19.3710 C   0  0  0  0  0  1  0  0  0  0  0  0
  -29.8010  -27.3960   21.3860 C   0  0  0  0  0  0  0  0  0  0  0  0
  -28.6900  -26.5160   21.5540 C   0  0  0  0  0  3  0  0  0  0  0  0
  -27.8370  -26.1490   20.5050 C   0  0  0  0  0  3  0  0  0  0  0  0
  -28.0790  -26.6410   19.2140 C   0  0  0  0  0  3  0  0  0  0  0  0
  -29.1660  -27.5040   18.9460 C   0  0  0  0  0  3  0  0  0  0  0  0
  -28.0840  -32.4530   23.9190 C   0  0  0  0  0  3  0  0  0  0  0  0
  -27.2340  -31.6880   23.0080 N   0  0  0  0  0  0  0  0  0  0  0  0
  -25.8980  -31.7530   23.0050 C   0  0  0  0  0  3  0  0  0  0  0  0
  -25.2560  -32.3940   23.8410 O   0  0  0  0  0  0  0  0  0  0  0  0
  -27.6970  -31.1780   22.2680 H   0  0  0  0  0  0  0  0  0  0  0  0
  -24.6590  -31.9380   20.8270 C   0  0  0  0  0  1  0  0  0  0  0  0
  -25.1600  -30.9670   21.9080 C   0  0  0  0  0  3  0  0  0  0  0  0
  -22.7510  -30.5080   21.8120 C   0  0  0  0  0  1  0  0  0  0  0  0
  -24.0320  -30.1660   22.4270 N   0  0  0  0  0  0  0  0  0  0  0  0
  -23.9410  -30.2830   23.4330 H   0  0  0  0  0  0  0  0  0  0  0  0
  -27.2390  -33.3360   24.9060 C   0  0  1  0  0  0  0  0  0  0  0  0
  -27.6610  -33.2090   26.3890 C   0  0  0  0  0  1  0  0  0  0  0  0
  -27.3310  -34.8310   24.5140 C   0  0  0  0  0  1  0  0  0  0  0  0
  -25.7520  -32.9310   24.7890 C   0  0  0  0  0  2  0  0  0  0  0  0
  -26.4620  -26.3230   15.6190 N   0  0  0  0  0  4  0  0  0  0  0  0
  -27.1010  -27.0930   15.7980 H   0  0  0  0  0  0  0  0  0  0  0  0
  -26.9540  -25.0240   16.3300 C   0  0  0  0  0  2  0  0  0  0  0  0
  -26.6370  -24.5790   17.8940 C   0  0  0  0  0  2  0  0  0  0  0  0
  -26.1740  -23.0230   18.2830 C   0  0  0  0  0  3  0  0  0  0  0  0
  -26.7800  -22.1090   19.5330 C   0  0  0  0  0  3  0  0  0  0  0  0
  -27.7620  -22.6750   20.7570 C   0  0  0  0  0  2  0  0  0  0  0  0
  -28.8590  -21.7040   21.5320 C   0  0  0  0  0  2  0  0  0  0  0  0
  -30.1060  -20.7590   20.9370 C   0  0  0  0  0  2  0  0  0  0  0  0
  -31.2970  -20.3660   22.0070 C   0  0  0  0  0  2  0  0  0  0  0  0
  -32.9690  -20.3420   22.0880 C   0  0  0  0  0  0  0  0  0  0  0  0
  -34.7130  -21.1830   20.4590 C   0  0  0  0  0  2  0  0  0  0  0  0
  -34.0650  -22.3730   19.6980 C   0  0  0  0  0  2  0  0  0  0  0  0
  -33.1300  -21.8980   18.5580 C   0  0  0  0  0  2  0  0  0  0  0  0
  -32.1910  -20.7740   19.0370 C   0  0  0  0  0  3  0  0  0  0  0  0
  -33.0210  -19.6560   19.7120 C   0  0  0  0  0  2  0  0  0  0  0  0
  -33.6350  -20.2570   20.8870 N   0  0  0  0  0  0  0  0  0  0  0  0
  -33.6310  -20.6940   23.0830 O   0  0  0  0  0  0  0  0  0  0  0  0
  -30.0630  -19.6710   18.1330 C   0  0  0  0  0  0  0  0  0  0  0  0
  -29.6780  -19.3540   16.8630 C   0  0  0  0  0  0  0  0  0  0  0  0
  -30.7580  -19.7620   16.0250 C   0  0  0  0  0  0  0  0  0  0  0  0
  -31.3280  -20.2270   18.0160 N   0  0  0  0  0  0  0  0  0  0  0  0
  -31.7690  -20.2230   16.7430 N   0  0  0  0  0  0  0  0  0  0  0  0
  -30.8650  -19.8120   14.5710 C   0  0  0  0  0  0  0  0  0  0  0  0
  -30.2060  -20.8100   13.8230 C   0  0  0  0  0  3  0  0  0  0  0  0
  -30.3320  -20.8410   12.4190 C   0  0  0  0  0  3  0  0  0  0  0  0
  -31.1250  -19.8730   11.7590 C   0  0  0  0  0  0  0  0  0  0  0  0
  -31.7570  -18.8660   12.5110 C   0  0  0  0  0  3  0  0  0  0  0  0
  -31.6250  -18.8320   13.9070 C   0  0  0  0  0  3  0  0  0  0  0  0
  -31.2880  -19.8130   10.3980 O   0  0  0  0  0  0  0  0  0  0  0  0
  -31.3420  -18.6140    9.7360 C   0  0  0  0  0  0  0  0  0  0  0  0
  -30.6680  -17.4690   10.2110 C   0  0  0  0  0  3  0  0  0  0  0  0
  -30.6940  -16.2760    9.4620 C   0  0  0  0  0  3  0  0  0  0  0  0
  -31.3840  -16.2290    8.2350 C   0  0  0  0  0  0  0  0  0  0  0  0
  -32.0520  -17.3710    7.7590 C   0  0  0  0  0  3  0  0  0  0  0  0
  -32.0290  -18.5600    8.5070 C   0  0  0  0  0  0  0  0  0  0  0  0
  -32.6580  -19.6650    8.0340 F   0  0  0  0  0  0  0  0  0  0  0  0
  -31.4010  -15.0870    7.5100 F   0  0  0  0  0  0  0  0  0  0  0  0
  -28.3440  -18.8130   16.4430 C   0  0  0  0  0  0  0  0  0  0  0  0
  -27.4330  -18.6330   17.3930 N   0  0  0  0  0  0  0  0  0  0  0  0
  -28.0830  -18.5930   15.2620 O   0  0  0  0  0  0  0  0  0  0  0  0
  -27.6410  -18.8330   18.3600 H   0  0  0  0  0  0  0  0  0  0  0  0
  -26.5140  -18.2910   17.1500 H   0  0  0  0  0  0  0  0  0  0  0  0
  -29.4230  -19.5640   19.3550 N   0  0  0  0  0  0  0  0  0  0  0  0
  -28.4770  -19.2110   19.4320 H   0  0  0  0  0  0  0  0  0  0  0  0
  -29.8030  -19.8830   20.2360 H   0  0  0  0  0  0  0  0  0  0  0  0
  2  1  2  0
  3  5  1  0
  3  6  1  0
  4  1  1  0
  4  8  1  0
  6 56  2  3
  6  2  1  0
  7  5  1  0
  8 10  2  0
  8  9  1  0
  9 11  1  0
  9 12  1  0
 12 13  1  0
 13 14  1  0
 14 15  1  0
 16 27  2  0
 16 26  1  0
 17 22  1  0
 17 15  1  0
 18 28  1  0
 18 25  1  0
 19 24  1  0
 19 25  1  0
 20 26  1  0
 21 20  1  0
 21 19  1  0
 22 21  2  0
 23 17  1  0
 23 24  2  0
 26 18  1  0
 28 30  2  0
 29 31  1  0
 29 28  1  0
 32 37  1  0
 33 34  1  0
 33 29  2  0
 35 34  1  0
 36 32  1  0
 37 38  2  0
 37 33  1  0
 39 38  1  0
 40 39  2  0
 41 40  1  0
 41 32  2  0
 42 16  1  0
 42 52  1  0
 43 42  1  0
 44 48  1  0
 44 43  1  0
 44 45  1  0
 45 55  1  0
 46 43  1  0
 48 47  1  0
 48 50  1  0
 49 50  1  0
 50 51  1  0
 52 53  1  1
 54 52  1  0
 55 52  1  0
 56 57  1  0
 56 58  1  0
 58 59  1  0
 59 60  1  0
 60 61  2  0
 61 62  1  0
 62 63  1  0
 64 63  1  0
 64 65  1  0
 65 66  1  0
 66 73  2  0
 67 72  1  0
 68 67  1  0
 69 70  1  0
 69 68  1  0
 70 77  1  0
 70 71  1  0
 71 72  1  0
 72 66  1  0
 74 99  1  0
 75 74  2  0
 76 78  2  0
 76 75  1  0
 77 74  1  0
 78 77  1  0
 79 76  1  0
 80 79  2  0
 81 80  1  0
 82 81  2  0
 82 83  1  0
 83 84  2  0
 84 79  1  0
 85 82  1  0
 86 87  1  0
 86 85  1  0
 88 87  2  0
 89 88  1  0
 90 89  2  0
 90 91  1  0
 91 86  2  0
 92 91  1  0
 93 89  1  0
 94 75  1  0
 94 95  1  0
 95 97  1  0
 96 94  2  0
 98 95  1  0
 99100  1  0
 99101  1  0
M  ISO  4  14 101  15 101  65 100  66 100
M  END
>  <TORSDO>  (49) 
F 29

>  <SCORE>  (49) 
-4.358

>  <name>  (49) 
48

>  <ligand_id>  (49) 
48

>  <original_smiles>  (49) 
[H]c1c([H])c([H])c2c(c1[H])C([H])([H])C([H])([H])C([H])([H])C2([H])N([H])C(=O)C1([H])N(C(=O)C([H])(N([H])C(=O)C([H])(N([H])C([H])([H])[H])C([H])([H])[H])C(C([H])([H])[H])(C([H])([H])[H])C([H])([H])[H])C([H])([H])c2c([H])c(OC([H])([H])C([H])([H])C([H])([H])N([H])C(=O)c3c([H])c([H])c(N([H])C([H])([H])C([H])([H])C([H])([H])C([H])([H])C([H])([H])C([H])([H])C([H])([H])C([H])([H])C(=O)N4C([H])([H])C([H])([H])C([H])([H])C([H])(n5nc(-c6c([H])c([H])c(Oc7c([H])c([H])c(F)c([H])c7F)c([H])c6[H])c(C(=O)N([H])[H])c5N([H])[H])C4([H])[H])c([H])c3C([H])([H])[H])c([H])c([H])c2C1([H])[H]

>  <smiles>  (49) 
[H]c1c([H])c([H])c2c(c1[H])C([H])([H])C([H])([H])C([H])([H])C2([H])N([H])C(=O)C1([H])N(C(=O)C([H])(N([H])C(=O)C([H])(N([H])C([H])([H])[H])C([H])([H])[H])C(C([H])([H])[H])(C([H])([H])[H])C([H])([H])[H])C([H])([H])c2c([H])c(OC([H])([H])C([H])([H])C([H])([H])N([H])C(=O)c3c([H])c([H])c(N([H])C([H])([H])C([H])([H])C([H])([H])C([H])([H])C([H])([H])C([H])([H])C([H])([H])C([H])([H])C(=O)N4C([H])([H])C([H])([H])C([H])([H])C([H])(n5nc(-c6c([H])c([H])c(Oc7c([H])c([H])c(F)c([H])c7F)c([H])c6[H])c(C(=O)N([H])[H])c5N([H])[H])C4([H])[H])c([H])c3C([H])([H])[H])c([H])c([H])c2C1([H])[H]

$$$$
49:0:0
     RDKit          3D

 98106  0  0  1  0  0  0  0  0999 V2000
  -30.8040  -24.2940   22.7120 C   0  0  0  0  0  3  0  0  0  0  0  0
  -31.6940  -23.5700   21.8970 C   0  0  0  0  0  3  0  0  0  0  0  0
  -30.1580  -25.6380   20.7910 C   0  0  0  0  0  3  0  0  0  0  0  0
  -29.9780  -25.2790   22.1410 C   0  0  0  0  0  0  0  0  0  0  0  0
  -31.7600  -23.8210   20.5050 C   0  0  0  0  0  0  0  0  0  0  0  0
  -31.0430  -24.9200   19.9620 C   0  0  0  0  0  0  0  0  0  0  0  0
  -31.1240  -25.3030   18.4930 C   0  0  0  0  0  1  0  0  0  0  0  0
  -33.9530  -22.7040   19.8590 C   0  0  0  0  0  1  0  0  0  0  0  0
  -32.4380  -22.7830   19.6070 C   0  0  0  0  0  3  0  0  0  0  0  0
  -31.7820  -21.4630   19.7970 N   0  0  0  0  0  4  0  0  0  0  0  0
  -32.2180  -20.7890   19.1890 H   0  0  0  0  0  0  0  0  0  0  0  0
  -31.9620  -21.1740   20.7420 H   0  0  0  0  0  0  0  0  0  0  0  0
  -30.3080  -21.4100   19.5780 C   0  0  0  0  0  2  0  0  0  0  0  0
  -29.6390  -20.3030   20.4200 C   0  0  0  0  0  2  0  0  0  0  0  0
  -30.1810  -18.9070   20.0960 C   0  0  0  0  0  2  0  0  0  0  0  0
  -29.6600  -17.7720   20.9940 C   0  0  0  0  0  2  0  0  0  0  0  0
  -30.3890  -16.4870   20.5840 C   0  0  0  0  0  2  0  0  0  0  0  0
  -29.8600  -15.1450   21.1330 C   0  0  0  0  0  2  0  0  0  0  0  0
  -30.4700  -13.9730   20.3390 C   0  0  0  0  0  0  0  0  0  0  0  0
  -30.0870  -11.8860   19.0970 C   0  0  0  0  0  2  0  0  0  0  0  0
  -29.0440  -12.1540   17.9940 C   0  0  0  0  0  2  0  0  0  0  0  0
  -27.6190  -11.9500   18.5440 C   0  0  0  0  0  2  0  0  0  0  0  0
  -27.3770  -12.7130   19.8740 C   0  0  0  0  0  3  0  0  0  0  0  0
  -28.5320  -12.4720   20.8730 C   0  0  0  0  0  2  0  0  0  0  0  0
  -29.7960  -12.8050   20.2040 N   0  0  0  0  0  0  0  0  0  0  0  0
  -31.5300  -14.1770   19.7370 O   0  0  0  0  0  0  0  0  0  0  0  0
  -25.0830  -13.2030   20.9320 C   0  0  0  0  0  0  0  0  0  0  0  0
  -24.0530  -12.3810   21.3040 C   0  0  0  0  0  0  0  0  0  0  0  0
  -24.4900  -11.0500   21.0260 C   0  0  0  0  0  0  0  0  0  0  0  0
  -26.0830  -12.3690   20.4600 N   0  0  0  0  0  0  0  0  0  0  0  0
  -25.7370  -11.0600   20.5710 N   0  0  0  0  0  0  0  0  0  0  0  0
  -23.7740   -9.7700   21.1120 C   0  0  0  0  0  0  0  0  0  0  0  0
  -24.2440   -8.7140   21.9240 C   0  0  0  0  0  3  0  0  0  0  0  0
  -23.5290   -7.4990   22.0040 C   0  0  0  0  0  3  0  0  0  0  0  0
  -22.3290   -7.3330   21.2720 C   0  0  0  0  0  0  0  0  0  0  0  0
  -21.8760   -8.3800   20.4500 C   0  0  0  0  0  3  0  0  0  0  0  0
  -22.5930   -9.5850   20.3670 C   0  0  0  0  0  3  0  0  0  0  0  0
  -21.5820   -6.1800   21.2710 O   0  0  0  0  0  0  0  0  0  0  0  0
  -21.5270   -5.3560   22.3660 C   0  0  0  0  0  0  0  0  0  0  0  0
  -21.0390   -5.8060   23.6130 C   0  0  0  0  0  3  0  0  0  0  0  0
  -20.9330   -4.9080   24.6930 C   0  0  0  0  0  3  0  0  0  0  0  0
  -21.3020   -3.5600   24.5280 C   0  0  0  0  0  0  0  0  0  0  0  0
  -21.7830   -3.1090   23.2860 C   0  0  0  0  0  3  0  0  0  0  0  0
  -21.8910   -4.0040   22.2070 C   0  0  0  0  0  0  0  0  0  0  0  0
  -22.3340   -3.5600   21.0060 F   0  0  0  0  0  0  0  0  0  0  0  0
  -21.1930   -2.6940   25.5610 F   0  0  0  0  0  0  0  0  0  0  0  0
  -22.7010  -12.8080   21.7990 C   0  0  0  0  0  0  0  0  0  0  0  0
  -22.0610  -11.9840   22.6220 N   0  0  0  0  0  0  0  0  0  0  0  0
  -22.2260  -13.9010   21.4970 O   0  0  0  0  0  0  0  0  0  0  0  0
  -22.4570  -11.0940   22.8860 H   0  0  0  0  0  0  0  0  0  0  0  0
  -21.1580  -12.2480   22.9940 H   0  0  0  0  0  0  0  0  0  0  0  0
  -25.2460  -14.5860   20.9360 N   0  0  0  0  0  0  0  0  0  0  0  0
  -24.5120  -15.2230   21.2280 H   0  0  0  0  0  0  0  0  0  0  0  0
  -26.0710  -15.0630   20.5940 H   0  0  0  0  0  0  0  0  0  0  0  0
  -28.8790  -25.8580   22.9160 C   0  0  0  0  0  3  0  0  0  0  0  0
  -27.5850  -25.8310   22.5440 C   0  0  0  0  0  3  0  0  0  0  0  0
  -26.9950  -25.1440   21.3120 C   0  0  0  0  0  2  0  0  0  0  0  0
  -26.9440  -26.0080   20.1810 O   0  0  0  0  0  0  0  0  0  0  0  0
  -24.2120  -31.7400   23.3110 C   0  0  0  0  0  0  0  0  0  0  0  0
  -25.9020  -26.8960   20.2230 C   0  0  0  0  0  0  0  0  0  0  0  0
  -22.6720  -30.4920   21.8270 C   0  0  0  0  0  3  0  0  0  0  0  0
  -23.7580  -28.7130   20.3540 C   0  0  0  0  0  0  0  0  0  0  0  0
  -25.1940  -30.4710   21.4060 C   0  0  0  0  0  2  0  0  0  0  0  0
  -25.0240  -29.0880   20.8220 C   0  0  0  0  0  0  0  0  0  0  0  0
  -26.1050  -28.1870   20.7470 C   0  0  0  0  0  3  0  0  0  0  0  0
  -24.6280  -26.5210   19.7510 C   0  0  0  0  0  3  0  0  0  0  0  0
  -23.5510  -27.4280   19.8200 C   0  0  0  0  0  3  0  0  0  0  0  0
  -22.6580  -29.7450   20.4650 C   0  0  0  0  0  2  0  0  0  0  0  0
  -24.0520  -30.9130   22.2400 N   0  0  0  0  0  0  0  0  0  0  0  0
  -23.2350  -32.1960   23.9220 O   0  0  0  0  0  0  0  0  0  0  0  0
  -21.9600  -29.6120   22.8780 C   0  0  0  0  0  0  0  0  0  0  0  0
  -20.6460  -29.4120   22.6900 N   0  0  0  0  0  0  0  0  0  0  0  0
  -22.5860  -29.1080   23.8150 O   0  0  0  0  0  0  0  0  0  0  0  0
  -20.2090  -29.8650   21.8990 H   0  0  0  0  0  0  0  0  0  0  0  0
  -17.2930  -28.0910   22.9720 C   0  0  0  0  0  0  0  0  0  0  0  0
  -19.7700  -28.5900   23.5240 C   0  0  0  0  0  3  0  0  0  0  0  0
  -20.0200  -27.0860   23.2760 C   0  0  0  0  0  2  0  0  0  0  0  0
  -19.0910  -26.4830   22.2150 C   0  0  0  0  0  2  0  0  0  0  0  0
  -17.6260  -26.6500   22.6270 C   0  0  0  0  0  2  0  0  0  0  0  0
  -18.3030  -29.0070   23.3780 C   0  0  0  0  0  0  0  0  0  0  0  0
  -17.9430  -30.3440   23.6540 C   0  0  0  0  0  3  0  0  0  0  0  0
  -16.6080  -30.7690   23.5380 C   0  0  0  0  0  3  0  0  0  0  0  0
  -15.6110  -29.8560   23.1510 C   0  0  0  0  0  3  0  0  0  0  0  0
  -15.9540  -28.5210   22.8730 C   0  0  0  0  0  3  0  0  0  0  0  0
  -25.6290  -32.1760   23.8020 C   0  0  0  0  0  3  0  0  0  0  0  0
  -26.1650  -31.3070   25.0060 C   0  0  1  0  0  0  0  0  0  0  0  0
  -25.1340  -31.1230   26.1440 C   0  0  0  0  0  1  0  0  0  0  0  0
  -26.5890  -29.9010   24.5230 C   0  0  0  0  0  1  0  0  0  0  0  0
  -27.4320  -31.9630   25.5980 C   0  0  0  0  0  1  0  0  0  0  0  0
  -25.5490  -33.5940   24.1760 N   0  0  0  0  0  0  0  0  0  0  0  0
  -25.9780  -34.6060   23.4100 C   0  0  0  0  0  0  0  0  0  0  0  0
  -26.5590  -34.4350   22.3350 O   0  0  0  0  0  0  0  0  0  0  0  0
  -25.0340  -33.8140   25.0160 H   0  0  0  0  0  0  0  0  0  0  0  0
  -24.5190  -36.6410   23.1810 C   0  0  0  0  0  1  0  0  0  0  0  0
  -25.7240  -36.0360   23.9190 C   0  0  0  0  0  3  0  0  0  0  0  0
  -28.0040  -36.5790   24.6550 C   0  0  0  0  0  1  0  0  0  0  0  0
  -26.8940  -36.9280   23.7710 N   0  0  0  0  0  0  0  0  0  0  0  0
  -26.6360  -37.8930   23.9520 H   0  0  0  0  0  0  0  0  0  0  0  0
  2  1  2  0
  3  4  2  0
  4  1  1  0
  4 55  1  0
  5  2  1  0
  6  5  2  0
  6  3  1  0
  7  6  1  0
  9 10  1  0
  9  8  1  0
  9  5  1  0
 10 12  1  0
 11 10  1  0
 13 10  1  0
 13 14  1  0
 15 14  1  0
 15 16  1  0
 17 16  1  0
 17 18  1  0
 19 18  1  0
 20 25  1  0
 21 22  1  0
 21 20  1  0
 23 22  1  0
 23 30  1  0
 23 24  1  0
 25 19  1  0
 25 24  1  0
 26 19  2  0
 27 52  1  0
 27 28  2  0
 28 47  1  0
 29 32  1  0
 29 28  1  0
 30 31  1  0
 30 27  1  0
 31 29  2  0
 32 33  1  0
 33 34  2  0
 35 34  1  0
 36 35  2  0
 37 36  1  0
 37 32  2  0
 38 35  1  0
 38 39  1  0
 39 40  1  0
 40 41  2  0
 42 41  1  0
 42 46  1  0
 43 42  2  0
 44 39  2  0
 44 43  1  0
 45 44  1  0
 47 48  1  0
 48 50  1  0
 48 51  1  0
 49 47  2  0
 52 53  1  0
 54 52  1  0
 56 55  2  0
 57 56  1  0
 58 60  1  0
 58 57  1  0
 59 70  2  0
 60 65  1  0
 61 69  1  0
 61 71  1  0
 62 68  1  0
 62 64  1  0
 63 69  1  0
 64 63  1  0
 65 64  2  0
 66 67  1  0
 66 60  2  0
 67 62  2  0
 68 61  1  0
 69 59  1  0
 71 73  2  0
 72 71  1  0
 74 72  1  0
 75 80  1  0
 76 72  1  0
 77 76  1  0
 78 79  1  0
 78 77  1  0
 79 75  1  0
 80 76  1  0
 80 81  2  0
 82 81  1  0
 83 82  2  0
 84 75  2  0
 84 83  1  0
 85 59  1  0
 85 90  1  0
 85 86  1  0
 86 89  1  1
 86 87  1  0
 88 86  1  0
 90 93  1  0
 91 95  1  0
 91 90  1  0
 92 91  2  0
 95 94  1  0
 97 95  1  0
 97 98  1  0
 97 96  1  0
M  ISO  4  18 100  19 100  57 101  58 101
M  END
>  <TORSDO>  (50) 
F 26

>  <SCORE>  (50) 
-6.490

>  <name>  (50) 
49

>  <ligand_id>  (50) 
49

>  <original_smiles>  (50) 
[H]C(=C([H])C([H])([H])Oc1c([H])c([H])c2c(c1[H])C([H])([H])N(C(=O)C([H])(N([H])C(=O)C([H])(N([H])C([H])([H])[H])C([H])([H])[H])C(C([H])([H])[H])(C([H])([H])[H])C([H])([H])[H])C([H])(C(=O)N([H])C1([H])c3c([H])c([H])c([H])c([H])c3C([H])([H])C([H])([H])C1([H])[H])C2([H])[H])c1c([H])c([H])c(C([H])(C([H])([H])[H])[N+]([H])([H])C([H])([H])C([H])([H])C([H])([H])C([H])([H])C([H])([H])C([H])([H])C(=O)N2C([H])([H])C([H])([H])C([H])([H])C([H])(n3nc(-c4c([H])c([H])c(Oc5c([H])c([H])c(F)c([H])c5F)c([H])c4[H])c(C(=O)N([H])[H])c3N([H])[H])C2([H])[H])c(C([H])([H])[H])c1[H]

>  <smiles>  (50) 
[H]C(=C([H])C([H])([H])Oc1c([H])c([H])c2c(c1[H])C([H])([H])N(C(=O)C([H])(N([H])C(=O)C([H])(N([H])C([H])([H])[H])C([H])([H])[H])C(C([H])([H])[H])(C([H])([H])[H])C([H])([H])[H])C([H])(C(=O)N([H])C1([H])c3c([H])c([H])c([H])c([H])c3C([H])([H])C([H])([H])C1([H])[H])C2([H])[H])c1c([H])c([H])c(C([H])(C([H])([H])[H])[N+]([H])([H])C([H])([H])C([H])([H])C([H])([H])C([H])([H])C([H])([H])C([H])([H])C(=O)N2C([H])([H])C([H])([H])C([H])([H])C([H])(n3nc(-c4c([H])c([H])c(Oc5c([H])c([H])c(F)c([H])c5F)c([H])c4[H])c(C(=O)N([H])[H])c3N([H])[H])C2([H])[H])c(C([H])([H])[H])c1[H]

$$$$
50:0:0
     RDKit          3D

 91 98  0  0  1  0  0  0  0  0999 V2000
  -29.1680  -24.3960   20.5190 C   0  0  0  0  0  3  0  0  0  0  0  0
  -29.8900  -23.4720   21.1990 C   0  0  0  0  0  0  0  0  0  0  0  0
  -28.6010  -25.7000   21.0690 C   0  0  0  0  0  2  0  0  0  0  0  0
  -28.6580  -26.7720   20.1220 O   0  0  0  0  0  0  0  0  0  0  0  0
  -24.8600  -31.7920   23.4350 C   0  0  0  0  0  0  0  0  0  0  0  0
  -27.5210  -27.5410   20.1330 C   0  0  0  0  0  0  0  0  0  0  0  0
  -23.6690  -30.5030   21.6900 C   0  0  0  0  0  3  0  0  0  0  0  0
  -25.1370  -29.0450   20.1950 C   0  0  0  0  0  0  0  0  0  0  0  0
  -26.1980  -30.8600   21.5520 C   0  0  0  0  0  2  0  0  0  0  0  0
  -26.2870  -29.5300   20.8320 C   0  0  0  0  0  0  0  0  0  0  0  0
  -27.4860  -28.7850   20.8000 C   0  0  0  0  0  3  0  0  0  0  0  0
  -26.3610  -27.0660   19.4890 C   0  0  0  0  0  3  0  0  0  0  0  0
  -25.1670  -27.8110   19.5210 C   0  0  0  0  0  3  0  0  0  0  0  0
  -23.8950  -29.9050   20.2750 C   0  0  0  0  0  2  0  0  0  0  0  0
  -24.9260  -31.0620   22.2860 N   0  0  0  0  0  0  0  0  0  0  0  0
  -23.7720  -32.0400   23.9740 O   0  0  0  0  0  0  0  0  0  0  0  0
  -22.9950  -29.4310   22.5760 C   0  0  0  0  0  0  0  0  0  0  0  0
  -21.6780  -29.2450   22.3900 N   0  0  0  0  0  0  0  0  0  0  0  0
  -23.6550  -28.7720   23.3850 O   0  0  0  0  0  0  0  0  0  0  0  0
  -21.2080  -29.8310   21.7140 H   0  0  0  0  0  0  0  0  0  0  0  0
  -18.3130  -27.9570   22.6530 C   0  0  0  0  0  0  0  0  0  0  0  0
  -20.8420  -28.2650   23.0830 C   0  0  0  0  0  3  0  0  0  0  0  0
  -21.0130  -26.8560   22.4710 C   0  0  0  0  0  2  0  0  0  0  0  0
  -19.9800  -26.5390   21.3840 C   0  0  0  0  0  2  0  0  0  0  0  0
  -18.5610  -26.6340   21.9490 C   0  0  0  0  0  2  0  0  0  0  0  0
  -19.3850  -28.7310   23.1710 C   0  0  0  0  0  0  0  0  0  0  0  0
  -19.1020  -29.9700   23.7840 C   0  0  0  0  0  3  0  0  0  0  0  0
  -17.7780  -30.4380   23.8860 C   0  0  0  0  0  3  0  0  0  0  0  0
  -16.7190  -29.6610   23.3870 C   0  0  0  0  0  3  0  0  0  0  0  0
  -16.9860  -28.4220   22.7750 C   0  0  0  0  0  3  0  0  0  0  0  0
  -26.1420  -32.3710   24.1120 C   0  0  0  0  0  3  0  0  0  0  0  0
  -26.6190  -31.5300   25.3600 C   0  0  1  0  0  0  0  0  0  0  0  0
  -25.5000  -31.2610   26.3930 C   0  0  0  0  0  1  0  0  0  0  0  0
  -27.1870  -30.1630   24.9110 C   0  0  0  0  0  1  0  0  0  0  0  0
  -27.7690  -32.2700   26.0820 C   0  0  0  0  0  1  0  0  0  0  0  0
  -25.8490  -33.7570   24.4990 N   0  0  0  0  0  0  0  0  0  0  0  0
  -26.2140  -34.8360   23.7930 C   0  0  0  0  0  0  0  0  0  0  0  0
  -26.9030  -34.7660   22.7720 O   0  0  0  0  0  0  0  0  0  0  0  0
  -25.2420  -33.8860   25.2950 H   0  0  0  0  0  0  0  0  0  0  0  0
  -24.5100  -36.6600   23.4940 C   0  0  0  0  0  1  0  0  0  0  0  0
  -25.7390  -36.2110   24.3000 C   0  0  0  0  0  3  0  0  0  0  0  0
  -27.8760  -37.0340   25.1860 C   0  0  0  0  0  1  0  0  0  0  0  0
  -26.7860  -37.2540   24.2390 N   0  0  0  0  0  0  0  0  0  0  0  0
  -26.3890  -38.1730   24.4200 H   0  0  0  0  0  0  0  0  0  0  0  0
  -30.4040  -22.2000   20.5160 C   0  0  0  0  0  2  0  0  0  0  0  0
  -29.9290  -20.8620   21.1350 C   0  0  0  0  0  2  0  0  0  0  0  0
  -30.5320  -19.6250   20.4360 C   0  0  0  0  0  2  0  0  0  0  0  0
  -30.0870  -18.2830   21.0580 C   0  0  0  0  0  2  0  0  0  0  0  0
  -30.7710  -17.0620   20.4070 C   0  0  0  0  0  2  0  0  0  0  0  0
  -30.2830  -15.6910   20.9470 C   0  0  0  0  0  2  0  0  0  0  0  0
  -30.8990  -14.4860   20.1970 C   0  0  0  0  0  0  0  0  0  0  0  0
  -30.5160  -12.3460   19.0300 C   0  0  0  0  0  2  0  0  0  0  0  0
  -29.5220  -12.5760   17.8730 C   0  0  0  0  0  2  0  0  0  0  0  0
  -28.0680  -12.4560   18.3690 C   0  0  0  0  0  2  0  0  0  0  0  0
  -27.8030  -13.2920   19.6500 C   0  0  0  0  0  3  0  0  0  0  0  0
  -28.9040  -13.0440   20.7060 C   0  0  0  0  0  2  0  0  0  0  0  0
  -30.2050  -13.3230   20.0820 N   0  0  0  0  0  0  0  0  0  0  0  0
  -31.9850  -14.6550   19.6330 O   0  0  0  0  0  0  0  0  0  0  0  0
  -25.4580  -13.9380   20.4960 C   0  0  0  0  0  0  0  0  0  0  0  0
  -24.3880  -13.1810   20.8920 C   0  0  0  0  0  0  0  0  0  0  0  0
  -24.8110  -11.8190   20.7940 C   0  0  0  0  0  0  0  0  0  0  0  0
  -26.4670  -13.0390   20.1860 N   0  0  0  0  0  0  0  0  0  0  0  0
  -26.0830  -11.7570   20.4210 N   0  0  0  0  0  0  0  0  0  0  0  0
  -24.0610  -10.5700   20.9790 C   0  0  0  0  0  0  0  0  0  0  0  0
  -24.5080   -9.5640   21.8660 C   0  0  0  0  0  3  0  0  0  0  0  0
  -23.7610   -8.3800   22.0400 C   0  0  0  0  0  3  0  0  0  0  0  0
  -22.5530   -8.1920   21.3260 C   0  0  0  0  0  0  0  0  0  0  0  0
  -22.1250   -9.1850   20.4280 C   0  0  0  0  0  3  0  0  0  0  0  0
  -22.8730  -10.3610   20.2520 C   0  0  0  0  0  3  0  0  0  0  0  0
  -21.7740   -7.0630   21.4130 O   0  0  0  0  0  0  0  0  0  0  0  0
  -21.7380   -6.3000   22.5520 C   0  0  0  0  0  0  0  0  0  0  0  0
  -21.3620   -6.8420   23.8000 C   0  0  0  0  0  3  0  0  0  0  0  0
  -21.2700   -6.0060   24.9320 C   0  0  0  0  0  3  0  0  0  0  0  0
  -21.5440   -4.6310   24.8170 C   0  0  0  0  0  0  0  0  0  0  0  0
  -21.9130   -4.0880   23.5730 C   0  0  0  0  0  3  0  0  0  0  0  0
  -22.0070   -4.9210   22.4440 C   0  0  0  0  0  0  0  0  0  0  0  0
  -22.3430   -4.3880   21.2440 F   0  0  0  0  0  0  0  0  0  0  0  0
  -21.4480   -3.8260   25.9010 F   0  0  0  0  0  0  0  0  0  0  0  0
  -23.0190  -13.6830   21.2520 C   0  0  0  0  0  0  0  0  0  0  0  0
  -22.3240  -12.9840   22.1440 N   0  0  0  0  0  0  0  0  0  0  0  0
  -22.5770  -14.7280   20.7780 O   0  0  0  0  0  0  0  0  0  0  0  0
  -22.6960  -12.1370   22.5470 H   0  0  0  0  0  0  0  0  0  0  0  0
  -21.4080  -13.3010   22.4260 H   0  0  0  0  0  0  0  0  0  0  0  0
  -25.6500  -15.3100   20.3550 N   0  0  0  0  0  0  0  0  0  0  0  0
  -24.9100  -15.9820   20.5250 H   0  0  0  0  0  0  0  0  0  0  0  0
  -26.5020  -15.7360   20.0120 H   0  0  0  0  0  0  0  0  0  0  0  0
  -30.2680  -23.6300   22.6720 C   0  0  0  0  0  2  0  0  0  0  0  0
  -29.7740  -22.8010   24.9540 C   0  0  0  0  0  1  0  0  0  0  0  0
  -29.3850  -22.8170   23.5310 N   0  0  0  0  0  4  0  0  0  0  0  0
  -28.4420  -23.1640   23.4610 H   0  0  0  0  0  0  0  0  0  0  0  0
  -29.3850  -21.8690   23.1910 H   0  0  0  0  0  0  0  0  0  0  0  0
  1  3  1  0
  1  2  2  0
  2 87  1  0
  4  6  1  0
  4  3  1  0
  5 16  2  0
  6 11  1  0
  7 15  1  0
  7 17  1  0
  8 14  1  0
  8 10  1  0
  9 15  1  0
 10  9  1  0
 11 10  2  0
 12 13  1  0
 12  6  2  0
 13  8  2  0
 14  7  1  0
 15  5  1  0
 17 19  2  0
 18 17  1  0
 20 18  1  0
 21 30  2  0
 21 26  1  0
 22 18  1  0
 22 26  1  0
 23 22  1  0
 24 25  1  0
 24 23  1  0
 25 21  1  0
 26 27  2  0
 27 28  1  0
 29 28  2  0
 30 29  1  0
 31  5  1  0
 31 36  1  0
 31 32  1  0
 32 35  1  1
 32 33  1  0
 34 32  1  0
 36 39  1  0
 37 41  1  0
 37 36  1  0
 38 37  2  0
 41 40  1  0
 43 41  1  0
 43 44  1  0
 43 42  1  0
 45 46  1  0
 45  2  1  0
 47 48  1  0
 47 46  1  0
 49 50  1  0
 49 48  1  0
 51 50  1  0
 52 57  1  0
 53 54  1  0
 53 52  1  0
 55 54  1  0
 55 62  1  0
 55 56  1  0
 57 51  1  0
 57 56  1  0
 58 51  2  0
 59 60  2  0
 60 79  1  0
 61 60  1  0
 61 64  1  0
 62 63  1  0
 62 59  1  0
 63 61  2  0
 64 65  1  0
 65 66  2  0
 67 70  1  0
 67 66  1  0
 68 67  2  0
 69 68  1  0
 69 64  2  0
 70 71  1  0
 71 72  1  0
 72 73  2  0
 74 73  1  0
 74 78  1  0
 75 74  2  0
 76 71  2  0
 76 75  1  0
 77 76  1  0
 79 80  1  0
 80 83  1  0
 80 82  1  0
 81 79  2  0
 84 59  1  0
 84 85  1  0
 86 84  1  0
 87 89  1  0
 89 88  1  0
 90 89  1  0
 91 89  1  0
M  ISO  4   3 101   4 101  50 100  51 100
M  END
>  <TORSDO>  (51) 
F 25

>  <SCORE>  (51) 
-11.033

>  <name>  (51) 
50

>  <ligand_id>  (51) 
50

>  <original_smiles>  (51) 
[H]C(=C(C([H])([H])C([H])([H])C([H])([H])C([H])([H])C([H])([H])C([H])([H])C(=O)N1C([H])([H])C([H])([H])C([H])([H])C([H])(n2nc(-c3c([H])c([H])c(Oc4c([H])c([H])c(F)c([H])c4F)c([H])c3[H])c(C(=O)N([H])[H])c2N([H])[H])C1([H])[H])C([H])([H])[N+]([H])([H])C([H])([H])[H])C([H])([H])Oc1c([H])c([H])c2c(c1[H])C([H])([H])N(C(=O)C([H])(N([H])C(=O)C([H])(N([H])C([H])([H])[H])C([H])([H])[H])C(C([H])([H])[H])(C([H])([H])[H])C([H])([H])[H])C([H])(C(=O)N([H])C1([H])c3c([H])c([H])c([H])c([H])c3C([H])([H])C([H])([H])C1([H])[H])C2([H])[H]

>  <smiles>  (51) 
[H]C(=C(C([H])([H])C([H])([H])C([H])([H])C([H])([H])C([H])([H])C([H])([H])C(=O)N1C([H])([H])C([H])([H])C([H])([H])C([H])(n2nc(-c3c([H])c([H])c(Oc4c([H])c([H])c(F)c([H])c4F)c([H])c3[H])c(C(=O)N([H])[H])c2N([H])[H])C1([H])[H])C([H])([H])[N+]([H])([H])C([H])([H])[H])C([H])([H])Oc1c([H])c([H])c2c(c1[H])C([H])([H])N(C(=O)C([H])(N([H])C(=O)C([H])(N([H])C([H])([H])[H])C([H])([H])[H])C(C([H])([H])[H])(C([H])([H])[H])C([H])([H])[H])C([H])(C(=O)N([H])C1([H])c3c([H])c([H])c([H])c([H])c3C([H])([H])C([H])([H])C1([H])[H])C2([H])[H]

$$$$
51:0:0
     RDKit          3D

 93102  0  0  1  0  0  0  0  0999 V2000
  -28.4760  -22.5720   20.1330 C   0  0  0  0  0  3  0  0  0  0  0  0
  -30.6770  -22.6760   21.1640 C   0  0  0  0  0  3  0  0  0  0  0  0
  -28.3000  -21.2680   20.6410 C   0  0  0  0  0  3  0  0  0  0  0  0
  -30.4990  -21.3720   21.6740 C   0  0  0  0  0  3  0  0  0  0  0  0
  -29.6620  -23.3010   20.4000 C   0  0  0  0  0  0  0  0  0  0  0  0
  -29.3080  -20.6630   21.4210 C   0  0  0  0  0  0  0  0  0  0  0  0
  -29.8710  -24.6970   19.8930 C   0  0  0  0  0  0  0  0  0  0  0  0
  -30.9380  -25.3080   20.0280 O   0  0  0  0  0  0  0  0  0  0  0  0
  -28.6760  -25.3860   19.2140 C   0  0  0  0  0  2  0  0  0  0  0  0
  -28.7400  -26.8160   19.3480 O   0  0  0  0  0  0  0  0  0  0  0  0
  -24.6990  -31.3870   22.9830 C   0  0  0  0  0  0  0  0  0  0  0  0
  -27.5320  -27.4780   19.3990 C   0  0  0  0  0  0  0  0  0  0  0  0
  -23.5500  -30.1300   21.1910 C   0  0  0  0  0  3  0  0  0  0  0  0
  -25.0650  -28.8490   19.5910 C   0  0  0  0  0  0  0  0  0  0  0  0
  -26.0520  -30.6370   21.0310 C   0  0  0  0  0  2  0  0  0  0  0  0
  -26.2000  -29.3580   20.2350 C   0  0  0  0  0  0  0  0  0  0  0  0
  -27.4360  -28.6800   20.1370 C   0  0  0  0  0  3  0  0  0  0  0  0
  -26.3790  -26.9940   18.7360 C   0  0  0  0  0  3  0  0  0  0  0  0
  -25.1490  -27.6660   18.8390 C   0  0  0  0  0  3  0  0  0  0  0  0
  -23.7800  -29.6300   19.7400 C   0  0  0  0  0  2  0  0  0  0  0  0
  -24.7850  -30.7260   21.7950 N   0  0  0  0  0  0  0  0  0  0  0  0
  -23.6090  -31.5400   23.5540 O   0  0  0  0  0  0  0  0  0  0  0  0
  -22.9600  -28.9690   22.0250 C   0  0  0  0  0  0  0  0  0  0  0  0
  -21.6380  -28.7600   21.9050 N   0  0  0  0  0  0  0  0  0  0  0  0
  -23.6850  -28.2670   22.7340 O   0  0  0  0  0  0  0  0  0  0  0  0
  -21.1120  -29.3850   21.3100 H   0  0  0  0  0  0  0  0  0  0  0  0
  -18.3140  -27.4120   22.3330 C   0  0  0  0  0  0  0  0  0  0  0  0
  -20.8720  -27.7050   22.5660 C   0  0  0  0  0  3  0  0  0  0  0  0
  -20.9920  -26.3670   21.8000 C   0  0  0  0  0  2  0  0  0  0  0  0
  -19.8670  -26.1510   20.7840 C   0  0  0  0  0  2  0  0  0  0  0  0
  -18.5030  -26.1690   21.4800 C   0  0  0  0  0  2  0  0  0  0  0  0
  -19.4270  -28.1420   22.8310 C   0  0  0  0  0  0  0  0  0  0  0  0
  -19.1960  -29.3100   23.5900 C   0  0  0  0  0  3  0  0  0  0  0  0
  -17.8850  -29.7480   23.8560 C   0  0  0  0  0  3  0  0  0  0  0  0
  -16.7880  -29.0140   23.3750 C   0  0  0  0  0  3  0  0  0  0  0  0
  -17.0030  -27.8460   22.6210 C   0  0  0  0  0  3  0  0  0  0  0  0
  -25.9580  -32.0030   23.6700 C   0  0  0  0  0  3  0  0  0  0  0  0
  -26.5040  -31.1310   24.8660 C   0  0  1  0  0  0  0  0  0  0  0  0
  -25.4220  -30.7550   25.9040 C   0  0  0  0  0  1  0  0  0  0  0  0
  -27.1330  -29.8190   24.3420 C   0  0  0  0  0  1  0  0  0  0  0  0
  -27.6280  -31.8970   25.6030 C   0  0  0  0  0  1  0  0  0  0  0  0
  -25.5950  -33.3500   24.1300 N   0  0  0  0  0  0  0  0  0  0  0  0
  -25.8900  -34.4820   23.4760 C   0  0  0  0  0  0  0  0  0  0  0  0
  -26.5690  -34.5030   22.4450 O   0  0  0  0  0  0  0  0  0  0  0  0
  -24.9910  -33.4050   24.9360 H   0  0  0  0  0  0  0  0  0  0  0  0
  -24.0960  -36.2320   23.2770 C   0  0  0  0  0  1  0  0  0  0  0  0
  -25.3460  -35.8000   24.0590 C   0  0  0  0  0  3  0  0  0  0  0  0
  -27.4330  -36.6840   25.0000 C   0  0  0  0  0  1  0  0  0  0  0  0
  -26.3380  -36.8970   24.0590 N   0  0  0  0  0  0  0  0  0  0  0  0
  -25.8940  -37.7840   24.2840 H   0  0  0  0  0  0  0  0  0  0  0  0
  -29.1110  -19.2630   21.9930 C   0  0  0  0  0  2  0  0  0  0  0  0
  -31.5440  -14.6080   19.6400 C   0  0  0  0  0  0  0  0  0  0  0  0
  -31.0590  -12.4700   18.5160 C   0  0  0  0  0  2  0  0  0  0  0  0
  -29.9930  -12.6940   17.4250 C   0  0  0  0  0  2  0  0  0  0  0  0
  -28.5770  -12.5710   18.0180 C   0  0  0  0  0  2  0  0  0  0  0  0
  -28.3930  -13.4110   19.3110 C   0  0  0  0  0  3  0  0  0  0  0  0
  -29.5610  -13.1800   20.2930 C   0  0  0  0  0  2  0  0  0  0  0  0
  -30.8200  -13.4580   19.5810 N   0  0  0  0  0  0  0  0  0  0  0  0
  -32.5850  -14.7700   18.9920 O   0  0  0  0  0  0  0  0  0  0  0  0
  -29.8960  -17.9300   19.9500 C   0  0  0  0  0  2  0  0  0  0  0  0
  -30.0950  -16.8970   22.2160 C   0  0  0  0  0  2  0  0  0  0  0  0
  -30.9440  -16.9280   19.4390 C   0  0  0  0  0  2  0  0  0  0  0  0
  -31.1340  -15.9060   21.6500 C   0  0  0  0  0  2  0  0  0  0  0  0
  -30.1150  -18.2290   21.4400 C   0  0  0  0  0  3  0  0  0  0  0  0
  -30.9340  -15.6720   20.2120 N   0  0  0  0  0  0  0  0  0  0  0  0
  -26.1300  -14.0410   20.3620 C   0  0  0  0  0  0  0  0  0  0  0  0
  -25.0870  -13.2790   20.8120 C   0  0  0  0  0  0  0  0  0  0  0  0
  -25.4860  -11.9180   20.6320 C   0  0  0  0  0  0  0  0  0  0  0  0
  -27.1010  -13.1470   19.9400 N   0  0  0  0  0  0  0  0  0  0  0  0
  -26.7230  -11.8600   20.1570 N   0  0  0  0  0  0  0  0  0  0  0  0
  -24.7410  -10.6690   20.8310 C   0  0  0  0  0  0  0  0  0  0  0  0
  -25.1410   -9.7130   21.7900 C   0  0  0  0  0  3  0  0  0  0  0  0
  -24.3980   -8.5280   21.9740 C   0  0  0  0  0  3  0  0  0  0  0  0
  -23.2380   -8.2890   21.1980 C   0  0  0  0  0  0  0  0  0  0  0  0
  -22.8560   -9.2320   20.2280 C   0  0  0  0  0  3  0  0  0  0  0  0
  -23.6010  -10.4100   20.0430 C   0  0  0  0  0  3  0  0  0  0  0  0
  -22.4690   -7.1550   21.2910 O   0  0  0  0  0  0  0  0  0  0  0  0
  -22.2460   -6.5310   22.4930 C   0  0  0  0  0  0  0  0  0  0  0  0
  -21.6800   -7.2150   23.5910 C   0  0  0  0  0  3  0  0  0  0  0  0
  -21.4020   -6.5190   24.7860 C   0  0  0  0  0  3  0  0  0  0  0  0
  -21.6810   -5.1420   24.8800 C   0  0  0  0  0  0  0  0  0  0  0  0
  -22.2380   -4.4590   23.7850 C   0  0  0  0  0  3  0  0  0  0  0  0
  -22.5170   -5.1520   22.5930 C   0  0  0  0  0  0  0  0  0  0  0  0
  -23.0350   -4.4850   21.5340 F   0  0  0  0  0  0  0  0  0  0  0  0
  -21.4070   -4.4720   26.0230 F   0  0  0  0  0  0  0  0  0  0  0  0
  -23.7560  -13.7770   21.2970 C   0  0  0  0  0  0  0  0  0  0  0  0
  -23.1390  -13.0670   22.2340 N   0  0  0  0  0  0  0  0  0  0  0  0
  -23.2770  -14.8310   20.8780 O   0  0  0  0  0  0  0  0  0  0  0  0
  -23.5410  -12.2120   22.5910 H   0  0  0  0  0  0  0  0  0  0  0  0
  -22.2510  -13.3810   22.6000 H   0  0  0  0  0  0  0  0  0  0  0  0
  -26.3280  -15.4150   20.2570 N   0  0  0  0  0  0  0  0  0  0  0  0
  -25.6160  -16.0890   20.5150 H   0  0  0  0  0  0  0  0  0  0  0  0
  -27.1650  -15.8430   19.8810 H   0  0  0  0  0  0  0  0  0  0  0  0
  1  5  2  0
  1  3  1  0
  2  4  2  0
  3  6  2  0
  5  2  1  0
  6  4  1  0
  6 51  1  0
  7  8  2  0
  7  5  1  0
  9 10  1  0
  9  7  1  0
 10 12  1  0
 11 22  2  0
 12 17  1  0
 13 21  1  0
 13 23  1  0
 14 20  1  0
 14 16  1  0
 15 21  1  0
 16 15  1  0
 17 16  2  0
 18 19  1  0
 18 12  2  0
 19 14  2  0
 20 13  1  0
 21 11  1  0
 23 25  2  0
 24 23  1  0
 26 24  1  0
 27 36  2  0
 27 32  1  0
 28 24  1  0
 28 32  1  0
 29 28  1  0
 30 31  1  0
 30 29  1  0
 31 27  1  0
 32 33  2  0
 33 34  1  0
 35 34  2  0
 36 35  1  0
 37 11  1  0
 37 42  1  0
 37 38  1  0
 38 41  1  1
 38 39  1  0
 40 38  1  0
 42 45  1  0
 43 47  1  0
 43 42  1  0
 44 43  2  0
 47 46  1  0
 49 47  1  0
 49 50  1  0
 49 48  1  0
 52 65  1  0
 53 58  1  0
 54 55  1  0
 54 53  1  0
 56 55  1  0
 56 69  1  0
 56 57  1  0
 58 52  1  0
 58 57  1  0
 59 52  2  0
 60 64  1  0
 62 60  1  0
 62 65  1  0
 63 61  1  0
 64 51  1  0
 64 61  1  0
 65 63  1  0
 66 67  2  0
 67 86  1  0
 68 67  1  0
 68 71  1  0
 69 70  1  0
 69 66  1  0
 70 68  2  0
 71 72  1  0
 72 73  2  0
 74 77  1  0
 74 73  1  0
 75 74  2  0
 76 75  1  0
 76 71  2  0
 77 78  1  0
 78 83  2  0
 78 79  1  0
 79 80  2  0
 80 81  1  0
 81 85  1  0
 82 81  2  0
 83 82  1  0
 84 83  1  0
 86 87  1  0
 87 89  1  0
 87 90  1  0
 88 86  2  0
 91 66  1  0
 91 92  1  0
 93 91  1  0
M  ISO  4   9 101  10 101  52 100  65 100
M  END
>  <TORSDO>  (52) 
F 19

>  <SCORE>  (52) 
-9.708

>  <name>  (52) 
51

>  <ligand_id>  (52) 
51

>  <original_smiles>  (52) 
[H]c1c([H])c([H])c2c(c1[H])C([H])([H])C([H])([H])C([H])([H])C2([H])N([H])C(=O)C1([H])N(C(=O)C([H])(N([H])C(=O)C([H])(N([H])C([H])([H])[H])C([H])([H])[H])C(C([H])([H])[H])(C([H])([H])[H])C([H])([H])[H])C([H])([H])c2c([H])c(OC([H])([H])C(=O)c3c([H])c([H])c(C([H])([H])C4([H])C([H])([H])C([H])([H])N(C(=O)N5C([H])([H])C([H])([H])C([H])([H])C([H])(n6nc(-c7c([H])c([H])c(Oc8c([H])c([H])c(F)c([H])c8F)c([H])c7[H])c(C(=O)N([H])[H])c6N([H])[H])C5([H])[H])C([H])([H])C4([H])[H])c([H])c3[H])c([H])c([H])c2C1([H])[H]

>  <smiles>  (52) 
[H]c1c([H])c([H])c2c(c1[H])C([H])([H])C([H])([H])C([H])([H])C2([H])N([H])C(=O)C1([H])N(C(=O)C([H])(N([H])C(=O)C([H])(N([H])C([H])([H])[H])C([H])([H])[H])C(C([H])([H])[H])(C([H])([H])[H])C([H])([H])[H])C([H])([H])c2c([H])c(OC([H])([H])C(=O)c3c([H])c([H])c(C([H])([H])C4([H])C([H])([H])C([H])([H])N(C(=O)N5C([H])([H])C([H])([H])C([H])([H])C([H])(n6nc(-c7c([H])c([H])c(Oc8c([H])c([H])c(F)c([H])c8F)c([H])c7[H])c(C(=O)N([H])[H])c6N([H])[H])C5([H])[H])C([H])([H])C4([H])[H])c([H])c3[H])c([H])c([H])c2C1([H])[H]

$$$$
52:0:0
     RDKit          3D

 92 95  0  0  1  0  0  0  0  0999 V2000
  -23.1690  -26.6150   24.8300 C   0  0  0  0  0  1  0  0  0  0  0  0
  -24.3540  -25.4260   23.8970 C   0  0  0  0  0  3  0  0  0  0  0  0
  -24.8390  -23.5760   23.8330 C   0  0  0  0  0  3  0  0  0  0  0  0
  -26.0700  -22.4060   22.9540 C   0  0  0  0  0  2  0  0  0  0  0  0
  -26.5230  -20.5510   22.8390 C   0  0  0  0  0  3  0  0  0  0  0  0
  -27.7940  -19.4180   21.9760 C   0  0  0  0  0  3  0  0  0  0  0  0
  -29.3240  -16.8510   21.1130 C   0  0  0  0  0  3  0  0  0  0  0  0
  -28.2600  -17.6520   21.8400 C   0  0  0  0  0  0  0  0  0  0  0  0
  -30.1110  -15.3810   20.7520 C   0  0  0  0  0  0  0  0  0  0  0  0
  -30.3630  -12.9470   19.7120 C   0  0  0  0  0  2  0  0  0  0  0  0
  -29.5450  -12.6700   18.4130 C   0  0  0  0  0  2  0  0  0  0  0  0
  -28.0900  -12.3230   18.7600 C   0  0  0  0  0  2  0  0  0  0  0  0
  -27.5590  -13.2740   19.8580 C   0  0  0  0  0  3  0  0  0  0  0  0
  -28.4800  -13.4020   21.0740 C   0  0  0  0  0  2  0  0  0  0  0  0
  -29.6860  -14.0230   20.5770 N   0  0  0  0  0  0  0  0  0  0  0  0
  -31.3200  -15.3970   20.4100 O   0  0  0  0  0  0  0  0  0  0  0  0
  -25.2030  -13.8230   20.5670 C   0  0  0  0  0  0  0  0  0  0  0  0
  -24.1440  -13.0400   20.9200 C   0  0  0  0  0  0  0  0  0  0  0  0
  -24.6120  -11.6900   20.8720 C   0  0  0  0  0  0  0  0  0  0  0  0
  -26.2310  -12.9450   20.3030 N   0  0  0  0  0  0  0  0  0  0  0  0
  -25.8990  -11.6560   20.5600 N   0  0  0  0  0  0  0  0  0  0  0  0
  -23.8910  -10.4270   21.0420 C   0  0  0  0  0  0  0  0  0  0  0  0
  -24.3550   -9.4210   21.9190 C   0  0  0  0  0  3  0  0  0  0  0  0
  -23.6270   -8.2220   22.0740 C   0  0  0  0  0  3  0  0  0  0  0  0
  -22.4250   -8.0240   21.3540 C   0  0  0  0  0  0  0  0  0  0  0  0
  -21.9850   -9.0180   20.4640 C   0  0  0  0  0  3  0  0  0  0  0  0
  -22.7120  -10.2080   20.3050 C   0  0  0  0  0  3  0  0  0  0  0  0
  -21.6620   -6.8840   21.4240 O   0  0  0  0  0  0  0  0  0  0  0  0
  -21.6850   -6.0720   22.5280 C   0  0  0  0  0  0  0  0  0  0  0  0
  -21.4010   -6.5630   23.8210 C   0  0  0  0  0  3  0  0  0  0  0  0
  -21.3660   -5.6790   24.9180 C   0  0  0  0  0  3  0  0  0  0  0  0
  -21.6050   -4.3050   24.7230 C   0  0  0  0  0  0  0  0  0  0  0  0
  -21.8820   -3.8140   23.4360 C   0  0  0  0  0  3  0  0  0  0  0  0
  -21.9190   -4.6940   22.3410 C   0  0  0  0  0  0  0  0  0  0  0  0
  -22.1660   -4.2130   21.0990 F   0  0  0  0  0  0  0  0  0  0  0  0
  -21.5630   -3.4530   25.7750 F   0  0  0  0  0  0  0  0  0  0  0  0
  -22.7520  -13.5170   21.1950 C   0  0  0  0  0  0  0  0  0  0  0  0
  -22.0230  -12.8130   22.0530 N   0  0  0  0  0  0  0  0  0  0  0  0
  -22.3210  -14.5490   20.6820 O   0  0  0  0  0  0  0  0  0  0  0  0
  -22.3890  -11.9790   22.4870 H   0  0  0  0  0  0  0  0  0  0  0  0
  -21.0870  -13.1140   22.2830 H   0  0  0  0  0  0  0  0  0  0  0  0
  -25.3790  -15.1970   20.4250 N   0  0  0  0  0  0  0  0  0  0  0  0
  -24.6350  -15.8640   20.5940 H   0  0  0  0  0  0  0  0  0  0  0  0
  -26.2630  -15.6400   20.2110 H   0  0  0  0  0  0  0  0  0  0  0  0
  -27.4090  -16.9910   22.6340 O   0  0  0  0  0  0  0  0  0  0  0  0
  -26.8260  -17.6300   23.0270 H   0  0  0  0  0  0  0  0  0  0  0  0
  -22.4500  -28.4700   24.9120 C   0  0  0  0  0 15  0  0  0  0  0  0
  -21.6870  -29.8190   23.6260 C   0  0  0  0  0 15  0  0  0  0  0  0
  -21.2890  -29.6390   21.6110 C   0  0  0  0  0 15  0  0  0  0  0  0
  -22.1140  -28.4140   20.2730 C   0  0  0  0  0  1  0  0  0  0  0  0
  -23.6040  -27.1560   20.2400 C   0  0  0  0  0  2  0  0  0  0  0  0
  -25.2850  -26.9450   20.6950 O   0  0  0  0  0  0  0  0  0  0  0  0
  -24.7710  -31.8960   23.2330 C   0  0  0  0  0  0  0  0  0  0  0  0
  -26.5150  -27.3070   20.1210 C   0  0  0  0  0  3  0  0  0  0  0  0
  -23.7950  -30.2150   21.6800 C   0  0  0  0  0  3  0  0  0  0  0  0
  -25.1400  -29.4720   19.7240 C   0  0  0  0  0  3  0  0  0  0  0  0
  -26.2110  -30.7620   21.5590 C   0  0  0  0  0  2  0  0  0  0  0  0
  -26.1920  -29.5690   20.6310 C   0  0  0  0  0  3  0  0  0  0  0  0
  -27.0440  -28.4670   20.7430 C   0  0  0  0  0  2  0  0  0  0  0  0
  -26.1050  -27.4320   18.8240 C   0  0  0  0  0  2  0  0  0  0  0  0
  -25.2010  -28.5060   18.6840 C   0  0  0  0  0  2  0  0  0  0  0  0
  -23.9850  -30.3260   20.1120 C   0  0  0  0  0  2  0  0  0  0  0  0
  -24.9220  -30.9690   22.2460 N   0  0  0  0  0  0  0  0  0  0  0  0
  -23.6760  -32.2920   23.6610 O   0  0  0  0  0  0  0  0  0  0  0  0
  -23.6100  -28.7030   22.4480 C   0  0  0  0  0  0  0  0  0  0  0  0
  -22.4270  -27.7420   22.5970 N   0  0  0  0  0  0  0  0  0  0  0  0
  -24.5130  -28.4540   23.1950 O   0  0  0  0  0  0  0  0  0  0  0  0
  -22.8690  -26.9350   23.0100 H   0  0  0  0  0  0  0  0  0  0  0  0
  -18.0650  -27.9860   22.7560 C   0  0  0  0  0  0  0  0  0  0  0  0
  -20.7560  -27.5510   23.0140 C   0  0  0  0  0  3  0  0  0  0  0  0
  -20.4560  -26.2920   22.2880 C   0  0  0  0  0  2  0  0  0  0  0  0
  -19.3220  -26.4250   21.3030 C   0  0  0  0  0  2  0  0  0  0  0  0
  -18.0360  -26.6650   22.0500 C   0  0  0  0  0  2  0  0  0  0  0  0
  -19.3080  -28.4770   23.2730 C   0  0  0  0  0  0  0  0  0  0  0  0
  -19.0200  -29.6470   24.0960 C   0  0  0  0  0  3  0  0  0  0  0  0
  -17.8060  -30.3850   24.1460 C   0  0  0  0  0  3  0  0  0  0  0  0
  -16.6640  -29.8580   23.5480 C   0  0  0  0  0  3  0  0  0  0  0  0
  -16.8010  -28.6240   22.9020 C   0  0  0  0  0  3  0  0  0  0  0  0
  -26.0230  -32.5100   23.8830 C   0  0  0  0  0  3  0  0  0  0  0  0
  -26.4980  -31.6790   25.1330 C   0  0  1  0  0  0  0  0  0  0  0  0
  -25.3790  -31.4050   26.1650 C   0  0  0  0  0  1  0  0  0  0  0  0
  -27.1030  -30.3130   24.7310 C   0  0  0  0  0  1  0  0  0  0  0  0
  -27.6330  -32.4530   25.8320 C   0  0  0  0  0  1  0  0  0  0  0  0
  -25.6780  -33.8840   24.2660 N   0  0  0  0  0  0  0  0  0  0  0  0
  -25.9240  -34.9600   23.5120 C   0  0  0  0  0  0  0  0  0  0  0  0
  -26.5500  -34.8980   22.4500 O   0  0  0  0  0  0  0  0  0  0  0  0
  -25.1230  -33.9970   25.1010 H   0  0  0  0  0  0  0  0  0  0  0  0
  -24.1540  -36.7290   23.2550 C   0  0  0  0  0  1  0  0  0  0  0  0
  -25.4160  -36.3170   24.0280 C   0  0  0  0  0  3  0  0  0  0  0  0
  -27.5610  -37.1900   24.8470 C   0  0  0  0  0  1  0  0  0  0  0  0
  -26.4310  -37.3890   23.9430 N   0  0  0  0  0  0  0  0  0  0  0  0
  -26.0150  -38.2940   24.1460 H   0  0  0  0  0  0  0  0  0  0  0  0
  2  1  1  0
  3  2  2  0
  4  3  1  0
  5  4  1  0
  6  5  2  0
  7  8  2  0
  8  6  1  0
  8 45  1  0
  9  7  1  0
 10 15  1  0
 11 12  1  0
 11 10  1  0
 13 12  1  0
 13 20  1  0
 13 14  1  0
 15  9  1  0
 15 14  1  0
 16  9  2  0
 17 18  2  0
 18 37  1  0
 19 18  1  0
 19 22  1  0
 20 21  1  0
 20 17  1  0
 21 19  2  0
 22 23  1  0
 23 24  2  0
 25 28  1  0
 25 24  1  0
 26 25  2  0
 27 26  1  0
 27 22  2  0
 28 29  1  0
 29 30  1  0
 30 31  2  0
 32 31  1  0
 32 36  1  0
 33 32  2  0
 34 29  2  0
 34 33  1  0
 35 34  1  0
 37 38  1  0
 38 41  1  0
 38 40  1  0
 39 37  2  0
 42 17  1  0
 42 43  1  0
 44 42  1  0
 45 46  1  0
 51 50  1  0
 51 52  1  0
 53 64  2  0
 54 52  1  0
 54 59  1  0
 55 63  1  0
 55 65  1  0
 56 61  1  0
 56 62  1  0
 56 58  1  0
 57 63  1  0
 58 59  1  0
 58 57  1  0
 60 54  1  0
 61 60  1  0
 62 55  1  0
 63 53  1  0
 65 66  1  0
 65 67  2  0
 66 68  1  0
 69 78  2  0
 69 74  1  0
 70 66  1  0
 70 74  1  0
 71 70  1  0
 72 73  1  0
 72 71  1  0
 73 69  1  0
 74 75  2  0
 75 76  1  0
 77 76  2  0
 78 77  1  0
 79 53  1  0
 79 84  1  0
 79 80  1  0
 80 83  1  1
 80 81  1  0
 82 80  1  0
 84 87  1  0
 85 89  1  0
 85 84  1  0
 86 85  2  0
 89 88  1  0
 91 89  1  0
 91 92  1  0
 91 90  1  0
M  ISO  4   7 100   9 100  51 101  52 101
M  END
>  <TORSDO>  (53) 
F 28

>  <SCORE>  (53) 
14.923

>  <name>  (53) 
52

>  <ligand_id>  (53) 
52

>  <original_smiles>  (53) 
[H]OC(=C([H])C(=O)N1C([H])([H])C([H])([H])C([H])([H])C([H])(n2nc(-c3c([H])c([H])c(Oc4c([H])c([H])c(F)c([H])c4F)c([H])c3[H])c(C(=O)N([H])[H])c2N([H])[H])C1([H])[H])C([H])([H])C([H])([H])C([H])([H])C([H])([H])C([H])([H])C([H])([H])C([H])([H])C([H])([H])C([H])([H])C([H])([H])C([H])([H])Oc1c([H])c([H])c2c(c1[H])C([H])([H])N(C(=O)C([H])(N([H])C(=O)C([H])(N([H])C([H])([H])[H])C([H])([H])[H])C(C([H])([H])[H])(C([H])([H])[H])C([H])([H])[H])C([H])(C(=O)N([H])C1([H])c3c([H])c([H])c([H])c([H])c3C([H])([H])C([H])([H])C1([H])[H])C2([H])[H]

>  <smiles>  (53) 
[H]OC(=C([H])C(=O)N1C([H])([H])C([H])([H])C([H])([H])C([H])(n2nc(-c3c([H])c([H])c(Oc4c([H])c([H])c(F)c([H])c4F)c([H])c3[H])c(C(=O)N([H])[H])c2N([H])[H])C1([H])[H])C([H])([H])C([H])([H])C([H])([H])C([H])([H])C([H])([H])C([H])([H])C([H])([H])C([H])([H])C([H])([H])C([H])([H])C([H])([H])Oc1c([H])c([H])c2c(c1[H])C([H])([H])N(C(=O)C([H])(N([H])C(=O)C([H])(N([H])C([H])([H])[H])C([H])([H])[H])C(C([H])([H])[H])(C([H])([H])[H])C([H])([H])[H])C([H])(C(=O)N([H])C1([H])c3c([H])c([H])c([H])c([H])c3C([H])([H])C([H])([H])C1([H])[H])C2([H])[H]

$$$$
53:0:0
     RDKit          3D

 98103  0  0  1  0  0  0  0  0999 V2000
  -23.3100  -25.4790   26.0940 C   0  0  0  0  0  3  0  0  0  0  0  0
  -22.8910  -26.8690   26.0630 C   0  0  0  0  0  3  0  0  0  0  0  0
  -24.1510  -24.7770   25.1390 C   0  0  0  0  0  3  0  0  0  0  0  0
  -24.3760  -26.8840   24.2190 C   0  0  0  0  0  0  0  0  0  0  0  0
  -23.3270  -27.8040   25.0820 C   0  0  0  0  0  3  0  0  0  0  0  0
  -24.7900  -25.4150   24.0390 C   0  0  0  0  0  0  0  0  0  0  0  0
  -22.4380  -29.6180   24.7640 C   0  0  0  0  0 15  0  0  0  0  0  0
  -21.4460  -30.2990   22.7170 C   0  0  0  0  0 15  0  0  0  0  0  0
  -21.8390  -29.1470   20.8390 C   0  0  0  0  0 15  0  0  0  0  0  0
  -23.4030  -28.1290   20.3110 O   0  0  0  0  0  1  0  0  0  0  0  0
  -25.9790  -31.4540   23.6770 C   0  0  0  0  0  0  0  0  0  0  0  0
  -24.6100  -28.1250   19.4450 C   0  0  0  0  0  3  0  0  0  0  0  0
  -24.1620  -30.4980   22.3690 C   0  0  0  0  0  3  0  0  0  0  0  0
  -24.2380  -30.5560   19.8560 C   0  0  0  0  0  3  0  0  0  0  0  0
  -26.2860  -30.8900   21.2470 C   0  0  0  0  0  2  0  0  0  0  0  0
  -25.5280  -30.1360   20.1710 C   0  0  0  0  0  3  0  0  0  0  0  0
  -25.8030  -28.8180   19.8210 C   0  0  0  0  0  2  0  0  0  0  0  0
  -24.0430  -28.6560   18.3270 C   0  0  0  0  0  2  0  0  0  0  0  0
  -23.5450  -29.9030   18.7740 C   0  0  0  0  0  2  0  0  0  0  0  0
  -23.6460  -31.2660   21.0470 C   0  0  0  0  0  2  0  0  0  0  0  0
  -25.5230  -30.9470   22.5040 N   0  0  0  0  0  0  0  0  0  0  0  0
  -25.2700  -31.6690   24.6790 O   0  0  0  0  0  0  0  0  0  0  0  0
  -24.0200  -28.7900   22.6660 C   0  0  0  0  0  3  0  0  0  0  0  0
  -22.7800  -27.7630   22.4190 N   0  0  0  0  0  0  0  0  0  0  0  0
  -24.8890  -28.4630   23.4150 O   0  0  0  0  0  0  0  0  0  0  0  0
  -23.1630  -26.8390   22.5650 H   0  0  0  0  0  0  0  0  0  0  0  0
  -18.2780  -28.1010   22.9100 C   0  0  0  0  0  0  0  0  0  0  0  0
  -21.0150  -27.5730   22.8380 C   0  0  0  0  0  3  0  0  0  0  0  0
  -20.6230  -26.4340   22.0090 C   0  0  0  0  0  2  0  0  0  0  0  0
  -19.4130  -26.7320   21.1770 C   0  0  0  0  0  2  0  0  0  0  0  0
  -18.1960  -26.8560   22.0830 C   0  0  0  0  0  2  0  0  0  0  0  0
  -19.5850  -28.6090   23.2280 C   0  0  0  0  0  0  0  0  0  0  0  0
  -19.3890  -29.9750   23.7640 C   0  0  0  0  0  3  0  0  0  0  0  0
  -18.1500  -30.6010   24.1090 C   0  0  0  0  0  3  0  0  0  0  0  0
  -16.9390  -29.9630   23.8500 C   0  0  0  0  0  3  0  0  0  0  0  0
  -17.0210  -28.7190   23.2140 C   0  0  0  0  0  3  0  0  0  0  0  0
  -27.4790  -31.7190   23.7860 C   0  0  0  0  0  3  0  0  0  0  0  0
  -27.6370  -33.0590   24.3540 N   0  0  0  0  0  0  0  0  0  0  0  0
  -28.0100  -34.1320   23.6480 C   0  0  0  0  0  0  0  0  0  0  0  0
  -28.3220  -34.0700   22.4550 O   0  0  0  0  0  0  0  0  0  0  0  0
  -27.3580  -33.1880   25.3160 H   0  0  0  0  0  0  0  0  0  0  0  0
  -26.8980  -36.3660   23.9520 C   0  0  0  0  0  1  0  0  0  0  0  0
  -28.0670  -35.4740   24.3930 C   0  0  0  0  0  3  0  0  0  0  0  0
  -30.4820  -35.5110   24.8250 C   0  0  0  0  0  1  0  0  0  0  0  0
  -29.3470  -36.1890   24.2010 N   0  0  0  0  0  0  0  0  0  0  0  0
  -29.2900  -37.1270   24.5860 H   0  0  0  0  0  0  0  0  0  0  0  0
  -28.1760  -30.6210   24.6680 C   0  0  1  0  0  0  0  0  0  0  0  0
  -27.4950  -30.3890   26.0390 C   0  0  0  0  0  1  0  0  0  0  0  0
  -28.2540  -29.2560   23.9430 C   0  0  0  0  0  1  0  0  0  0  0  0
  -29.6340  -31.0430   24.9070 C   0  0  0  0  0  1  0  0  0  0  0  0
  -25.6220  -24.5590   22.6540 C   0  0  0  0  0  2  0  0  0  0  0  0
  -26.5630  -23.1650   22.3060 N   0  0  0  0  0  4  0  0  0  0  0  0
  -25.9160  -22.4300   22.0840 H   0  0  0  0  0  0  0  0  0  0  0  0
  -26.9690  -22.9120   23.1900 H   0  0  0  0  0  0  0  0  0  0  0  0
  -27.8950  -22.9100   21.2460 C   0  0  0  0  0  3  0  0  0  0  0  0
  -28.6910  -21.3120   20.6150 C   0  0  0  0  0  0  0  0  0  0  0  0
  -27.8740  -20.4330   20.3290 O   0  0  0  0  0  0  0  0  0  0  0  0
  -30.3910  -20.7330   20.2910 C   0  0  0  0  0  2  0  0  0  0  0  0
  -31.2200  -19.5050   19.1290 C   0  0  0  0  0  2  0  0  0  0  0  0
  -32.4260  -18.1180   19.0530 C   0  0  0  0  0  0  0  0  0  0  0  0
  -34.8720  -17.0730   18.7520 C   0  0  0  0  0  2  0  0  0  0  0  0
  -35.9130  -17.4700   19.8450 C   0  0  0  0  0  2  0  0  0  0  0  0
  -36.4280  -18.9080   19.6410 C   0  0  0  0  0  2  0  0  0  0  0  0
  -35.2670  -19.8460   19.2410 C   0  0  0  0  0  3  0  0  0  0  0  0
  -34.4480  -19.2990   18.0660 C   0  0  0  0  0  2  0  0  0  0  0  0
  -33.7800  -18.1310   18.5950 N   0  0  0  0  0  0  0  0  0  0  0  0
  -32.1270  -16.9330   19.3370 O   0  0  0  0  0  0  0  0  0  0  0  0
  -35.0550  -22.3640   19.3620 C   0  0  0  0  0  0  0  0  0  0  0  0
  -35.8340  -23.3710   18.8740 C   0  0  0  0  0  0  0  0  0  0  0  0
  -36.9080  -22.7430   18.1710 C   0  0  0  0  0  0  0  0  0  0  0  0
  -35.6780  -21.1990   18.9630 N   0  0  0  0  0  0  0  0  0  0  0  0
  -36.7600  -21.4260   18.1810 N   0  0  0  0  0  0  0  0  0  0  0  0
  -38.1000  -23.3150   17.5370 C   0  0  0  0  0  0  0  0  0  0  0  0
  -38.4550  -22.9950   16.2080 C   0  0  0  0  0  3  0  0  0  0  0  0
  -39.6000  -23.5740   15.6180 C   0  0  0  0  0  3  0  0  0  0  0  0
  -40.3940  -24.4810   16.3580 C   0  0  0  0  0  0  0  0  0  0  0  0
  -40.0460  -24.7770   17.6880 C   0  0  0  0  0  3  0  0  0  0  0  0
  -38.9100  -24.1980   18.2730 C   0  0  0  0  0  3  0  0  0  0  0  0
  -41.5370  -25.0690   15.8780 O   0  0  0  0  0  0  0  0  0  0  0  0
  -41.7450  -25.2470   14.5330 C   0  0  0  0  0  0  0  0  0  0  0  0
  -40.8350  -25.9650   13.7280 C   0  0  0  0  0  3  0  0  0  0  0  0
  -41.1190  -26.1820   12.3650 C   0  0  0  0  0  3  0  0  0  0  0  0
  -42.3170  -25.6930   11.8080 C   0  0  0  0  0  0  0  0  0  0  0  0
  -43.2300  -24.9870   12.6110 C   0  0  0  0  0  3  0  0  0  0  0  0
  -42.9450  -24.7680   13.9700 C   0  0  0  0  0  0  0  0  0  0  0  0
  -43.8350  -24.1010   14.7460 F   0  0  0  0  0  0  0  0  0  0  0  0
  -42.5980  -25.9120   10.5030 F   0  0  0  0  0  0  0  0  0  0  0  0
  -35.6470  -24.8350   19.1360 C   0  0  0  0  0  0  0  0  0  0  0  0
  -36.0610  -25.6840   18.2050 N   0  0  0  0  0  0  0  0  0  0  0  0
  -35.0900  -25.2320   20.1590 O   0  0  0  0  0  0  0  0  0  0  0  0
  -36.4980  -25.3640   17.3530 H   0  0  0  0  0  0  0  0  0  0  0  0
  -35.9390  -26.6760   18.3450 H   0  0  0  0  0  0  0  0  0  0  0  0
  -33.8880  -22.3400   20.1270 N   0  0  0  0  0  0  0  0  0  0  0  0
  -33.4900  -23.1950   20.5010 H   0  0  0  0  0  0  0  0  0  0  0  0
  -33.4520  -21.4990   20.4820 H   0  0  0  0  0  0  0  0  0  0  0  0
  -29.0110  -23.8850   21.6980 C   0  0  0  0  0  2  0  0  0  0  0  0
  -29.4250  -23.6510   23.0400 O   0  0  0  0  0  0  0  0  0  0  0  0
  -30.0220  -24.3510   23.2980 H   0  0  0  0  0  0  0  0  0  0  0  0
  2  1  1  0
  3  1  2  0
  4  5  1  0
  5  2  2  0
  6  4  2  0
  6  3  1  0
 11 22  2  0
 12 17  1  0
 12 10  1  0
 13 21  1  0
 13 23  1  0
 14 19  1  0
 14 16  1  0
 14 20  1  0
 15 21  1  0
 16 17  1  0
 16 15  1  0
 18 19  1  0
 18 12  1  0
 20 13  1  0
 21 11  1  0
 23 25  1  0
 24 26  1  0
 24 23  1  0
 25  4  1  0
 27 36  2  0
 27 32  1  0
 28 24  1  0
 28 32  1  0
 29 28  1  0
 30 29  1  0
 30 31  1  0
 31 27  1  0
 32 33  2  0
 33 34  1  0
 35 34  2  0
 36 35  1  0
 37 11  1  0
 37 38  1  0
 37 47  1  0
 38 41  1  0
 39 38  1  0
 39 43  1  0
 40 39  2  0
 43 42  1  0
 45 43  1  0
 45 46  1  0
 45 44  1  0
 47 50  1  1
 47 48  1  0
 49 47  1  0
 51  6  1  0
 52 51  1  0
 52 54  1  0
 53 52  1  0
 55 96  1  0
 55 52  1  0
 56 55  1  0
 57 56  2  0
 58 56  1  0
 59 58  1  0
 60 59  1  0
 60 67  2  0
 61 62  1  0
 63 62  1  0
 64 65  1  0
 64 63  1  0
 65 66  1  0
 66 61  1  0
 66 60  1  0
 68 93  1  0
 69 88  1  0
 69 68  2  0
 70 72  2  0
 70 69  1  0
 71 64  1  0
 71 68  1  0
 72 71  1  0
 73 70  1  0
 73 78  1  0
 74 73  2  0
 75 74  1  0
 75 76  2  0
 76 77  1  0
 77 78  2  0
 79 76  1  0
 80 79  1  0
 81 80  2  0
 82 81  1  0
 83 82  2  0
 83 84  1  0
 84 85  2  0
 85 80  1  0
 85 86  1  0
 87 83  1  0
 88 90  2  0
 89 92  1  0
 89 88  1  0
 91 89  1  0
 93 95  1  0
 93 94  1  0
 96 97  1  0
 97 98  1  0
M  ISO  4   9 101  10 101  59 100  60 100
M  END
>  <TORSDO>  (54) 
F 27

>  <SCORE>  (54) 
-0.046

>  <name>  (54) 
53

>  <ligand_id>  (54) 
53

>  <original_smiles>  (54) 
[H]OC([H])([H])C([H])(C(=O)C([H])([H])C([H])([H])C(=O)N1C([H])([H])C([H])([H])C([H])([H])C([H])(n2nc(-c3c([H])c([H])c(Oc4c([H])c([H])c(F)c([H])c4F)c([H])c3[H])c(C(=O)N([H])[H])c2N([H])[H])C1([H])[H])[N+]([H])([H])C([H])([H])c1c([H])c([H])c([H])c(C([H])([H])C([H])([H])C([H])([H])Oc2c([H])c([H])c3c(c2[H])C([H])([H])N(C(=O)C([H])(N([H])C(=O)C([H])(N([H])C([H])([H])[H])C([H])([H])[H])C(C([H])([H])[H])(C([H])([H])[H])C([H])([H])[H])C([H])(C(=O)N([H])C2([H])c4c([H])c([H])c([H])c([H])c4C([H])([H])C([H])([H])C2([H])[H])C3([H])[H])c1[H]

>  <smiles>  (54) 
[H]OC([H])([H])C([H])(C(=O)C([H])([H])C([H])([H])C(=O)N1C([H])([H])C([H])([H])C([H])([H])C([H])(n2nc(-c3c([H])c([H])c(Oc4c([H])c([H])c(F)c([H])c4F)c([H])c3[H])c(C(=O)N([H])[H])c2N([H])[H])C1([H])[H])[N+]([H])([H])C([H])([H])c1c([H])c([H])c([H])c(C([H])([H])C([H])([H])C([H])([H])Oc2c([H])c([H])c3c(c2[H])C([H])([H])N(C(=O)C([H])(N([H])C(=O)C([H])(N([H])C([H])([H])[H])C([H])([H])[H])C(C([H])([H])[H])(C([H])([H])[H])C([H])([H])[H])C([H])(C(=O)N([H])C2([H])c4c([H])c([H])c([H])c([H])c4C([H])([H])C([H])([H])C2([H])[H])C3([H])[H])c1[H]

$$$$
54:0:0
     RDKit          3D

 95102  0  0  1  0  0  0  0  0999 V2000
  -31.4510  -26.2070   15.7670 C   0  0  0  0  0  0  0  0  0  0  0  0
  -30.3140  -26.8710   16.0030 N   0  0  0  0  0  0  0  0  0  0  0  0
  -32.5270  -26.5070   16.2860 O   0  0  0  0  0  0  0  0  0  0  0  0
  -29.4920  -26.5610   15.5020 H   0  0  0  0  0  0  0  0  0  0  0  0
  -30.1530  -28.0490   16.8500 C   0  0  0  0  0  2  0  0  0  0  0  0
  -30.0050  -27.7230   18.3520 C   0  0  0  0  0  2  0  0  0  0  0  0
  -28.9810  -26.6160   18.6770 C   0  0  0  0  0  2  0  0  0  0  0  0
  -28.4800  -26.7690   20.0090 O   0  0  0  0  0  0  0  0  0  0  0  0
  -24.6550  -31.8640   23.2140 C   0  0  0  0  0  0  0  0  0  0  0  0
  -27.2970  -27.4620   20.0860 C   0  0  0  0  0  0  0  0  0  0  0  0
  -23.4420  -30.4740   21.5640 C   0  0  0  0  0  3  0  0  0  0  0  0
  -24.8910  -28.9330   20.1410 C   0  0  0  0  0  0  0  0  0  0  0  0
  -25.9660  -30.8270   21.3700 C   0  0  0  0  0  2  0  0  0  0  0  0
  -26.0480  -29.4570   20.7330 C   0  0  0  0  0  0  0  0  0  0  0  0
  -27.2510  -28.7210   20.7200 C   0  0  0  0  0  3  0  0  0  0  0  0
  -26.1190  -26.9300   19.5180 C   0  0  0  0  0  3  0  0  0  0  0  0
  -24.9180  -27.6610   19.5410 C   0  0  0  0  0  3  0  0  0  0  0  0
  -23.6490  -29.7930   20.1850 C   0  0  0  0  0  2  0  0  0  0  0  0
  -24.7060  -31.0690   22.1090 N   0  0  0  0  0  0  0  0  0  0  0  0
  -23.5750  -32.1410   23.7540 O   0  0  0  0  0  0  0  0  0  0  0  0
  -22.7830  -29.4560   22.5200 C   0  0  0  0  0  0  0  0  0  0  0  0
  -21.4570  -29.2890   22.3940 N   0  0  0  0  0  0  0  0  0  0  0  0
  -23.4620  -28.8170   23.3280 O   0  0  0  0  0  0  0  0  0  0  0  0
  -20.9720  -29.8530   21.7100 H   0  0  0  0  0  0  0  0  0  0  0  0
  -18.0690  -28.1420   22.8960 C   0  0  0  0  0  0  0  0  0  0  0  0
  -20.6310  -28.3560   23.1580 C   0  0  0  0  0  3  0  0  0  0  0  0
  -20.7080  -26.9300   22.5650 C   0  0  0  0  0  2  0  0  0  0  0  0
  -19.5970  -26.6370   21.5530 C   0  0  0  0  0  2  0  0  0  0  0  0
  -18.2210  -26.7980   22.2030 C   0  0  0  0  0  2  0  0  0  0  0  0
  -19.2020  -28.8820   23.3280 C   0  0  0  0  0  0  0  0  0  0  0  0
  -19.0070  -30.1430   23.9320 C   0  0  0  0  0  3  0  0  0  0  0  0
  -17.7120  -30.6640   24.1070 C   0  0  0  0  0  3  0  0  0  0  0  0
  -16.5930  -29.9220   23.6920 C   0  0  0  0  0  3  0  0  0  0  0  0
  -16.7720  -28.6630   23.0920 C   0  0  0  0  0  3  0  0  0  0  0  0
  -25.9460  -32.4830   23.8370 C   0  0  0  0  0  3  0  0  0  0  0  0
  -25.6440  -33.8770   24.1850 N   0  0  0  0  0  0  0  0  0  0  0  0
  -25.9780  -34.9370   23.4380 C   0  0  0  0  0  0  0  0  0  0  0  0
  -26.6460  -34.8440   22.4040 O   0  0  0  0  0  0  0  0  0  0  0  0
  -25.0540  -34.0250   24.9910 H   0  0  0  0  0  0  0  0  0  0  0  0
  -24.2550  -36.7370   23.1050 C   0  0  0  0  0  1  0  0  0  0  0  0
  -25.4950  -36.3210   23.9110 C   0  0  0  0  0  3  0  0  0  0  0  0
  -27.6340  -37.1870   24.7510 C   0  0  0  0  0  1  0  0  0  0  0  0
  -26.5310  -37.3720   23.8120 N   0  0  0  0  0  0  0  0  0  0  0  0
  -26.1280  -38.2910   23.9750 H   0  0  0  0  0  0  0  0  0  0  0  0
  -26.4690  -31.6920   25.0990 C   0  0  1  0  0  0  0  0  0  0  0  0
  -25.3810  -31.4410   26.1690 C   0  0  0  0  0  1  0  0  0  0  0  0
  -27.0440  -30.3190   24.6810 C   0  0  0  0  0  1  0  0  0  0  0  0
  -27.6250  -32.4730   25.7660 C   0  0  0  0  0  1  0  0  0  0  0  0
  -31.3520  -25.0400   14.7820 C   0  0  0  0  0  2  0  0  0  0  0  0
  -32.0410  -23.7420   15.2540 C   0  0  0  0  0  2  0  0  0  0  0  0
  -31.5490  -23.1530   16.5920 C   0  0  0  0  0  2  0  0  0  0  0  0
  -30.0340  -22.8590   16.6520 C   0  0  0  0  0  2  0  0  0  0  0  0
  -29.6910  -21.4080   17.0140 C   0  0  0  0  0  2  0  0  0  0  0  0
  -30.1740  -20.9550   18.4000 C   0  0  0  0  0  2  0  0  0  0  0  0
  -29.8330  -19.4790   18.6330 C   0  0  0  0  0  2  0  0  0  0  0  0
  -30.4240  -18.9160   19.9300 C   0  0  0  0  0  2  0  0  0  0  0  0
  -30.0330  -17.4460   20.1290 C   0  0  0  0  0  2  0  0  0  0  0  0
  -30.7540  -16.7860   21.3150 C   0  0  0  0  0  2  0  0  0  0  0  0
  -30.3130  -15.3230   21.5390 C   0  0  0  0  0  2  0  0  0  0  0  0
  -30.7980  -14.3240   20.4630 C   0  0  0  0  0  0  0  0  0  0  0  0
  -30.4040  -12.2830   19.1180 C   0  0  0  0  0  2  0  0  0  0  0  0
  -29.4400  -12.5730   17.9520 C   0  0  0  0  0  2  0  0  0  0  0  0
  -27.9700  -12.4540   18.4070 C   0  0  0  0  0  2  0  0  0  0  0  0
  -27.6880  -13.2380   19.7170 C   0  0  0  0  0  3  0  0  0  0  0  0
  -28.7510  -12.8940   20.7830 C   0  0  0  0  0  2  0  0  0  0  0  0
  -30.0740  -13.2010   20.2170 N   0  0  0  0  0  0  0  0  0  0  0  0
  -31.8370  -14.5790   19.8450 O   0  0  0  0  0  0  0  0  0  0  0  0
  -25.3070  -13.8980   20.4450 C   0  0  0  0  0  0  0  0  0  0  0  0
  -24.2270  -13.1480   20.8260 C   0  0  0  0  0  0  0  0  0  0  0  0
  -24.6600  -11.7870   20.7870 C   0  0  0  0  0  0  0  0  0  0  0  0
  -26.3330  -12.9950   20.2050 N   0  0  0  0  0  0  0  0  0  0  0  0
  -25.9440  -11.7210   20.4610 N   0  0  0  0  0  0  0  0  0  0  0  0
  -23.9110  -10.5410   20.9900 C   0  0  0  0  0  0  0  0  0  0  0  0
  -24.3400   -9.5660   21.9180 C   0  0  0  0  0  3  0  0  0  0  0  0
  -23.5960   -8.3810   22.1060 C   0  0  0  0  0  3  0  0  0  0  0  0
  -22.4090   -8.1630   21.3680 C   0  0  0  0  0  0  0  0  0  0  0  0
  -21.9990   -9.1270   20.4300 C   0  0  0  0  0  3  0  0  0  0  0  0
  -22.7420  -10.3030   20.2400 C   0  0  0  0  0  3  0  0  0  0  0  0
  -21.6350   -7.0310   21.4670 O   0  0  0  0  0  0  0  0  0  0  0  0
  -21.5940   -6.2860   22.6170 C   0  0  0  0  0  0  0  0  0  0  0  0
  -21.2130   -6.8470   23.8550 C   0  0  0  0  0  3  0  0  0  0  0  0
  -21.1150   -6.0300   24.9980 C   0  0  0  0  0  3  0  0  0  0  0  0
  -21.3900   -4.6530   24.9070 C   0  0  0  0  0  0  0  0  0  0  0  0
  -21.7630   -4.0910   23.6730 C   0  0  0  0  0  3  0  0  0  0  0  0
  -21.8630   -4.9050   22.5320 C   0  0  0  0  0  0  0  0  0  0  0  0
  -22.2040   -4.3550   21.3410 F   0  0  0  0  0  0  0  0  0  0  0  0
  -21.2890   -3.8660   26.0030 F   0  0  0  0  0  0  0  0  0  0  0  0
  -22.8430  -13.6520   21.1210 C   0  0  0  0  0  0  0  0  0  0  0  0
  -22.1160  -12.9680   21.9970 N   0  0  0  0  0  0  0  0  0  0  0  0
  -22.4170  -14.6860   20.6080 O   0  0  0  0  0  0  0  0  0  0  0  0
  -22.4770  -12.1340   22.4360 H   0  0  0  0  0  0  0  0  0  0  0  0
  -21.1880  -13.2860   22.2360 H   0  0  0  0  0  0  0  0  0  0  0  0
  -25.5030  -15.2640   20.2620 N   0  0  0  0  0  0  0  0  0  0  0  0
  -24.7620  -15.9450   20.3760 H   0  0  0  0  0  0  0  0  0  0  0  0
  -26.3700  -15.6760   19.9370 H   0  0  0  0  0  0  0  0  0  0  0  0
  1  2  1  0
  1  3  2  0
  2  5  1  0
  4  2  1  0
  5  6  1  0
  6  7  1  0
  7  8  1  0
  8 10  1  0
  9 20  2  0
 10 15  1  0
 11 19  1  0
 11 21  1  0
 12 18  1  0
 12 14  1  0
 13 19  1  0
 14 13  1  0
 15 14  2  0
 16 17  1  0
 16 10  2  0
 17 12  2  0
 18 11  1  0
 19  9  1  0
 21 23  2  0
 22 21  1  0
 24 22  1  0
 25 34  2  0
 25 30  1  0
 26 22  1  0
 26 30  1  0
 27 26  1  0
 28 29  1  0
 28 27  1  0
 29 25  1  0
 30 31  2  0
 31 32  1  0
 33 32  2  0
 34 33  1  0
 35  9  1  0
 35 36  1  0
 35 45  1  0
 36 39  1  0
 37 41  1  0
 37 36  1  0
 38 37  2  0
 41 40  1  0
 43 41  1  0
 43 44  1  0
 43 42  1  0
 45 48  1  1
 45 46  1  0
 47 45  1  0
 49 50  1  0
 49  1  1  0
 50 51  1  0
 51 52  1  0
 52 53  1  0
 53 54  1  0
 54 55  1  0
 55 56  1  0
 56 57  1  0
 57 58  1  0
 58 59  1  0
 60 59  1  0
 61 66  1  0
 62 63  1  0
 62 61  1  0
 64 63  1  0
 64 71  1  0
 64 65  1  0
 66 60  1  0
 66 65  1  0
 67 60  2  0
 68 69  2  0
 69 88  1  0
 70 69  1  0
 70 73  1  0
 71 68  1  0
 71 72  1  0
 72 70  2  0
 73 74  1  0
 74 75  2  0
 76 79  1  0
 76 75  1  0
 77 76  2  0
 78 77  1  0
 78 73  2  0
 79 80  1  0
 80 81  1  0
 81 82  2  0
 83 82  1  0
 83 87  1  0
 84 83  2  0
 85 80  2  0
 85 84  1  0
 86 85  1  0
 88 89  1  0
 89 92  1  0
 89 91  1  0
 90 88  2  0
 93 94  1  0
 93 68  1  0
 95 93  1  0
M  ISO  4   7 101   8 101  59 100  60 100
M  END
>  <TORSDO>  (55) 
F 30

>  <SCORE>  (55) 
-10.753

>  <name>  (55) 
54

>  <ligand_id>  (55) 
54

>  <original_smiles>  (55) 
[H]c1c([H])c([H])c2c(c1[H])C([H])([H])C([H])([H])C([H])([H])C2([H])N([H])C(=O)C1([H])N(C(=O)C([H])(N([H])C(=O)C([H])(N([H])C([H])([H])[H])C([H])([H])[H])C(C([H])([H])[H])(C([H])([H])[H])C([H])([H])[H])C([H])([H])c2c([H])c(OC([H])([H])C([H])([H])C([H])([H])N([H])C(=O)C([H])([H])C([H])([H])C([H])([H])C([H])([H])C([H])([H])C([H])([H])C([H])([H])C([H])([H])C([H])([H])C([H])([H])C([H])([H])C(=O)N3C([H])([H])C([H])([H])C([H])([H])C([H])(n4nc(-c5c([H])c([H])c(Oc6c([H])c([H])c(F)c([H])c6F)c([H])c5[H])c(C(=O)N([H])[H])c4N([H])[H])C3([H])[H])c([H])c([H])c2C1([H])[H]

>  <smiles>  (55) 
[H]c1c([H])c([H])c2c(c1[H])C([H])([H])C([H])([H])C([H])([H])C2([H])N([H])C(=O)C1([H])N(C(=O)C([H])(N([H])C(=O)C([H])(N([H])C([H])([H])[H])C([H])([H])[H])C(C([H])([H])[H])(C([H])([H])[H])C([H])([H])[H])C([H])([H])c2c([H])c(OC([H])([H])C([H])([H])C([H])([H])N([H])C(=O)C([H])([H])C([H])([H])C([H])([H])C([H])([H])C([H])([H])C([H])([H])C([H])([H])C([H])([H])C([H])([H])C([H])([H])C([H])([H])C(=O)N3C([H])([H])C([H])([H])C([H])([H])C([H])(n4nc(-c5c([H])c([H])c(Oc6c([H])c([H])c(F)c([H])c6F)c([H])c5[H])c(C(=O)N([H])[H])c4N([H])[H])C3([H])[H])c([H])c([H])c2C1([H])[H]

$$$$
55:0:0
     RDKit          3D

 91 98  0  0  1  0  0  0  0  0999 V2000
  -29.3970  -24.5660   17.1500 C   0  0  0  0  0  3  0  0  0  0  0  0
  -30.3150  -23.5880   17.9190 C   0  0  0  0  0  2  0  0  0  0  0  0
  -29.5850  -22.3290   18.4220 C   0  0  0  0  0  2  0  0  0  0  0  0
  -30.5500  -21.2650   18.9620 C   0  0  0  0  0  2  0  0  0  0  0  0
  -29.8340  -19.9530   19.3090 C   0  0  0  0  0  2  0  0  0  0  0  0
  -30.7600  -18.9840   20.0560 C   0  0  0  0  0  2  0  0  0  0  0  0
  -30.1410  -17.5940   20.2500 C   0  0  0  0  0  2  0  0  0  0  0  0
  -30.8700  -16.7820   21.3370 C   0  0  0  0  0  2  0  0  0  0  0  0
  -30.3150  -15.3520   21.4910 C   0  0  0  0  0  2  0  0  0  0  0  0
  -30.8410  -14.3380   20.4550 C   0  0  0  0  0  0  0  0  0  0  0  0
  -30.4800  -12.2760   19.1390 C   0  0  0  0  0  2  0  0  0  0  0  0
  -29.5260  -12.5650   17.9660 C   0  0  0  0  0  2  0  0  0  0  0  0
  -28.0530  -12.4530   18.4050 C   0  0  0  0  0  2  0  0  0  0  0  0
  -27.7550  -13.2280   19.7160 C   0  0  0  0  0  3  0  0  0  0  0  0
  -28.8110  -12.8930   20.7920 C   0  0  0  0  0  2  0  0  0  0  0  0
  -30.1360  -13.2000   20.2290 N   0  0  0  0  0  0  0  0  0  0  0  0
  -31.8860  -14.5940   19.8490 O   0  0  0  0  0  0  0  0  0  0  0  0
  -25.3560  -13.8640   20.4090 C   0  0  0  0  0  0  0  0  0  0  0  0
  -24.2800  -13.1050   20.7840 C   0  0  0  0  0  0  0  0  0  0  0  0
  -24.7290  -11.7490   20.7670 C   0  0  0  0  0  0  0  0  0  0  0  0
  -26.3950  -12.9710   20.1900 N   0  0  0  0  0  0  0  0  0  0  0  0
  -26.0180  -11.6950   20.4570 N   0  0  0  0  0  0  0  0  0  0  0  0
  -23.9920  -10.4930   20.9740 C   0  0  0  0  0  0  0  0  0  0  0  0
  -24.4240   -9.5280   21.9100 C   0  0  0  0  0  3  0  0  0  0  0  0
  -23.6890   -8.3370   22.1010 C   0  0  0  0  0  3  0  0  0  0  0  0
  -22.5110   -8.1040   21.3530 C   0  0  0  0  0  0  0  0  0  0  0  0
  -22.1010   -9.0570   20.4040 C   0  0  0  0  0  3  0  0  0  0  0  0
  -22.8360  -10.2380   20.2110 C   0  0  0  0  0  3  0  0  0  0  0  0
  -21.7490   -6.9660   21.4520 O   0  0  0  0  0  0  0  0  0  0  0  0
  -21.7060   -6.2250   22.6050 C   0  0  0  0  0  0  0  0  0  0  0  0
  -21.3040   -6.7890   23.8370 C   0  0  0  0  0  3  0  0  0  0  0  0
  -21.2080   -5.9760   24.9850 C   0  0  0  0  0  3  0  0  0  0  0  0
  -21.5060   -4.6030   24.9030 C   0  0  0  0  0  0  0  0  0  0  0  0
  -21.9020   -4.0390   23.6770 C   0  0  0  0  0  3  0  0  0  0  0  0
  -22.0000   -4.8480   22.5320 C   0  0  0  0  0  0  0  0  0  0  0  0
  -22.3620   -4.2960   21.3480 F   0  0  0  0  0  0  0  0  0  0  0  0
  -21.4060   -3.8200   26.0040 F   0  0  0  0  0  0  0  0  0  0  0  0
  -22.8870  -13.5940   21.0560 C   0  0  0  0  0  0  0  0  0  0  0  0
  -22.1540  -12.9100   21.9270 N   0  0  0  0  0  0  0  0  0  0  0  0
  -22.4540  -14.6180   20.5290 O   0  0  0  0  0  0  0  0  0  0  0  0
  -22.5130  -12.0770   22.3730 H   0  0  0  0  0  0  0  0  0  0  0  0
  -21.2190  -13.2190   22.1540 H   0  0  0  0  0  0  0  0  0  0  0  0
  -25.5380  -15.2310   20.2150 N   0  0  0  0  0  0  0  0  0  0  0  0
  -24.7910  -15.9110   20.3130 H   0  0  0  0  0  0  0  0  0  0  0  0
  -26.4070  -15.6410   19.8960 H   0  0  0  0  0  0  0  0  0  0  0  0
  -28.4350  -25.3360   18.0890 C   0  0  0  0  0  2  0  0  0  0  0  0
  -29.0520  -26.5160   18.8680 C   0  0  0  0  0  2  0  0  0  0  0  0
  -28.4130  -26.7440   20.1230 O   0  0  0  0  0  0  0  0  0  0  0  0
  -24.6230  -31.8650   23.2460 C   0  0  0  0  0  0  0  0  0  0  0  0
  -27.2390  -27.4580   20.1110 C   0  0  0  0  0  0  0  0  0  0  0  0
  -23.3960  -30.4730   21.6050 C   0  0  0  0  0  3  0  0  0  0  0  0
  -24.8360  -28.9360   20.1670 C   0  0  0  0  0  0  0  0  0  0  0  0
  -25.9170  -30.8300   21.3900 C   0  0  0  0  0  2  0  0  0  0  0  0
  -25.9960  -29.4610   20.7480 C   0  0  0  0  0  0  0  0  0  0  0  0
  -27.1970  -28.7230   20.7300 C   0  0  0  0  0  3  0  0  0  0  0  0
  -26.0570  -26.9270   19.5500 C   0  0  0  0  0  3  0  0  0  0  0  0
  -24.8570  -27.6630   19.5700 C   0  0  0  0  0  3  0  0  0  0  0  0
  -23.5900  -29.7890   20.2260 C   0  0  0  0  0  2  0  0  0  0  0  0
  -24.6630  -31.0710   22.1380 N   0  0  0  0  0  0  0  0  0  0  0  0
  -23.5480  -32.1410   23.7950 O   0  0  0  0  0  0  0  0  0  0  0  0
  -22.7490  -29.4540   22.5700 C   0  0  0  0  0  0  0  0  0  0  0  0
  -21.4240  -29.2790   22.4500 N   0  0  0  0  0  0  0  0  0  0  0  0
  -23.4350  -28.8220   23.3790 O   0  0  0  0  0  0  0  0  0  0  0  0
  -20.9340  -29.8420   21.7690 H   0  0  0  0  0  0  0  0  0  0  0  0
  -18.0450  -28.1010   22.9560 C   0  0  0  0  0  0  0  0  0  0  0  0
  -20.6050  -28.3430   23.2200 C   0  0  0  0  0  3  0  0  0  0  0  0
  -20.6960  -26.9130   22.6370 C   0  0  0  0  0  2  0  0  0  0  0  0
  -19.5900  -26.6010   21.6260 C   0  0  0  0  0  2  0  0  0  0  0  0
  -18.2110  -26.7520   22.2770 C   0  0  0  0  0  2  0  0  0  0  0  0
  -19.1700  -28.8560   23.3830 C   0  0  0  0  0  0  0  0  0  0  0  0
  -18.9620  -30.1210   23.9750 C   0  0  0  0  0  3  0  0  0  0  0  0
  -17.6610  -30.6300   24.1460 C   0  0  0  0  0  3  0  0  0  0  0  0
  -16.5510  -29.8720   23.7350 C   0  0  0  0  0  3  0  0  0  0  0  0
  -16.7430  -28.6090   23.1460 C   0  0  0  0  0  3  0  0  0  0  0  0
  -25.9180  -32.4830   23.8590 C   0  0  0  0  0  3  0  0  0  0  0  0
  -26.4430  -31.7030   25.1270 C   0  0  1  0  0  0  0  0  0  0  0  0
  -25.3570  -31.4660   26.2030 C   0  0  0  0  0  1  0  0  0  0  0  0
  -27.0160  -30.3250   24.7230 C   0  0  0  0  0  1  0  0  0  0  0  0
  -27.6040  -32.4890   25.7830 C   0  0  0  0  0  1  0  0  0  0  0  0
  -25.6260  -33.8830   24.1910 N   0  0  0  0  0  0  0  0  0  0  0  0
  -25.9660  -34.9320   23.4300 C   0  0  0  0  0  0  0  0  0  0  0  0
  -26.6340  -34.8230   22.3980 O   0  0  0  0  0  0  0  0  0  0  0  0
  -25.0350  -34.0440   24.9950 H   0  0  0  0  0  0  0  0  0  0  0  0
  -24.2570  -36.7410   23.0740 C   0  0  0  0  0  1  0  0  0  0  0  0
  -25.4930  -36.3250   23.8880 C   0  0  0  0  0  3  0  0  0  0  0  0
  -27.6360  -37.1860   24.7210 C   0  0  0  0  0  1  0  0  0  0  0  0
  -26.5360  -37.3680   23.7770 N   0  0  0  0  0  0  0  0  0  0  0  0
  -26.1400  -38.2920   23.9240 H   0  0  0  0  0  0  0  0  0  0  0  0
  -30.2170  -25.4780   16.2130 C   0  0  0  0  0  2  0  0  0  0  0  0
  -29.3610  -26.2120   15.3590 O   0  0  0  0  0  0  0  0  0  0  0  0
  -28.8220  -26.7790   15.8980 H   0  0  0  0  0  0  0  0  0  0  0  0
  1 89  1  0
  1  2  1  0
  1 46  1  0
  2  3  1  0
  3  4  1  0
  4  5  1  0
  5  6  1  0
  6  7  1  0
  7  8  1  0
  8  9  1  0
 10  9  1  0
 11 16  1  0
 12 13  1  0
 12 11  1  0
 14 13  1  0
 14 21  1  0
 14 15  1  0
 16 10  1  0
 16 15  1  0
 17 10  2  0
 18 19  2  0
 19 38  1  0
 20 19  1  0
 20 23  1  0
 21 18  1  0
 21 22  1  0
 22 20  2  0
 23 24  1  0
 24 25  2  0
 26 29  1  0
 26 25  1  0
 27 26  2  0
 28 27  1  0
 28 23  2  0
 29 30  1  0
 30 31  1  0
 31 32  2  0
 33 32  1  0
 33 37  1  0
 34 33  2  0
 35 30  2  0
 35 34  1  0
 36 35  1  0
 38 39  1  0
 39 42  1  0
 39 41  1  0
 40 38  2  0
 43 44  1  0
 43 18  1  0
 45 43  1  0
 46 47  1  0
 47 48  1  0
 49 60  2  0
 50 48  1  0
 50 55  1  0
 51 59  1  0
 51 61  1  0
 52 58  1  0
 52 54  1  0
 53 59  1  0
 54 53  1  0
 55 54  2  0
 56 57  1  0
 56 50  2  0
 57 52  2  0
 58 51  1  0
 59 49  1  0
 61 63  2  0
 62 61  1  0
 64 62  1  0
 65 74  2  0
 65 70  1  0
 66 62  1  0
 66 70  1  0
 67 66  1  0
 68 69  1  0
 68 67  1  0
 69 65  1  0
 70 71  2  0
 71 72  1  0
 73 72  2  0
 74 73  1  0
 75 49  1  0
 75 80  1  0
 75 76  1  0
 76 79  1  1
 76 77  1  0
 78 76  1  0
 80 83  1  0
 81 85  1  0
 81 80  1  0
 82 81  2  0
 85 84  1  0
 87 85  1  0
 87 88  1  0
 87 86  1  0
 90 91  1  0
 90 89  1  0
M  ISO  4   9 100  10 100  47 101  48 101
M  END
>  <TORSDO>  (56) 
F 28

>  <SCORE>  (56) 
-11.277

>  <name>  (56) 
55

>  <ligand_id>  (56) 
55

>  <original_smiles>  (56) 
[H]OC([H])([H])C([H])(C([H])([H])C([H])([H])Oc1c([H])c([H])c2c(c1[H])C([H])([H])N(C(=O)C([H])(N([H])C(=O)C([H])(N([H])C([H])([H])[H])C([H])([H])[H])C(C([H])([H])[H])(C([H])([H])[H])C([H])([H])[H])C([H])(C(=O)N([H])C1([H])c3c([H])c([H])c([H])c([H])c3C([H])([H])C([H])([H])C1([H])[H])C2([H])[H])C([H])([H])C([H])([H])C([H])([H])C([H])([H])C([H])([H])C([H])([H])C([H])([H])C([H])([H])C(=O)N1C([H])([H])C([H])([H])C([H])([H])C([H])(n2nc(-c3c([H])c([H])c(Oc4c([H])c([H])c(F)c([H])c4F)c([H])c3[H])c(C(=O)N([H])[H])c2N([H])[H])C1([H])[H]

>  <smiles>  (56) 
[H]OC([H])([H])C([H])(C([H])([H])C([H])([H])Oc1c([H])c([H])c2c(c1[H])C([H])([H])N(C(=O)C([H])(N([H])C(=O)C([H])(N([H])C([H])([H])[H])C([H])([H])[H])C(C([H])([H])[H])(C([H])([H])[H])C([H])([H])[H])C([H])(C(=O)N([H])C1([H])c3c([H])c([H])c([H])c([H])c3C([H])([H])C([H])([H])C1([H])[H])C2([H])[H])C([H])([H])C([H])([H])C([H])([H])C([H])([H])C([H])([H])C([H])([H])C([H])([H])C([H])([H])C(=O)N1C([H])([H])C([H])([H])C([H])([H])C([H])(n2nc(-c3c([H])c([H])c(Oc4c([H])c([H])c(F)c([H])c4F)c([H])c3[H])c(C(=O)N([H])[H])c2N([H])[H])C1([H])[H]

$$$$
56:0:0
     RDKit          3D

 95104  0  0  1  0  0  0  0  0999 V2000
  -31.1170  -21.3000   23.0910 C   0  0  0  0  0  3  0  0  0  0  0  0
  -30.5360  -22.4040   23.7420 C   0  0  0  0  0  3  0  0  0  0  0  0
  -29.4260  -21.4420   21.3420 C   0  0  0  0  0  3  0  0  0  0  0  0
  -30.5810  -20.8300   21.8740 C   0  0  0  0  0  0  0  0  0  0  0  0
  -29.4050  -23.0400   23.1910 C   0  0  0  0  0  0  0  0  0  0  0  0
  -28.8300  -22.5320   22.0040 C   0  0  0  0  0  0  0  0  0  0  0  0
  -27.7250  -23.1110   21.4760 F   0  0  0  0  0  0  0  0  0  0  0  0
  -31.2740  -19.7020   21.1280 C   0  0  0  0  0  2  0  0  0  0  0  0
  -30.8990  -14.6520   20.0730 C   0  0  0  0  0  0  0  0  0  0  0  0
  -30.4670  -12.5530   18.8360 C   0  0  0  0  0  2  0  0  0  0  0  0
  -29.4410  -12.7650   17.7070 C   0  0  0  0  0  2  0  0  0  0  0  0
  -28.0030  -12.6110   18.2380 C   0  0  0  0  0  2  0  0  0  0  0  0
  -27.7570  -13.4370   19.5260 C   0  0  0  0  0  3  0  0  0  0  0  0
  -28.8830  -13.1830   20.5550 C   0  0  0  0  0  2  0  0  0  0  0  0
  -30.1720  -13.5090   19.9180 N   0  0  0  0  0  0  0  0  0  0  0  0
  -31.8780  -14.9030   19.3570 O   0  0  0  0  0  0  0  0  0  0  0  0
  -32.1350  -17.3490   21.5750 C   0  0  0  0  0  2  0  0  0  0  0  0
  -29.7230  -17.6770   20.9070 C   0  0  0  0  0  2  0  0  0  0  0  0
  -31.7730  -15.9080   21.9920 C   0  0  0  0  0  2  0  0  0  0  0  0
  -29.4560  -16.2250   21.3480 C   0  0  0  0  0  2  0  0  0  0  0  0
  -30.9190  -18.2950   21.6570 C   0  0  0  0  0  3  0  0  0  0  0  0
  -30.6580  -15.3880   21.1860 N   0  0  0  0  0  0  0  0  0  0  0  0
  -25.4360  -14.0560   20.4560 C   0  0  0  0  0  0  0  0  0  0  0  0
  -24.3810  -13.2840   20.8640 C   0  0  0  0  0  0  0  0  0  0  0  0
  -24.8020  -11.9290   20.7130 C   0  0  0  0  0  0  0  0  0  0  0  0
  -26.4370  -13.1680   20.0910 N   0  0  0  0  0  0  0  0  0  0  0  0
  -26.0610  -11.8810   20.2990 N   0  0  0  0  0  0  0  0  0  0  0  0
  -24.0620  -10.6720   20.8840 C   0  0  0  0  0  0  0  0  0  0  0  0
  -24.4970   -9.6760   21.7870 C   0  0  0  0  0  3  0  0  0  0  0  0
  -23.7590   -8.4840   21.9460 C   0  0  0  0  0  3  0  0  0  0  0  0
  -22.5720   -8.2790   21.2030 C   0  0  0  0  0  0  0  0  0  0  0  0
  -22.1570   -9.2630   20.2890 C   0  0  0  0  0  3  0  0  0  0  0  0
  -22.8960  -10.4470   20.1270 C   0  0  0  0  0  3  0  0  0  0  0  0
  -21.8040   -7.1420   21.2740 O   0  0  0  0  0  0  0  0  0  0  0  0
  -21.7050   -6.4120   22.4320 C   0  0  0  0  0  0  0  0  0  0  0  0
  -21.2330   -6.9820   23.6340 C   0  0  0  0  0  3  0  0  0  0  0  0
  -21.0800   -6.1790   24.7820 C   0  0  0  0  0  3  0  0  0  0  0  0
  -21.3910   -4.8060   24.7280 C   0  0  0  0  0  0  0  0  0  0  0  0
  -21.8570   -4.2370   23.5300 C   0  0  0  0  0  3  0  0  0  0  0  0
  -22.0110   -5.0360   22.3850 C   0  0  0  0  0  0  0  0  0  0  0  0
  -22.4400   -4.4780   21.2280 F   0  0  0  0  0  0  0  0  0  0  0  0
  -21.2370   -4.0330   25.8290 F   0  0  0  0  0  0  0  0  0  0  0  0
  -23.0220  -13.7720   21.2780 C   0  0  0  0  0  0  0  0  0  0  0  0
  -22.3650  -13.0600   22.1870 N   0  0  0  0  0  0  0  0  0  0  0  0
  -22.5540  -14.8190   20.8320 O   0  0  0  0  0  0  0  0  0  0  0  0
  -22.7580  -12.2120   22.5690 H   0  0  0  0  0  0  0  0  0  0  0  0
  -21.4570  -13.3660   22.5040 H   0  0  0  0  0  0  0  0  0  0  0  0
  -25.6210  -15.4310   20.3480 N   0  0  0  0  0  0  0  0  0  0  0  0
  -24.8790  -16.0910   20.5570 H   0  0  0  0  0  0  0  0  0  0  0  0
  -26.4520  -15.8740   19.9790 H   0  0  0  0  0  0  0  0  0  0  0  0
  -28.8560  -24.2950   23.8510 C   0  0  0  0  0  2  0  0  0  0  0  0
  -29.3740  -25.5770   23.1710 C   0  0  0  0  0  2  0  0  0  0  0  0
  -28.7870  -25.8050   21.7660 C   0  0  0  0  0  2  0  0  0  0  0  0
  -29.4460  -26.9710   21.0130 C   0  0  0  0  0  2  0  0  0  0  0  0
  -28.7720  -27.1770   19.7720 O   0  0  0  0  0  0  0  0  0  0  0  0
  -24.6530  -31.8380   23.2250 C   0  0  0  0  0  0  0  0  0  0  0  0
  -27.5730  -27.8430   19.8520 C   0  0  0  0  0  0  0  0  0  0  0  0
  -23.5290  -30.4910   21.4750 C   0  0  0  0  0  3  0  0  0  0  0  0
  -25.0750  -29.1510   19.9530 C   0  0  0  0  0  0  0  0  0  0  0  0
  -26.0190  -31.0320   21.3080 C   0  0  0  0  0  2  0  0  0  0  0  0
  -26.1900  -29.7160   20.5840 C   0  0  0  0  0  0  0  0  0  0  0  0
  -27.4390  -29.0710   20.5350 C   0  0  0  0  0  3  0  0  0  0  0  0
  -26.4490  -27.2860   19.2090 C   0  0  0  0  0  3  0  0  0  0  0  0
  -25.1970  -27.9300   19.2640 C   0  0  0  0  0  3  0  0  0  0  0  0
  -23.7790  -29.9220   20.0510 C   0  0  0  0  0  2  0  0  0  0  0  0
  -24.7510  -31.1300   22.0650 N   0  0  0  0  0  0  0  0  0  0  0  0
  -23.5580  -32.0040   23.7800 O   0  0  0  0  0  0  0  0  0  0  0  0
  -22.9410  -29.3670   22.3560 C   0  0  0  0  0  0  0  0  0  0  0  0
  -21.6280  -29.1270   22.2180 N   0  0  0  0  0  0  0  0  0  0  0  0
  -23.6620  -28.7160   23.1170 O   0  0  0  0  0  0  0  0  0  0  0  0
  -21.1040  -29.7090   21.5790 H   0  0  0  0  0  0  0  0  0  0  0  0
  -18.3210  -27.7360   22.6250 C   0  0  0  0  0  0  0  0  0  0  0  0
  -20.8650  -28.0920   22.9130 C   0  0  0  0  0  3  0  0  0  0  0  0
  -21.0330  -26.7190   22.2220 C   0  0  0  0  0  2  0  0  0  0  0  0
  -19.9420  -26.4270   21.1880 C   0  0  0  0  0  2  0  0  0  0  0  0
  -18.5580  -26.4550   21.8440 C   0  0  0  0  0  2  0  0  0  0  0  0
  -19.4050  -28.5130   23.1140 C   0  0  0  0  0  0  0  0  0  0  0  0
  -19.1320  -29.7150   23.8000 C   0  0  0  0  0  3  0  0  0  0  0  0
  -17.8060  -30.1410   24.0070 C   0  0  0  0  0  3  0  0  0  0  0  0
  -16.7360  -29.3590   23.5360 C   0  0  0  0  0  3  0  0  0  0  0  0
  -16.9950  -28.1590   22.8500 C   0  0  0  0  0  3  0  0  0  0  0  0
  -25.9010  -32.4930   23.8960 C   0  0  0  0  0  3  0  0  0  0  0  0
  -25.5590  -33.8880   24.1990 N   0  0  0  0  0  0  0  0  0  0  0  0
  -25.9200  -34.9380   23.4500 C   0  0  0  0  0  0  0  0  0  0  0  0
  -26.6490  -34.8350   22.4590 O   0  0  0  0  0  0  0  0  0  0  0  0
  -24.9200  -34.0420   24.9650 H   0  0  0  0  0  0  0  0  0  0  0  0
  -24.2030  -36.7110   22.9730 C   0  0  0  0  0  1  0  0  0  0  0  0
  -25.3910  -36.3230   23.8670 C   0  0  0  0  0  3  0  0  0  0  0  0
  -27.4570  -37.2320   24.8330 C   0  0  0  0  0  1  0  0  0  0  0  0
  -26.4190  -37.3860   23.8170 N   0  0  0  0  0  0  0  0  0  0  0  0
  -25.9970  -38.3030   23.9330 H   0  0  0  0  0  0  0  0  0  0  0  0
  -26.3770  -31.7370   25.1960 C   0  0  1  0  0  0  0  0  0  0  0  0
  -25.2450  -31.4800   26.2160 C   0  0  0  0  0  1  0  0  0  0  0  0
  -27.0040  -30.3710   24.8290 C   0  0  0  0  0  1  0  0  0  0  0  0
  -27.4810  -32.5540   25.9040 C   0  0  0  0  0  1  0  0  0  0  0  0
  1  2  1  0
  3  4  1  0
  3  6  2  0
  4  1  2  0
  5  2  2  0
  5 51  1  0
  6  5  1  0
  7  6  1  0
  8  4  1  0
  9 22  1  0
 10 15  1  0
 11 12  1  0
 11 10  1  0
 13 12  1  0
 13 26  1  0
 13 14  1  0
 15  9  1  0
 15 14  1  0
 16  9  2  0
 17 21  1  0
 17 19  1  0
 18 20  1  0
 18 21  1  0
 21  8  1  0
 22 20  1  0
 22 19  1  0
 23 24  2  0
 24 43  1  0
 25 24  1  0
 25 28  1  0
 26 27  1  0
 26 23  1  0
 27 25  2  0
 28 29  1  0
 29 30  2  0
 31 34  1  0
 31 30  1  0
 32 31  2  0
 33 32  1  0
 33 28  2  0
 34 35  1  0
 35 36  1  0
 36 37  2  0
 38 37  1  0
 38 42  1  0
 39 38  2  0
 40 35  2  0
 40 39  1  0
 41 40  1  0
 43 44  1  0
 44 47  1  0
 44 46  1  0
 45 43  2  0
 48 23  1  0
 48 49  1  0
 50 48  1  0
 52 51  1  0
 53 52  1  0
 54 53  1  0
 55 57  1  0
 55 54  1  0
 56 67  2  0
 57 62  1  0
 58 66  1  0
 58 68  1  0
 59 65  1  0
 59 61  1  0
 60 66  1  0
 61 60  1  0
 62 61  2  0
 63 64  1  0
 63 57  2  0
 64 59  2  0
 65 58  1  0
 66 56  1  0
 68 70  2  0
 69 68  1  0
 71 69  1  0
 72 81  2  0
 72 77  1  0
 73 69  1  0
 73 77  1  0
 74 73  1  0
 75 76  1  0
 75 74  1  0
 76 72  1  0
 77 78  2  0
 78 79  1  0
 80 79  2  0
 81 80  1  0
 82 56  1  0
 82 83  1  0
 82 92  1  0
 83 86  1  0
 84 88  1  0
 84 83  1  0
 85 84  2  0
 88 87  1  0
 90 88  1  0
 90 91  1  0
 90 89  1  0
 92 95  1  1
 92 93  1  0
 94 92  1  0
M  ISO  4   9 100  22 100  54 101  55 101
M  END
>  <TORSDO>  (57) 
F 21

>  <SCORE>  (57) 
-11.310

>  <name>  (57) 
56

>  <ligand_id>  (57) 
56

>  <original_smiles>  (57) 
[H]c1c([H])c([H])c2c(c1[H])C([H])([H])C([H])([H])C([H])([H])C2([H])N([H])C(=O)C1([H])N(C(=O)C([H])(N([H])C(=O)C([H])(N([H])C([H])([H])[H])C([H])([H])[H])C(C([H])([H])[H])(C([H])([H])[H])C([H])([H])[H])C([H])([H])c2c([H])c(OC([H])([H])C([H])([H])C([H])([H])C([H])([H])c3c([H])c([H])c(C([H])([H])C4([H])C([H])([H])C([H])([H])N(C(=O)N5C([H])([H])C([H])([H])C([H])([H])C([H])(n6nc(-c7c([H])c([H])c(Oc8c([H])c([H])c(F)c([H])c8F)c([H])c7[H])c(C(=O)N([H])[H])c6N([H])[H])C5([H])[H])C([H])([H])C4([H])[H])c([H])c3F)c([H])c([H])c2C1([H])[H]

>  <smiles>  (57) 
[H]c1c([H])c([H])c2c(c1[H])C([H])([H])C([H])([H])C([H])([H])C2([H])N([H])C(=O)C1([H])N(C(=O)C([H])(N([H])C(=O)C([H])(N([H])C([H])([H])[H])C([H])([H])[H])C(C([H])([H])[H])(C([H])([H])[H])C([H])([H])[H])C([H])([H])c2c([H])c(OC([H])([H])C([H])([H])C([H])([H])C([H])([H])c3c([H])c([H])c(C([H])([H])C4([H])C([H])([H])C([H])([H])N(C(=O)N5C([H])([H])C([H])([H])C([H])([H])C([H])(n6nc(-c7c([H])c([H])c(Oc8c([H])c([H])c(F)c([H])c8F)c([H])c7[H])c(C(=O)N([H])[H])c6N([H])[H])C5([H])[H])C([H])([H])C4([H])[H])c([H])c3F)c([H])c([H])c2C1([H])[H]

$$$$
57:0:0
     RDKit          3D

 85 92  0  0  1  0  0  0  0  0999 V2000
  -28.9650  -22.8650   20.2870 C   0  0  0  0  0  3  0  0  0  0  0  0
  -28.5690  -21.1690   20.2760 C   0  0  0  0  0  0  0  0  0  0  0  0
  -27.3530  -20.9470   20.2710 O   0  0  0  0  0  0  0  0  0  0  0  0
  -29.5820  -19.6590   20.2710 C   0  0  0  0  0  0  0  0  0  0  0  0
  -30.7920  -19.8670   20.1340 O   0  0  0  0  0  0  0  0  0  0  0  0
  -29.1030  -18.0620   20.4200 C   0  0  0  0  0  3  0  0  0  0  0  0
  -29.5220  -16.6420   20.3670 C   0  0  0  0  0  0  0  0  0  0  0  0
  -30.4230  -15.3020   20.1990 C   0  0  0  0  0  0  0  0  0  0  0  0
  -30.4020  -12.8660   19.3150 C   0  0  0  0  0  2  0  0  0  0  0  0
  -29.4680  -12.7050   18.0880 C   0  0  0  0  0  2  0  0  0  0  0  0
  -28.0210  -12.4320   18.5340 C   0  0  0  0  0  2  0  0  0  0  0  0
  -27.5840  -13.3730   19.6850 C   0  0  0  0  0  3  0  0  0  0  0  0
  -28.6430  -13.4930   20.7990 C   0  0  0  0  0  2  0  0  0  0  0  0
  -29.8800  -13.9890   20.1760 N   0  0  0  0  0  0  0  0  0  0  0  0
  -31.6380  -15.2980   19.9360 O   0  0  0  0  0  0  0  0  0  0  0  0
  -25.2190  -13.9060   20.4750 C   0  0  0  0  0  0  0  0  0  0  0  0
  -24.1680  -13.1170   20.8500 C   0  0  0  0  0  0  0  0  0  0  0  0
  -24.6450  -11.7710   20.8020 C   0  0  0  0  0  0  0  0  0  0  0  0
  -26.2650  -13.0420   20.2080 N   0  0  0  0  0  0  0  0  0  0  0  0
  -25.9340  -11.7510   20.4740 N   0  0  0  0  0  0  0  0  0  0  0  0
  -23.9320  -10.5010   20.9900 C   0  0  0  0  0  0  0  0  0  0  0  0
  -24.3600   -9.5420   21.9350 C   0  0  0  0  0  3  0  0  0  0  0  0
  -23.6430   -8.3400   22.1110 C   0  0  0  0  0  3  0  0  0  0  0  0
  -22.4820   -8.0860   21.3420 C   0  0  0  0  0  0  0  0  0  0  0  0
  -22.0720   -9.0330   20.3880 C   0  0  0  0  0  3  0  0  0  0  0  0
  -22.7900  -10.2280   20.2100 C   0  0  0  0  0  3  0  0  0  0  0  0
  -21.7360   -6.9350   21.4280 O   0  0  0  0  0  0  0  0  0  0  0  0
  -21.6510   -6.2170   22.5940 C   0  0  0  0  0  0  0  0  0  0  0  0
  -21.1500   -6.7860   23.7850 C   0  0  0  0  0  3  0  0  0  0  0  0
  -21.0140   -5.9930   24.9410 C   0  0  0  0  0  3  0  0  0  0  0  0
  -21.3680   -4.6320   24.9080 C   0  0  0  0  0  0  0  0  0  0  0  0
  -21.8620   -4.0610   23.7220 C   0  0  0  0  0  3  0  0  0  0  0  0
  -21.9990   -4.8520   22.5670 C   0  0  0  0  0  0  0  0  0  0  0  0
  -22.4550   -4.2910   21.4210 F   0  0  0  0  0  0  0  0  0  0  0  0
  -21.2320   -3.8680   26.0180 F   0  0  0  0  0  0  0  0  0  0  0  0
  -22.7700  -13.5800   21.1380 C   0  0  0  0  0  0  0  0  0  0  0  0
  -22.0590  -12.8760   22.0110 N   0  0  0  0  0  0  0  0  0  0  0  0
  -22.3180  -14.6030   20.6240 O   0  0  0  0  0  0  0  0  0  0  0  0
  -22.4380  -12.0490   22.4480 H   0  0  0  0  0  0  0  0  0  0  0  0
  -21.1210  -13.1680   22.2460 H   0  0  0  0  0  0  0  0  0  0  0  0
  -25.3700  -15.2800   20.3110 N   0  0  0  0  0  0  0  0  0  0  0  0
  -24.6040  -15.9300   20.4480 H   0  0  0  0  0  0  0  0  0  0  0  0
  -26.2210  -15.7290   19.9950 H   0  0  0  0  0  0  0  0  0  0  0  0
  -27.9470  -24.3350   20.1630 C   0  0  0  0  0  3  0  0  0  0  0  0
  -28.2090  -25.9510   20.2800 O   0  0  0  0  0  0  0  0  0  0  0  0
  -24.6430  -31.8790   23.2590 C   0  0  0  0  0  0  0  0  0  0  0  0
  -27.1910  -27.0320   20.2240 C   0  0  0  0  0  0  0  0  0  0  0  0
  -23.4470  -30.4970   21.6100 C   0  0  0  0  0  3  0  0  0  0  0  0
  -24.8930  -28.9000   20.1820 C   0  0  0  0  0  0  0  0  0  0  0  0
  -26.0130  -30.7090   21.4670 C   0  0  0  0  0  2  0  0  0  0  0  0
  -26.0800  -29.3050   20.8040 C   0  0  0  0  0  0  0  0  0  0  0  0
  -27.2260  -28.3940   20.7980 C   0  0  0  0  0  3  0  0  0  0  0  0
  -25.9730  -26.7700   19.5580 C   0  0  0  0  0  3  0  0  0  0  0  0
  -24.8630  -27.6520   19.5390 C   0  0  0  0  0  3  0  0  0  0  0  0
  -23.6760  -29.8200   20.2300 C   0  0  0  0  0  2  0  0  0  0  0  0
  -24.7230  -31.0550   22.1650 N   0  0  0  0  0  0  0  0  0  0  0  0
  -23.5540  -32.1690   23.7800 O   0  0  0  0  0  0  0  0  0  0  0  0
  -22.7490  -29.4970   22.5680 C   0  0  0  0  0  0  0  0  0  0  0  0
  -21.4190  -29.3340   22.4380 N   0  0  0  0  0  0  0  0  0  0  0  0
  -23.4110  -28.8670   23.3970 O   0  0  0  0  0  0  0  0  0  0  0  0
  -20.9390  -29.8920   21.7460 H   0  0  0  0  0  0  0  0  0  0  0  0
  -18.0320  -28.1330   22.9300 C   0  0  0  0  0  0  0  0  0  0  0  0
  -20.5920  -28.3950   23.2020 C   0  0  0  0  0  3  0  0  0  0  0  0
  -20.6930  -26.9650   22.6220 C   0  0  0  0  0  2  0  0  0  0  0  0
  -19.5930  -26.6480   21.6030 C   0  0  0  0  0  2  0  0  0  0  0  0
  -18.2100  -26.7890   22.2450 C   0  0  0  0  0  2  0  0  0  0  0  0
  -19.1500  -28.8940   23.3650 C   0  0  0  0  0  0  0  0  0  0  0  0
  -18.9280  -30.1510   23.9690 C   0  0  0  0  0  3  0  0  0  0  0  0
  -17.6210  -30.6470   24.1400 C   0  0  0  0  0  3  0  0  0  0  0  0
  -16.5190  -29.8840   23.7190 C   0  0  0  0  0  3  0  0  0  0  0  0
  -16.7250  -28.6290   23.1200 C   0  0  0  0  0  3  0  0  0  0  0  0
  -25.9150  -32.5140   23.8970 C   0  0  0  0  0  3  0  0  0  0  0  0
  -26.4150  -31.7420   25.1810 C   0  0  1  0  0  0  0  0  0  0  0  0
  -25.3090  -31.5100   26.2390 C   0  0  0  0  0  1  0  0  0  0  0  0
  -26.9950  -30.3600   24.8040 C   0  0  0  0  0  1  0  0  0  0  0  0
  -27.5620  -32.5320   25.8540 C   0  0  0  0  0  1  0  0  0  0  0  0
  -25.6020  -33.9130   24.2380 N   0  0  0  0  0  0  0  0  0  0  0  0
  -25.9110  -34.9750   23.4800 C   0  0  0  0  0  0  0  0  0  0  0  0
  -26.5500  -34.8800   22.4310 O   0  0  0  0  0  0  0  0  0  0  0  0
  -25.0280  -34.0590   25.0540 H   0  0  0  0  0  0  0  0  0  0  0  0
  -24.1530  -36.7590   23.2140 C   0  0  0  0  0  1  0  0  0  0  0  0
  -25.4350  -36.3610   23.9630 C   0  0  0  0  0  3  0  0  0  0  0  0
  -27.5960  -37.2700   24.6940 C   0  0  0  0  0  1  0  0  0  0  0  0
  -26.4530  -37.4230   23.8000 N   0  0  0  0  0  0  0  0  0  0  0  0
  -26.0450  -38.3410   23.9610 H   0  0  0  0  0  0  0  0  0  0  0  0
  2  1  1  0
  3  2  2  0
  4  2  1  0
  4  6  1  0
  5  4  2  0
  7  6  2  0
  8  7  2  0
  9 14  1  0
 10 11  1  0
 10  9  1  0
 12 11  1  0
 12 19  1  0
 12 13  1  0
 14  8  1  0
 14 13  1  0
 15  8  2  0
 16 17  2  0
 17 36  1  0
 18 17  1  0
 18 21  1  0
 19 20  1  0
 19 16  1  0
 20 18  2  0
 21 22  1  0
 22 23  2  0
 24 27  1  0
 24 23  1  0
 25 24  2  0
 26 25  1  0
 26 21  2  0
 27 28  1  0
 28 29  1  0
 29 30  2  0
 31 30  1  0
 31 35  1  0
 32 31  2  0
 33 28  2  0
 33 32  1  0
 34 33  1  0
 36 37  1  0
 37 40  1  0
 37 39  1  0
 38 36  2  0
 41 42  1  0
 41 16  1  0
 43 41  1  0
 44 45  1  0
 44  1  2  0
 46 57  2  0
 47 45  1  0
 47 52  1  0
 48 56  1  0
 48 58  1  0
 49 55  1  0
 49 51  1  0
 50 56  1  0
 51 50  1  0
 52 51  2  0
 53 47  2  0
 54 53  1  0
 54 49  2  0
 55 48  1  0
 56 46  1  0
 58 60  2  0
 59 58  1  0
 61 59  1  0
 62 71  2  0
 62 67  1  0
 63 59  1  0
 63 67  1  0
 64 63  1  0
 65 66  1  0
 65 64  1  0
 66 62  1  0
 67 68  2  0
 68 69  1  0
 70 69  2  0
 71 70  1  0
 72 46  1  0
 72 77  1  0
 72 73  1  0
 73 76  1  1
 73 74  1  0
 75 73  1  0
 77 80  1  0
 78 82  1  0
 78 77  1  0
 79 78  2  0
 82 81  1  0
 84 85  1  0
 84 82  1  0
 84 83  1  0
M  ISO  4   7 100   8 100  44 101  45 101
M  END
>  <TORSDO>  (58) 
F 20

>  <SCORE>  (58) 
-14.899

>  <name>  (58) 
57

>  <ligand_id>  (58) 
57

>  <original_smiles>  (58) 
[H]C(C(=O)C(=O)C([H])([H])C([H])([H])Oc1c([H])c([H])c2c(c1[H])C([H])([H])N(C(=O)C([H])(N([H])C(=O)C([H])(N([H])C([H])([H])[H])C([H])([H])[H])C(C([H])([H])[H])(C([H])([H])[H])C([H])([H])[H])C([H])(C(=O)N([H])C1([H])c3c([H])c([H])c([H])c([H])c3C([H])([H])C([H])([H])C1([H])[H])C2([H])[H])=C([H])C(=O)N1C([H])([H])C([H])([H])C([H])([H])C([H])(n2nc(-c3c([H])c([H])c(Oc4c([H])c([H])c(F)c([H])c4F)c([H])c3[H])c(C(=O)N([H])[H])c2N([H])[H])C1([H])[H]

>  <smiles>  (58) 
[H]C(C(=O)C(=O)C([H])([H])C([H])([H])Oc1c([H])c([H])c2c(c1[H])C([H])([H])N(C(=O)C([H])(N([H])C(=O)C([H])(N([H])C([H])([H])[H])C([H])([H])[H])C(C([H])([H])[H])(C([H])([H])[H])C([H])([H])[H])C([H])(C(=O)N([H])C1([H])c3c([H])c([H])c([H])c([H])c3C([H])([H])C([H])([H])C1([H])[H])C2([H])[H])=C([H])C(=O)N1C([H])([H])C([H])([H])C([H])([H])C([H])(n2nc(-c3c([H])c([H])c(Oc4c([H])c([H])c(F)c([H])c4F)c([H])c3[H])c(C(=O)N([H])[H])c2N([H])[H])C1([H])[H]

$$$$
58:0:0
     RDKit          3D

 97105  0  0  1  0  0  0  0  0999 V2000
  -32.6690  -24.6220   18.3840 C   0  0  0  0  0  3  0  0  0  0  0  0
  -31.6910  -23.6190   18.2750 C   0  0  0  0  0  3  0  0  0  0  0  0
  -31.0070  -26.1110   19.3370 C   0  0  0  0  0  3  0  0  0  0  0  0
  -32.3290  -25.8720   18.9230 C   0  0  0  0  0  0  0  0  0  0  0  0
  -30.3560  -23.8270   18.7100 C   0  0  0  0  0  0  0  0  0  0  0  0
  -30.0070  -25.1130   19.2290 C   0  0  0  0  0  0  0  0  0  0  0  0
  -33.3790  -26.9600   19.0380 C   0  0  0  0  0  1  0  0  0  0  0  0
  -28.9530  -22.5580   17.0600 C   0  0  0  0  0  1  0  0  0  0  0  0
  -29.3580  -22.6560   18.5430 C   0  0  2  0  0  0  0  0  0  0  0  0
  -28.2210  -22.8500   19.2100 F   0  0  0  0  0  0  0  0  0  0  0  0
  -30.4450  -21.4060   20.5350 C   0  0  0  0  0  1  0  0  0  0  0  0
  -29.8970  -21.2980   19.0940 C   0  0  0  0  0  3  0  0  0  0  0  0
  -28.8340  -20.2630   19.0060 N   0  0  0  0  0  4  0  0  0  0  0  0
  -28.2030  -20.3360   19.7880 H   0  0  0  0  0  0  0  0  0  0  0  0
  -28.2970  -20.5200   18.1920 H   0  0  0  0  0  0  0  0  0  0  0  0
  -29.2750  -18.8670   18.7920 C   0  0  0  0  0  2  0  0  0  0  0  0
  -29.3230  -18.0210   20.0820 C   0  0  0  0  0  2  0  0  0  0  0  0
  -29.8900  -16.6240   19.7860 C   0  0  0  0  0  2  0  0  0  0  0  0
  -29.9940  -15.6860   21.0090 C   0  0  0  0  0  2  0  0  0  0  0  0
  -30.7100  -14.3910   20.5850 C   0  0  0  0  0  0  0  0  0  0  0  0
  -30.3900  -12.2540   19.4260 C   0  0  0  0  0  2  0  0  0  0  0  0
  -29.4850  -12.5230   18.2050 C   0  0  0  0  0  2  0  0  0  0  0  0
  -27.9940  -12.4300   18.5930 C   0  0  0  0  0  2  0  0  0  0  0  0
  -27.6510  -13.2440   19.8710 C   0  0  0  0  0  3  0  0  0  0  0  0
  -28.6760  -12.9610   20.9920 C   0  0  0  0  0  2  0  0  0  0  0  0
  -30.0220  -13.2270   20.4630 N   0  0  0  0  0  0  0  0  0  0  0  0
  -31.8690  -14.5180   20.1820 O   0  0  0  0  0  0  0  0  0  0  0  0
  -25.2370  -13.8880   20.4960 C   0  0  0  0  0  0  0  0  0  0  0  0
  -24.1500  -13.1330   20.8460 C   0  0  0  0  0  0  0  0  0  0  0  0
  -24.5980  -11.7760   20.8520 C   0  0  0  0  0  0  0  0  0  0  0  0
  -26.2800  -12.9930   20.3140 N   0  0  0  0  0  0  0  0  0  0  0  0
  -25.8960  -11.7190   20.5820 N   0  0  0  0  0  0  0  0  0  0  0  0
  -23.8540  -10.5250   21.0430 C   0  0  0  0  0  0  0  0  0  0  0  0
  -24.2650   -9.5560   21.9850 C   0  0  0  0  0  3  0  0  0  0  0  0
  -23.5220   -8.3700   22.1630 C   0  0  0  0  0  3  0  0  0  0  0  0
  -22.3530   -8.1430   21.3970 C   0  0  0  0  0  0  0  0  0  0  0  0
  -21.9610   -9.1000   20.4450 C   0  0  0  0  0  3  0  0  0  0  0  0
  -22.7060  -10.2780   20.2660 C   0  0  0  0  0  3  0  0  0  0  0  0
  -21.5830   -7.0070   21.4840 O   0  0  0  0  0  0  0  0  0  0  0  0
  -21.5310   -6.2590   22.6330 C   0  0  0  0  0  0  0  0  0  0  0  0
  -21.1340   -6.8180   23.8680 C   0  0  0  0  0  3  0  0  0  0  0  0
  -21.0240   -5.9990   25.0080 C   0  0  0  0  0  3  0  0  0  0  0  0
  -21.3050   -4.6230   24.9180 C   0  0  0  0  0  0  0  0  0  0  0  0
  -21.6960   -4.0630   23.6880 C   0  0  0  0  0  3  0  0  0  0  0  0
  -21.8060   -4.8800   22.5490 C   0  0  0  0  0  0  0  0  0  0  0  0
  -22.1630   -4.3320   21.3620 F   0  0  0  0  0  0  0  0  0  0  0  0
  -21.1930   -3.8340   26.0110 F   0  0  0  0  0  0  0  0  0  0  0  0
  -22.7500  -13.6290   21.0720 C   0  0  0  0  0  0  0  0  0  0  0  0
  -21.9930  -12.9550   21.9300 N   0  0  0  0  0  0  0  0  0  0  0  0
  -22.3350  -14.6480   20.5220 O   0  0  0  0  0  0  0  0  0  0  0  0
  -22.3420  -12.1300   22.3960 H   0  0  0  0  0  0  0  0  0  0  0  0
  -21.0550  -13.2720   22.1300 H   0  0  0  0  0  0  0  0  0  0  0  0
  -25.4230  -15.2530   20.3000 N   0  0  0  0  0  0  0  0  0  0  0  0
  -24.6630  -15.9200   20.3850 H   0  0  0  0  0  0  0  0  0  0  0  0
  -26.2950  -15.6760   20.0080 H   0  0  0  0  0  0  0  0  0  0  0  0
  -28.5730  -25.4920   19.6010 C   0  0  0  0  0  2  0  0  0  0  0  0
  -28.4700  -26.8140   20.1190 O   0  0  0  0  0  0  0  0  0  0  0  0
  -24.6370  -31.8870   23.2550 C   0  0  0  0  0  0  0  0  0  0  0  0
  -27.2480  -27.4490   20.1550 C   0  0  0  0  0  0  0  0  0  0  0  0
  -23.4090  -30.4790   21.6340 C   0  0  0  0  0  3  0  0  0  0  0  0
  -24.8410  -28.9290   20.2080 C   0  0  0  0  0  0  0  0  0  0  0  0
  -25.9290  -30.8390   21.4010 C   0  0  0  0  0  2  0  0  0  0  0  0
  -26.0030  -29.4640   20.7730 C   0  0  0  0  0  0  0  0  0  0  0  0
  -27.2050  -28.7280   20.7480 C   0  0  0  0  0  3  0  0  0  0  0  0
  -26.0580  -26.9090   19.6120 C   0  0  0  0  0  3  0  0  0  0  0  0
  -24.8610  -27.6480   19.6310 C   0  0  0  0  0  3  0  0  0  0  0  0
  -23.5990  -29.7890   20.2570 C   0  0  0  0  0  2  0  0  0  0  0  0
  -24.6780  -31.0830   22.1560 N   0  0  0  0  0  0  0  0  0  0  0  0
  -23.5640  -32.1630   23.8070 O   0  0  0  0  0  0  0  0  0  0  0  0
  -22.7690  -29.4630   22.6060 C   0  0  0  0  0  0  0  0  0  0  0  0
  -21.4460  -29.2690   22.4800 N   0  0  0  0  0  0  0  0  0  0  0  0
  -23.4580  -28.8520   23.4260 O   0  0  0  0  0  0  0  0  0  0  0  0
  -20.9530  -29.8160   21.7880 H   0  0  0  0  0  0  0  0  0  0  0  0
  -18.0840  -28.0440   22.9670 C   0  0  0  0  0  0  0  0  0  0  0  0
  -20.6360  -28.3360   23.2590 C   0  0  0  0  0  3  0  0  0  0  0  0
  -20.7610  -26.8960   22.7090 C   0  0  0  0  0  2  0  0  0  0  0  0
  -19.6730  -26.5440   21.6900 C   0  0  0  0  0  2  0  0  0  0  0  0
  -18.2840  -26.6840   22.3180 C   0  0  0  0  0  2  0  0  0  0  0  0
  -19.1900  -28.8260   23.3950 C   0  0  0  0  0  0  0  0  0  0  0  0
  -18.9510  -30.0980   23.9580 C   0  0  0  0  0  3  0  0  0  0  0  0
  -17.6390  -30.5880   24.1020 C   0  0  0  0  0  3  0  0  0  0  0  0
  -16.5490  -29.8030   23.6920 C   0  0  0  0  0  3  0  0  0  0  0  0
  -16.7720  -28.5330   23.1310 C   0  0  0  0  0  3  0  0  0  0  0  0
  -25.9330  -32.5160   23.8570 C   0  0  0  0  0  3  0  0  0  0  0  0
  -25.6320  -33.9160   24.1840 N   0  0  0  0  0  0  0  0  0  0  0  0
  -25.9610  -34.9630   23.4150 C   0  0  0  0  0  0  0  0  0  0  0  0
  -26.6200  -34.8520   22.3770 O   0  0  0  0  0  0  0  0  0  0  0  0
  -25.0460  -34.0770   24.9900 H   0  0  0  0  0  0  0  0  0  0  0  0
  -24.2330  -36.7570   23.0650 C   0  0  0  0  0  1  0  0  0  0  0  0
  -25.4810  -36.3550   23.8680 C   0  0  0  0  0  3  0  0  0  0  0  0
  -27.6260  -37.2370   24.6730 C   0  0  0  0  0  1  0  0  0  0  0  0
  -26.5150  -37.4040   23.7400 N   0  0  0  0  0  0  0  0  0  0  0  0
  -26.1120  -38.3260   23.8880 H   0  0  0  0  0  0  0  0  0  0  0  0
  -26.4660  -31.7470   25.1280 C   0  0  1  0  0  0  0  0  0  0  0  0
  -25.3870  -31.5160   26.2120 C   0  0  0  0  0  1  0  0  0  0  0  0
  -27.0380  -30.3670   24.7290 C   0  0  0  0  0  1  0  0  0  0  0  0
  -27.6270  -32.5400   25.7720 C   0  0  0  0  0  1  0  0  0  0  0  0
  1  4  1  0
  2  1  2  0
  2  5  1  0
  4  7  1  0
  4  3  2  0
  5  6  2  0
  6  3  1  0
  6 56  1  0
  9  8  1  6
  9  5  1  0
  9 12  1  0
  9 10  1  0
 12 11  1  0
 13 12  1  0
 13 14  1  0
 15 13  1  0
 16 13  1  0
 16 17  1  0
 18 17  1  0
 18 19  1  0
 20 19  1  0
 21 26  1  0
 22 23  1  0
 22 21  1  0
 24 23  1  0
 24 31  1  0
 24 25  1  0
 26 20  1  0
 26 25  1  0
 27 20  2  0
 28 29  2  0
 29 30  1  0
 29 48  1  0
 30 33  1  0
 31 28  1  0
 31 32  1  0
 32 30  2  0
 33 34  1  0
 34 35  2  0
 36 39  1  0
 36 35  1  0
 37 36  2  0
 38 37  1  0
 38 33  2  0
 39 40  1  0
 40 41  1  0
 41 42  2  0
 43 42  1  0
 43 47  1  0
 44 43  2  0
 45 40  2  0
 45 44  1  0
 46 45  1  0
 48 49  1  0
 49 52  1  0
 49 51  1  0
 50 48  2  0
 53 54  1  0
 53 28  1  0
 55 53  1  0
 56 57  1  0
 57 59  1  0
 58 69  2  0
 59 64  1  0
 60 68  1  0
 60 70  1  0
 61 67  1  0
 61 63  1  0
 62 68  1  0
 63 62  1  0
 64 63  2  0
 65 66  1  0
 65 59  2  0
 66 61  2  0
 67 60  1  0
 68 58  1  0
 70 72  2  0
 71 70  1  0
 73 71  1  0
 74 83  2  0
 74 79  1  0
 75 71  1  0
 75 79  1  0
 76 75  1  0
 77 78  1  0
 77 76  1  0
 78 74  1  0
 79 80  2  0
 80 81  1  0
 82 81  2  0
 83 82  1  0
 84 58  1  0
 84 85  1  0
 84 94  1  0
 85 88  1  0
 86 90  1  0
 86 85  1  0
 87 86  2  0
 90 89  1  0
 92 90  1  0
 92 93  1  0
 92 91  1  0
 94 97  1  1
 94 95  1  0
 96 94  1  0
M  ISO  4  19 100  20 100  56 101  57 101
M  END
>  <TORSDO>  (59) 
F 24

>  <SCORE>  (59) 
-12.332

>  <name>  (59) 
58

>  <ligand_id>  (59) 
58

>  <original_smiles>  (59) 
[H]c1c([H])c([H])c2c(c1[H])C([H])([H])C([H])([H])C([H])([H])C2([H])N([H])C(=O)C1([H])N(C(=O)C([H])(N([H])C(=O)C([H])(N([H])C([H])([H])[H])C([H])([H])[H])C(C([H])([H])[H])(C([H])([H])[H])C([H])([H])[H])C([H])([H])c2c([H])c(OC([H])([H])c3c([H])c(C([H])([H])[H])c([H])c([H])c3C(F)(C([H])([H])[H])C([H])(C([H])([H])[H])[N+]([H])([H])C([H])([H])C([H])([H])C([H])([H])C([H])([H])C(=O)N3C([H])([H])C([H])([H])C([H])([H])C([H])(n4nc(-c5c([H])c([H])c(Oc6c([H])c([H])c(F)c([H])c6F)c([H])c5[H])c(C(=O)N([H])[H])c4N([H])[H])C3([H])[H])c([H])c([H])c2C1([H])[H]

>  <smiles>  (59) 
[H]c1c([H])c([H])c2c(c1[H])C([H])([H])C([H])([H])C([H])([H])C2([H])N([H])C(=O)C1([H])N(C(=O)C([H])(N([H])C(=O)C([H])(N([H])C([H])([H])[H])C([H])([H])[H])C(C([H])([H])[H])(C([H])([H])[H])C([H])([H])[H])C([H])([H])c2c([H])c(OC([H])([H])c3c([H])c(C([H])([H])[H])c([H])c([H])c3C(F)(C([H])([H])[H])C([H])(C([H])([H])[H])[N+]([H])([H])C([H])([H])C([H])([H])C([H])([H])C([H])([H])C(=O)N3C([H])([H])C([H])([H])C([H])([H])C([H])(n4nc(-c5c([H])c([H])c(Oc6c([H])c([H])c(F)c([H])c6F)c([H])c5[H])c(C(=O)N([H])[H])c4N([H])[H])C3([H])[H])c([H])c([H])c2C1([H])[H]

$$$$
59:0:0
     RDKit          3D

 93101  0  0  1  0  0  0  0  0999 V2000
  -28.7830  -21.9070   19.5680 C   0  0  0  0  0  3  0  0  0  0  0  0
  -29.2680  -22.7410   18.6280 C   0  0  0  0  0  3  0  0  0  0  0  0
  -29.8400  -19.7710   18.9440 C   0  0  0  0  0  3  0  0  0  0  0  0
  -30.4830  -18.5710   19.2470 C   0  0  0  0  0  3  0  0  0  0  0  0
  -29.4760  -20.6720   19.9650 C   0  0  0  0  0  0  0  0  0  0  0  0
  -30.7880  -18.2460   20.5780 C   0  0  0  0  0  0  0  0  0  0  0  0
  -29.8160  -20.3720   21.3100 C   0  0  0  0  0  0  0  0  0  0  0  0
  -30.4780  -19.1540   21.6130 C   0  0  0  0  0  0  0  0  0  0  0  0
  -29.4760  -21.3480   22.4260 C   0  0  0  0  0  1  0  0  0  0  0  0
  -30.7890  -18.8420   22.8960 F   0  0  0  0  0  0  0  0  0  0  0  0
  -31.4370  -16.9520   20.7650 C   0  0  0  0  0  3  0  0  0  0  0  0
  -30.8610  -15.8470   20.2610 C   0  0  0  0  0  3  0  0  0  0  0  0
  -31.6020  -14.6240   20.0570 C   0  0  0  0  0  0  0  0  0  0  0  0
  -31.0860  -12.5400   18.8840 C   0  0  0  0  0  2  0  0  0  0  0  0
  -30.0680  -12.8470   17.7660 C   0  0  0  0  0  2  0  0  0  0  0  0
  -28.6280  -12.7500   18.3080 C   0  0  0  0  0  2  0  0  0  0  0  0
  -28.4190  -13.5590   19.6140 C   0  0  0  0  0  3  0  0  0  0  0  0
  -29.5530  -13.2860   20.6280 C   0  0  0  0  0  2  0  0  0  0  0  0
  -30.8440  -13.5060   19.9610 N   0  0  0  0  0  0  0  0  0  0  0  0
  -32.7630  -14.6920   19.6550 O   0  0  0  0  0  0  0  0  0  0  0  0
  -26.1460  -14.2140   20.6260 C   0  0  0  0  0  0  0  0  0  0  0  0
  -25.0680  -13.4640   21.0110 C   0  0  0  0  0  0  0  0  0  0  0  0
  -25.4360  -12.1020   20.7910 C   0  0  0  0  0  0  0  0  0  0  0  0
  -27.1050  -13.3090   20.1990 N   0  0  0  0  0  0  0  0  0  0  0  0
  -26.6870  -12.0280   20.3620 N   0  0  0  0  0  0  0  0  0  0  0  0
  -24.6490  -10.8710   20.9050 C   0  0  0  0  0  0  0  0  0  0  0  0
  -25.0220   -9.8390   21.7940 C   0  0  0  0  0  3  0  0  0  0  0  0
  -24.2390   -8.6700   21.9020 C   0  0  0  0  0  3  0  0  0  0  0  0
  -23.0680   -8.5270   21.1200 C   0  0  0  0  0  0  0  0  0  0  0  0
  -22.7160   -9.5480   20.2180 C   0  0  0  0  0  3  0  0  0  0  0  0
  -23.5000  -10.7070   20.1080 C   0  0  0  0  0  3  0  0  0  0  0  0
  -22.2570   -7.4180   21.1400 O   0  0  0  0  0  0  0  0  0  0  0  0
  -22.0620   -6.6890   22.2840 C   0  0  0  0  0  0  0  0  0  0  0  0
  -21.5490   -7.2730   23.4630 C   0  0  0  0  0  3  0  0  0  0  0  0
  -21.2980   -6.4720   24.5940 C   0  0  0  0  0  3  0  0  0  0  0  0
  -21.5510   -5.0890   24.5490 C   0  0  0  0  0  0  0  0  0  0  0  0
  -22.0550   -4.5040   23.3730 C   0  0  0  0  0  3  0  0  0  0  0  0
  -22.3070   -5.3010   22.2440 C   0  0  0  0  0  0  0  0  0  0  0  0
  -22.7710   -4.7280   21.1060 F   0  0  0  0  0  0  0  0  0  0  0  0
  -21.3090   -4.3180   25.6360 F   0  0  0  0  0  0  0  0  0  0  0  0
  -23.7340  -13.9820   21.4660 C   0  0  0  0  0  0  0  0  0  0  0  0
  -23.0610  -13.2550   22.3520 N   0  0  0  0  0  0  0  0  0  0  0  0
  -23.3010  -15.0640   21.0710 O   0  0  0  0  0  0  0  0  0  0  0  0
  -23.4280  -12.3790   22.6950 H   0  0  0  0  0  0  0  0  0  0  0  0
  -22.1690  -13.5820   22.6950 H   0  0  0  0  0  0  0  0  0  0  0  0
  -26.3820  -15.5850   20.5790 N   0  0  0  0  0  0  0  0  0  0  0  0
  -25.6650  -16.2630   20.8140 H   0  0  0  0  0  0  0  0  0  0  0  0
  -27.2260  -16.0120   20.2200 H   0  0  0  0  0  0  0  0  0  0  0  0
  -28.5080  -23.8850   18.1390 C   0  0  0  0  0  0  0  0  0  0  0  0
  -27.2800  -23.8590   18.0230 O   0  0  0  0  0  0  0  0  0  0  0  0
  -29.3190  -25.1000   17.6910 C   0  0  0  0  0  2  0  0  0  0  0  0
  -28.5360  -26.4160   17.7360 C   0  0  0  0  0  2  0  0  0  0  0  0
  -28.2490  -26.7370   19.0950 O   0  0  0  0  0  0  0  0  0  0  0  0
  -24.8380  -31.5380   23.0480 C   0  0  0  0  0  0  0  0  0  0  0  0
  -27.0890  -27.4380   19.2960 C   0  0  0  0  0  0  0  0  0  0  0  0
  -23.4510  -30.3370   21.3840 C   0  0  0  0  0  3  0  0  0  0  0  0
  -24.7330  -28.9310   19.6930 C   0  0  0  0  0  0  0  0  0  0  0  0
  -25.9550  -30.6750   21.0010 C   0  0  0  0  0  2  0  0  0  0  0  0
  -25.9470  -29.3770   20.2280 C   0  0  0  0  0  0  0  0  0  0  0  0
  -27.1260  -28.6290   20.0450 C   0  0  0  0  0  3  0  0  0  0  0  0
  -25.8560  -26.9840   18.7790 C   0  0  0  0  0  3  0  0  0  0  0  0
  -24.6780  -27.7260   18.9720 C   0  0  0  0  0  3  0  0  0  0  0  0
  -23.5190  -29.7990   19.9310 C   0  0  0  0  0  2  0  0  0  0  0  0
  -24.7710  -30.8580   21.8690 N   0  0  0  0  0  0  0  0  0  0  0  0
  -23.8180  -31.7730   23.7080 O   0  0  0  0  0  0  0  0  0  0  0  0
  -22.8600  -29.2320   22.2900 C   0  0  0  0  0  0  0  0  0  0  0  0
  -21.5360  -29.0350   22.1980 N   0  0  0  0  0  0  0  0  0  0  0  0
  -23.5860  -28.5610   23.0260 O   0  0  0  0  0  0  0  0  0  0  0  0
  -21.0080  -29.6340   21.5780 H   0  0  0  0  0  0  0  0  0  0  0  0
  -18.2220  -27.6760   22.6460 C   0  0  0  0  0  0  0  0  0  0  0  0
  -20.7650  -28.0280   22.9270 C   0  0  0  0  0  3  0  0  0  0  0  0
  -20.9270  -26.6310   22.2860 C   0  0  0  0  0  2  0  0  0  0  0  0
  -19.8390  -26.3100   21.2570 C   0  0  0  0  0  2  0  0  0  0  0  0
  -18.4530  -26.3690   21.9060 C   0  0  0  0  0  2  0  0  0  0  0  0
  -19.3080  -28.4630   23.1100 C   0  0  0  0  0  0  0  0  0  0  0  0
  -19.0380  -29.6880   23.7580 C   0  0  0  0  0  3  0  0  0  0  0  0
  -17.7150  -30.1250   23.9500 C   0  0  0  0  0  3  0  0  0  0  0  0
  -16.6420  -29.3340   23.5030 C   0  0  0  0  0  3  0  0  0  0  0  0
  -16.8970  -28.1120   22.8570 C   0  0  0  0  0  3  0  0  0  0  0  0
  -26.1930  -32.0730   23.6080 C   0  0  0  0  0  3  0  0  0  0  0  0
  -25.9560  -33.4330   24.1090 N   0  0  0  0  0  0  0  0  0  0  0  0
  -26.2580  -34.5530   23.4380 C   0  0  0  0  0  0  0  0  0  0  0  0
  -26.8420  -34.5460   22.3500 O   0  0  0  0  0  0  0  0  0  0  0  0
  -25.4340  -33.5160   24.9700 H   0  0  0  0  0  0  0  0  0  0  0  0
  -24.5510  -36.3980   23.4250 C   0  0  0  0  0  1  0  0  0  0  0  0
  -25.8490  -35.8940   24.0750 C   0  0  0  0  0  3  0  0  0  0  0  0
  -28.0720  -36.6530   24.7920 C   0  0  0  0  0  1  0  0  0  0  0  0
  -26.8940  -36.9370   23.9780 N   0  0  0  0  0  0  0  0  0  0  0  0
  -26.5260  -37.8410   24.2610 H   0  0  0  0  0  0  0  0  0  0  0  0
  -26.8020  -31.1580   24.7410 C   0  0  1  0  0  0  0  0  0  0  0  0
  -25.8010  -30.8160   25.8660 C   0  0  0  0  0  1  0  0  0  0  0  0
  -27.3190  -29.8260   24.1480 C   0  0  0  0  0  1  0  0  0  0  0  0
  -28.0210  -31.8630   25.3830 C   0  0  0  0  0  1  0  0  0  0  0  0
  1  5  1  0
  2  1  2  0
  3  4  2  0
  3  5  1  0
  4  6  1  0
  5  7  2  0
  6 11  1  0
  6  8  2  0
  7  8  1  0
  7  9  1  0
  8 10  1  0
 12 11  2  0
 13 12  1  0
 14 19  1  0
 15 16  1  0
 15 14  1  0
 17 16  1  0
 17 24  1  0
 17 18  1  0
 19 13  1  0
 19 18  1  0
 20 13  2  0
 21 22  2  0
 22 41  1  0
 23 26  1  0
 23 22  1  0
 24 25  1  0
 24 21  1  0
 25 23  2  0
 26 27  1  0
 27 28  2  0
 29 32  1  0
 29 28  1  0
 30 29  2  0
 31 30  1  0
 31 26  2  0
 32 33  1  0
 33 34  1  0
 34 35  2  0
 36 35  1  0
 36 40  1  0
 37 36  2  0
 38 33  2  0
 38 37  1  0
 39 38  1  0
 41 42  1  0
 42 45  1  0
 42 44  1  0
 43 41  2  0
 46 21  1  0
 46 47  1  0
 48 46  1  0
 49  2  1  0
 50 49  2  0
 51 52  1  0
 51 49  1  0
 52 53  1  0
 53 55  1  0
 54 65  2  0
 55 60  1  0
 56 64  1  0
 56 66  1  0
 57 63  1  0
 57 59  1  0
 58 64  1  0
 59 58  1  0
 60 59  2  0
 61 62  1  0
 61 55  2  0
 62 57  2  0
 63 56  1  0
 64 54  1  0
 66 68  2  0
 67 66  1  0
 69 67  1  0
 70 79  2  0
 70 75  1  0
 71 67  1  0
 71 75  1  0
 72 71  1  0
 73 74  1  0
 73 72  1  0
 74 70  1  0
 75 76  2  0
 76 77  1  0
 78 77  2  0
 79 78  1  0
 80 54  1  0
 80 81  1  0
 80 90  1  0
 81 84  1  0
 82 86  1  0
 82 81  1  0
 83 82  2  0
 86 85  1  0
 88 86  1  0
 88 89  1  0
 88 87  1  0
 90 93  1  1
 90 91  1  0
 92 90  1  0
M  ISO  4  12 100  13 100  52 101  53 101
M  END
>  <TORSDO>  (60) 
F 21

>  <SCORE>  (60) 
-11.075

>  <name>  (60) 
59

>  <ligand_id>  (60) 
59

>  <original_smiles>  (60) 
[H]C(C(=O)N1C([H])([H])C([H])([H])C([H])([H])C([H])(n2nc(-c3c([H])c([H])c(Oc4c([H])c([H])c(F)c([H])c4F)c([H])c3[H])c(C(=O)N([H])[H])c2N([H])[H])C1([H])[H])=C([H])c1c([H])c([H])c(C([H])=C([H])C(=O)C([H])([H])C([H])([H])Oc2c([H])c([H])c3c(c2[H])C([H])([H])N(C(=O)C([H])(N([H])C(=O)C([H])(N([H])C([H])([H])[H])C([H])([H])[H])C(C([H])([H])[H])(C([H])([H])[H])C([H])([H])[H])C([H])(C(=O)N([H])C2([H])c4c([H])c([H])c([H])c([H])c4C([H])([H])C([H])([H])C2([H])[H])C3([H])[H])c(C([H])([H])[H])c1F

>  <smiles>  (60) 
[H]C(C(=O)N1C([H])([H])C([H])([H])C([H])([H])C([H])(n2nc(-c3c([H])c([H])c(Oc4c([H])c([H])c(F)c([H])c4F)c([H])c3[H])c(C(=O)N([H])[H])c2N([H])[H])C1([H])[H])=C([H])c1c([H])c([H])c(C([H])=C([H])C(=O)C([H])([H])C([H])([H])Oc2c([H])c([H])c3c(c2[H])C([H])([H])N(C(=O)C([H])(N([H])C(=O)C([H])(N([H])C([H])([H])[H])C([H])([H])[H])C(C([H])([H])[H])(C([H])([H])[H])C([H])([H])[H])C([H])(C(=O)N([H])C2([H])c4c([H])c([H])c([H])c([H])c4C([H])([H])C([H])([H])C2([H])[H])C3([H])[H])c(C([H])([H])[H])c1F

$$$$
60:0:0
     RDKit          3D

 99106  0  0  1  0  0  0  0  0999 V2000
  -22.4640  -23.9300   19.9760 C   0  0  0  0  0  2  0  0  0  0  0  0
  -22.3240  -24.1540   18.4550 C   0  0  0  0  0  2  0  0  0  0  0  0
  -23.1960  -23.2200   17.5850 C   0  0  0  0  0  2  0  0  0  0  0  0
  -23.0810  -23.5120   16.0730 C   0  0  0  0  0  2  0  0  0  0  0  0
  -23.7210  -24.8500   15.6490 C   0  0  0  0  0  2  0  0  0  0  0  0
  -24.7860  -24.7200   14.5410 C   0  0  0  0  0  2  0  0  0  0  0  0
  -25.6770  -25.9720   14.4400 C   0  0  0  0  0  2  0  0  0  0  0  0
  -27.1800  -25.6530   14.3610 C   0  0  0  0  0  2  0  0  0  0  0  0
  -28.0580  -26.9140   14.4500 C   0  0  0  0  0  2  0  0  0  0  0  0
  -29.4490  -26.6380   15.0510 C   0  0  0  0  0  2  0  0  0  0  0  0
  -30.2770  -27.9240   15.2440 C   0  0  0  0  0  2  0  0  0  0  0  0
  -31.2780  -27.8600   16.4120 C   0  0  0  0  0  2  0  0  0  0  0  0
  -33.6620  -27.2430   15.9570 C   0  0  0  0  0  0  0  0  0  0  0  0
  -35.9310  -26.3190   15.6620 C   0  0  0  0  0  2  0  0  0  0  0  0
  -36.2750  -26.1180   14.1740 C   0  0  0  0  0  2  0  0  0  0  0  0
  -35.7760  -24.7480   13.6810 C   0  0  0  0  0  2  0  0  0  0  0  0
  -34.2900  -24.4960   14.0450 C   0  0  0  0  0  3  0  0  0  0  0  0
  -34.0440  -24.7870   15.5400 C   0  0  0  0  0  2  0  0  0  0  0  0
  -34.4800  -26.1690   15.8240 N   0  0  0  0  0  0  0  0  0  0  0  0
  -34.0640  -28.4120   15.9650 O   0  0  0  0  0  0  0  0  0  0  0  0
  -32.3730  -26.9330   16.1390 N   0  0  0  0  0  0  0  0  0  0  0  0
  -32.1480  -25.9490   16.1280 H   0  0  0  0  0  0  0  0  0  0  0  0
  -32.8380  -22.7250   12.8670 C   0  0  0  0  0  0  0  0  0  0  0  0
  -32.9260  -21.3600   12.8180 C   0  0  0  0  0  0  0  0  0  0  0  0
  -34.0490  -21.0050   13.6290 C   0  0  0  0  0  0  0  0  0  0  0  0
  -33.8750  -23.1420   13.6890 N   0  0  0  0  0  0  0  0  0  0  0  0
  -34.5720  -22.0890   14.1880 N   0  0  0  0  0  0  0  0  0  0  0  0
  -34.6910  -19.7070   13.8620 C   0  0  0  0  0  0  0  0  0  0  0  0
  -34.9670  -19.2410   15.1660 C   0  0  0  0  0  3  0  0  0  0  0  0
  -35.5710  -17.9810   15.3630 C   0  0  0  0  0  3  0  0  0  0  0  0
  -35.9010  -17.1710   14.2510 C   0  0  0  0  0  0  0  0  0  0  0  0
  -35.6440  -17.6480   12.9540 C   0  0  0  0  0  3  0  0  0  0  0  0
  -35.0490  -18.9050   12.7580 C   0  0  0  0  0  3  0  0  0  0  0  0
  -36.5120  -15.9440   14.3460 O   0  0  0  0  0  0  0  0  0  0  0  0
  -36.4210  -15.1800   15.4820 C   0  0  0  0  0  0  0  0  0  0  0  0
  -35.1750  -14.7950   16.0230 C   0  0  0  0  0  3  0  0  0  0  0  0
  -35.1280  -13.9510   17.1500 C   0  0  0  0  0  3  0  0  0  0  0  0
  -36.3230  -13.4860   17.7340 C   0  0  0  0  0  0  0  0  0  0  0  0
  -37.5640  -13.8640   17.1920 C   0  0  0  0  0  3  0  0  0  0  0  0
  -37.6120  -14.7070   16.0670 C   0  0  0  0  0  0  0  0  0  0  0  0
  -38.8110  -15.0510   15.5380 F   0  0  0  0  0  0  0  0  0  0  0  0
  -36.2780  -12.6690   18.8110 F   0  0  0  0  0  0  0  0  0  0  0  0
  -32.0790  -20.4370   11.9910 C   0  0  0  0  0  0  0  0  0  0  0  0
  -31.8480  -19.2200   12.4700 N   0  0  0  0  0  0  0  0  0  0  0  0
  -31.5770  -20.8070   10.9280 O   0  0  0  0  0  0  0  0  0  0  0  0
  -32.2440  -18.9220   13.3500 H   0  0  0  0  0  0  0  0  0  0  0  0
  -31.2640  -18.5780   11.9540 H   0  0  0  0  0  0  0  0  0  0  0  0
  -31.9800  -23.6450   12.2750 N   0  0  0  0  0  0  0  0  0  0  0  0
  -31.2410  -23.3690   11.6370 H   0  0  0  0  0  0  0  0  0  0  0  0
  -32.0560  -24.6480   12.3850 H   0  0  0  0  0  0  0  0  0  0  0  0
  -21.1350  -24.0260   20.7590 C   0  0  0  0  0  2  0  0  0  0  0  0
  -20.4050  -25.3930   20.7320 C   0  0  0  0  0  2  0  0  0  0  0  0
  -21.3030  -26.6340   20.8900 C   0  0  0  0  0  0  0  0  0  0  0  0
  -20.8140  -27.6430   21.6240 N   0  0  0  0  0  0  0  0  0  0  0  0
  -22.4090  -26.6940   20.3550 O   0  0  0  0  0  0  0  0  0  0  0  0
  -19.8730  -27.5490   21.9850 H   0  0  0  0  0  0  0  0  0  0  0  0
  -21.5190  -28.8860   21.9460 C   0  0  0  0  0  2  0  0  0  0  0  0
  -21.4960  -29.2050   23.4580 C   0  0  0  0  0  2  0  0  0  0  0  0
  -22.5750  -30.0520   23.8580 O   0  0  0  0  0  0  0  0  0  0  0  0
  -29.2270  -31.4250   25.9360 C   0  0  0  0  0  0  0  0  0  0  0  0
  -23.8320  -29.5240   24.0670 C   0  0  0  0  0  0  0  0  0  0  0  0
  -28.8600  -29.1950   24.9330 C   0  0  0  0  0  3  0  0  0  0  0  0
  -26.4270  -28.5200   24.5890 C   0  0  0  0  0  0  0  0  0  0  0  0
  -26.9590  -30.4140   26.1320 C   0  0  0  0  0  2  0  0  0  0  0  0
  -25.9970  -29.7040   25.2030 C   0  0  0  0  0  0  0  0  0  0  0  0
  -24.7040  -30.2060   24.9450 C   0  0  0  0  0  3  0  0  0  0  0  0
  -24.2830  -28.3270   23.4630 C   0  0  0  0  0  3  0  0  0  0  0  0
  -25.5760  -27.8310   23.7110 C   0  0  0  0  0  3  0  0  0  0  0  0
  -27.8220  -28.0410   24.9210 C   0  0  0  0  0  2  0  0  0  0  0  0
  -28.3650  -30.4050   25.6640 N   0  0  0  0  0  0  0  0  0  0  0  0
  -30.4230  -31.3500   25.6260 O   0  0  0  0  0  0  0  0  0  0  0  0
  -29.2870  -29.4850   23.4780 C   0  0  0  0  0  0  0  0  0  0  0  0
  -30.1200  -28.5970   22.9160 N   0  0  0  0  0  0  0  0  0  0  0  0
  -28.8570  -30.4700   22.8760 O   0  0  0  0  0  0  0  0  0  0  0  0
  -30.4400  -27.8260   23.4870 H   0  0  0  0  0  0  0  0  0  0  0  0
  -32.1260  -26.8090   20.4990 C   0  0  0  0  0  0  0  0  0  0  0  0
  -30.6150  -28.6320   21.5380 C   0  0  0  0  0  3  0  0  0  0  0  0
  -29.5250  -28.1570   20.5480 C   0  0  0  0  0  2  0  0  0  0  0  0
  -29.6180  -26.6670   20.2090 C   0  0  0  0  0  2  0  0  0  0  0  0
  -30.9880  -26.3180   19.6230 C   0  0  0  0  0  2  0  0  0  0  0  0
  -31.9490  -27.8890   21.4050 C   0  0  0  0  0  0  0  0  0  0  0  0
  -33.0340  -28.2900   22.2130 C   0  0  0  0  0  3  0  0  0  0  0  0
  -34.2740  -27.6310   22.1310 C   0  0  0  0  0  3  0  0  0  0  0  0
  -34.4490  -26.5700   21.2260 C   0  0  0  0  0  3  0  0  0  0  0  0
  -33.3780  -26.1650   20.4100 C   0  0  0  0  0  3  0  0  0  0  0  0
  -28.7530  -32.7200   26.6680 C   0  0  0  0  0  3  0  0  0  0  0  0
  -28.0830  -33.7690   25.6970 C   0  0  1  0  0  0  0  0  0  0  0  0
  -28.8360  -33.9490   24.3590 C   0  0  0  0  0  1  0  0  0  0  0  0
  -26.6280  -33.3590   25.3680 C   0  0  0  0  0  1  0  0  0  0  0  0
  -28.0040  -35.1510   26.3910 C   0  0  0  0  0  1  0  0  0  0  0  0
  -29.9250  -33.3010   27.3360 N   0  0  0  0  0  0  0  0  0  0  0  0
  -30.1390  -33.2670   28.6590 C   0  0  0  0  0  0  0  0  0  0  0  0
  -29.3200  -32.8020   29.4570 O   0  0  0  0  0  0  0  0  0  0  0  0
  -30.6540  -33.6600   26.7380 H   0  0  0  0  0  0  0  0  0  0  0  0
  -32.4190  -32.6910   29.5380 C   0  0  0  0  0  1  0  0  0  0  0  0
  -31.4690  -33.8430   29.1770 C   0  0  0  0  0  3  0  0  0  0  0  0
  -30.6330  -35.9940   30.0110 C   0  0  0  0  0  1  0  0  0  0  0  0
  -31.3070  -34.7420   30.3410 N   0  0  0  0  0  0  0  0  0  0  0  0
  -32.2120  -34.9690   30.7470 H   0  0  0  0  0  0  0  0  0  0  0  0
  1 51  1  0
  2  1  1  0
  3  2  1  0
  4  3  1  0
  5  4  1  0
  6  5  1  0
  7  6  1  0
  8  7  1  0
  8  9  1  0
  9 10  1  0
 10 11  1  0
 11 12  1  0
 13 20  2  0
 13 21  1  0
 14 19  1  0
 15 14  1  0
 16 15  1  0
 17 16  1  0
 17 18  1  0
 18 19  1  0
 19 13  1  0
 21 12  1  0
 22 21  1  0
 23 26  1  0
 24 23  2  0
 24 25  1  0
 25 28  1  0
 25 27  2  0
 26 17  1  0
 26 27  1  0
 28 29  1  0
 29 30  2  0
 31 34  1  0
 31 30  1  0
 32 31  2  0
 33 32  1  0
 33 28  2  0
 34 35  1  0
 35 36  2  0
 35 40  1  0
 36 37  1  0
 37 38  2  0
 38 42  1  0
 39 38  1  0
 40 39  2  0
 41 40  1  0
 43 44  1  0
 43 24  1  0
 44 46  1  0
 45 43  2  0
 47 44  1  0
 48 50  1  0
 48 23  1  0
 49 48  1  0
 52 51  1  0
 52 53  1  0
 53 54  1  0
 54 57  1  0
 54 56  1  0
 55 53  2  0
 57 58  1  0
 58 59  1  0
 59 61  1  0
 61 66  1  0
 62 72  1  0
 62 70  1  0
 63 69  1  0
 63 65  1  0
 65 64  1  0
 66 65  2  0
 67 68  1  0
 67 61  2  0
 68 63  2  0
 69 62  1  0
 70 60  1  0
 70 64  1  0
 71 60  2  0
 73 72  1  0
 73 75  1  0
 74 72  2  0
 76 81  1  0
 77 73  1  0
 78 77  1  0
 79 78  1  0
 80 79  1  0
 80 76  1  0
 81 77  1  0
 81 82  2  0
 83 82  1  0
 84 83  2  0
 85 76  2  0
 85 84  1  0
 86 60  1  0
 86 91  1  0
 87 90  1  1
 87 86  1  0
 88 87  1  0
 89 87  1  0
 91 92  1  0
 92 96  1  0
 92 93  2  0
 94 91  1  0
 96 95  1  0
 96 98  1  0
 97 98  1  0
 98 99  1  0
M  ISO  4  13 100  21 100  58 101  59 101
M  END
>  <TORSDO>  (61) 
F 32

>  <SCORE>  (61) 
-3.610

>  <name>  (61) 
60

>  <ligand_id>  (61) 
60

>  <original_smiles>  (61) 
[H]c1c([H])c([H])c2c(c1[H])C([H])([H])C([H])([H])C([H])([H])C2([H])N([H])C(=O)C1([H])N(C(=O)C([H])(N([H])C(=O)C([H])(N([H])C([H])([H])[H])C([H])([H])[H])C(C([H])([H])[H])(C([H])([H])[H])C([H])([H])[H])C([H])([H])c2c([H])c(OC([H])([H])C([H])([H])N([H])C(=O)C([H])([H])C([H])([H])C([H])([H])C([H])([H])C([H])([H])C([H])([H])C([H])([H])C([H])([H])C([H])([H])C([H])([H])C([H])([H])C([H])([H])C([H])([H])C([H])([H])N([H])C(=O)N3C([H])([H])C([H])([H])C([H])([H])C([H])(n4nc(-c5c([H])c([H])c(Oc6c([H])c([H])c(F)c([H])c6F)c([H])c5[H])c(C(=O)N([H])[H])c4N([H])[H])C3([H])[H])c([H])c([H])c2C1([H])[H]

>  <smiles>  (61) 
[H]c1c([H])c([H])c2c(c1[H])C([H])([H])C([H])([H])C([H])([H])C2([H])N([H])C(=O)C1([H])N(C(=O)C([H])(N([H])C(=O)C([H])(N([H])C([H])([H])[H])C([H])([H])[H])C(C([H])([H])[H])(C([H])([H])[H])C([H])([H])[H])C([H])([H])c2c([H])c(OC([H])([H])C([H])([H])N([H])C(=O)C([H])([H])C([H])([H])C([H])([H])C([H])([H])C([H])([H])C([H])([H])C([H])([H])C([H])([H])C([H])([H])C([H])([H])C([H])([H])C([H])([H])C([H])([H])C([H])([H])N([H])C(=O)N3C([H])([H])C([H])([H])C([H])([H])C([H])(n4nc(-c5c([H])c([H])c(Oc6c([H])c([H])c(F)c([H])c6F)c([H])c5[H])c(C(=O)N([H])[H])c4N([H])[H])C3([H])[H])c([H])c([H])c2C1([H])[H]

$$$$
61:0:0
     RDKit          3D

 98106  0  0  1  0  0  0  0  0999 V2000
  -30.8060  -25.9380   23.5970 C   0  0  0  0  0  2  0  0  0  0  0  0
  -32.1090  -29.3500   22.3680 C   0  0  0  0  0  3  0  0  0  0  0  0
  -31.4550  -29.4830   21.1310 C   0  0  0  0  0  3  0  0  0  0  0  0
  -31.8590  -28.2280   23.1790 C   0  0  0  0  0  3  0  0  0  0  0  0
  -30.5190  -28.5150   20.7310 C   0  0  0  0  0  3  0  0  0  0  0  0
  -30.9650  -27.2150   22.7580 C   0  0  0  0  0  0  0  0  0  0  0  0
  -30.2290  -27.4020   21.5530 C   0  0  0  0  0  0  0  0  0  0  0  0
  -29.1280  -26.4210   21.1460 C   0  0  0  0  0  2  0  0  0  0  0  0
  -28.4070  -26.7470   19.9620 O   0  0  0  0  0  0  0  0  0  0  0  0
  -24.6080  -31.8710   23.2140 C   0  0  0  0  0  0  0  0  0  0  0  0
  -27.2500  -27.4790   20.0920 C   0  0  0  0  0  0  0  0  0  0  0  0
  -23.3940  -30.4950   21.5510 C   0  0  0  0  0  3  0  0  0  0  0  0
  -24.8440  -28.9590   20.1240 C   0  0  0  0  0  0  0  0  0  0  0  0
  -25.9170  -30.8450   21.3670 C   0  0  0  0  0  2  0  0  0  0  0  0
  -25.9950  -29.4760   20.7300 C   0  0  0  0  0  0  0  0  0  0  0  0
  -27.1940  -28.7350   20.7330 C   0  0  0  0  0  3  0  0  0  0  0  0
  -26.0850  -26.9690   19.4830 C   0  0  0  0  0  3  0  0  0  0  0  0
  -24.8780  -27.6960   19.5070 C   0  0  0  0  0  3  0  0  0  0  0  0
  -23.6040  -29.8230   20.1670 C   0  0  0  0  0  2  0  0  0  0  0  0
  -24.6570  -31.0850   22.1030 N   0  0  0  0  0  0  0  0  0  0  0  0
  -23.5280  -32.1440   23.7570 O   0  0  0  0  0  0  0  0  0  0  0  0
  -22.7360  -29.4680   22.4990 C   0  0  0  0  0  0  0  0  0  0  0  0
  -21.4100  -29.3020   22.3730 N   0  0  0  0  0  0  0  0  0  0  0  0
  -23.4150  -28.8230   23.3020 O   0  0  0  0  0  0  0  0  0  0  0  0
  -20.9230  -29.8750   21.6970 H   0  0  0  0  0  0  0  0  0  0  0  0
  -18.0270  -28.1380   22.8510 C   0  0  0  0  0  0  0  0  0  0  0  0
  -20.5850  -28.3650   23.1340 C   0  0  0  0  0  3  0  0  0  0  0  0
  -20.6750  -26.9390   22.5430 C   0  0  0  0  0  2  0  0  0  0  0  0
  -19.5730  -26.6390   21.5210 C   0  0  0  0  0  2  0  0  0  0  0  0
  -18.1910  -26.7930   22.1630 C   0  0  0  0  0  2  0  0  0  0  0  0
  -19.1510  -28.8830   23.2920 C   0  0  0  0  0  0  0  0  0  0  0  0
  -18.9450  -30.1450   23.8920 C   0  0  0  0  0  3  0  0  0  0  0  0
  -17.6450  -30.6590   24.0580 C   0  0  0  0  0  3  0  0  0  0  0  0
  -16.5350  -29.9100   23.6340 C   0  0  0  0  0  3  0  0  0  0  0  0
  -16.7260  -28.6510   23.0360 C   0  0  0  0  0  3  0  0  0  0  0  0
  -25.8980  -32.4840   23.8420 C   0  0  0  0  0  3  0  0  0  0  0  0
  -25.5850  -33.8640   24.2360 N   0  0  0  0  0  0  0  0  0  0  0  0
  -25.9020  -34.9480   23.5160 C   0  0  0  0  0  0  0  0  0  0  0  0
  -26.5590  -34.8930   22.4730 O   0  0  0  0  0  0  0  0  0  0  0  0
  -24.9960  -33.9790   25.0480 H   0  0  0  0  0  0  0  0  0  0  0  0
  -24.1470  -36.7320   23.2640 C   0  0  0  0  0  1  0  0  0  0  0  0
  -25.4090  -36.3120   24.0350 C   0  0  0  0  0  3  0  0  0  0  0  0
  -27.5580  -37.1820   24.8470 C   0  0  0  0  0  1  0  0  0  0  0  0
  -26.4290  -37.3800   23.9410 N   0  0  0  0  0  0  0  0  0  0  0  0
  -26.0180  -38.2880   24.1410 H   0  0  0  0  0  0  0  0  0  0  0  0
  -26.4450  -31.6610   25.0720 C   0  0  1  0  0  0  0  0  0  0  0  0
  -25.3730  -31.3710   26.1480 C   0  0  0  0  0  1  0  0  0  0  0  0
  -27.0300  -30.3070   24.6080 C   0  0  0  0  0  1  0  0  0  0  0  0
  -27.6030  -32.4330   25.7470 C   0  0  0  0  0  1  0  0  0  0  0  0
  -33.3160  -25.3410   23.2550 C   0  0  0  0  0  1  0  0  0  0  0  0
  -32.1030  -25.3250   24.2140 C   0  0  0  0  0  3  0  0  0  0  0  0
  -31.9280  -23.9290   24.6980 N   0  0  0  0  0  4  0  0  0  0  0  0
  -32.0270  -23.3230   23.9000 H   0  0  0  0  0  0  0  0  0  0  0  0
  -32.6890  -23.7160   25.3240 H   0  0  0  0  0  0  0  0  0  0  0  0
  -30.6610  -23.5410   25.3610 C   0  0  0  0  0  2  0  0  0  0  0  0
  -30.5760  -22.0090   25.5290 C   0  0  0  0  0  2  0  0  0  0  0  0
  -30.7720  -21.2380   24.2060 C   0  0  0  0  0  2  0  0  0  0  0  0
  -30.5260  -19.7270   24.3350 C   0  0  0  0  0  2  0  0  0  0  0  0
  -30.9250  -18.9620   23.0610 C   0  0  0  0  0  2  0  0  0  0  0  0
  -30.4690  -17.4970   23.0920 C   0  0  0  0  0  2  0  0  0  0  0  0
  -30.9460  -16.6830   21.8750 C   0  0  0  0  0  2  0  0  0  0  0  0
  -30.2280  -15.3210   21.7900 C   0  0  0  0  0  2  0  0  0  0  0  0
  -30.7440  -14.3670   20.6960 C   0  0  0  0  0  0  0  0  0  0  0  0
  -30.4240  -12.2940   19.3780 C   0  0  0  0  0  2  0  0  0  0  0  0
  -29.4820  -12.5330   18.1840 C   0  0  0  0  0  2  0  0  0  0  0  0
  -28.0070  -12.3850   18.6060 C   0  0  0  0  0  2  0  0  0  0  0  0
  -27.6710  -13.1970   19.8850 C   0  0  0  0  0  3  0  0  0  0  0  0
  -28.7140  -12.9150   20.9900 C   0  0  0  0  0  2  0  0  0  0  0  0
  -30.0470  -13.2280   20.4480 N   0  0  0  0  0  0  0  0  0  0  0  0
  -31.7760  -14.6590   20.0820 O   0  0  0  0  0  0  0  0  0  0  0  0
  -25.2640  -13.8140   20.5690 C   0  0  0  0  0  0  0  0  0  0  0  0
  -24.1860  -13.0440   20.9160 C   0  0  0  0  0  0  0  0  0  0  0  0
  -24.6400  -11.6900   20.8730 C   0  0  0  0  0  0  0  0  0  0  0  0
  -26.3080  -12.9300   20.3420 N   0  0  0  0  0  0  0  0  0  0  0  0
  -25.9330  -11.6470   20.5780 N   0  0  0  0  0  0  0  0  0  0  0  0
  -23.9060  -10.4290   21.0410 C   0  0  0  0  0  0  0  0  0  0  0  0
  -24.3610   -9.4210   21.9190 C   0  0  0  0  0  3  0  0  0  0  0  0
  -23.6290   -8.2240   22.0760 C   0  0  0  0  0  3  0  0  0  0  0  0
  -22.4270   -8.0280   21.3550 C   0  0  0  0  0  0  0  0  0  0  0  0
  -21.9910   -9.0260   20.4650 C   0  0  0  0  0  3  0  0  0  0  0  0
  -22.7240  -10.2130   20.3060 C   0  0  0  0  0  3  0  0  0  0  0  0
  -21.6630   -6.8880   21.4240 O   0  0  0  0  0  0  0  0  0  0  0  0
  -21.6860   -6.0740   22.5280 C   0  0  0  0  0  0  0  0  0  0  0  0
  -21.4010   -6.5640   23.8210 C   0  0  0  0  0  3  0  0  0  0  0  0
  -21.3660   -5.6790   24.9180 C   0  0  0  0  0  3  0  0  0  0  0  0
  -21.6040   -4.3060   24.7230 C   0  0  0  0  0  0  0  0  0  0  0  0
  -21.8820   -3.8150   23.4350 C   0  0  0  0  0  3  0  0  0  0  0  0
  -21.9190   -4.6960   22.3410 C   0  0  0  0  0  0  0  0  0  0  0  0
  -22.1660   -4.2150   21.0990 F   0  0  0  0  0  0  0  0  0  0  0  0
  -21.5630   -3.4540   25.7740 F   0  0  0  0  0  0  0  0  0  0  0  0
  -22.7880  -13.5240   21.1830 C   0  0  0  0  0  0  0  0  0  0  0  0
  -22.0520  -12.8250   22.0390 N   0  0  0  0  0  0  0  0  0  0  0  0
  -22.3580  -14.5560   20.6680 O   0  0  0  0  0  0  0  0  0  0  0  0
  -22.4120  -11.9900   22.4770 H   0  0  0  0  0  0  0  0  0  0  0  0
  -21.1140  -13.1280   22.2590 H   0  0  0  0  0  0  0  0  0  0  0  0
  -25.4370  -15.1860   20.4090 N   0  0  0  0  0  0  0  0  0  0  0  0
  -24.6760  -15.8470   20.5200 H   0  0  0  0  0  0  0  0  0  0  0  0
  -26.3020  -15.6230   20.1140 H   0  0  0  0  0  0  0  0  0  0  0  0
  1 51  1  0
  2  4  1  0
  3  2  2  0
  5  3  1  0
  5  7  2  0
  6  4  2  0
  6  1  1  0
  7  6  1  0
  8  7  1  0
  9 11  1  0
  9  8  1  0
 10 21  2  0
 11 16  1  0
 12 20  1  0
 12 22  1  0
 13 19  1  0
 13 15  1  0
 14 20  1  0
 15 16  2  0
 15 14  1  0
 17 18  1  0
 17 11  2  0
 18 13  2  0
 19 12  1  0
 20 10  1  0
 22 24  2  0
 23 22  1  0
 25 23  1  0
 26 35  2  0
 26 31  1  0
 27 23  1  0
 27 31  1  0
 28 27  1  0
 29 30  1  0
 29 28  1  0
 30 26  1  0
 31 32  2  0
 32 33  1  0
 34 33  2  0
 35 34  1  0
 36 10  1  0
 36 37  1  0
 36 46  1  0
 37 40  1  0
 38 42  1  0
 38 37  1  0
 39 38  2  0
 42 41  1  0
 44 42  1  0
 44 45  1  0
 44 43  1  0
 46 49  1  1
 46 47  1  0
 48 46  1  0
 51 50  1  0
 51 52  1  0
 52 54  1  0
 52 55  1  0
 53 52  1  0
 55 56  1  0
 57 58  1  0
 57 56  1  0
 59 60  1  0
 59 58  1  0
 61 60  1  0
 62 61  1  0
 63 62  1  0
 64 69  1  0
 65 66  1  0
 65 64  1  0
 67 66  1  0
 67 74  1  0
 67 68  1  0
 69 63  1  0
 69 68  1  0
 70 63  2  0
 71 72  2  0
 72 91  1  0
 73 72  1  0
 73 76  1  0
 74 71  1  0
 74 75  1  0
 75 73  2  0
 76 77  1  0
 77 78  2  0
 79 82  1  0
 79 78  1  0
 80 79  2  0
 81 80  1  0
 81 76  2  0
 82 83  1  0
 83 84  1  0
 84 85  2  0
 86 85  1  0
 86 90  1  0
 87 86  2  0
 88 83  2  0
 88 87  1  0
 89 88  1  0
 91 92  1  0
 92 95  1  0
 92 94  1  0
 93 91  2  0
 96 97  1  0
 96 71  1  0
 98 96  1  0
M  ISO  4   8 101   9 101  62 100  63 100
M  END
>  <TORSDO>  (62) 
F 28

>  <SCORE>  (62) 
7.648

>  <name>  (62) 
61

>  <ligand_id>  (62) 
61

>  <original_smiles>  (62) 
[H]c1c([H])c([H])c(C([H])([H])C([H])(C([H])([H])[H])[N+]([H])([H])C([H])([H])C([H])([H])C([H])([H])C([H])([H])C([H])([H])C([H])([H])C([H])([H])C([H])([H])C(=O)N2C([H])([H])C([H])([H])C([H])([H])C([H])(n3nc(-c4c([H])c([H])c(Oc5c([H])c([H])c(F)c([H])c5F)c([H])c4[H])c(C(=O)N([H])[H])c3N([H])[H])C2([H])[H])c(C([H])([H])Oc2c([H])c([H])c3c(c2[H])C([H])([H])N(C(=O)C([H])(N([H])C(=O)C([H])(N([H])C([H])([H])[H])C([H])([H])[H])C(C([H])([H])[H])(C([H])([H])[H])C([H])([H])[H])C([H])(C(=O)N([H])C2([H])c4c([H])c([H])c([H])c([H])c4C([H])([H])C([H])([H])C2([H])[H])C3([H])[H])c1[H]

>  <smiles>  (62) 
[H]c1c([H])c([H])c(C([H])([H])C([H])(C([H])([H])[H])[N+]([H])([H])C([H])([H])C([H])([H])C([H])([H])C([H])([H])C([H])([H])C([H])([H])C([H])([H])C([H])([H])C(=O)N2C([H])([H])C([H])([H])C([H])([H])C([H])(n3nc(-c4c([H])c([H])c(Oc5c([H])c([H])c(F)c([H])c5F)c([H])c4[H])c(C(=O)N([H])[H])c3N([H])[H])C2([H])[H])c(C([H])([H])Oc2c([H])c([H])c3c(c2[H])C([H])([H])N(C(=O)C([H])(N([H])C(=O)C([H])(N([H])C([H])([H])[H])C([H])([H])[H])C(C([H])([H])[H])(C([H])([H])[H])C([H])([H])[H])C([H])(C(=O)N([H])C2([H])c4c([H])c([H])c([H])c([H])c4C([H])([H])C([H])([H])C2([H])[H])C3([H])[H])c1[H]

$$$$
62:0:0
     RDKit          3D

 92 99  0  0  1  0  0  0  0  0999 V2000
  -29.1360  -24.5020   20.6860 C   0  0  0  0  0  3  0  0  0  0  0  0
  -30.4480  -24.2450   20.8630 C   0  0  0  0  0  0  0  0  0  0  0  0
  -28.4960  -25.4050   19.6440 C   0  0  0  0  0  2  0  0  0  0  0  0
  -28.4020  -26.7520   20.1250 O   0  0  0  0  0  0  0  0  0  0  0  0
  -24.6050  -31.8810   23.2530 C   0  0  0  0  0  0  0  0  0  0  0  0
  -27.2000  -27.4360   20.1190 C   0  0  0  0  0  0  0  0  0  0  0  0
  -23.3770  -30.4890   21.6200 C   0  0  0  0  0  3  0  0  0  0  0  0
  -24.8070  -28.9550   20.1750 C   0  0  0  0  0  0  0  0  0  0  0  0
  -25.9030  -30.8350   21.4020 C   0  0  0  0  0  2  0  0  0  0  0  0
  -25.9720  -29.4660   20.7550 C   0  0  0  0  0  0  0  0  0  0  0  0
  -27.1660  -28.7120   20.7290 C   0  0  0  0  0  3  0  0  0  0  0  0
  -26.0100  -26.9450   19.5270 C   0  0  0  0  0  3  0  0  0  0  0  0
  -24.8200  -27.6920   19.5640 C   0  0  0  0  0  3  0  0  0  0  0  0
  -23.5680  -29.8180   20.2350 C   0  0  0  0  0  2  0  0  0  0  0  0
  -24.6470  -31.0830   22.1480 N   0  0  0  0  0  0  0  0  0  0  0  0
  -23.5310  -32.1550   23.8050 O   0  0  0  0  0  0  0  0  0  0  0  0
  -22.7340  -29.4650   22.5820 C   0  0  0  0  0  0  0  0  0  0  0  0
  -21.4100  -29.2820   22.4630 N   0  0  0  0  0  0  0  0  0  0  0  0
  -23.4240  -28.8380   23.3910 O   0  0  0  0  0  0  0  0  0  0  0  0
  -20.9160  -29.8410   21.7810 H   0  0  0  0  0  0  0  0  0  0  0  0
  -18.0400  -28.0780   22.9640 C   0  0  0  0  0  0  0  0  0  0  0  0
  -20.5960  -28.3430   23.2360 C   0  0  0  0  0  3  0  0  0  0  0  0
  -20.7040  -26.9110   22.6630 C   0  0  0  0  0  2  0  0  0  0  0  0
  -19.6030  -26.5820   21.6510 C   0  0  0  0  0  2  0  0  0  0  0  0
  -18.2210  -26.7250   22.2940 C   0  0  0  0  0  2  0  0  0  0  0  0
  -19.1570  -28.8440   23.3920 C   0  0  0  0  0  0  0  0  0  0  0  0
  -18.9360  -30.1090   23.9770 C   0  0  0  0  0  3  0  0  0  0  0  0
  -17.6300  -30.6090   24.1390 C   0  0  0  0  0  3  0  0  0  0  0  0
  -16.5270  -29.8390   23.7300 C   0  0  0  0  0  3  0  0  0  0  0  0
  -16.7330  -28.5750   23.1480 C   0  0  0  0  0  3  0  0  0  0  0  0
  -25.9010  -32.5030   23.8600 C   0  0  0  0  0  3  0  0  0  0  0  0
  -26.4340  -31.7220   25.1250 C   0  0  1  0  0  0  0  0  0  0  0  0
  -25.3540  -31.4830   26.2060 C   0  0  0  0  0  1  0  0  0  0  0  0
  -27.0060  -30.3450   24.7140 C   0  0  0  0  0  1  0  0  0  0  0  0
  -27.5960  -32.5090   25.7760 C   0  0  0  0  0  1  0  0  0  0  0  0
  -25.6020  -33.9000   24.2000 N   0  0  0  0  0  0  0  0  0  0  0  0
  -25.9240  -34.9540   23.4380 C   0  0  0  0  0  0  0  0  0  0  0  0
  -26.5760  -34.8520   22.3960 O   0  0  0  0  0  0  0  0  0  0  0  0
  -25.0190  -34.0530   25.0100 H   0  0  0  0  0  0  0  0  0  0  0  0
  -24.1860  -36.7450   23.1210 C   0  0  0  0  0  1  0  0  0  0  0  0
  -25.4440  -36.3410   23.9070 C   0  0  0  0  0  3  0  0  0  0  0  0
  -27.5960  -37.2240   24.6920 C   0  0  0  0  0  1  0  0  0  0  0  0
  -26.4730  -37.3940   23.7740 N   0  0  0  0  0  0  0  0  0  0  0  0
  -26.0710  -38.3140   23.9330 H   0  0  0  0  0  0  0  0  0  0  0  0
  -31.5510  -24.8890   20.0270 C   0  0  0  0  0  2  0  0  0  0  0  0
  -33.1380  -26.8010   20.0170 C   0  0  0  0  0  1  0  0  0  0  0  0
  -32.1450  -26.0160   20.7760 N   0  0  0  0  0  4  0  0  0  0  0  0
  -31.4010  -26.6330   21.0580 H   0  0  0  0  0  0  0  0  0  0  0  0
  -32.5830  -25.6640   21.6110 H   0  0  0  0  0  0  0  0  0  0  0  0
  -30.9170  -23.3000   21.9650 C   0  0  0  0  0  2  0  0  0  0  0  0
  -31.4150  -21.9300   21.4590 C   0  0  0  0  0  2  0  0  0  0  0  0
  -30.3940  -20.7810   21.5880 C   0  0  0  0  0  2  0  0  0  0  0  0
  -31.0020  -19.4390   21.1410 C   0  0  0  0  0  2  0  0  0  0  0  0
  -30.1260  -18.1980   21.4070 C   0  0  0  0  0  2  0  0  0  0  0  0
  -30.7940  -16.9270   20.8490 C   0  0  0  0  0  2  0  0  0  0  0  0
  -30.0750  -15.5860   21.1510 C   0  0  0  0  0  2  0  0  0  0  0  0
  -30.6650  -14.4140   20.3350 C   0  0  0  0  0  0  0  0  0  0  0  0
  -30.2890  -12.3170   19.0900 C   0  0  0  0  0  2  0  0  0  0  0  0
  -29.3220  -12.5840   17.9200 C   0  0  0  0  0  2  0  0  0  0  0  0
  -27.8600  -12.4410   18.3840 C   0  0  0  0  0  2  0  0  0  0  0  0
  -27.5640  -13.2410   19.6810 C   0  0  0  0  0  3  0  0  0  0  0  0
  -28.6450  -12.9800   20.7550 C   0  0  0  0  0  2  0  0  0  0  0  0
  -29.9590  -13.2660   20.1650 N   0  0  0  0  0  0  0  0  0  0  0  0
  -31.7530  -14.5950   19.7760 O   0  0  0  0  0  0  0  0  0  0  0  0
  -25.1730  -13.8350   20.4280 C   0  0  0  0  0  0  0  0  0  0  0  0
  -24.1150  -13.0560   20.8150 C   0  0  0  0  0  0  0  0  0  0  0  0
  -24.5830  -11.7070   20.7770 C   0  0  0  0  0  0  0  0  0  0  0  0
  -26.2210  -12.9600   20.1830 N   0  0  0  0  0  0  0  0  0  0  0  0
  -25.8690  -11.6750   20.4480 N   0  0  0  0  0  0  0  0  0  0  0  0
  -23.8670  -10.4400   20.9800 C   0  0  0  0  0  0  0  0  0  0  0  0
  -24.3260   -9.4730   21.9010 C   0  0  0  0  0  3  0  0  0  0  0  0
  -23.6110   -8.2710   22.0930 C   0  0  0  0  0  3  0  0  0  0  0  0
  -22.4230   -8.0290   21.3630 C   0  0  0  0  0  0  0  0  0  0  0  0
  -21.9840   -8.9850   20.4300 C   0  0  0  0  0  3  0  0  0  0  0  0
  -22.6990  -10.1780   20.2370 C   0  0  0  0  0  3  0  0  0  0  0  0
  -21.6760   -6.8800   21.4640 O   0  0  0  0  0  0  0  0  0  0  0  0
  -21.6630   -6.1290   22.6120 C   0  0  0  0  0  0  0  0  0  0  0  0
  -21.2800   -6.6780   23.8560 C   0  0  0  0  0  3  0  0  0  0  0  0
  -21.2140   -5.8540   24.9980 C   0  0  0  0  0  3  0  0  0  0  0  0
  -21.5190   -4.4830   24.8970 C   0  0  0  0  0  0  0  0  0  0  0  0
  -21.8950   -3.9340   23.6590 C   0  0  0  0  0  3  0  0  0  0  0  0
  -21.9640   -4.7550   22.5200 C   0  0  0  0  0  0  0  0  0  0  0  0
  -22.3070   -4.2180   21.3240 F   0  0  0  0  0  0  0  0  0  0  0  0
  -21.4480   -3.6910   25.9920 F   0  0  0  0  0  0  0  0  0  0  0  0
  -22.7190  -13.5240   21.1120 C   0  0  0  0  0  0  0  0  0  0  0  0
  -22.0140  -12.8250   21.9950 N   0  0  0  0  0  0  0  0  0  0  0  0
  -22.2650  -14.5450   20.5990 O   0  0  0  0  0  0  0  0  0  0  0  0
  -22.3960  -12.0000   22.4310 H   0  0  0  0  0  0  0  0  0  0  0  0
  -21.0780  -13.1200   22.2370 H   0  0  0  0  0  0  0  0  0  0  0  0
  -25.3260  -15.2060   20.2470 N   0  0  0  0  0  0  0  0  0  0  0  0
  -24.5570  -15.8560   20.3670 H   0  0  0  0  0  0  0  0  0  0  0  0
  -26.1750  -15.6530   19.9230 H   0  0  0  0  0  0  0  0  0  0  0  0
  1  2  2  0
  2 50  1  0
  3  4  1  0
  3  1  1  0
  5 16  2  0
  6  4  1  0
  6 11  1  0
  7 15  1  0
  7 17  1  0
  8 14  1  0
  8 10  1  0
  9 15  1  0
 10  9  1  0
 11 10  2  0
 12 13  1  0
 12  6  2  0
 13  8  2  0
 14  7  1  0
 15  5  1  0
 17 19  2  0
 18 17  1  0
 20 18  1  0
 21 30  2  0
 21 26  1  0
 22 18  1  0
 22 26  1  0
 23 22  1  0
 24 25  1  0
 24 23  1  0
 25 21  1  0
 26 27  2  0
 27 28  1  0
 29 28  2  0
 30 29  1  0
 31  5  1  0
 31 36  1  0
 31 32  1  0
 32 35  1  1
 32 33  1  0
 34 32  1  0
 36 39  1  0
 37 41  1  0
 37 36  1  0
 38 37  2  0
 41 40  1  0
 43 41  1  0
 43 44  1  0
 43 42  1  0
 45 47  1  0
 45  2  1  0
 46 47  1  0
 47 48  1  0
 47 49  1  0
 51 52  1  0
 51 50  1  0
 53 54  1  0
 53 52  1  0
 55 56  1  0
 55 54  1  0
 57 56  1  0
 58 63  1  0
 59 60  1  0
 59 58  1  0
 61 60  1  0
 61 68  1  0
 61 62  1  0
 63 57  1  0
 63 62  1  0
 64 57  2  0
 65 66  2  0
 66 85  1  0
 67 66  1  0
 67 70  1  0
 68 65  1  0
 68 69  1  0
 69 67  2  0
 70 71  1  0
 71 72  2  0
 73 76  1  0
 73 72  1  0
 74 73  2  0
 75 74  1  0
 75 70  2  0
 76 77  1  0
 77 78  1  0
 78 79  2  0
 80 79  1  0
 80 84  1  0
 81 80  2  0
 82 77  2  0
 82 81  1  0
 83 82  1  0
 85 86  1  0
 86 89  1  0
 86 88  1  0
 87 85  2  0
 90 91  1  0
 90 65  1  0
 92 90  1  0
M  ISO  4   3 101   4 101  56 100  57 100
M  END
>  <TORSDO>  (63) 
F 26

>  <SCORE>  (63) 
-11.657

>  <name>  (63) 
62

>  <ligand_id>  (63) 
62

>  <original_smiles>  (63) 
[H]C(=C(C([H])([H])C([H])([H])C([H])([H])C([H])([H])C([H])([H])C([H])([H])C([H])([H])C(=O)N1C([H])([H])C([H])([H])C([H])([H])C([H])(n2nc(-c3c([H])c([H])c(Oc4c([H])c([H])c(F)c([H])c4F)c([H])c3[H])c(C(=O)N([H])[H])c2N([H])[H])C1([H])[H])C([H])([H])[N+]([H])([H])C([H])([H])[H])C([H])([H])Oc1c([H])c([H])c2c(c1[H])C([H])([H])N(C(=O)C([H])(N([H])C(=O)C([H])(N([H])C([H])([H])[H])C([H])([H])[H])C(C([H])([H])[H])(C([H])([H])[H])C([H])([H])[H])C([H])(C(=O)N([H])C1([H])c3c([H])c([H])c([H])c([H])c3C([H])([H])C([H])([H])C1([H])[H])C2([H])[H]

>  <smiles>  (63) 
[H]C(=C(C([H])([H])C([H])([H])C([H])([H])C([H])([H])C([H])([H])C([H])([H])C([H])([H])C(=O)N1C([H])([H])C([H])([H])C([H])([H])C([H])(n2nc(-c3c([H])c([H])c(Oc4c([H])c([H])c(F)c([H])c4F)c([H])c3[H])c(C(=O)N([H])[H])c2N([H])[H])C1([H])[H])C([H])([H])[N+]([H])([H])C([H])([H])[H])C([H])([H])Oc1c([H])c([H])c2c(c1[H])C([H])([H])N(C(=O)C([H])(N([H])C(=O)C([H])(N([H])C([H])([H])[H])C([H])([H])[H])C(C([H])([H])[H])(C([H])([H])[H])C([H])([H])[H])C([H])(C(=O)N([H])C1([H])c3c([H])c([H])c([H])c([H])c3C([H])([H])C([H])([H])C1([H])[H])C2([H])[H]

$$$$
63:0:0
     RDKit          3D

 88 95  0  0  1  0  0  0  0  0999 V2000
  -29.2230  -22.9070   20.3600 C   0  0  0  0  0  0  0  0  0  0  0  0
  -28.7800  -22.4430   19.3050 O   0  0  0  0  0  0  0  0  0  0  0  0
  -29.6200  -21.9900   21.5340 C   0  0  0  0  0  2  0  0  0  0  0  0
  -29.0560  -20.5350   21.5160 C   0  0  0  0  0  2  0  0  0  0  0  0
  -30.0190  -19.4480   20.9750 C   0  0  0  0  0  2  0  0  0  0  0  0
  -29.4810  -17.9960   21.1090 C   0  0  0  0  0  2  0  0  0  0  0  0
  -30.5210  -16.9230   20.7050 C   0  0  0  0  0  2  0  0  0  0  0  0
  -30.6740  -14.4940   20.2070 C   0  0  0  0  0  0  0  0  0  0  0  0
  -30.3120  -12.3530   19.0420 C   0  0  0  0  0  2  0  0  0  0  0  0
  -29.3400  -12.5770   17.8670 C   0  0  0  0  0  2  0  0  0  0  0  0
  -27.8780  -12.4450   18.3370 C   0  0  0  0  0  2  0  0  0  0  0  0
  -27.5820  -13.2680   19.6200 C   0  0  0  0  0  3  0  0  0  0  0  0
  -28.6690  -13.0370   20.6960 C   0  0  0  0  0  2  0  0  0  0  0  0
  -29.9770  -13.3320   20.0890 N   0  0  0  0  0  0  0  0  0  0  0  0
  -31.7890  -14.6550   19.7030 O   0  0  0  0  0  0  0  0  0  0  0  0
  -30.0200  -15.5370   20.7550 N   0  0  0  0  0  0  0  0  0  0  0  0
  -29.0980  -15.3680   21.1290 H   0  0  0  0  0  0  0  0  0  0  0  0
  -25.2020  -13.8740   20.3890 C   0  0  0  0  0  0  0  0  0  0  0  0
  -24.1450  -13.1020   20.7850 C   0  0  0  0  0  0  0  0  0  0  0  0
  -24.6050  -11.7500   20.7440 C   0  0  0  0  0  0  0  0  0  0  0  0
  -26.2420  -12.9940   20.1330 N   0  0  0  0  0  0  0  0  0  0  0  0
  -25.8870  -11.7110   20.4040 N   0  0  0  0  0  0  0  0  0  0  0  0
  -23.8840  -10.4880   20.9530 C   0  0  0  0  0  0  0  0  0  0  0  0
  -24.3370   -9.5240   21.8810 C   0  0  0  0  0  3  0  0  0  0  0  0
  -23.6170   -8.3260   22.0780 C   0  0  0  0  0  3  0  0  0  0  0  0
  -22.4290   -8.0840   21.3480 C   0  0  0  0  0  0  0  0  0  0  0  0
  -21.9950   -9.0360   20.4100 C   0  0  0  0  0  3  0  0  0  0  0  0
  -22.7160  -10.2250   20.2100 C   0  0  0  0  0  3  0  0  0  0  0  0
  -21.6780   -6.9390   21.4550 O   0  0  0  0  0  0  0  0  0  0  0  0
  -21.6470   -6.2030   22.6130 C   0  0  0  0  0  0  0  0  0  0  0  0
  -21.2470   -6.7680   23.8440 C   0  0  0  0  0  3  0  0  0  0  0  0
  -21.1630   -5.9600   24.9950 C   0  0  0  0  0  3  0  0  0  0  0  0
  -21.4690   -4.5890   24.9180 C   0  0  0  0  0  0  0  0  0  0  0  0
  -21.8630   -4.0230   23.6920 C   0  0  0  0  0  3  0  0  0  0  0  0
  -21.9490   -4.8280   22.5420 C   0  0  0  0  0  0  0  0  0  0  0  0
  -22.3080   -4.2740   21.3590 F   0  0  0  0  0  0  0  0  0  0  0  0
  -21.3820   -3.8100   26.0210 F   0  0  0  0  0  0  0  0  0  0  0  0
  -22.7540  -13.5790   21.0910 C   0  0  0  0  0  0  0  0  0  0  0  0
  -22.0490  -12.8850   21.9780 N   0  0  0  0  0  0  0  0  0  0  0  0
  -22.3010  -14.6030   20.5790 O   0  0  0  0  0  0  0  0  0  0  0  0
  -22.4290  -12.0580   22.4150 H   0  0  0  0  0  0  0  0  0  0  0  0
  -21.1170  -13.1870   22.2250 H   0  0  0  0  0  0  0  0  0  0  0  0
  -25.3620  -15.2450   20.2040 N   0  0  0  0  0  0  0  0  0  0  0  0
  -24.5980  -15.8990   20.3360 H   0  0  0  0  0  0  0  0  0  0  0  0
  -26.2010  -15.6840   19.8480 H   0  0  0  0  0  0  0  0  0  0  0  0
  -29.4130  -24.4300   20.5400 C   0  0  0  0  0  2  0  0  0  0  0  0
  -28.2430  -25.2650   19.9670 C   0  0  0  0  0  2  0  0  0  0  0  0
  -28.3780  -26.6870   20.1840 O   0  0  0  0  0  0  0  0  0  0  0  0
  -24.5940  -31.9020   23.2320 C   0  0  0  0  0  0  0  0  0  0  0  0
  -27.2160  -27.4410   20.1420 C   0  0  0  0  0  0  0  0  0  0  0  0
  -23.3810  -30.5060   21.5930 C   0  0  0  0  0  3  0  0  0  0  0  0
  -24.8270  -28.9730   20.1580 C   0  0  0  0  0  0  0  0  0  0  0  0
  -25.9100  -30.8540   21.3900 C   0  0  0  0  0  2  0  0  0  0  0  0
  -25.9900  -29.4850   20.7450 C   0  0  0  0  0  0  0  0  0  0  0  0
  -27.1860  -28.7280   20.7330 C   0  0  0  0  0  3  0  0  0  0  0  0
  -26.0310  -26.9580   19.5320 C   0  0  0  0  0  3  0  0  0  0  0  0
  -24.8430  -27.7090   19.5470 C   0  0  0  0  0  3  0  0  0  0  0  0
  -23.5850  -29.8330   20.2090 C   0  0  0  0  0  2  0  0  0  0  0  0
  -24.6480  -31.1030   22.1300 N   0  0  0  0  0  0  0  0  0  0  0  0
  -23.5150  -32.1750   23.7750 O   0  0  0  0  0  0  0  0  0  0  0  0
  -22.7320  -29.4820   22.5520 C   0  0  0  0  0  0  0  0  0  0  0  0
  -21.4070  -29.2990   22.4260 N   0  0  0  0  0  0  0  0  0  0  0  0
  -23.4160  -28.8570   23.3660 O   0  0  0  0  0  0  0  0  0  0  0  0
  -20.9160  -29.8550   21.7400 H   0  0  0  0  0  0  0  0  0  0  0  0
  -18.0350  -28.0960   22.9190 C   0  0  0  0  0  0  0  0  0  0  0  0
  -20.5910  -28.3610   23.1970 C   0  0  0  0  0  3  0  0  0  0  0  0
  -20.6990  -26.9280   22.6240 C   0  0  0  0  0  2  0  0  0  0  0  0
  -19.6000  -26.6010   21.6080 C   0  0  0  0  0  2  0  0  0  0  0  0
  -18.2160  -26.7460   22.2470 C   0  0  0  0  0  2  0  0  0  0  0  0
  -19.1510  -28.8620   23.3500 C   0  0  0  0  0  0  0  0  0  0  0  0
  -18.9280  -30.1270   23.9370 C   0  0  0  0  0  3  0  0  0  0  0  0
  -17.6210  -30.6270   24.0960 C   0  0  0  0  0  3  0  0  0  0  0  0
  -16.5210  -29.8590   23.6810 C   0  0  0  0  0  3  0  0  0  0  0  0
  -16.7280  -28.5950   23.0990 C   0  0  0  0  0  3  0  0  0  0  0  0
  -25.8830  -32.5300   23.8490 C   0  0  0  0  0  3  0  0  0  0  0  0
  -25.5760  -33.9270   24.1820 N   0  0  0  0  0  0  0  0  0  0  0  0
  -25.9010  -34.9800   23.4190 C   0  0  0  0  0  0  0  0  0  0  0  0
  -26.5630  -34.8790   22.3830 O   0  0  0  0  0  0  0  0  0  0  0  0
  -24.9920  -34.0810   24.9910 H   0  0  0  0  0  0  0  0  0  0  0  0
  -24.1650  -36.7670   23.0860 C   0  0  0  0  0  1  0  0  0  0  0  0
  -25.4170  -36.3680   23.8820 C   0  0  0  0  0  3  0  0  0  0  0  0
  -27.5610  -37.2560   24.6840 C   0  0  0  0  0  1  0  0  0  0  0  0
  -26.4450  -37.4230   23.7550 N   0  0  0  0  0  0  0  0  0  0  0  0
  -26.0390  -38.3420   23.9080 H   0  0  0  0  0  0  0  0  0  0  0  0
  -26.4070  -31.7550   25.1190 C   0  0  1  0  0  0  0  0  0  0  0  0
  -25.3200  -31.5140   26.1920 C   0  0  0  0  0  1  0  0  0  0  0  0
  -26.9860  -30.3790   24.7170 C   0  0  0  0  0  1  0  0  0  0  0  0
  -27.5620  -32.5460   25.7770 C   0  0  0  0  0  1  0  0  0  0  0  0
  1 46  1  0
  1  3  1  0
  2  1  2  0
  4  3  1  0
  5  6  1  0
  5  4  1  0
  7 16  1  0
  7  6  1  0
  8 16  1  0
  9 14  1  0
 10 11  1  0
 10  9  1  0
 12 11  1  0
 12 21  1  0
 12 13  1  0
 14  8  1  0
 14 13  1  0
 15  8  2  0
 16 17  1  0
 18 19  2  0
 19 38  1  0
 20 19  1  0
 20 23  1  0
 21 18  1  0
 21 22  1  0
 22 20  2  0
 23 24  1  0
 24 25  2  0
 26 29  1  0
 26 25  1  0
 27 26  2  0
 28 27  1  0
 28 23  2  0
 29 30  1  0
 30 31  1  0
 31 32  2  0
 33 32  1  0
 33 37  1  0
 34 33  2  0
 35 30  2  0
 35 34  1  0
 36 35  1  0
 38 39  1  0
 39 42  1  0
 39 41  1  0
 40 38  2  0
 43 44  1  0
 43 18  1  0
 45 43  1  0
 47 48  1  0
 47 46  1  0
 49 60  2  0
 50 48  1  0
 50 55  1  0
 51 59  1  0
 51 61  1  0
 52 58  1  0
 52 54  1  0
 53 59  1  0
 54 53  1  0
 55 54  2  0
 56 57  1  0
 56 50  2  0
 57 52  2  0
 58 51  1  0
 59 49  1  0
 61 63  2  0
 62 61  1  0
 64 62  1  0
 65 74  2  0
 65 70  1  0
 66 62  1  0
 66 70  1  0
 67 66  1  0
 68 69  1  0
 68 67  1  0
 69 65  1  0
 70 71  2  0
 71 72  1  0
 73 72  2  0
 74 73  1  0
 75 49  1  0
 75 76  1  0
 75 85  1  0
 76 79  1  0
 77 81  1  0
 77 76  1  0
 78 77  2  0
 81 80  1  0
 83 81  1  0
 83 84  1  0
 83 82  1  0
 85 88  1  1
 85 86  1  0
 87 85  1  0
M  ISO  4   8 100  16 100  47 101  48 101
M  END
>  <TORSDO>  (64) 
F 23

>  <SCORE>  (64) 
-12.306

>  <name>  (64) 
63

>  <ligand_id>  (64) 
63

>  <original_smiles>  (64) 
[H]c1c([H])c([H])c2c(c1[H])C([H])([H])C([H])([H])C([H])([H])C2([H])N([H])C(=O)C1([H])N(C(=O)C([H])(N([H])C(=O)C([H])(N([H])C([H])([H])[H])C([H])([H])[H])C(C([H])([H])[H])(C([H])([H])[H])C([H])([H])[H])C([H])([H])c2c([H])c(OC([H])([H])C([H])([H])C(=O)C([H])([H])C([H])([H])C([H])([H])C([H])([H])C([H])([H])N([H])C(=O)N3C([H])([H])C([H])([H])C([H])([H])C([H])(n4nc(-c5c([H])c([H])c(Oc6c([H])c([H])c(F)c([H])c6F)c([H])c5[H])c(C(=O)N([H])[H])c4N([H])[H])C3([H])[H])c([H])c([H])c2C1([H])[H]

>  <smiles>  (64) 
[H]c1c([H])c([H])c2c(c1[H])C([H])([H])C([H])([H])C([H])([H])C2([H])N([H])C(=O)C1([H])N(C(=O)C([H])(N([H])C(=O)C([H])(N([H])C([H])([H])[H])C([H])([H])[H])C(C([H])([H])[H])(C([H])([H])[H])C([H])([H])[H])C([H])([H])c2c([H])c(OC([H])([H])C([H])([H])C(=O)C([H])([H])C([H])([H])C([H])([H])C([H])([H])C([H])([H])N([H])C(=O)N3C([H])([H])C([H])([H])C([H])([H])C([H])(n4nc(-c5c([H])c([H])c(Oc6c([H])c([H])c(F)c([H])c6F)c([H])c5[H])c(C(=O)N([H])[H])c4N([H])[H])C3([H])[H])c([H])c([H])c2C1([H])[H]

$$$$
64:0:0
     RDKit          3D

 97105  0  0  1  0  0  0  0  0999 V2000
  -21.7010  -24.6300   20.7910 C   0  0  0  0  0  3  0  0  0  0  0  0
  -21.3430  -23.2700   20.8550 C   0  0  0  0  0  3  0  0  0  0  0  0
  -23.0310  -25.0220   21.0260 C   0  0  0  0  0  3  0  0  0  0  0  0
  -23.6550  -22.6890   21.3550 C   0  0  0  0  0  3  0  0  0  0  0  0
  -22.3140  -22.2840   21.1460 C   0  0  0  0  0  0  0  0  0  0  0  0
  -24.0160  -24.0500   21.2980 C   0  0  0  0  0  0  0  0  0  0  0  0
  -21.9010  -20.8480   21.2110 C   0  0  0  0  0  0  0  0  0  0  0  0
  -20.7230  -20.4870   21.3030 O   0  0  0  0  0  0  0  0  0  0  0  0
  -22.9980  -19.7780   21.1900 C   0  0  0  0  0  2  0  0  0  0  0  0
  -23.5140  -19.4800   19.7700 C   0  0  0  0  0  2  0  0  0  0  0  0
  -25.0380  -19.2690   19.7250 C   0  0  0  0  0  2  0  0  0  0  0  0
  -25.4920  -18.6390   18.4010 C   0  0  0  0  0  2  0  0  0  0  0  0
  -26.9770  -18.8870   18.0650 C   0  0  0  0  0  2  0  0  0  0  0  0
  -27.7020  -17.6090   17.5970 C   0  0  0  0  0  2  0  0  0  0  0  0
  -28.4950  -16.8970   18.7070 C   0  0  0  0  0  2  0  0  0  0  0  0
  -29.4210  -15.7740   18.1850 C   0  0  0  0  0  2  0  0  0  0  0  0
  -30.4890  -15.2010   19.1420 C   0  0  0  0  0  0  0  0  0  0  0  0
  -30.9740  -13.3490   20.6900 C   0  0  0  0  0  2  0  0  0  0  0  0
  -30.4300  -12.0400   20.0790 C   0  0  0  0  0  2  0  0  0  0  0  0
  -28.9310  -11.8440   20.4050 C   0  0  0  0  0  2  0  0  0  0  0  0
  -28.0850  -13.1160   20.1320 C   0  0  0  0  0  3  0  0  0  0  0  0
  -28.7750  -14.3330   20.7790 C   0  0  0  0  0  2  0  0  0  0  0  0
  -30.1250  -14.4470   20.2120 N   0  0  0  0  0  0  0  0  0  0  0  0
  -31.6650  -15.2750   18.7680 O   0  0  0  0  0  0  0  0  0  0  0  0
  -25.7730  -13.9390   20.9130 C   0  0  0  0  0  0  0  0  0  0  0  0
  -24.6220  -13.2660   21.2250 C   0  0  0  0  0  0  0  0  0  0  0  0
  -24.9220  -11.8780   21.0660 C   0  0  0  0  0  0  0  0  0  0  0  0
  -26.7090  -12.9660   20.5960 N   0  0  0  0  0  0  0  0  0  0  0  0
  -26.1970  -11.7170   20.7400 N   0  0  0  0  0  0  0  0  0  0  0  0
  -24.0550  -10.6970   21.1480 C   0  0  0  0  0  0  0  0  0  0  0  0
  -24.1240   -9.8060   22.2420 C   0  0  0  0  0  3  0  0  0  0  0  0
  -23.2690   -8.6860   22.3100 C   0  0  0  0  0  3  0  0  0  0  0  0
  -22.3310   -8.4470   21.2780 C   0  0  0  0  0  0  0  0  0  0  0  0
  -22.2810   -9.3240   20.1800 C   0  0  0  0  0  3  0  0  0  0  0  0
  -23.1370  -10.4360   20.1130 C   0  0  0  0  0  3  0  0  0  0  0  0
  -21.4780   -7.3700   21.2440 O   0  0  0  0  0  0  0  0  0  0  0  0
  -20.8190   -6.9400   22.3660 C   0  0  0  0  0  0  0  0  0  0  0  0
  -19.8790   -7.7530   23.0360 C   0  0  0  0  0  3  0  0  0  0  0  0
  -19.1730   -7.2460   24.1440 C   0  0  0  0  0  3  0  0  0  0  0  0
  -19.3990   -5.9250   24.5780 C   0  0  0  0  0  0  0  0  0  0  0  0
  -20.3340   -5.1140   23.9120 C   0  0  0  0  0  3  0  0  0  0  0  0
  -21.0390   -5.6190   22.8060 C   0  0  0  0  0  0  0  0  0  0  0  0
  -21.9220   -4.8260   22.1510 F   0  0  0  0  0  0  0  0  0  0  0  0
  -18.7140   -5.4330   25.6370 F   0  0  0  0  0  0  0  0  0  0  0  0
  -23.2890  -13.8740   21.5550 C   0  0  0  0  0  0  0  0  0  0  0  0
  -22.4800  -13.1890   22.3540 N   0  0  0  0  0  0  0  0  0  0  0  0
  -22.9780  -14.9890   21.1410 O   0  0  0  0  0  0  0  0  0  0  0  0
  -22.7410  -12.2800   22.7070 H   0  0  0  0  0  0  0  0  0  0  0  0
  -21.5880  -13.5810   22.6190 H   0  0  0  0  0  0  0  0  0  0  0  0
  -26.0910  -15.2920   20.8540 N   0  0  0  0  0  0  0  0  0  0  0  0
  -25.3990  -16.0130   21.0250 H   0  0  0  0  0  0  0  0  0  0  0  0
  -26.9880  -15.6630   20.5690 H   0  0  0  0  0  0  0  0  0  0  0  0
  -25.4580  -24.4660   21.5370 C   0  0  0  0  0  2  0  0  0  0  0  0
  -26.1730  -24.8550   20.2350 C   0  0  0  0  0  2  0  0  0  0  0  0
  -27.5880  -25.4160   20.4740 C   0  0  0  0  0  2  0  0  0  0  0  0
  -28.1890  -26.1660   19.2630 C   0  0  0  0  0  2  0  0  0  0  0  0
  -28.1710  -27.5850   19.4390 O   0  0  0  0  0  0  0  0  0  0  0  0
  -24.2530  -31.6150   23.7550 C   0  0  0  0  0  0  0  0  0  0  0  0
  -26.9550  -28.2090   19.6140 C   0  0  0  0  0  0  0  0  0  0  0  0
  -23.0430  -30.6030   21.8500 C   0  0  0  0  0  3  0  0  0  0  0  0
  -24.5010  -29.5340   20.0570 C   0  0  0  0  0  0  0  0  0  0  0  0
  -25.5440  -31.1190   21.6850 C   0  0  0  0  0  2  0  0  0  0  0  0
  -25.6560  -29.9560   20.7250 C   0  0  0  0  0  0  0  0  0  0  0  0
  -26.8840  -29.2990   20.5050 C   0  0  0  0  0  3  0  0  0  0  0  0
  -25.7860  -27.8100   18.9280 C   0  0  0  0  0  3  0  0  0  0  0  0
  -24.5580  -28.4540   19.1600 C   0  0  0  0  0  3  0  0  0  0  0  0
  -23.2290  -30.2940   20.3400 C   0  0  0  0  0  2  0  0  0  0  0  0
  -24.3000  -31.1110   22.4900 N   0  0  0  0  0  0  0  0  0  0  0  0
  -23.1820  -31.7020   24.3700 O   0  0  0  0  0  0  0  0  0  0  0  0
  -22.4700  -29.3470   22.5440 C   0  0  0  0  0  0  0  0  0  0  0  0
  -21.2210  -28.9940   22.1980 N   0  0  0  0  0  0  0  0  0  0  0  0
  -23.1460  -28.7040   23.3500 O   0  0  0  0  0  0  0  0  0  0  0  0
  -20.7320  -29.5760   21.5340 H   0  0  0  0  0  0  0  0  0  0  0  0
  -18.1780  -27.0850   21.8080 C   0  0  0  0  0  0  0  0  0  0  0  0
  -20.4890  -27.8290   22.6940 C   0  0  0  0  0  3  0  0  0  0  0  0
  -21.0370  -26.5240   22.0680 C   0  0  0  0  0  2  0  0  0  0  0  0
  -20.2770  -26.0990   20.8080 C   0  0  0  0  0  2  0  0  0  0  0  0
  -18.7970  -25.8790   21.1230 C   0  0  0  0  0  2  0  0  0  0  0  0
  -18.9750  -28.0100   22.5320 C   0  0  0  0  0  0  0  0  0  0  0  0
  -18.3540  -29.1330   23.1240 C   0  0  0  0  0  3  0  0  0  0  0  0
  -16.9670  -29.3390   22.9970 C   0  0  0  0  0  3  0  0  0  0  0  0
  -16.1800  -28.4120   22.2890 C   0  0  0  0  0  3  0  0  0  0  0  0
  -16.7850  -27.2860   21.7030 C   0  0  0  0  0  3  0  0  0  0  0  0
  -25.5380  -32.1330   24.4760 C   0  0  0  0  0  3  0  0  0  0  0  0
  -25.3250  -33.5520   24.7920 N   0  0  0  0  0  0  0  0  0  0  0  0
  -25.8870  -34.5700   24.1260 C   0  0  0  0  0  0  0  0  0  0  0  0
  -26.7030  -34.4060   23.2160 O   0  0  0  0  0  0  0  0  0  0  0  0
  -24.6310  -33.7620   25.4930 H   0  0  0  0  0  0  0  0  0  0  0  0
  -24.4850  -36.5640   23.5020 C   0  0  0  0  0  1  0  0  0  0  0  0
  -25.4740  -35.9970   24.5350 C   0  0  0  0  0  3  0  0  0  0  0  0
  -27.4700  -36.6030   25.8280 C   0  0  0  0  0  1  0  0  0  0  0  0
  -26.6180  -36.9230   24.6860 N   0  0  0  0  0  0  0  0  0  0  0  0
  -26.2940  -37.8800   24.7910 H   0  0  0  0  0  0  0  0  0  0  0  0
  -25.8920  -31.3160   25.7790 C   0  0  1  0  0  0  0  0  0  0  0  0
  -24.7110  -31.1790   26.7670 C   0  0  0  0  0  1  0  0  0  0  0  0
  -26.3740  -29.8910   25.4170 C   0  0  0  0  0  1  0  0  0  0  0  0
  -27.0570  -32.0050   26.5310 C   0  0  0  0  0  1  0  0  0  0  0  0
  1  2  2  0
  1  3  1  0
  2  5  1  0
  3  6  2  0
  5  7  1  0
  5  4  2  0
  6  4  1  0
  6 53  1  0
  7  8  2  0
  9  7  1  0
 10  9  1  0
 11 10  1  0
 12 11  1  0
 13 12  1  0
 14 13  1  0
 14 15  1  0
 16 15  1  0
 16 17  1  0
 17 23  1  0
 19 20  1  0
 19 18  1  0
 21 20  1  0
 21 28  1  0
 21 22  1  0
 23 18  1  0
 23 22  1  0
 24 17  2  0
 25 26  2  0
 26 45  1  0
 27 30  1  0
 27 26  1  0
 28 29  1  0
 28 25  1  0
 29 27  2  0
 30 31  1  0
 31 32  2  0
 33 32  1  0
 34 33  2  0
 35 34  1  0
 35 30  2  0
 36 33  1  0
 36 37  1  0
 37 42  2  0
 37 38  1  0
 38 39  2  0
 39 40  1  0
 40 44  1  0
 41 40  2  0
 42 41  1  0
 43 42  1  0
 45 46  1  0
 46 49  1  0
 46 48  1  0
 47 45  2  0
 50 25  1  0
 50 51  1  0
 52 50  1  0
 54 55  1  0
 54 53  1  0
 56 57  1  0
 56 55  1  0
 57 59  1  0
 58 69  2  0
 59 64  1  0
 60 68  1  0
 60 70  1  0
 61 67  1  0
 61 63  1  0
 62 68  1  0
 63 62  1  0
 64 63  2  0
 65 66  1  0
 65 59  2  0
 66 61  2  0
 67 60  1  0
 68 58  1  0
 70 72  2  0
 71 70  1  0
 73 71  1  0
 74 79  1  0
 75 71  1  0
 76 75  1  0
 77 78  1  0
 77 76  1  0
 78 74  1  0
 79 75  1  0
 79 80  2  0
 81 80  1  0
 82 81  2  0
 83 74  2  0
 83 82  1  0
 84 58  1  0
 84 85  1  0
 84 94  1  0
 85 88  1  0
 86 90  1  0
 86 85  1  0
 87 86  2  0
 90 89  1  0
 90 92  1  0
 92 93  1  0
 92 91  1  0
 94 97  1  1
 94 95  1  0
 96 94  1  0
M  ISO  4  16 100  17 100  56 101  57 101
M  END
>  <TORSDO>  (65) 
F 29

>  <SCORE>  (65) 
17.441

>  <name>  (65) 
64

>  <ligand_id>  (65) 
64

>  <original_smiles>  (65) 
[H]c1c([H])c(C(=O)C([H])([H])C([H])([H])C([H])([H])C([H])([H])C([H])([H])C([H])([H])C([H])([H])C([H])([H])C(=O)N2C([H])([H])C([H])([H])C([H])([H])C([H])(n3nc(-c4c([H])c([H])c(Oc5c([H])c([H])c(F)c([H])c5F)c([H])c4[H])c(C(=O)N([H])[H])c3N([H])[H])C2([H])[H])c([H])c(C([H])([H])C([H])([H])C([H])([H])C([H])([H])Oc2c([H])c([H])c3c(c2[H])C([H])([H])N(C(=O)C([H])(N([H])C(=O)C([H])(N([H])C([H])([H])[H])C([H])([H])[H])C(C([H])([H])[H])(C([H])([H])[H])C([H])([H])[H])C([H])(C(=O)N([H])C2([H])c4c([H])c([H])c([H])c([H])c4C([H])([H])C([H])([H])C2([H])[H])C3([H])[H])c1[H]

>  <smiles>  (65) 
[H]c1c([H])c(C(=O)C([H])([H])C([H])([H])C([H])([H])C([H])([H])C([H])([H])C([H])([H])C([H])([H])C([H])([H])C(=O)N2C([H])([H])C([H])([H])C([H])([H])C([H])(n3nc(-c4c([H])c([H])c(Oc5c([H])c([H])c(F)c([H])c5F)c([H])c4[H])c(C(=O)N([H])[H])c3N([H])[H])C2([H])[H])c([H])c(C([H])([H])C([H])([H])C([H])([H])C([H])([H])Oc2c([H])c([H])c3c(c2[H])C([H])([H])N(C(=O)C([H])(N([H])C(=O)C([H])(N([H])C([H])([H])[H])C([H])([H])[H])C(C([H])([H])[H])(C([H])([H])[H])C([H])([H])[H])C([H])(C(=O)N([H])C2([H])c4c([H])c([H])c([H])c([H])c4C([H])([H])C([H])([H])C2([H])[H])C3([H])[H])c1[H]

$$$$
65:0:0
     RDKit          3D

 94102  0  0  1  0  0  0  0  0999 V2000
  -25.2740  -22.7550   21.4970 C   0  0  0  0  0  3  0  0  0  0  0  0
  -26.5980  -21.0410   20.3700 C   0  0  0  0  0  3  0  0  0  0  0  0
  -26.1140  -23.7480   20.9620 C   0  0  0  0  0  3  0  0  0  0  0  0
  -27.4470  -22.0340   19.8530 C   0  0  0  0  0  3  0  0  0  0  0  0
  -25.5300  -21.3970   21.2200 C   0  0  0  0  0  0  0  0  0  0  0  0
  -27.2270  -23.3890   20.1630 C   0  0  0  0  0  0  0  0  0  0  0  0
  -24.6900  -20.3300   21.8900 C   0  0  0  0  0  2  0  0  0  0  0  0
  -25.1510  -20.0410   23.3340 C   0  0  0  0  0  2  0  0  0  0  0  0
  -26.6500  -19.7030   23.4950 C   0  0  0  0  0  2  0  0  0  0  0  0
  -27.0660  -18.4040   22.7890 C   0  0  0  0  0  2  0  0  0  0  0  0
  -28.5790  -18.1210   22.8250 C   0  0  0  0  0  2  0  0  0  0  0  0
  -28.8750  -16.7470   22.2100 C   0  0  0  0  0  2  0  0  0  0  0  0
  -30.3530  -16.3080   22.2270 C   0  0  0  0  0  2  0  0  0  0  0  0
  -30.7650  -14.3180   20.7500 C   0  0  0  0  0  0  0  0  0  0  0  0
  -30.4370  -12.2920   19.3740 C   0  0  0  0  0  2  0  0  0  0  0  0
  -29.4870  -12.5380   18.1860 C   0  0  0  0  0  2  0  0  0  0  0  0
  -28.0140  -12.3810   18.6060 C   0  0  0  0  0  2  0  0  0  0  0  0
  -27.6760  -13.1920   19.8820 C   0  0  0  0  0  3  0  0  0  0  0  0
  -28.7100  -12.8910   20.9880 C   0  0  0  0  0  2  0  0  0  0  0  0
  -30.0670  -13.1880   20.4750 N   0  0  0  0  0  0  0  0  0  0  0  0
  -31.6980  -14.7480   20.0620 O   0  0  0  0  0  0  0  0  0  0  0  0
  -30.3780  -14.8920   21.8920 N   0  0  0  0  0  0  0  0  0  0  0  0
  -29.7650  -14.3100   22.4450 H   0  0  0  0  0  0  0  0  0  0  0  0
  -25.2650  -13.8160   20.5650 C   0  0  0  0  0  0  0  0  0  0  0  0
  -24.1870  -13.0430   20.9130 C   0  0  0  0  0  0  0  0  0  0  0  0
  -24.6410  -11.6910   20.8700 C   0  0  0  0  0  0  0  0  0  0  0  0
  -26.3090  -12.9300   20.3370 N   0  0  0  0  0  0  0  0  0  0  0  0
  -25.9340  -11.6470   20.5740 N   0  0  0  0  0  0  0  0  0  0  0  0
  -23.9070  -10.4300   21.0410 C   0  0  0  0  0  0  0  0  0  0  0  0
  -24.3620   -9.4220   21.9170 C   0  0  0  0  0  3  0  0  0  0  0  0
  -23.6290   -8.2250   22.0740 C   0  0  0  0  0  3  0  0  0  0  0  0
  -22.4270   -8.0290   21.3520 C   0  0  0  0  0  0  0  0  0  0  0  0
  -21.9910   -9.0280   20.4630 C   0  0  0  0  0  3  0  0  0  0  0  0
  -22.7240  -10.2160   20.3050 C   0  0  0  0  0  3  0  0  0  0  0  0
  -21.6640   -6.8880   21.4240 O   0  0  0  0  0  0  0  0  0  0  0  0
  -21.6850   -6.0720   22.5280 C   0  0  0  0  0  0  0  0  0  0  0  0
  -21.4020   -6.5620   23.8210 C   0  0  0  0  0  3  0  0  0  0  0  0
  -21.3670   -5.6780   24.9180 C   0  0  0  0  0  3  0  0  0  0  0  0
  -21.6070   -4.3040   24.7240 C   0  0  0  0  0  0  0  0  0  0  0  0
  -21.8830   -3.8130   23.4370 C   0  0  0  0  0  3  0  0  0  0  0  0
  -21.9210   -4.6940   22.3420 C   0  0  0  0  0  0  0  0  0  0  0  0
  -22.1680   -4.2120   21.0990 F   0  0  0  0  0  0  0  0  0  0  0  0
  -21.5630   -3.4530   25.7760 F   0  0  0  0  0  0  0  0  0  0  0  0
  -22.7890  -13.5240   21.1810 C   0  0  0  0  0  0  0  0  0  0  0  0
  -22.0530  -12.8220   22.0390 N   0  0  0  0  0  0  0  0  0  0  0  0
  -22.3570  -14.5530   20.6670 O   0  0  0  0  0  0  0  0  0  0  0  0
  -22.4160  -11.9880   22.4770 H   0  0  0  0  0  0  0  0  0  0  0  0
  -21.1160  -13.1260   22.2660 H   0  0  0  0  0  0  0  0  0  0  0  0
  -25.4420  -15.1870   20.4100 N   0  0  0  0  0  0  0  0  0  0  0  0
  -24.6870  -15.8530   20.5330 H   0  0  0  0  0  0  0  0  0  0  0  0
  -26.3120  -15.6250   20.1340 H   0  0  0  0  0  0  0  0  0  0  0  0
  -28.1920  -24.4320   19.6190 C   0  0  0  0  0  2  0  0  0  0  0  0
  -28.5390  -25.5560   20.6150 C   0  0  0  0  0  2  0  0  0  0  0  0
  -28.4600  -26.8380   20.0080 O   0  0  0  0  0  0  0  0  0  0  0  0
  -24.6120  -31.8720   23.2150 C   0  0  0  0  0  0  0  0  0  0  0  0
  -27.2510  -27.4880   20.0820 C   0  0  0  0  0  0  0  0  0  0  0  0
  -23.3960  -30.4970   21.5550 C   0  0  0  0  0  3  0  0  0  0  0  0
  -24.8430  -28.9610   20.1270 C   0  0  0  0  0  0  0  0  0  0  0  0
  -25.9190  -30.8540   21.3580 C   0  0  0  0  0  2  0  0  0  0  0  0
  -26.0010  -29.4900   20.7090 C   0  0  0  0  0  0  0  0  0  0  0  0
  -27.2070  -28.7620   20.6820 C   0  0  0  0  0  3  0  0  0  0  0  0
  -26.0710  -26.9570   19.5110 C   0  0  0  0  0  3  0  0  0  0  0  0
  -24.8680  -27.6880   19.5300 C   0  0  0  0  0  3  0  0  0  0  0  0
  -23.6040  -29.8240   20.1720 C   0  0  0  0  0  2  0  0  0  0  0  0
  -24.6600  -31.0870   22.1030 N   0  0  0  0  0  0  0  0  0  0  0  0
  -23.5330  -32.1450   23.7600 O   0  0  0  0  0  0  0  0  0  0  0  0
  -22.7380  -29.4690   22.5020 C   0  0  0  0  0  0  0  0  0  0  0  0
  -21.4110  -29.3030   22.3740 N   0  0  0  0  0  0  0  0  0  0  0  0
  -23.4170  -28.8240   23.3040 O   0  0  0  0  0  0  0  0  0  0  0  0
  -20.9270  -29.8760   21.6970 H   0  0  0  0  0  0  0  0  0  0  0  0
  -18.0270  -28.1370   22.8510 C   0  0  0  0  0  0  0  0  0  0  0  0
  -20.5850  -28.3640   23.1320 C   0  0  0  0  0  3  0  0  0  0  0  0
  -20.6760  -26.9390   22.5400 C   0  0  0  0  0  2  0  0  0  0  0  0
  -19.5750  -26.6390   21.5190 C   0  0  0  0  0  2  0  0  0  0  0  0
  -18.1930  -26.7930   22.1610 C   0  0  0  0  0  2  0  0  0  0  0  0
  -19.1520  -28.8830   23.2920 C   0  0  0  0  0  0  0  0  0  0  0  0
  -18.9450  -30.1430   23.8940 C   0  0  0  0  0  3  0  0  0  0  0  0
  -17.6460  -30.6600   24.0560 C   0  0  0  0  0  3  0  0  0  0  0  0
  -16.5350  -29.9100   23.6320 C   0  0  0  0  0  3  0  0  0  0  0  0
  -16.7270  -28.6500   23.0370 C   0  0  0  0  0  3  0  0  0  0  0  0
  -25.9040  -32.4860   23.8410 C   0  0  0  0  0  3  0  0  0  0  0  0
  -26.4480  -31.6630   25.0740 C   0  0  1  0  0  0  0  0  0  0  0  0
  -25.3740  -31.3700   26.1480 C   0  0  0  0  0  1  0  0  0  0  0  0
  -27.0300  -30.3090   24.6100 C   0  0  0  0  0  1  0  0  0  0  0  0
  -27.6090  -32.4310   25.7500 C   0  0  0  0  0  1  0  0  0  0  0  0
  -25.5900  -33.8640   24.2350 N   0  0  0  0  0  0  0  0  0  0  0  0
  -25.9010  -34.9510   23.5160 C   0  0  0  0  0  0  0  0  0  0  0  0
  -26.5570  -34.8990   22.4710 O   0  0  0  0  0  0  0  0  0  0  0  0
  -25.0130  -33.9750   25.0550 H   0  0  0  0  0  0  0  0  0  0  0  0
  -24.1460  -36.7310   23.2640 C   0  0  0  0  0  1  0  0  0  0  0  0
  -25.4090  -36.3150   24.0380 C   0  0  0  0  0  3  0  0  0  0  0  0
  -27.5580  -37.1820   24.8480 C   0  0  0  0  0  1  0  0  0  0  0  0
  -26.4280  -37.3820   23.9440 N   0  0  0  0  0  0  0  0  0  0  0  0
  -26.0200  -38.2920   24.1420 H   0  0  0  0  0  0  0  0  0  0  0  0
  2  5  2  0
  3  1  2  0
  4  6  2  0
  4  2  1  0
  5  1  1  0
  5  7  1  0
  6  3  1  0
  7  8  1  0
  8  9  1  0
 10 11  1  0
 10  9  1  0
 12 13  1  0
 12 11  1  0
 14 22  1  0
 15 20  1  0
 16 17  1  0
 16 15  1  0
 18 17  1  0
 18 27  1  0
 18 19  1  0
 20 14  1  0
 20 19  1  0
 21 14  2  0
 22 13  1  0
 22 23  1  0
 24 25  2  0
 25 44  1  0
 26 25  1  0
 26 29  1  0
 27 24  1  0
 27 28  1  0
 28 26  2  0
 29 30  1  0
 30 31  2  0
 32 35  1  0
 32 31  1  0
 33 32  2  0
 34 33  1  0
 34 29  2  0
 35 36  1  0
 36 37  1  0
 37 38  2  0
 39 38  1  0
 39 43  1  0
 40 39  2  0
 41 36  2  0
 41 40  1  0
 42 41  1  0
 44 45  1  0
 45 48  1  0
 45 47  1  0
 46 44  2  0
 49 50  1  0
 49 24  1  0
 51 49  1  0
 52  6  1  0
 52 53  1  0
 54 56  1  0
 54 53  1  0
 55 66  2  0
 56 61  1  0
 57 65  1  0
 57 67  1  0
 58 64  1  0
 58 60  1  0
 59 65  1  0
 60 59  1  0
 61 60  2  0
 62 63  1  0
 62 56  2  0
 63 58  2  0
 64 57  1  0
 65 55  1  0
 67 69  2  0
 68 67  1  0
 70 68  1  0
 71 80  2  0
 71 76  1  0
 72 68  1  0
 72 76  1  0
 73 72  1  0
 74 75  1  0
 74 73  1  0
 75 71  1  0
 76 77  2  0
 77 78  1  0
 79 78  2  0
 80 79  1  0
 81 55  1  0
 81 86  1  0
 81 82  1  0
 82 85  1  1
 82 83  1  0
 84 82  1  0
 86 89  1  0
 87 91  1  0
 87 86  1  0
 88 87  2  0
 91 90  1  0
 93 91  1  0
 93 94  1  0
 93 92  1  0
M  ISO  4  14 100  22 100  53 101  54 101
M  END
>  <TORSDO>  (66) 
F 25

>  <SCORE>  (66) 
39.847

>  <name>  (66) 
65

>  <ligand_id>  (66) 
65

>  <original_smiles>  (66) 
[H]c1c([H])c([H])c2c(c1[H])C([H])([H])C([H])([H])C([H])([H])C2([H])N([H])C(=O)C1([H])N(C(=O)C([H])(N([H])C(=O)C([H])(N([H])C([H])([H])[H])C([H])([H])[H])C(C([H])([H])[H])(C([H])([H])[H])C([H])([H])[H])C([H])([H])c2c([H])c(OC([H])([H])C([H])([H])c3c([H])c([H])c(C([H])([H])C([H])([H])C([H])([H])C([H])([H])C([H])([H])C([H])([H])C([H])([H])N([H])C(=O)N4C([H])([H])C([H])([H])C([H])([H])C([H])(n5nc(-c6c([H])c([H])c(Oc7c([H])c([H])c(F)c([H])c7F)c([H])c6[H])c(C(=O)N([H])[H])c5N([H])[H])C4([H])[H])c([H])c3[H])c([H])c([H])c2C1([H])[H]

>  <smiles>  (66) 
[H]c1c([H])c([H])c2c(c1[H])C([H])([H])C([H])([H])C([H])([H])C2([H])N([H])C(=O)C1([H])N(C(=O)C([H])(N([H])C(=O)C([H])(N([H])C([H])([H])[H])C([H])([H])[H])C(C([H])([H])[H])(C([H])([H])[H])C([H])([H])[H])C([H])([H])c2c([H])c(OC([H])([H])C([H])([H])c3c([H])c([H])c(C([H])([H])C([H])([H])C([H])([H])C([H])([H])C([H])([H])C([H])([H])C([H])([H])N([H])C(=O)N4C([H])([H])C([H])([H])C([H])([H])C([H])(n5nc(-c6c([H])c([H])c(Oc7c([H])c([H])c(F)c([H])c7F)c([H])c6[H])c(C(=O)N([H])[H])c5N([H])[H])C4([H])[H])c([H])c3[H])c([H])c([H])c2C1([H])[H]

$$$$
66:0:0
     RDKit          3D

 83 90  0  0  1  0  0  0  0  0999 V2000
  -27.8710  -23.9760   20.1940 C   0  0  0  0  0  2  0  0  0  0  0  0
  -28.9410  -22.4910   20.2800 C   0  0  0  0  0  0  0  0  0  0  0  0
  -30.1420  -22.7700   20.3420 O   0  0  0  0  0  0  0  0  0  0  0  0
  -28.6540  -20.6780   20.2940 C   0  0  0  0  0  3  0  0  0  0  0  0
  -29.6640  -19.0630   20.2220 C   0  0  0  0  0  3  0  0  0  0  0  0
  -29.3840  -17.1850   20.3420 C   0  0  0  0  0  2  0  0  0  0  0  0
  -30.2630  -15.5820   20.1260 C   0  0  0  0  0  0  0  0  0  0  0  0
  -30.3430  -13.0760   19.2550 C   0  0  0  0  0  2  0  0  0  0  0  0
  -29.3980  -12.7850   18.0540 C   0  0  0  0  0  2  0  0  0  0  0  0
  -27.9760  -12.4500   18.5340 C   0  0  0  0  0  2  0  0  0  0  0  0
  -27.5230  -13.4070   19.6610 C   0  0  0  0  0  3  0  0  0  0  0  0
  -28.5950  -13.6250   20.7500 C   0  0  0  0  0  2  0  0  0  0  0  0
  -29.7810  -14.2150   20.0970 N   0  0  0  0  0  0  0  0  0  0  0  0
  -31.4780  -15.5750   19.8490 O   0  0  0  0  0  0  0  0  0  0  0  0
  -25.1780  -13.9150   20.5050 C   0  0  0  0  0  0  0  0  0  0  0  0
  -24.1380  -13.1210   20.8980 C   0  0  0  0  0  0  0  0  0  0  0  0
  -24.6210  -11.7770   20.8400 C   0  0  0  0  0  0  0  0  0  0  0  0
  -26.2210  -13.0560   20.2150 N   0  0  0  0  0  0  0  0  0  0  0  0
  -25.9030  -11.7630   20.4850 N   0  0  0  0  0  0  0  0  0  0  0  0
  -23.9130  -10.5050   21.0400 C   0  0  0  0  0  0  0  0  0  0  0  0
  -24.3710   -9.5390   21.9620 C   0  0  0  0  0  3  0  0  0  0  0  0
  -23.6580   -8.3350   22.1530 C   0  0  0  0  0  3  0  0  0  0  0  0
  -22.4730   -8.0880   21.4210 C   0  0  0  0  0  0  0  0  0  0  0  0
  -22.0330   -9.0420   20.4880 C   0  0  0  0  0  3  0  0  0  0  0  0
  -22.7460  -10.2370   20.2960 C   0  0  0  0  0  3  0  0  0  0  0  0
  -21.7300   -6.9360   21.5220 O   0  0  0  0  0  0  0  0  0  0  0  0
  -21.6990   -6.1970   22.6780 C   0  0  0  0  0  0  0  0  0  0  0  0
  -21.2570   -6.7470   23.9010 C   0  0  0  0  0  3  0  0  0  0  0  0
  -21.1750   -5.9340   25.0490 C   0  0  0  0  0  3  0  0  0  0  0  0
  -21.5240   -4.5720   24.9750 C   0  0  0  0  0  0  0  0  0  0  0  0
  -21.9580   -4.0220   23.7560 C   0  0  0  0  0  3  0  0  0  0  0  0
  -22.0420   -4.8320   22.6100 C   0  0  0  0  0  0  0  0  0  0  0  0
  -22.4410   -4.2910   21.4340 F   0  0  0  0  0  0  0  0  0  0  0  0
  -21.4380   -3.7890   26.0750 F   0  0  0  0  0  0  0  0  0  0  0  0
  -22.7440  -13.5800   21.2120 C   0  0  0  0  0  0  0  0  0  0  0  0
  -22.0520  -12.8750   22.0990 N   0  0  0  0  0  0  0  0  0  0  0  0
  -22.2800  -14.6010   20.7060 O   0  0  0  0  0  0  0  0  0  0  0  0
  -22.4420  -12.0490   22.5300 H   0  0  0  0  0  0  0  0  0  0  0  0
  -21.1180  -13.1650   22.3520 H   0  0  0  0  0  0  0  0  0  0  0  0
  -25.3190  -15.2900   20.3400 N   0  0  0  0  0  0  0  0  0  0  0  0
  -24.5500  -15.9350   20.4900 H   0  0  0  0  0  0  0  0  0  0  0  0
  -26.1570  -15.7450   19.9990 H   0  0  0  0  0  0  0  0  0  0  0  0
  -28.1580  -25.6750   20.2860 O   0  0  0  0  0  0  0  0  0  0  0  0
  -24.6530  -31.8860   23.1980 C   0  0  0  0  0  0  0  0  0  0  0  0
  -27.1820  -26.8580   20.2260 C   0  0  0  0  0  0  0  0  0  0  0  0
  -23.4650  -30.4910   21.5580 C   0  0  0  0  0  3  0  0  0  0  0  0
  -24.9120  -28.8490   20.1540 C   0  0  0  0  0  0  0  0  0  0  0  0
  -26.0410  -30.6450   21.4410 C   0  0  0  0  0  2  0  0  0  0  0  0
  -26.1050  -29.2190   20.7880 C   0  0  0  0  0  0  0  0  0  0  0  0
  -27.2290  -28.2500   20.7920 C   0  0  0  0  0  3  0  0  0  0  0  0
  -25.9580  -26.6780   19.5400 C   0  0  0  0  0  3  0  0  0  0  0  0
  -24.8730  -27.6030   19.5070 C   0  0  0  0  0  3  0  0  0  0  0  0
  -23.7060  -29.7960   20.1890 C   0  0  0  0  0  2  0  0  0  0  0  0
  -24.7430  -31.0380   22.1190 N   0  0  0  0  0  0  0  0  0  0  0  0
  -23.5600  -32.1880   23.7060 O   0  0  0  0  0  0  0  0  0  0  0  0
  -22.7460  -29.5140   22.5250 C   0  0  0  0  0  0  0  0  0  0  0  0
  -21.4140  -29.3620   22.3930 N   0  0  0  0  0  0  0  0  0  0  0  0
  -23.3960  -28.8900   23.3670 O   0  0  0  0  0  0  0  0  0  0  0  0
  -20.9400  -29.9160   21.6930 H   0  0  0  0  0  0  0  0  0  0  0  0
  -18.0200  -28.1610   22.8800 C   0  0  0  0  0  0  0  0  0  0  0  0
  -20.5790  -28.4310   23.1630 C   0  0  0  0  0  3  0  0  0  0  0  0
  -20.6840  -26.9950   22.5990 C   0  0  0  0  0  2  0  0  0  0  0  0
  -19.5920  -26.6650   21.5770 C   0  0  0  0  0  2  0  0  0  0  0  0
  -18.2040  -26.8110   22.2080 C   0  0  0  0  0  2  0  0  0  0  0  0
  -19.1350  -28.9290   23.3130 C   0  0  0  0  0  0  0  0  0  0  0  0
  -18.9060  -30.1890   23.9060 C   0  0  0  0  0  3  0  0  0  0  0  0
  -17.5980  -30.6830   24.0660 C   0  0  0  0  0  3  0  0  0  0  0  0
  -16.4990  -29.9150   23.6460 C   0  0  0  0  0  3  0  0  0  0  0  0
  -16.7120  -28.6550   23.0600 C   0  0  0  0  0  3  0  0  0  0  0  0
  -25.9180  -32.5290   23.8440 C   0  0  0  0  0  3  0  0  0  0  0  0
  -26.4110  -31.7630   25.1340 C   0  0  1  0  0  0  0  0  0  0  0  0
  -25.3020  -31.5390   26.1880 C   0  0  0  0  0  1  0  0  0  0  0  0
  -26.9930  -30.3780   24.7700 C   0  0  0  0  0  1  0  0  0  0  0  0
  -27.5570  -32.5550   25.8060 C   0  0  0  0  0  1  0  0  0  0  0  0
  -25.5990  -33.9290   24.1830 N   0  0  0  0  0  0  0  0  0  0  0  0
  -25.9170  -34.9950   23.4350 C   0  0  0  0  0  0  0  0  0  0  0  0
  -26.5670  -34.9030   22.3920 O   0  0  0  0  0  0  0  0  0  0  0  0
  -25.0170  -34.0720   24.9940 H   0  0  0  0  0  0  0  0  0  0  0  0
  -24.1700  -36.7900   23.1560 C   0  0  0  0  0  1  0  0  0  0  0  0
  -25.4400  -36.3810   23.9200 C   0  0  0  0  0  3  0  0  0  0  0  0
  -27.5960  -37.2790   24.6850 C   0  0  0  0  0  1  0  0  0  0  0  0
  -26.4640  -37.4410   23.7760 N   0  0  0  0  0  0  0  0  0  0  0  0
  -26.0570  -38.3580   23.9360 H   0  0  0  0  0  0  0  0  0  0  0  0
  1  2  1  0
  1 43  1  0
  2  4  1  0
  2  3  2  0
  5  4  2  0
  5  6  1  0
  7  6  1  0
  8 13  1  0
  9 10  1  0
  9  8  1  0
 11 10  1  0
 11 18  1  0
 11 12  1  0
 13  7  1  0
 13 12  1  0
 14  7  2  0
 15 16  2  0
 16 35  1  0
 17 16  1  0
 17 20  1  0
 18 19  1  0
 18 15  1  0
 19 17  2  0
 20 21  1  0
 21 22  2  0
 23 26  1  0
 23 22  1  0
 24 23  2  0
 25 24  1  0
 25 20  2  0
 26 27  1  0
 27 28  1  0
 28 29  2  0
 30 29  1  0
 30 34  1  0
 31 30  2  0
 32 27  2  0
 32 31  1  0
 33 32  1  0
 35 36  1  0
 36 39  1  0
 36 38  1  0
 37 35  2  0
 40 41  1  0
 40 15  1  0
 42 40  1  0
 44 55  2  0
 45 43  1  0
 45 50  1  0
 46 54  1  0
 46 56  1  0
 47 53  1  0
 47 49  1  0
 48 54  1  0
 49 50  2  0
 49 48  1  0
 51 45  2  0
 52 51  1  0
 52 47  2  0
 53 46  1  0
 54 44  1  0
 56 58  2  0
 57 56  1  0
 59 57  1  0
 60 69  2  0
 60 65  1  0
 61 57  1  0
 61 65  1  0
 62 61  1  0
 63 64  1  0
 63 62  1  0
 64 60  1  0
 65 66  2  0
 66 67  1  0
 68 67  2  0
 69 68  1  0
 70 44  1  0
 70 75  1  0
 70 71  1  0
 71 74  1  1
 71 72  1  0
 73 71  1  0
 75 78  1  0
 76 80  1  0
 76 75  1  0
 77 76  2  0
 80 79  1  0
 82 80  1  0
 82 83  1  0
 82 81  1  0
M  ISO  4   1 101   6 100   7 100  43 101
M  END
>  <TORSDO>  (67) 
F 20

>  <SCORE>  (67) 
-16.429

>  <name>  (67) 
66

>  <ligand_id>  (67) 
66

>  <original_smiles>  (67) 
[H]c1c([H])c([H])c2c(c1[H])C([H])([H])C([H])([H])C([H])([H])C2([H])N([H])C(=O)C1([H])N(C(=O)C([H])(N([H])C(=O)C([H])(N([H])C([H])([H])[H])C([H])([H])[H])C(C([H])([H])[H])(C([H])([H])[H])C([H])([H])[H])C([H])([H])c2c([H])c(OC([H])([H])C(=O)C([H])([H])C([H])([H])C([H])([H])C(=O)N3C([H])([H])C([H])([H])C([H])([H])C([H])(n4nc(-c5c([H])c([H])c(Oc6c([H])c([H])c(F)c([H])c6F)c([H])c5[H])c(C(=O)N([H])[H])c4N([H])[H])C3([H])[H])c([H])c([H])c2C1([H])[H]

>  <smiles>  (67) 
[H]c1c([H])c([H])c2c(c1[H])C([H])([H])C([H])([H])C([H])([H])C2([H])N([H])C(=O)C1([H])N(C(=O)C([H])(N([H])C(=O)C([H])(N([H])C([H])([H])[H])C([H])([H])[H])C(C([H])([H])[H])(C([H])([H])[H])C([H])([H])[H])C([H])([H])c2c([H])c(OC([H])([H])C(=O)C([H])([H])C([H])([H])C([H])([H])C(=O)N3C([H])([H])C([H])([H])C([H])([H])C([H])(n4nc(-c5c([H])c([H])c(Oc6c([H])c([H])c(F)c([H])c6F)c([H])c5[H])c(C(=O)N([H])[H])c4N([H])[H])C3([H])[H])c([H])c([H])c2C1([H])[H]

$$$$
67:0:0
     RDKit          3D

 92 99  0  0  1  0  0  0  0  0999 V2000
  -30.8520  -25.1990   17.9010 C   0  0  0  0  0  0  0  0  0  0  0  0
  -31.4010  -26.2660   18.4970 N   0  0  0  0  0  0  0  0  0  0  0  0
  -29.8600  -25.2740   17.1750 O   0  0  0  0  0  0  0  0  0  0  0  0
  -32.2430  -26.1140   19.0370 H   0  0  0  0  0  0  0  0  0  0  0  0
  -31.4940  -23.8370   18.1770 C   0  0  0  0  0  2  0  0  0  0  0  0
  -30.5160  -22.8950   18.9050 C   0  0  0  0  0  2  0  0  0  0  0  0
  -31.0350  -21.4530   19.0280 C   0  0  0  0  0  2  0  0  0  0  0  0
  -30.0190  -20.5270   19.7160 C   0  0  0  0  0  2  0  0  0  0  0  0
  -30.4150  -19.0470   19.6190 C   0  0  0  0  0  2  0  0  0  0  0  0
  -29.3820  -18.1030   20.2610 C   0  0  0  0  0  2  0  0  0  0  0  0
  -29.6230  -16.6290   19.8840 C   0  0  0  0  0  2  0  0  0  0  0  0
  -30.0130  -15.7000   21.0580 C   0  0  0  0  0  2  0  0  0  0  0  0
  -30.6900  -14.4300   20.5170 C   0  0  0  0  0  0  0  0  0  0  0  0
  -30.3680  -12.2930   19.3520 C   0  0  0  0  0  2  0  0  0  0  0  0
  -29.4340  -12.5410   18.1480 C   0  0  0  0  0  2  0  0  0  0  0  0
  -27.9560  -12.4210   18.5660 C   0  0  0  0  0  2  0  0  0  0  0  0
  -27.6240  -13.2370   19.8450 C   0  0  0  0  0  3  0  0  0  0  0  0
  -28.6740  -12.9770   20.9480 C   0  0  0  0  0  2  0  0  0  0  0  0
  -30.0060  -13.2610   20.3950 N   0  0  0  0  0  0  0  0  0  0  0  0
  -31.8250  -14.5770   20.0540 O   0  0  0  0  0  0  0  0  0  0  0  0
  -25.2170  -13.8550   20.5210 C   0  0  0  0  0  0  0  0  0  0  0  0
  -24.1440  -13.0860   20.8860 C   0  0  0  0  0  0  0  0  0  0  0  0
  -24.6050  -11.7340   20.8710 C   0  0  0  0  0  0  0  0  0  0  0  0
  -26.2660  -12.9700   20.3110 N   0  0  0  0  0  0  0  0  0  0  0  0
  -25.8980  -11.6900   20.5760 N   0  0  0  0  0  0  0  0  0  0  0  0
  -23.8770  -10.4740   21.0660 C   0  0  0  0  0  0  0  0  0  0  0  0
  -24.3160   -9.5040   21.9940 C   0  0  0  0  0  3  0  0  0  0  0  0
  -23.5890   -8.3080   22.1760 C   0  0  0  0  0  3  0  0  0  0  0  0
  -22.4090   -8.0730   21.4320 C   0  0  0  0  0  0  0  0  0  0  0  0
  -21.9900   -9.0320   20.4930 C   0  0  0  0  0  3  0  0  0  0  0  0
  -22.7160  -10.2200   20.3080 C   0  0  0  0  0  3  0  0  0  0  0  0
  -21.6520   -6.9300   21.5250 O   0  0  0  0  0  0  0  0  0  0  0  0
  -21.6310   -6.1720   22.6670 C   0  0  0  0  0  0  0  0  0  0  0  0
  -21.2580   -6.7170   23.9150 C   0  0  0  0  0  3  0  0  0  0  0  0
  -21.1830   -5.8870   25.0520 C   0  0  0  0  0  3  0  0  0  0  0  0
  -21.4690   -4.5130   24.9410 C   0  0  0  0  0  0  0  0  0  0  0  0
  -21.8350   -3.9680   23.6980 C   0  0  0  0  0  3  0  0  0  0  0  0
  -21.9130   -4.7940   22.5640 C   0  0  0  0  0  0  0  0  0  0  0  0
  -22.2450   -4.2600   21.3640 F   0  0  0  0  0  0  0  0  0  0  0  0
  -21.3890   -3.7140   26.0300 F   0  0  0  0  0  0  0  0  0  0  0  0
  -22.7450  -13.5660   21.1420 C   0  0  0  0  0  0  0  0  0  0  0  0
  -22.0100  -12.8770   22.0090 N   0  0  0  0  0  0  0  0  0  0  0  0
  -22.3100  -14.5860   20.6090 O   0  0  0  0  0  0  0  0  0  0  0  0
  -22.3750  -12.0530   22.4630 H   0  0  0  0  0  0  0  0  0  0  0  0
  -21.0710  -13.1810   22.2260 H   0  0  0  0  0  0  0  0  0  0  0  0
  -25.3830  -15.2230   20.3340 N   0  0  0  0  0  0  0  0  0  0  0  0
  -24.6160  -15.8800   20.4330 H   0  0  0  0  0  0  0  0  0  0  0  0
  -26.2430  -15.6640   20.0340 H   0  0  0  0  0  0  0  0  0  0  0  0
  -30.8240  -27.6090   18.5240 C   0  0  0  0  0  2  0  0  0  0  0  0
  -30.5000  -28.0750   19.9560 C   0  0  0  0  0  2  0  0  0  0  0  0
  -29.6610  -27.0820   20.7850 C   0  0  0  0  0  2  0  0  0  0  0  0
  -28.4790  -26.6720   20.1030 O   0  0  0  0  0  0  0  0  0  0  0  0
  -24.6800  -31.8700   23.2220 C   0  0  0  0  0  0  0  0  0  0  0  0
  -27.3450  -27.4510   20.1650 C   0  0  0  0  0  0  0  0  0  0  0  0
  -23.4680  -30.4520   21.5920 C   0  0  0  0  0  3  0  0  0  0  0  0
  -24.9230  -28.9110   20.1750 C   0  0  0  0  0  0  0  0  0  0  0  0
  -25.9850  -30.8290   21.3800 C   0  0  0  0  0  2  0  0  0  0  0  0
  -26.0740  -29.4550   20.7560 C   0  0  0  0  0  0  0  0  0  0  0  0
  -27.2830  -28.7330   20.7600 C   0  0  0  0  0  3  0  0  0  0  0  0
  -26.1780  -26.9140   19.5820 C   0  0  0  0  0  3  0  0  0  0  0  0
  -24.9670  -27.6340   19.5870 C   0  0  0  0  0  3  0  0  0  0  0  0
  -23.6730  -29.7590   20.2170 C   0  0  0  0  0  2  0  0  0  0  0  0
  -24.7290  -31.0640   22.1240 N   0  0  0  0  0  0  0  0  0  0  0  0
  -23.6020  -32.1450   23.7660 O   0  0  0  0  0  0  0  0  0  0  0  0
  -22.8250  -29.4380   22.5630 C   0  0  0  0  0  0  0  0  0  0  0  0
  -21.5010  -29.2550   22.4420 N   0  0  0  0  0  0  0  0  0  0  0  0
  -23.5130  -28.8180   23.3790 O   0  0  0  0  0  0  0  0  0  0  0  0
  -21.0090  -29.8070   21.7530 H   0  0  0  0  0  0  0  0  0  0  0  0
  -18.1260  -28.0770   22.9590 C   0  0  0  0  0  0  0  0  0  0  0  0
  -20.6860  -28.3250   23.2210 C   0  0  0  0  0  3  0  0  0  0  0  0
  -20.7810  -26.8910   22.6500 C   0  0  0  0  0  2  0  0  0  0  0  0
  -19.6750  -26.5680   21.6410 C   0  0  0  0  0  2  0  0  0  0  0  0
  -18.2960  -26.7230   22.2900 C   0  0  0  0  0  2  0  0  0  0  0  0
  -19.2490  -28.8350   23.3810 C   0  0  0  0  0  0  0  0  0  0  0  0
  -19.0390  -30.1040   23.9650 C   0  0  0  0  0  3  0  0  0  0  0  0
  -17.7370  -30.6130   24.1300 C   0  0  0  0  0  3  0  0  0  0  0  0
  -16.6280  -29.8500   23.7270 C   0  0  0  0  0  3  0  0  0  0  0  0
  -16.8240  -28.5840   23.1460 C   0  0  0  0  0  3  0  0  0  0  0  0
  -25.9710  -32.5040   23.8320 C   0  0  0  0  0  3  0  0  0  0  0  0
  -26.5080  -31.7280   25.0960 C   0  0  1  0  0  0  0  0  0  0  0  0
  -25.4280  -31.4800   26.1760 C   0  0  0  0  0  1  0  0  0  0  0  0
  -27.0910  -30.3560   24.6870 C   0  0  0  0  0  1  0  0  0  0  0  0
  -27.6620  -32.5250   25.7490 C   0  0  0  0  0  1  0  0  0  0  0  0
  -25.6610  -33.8980   24.1690 N   0  0  0  0  0  0  0  0  0  0  0  0
  -25.9870  -34.9530   23.4090 C   0  0  0  0  0  0  0  0  0  0  0  0
  -26.6510  -34.8540   22.3740 O   0  0  0  0  0  0  0  0  0  0  0  0
  -25.0720  -34.0500   24.9740 H   0  0  0  0  0  0  0  0  0  0  0  0
  -24.2500  -36.7370   23.0660 C   0  0  0  0  0  1  0  0  0  0  0  0
  -25.4960  -36.3380   23.8720 C   0  0  0  0  0  3  0  0  0  0  0  0
  -27.6330  -37.2260   24.6930 C   0  0  0  0  0  1  0  0  0  0  0  0
  -26.5240  -37.3960   23.7570 N   0  0  0  0  0  0  0  0  0  0  0  0
  -26.1160  -38.3130   23.9110 H   0  0  0  0  0  0  0  0  0  0  0  0
  1  5  1  0
  1  2  1  0
  2 49  1  0
  2  4  1  0
  3  1  2  0
  5  6  1  0
  6  7  1  0
  7  8  1  0
  9  8  1  0
  9 10  1  0
 11 10  1  0
 11 12  1  0
 13 12  1  0
 14 19  1  0
 15 16  1  0
 15 14  1  0
 17 16  1  0
 17 24  1  0
 17 18  1  0
 19 13  1  0
 19 18  1  0
 20 13  2  0
 21 22  2  0
 22 41  1  0
 23 22  1  0
 23 26  1  0
 24 21  1  0
 24 25  1  0
 25 23  2  0
 26 27  1  0
 27 28  2  0
 29 32  1  0
 29 28  1  0
 30 29  2  0
 31 30  1  0
 31 26  2  0
 32 33  1  0
 33 34  1  0
 34 35  2  0
 36 35  1  0
 36 40  1  0
 37 36  2  0
 38 33  2  0
 38 37  1  0
 39 38  1  0
 41 42  1  0
 42 45  1  0
 42 44  1  0
 43 41  2  0
 46 47  1  0
 46 21  1  0
 48 46  1  0
 49 50  1  0
 50 51  1  0
 52 54  1  0
 52 51  1  0
 53 64  2  0
 54 59  1  0
 55 63  1  0
 55 65  1  0
 56 62  1  0
 56 58  1  0
 57 63  1  0
 58 59  2  0
 58 57  1  0
 60 61  1  0
 60 54  2  0
 61 56  2  0
 62 55  1  0
 63 53  1  0
 65 67  2  0
 66 65  1  0
 68 66  1  0
 69 78  2  0
 69 74  1  0
 70 66  1  0
 70 74  1  0
 71 70  1  0
 72 73  1  0
 72 71  1  0
 73 69  1  0
 74 75  2  0
 75 76  1  0
 77 76  2  0
 78 77  1  0
 79 53  1  0
 79 84  1  0
 79 80  1  0
 80 83  1  1
 80 81  1  0
 82 80  1  0
 84 87  1  0
 85 89  1  0
 85 84  1  0
 86 85  2  0
 89 88  1  0
 91 89  1  0
 91 92  1  0
 91 90  1  0
M  ISO  4  12 100  13 100  51 101  52 101
M  END
>  <TORSDO>  (68) 
F 27

>  <SCORE>  (68) 
-11.491

>  <name>  (68) 
67

>  <ligand_id>  (68) 
67

>  <original_smiles>  (68) 
[H]c1c([H])c([H])c2c(c1[H])C([H])([H])C([H])([H])C([H])([H])C2([H])N([H])C(=O)C1([H])N(C(=O)C([H])(N([H])C(=O)C([H])(N([H])C([H])([H])[H])C([H])([H])[H])C(C([H])([H])[H])(C([H])([H])[H])C([H])([H])[H])C([H])([H])c2c([H])c(OC([H])([H])C([H])([H])C([H])([H])N([H])C(=O)C([H])([H])C([H])([H])C([H])([H])C([H])([H])C([H])([H])C([H])([H])C([H])([H])C([H])([H])C(=O)N3C([H])([H])C([H])([H])C([H])([H])C([H])(n4nc(-c5c([H])c([H])c(Oc6c([H])c([H])c(F)c([H])c6F)c([H])c5[H])c(C(=O)N([H])[H])c4N([H])[H])C3([H])[H])c([H])c([H])c2C1([H])[H]

>  <smiles>  (68) 
[H]c1c([H])c([H])c2c(c1[H])C([H])([H])C([H])([H])C([H])([H])C2([H])N([H])C(=O)C1([H])N(C(=O)C([H])(N([H])C(=O)C([H])(N([H])C([H])([H])[H])C([H])([H])[H])C(C([H])([H])[H])(C([H])([H])[H])C([H])([H])[H])C([H])([H])c2c([H])c(OC([H])([H])C([H])([H])C([H])([H])N([H])C(=O)C([H])([H])C([H])([H])C([H])([H])C([H])([H])C([H])([H])C([H])([H])C([H])([H])C([H])([H])C(=O)N3C([H])([H])C([H])([H])C([H])([H])C([H])(n4nc(-c5c([H])c([H])c(Oc6c([H])c([H])c(F)c([H])c6F)c([H])c5[H])c(C(=O)N([H])[H])c4N([H])[H])C3([H])[H])c([H])c([H])c2C1([H])[H]

$$$$
68:0:0
     RDKit          3D

 91 98  0  0  1  0  0  0  0  0999 V2000
  -31.3730  -24.8300   19.6920 C   0  0  0  0  0  2  0  0  0  0  0  0
  -28.9270  -24.6440   19.0500 C   0  0  0  0  0  3  0  0  0  0  0  0
  -30.2240  -24.3760   18.7950 C   0  0  0  0  0  0  0  0  0  0  0  0
  -30.6420  -23.6110   17.5520 C   0  0  0  0  0  1  0  0  0  0  0  0
  -28.3830  -25.3680   20.2690 C   0  0  0  0  0  2  0  0  0  0  0  0
  -28.4130  -26.7830   20.0880 O   0  0  0  0  0  0  0  0  0  0  0  0
  -24.6100  -31.8870   23.2260 C   0  0  0  0  0  0  0  0  0  0  0  0
  -27.2170  -27.4620   20.1080 C   0  0  0  0  0  0  0  0  0  0  0  0
  -23.3800  -30.4860   21.5980 C   0  0  0  0  0  3  0  0  0  0  0  0
  -24.8160  -28.9470   20.1560 C   0  0  0  0  0  0  0  0  0  0  0  0
  -25.9030  -30.8450   21.3710 C   0  0  0  0  0  2  0  0  0  0  0  0
  -25.9780  -29.4770   20.7270 C   0  0  0  0  0  0  0  0  0  0  0  0
  -27.1820  -28.7410   20.6990 C   0  0  0  0  0  3  0  0  0  0  0  0
  -26.0390  -26.9380   19.5290 C   0  0  0  0  0  3  0  0  0  0  0  0
  -24.8390  -27.6750   19.5550 C   0  0  0  0  0  3  0  0  0  0  0  0
  -23.5730  -29.8040   20.2160 C   0  0  0  0  0  2  0  0  0  0  0  0
  -24.6500  -31.0880   22.1230 N   0  0  0  0  0  0  0  0  0  0  0  0
  -23.5350  -32.1620   23.7780 O   0  0  0  0  0  0  0  0  0  0  0  0
  -22.7410  -29.4650   22.5660 C   0  0  0  0  0  0  0  0  0  0  0  0
  -21.4160  -29.2850   22.4530 N   0  0  0  0  0  0  0  0  0  0  0  0
  -23.4350  -28.8360   23.3700 O   0  0  0  0  0  0  0  0  0  0  0  0
  -20.9180  -29.8470   21.7760 H   0  0  0  0  0  0  0  0  0  0  0  0
  -18.0460  -28.0930   22.9740 C   0  0  0  0  0  0  0  0  0  0  0  0
  -20.6050  -28.3480   23.2310 C   0  0  0  0  0  3  0  0  0  0  0  0
  -20.7030  -26.9160   22.6560 C   0  0  0  0  0  2  0  0  0  0  0  0
  -19.5940  -26.5930   21.6480 C   0  0  0  0  0  2  0  0  0  0  0  0
  -18.2170  -26.7410   22.3010 C   0  0  0  0  0  2  0  0  0  0  0  0
  -19.1680  -28.8550   23.3950 C   0  0  0  0  0  0  0  0  0  0  0  0
  -18.9550  -30.1210   23.9800 C   0  0  0  0  0  3  0  0  0  0  0  0
  -17.6510  -30.6260   24.1510 C   0  0  0  0  0  3  0  0  0  0  0  0
  -16.5450  -29.8610   23.7470 C   0  0  0  0  0  3  0  0  0  0  0  0
  -16.7420  -28.5960   23.1650 C   0  0  0  0  0  3  0  0  0  0  0  0
  -25.9050  -32.5130   23.8300 C   0  0  0  0  0  3  0  0  0  0  0  0
  -26.4480  -31.7310   25.0880 C   0  0  1  0  0  0  0  0  0  0  0  0
  -25.3750  -31.4820   26.1750 C   0  0  0  0  0  1  0  0  0  0  0  0
  -27.0240  -30.3600   24.6680 C   0  0  0  0  0  1  0  0  0  0  0  0
  -27.6090  -32.5210   25.7370 C   0  0  0  0  0  1  0  0  0  0  0  0
  -25.6010  -33.9080   24.1760 N   0  0  0  0  0  0  0  0  0  0  0  0
  -25.9240  -34.9670   23.4220 C   0  0  0  0  0  0  0  0  0  0  0  0
  -26.5800  -34.8720   22.3790 O   0  0  0  0  0  0  0  0  0  0  0  0
  -25.0190  -34.0570   24.9880 H   0  0  0  0  0  0  0  0  0  0  0  0
  -24.1860  -36.7580   23.1060 C   0  0  0  0  0  1  0  0  0  0  0  0
  -25.4410  -36.3510   23.8960 C   0  0  0  0  0  3  0  0  0  0  0  0
  -27.5880  -37.2290   24.6990 C   0  0  0  0  0  1  0  0  0  0  0  0
  -26.4700  -37.4070   23.7760 N   0  0  0  0  0  0  0  0  0  0  0  0
  -26.0660  -38.3240   23.9410 H   0  0  0  0  0  0  0  0  0  0  0  0
  -32.1070  -23.7110   20.4590 C   0  0  0  0  0  2  0  0  0  0  0  0
  -31.2610  -22.9480   21.4970 C   0  0  0  0  0  2  0  0  0  0  0  0
  -30.4490  -21.7790   20.9060 C   0  0  0  0  0  2  0  0  0  0  0  0
  -30.8740  -20.3980   21.4380 C   0  0  0  0  0  2  0  0  0  0  0  0
  -30.2100  -19.2580   20.6490 C   0  0  0  0  0  2  0  0  0  0  0  0
  -30.4720  -17.8560   21.2340 C   0  0  0  0  0  2  0  0  0  0  0  0
  -29.8660  -16.7650   20.3370 C   0  0  0  0  0  2  0  0  0  0  0  0
  -30.6470  -14.4240   20.5050 C   0  0  0  0  0  0  0  0  0  0  0  0
  -30.3570  -12.2710   19.3650 C   0  0  0  0  0  2  0  0  0  0  0  0
  -29.4160  -12.5160   18.1670 C   0  0  0  0  0  2  0  0  0  0  0  0
  -27.9390  -12.3920   18.5910 C   0  0  0  0  0  2  0  0  0  0  0  0
  -27.6110  -13.2100   19.8690 C   0  0  0  0  0  3  0  0  0  0  0  0
  -28.6640  -12.9430   20.9730 C   0  0  0  0  0  2  0  0  0  0  0  0
  -29.9980  -13.2350   20.4160 N   0  0  0  0  0  0  0  0  0  0  0  0
  -31.7620  -14.6360   20.0190 O   0  0  0  0  0  0  0  0  0  0  0  0
  -29.8750  -15.4300   20.9360 N   0  0  0  0  0  0  0  0  0  0  0  0
  -29.0180  -15.1440   21.3860 H   0  0  0  0  0  0  0  0  0  0  0  0
  -25.2080  -13.8320   20.5590 C   0  0  0  0  0  0  0  0  0  0  0  0
  -24.1360  -13.0620   20.9280 C   0  0  0  0  0  0  0  0  0  0  0  0
  -24.5920  -11.7100   20.9020 C   0  0  0  0  0  0  0  0  0  0  0  0
  -26.2520  -12.9450   20.3380 N   0  0  0  0  0  0  0  0  0  0  0  0
  -25.8820  -11.6640   20.5970 N   0  0  0  0  0  0  0  0  0  0  0  0
  -23.8610  -10.4510   21.0960 C   0  0  0  0  0  0  0  0  0  0  0  0
  -24.3120   -9.4670   22.0040 C   0  0  0  0  0  3  0  0  0  0  0  0
  -23.5840   -8.2720   22.1860 C   0  0  0  0  0  3  0  0  0  0  0  0
  -22.3900   -8.0530   21.4580 C   0  0  0  0  0  0  0  0  0  0  0  0
  -21.9570   -9.0240   20.5390 C   0  0  0  0  0  3  0  0  0  0  0  0
  -22.6860  -10.2110   20.3560 C   0  0  0  0  0  3  0  0  0  0  0  0
  -21.6310   -6.9100   21.5480 O   0  0  0  0  0  0  0  0  0  0  0  0
  -21.6330   -6.1330   22.6790 C   0  0  0  0  0  0  0  0  0  0  0  0
  -21.2970   -6.6590   23.9440 C   0  0  0  0  0  3  0  0  0  0  0  0
  -21.2450   -5.8100   25.0690 C   0  0  0  0  0  3  0  0  0  0  0  0
  -21.5180   -4.4360   24.9270 C   0  0  0  0  0  0  0  0  0  0  0  0
  -21.8470   -3.9090   23.6660 C   0  0  0  0  0  3  0  0  0  0  0  0
  -21.9020   -4.7550   22.5450 C   0  0  0  0  0  0  0  0  0  0  0  0
  -22.1980   -4.2380   21.3280 F   0  0  0  0  0  0  0  0  0  0  0  0
  -21.4610   -3.6200   26.0060 F   0  0  0  0  0  0  0  0  0  0  0  0
  -22.7390  -13.5440   21.1980 C   0  0  0  0  0  0  0  0  0  0  0  0
  -22.0120  -12.8540   22.0700 N   0  0  0  0  0  0  0  0  0  0  0  0
  -22.3000  -14.5660   20.6720 O   0  0  0  0  0  0  0  0  0  0  0  0
  -22.3810  -12.0290   22.5200 H   0  0  0  0  0  0  0  0  0  0  0  0
  -21.0730  -13.1530   22.2920 H   0  0  0  0  0  0  0  0  0  0  0  0
  -25.3770  -15.2000   20.3740 N   0  0  0  0  0  0  0  0  0  0  0  0
  -24.6140  -15.8600   20.4760 H   0  0  0  0  0  0  0  0  0  0  0  0
  -26.2290  -15.6290   20.0350 H   0  0  0  0  0  0  0  0  0  0  0  0
  1 47  1  0
  2  5  1  0
  3  2  2  0
  3  1  1  0
  4  3  1  0
  6  8  1  0
  6  5  1  0
  7 18  2  0
  8 13  1  0
  9 17  1  0
  9 19  1  0
 10 16  1  0
 10 12  1  0
 11 17  1  0
 12 11  1  0
 13 12  2  0
 14 15  1  0
 14  8  2  0
 15 10  2  0
 16  9  1  0
 17  7  1  0
 19 21  2  0
 20 19  1  0
 22 20  1  0
 23 32  2  0
 23 28  1  0
 24 20  1  0
 24 28  1  0
 25 24  1  0
 26 27  1  0
 26 25  1  0
 27 23  1  0
 28 29  2  0
 29 30  1  0
 31 30  2  0
 32 31  1  0
 33  7  1  0
 33 38  1  0
 33 34  1  0
 34 37  1  1
 34 35  1  0
 36 34  1  0
 38 41  1  0
 39 43  1  0
 39 38  1  0
 40 39  2  0
 43 42  1  0
 45 43  1  0
 45 46  1  0
 45 44  1  0
 47 48  1  0
 49 50  1  0
 49 48  1  0
 51 52  1  0
 51 50  1  0
 53 62  1  0
 53 52  1  0
 54 62  1  0
 55 60  1  0
 56 57  1  0
 56 55  1  0
 58 57  1  0
 58 67  1  0
 58 59  1  0
 60 54  1  0
 60 59  1  0
 61 54  2  0
 62 63  1  0
 64 65  2  0
 65 84  1  0
 66 65  1  0
 66 69  1  0
 67 64  1  0
 67 68  1  0
 68 66  2  0
 69 70  1  0
 70 71  2  0
 72 75  1  0
 72 71  1  0
 73 72  2  0
 74 73  1  0
 74 69  2  0
 75 76  1  0
 76 77  1  0
 77 78  2  0
 79 78  1  0
 79 83  1  0
 80 79  2  0
 81 76  2  0
 81 80  1  0
 82 81  1  0
 84 85  1  0
 85 88  1  0
 85 87  1  0
 86 84  2  0
 89 90  1  0
 89 64  1  0
 91 89  1  0
M  ISO  4   5 101   6 101  54 100  62 100
M  END
>  <TORSDO>  (69) 
F 25

>  <SCORE>  (69) 
-11.813

>  <name>  (69) 
68

>  <ligand_id>  (69) 
68

>  <original_smiles>  (69) 
[H]C(=C(C([H])([H])[H])C([H])([H])C([H])([H])C([H])([H])C([H])([H])C([H])([H])C([H])([H])C([H])([H])C([H])([H])N([H])C(=O)N1C([H])([H])C([H])([H])C([H])([H])C([H])(n2nc(-c3c([H])c([H])c(Oc4c([H])c([H])c(F)c([H])c4F)c([H])c3[H])c(C(=O)N([H])[H])c2N([H])[H])C1([H])[H])C([H])([H])Oc1c([H])c([H])c2c(c1[H])C([H])([H])N(C(=O)C([H])(N([H])C(=O)C([H])(N([H])C([H])([H])[H])C([H])([H])[H])C(C([H])([H])[H])(C([H])([H])[H])C([H])([H])[H])C([H])(C(=O)N([H])C1([H])c3c([H])c([H])c([H])c([H])c3C([H])([H])C([H])([H])C1([H])[H])C2([H])[H]

>  <smiles>  (69) 
[H]C(=C(C([H])([H])[H])C([H])([H])C([H])([H])C([H])([H])C([H])([H])C([H])([H])C([H])([H])C([H])([H])C([H])([H])N([H])C(=O)N1C([H])([H])C([H])([H])C([H])([H])C([H])(n2nc(-c3c([H])c([H])c(Oc4c([H])c([H])c(F)c([H])c4F)c([H])c3[H])c(C(=O)N([H])[H])c2N([H])[H])C1([H])[H])C([H])([H])Oc1c([H])c([H])c2c(c1[H])C([H])([H])N(C(=O)C([H])(N([H])C(=O)C([H])(N([H])C([H])([H])[H])C([H])([H])[H])C(C([H])([H])[H])(C([H])([H])[H])C([H])([H])[H])C([H])(C(=O)N([H])C1([H])c3c([H])c([H])c([H])c([H])c3C([H])([H])C([H])([H])C1([H])[H])C2([H])[H]

$$$$
69:0:0
     RDKit          3D

 92 99  0  0  1  0  0  0  0  0999 V2000
  -31.1760  -25.9770   23.6650 C   0  0  0  0  0  2  0  0  0  0  0  0
  -30.0940  -27.0780   23.5830 C   0  0  0  0  0  3  0  0  0  0  0  0
  -30.7010  -28.4830   23.4820 C   0  0  0  0  0  3  0  0  0  0  0  0
  -31.6820  -28.7080   22.7680 O   0  0  0  0  0  0  0  0  0  0  0  0
  -29.0160  -26.8260   22.4950 C   0  0  0  0  0  2  0  0  0  0  0  0
  -29.4520  -27.0120   21.0160 C   0  0  0  0  0  2  0  0  0  0  0  0
  -28.3960  -26.7070   20.0980 O   0  0  0  0  0  0  0  0  0  0  0  0
  -24.6070  -31.8700   23.2110 C   0  0  0  0  0  0  0  0  0  0  0  0
  -27.2610  -27.4910   20.1080 C   0  0  0  0  0  0  0  0  0  0  0  0
  -23.3930  -30.4900   21.5490 C   0  0  0  0  0  3  0  0  0  0  0  0
  -24.8450  -28.9630   20.1130 C   0  0  0  0  0  0  0  0  0  0  0  0
  -25.9090  -30.8640   21.3460 C   0  0  0  0  0  2  0  0  0  0  0  0
  -25.9960  -29.5000   20.7010 C   0  0  0  0  0  0  0  0  0  0  0  0
  -27.2030  -28.7790   20.6910 C   0  0  0  0  0  3  0  0  0  0  0  0
  -26.0970  -26.9650   19.5090 C   0  0  0  0  0  3  0  0  0  0  0  0
  -24.8890  -27.6910   19.5110 C   0  0  0  0  0  3  0  0  0  0  0  0
  -23.5990  -29.8160   20.1640 C   0  0  0  0  0  2  0  0  0  0  0  0
  -24.6540  -31.0870   22.0960 N   0  0  0  0  0  0  0  0  0  0  0  0
  -23.5290  -32.1410   23.7560 O   0  0  0  0  0  0  0  0  0  0  0  0
  -22.7380  -29.4650   22.5010 C   0  0  0  0  0  0  0  0  0  0  0  0
  -21.4110  -29.3020   22.3770 N   0  0  0  0  0  0  0  0  0  0  0  0
  -23.4190  -28.8200   23.3030 O   0  0  0  0  0  0  0  0  0  0  0  0
  -20.9260  -29.8760   21.7020 H   0  0  0  0  0  0  0  0  0  0  0  0
  -18.0260  -28.1360   22.8490 C   0  0  0  0  0  0  0  0  0  0  0  0
  -20.5840  -28.3640   23.1340 C   0  0  0  0  0  3  0  0  0  0  0  0
  -20.6740  -26.9380   22.5430 C   0  0  0  0  0  2  0  0  0  0  0  0
  -19.5740  -26.6370   21.5210 C   0  0  0  0  0  2  0  0  0  0  0  0
  -18.1910  -26.7910   22.1610 C   0  0  0  0  0  2  0  0  0  0  0  0
  -19.1510  -28.8810   23.2920 C   0  0  0  0  0  0  0  0  0  0  0  0
  -18.9450  -30.1420   23.8930 C   0  0  0  0  0  3  0  0  0  0  0  0
  -17.6460  -30.6570   24.0560 C   0  0  0  0  0  3  0  0  0  0  0  0
  -16.5350  -29.9080   23.6310 C   0  0  0  0  0  3  0  0  0  0  0  0
  -16.7250  -28.6490   23.0340 C   0  0  0  0  0  3  0  0  0  0  0  0
  -25.8990  -32.4840   23.8390 C   0  0  0  0  0  3  0  0  0  0  0  0
  -25.5860  -33.8630   24.2340 N   0  0  0  0  0  0  0  0  0  0  0  0
  -25.9010  -34.9480   23.5140 C   0  0  0  0  0  0  0  0  0  0  0  0
  -26.5590  -34.8930   22.4710 O   0  0  0  0  0  0  0  0  0  0  0  0
  -25.0020  -33.9800   25.0490 H   0  0  0  0  0  0  0  0  0  0  0  0
  -24.1480  -36.7320   23.2650 C   0  0  0  0  0  1  0  0  0  0  0  0
  -25.4100  -36.3120   24.0350 C   0  0  0  0  0  3  0  0  0  0  0  0
  -27.5580  -37.1820   24.8470 C   0  0  0  0  0  1  0  0  0  0  0  0
  -26.4290  -37.3800   23.9410 N   0  0  0  0  0  0  0  0  0  0  0  0
  -26.0180  -38.2880   24.1390 H   0  0  0  0  0  0  0  0  0  0  0  0
  -26.4470  -31.6590   25.0680 C   0  0  1  0  0  0  0  0  0  0  0  0
  -25.3780  -31.3660   26.1470 C   0  0  0  0  0  1  0  0  0  0  0  0
  -27.0320  -30.3070   24.5940 C   0  0  0  0  0  1  0  0  0  0  0  0
  -27.6040  -32.4320   25.7440 C   0  0  0  0  0  1  0  0  0  0  0  0
  -30.6400  -24.6740   24.2780 C   0  0  0  0  0  2  0  0  0  0  0  0
  -31.6630  -23.5320   24.2590 C   0  0  0  0  0  2  0  0  0  0  0  0
  -31.0040  -22.1890   24.6030 C   0  0  0  0  0  2  0  0  0  0  0  0
  -31.8500  -20.9840   24.1760 C   0  0  0  0  0  2  0  0  0  0  0  0
  -31.0410  -19.6810   24.2150 C   0  0  0  0  0  2  0  0  0  0  0  0
  -31.7070  -18.5570   23.4140 C   0  0  0  0  0  2  0  0  0  0  0  0
  -30.7600  -17.3730   23.1900 C   0  0  0  0  0  2  0  0  0  0  0  0
  -31.3080  -16.3930   22.1470 C   0  0  0  0  0  2  0  0  0  0  0  0
  -30.3180  -15.2550   21.8430 C   0  0  0  0  0  2  0  0  0  0  0  0
  -30.7710  -14.3320   20.7030 C   0  0  0  0  0  0  0  0  0  0  0  0
  -30.4160  -12.2800   19.3750 C   0  0  0  0  0  2  0  0  0  0  0  0
  -29.4780  -12.5300   18.1810 C   0  0  0  0  0  2  0  0  0  0  0  0
  -28.0030  -12.3900   18.6020 C   0  0  0  0  0  2  0  0  0  0  0  0
  -27.6690  -13.2010   19.8820 C   0  0  0  0  0  3  0  0  0  0  0  0
  -28.7100  -12.9270   20.9890 C   0  0  0  0  0  2  0  0  0  0  0  0
  -30.0490  -13.2140   20.4460 N   0  0  0  0  0  0  0  0  0  0  0  0
  -31.7870  -14.6260   20.0640 O   0  0  0  0  0  0  0  0  0  0  0  0
  -25.2620  -13.8160   20.5680 C   0  0  0  0  0  0  0  0  0  0  0  0
  -24.1860  -13.0450   20.9170 C   0  0  0  0  0  0  0  0  0  0  0  0
  -24.6400  -11.6910   20.8730 C   0  0  0  0  0  0  0  0  0  0  0  0
  -26.3070  -12.9320   20.3410 N   0  0  0  0  0  0  0  0  0  0  0  0
  -25.9330  -11.6480   20.5770 N   0  0  0  0  0  0  0  0  0  0  0  0
  -23.9070  -10.4300   21.0410 C   0  0  0  0  0  0  0  0  0  0  0  0
  -24.3620   -9.4210   21.9190 C   0  0  0  0  0  3  0  0  0  0  0  0
  -23.6290   -8.2250   22.0760 C   0  0  0  0  0  3  0  0  0  0  0  0
  -22.4270   -8.0290   21.3550 C   0  0  0  0  0  0  0  0  0  0  0  0
  -21.9910   -9.0260   20.4650 C   0  0  0  0  0  3  0  0  0  0  0  0
  -22.7240  -10.2140   20.3060 C   0  0  0  0  0  3  0  0  0  0  0  0
  -21.6630   -6.8880   21.4240 O   0  0  0  0  0  0  0  0  0  0  0  0
  -21.6850   -6.0740   22.5280 C   0  0  0  0  0  0  0  0  0  0  0  0
  -21.4010   -6.5640   23.8220 C   0  0  0  0  0  3  0  0  0  0  0  0
  -21.3660   -5.6790   24.9180 C   0  0  0  0  0  3  0  0  0  0  0  0
  -21.6040   -4.3060   24.7230 C   0  0  0  0  0  0  0  0  0  0  0  0
  -21.8820   -3.8150   23.4350 C   0  0  0  0  0  3  0  0  0  0  0  0
  -21.9190   -4.6970   22.3400 C   0  0  0  0  0  0  0  0  0  0  0  0
  -22.1660   -4.2150   21.0980 F   0  0  0  0  0  0  0  0  0  0  0  0
  -21.5630   -3.4540   25.7740 F   0  0  0  0  0  0  0  0  0  0  0  0
  -22.7880  -13.5240   21.1830 C   0  0  0  0  0  0  0  0  0  0  0  0
  -22.0500  -12.8250   22.0380 N   0  0  0  0  0  0  0  0  0  0  0  0
  -22.3570  -14.5550   20.6670 O   0  0  0  0  0  0  0  0  0  0  0  0
  -22.4100  -11.9920   22.4790 H   0  0  0  0  0  0  0  0  0  0  0  0
  -21.1120  -13.1300   22.2570 H   0  0  0  0  0  0  0  0  0  0  0  0
  -25.4370  -15.1880   20.4090 N   0  0  0  0  0  0  0  0  0  0  0  0
  -24.6770  -15.8510   20.5220 H   0  0  0  0  0  0  0  0  0  0  0  0
  -26.3010  -15.6240   20.1110 H   0  0  0  0  0  0  0  0  0  0  0  0
  1 48  1  0
  2  5  1  0
  2  1  1  0
  3  2  1  0
  4  3  2  0
  6  5  1  0
  7  9  1  0
  7  6  1  0
  8 19  2  0
  9 14  1  0
 10 18  1  0
 10 20  1  0
 11 17  1  0
 11 13  1  0
 12 18  1  0
 13 12  1  0
 14 13  2  0
 15 16  1  0
 15  9  2  0
 16 11  2  0
 17 10  1  0
 18  8  1  0
 20 22  2  0
 21 20  1  0
 23 21  1  0
 24 33  2  0
 24 29  1  0
 25 21  1  0
 25 29  1  0
 26 25  1  0
 27 28  1  0
 27 26  1  0
 28 24  1  0
 29 30  2  0
 30 31  1  0
 32 31  2  0
 33 32  1  0
 34  8  1  0
 34 35  1  0
 34 44  1  0
 35 38  1  0
 36 40  1  0
 36 35  1  0
 37 36  2  0
 40 39  1  0
 42 40  1  0
 42 43  1  0
 42 41  1  0
 44 47  1  1
 44 45  1  0
 46 44  1  0
 49 48  1  0
 49 50  1  0
 51 52  1  0
 51 50  1  0
 53 52  1  0
 54 53  1  0
 55 54  1  0
 56 55  1  0
 57 56  1  0
 58 63  1  0
 59 60  1  0
 59 58  1  0
 61 60  1  0
 61 68  1  0
 61 62  1  0
 63 57  1  0
 63 62  1  0
 64 57  2  0
 65 66  2  0
 66 85  1  0
 67 66  1  0
 67 70  1  0
 68 65  1  0
 68 69  1  0
 69 67  2  0
 70 71  1  0
 71 72  2  0
 73 76  1  0
 73 72  1  0
 74 73  2  0
 75 74  1  0
 75 70  2  0
 76 77  1  0
 77 78  1  0
 78 79  2  0
 80 79  1  0
 80 84  1  0
 81 80  2  0
 82 77  2  0
 82 81  1  0
 83 82  1  0
 85 86  1  0
 86 89  1  0
 86 88  1  0
 87 85  2  0
 90 91  1  0
 90 65  1  0
 92 90  1  0
M  ISO  4   6 101   7 101  56 100  57 100
M  END
>  <TORSDO>  (70) 
F 29

>  <SCORE>  (70) 
-3.433

>  <name>  (70) 
69

>  <ligand_id>  (70) 
69

>  <original_smiles>  (70) 
[H]C(=O)C([H])(C([H])([H])C([H])([H])Oc1c([H])c([H])c2c(c1[H])C([H])([H])N(C(=O)C([H])(N([H])C(=O)C([H])(N([H])C([H])([H])[H])C([H])([H])[H])C(C([H])([H])[H])(C([H])([H])[H])C([H])([H])[H])C([H])(C(=O)N([H])C1([H])c3c([H])c([H])c([H])c([H])c3C([H])([H])C([H])([H])C1([H])[H])C2([H])[H])C([H])([H])C([H])([H])C([H])([H])C([H])([H])C([H])([H])C([H])([H])C([H])([H])C([H])([H])C([H])([H])C([H])([H])C(=O)N1C([H])([H])C([H])([H])C([H])([H])C([H])(n2nc(-c3c([H])c([H])c(Oc4c([H])c([H])c(F)c([H])c4F)c([H])c3[H])c(C(=O)N([H])[H])c2N([H])[H])C1([H])[H]

>  <smiles>  (70) 
[H]C(=O)C([H])(C([H])([H])C([H])([H])Oc1c([H])c([H])c2c(c1[H])C([H])([H])N(C(=O)C([H])(N([H])C(=O)C([H])(N([H])C([H])([H])[H])C([H])([H])[H])C(C([H])([H])[H])(C([H])([H])[H])C([H])([H])[H])C([H])(C(=O)N([H])C1([H])c3c([H])c([H])c([H])c([H])c3C([H])([H])C([H])([H])C1([H])[H])C2([H])[H])C([H])([H])C([H])([H])C([H])([H])C([H])([H])C([H])([H])C([H])([H])C([H])([H])C([H])([H])C([H])([H])C([H])([H])C(=O)N1C([H])([H])C([H])([H])C([H])([H])C([H])(n2nc(-c3c([H])c([H])c(Oc4c([H])c([H])c(F)c([H])c4F)c([H])c3[H])c(C(=O)N([H])[H])c2N([H])[H])C1([H])[H]

$$$$
70:0:0
     RDKit          3D

 92100  0  0  1  0  0  0  0  0999 V2000
  -28.0750  -24.2450   20.6310 C   0  0  0  0  0  3  0  0  0  0  0  0
  -26.0200  -24.2210   21.5250 C   0  0  0  0  0  3  0  0  0  0  0  0
  -26.8400  -23.5350   20.6710 C   0  0  0  0  0  0  0  0  0  0  0  0
  -27.9800  -25.3400   21.4500 C   0  0  0  0  0  0  0  0  0  0  0  0
  -26.1370  -26.3010   22.9220 C   0  0  0  0  0  1  0  0  0  0  0  0
  -26.7020  -25.3270   22.0020 N   0  0  0  0  0  0  0  0  0  0  0  0
  -26.3850  -22.3000   19.9860 C   0  0  0  0  0  0  0  0  0  0  0  0
  -25.1970  -21.9640   19.9440 O   0  0  0  0  0  0  0  0  0  0  0  0
  -27.4500  -21.4100   19.3460 C   0  0  0  0  0  2  0  0  0  0  0  0
  -28.1350  -20.5110   20.3880 C   0  0  0  0  0  2  0  0  0  0  0  0
  -28.8180  -19.2920   19.7600 C   0  0  0  0  0  2  0  0  0  0  0  0
  -29.4410  -18.3740   20.8200 C   0  0  0  0  0  2  0  0  0  0  0  0
  -29.9400  -17.0560   20.2190 C   0  0  0  0  0  2  0  0  0  0  0  0
  -30.4450  -16.0590   21.2760 C   0  0  0  0  0  2  0  0  0  0  0  0
  -31.0640  -14.8280   20.6040 C   0  0  0  0  0  0  0  0  0  0  0  0
  -30.8650  -12.5420   19.6970 C   0  0  0  0  0  2  0  0  0  0  0  0
  -29.9750  -12.5450   18.4410 C   0  0  0  0  0  2  0  0  0  0  0  0
  -28.4910  -12.3930   18.8260 C   0  0  0  0  0  2  0  0  0  0  0  0
  -28.0610  -13.3840   19.9390 C   0  0  0  0  0  3  0  0  0  0  0  0
  -29.0690  -13.3600   21.1090 C   0  0  0  0  0  2  0  0  0  0  0  0
  -30.4140  -13.6330   20.5750 N   0  0  0  0  0  0  0  0  0  0  0  0
  -32.1470  -15.0060   20.0400 O   0  0  0  0  0  0  0  0  0  0  0  0
  -25.6520  -14.0130   20.6060 C   0  0  0  0  0  0  0  0  0  0  0  0
  -24.5710  -13.2470   20.9530 C   0  0  0  0  0  0  0  0  0  0  0  0
  -25.0230  -11.8930   20.9260 C   0  0  0  0  0  0  0  0  0  0  0  0
  -26.6950  -13.1230   20.3930 N   0  0  0  0  0  0  0  0  0  0  0  0
  -26.3180  -11.8430   20.6400 N   0  0  0  0  0  0  0  0  0  0  0  0
  -24.2860  -10.6330   21.1000 C   0  0  0  0  0  0  0  0  0  0  0  0
  -24.6500   -9.6940   22.0890 C   0  0  0  0  0  3  0  0  0  0  0  0
  -23.9150   -8.4990   22.2490 C   0  0  0  0  0  3  0  0  0  0  0  0
  -22.8020   -8.2350   21.4150 C   0  0  0  0  0  0  0  0  0  0  0  0
  -22.4580   -9.1620   20.4160 C   0  0  0  0  0  3  0  0  0  0  0  0
  -23.1940  -10.3490   20.2570 C   0  0  0  0  0  3  0  0  0  0  0  0
  -22.0480   -7.0890   21.4780 O   0  0  0  0  0  0  0  0  0  0  0  0
  -21.8360   -6.4300   22.6610 C   0  0  0  0  0  0  0  0  0  0  0  0
  -21.2260   -7.0640   23.7650 C   0  0  0  0  0  3  0  0  0  0  0  0
  -20.9630   -6.3330   24.9400 C   0  0  0  0  0  3  0  0  0  0  0  0
  -21.3010   -4.9680   25.0120 C   0  0  0  0  0  0  0  0  0  0  0  0
  -21.9060   -4.3340   23.9120 C   0  0  0  0  0  3  0  0  0  0  0  0
  -22.1680   -5.0620   22.7390 C   0  0  0  0  0  0  0  0  0  0  0  0
  -22.7330   -4.4430   21.6740 F   0  0  0  0  0  0  0  0  0  0  0  0
  -21.0420   -4.2620   26.1370 F   0  0  0  0  0  0  0  0  0  0  0  0
  -23.1720  -13.7330   21.2020 C   0  0  0  0  0  0  0  0  0  0  0  0
  -22.4330  -13.0460   22.0660 N   0  0  0  0  0  0  0  0  0  0  0  0
  -22.7430  -14.7550   20.6690 O   0  0  0  0  0  0  0  0  0  0  0  0
  -22.7970  -12.2210   22.5180 H   0  0  0  0  0  0  0  0  0  0  0  0
  -21.4920  -13.3490   22.2770 H   0  0  0  0  0  0  0  0  0  0  0  0
  -25.8340  -15.3830   20.4360 N   0  0  0  0  0  0  0  0  0  0  0  0
  -25.0860  -16.0560   20.5570 H   0  0  0  0  0  0  0  0  0  0  0  0
  -26.7070  -15.8130   20.1600 H   0  0  0  0  0  0  0  0  0  0  0  0
  -29.0030  -26.4110   21.7480 C   0  0  0  0  0  2  0  0  0  0  0  0
  -28.9930  -27.3620   20.6790 O   0  0  0  0  0  0  0  0  0  0  0  0
  -24.9400  -32.2360   23.8640 C   0  0  0  0  0  0  0  0  0  0  0  0
  -27.8500  -28.1180   20.6310 C   0  0  0  0  0  0  0  0  0  0  0  0
  -23.8750  -30.9760   22.0200 C   0  0  0  0  0  3  0  0  0  0  0  0
  -25.4490  -29.5840   20.5770 C   0  0  0  0  0  0  0  0  0  0  0  0
  -26.3990  -31.3750   22.0410 C   0  0  0  0  0  2  0  0  0  0  0  0
  -26.5490  -30.0690   21.2950 C   0  0  0  0  0  0  0  0  0  0  0  0
  -27.7560  -29.3430   21.3250 C   0  0  0  0  0  3  0  0  0  0  0  0
  -26.7460  -27.6430   19.8970 C   0  0  0  0  0  3  0  0  0  0  0  0
  -25.5390  -28.3680   19.8750 C   0  0  0  0  0  3  0  0  0  0  0  0
  -24.1920  -30.4230   20.6040 C   0  0  0  0  0  2  0  0  0  0  0  0
  -25.0860  -31.5370   22.7040 N   0  0  0  0  0  0  0  0  0  0  0  0
  -23.8190  -32.4550   24.3430 O   0  0  0  0  0  0  0  0  0  0  0  0
  -23.1690  -29.8700   22.8360 C   0  0  0  0  0  0  0  0  0  0  0  0
  -21.8560  -29.7090   22.6100 N   0  0  0  0  0  0  0  0  0  0  0  0
  -23.8020  -29.1680   23.6300 O   0  0  0  0  0  0  0  0  0  0  0  0
  -21.4090  -30.3270   21.9460 H   0  0  0  0  0  0  0  0  0  0  0  0
  -18.4400  -28.5620   22.8610 C   0  0  0  0  0  0  0  0  0  0  0  0
  -20.9930  -28.7080   23.2340 C   0  0  0  0  0  3  0  0  0  0  0  0
  -21.0770  -27.3570   22.4890 C   0  0  0  0  0  2  0  0  0  0  0  0
  -19.9990  -27.1950   21.4110 C   0  0  0  0  0  2  0  0  0  0  0  0
  -18.6030  -27.3000   22.0330 C   0  0  0  0  0  2  0  0  0  0  0  0
  -19.5640  -29.2320   23.4130 C   0  0  0  0  0  0  0  0  0  0  0  0
  -19.3610  -30.4220   24.1440 C   0  0  0  0  0  3  0  0  0  0  0  0
  -18.0640  -30.9400   24.3310 C   0  0  0  0  0  3  0  0  0  0  0  0
  -16.9540  -30.2640   23.7980 C   0  0  0  0  0  3  0  0  0  0  0  0
  -17.1420  -29.0760   23.0690 C   0  0  0  0  0  3  0  0  0  0  0  0
  -26.1720  -32.8150   24.6290 C   0  0  0  0  0  3  0  0  0  0  0  0
  -25.9120  -34.2400   24.8700 N   0  0  0  0  0  0  0  0  0  0  0  0
  -26.3930  -35.2390   24.1180 C   0  0  0  0  0  0  0  0  0  0  0  0
  -27.1730  -35.0550   23.1790 O   0  0  0  0  0  0  0  0  0  0  0  0
  -25.2360  -34.4600   25.5870 H   0  0  0  0  0  0  0  0  0  0  0  0
  -24.8280  -37.1040   23.4920 C   0  0  0  0  0  1  0  0  0  0  0  0
  -25.9370  -36.6690   24.4620 C   0  0  0  0  0  3  0  0  0  0  0  0
  -28.0050  -37.4720   25.5140 C   0  0  0  0  0  1  0  0  0  0  0  0
  -27.0350  -37.6580   24.4380 N   0  0  0  0  0  0  0  0  0  0  0  0
  -26.6690  -38.6030   24.5000 H   0  0  0  0  0  0  0  0  0  0  0  0
  -26.4730  -32.0640   25.9830 C   0  0  1  0  0  0  0  0  0  0  0  0
  -25.2310  -31.8970   26.8890 C   0  0  0  0  0  1  0  0  0  0  0  0
  -27.0510  -30.6550   25.7100 C   0  0  0  0  0  1  0  0  0  0  0  0
  -27.5480  -32.8360   26.7840 C   0  0  0  0  0  1  0  0  0  0  0  0
  1  3  1  0
  1  4  2  0
  2  6  1  0
  3  2  2  0
  4 51  1  0
  4  6  1  0
  6  5  1  0
  7  3  1  0
  8  7  2  0
  9  7  1  0
  9 10  1  0
 11 10  1  0
 11 12  1  0
 13 12  1  0
 13 14  1  0
 15 14  1  0
 16 21  1  0
 17 18  1  0
 17 16  1  0
 19 18  1  0
 19 26  1  0
 19 20  1  0
 21 15  1  0
 21 20  1  0
 22 15  2  0
 23 24  2  0
 24 43  1  0
 25 24  1  0
 25 28  1  0
 26 23  1  0
 26 27  1  0
 27 25  2  0
 28 29  1  0
 29 30  2  0
 31 34  1  0
 31 30  1  0
 32 31  2  0
 33 32  1  0
 33 28  2  0
 34 35  1  0
 35 40  2  0
 35 36  1  0
 36 37  2  0
 37 38  1  0
 38 42  1  0
 39 38  2  0
 40 39  1  0
 41 40  1  0
 43 44  1  0
 44 47  1  0
 44 46  1  0
 45 43  2  0
 48 49  1  0
 48 23  1  0
 50 48  1  0
 52 51  1  0
 53 64  2  0
 54 52  1  0
 54 59  1  0
 55 63  1  0
 55 65  1  0
 56 62  1  0
 56 58  1  0
 57 63  1  0
 58 59  2  0
 58 57  1  0
 60 54  2  0
 61 60  1  0
 61 56  2  0
 62 55  1  0
 63 53  1  0
 65 67  2  0
 66 65  1  0
 68 66  1  0
 69 78  2  0
 69 74  1  0
 70 66  1  0
 70 74  1  0
 71 70  1  0
 72 73  1  0
 72 71  1  0
 73 69  1  0
 74 75  2  0
 75 76  1  0
 77 76  2  0
 78 77  1  0
 79 53  1  0
 79 80  1  0
 79 89  1  0
 80 83  1  0
 81 85  1  0
 81 80  1  0
 82 81  2  0
 85 84  1  0
 87 85  1  0
 87 88  1  0
 87 86  1  0
 89 92  1  1
 89 90  1  0
 91 89  1  0
M  ISO  4  14 100  15 100  51 101  52 101
M  END
>  <TORSDO>  (71) 
F 24

>  <SCORE>  (71) 
-10.034

>  <name>  (71) 
70

>  <ligand_id>  (71) 
70

>  <original_smiles>  (71) 
[H]c1c([H])c([H])c2c(c1[H])C([H])([H])C([H])([H])C([H])([H])C2([H])N([H])C(=O)C1([H])N(C(=O)C([H])(N([H])C(=O)C([H])(N([H])C([H])([H])[H])C([H])([H])[H])C(C([H])([H])[H])(C([H])([H])[H])C([H])([H])[H])C([H])([H])c2c([H])c(OC([H])([H])c3c([H])c(C(=O)C([H])([H])C([H])([H])C([H])([H])C([H])([H])C([H])([H])C([H])([H])C(=O)N4C([H])([H])C([H])([H])C([H])([H])C([H])(n5nc(-c6c([H])c([H])c(Oc7c([H])c([H])c(F)c([H])c7F)c([H])c6[H])c(C(=O)N([H])[H])c5N([H])[H])C4([H])[H])c([H])n3C([H])([H])[H])c([H])c([H])c2C1([H])[H]

>  <smiles>  (71) 
[H]c1c([H])c([H])c2c(c1[H])C([H])([H])C([H])([H])C([H])([H])C2([H])N([H])C(=O)C1([H])N(C(=O)C([H])(N([H])C(=O)C([H])(N([H])C([H])([H])[H])C([H])([H])[H])C(C([H])([H])[H])(C([H])([H])[H])C([H])([H])[H])C([H])([H])c2c([H])c(OC([H])([H])c3c([H])c(C(=O)C([H])([H])C([H])([H])C([H])([H])C([H])([H])C([H])([H])C([H])([H])C(=O)N4C([H])([H])C([H])([H])C([H])([H])C([H])(n5nc(-c6c([H])c([H])c(Oc7c([H])c([H])c(F)c([H])c7F)c([H])c6[H])c(C(=O)N([H])[H])c5N([H])[H])C4([H])[H])c([H])n3C([H])([H])[H])c([H])c([H])c2C1([H])[H]

$$$$
71:0:0
     RDKit          3D

 98106  0  0  1  0  0  0  0  0999 V2000
  -33.9220  -24.7760   19.4260 C   0  0  0  0  0  3  0  0  0  0  0  0
  -33.9880  -26.1720   19.5780 C   0  0  0  0  0  3  0  0  0  0  0  0
  -31.5440  -24.9320   18.9530 C   0  0  0  0  0  3  0  0  0  0  0  0
  -32.6920  -24.1460   19.1450 C   0  0  0  0  0  0  0  0  0  0  0  0
  -31.6100  -26.3330   19.0930 C   0  0  0  0  0  0  0  0  0  0  0  0
  -32.8290  -26.9680   19.4210 C   0  0  0  0  0  0  0  0  0  0  0  0
  -33.9990  -28.9440   20.1000 C   0  0  0  0  0  1  0  0  0  0  0  0
  -32.8150  -28.3310   19.6050 O   0  0  0  0  0  0  0  0  0  0  0  0
  -32.5620  -22.6380   19.0950 C   0  0  0  0  0  2  0  0  0  0  0  0
  -33.6730  -21.9040   19.8700 C   0  0  0  0  0  2  0  0  0  0  0  0
  -33.3430  -20.4350   20.1370 C   0  0  0  0  0  2  0  0  0  0  0  0
  -32.2730  -20.2090   21.2220 C   0  0  0  0  0  2  0  0  0  0  0  0
  -31.6730  -18.7910   21.1630 C   0  0  0  0  0  2  0  0  0  0  0  0
  -31.0260  -18.3550   22.4970 C   0  0  0  0  0  2  0  0  0  0  0  0
  -30.1750  -17.1440   22.4200 N   0  0  0  0  0  4  0  0  0  0  0  0
  -29.8150  -17.0190   23.3530 H   0  0  0  0  0  0  0  0  0  0  0  0
  -29.3630  -17.3320   21.8520 H   0  0  0  0  0  0  0  0  0  0  0  0
  -30.8260  -15.8580   22.0390 C   0  0  0  0  0  2  0  0  0  0  0  0
  -30.5230  -15.4310   20.5830 C   0  0  0  0  0  2  0  0  0  0  0  0
  -31.2020  -14.1150   20.1140 C   0  0  0  0  0  0  0  0  0  0  0  0
  -30.7200  -11.9950   18.9360 C   0  0  0  0  0  2  0  0  0  0  0  0
  -29.7470  -12.2830   17.7740 C   0  0  0  0  0  2  0  0  0  0  0  0
  -28.2890  -12.2060   18.2640 C   0  0  0  0  0  2  0  0  0  0  0  0
  -28.0590  -13.1110   19.4990 C   0  0  0  0  0  3  0  0  0  0  0  0
  -29.1190  -12.8140   20.5840 C   0  0  0  0  0  2  0  0  0  0  0  0
  -30.4500  -12.9890   19.9860 N   0  0  0  0  0  0  0  0  0  0  0  0
  -32.3520  -14.1850   19.6700 O   0  0  0  0  0  0  0  0  0  0  0  0
  -25.7570  -13.9590   20.2810 C   0  0  0  0  0  0  0  0  0  0  0  0
  -24.6290  -13.2950   20.6730 C   0  0  0  0  0  0  0  0  0  0  0  0
  -24.9630  -11.9050   20.6530 C   0  0  0  0  0  0  0  0  0  0  0  0
  -26.7070  -12.9820   20.0270 N   0  0  0  0  0  0  0  0  0  0  0  0
  -26.2350  -11.7450   20.3220 N   0  0  0  0  0  0  0  0  0  0  0  0
  -24.1350  -10.7130   20.8730 C   0  0  0  0  0  0  0  0  0  0  0  0
  -24.5170   -9.7090   21.7890 C   0  0  0  0  0  3  0  0  0  0  0  0
  -23.7010   -8.5760   21.9860 C   0  0  0  0  0  3  0  0  0  0  0  0
  -22.4810   -8.4480   21.2780 C   0  0  0  0  0  0  0  0  0  0  0  0
  -22.1120   -9.4430   20.3570 C   0  0  0  0  0  3  0  0  0  0  0  0
  -22.9330  -10.5650   20.1510 C   0  0  0  0  0  3  0  0  0  0  0  0
  -21.6310   -7.3750   21.3970 O   0  0  0  0  0  0  0  0  0  0  0  0
  -21.5690   -6.6290   22.5450 C   0  0  0  0  0  0  0  0  0  0  0  0
  -21.2980   -7.2080   23.8080 C   0  0  0  0  0  3  0  0  0  0  0  0
  -21.1730   -6.3880   24.9470 C   0  0  0  0  0  3  0  0  0  0  0  0
  -21.3180   -4.9920   24.8300 C   0  0  0  0  0  0  0  0  0  0  0  0
  -21.5960   -4.4140   23.5760 C   0  0  0  0  0  3  0  0  0  0  0  0
  -21.7140   -5.2320   22.4400 C   0  0  0  0  0  0  0  0  0  0  0  0
  -21.9530   -4.6700   21.2310 F   0  0  0  0  0  0  0  0  0  0  0  0
  -21.1980   -4.2040   25.9230 F   0  0  0  0  0  0  0  0  0  0  0  0
  -23.2840  -13.8960   20.9660 C   0  0  0  0  0  0  0  0  0  0  0  0
  -22.5200  -13.2870   21.8640 N   0  0  0  0  0  0  0  0  0  0  0  0
  -22.9290  -14.9520   20.4430 O   0  0  0  0  0  0  0  0  0  0  0  0
  -22.8250  -12.4500   22.3420 H   0  0  0  0  0  0  0  0  0  0  0  0
  -21.6200  -13.6830   22.0970 H   0  0  0  0  0  0  0  0  0  0  0  0
  -26.0430  -15.3110   20.0970 N   0  0  0  0  0  0  0  0  0  0  0  0
  -25.3090  -15.9960   20.2270 H   0  0  0  0  0  0  0  0  0  0  0  0
  -26.9070  -15.7070   19.7520 H   0  0  0  0  0  0  0  0  0  0  0  0
  -30.3290  -27.1270   19.0230 C   0  0  0  0  0  2  0  0  0  0  0  0
  -29.6020  -27.0620   20.3690 C   0  0  0  0  0  2  0  0  0  0  0  0
  -28.3140  -26.5020   20.1480 O   0  0  0  0  0  0  0  0  0  0  0  0
  -24.5760  -31.7620   23.1530 C   0  0  0  0  0  0  0  0  0  0  0  0
  -27.2020  -27.3070   20.1560 C   0  0  0  0  0  0  0  0  0  0  0  0
  -23.3550  -30.3490   21.5200 C   0  0  0  0  0  3  0  0  0  0  0  0
  -24.8010  -28.7920   20.1150 C   0  0  0  0  0  0  0  0  0  0  0  0
  -25.8690  -30.7100   21.3120 C   0  0  0  0  0  2  0  0  0  0  0  0
  -25.9470  -29.3300   20.7010 C   0  0  0  0  0  0  0  0  0  0  0  0
  -27.1450  -28.5980   20.7290 C   0  0  0  0  0  3  0  0  0  0  0  0
  -26.0360  -26.7680   19.5710 C   0  0  0  0  0  3  0  0  0  0  0  0
  -24.8350  -27.5060   19.5470 C   0  0  0  0  0  3  0  0  0  0  0  0
  -23.5580  -29.6490   20.1470 C   0  0  0  0  0  2  0  0  0  0  0  0
  -24.6180  -30.9540   22.0570 N   0  0  0  0  0  0  0  0  0  0  0  0
  -23.5000  -32.0530   23.6910 O   0  0  0  0  0  0  0  0  0  0  0  0
  -22.6940  -29.3460   22.4870 C   0  0  0  0  0  0  0  0  0  0  0  0
  -21.3680  -29.1810   22.3590 N   0  0  0  0  0  0  0  0  0  0  0  0
  -23.3690  -28.7220   23.3090 O   0  0  0  0  0  0  0  0  0  0  0  0
  -20.8870  -29.7290   21.6600 H   0  0  0  0  0  0  0  0  0  0  0  0
  -17.9820  -28.0330   22.8360 C   0  0  0  0  0  0  0  0  0  0  0  0
  -20.5380  -28.2610   23.1360 C   0  0  0  0  0  3  0  0  0  0  0  0
  -20.6350  -26.8230   22.5780 C   0  0  0  0  0  2  0  0  0  0  0  0
  -19.5410  -26.5000   21.5570 C   0  0  0  0  0  2  0  0  0  0  0  0
  -18.1540  -26.6740   22.1790 C   0  0  0  0  0  2  0  0  0  0  0  0
  -19.1060  -28.7860   23.2680 C   0  0  0  0  0  0  0  0  0  0  0  0
  -18.8930  -30.0660   23.8290 C   0  0  0  0  0  3  0  0  0  0  0  0
  -17.5930  -30.5820   23.9730 C   0  0  0  0  0  3  0  0  0  0  0  0
  -16.4850  -29.8220   23.5570 C   0  0  0  0  0  3  0  0  0  0  0  0
  -16.6820  -28.5510   22.9900 C   0  0  0  0  0  3  0  0  0  0  0  0
  -25.8710  -32.3790   23.7690 C   0  0  0  0  0  3  0  0  0  0  0  0
  -25.5750  -33.7700   24.1260 N   0  0  0  0  0  0  0  0  0  0  0  0
  -25.9070  -34.8290   23.3760 C   0  0  0  0  0  0  0  0  0  0  0  0
  -26.5670  -34.7410   22.3370 O   0  0  0  0  0  0  0  0  0  0  0  0
  -24.9920  -33.9180   24.9370 H   0  0  0  0  0  0  0  0  0  0  0  0
  -24.1680  -36.6180   23.0640 C   0  0  0  0  0  1  0  0  0  0  0  0
  -25.4200  -36.2100   23.8570 C   0  0  0  0  0  3  0  0  0  0  0  0
  -27.5670  -37.0810   24.6690 C   0  0  0  0  0  1  0  0  0  0  0  0
  -26.4490  -37.2690   23.7500 N   0  0  0  0  0  0  0  0  0  0  0  0
  -26.0420  -38.1830   23.9340 H   0  0  0  0  0  0  0  0  0  0  0  0
  -26.4090  -31.5790   25.0200 C   0  0  1  0  0  0  0  0  0  0  0  0
  -25.3250  -31.3210   26.0910 C   0  0  0  0  0  1  0  0  0  0  0  0
  -26.9880  -30.2100   24.5900 C   0  0  0  0  0  1  0  0  0  0  0  0
  -27.5670  -32.3600   25.6880 C   0  0  0  0  0  1  0  0  0  0  0  0
  1  2  1  0
  3  5  2  0
  3  4  1  0
  4  1  2  0
  5  6  1  0
  6  2  2  0
  6  8  1  0
  8  7  1  0
  9  4  1  0
  9 10  1  0
 10 11  1  0
 11 12  1  0
 13 12  1  0
 13 14  1  0
 15 14  1  0
 15 16  1  0
 17 15  1  0
 18 15  1  0
 19 18  1  0
 20 19  1  0
 21 26  1  0
 22 23  1  0
 22 21  1  0
 24 23  1  0
 24 31  1  0
 24 25  1  0
 26 20  1  0
 26 25  1  0
 27 20  2  0
 28 29  2  0
 29 48  1  0
 30 29  1  0
 30 33  1  0
 31 28  1  0
 31 32  1  0
 32 30  2  0
 33 34  1  0
 34 35  2  0
 36 39  1  0
 36 35  1  0
 37 36  2  0
 38 37  1  0
 38 33  2  0
 39 40  1  0
 40 41  1  0
 41 42  2  0
 43 42  1  0
 43 47  1  0
 44 43  2  0
 45 40  2  0
 45 44  1  0
 46 45  1  0
 48 49  1  0
 49 52  1  0
 49 51  1  0
 50 48  2  0
 53 54  1  0
 53 28  1  0
 55 53  1  0
 56  5  1  0
 56 57  1  0
 58 60  1  0
 58 57  1  0
 59 70  2  0
 60 65  1  0
 61 69  1  0
 61 71  1  0
 62 68  1  0
 62 64  1  0
 63 69  1  0
 64 65  2  0
 64 63  1  0
 66 60  2  0
 67 66  1  0
 67 62  2  0
 68 61  1  0
 69 59  1  0
 71 73  2  0
 72 71  1  0
 74 72  1  0
 75 84  2  0
 75 80  1  0
 76 72  1  0
 76 80  1  0
 77 76  1  0
 78 79  1  0
 78 77  1  0
 79 75  1  0
 80 81  2  0
 81 82  1  0
 83 82  2  0
 84 83  1  0
 85 59  1  0
 85 86  1  0
 85 95  1  0
 86 89  1  0
 87 91  1  0
 87 86  1  0
 88 87  2  0
 91 90  1  0
 93 91  1  0
 93 94  1  0
 93 92  1  0
 95 98  1  1
 95 96  1  0
 97 95  1  0
M  ISO  4  19 100  20 100  57 101  58 101
M  END
>  <TORSDO>  (72) 
F 28

>  <SCORE>  (72) 
-11.083

>  <name>  (72) 
71

>  <ligand_id>  (72) 
71

>  <original_smiles>  (72) 
[H]c1c([H])c([H])c2c(c1[H])C([H])([H])C([H])([H])C([H])([H])C2([H])N([H])C(=O)C1([H])N(C(=O)C([H])(N([H])C(=O)C([H])(N([H])C([H])([H])[H])C([H])([H])[H])C(C([H])([H])[H])(C([H])([H])[H])C([H])([H])[H])C([H])([H])c2c([H])c(OC([H])([H])C([H])([H])c3c([H])c(C([H])([H])C([H])([H])C([H])([H])C([H])([H])C([H])([H])C([H])([H])[N+]([H])([H])C([H])([H])C([H])([H])C(=O)N4C([H])([H])C([H])([H])C([H])([H])C([H])(n5nc(-c6c([H])c([H])c(Oc7c([H])c([H])c(F)c([H])c7F)c([H])c6[H])c(C(=O)N([H])[H])c5N([H])[H])C4([H])[H])c([H])c([H])c3OC([H])([H])[H])c([H])c([H])c2C1([H])[H]

>  <smiles>  (72) 
[H]c1c([H])c([H])c2c(c1[H])C([H])([H])C([H])([H])C([H])([H])C2([H])N([H])C(=O)C1([H])N(C(=O)C([H])(N([H])C(=O)C([H])(N([H])C([H])([H])[H])C([H])([H])[H])C(C([H])([H])[H])(C([H])([H])[H])C([H])([H])[H])C([H])([H])c2c([H])c(OC([H])([H])C([H])([H])c3c([H])c(C([H])([H])C([H])([H])C([H])([H])C([H])([H])C([H])([H])C([H])([H])[N+]([H])([H])C([H])([H])C([H])([H])C(=O)N4C([H])([H])C([H])([H])C([H])([H])C([H])(n5nc(-c6c([H])c([H])c(Oc7c([H])c([H])c(F)c([H])c7F)c([H])c6[H])c(C(=O)N([H])[H])c5N([H])[H])C4([H])[H])c([H])c([H])c3OC([H])([H])[H])c([H])c([H])c2C1([H])[H]

$$$$
72:0:0
     RDKit          3D

101109  0  0  1  0  0  0  0  0999 V2000
  -28.7770  -24.0560   17.5950 C   0  0  0  0  0  3  0  0  0  0  0  0
  -29.6320  -23.6440   19.8420 C   0  0  0  0  0  3  0  0  0  0  0  0
  -27.6770  -22.4270   19.0320 C   0  0  0  0  0  3  0  0  0  0  0  0
  -29.7000  -24.3410   18.6150 C   0  0  0  0  0  0  0  0  0  0  0  0
  -27.7550  -23.1100   17.8010 C   0  0  0  0  0  0  0  0  0  0  0  0
  -28.6030  -22.7050   20.0620 C   0  0  0  0  0  0  0  0  0  0  0  0
  -27.1280  -22.5660   22.0900 C   0  0  0  0  0  1  0  0  0  0  0  0
  -28.4330  -22.0720   21.4420 C   0  0  0  0  0  3  0  0  0  0  0  0
  -28.4520  -20.5970   21.3760 N   0  0  0  0  0  4  0  0  0  0  0  0
  -28.2350  -20.2450   22.2940 H   0  0  0  0  0  0  0  0  0  0  0  0
  -27.7280  -20.2850   20.7500 H   0  0  0  0  0  0  0  0  0  0  0  0
  -29.7220  -19.9750   20.9530 C   0  0  0  0  0  2  0  0  0  0  0  0
  -29.6640  -18.4630   21.2020 C   0  0  0  0  0  2  0  0  0  0  0  0
  -31.0040  -17.7500   20.9830 C   0  0  0  0  0  2  0  0  0  0  0  0
  -30.8440  -16.2410   21.1840 C   0  0  0  0  0  2  0  0  0  0  0  0
  -32.1650  -15.4690   21.1370 C   0  0  0  0  0  2  0  0  0  0  0  0
  -31.9410  -13.9480   21.1070 C   0  0  0  0  0  2  0  0  0  0  0  0
  -31.6610  -13.3900   19.7000 C   0  0  0  0  0  0  0  0  0  0  0  0
  -30.8720  -11.3490   18.5900 C   0  0  0  0  0  2  0  0  0  0  0  0
  -29.8480  -11.5250   17.4650 C   0  0  0  0  0  2  0  0  0  0  0  0
  -28.4240  -11.5740   18.0430 C   0  0  0  0  0  2  0  0  0  0  0  0
  -28.2890  -12.6000   19.1980 C   0  0  0  0  0  3  0  0  0  0  0  0
  -29.4100  -12.4180   20.2490 C   0  0  0  0  0  2  0  0  0  0  0  0
  -30.7130  -12.4350   19.5640 N   0  0  0  0  0  0  0  0  0  0  0  0
  -32.4640  -13.6680   18.8040 O   0  0  0  0  0  0  0  0  0  0  0  0
  -26.0850  -13.5730   20.1230 C   0  0  0  0  0  0  0  0  0  0  0  0
  -24.9460  -12.9710   20.5890 C   0  0  0  0  0  0  0  0  0  0  0  0
  -25.1830  -11.5640   20.5190 C   0  0  0  0  0  0  0  0  0  0  0  0
  -26.9570  -12.5420   19.8010 N   0  0  0  0  0  0  0  0  0  0  0  0
  -26.4200  -11.3290   20.0940 N   0  0  0  0  0  0  0  0  0  0  0  0
  -24.2890  -10.4280   20.7780 C   0  0  0  0  0  0  0  0  0  0  0  0
  -24.6410   -9.4020   21.6840 C   0  0  0  0  0  3  0  0  0  0  0  0
  -23.7560   -8.3310   21.9320 C   0  0  0  0  0  3  0  0  0  0  0  0
  -22.5060   -8.2780   21.2740 C   0  0  0  0  0  0  0  0  0  0  0  0
  -22.1680   -9.2900   20.3570 C   0  0  0  0  0  3  0  0  0  0  0  0
  -23.0510  -10.3520   20.1080 C   0  0  0  0  0  3  0  0  0  0  0  0
  -21.5970   -7.2600   21.4310 O   0  0  0  0  0  0  0  0  0  0  0  0
  -21.5230   -6.5330   22.5930 C   0  0  0  0  0  0  0  0  0  0  0  0
  -21.2900   -7.1460   23.8430 C   0  0  0  0  0  3  0  0  0  0  0  0
  -21.1490   -6.3550   25.0010 C   0  0  0  0  0  3  0  0  0  0  0  0
  -21.2370   -4.9520   24.9110 C   0  0  0  0  0  0  0  0  0  0  0  0
  -21.4640   -4.3390   23.6660 C   0  0  0  0  0  3  0  0  0  0  0  0
  -21.6040   -5.1280   22.5100 C   0  0  0  0  0  0  0  0  0  0  0  0
  -21.8010   -4.5310   21.3090 F   0  0  0  0  0  0  0  0  0  0  0  0
  -21.0950   -4.1920   26.0200 F   0  0  0  0  0  0  0  0  0  0  0  0
  -23.6710  -13.6560   20.9920 C   0  0  0  0  0  0  0  0  0  0  0  0
  -22.9390  -13.0850   21.9400 N   0  0  0  0  0  0  0  0  0  0  0  0
  -23.3420  -14.7320   20.4970 O   0  0  0  0  0  0  0  0  0  0  0  0
  -23.2220  -12.2140   22.3640 H   0  0  0  0  0  0  0  0  0  0  0  0
  -22.0870  -13.5290   22.2510 H   0  0  0  0  0  0  0  0  0  0  0  0
  -26.4460  -14.9040   19.9300 N   0  0  0  0  0  0  0  0  0  0  0  0
  -25.7990  -15.6650   20.1030 H   0  0  0  0  0  0  0  0  0  0  0  0
  -27.3300  -15.2060   19.5370 H   0  0  0  0  0  0  0  0  0  0  0  0
  -30.6730  -25.4870   18.4250 C   0  0  0  0  0  2  0  0  0  0  0  0
  -29.9420  -26.8320   18.5500 C   0  0  0  0  0  2  0  0  0  0  0  0
  -29.1990  -26.7970   19.7590 O   0  0  0  0  0  0  0  0  0  0  0  0
  -24.8990  -31.3260   23.0720 C   0  0  0  0  0  0  0  0  0  0  0  0
  -27.9860  -27.4270   19.7350 C   0  0  0  0  0  0  0  0  0  0  0  0
  -23.8450  -29.9700   21.2800 C   0  0  0  0  0  3  0  0  0  0  0  0
  -25.4630  -28.6720   19.7850 C   0  0  0  0  0  0  0  0  0  0  0  0
  -26.3250  -30.5660   21.1760 C   0  0  0  0  0  2  0  0  0  0  0  0
  -26.5510  -29.2570   20.4510 C   0  0  0  0  0  0  0  0  0  0  0  0
  -27.8130  -28.6340   20.4350 C   0  0  0  0  0  3  0  0  0  0  0  0
  -26.8930  -26.8360   19.0710 C   0  0  0  0  0  3  0  0  0  0  0  0
  -25.6250  -27.4540   19.0950 C   0  0  0  0  0  3  0  0  0  0  0  0
  -24.1440  -29.4070   19.8620 C   0  0  0  0  0  2  0  0  0  0  0  0
  -25.0410  -30.6320   21.9060 N   0  0  0  0  0  0  0  0  0  0  0  0
  -23.7870  -31.4610   23.6010 O   0  0  0  0  0  0  0  0  0  0  0  0
  -23.2580  -28.8270   22.1410 C   0  0  0  0  0  0  0  0  0  0  0  0
  -21.9640  -28.5360   21.9360 N   0  0  0  0  0  0  0  0  0  0  0  0
  -23.9620  -28.2080   22.9410 O   0  0  0  0  0  0  0  0  0  0  0  0
  -21.4560  -29.0990   21.2710 H   0  0  0  0  0  0  0  0  0  0  0  0
  -18.7110  -26.9770   22.1460 C   0  0  0  0  0  0  0  0  0  0  0  0
  -21.2050  -27.4730   22.5980 C   0  0  0  0  0  3  0  0  0  0  0  0
  -21.4930  -26.0970   21.9540 C   0  0  0  0  0  2  0  0  0  0  0  0
  -20.4940  -25.7280   20.8550 C   0  0  0  0  0  2  0  0  0  0  0  0
  -19.0680  -25.6950   21.4120 C   0  0  0  0  0  2  0  0  0  0  0  0
  -19.7140  -27.8200   22.6900 C   0  0  0  0  0  0  0  0  0  0  0  0
  -19.3310  -29.0200   23.3270 C   0  0  0  0  0  3  0  0  0  0  0  0
  -17.9730  -29.3790   23.4280 C   0  0  0  0  0  3  0  0  0  0  0  0
  -16.9820  -28.5330   22.9000 C   0  0  0  0  0  3  0  0  0  0  0  0
  -17.3510  -27.3340   22.2660 C   0  0  0  0  0  3  0  0  0  0  0  0
  -26.1130  -32.0040   23.7780 C   0  0  0  0  0  3  0  0  0  0  0  0
  -25.6780  -33.3260   24.2430 N   0  0  0  0  0  0  0  0  0  0  0  0
  -25.9110  -34.4730   23.5920 C   0  0  0  0  0  0  0  0  0  0  0  0
  -26.5890  -34.5370   22.5620 O   0  0  0  0  0  0  0  0  0  0  0  0
  -25.0850  -33.3510   25.0560 H   0  0  0  0  0  0  0  0  0  0  0  0
  -24.0160  -36.1160   23.3990 C   0  0  0  0  0  1  0  0  0  0  0  0
  -25.2920  -35.7580   24.1760 C   0  0  0  0  0  3  0  0  0  0  0  0
  -27.3350  -36.7490   25.1030 C   0  0  0  0  0  1  0  0  0  0  0  0
  -26.2210  -36.9090   24.1740 N   0  0  0  0  0  0  0  0  0  0  0  0
  -25.7320  -37.7680   24.4120 H   0  0  0  0  0  0  0  0  0  0  0  0
  -26.6990  -31.1520   24.9720 C   0  0  1  0  0  0  0  0  0  0  0  0
  -25.6340  -30.7040   25.9990 C   0  0  0  0  0  1  0  0  0  0  0  0
  -27.4050  -29.8840   24.4380 C   0  0  0  0  0  1  0  0  0  0  0  0
  -27.7740  -31.9720   25.7240 C   0  0  0  0  0  1  0  0  0  0  0  0
  -26.6950  -22.9050   16.7370 C   0  0  0  0  0  2  0  0  0  0  0  0
  -24.5060  -23.7810   15.9610 C   0  0  0  0  0  1  0  0  0  0  0  0
  -25.6210  -23.9000   16.9150 N   0  0  0  0  0  4  0  0  0  0  0  0
  -25.2590  -23.8080   17.8490 H   0  0  0  0  0  0  0  0  0  0  0  0
  -26.0290  -24.8160   16.8290 H   0  0  0  0  0  0  0  0  0  0  0  0
  1  5  2  0
  1  4  1  0
  2  6  1  0
  3  6  2  0
  4  2  2  0
  5  3  1  0
  6  8  1  0
  8  7  1  0
  9  8  1  0
  9 10  1  0
 11  9  1  0
 12 13  1  0
 12  9  1  0
 14 15  1  0
 14 13  1  0
 16 15  1  0
 17 16  1  0
 18 17  1  0
 19 24  1  0
 20 21  1  0
 20 19  1  0
 22 21  1  0
 22 29  1  0
 22 23  1  0
 24 18  1  0
 24 23  1  0
 25 18  2  0
 26 27  2  0
 27 46  1  0
 28 27  1  0
 28 31  1  0
 29 30  1  0
 29 26  1  0
 30 28  2  0
 31 32  1  0
 32 33  2  0
 34 37  1  0
 34 33  1  0
 35 34  2  0
 36 35  1  0
 36 31  2  0
 37 38  1  0
 38 39  1  0
 39 40  2  0
 41 40  1  0
 41 45  1  0
 42 41  2  0
 43 38  2  0
 43 42  1  0
 44 43  1  0
 46 47  1  0
 47 50  1  0
 47 49  1  0
 48 46  2  0
 51 52  1  0
 51 26  1  0
 53 51  1  0
 54 55  1  0
 54  4  1  0
 55 56  1  0
 57 68  2  0
 58 56  1  0
 58 63  1  0
 59 67  1  0
 59 69  1  0
 60 66  1  0
 60 62  1  0
 61 67  1  0
 62 61  1  0
 63 62  2  0
 64 65  1  0
 64 58  2  0
 65 60  2  0
 66 59  1  0
 67 57  1  0
 69 71  2  0
 70 69  1  0
 72 70  1  0
 73 82  2  0
 73 78  1  0
 74 70  1  0
 74 78  1  0
 75 74  1  0
 76 77  1  0
 76 75  1  0
 77 73  1  0
 78 79  2  0
 79 80  1  0
 81 80  2  0
 82 81  1  0
 83 57  1  0
 83 84  1  0
 83 93  1  0
 84 87  1  0
 85 89  1  0
 85 84  1  0
 86 85  2  0
 89 88  1  0
 91 89  1  0
 91 92  1  0
 91 90  1  0
 93 96  1  1
 93 94  1  0
 95 93  1  0
 97 99  1  0
 97  5  1  0
 98 99  1  0
 99100  1  0
101 99  1  0
M  ISO  4  17 100  18 100  55 101  56 101
M  END
>  <TORSDO>  (73) 
F 28

>  <SCORE>  (73) 
-7.248

>  <name>  (73) 
72

>  <ligand_id>  (73) 
72

>  <original_smiles>  (73) 
[H]c1c([H])c([H])c2c(c1[H])C([H])([H])C([H])([H])C([H])([H])C2([H])N([H])C(=O)C1([H])N(C(=O)C([H])(N([H])C(=O)C([H])(N([H])C([H])([H])[H])C([H])([H])[H])C(C([H])([H])[H])(C([H])([H])[H])C([H])([H])[H])C([H])([H])c2c([H])c(OC([H])([H])C([H])([H])c3c([H])c(C([H])([H])[N+]([H])([H])C([H])([H])[H])c([H])c(C([H])(C([H])([H])[H])[N+]([H])([H])C([H])([H])C([H])([H])C([H])([H])C([H])([H])C([H])([H])C([H])([H])C(=O)N4C([H])([H])C([H])([H])C([H])([H])C([H])(n5nc(-c6c([H])c([H])c(Oc7c([H])c([H])c(F)c([H])c7F)c([H])c6[H])c(C(=O)N([H])[H])c5N([H])[H])C4([H])[H])c3[H])c([H])c([H])c2C1([H])[H]

>  <smiles>  (73) 
[H]c1c([H])c([H])c2c(c1[H])C([H])([H])C([H])([H])C([H])([H])C2([H])N([H])C(=O)C1([H])N(C(=O)C([H])(N([H])C(=O)C([H])(N([H])C([H])([H])[H])C([H])([H])[H])C(C([H])([H])[H])(C([H])([H])[H])C([H])([H])[H])C([H])([H])c2c([H])c(OC([H])([H])C([H])([H])c3c([H])c(C([H])([H])[N+]([H])([H])C([H])([H])[H])c([H])c(C([H])(C([H])([H])[H])[N+]([H])([H])C([H])([H])C([H])([H])C([H])([H])C([H])([H])C([H])([H])C([H])([H])C(=O)N4C([H])([H])C([H])([H])C([H])([H])C([H])(n5nc(-c6c([H])c([H])c(Oc7c([H])c([H])c(F)c([H])c7F)c([H])c6[H])c(C(=O)N([H])[H])c5N([H])[H])C4([H])[H])c3[H])c([H])c([H])c2C1([H])[H]

$$$$
73:0:0
     RDKit          3D

 95103  0  0  1  0  0  0  0  0999 V2000
  -29.6740  -24.9240   23.9340 N   0  0  0  0  0  4  0  0  0  0  0  0
  -30.6080  -24.9120   23.5600 H   0  0  0  0  0  0  0  0  0  0  0  0
  -29.6260  -25.6870   24.5870 H   0  0  0  0  0  0  0  0  0  0  0  0
  -27.8660  -26.4360   23.2070 C   0  0  0  0  0  1  0  0  0  0  0  0
  -28.6810  -25.1810   22.8580 C   0  0  0  0  0  3  0  0  0  0  0  0
  -29.3660  -25.2560   21.4690 C   0  0  0  0  0  2  0  0  0  0  0  0
  -28.4280  -25.5410   20.2720 C   0  0  0  0  0  2  0  0  0  0  0  0
  -28.4540  -26.9350   19.9400 O   0  0  0  0  0  0  0  0  0  0  0  0
  -24.6420  -31.9290   23.2050 C   0  0  0  0  0  0  0  0  0  0  0  0
  -27.2610  -27.6180   19.9580 C   0  0  0  0  0  0  0  0  0  0  0  0
  -23.4070  -30.5580   21.5530 C   0  0  0  0  0  3  0  0  0  0  0  0
  -24.8430  -29.0750   20.0540 C   0  0  0  0  0  0  0  0  0  0  0  0
  -25.9180  -30.9620   21.2970 C   0  0  0  0  0  2  0  0  0  0  0  0
  -26.0070  -29.6100   20.6220 C   0  0  0  0  0  0  0  0  0  0  0  0
  -27.2190  -28.8910   20.5650 C   0  0  0  0  0  3  0  0  0  0  0  0
  -26.0850  -27.0940   19.3780 C   0  0  0  0  0  3  0  0  0  0  0  0
  -24.8770  -27.8160   19.4260 C   0  0  0  0  0  3  0  0  0  0  0  0
  -23.5890  -29.9140   20.1520 C   0  0  0  0  0  2  0  0  0  0  0  0
  -24.6750  -31.1620   22.0780 N   0  0  0  0  0  0  0  0  0  0  0  0
  -23.5740  -32.1740   23.7800 O   0  0  0  0  0  0  0  0  0  0  0  0
  -22.7920  -29.5050   22.5020 C   0  0  0  0  0  0  0  0  0  0  0  0
  -21.4720  -29.2890   22.3760 N   0  0  0  0  0  0  0  0  0  0  0  0
  -23.4980  -28.8860   23.3030 O   0  0  0  0  0  0  0  0  0  0  0  0
  -20.9650  -29.8450   21.7030 H   0  0  0  0  0  0  0  0  0  0  0  0
  -18.1410  -27.9760   22.8440 C   0  0  0  0  0  0  0  0  0  0  0  0
  -20.6850  -28.3170   23.1330 C   0  0  0  0  0  3  0  0  0  0  0  0
  -20.8390  -26.8960   22.5460 C   0  0  0  0  0  2  0  0  0  0  0  0
  -19.7560  -26.5440   21.5210 C   0  0  0  0  0  2  0  0  0  0  0  0
  -18.3660  -26.6390   22.1590 C   0  0  0  0  0  2  0  0  0  0  0  0
  -19.2300  -28.7710   23.2880 C   0  0  0  0  0  0  0  0  0  0  0  0
  -18.9670  -30.0230   23.8860 C   0  0  0  0  0  3  0  0  0  0  0  0
  -17.6470  -30.4820   24.0430 C   0  0  0  0  0  3  0  0  0  0  0  0
  -16.5710  -29.6830   23.6180 C   0  0  0  0  0  3  0  0  0  0  0  0
  -16.8180  -28.4320   23.0250 C   0  0  0  0  0  3  0  0  0  0  0  0
  -25.9390  -32.5530   23.8090 C   0  0  0  0  0  3  0  0  0  0  0  0
  -26.4790  -31.7670   25.0660 C   0  0  1  0  0  0  0  0  0  0  0  0
  -25.4050  -31.5160   26.1510 C   0  0  0  0  0  1  0  0  0  0  0  0
  -27.0570  -30.3960   24.6430 C   0  0  0  0  0  1  0  0  0  0  0  0
  -27.6390  -32.5560   25.7190 C   0  0  0  0  0  1  0  0  0  0  0  0
  -25.6390  -33.9490   24.1540 N   0  0  0  0  0  0  0  0  0  0  0  0
  -25.9830  -35.0070   23.4080 C   0  0  0  0  0  0  0  0  0  0  0  0
  -26.6570  -34.9120   22.3800 O   0  0  0  0  0  0  0  0  0  0  0  0
  -25.0430  -34.0990   24.9550 H   0  0  0  0  0  0  0  0  0  0  0  0
  -24.2750  -36.8160   23.0550 C   0  0  0  0  0  1  0  0  0  0  0  0
  -25.5010  -36.3920   23.8790 C   0  0  0  0  0  3  0  0  0  0  0  0
  -27.6290  -37.2460   24.7570 C   0  0  0  0  0  1  0  0  0  0  0  0
  -26.5440  -37.4370   23.7970 N   0  0  0  0  0  0  0  0  0  0  0  0
  -26.1440  -38.3580   23.9500 H   0  0  0  0  0  0  0  0  0  0  0  0
  -29.4910  -23.6830   24.7150 C   0  0  0  0  0  2  0  0  0  0  0  0
  -29.8320  -20.7610   22.2620 C   0  0  0  0  0  3  0  0  0  0  0  0
  -31.9100  -20.9420   23.5270 C   0  0  0  0  0  3  0  0  0  0  0  0
  -29.2930  -21.8380   22.9850 C   0  0  0  0  0  3  0  0  0  0  0  0
  -31.3760  -22.0350   24.2380 C   0  0  0  0  0  3  0  0  0  0  0  0
  -31.1380  -20.2980   22.5360 C   0  0  0  0  0  0  0  0  0  0  0  0
  -30.0650  -22.4880   23.9690 C   0  0  0  0  0  0  0  0  0  0  0  0
  -31.7100  -19.1360   21.7450 C   0  0  0  0  0  2  0  0  0  0  0  0
  -30.9750  -17.8080   22.0090 C   0  0  0  0  0  2  0  0  0  0  0  0
  -31.3760  -16.7230   21.0090 C   0  0  0  0  0  2  0  0  0  0  0  0
  -30.5090  -15.4500   21.1060 C   0  0  0  0  0  2  0  0  0  0  0  0
  -30.8740  -14.4090   20.0390 C   0  0  0  0  0  0  0  0  0  0  0  0
  -30.4260  -12.2840   18.8720 C   0  0  0  0  0  2  0  0  0  0  0  0
  -29.4100  -12.4760   17.7330 C   0  0  0  0  0  2  0  0  0  0  0  0
  -27.9730  -12.3340   18.2670 C   0  0  0  0  0  2  0  0  0  0  0  0
  -27.7170  -13.2040   19.5270 C   0  0  0  0  0  3  0  0  0  0  0  0
  -28.8440  -13.0190   20.5710 C   0  0  0  0  0  2  0  0  0  0  0  0
  -30.1340  -13.2790   19.9130 N   0  0  0  0  0  0  0  0  0  0  0  0
  -31.8480  -14.6370   19.3160 O   0  0  0  0  0  0  0  0  0  0  0  0
  -25.3750  -13.8140   20.4110 C   0  0  0  0  0  0  0  0  0  0  0  0
  -24.3290  -13.0420   20.8410 C   0  0  0  0  0  0  0  0  0  0  0  0
  -24.7760  -11.6880   20.7540 C   0  0  0  0  0  0  0  0  0  0  0  0
  -26.3960  -12.9320   20.0950 N   0  0  0  0  0  0  0  0  0  0  0  0
  -26.0420  -11.6470   20.3560 N   0  0  0  0  0  0  0  0  0  0  0  0
  -24.0550  -10.4280   20.9750 C   0  0  0  0  0  0  0  0  0  0  0  0
  -24.4980   -9.4810   21.9240 C   0  0  0  0  0  3  0  0  0  0  0  0
  -23.7780   -8.2850   22.1320 C   0  0  0  0  0  3  0  0  0  0  0  0
  -22.6010   -8.0270   21.3890 C   0  0  0  0  0  0  0  0  0  0  0  0
  -22.1780   -8.9620   20.4290 C   0  0  0  0  0  3  0  0  0  0  0  0
  -22.8980  -10.1490   20.2200 C   0  0  0  0  0  3  0  0  0  0  0  0
  -21.8520   -6.8800   21.5040 O   0  0  0  0  0  0  0  0  0  0  0  0
  -21.7600   -6.1970   22.6900 C   0  0  0  0  0  0  0  0  0  0  0  0
  -21.2700   -6.8080   23.8660 C   0  0  0  0  0  3  0  0  0  0  0  0
  -21.1260   -6.0520   25.0450 C   0  0  0  0  0  3  0  0  0  0  0  0
  -21.4600   -4.6840   25.0500 C   0  0  0  0  0  0  0  0  0  0  0  0
  -21.9430   -4.0720   23.8800 C   0  0  0  0  0  3  0  0  0  0  0  0
  -22.0890   -4.8260   22.7020 C   0  0  0  0  0  0  0  0  0  0  0  0
  -22.5340   -4.2280   21.5710 F   0  0  0  0  0  0  0  0  0  0  0  0
  -21.3150   -3.9530   26.1810 F   0  0  0  0  0  0  0  0  0  0  0  0
  -22.9580  -13.5230   21.2200 C   0  0  0  0  0  0  0  0  0  0  0  0
  -22.2880  -12.8160   22.1250 N   0  0  0  0  0  0  0  0  0  0  0  0
  -22.4900  -14.5600   20.7520 O   0  0  0  0  0  0  0  0  0  0  0  0
  -22.6790  -11.9750   22.5250 H   0  0  0  0  0  0  0  0  0  0  0  0
  -21.3710  -13.1200   22.4210 H   0  0  0  0  0  0  0  0  0  0  0  0
  -25.5340  -15.1870   20.2450 N   0  0  0  0  0  0  0  0  0  0  0  0
  -24.7800  -15.8440   20.4190 H   0  0  0  0  0  0  0  0  0  0  0  0
  -26.3690  -15.6320   19.8830 H   0  0  0  0  0  0  0  0  0  0  0  0
  1  3  1  0
  1 49  1  0
  2  1  1  0
  5  4  1  0
  5  1  1  0
  6  5  1  0
  7  6  1  0
  8 10  1  0
  8  7  1  0
  9 20  2  0
 10 15  1  0
 11 19  1  0
 11 21  1  0
 12 18  1  0
 12 14  1  0
 13 19  1  0
 14 13  1  0
 15 14  2  0
 16 17  1  0
 16 10  2  0
 17 12  2  0
 18 11  1  0
 19  9  1  0
 21 23  2  0
 22 21  1  0
 24 22  1  0
 25 34  2  0
 25 30  1  0
 26 22  1  0
 26 30  1  0
 27 26  1  0
 28 29  1  0
 28 27  1  0
 29 25  1  0
 30 31  2  0
 31 32  1  0
 33 32  2  0
 34 33  1  0
 35  9  1  0
 35 40  1  0
 35 36  1  0
 36 39  1  1
 36 37  1  0
 38 36  1  0
 40 43  1  0
 41 45  1  0
 41 40  1  0
 42 41  2  0
 45 44  1  0
 47 45  1  0
 47 48  1  0
 47 46  1  0
 50 54  2  0
 50 52  1  0
 51 53  2  0
 52 55  2  0
 54 51  1  0
 55 53  1  0
 55 49  1  0
 56 57  1  0
 56 54  1  0
 58 59  1  0
 58 57  1  0
 60 59  1  0
 61 66  1  0
 62 63  1  0
 62 61  1  0
 64 63  1  0
 64 71  1  0
 64 65  1  0
 66 60  1  0
 66 65  1  0
 67 60  2  0
 68 69  2  0
 69 88  1  0
 70 69  1  0
 70 73  1  0
 71 72  1  0
 71 68  1  0
 72 70  2  0
 73 74  1  0
 74 75  2  0
 76 79  1  0
 76 75  1  0
 77 76  2  0
 78 77  1  0
 78 73  2  0
 79 80  1  0
 80 85  2  0
 80 81  1  0
 81 82  2  0
 82 83  1  0
 83 87  1  0
 84 83  2  0
 85 84  1  0
 86 85  1  0
 88 89  1  0
 89 92  1  0
 89 91  1  0
 90 88  2  0
 93 68  1  0
 93 94  1  0
 95 93  1  0
M  ISO  4   7 101   8 101  59 100  60 100
M  END
>  <TORSDO>  (74) 
F 25

>  <SCORE>  (74) 
-11.403

>  <name>  (74) 
73

>  <ligand_id>  (74) 
73

>  <original_smiles>  (74) 
[H]c1c([H])c([H])c2c(c1[H])C([H])([H])C([H])([H])C([H])([H])C2([H])N([H])C(=O)C1([H])N(C(=O)C([H])(N([H])C(=O)C([H])(N([H])C([H])([H])[H])C([H])([H])[H])C(C([H])([H])[H])(C([H])([H])[H])C([H])([H])[H])C([H])([H])c2c([H])c(OC([H])([H])C([H])([H])C([H])(C([H])([H])[H])[N+]([H])([H])C([H])([H])c3c([H])c([H])c(C([H])([H])C([H])([H])C([H])([H])C([H])([H])C(=O)N4C([H])([H])C([H])([H])C([H])([H])C([H])(n5nc(-c6c([H])c([H])c(Oc7c([H])c([H])c(F)c([H])c7F)c([H])c6[H])c(C(=O)N([H])[H])c5N([H])[H])C4([H])[H])c([H])c3[H])c([H])c([H])c2C1([H])[H]

>  <smiles>  (74) 
[H]c1c([H])c([H])c2c(c1[H])C([H])([H])C([H])([H])C([H])([H])C2([H])N([H])C(=O)C1([H])N(C(=O)C([H])(N([H])C(=O)C([H])(N([H])C([H])([H])[H])C([H])([H])[H])C(C([H])([H])[H])(C([H])([H])[H])C([H])([H])[H])C([H])([H])c2c([H])c(OC([H])([H])C([H])([H])C([H])(C([H])([H])[H])[N+]([H])([H])C([H])([H])c3c([H])c([H])c(C([H])([H])C([H])([H])C([H])([H])C([H])([H])C(=O)N4C([H])([H])C([H])([H])C([H])([H])C([H])(n5nc(-c6c([H])c([H])c(Oc7c([H])c([H])c(F)c([H])c7F)c([H])c6[H])c(C(=O)N([H])[H])c5N([H])[H])C4([H])[H])c([H])c3[H])c([H])c([H])c2C1([H])[H]

$$$$
74:0:0
     RDKit          3D

 86 93  0  0  1  0  0  0  0  0999 V2000
  -29.1110  -23.9890   20.4110 C   0  0  0  0  0  0  0  0  0  0  0  0
  -29.9030  -24.3090   21.3020 O   0  0  0  0  0  0  0  0  0  0  0  0
  -29.0920  -22.5060   19.8580 C   0  0  0  0  0  3  0  0  0  0  0  0
  -29.6290  -21.3280   20.7860 C   0  0  0  0  0  3  0  0  0  0  0  0
  -29.8870  -19.9220   20.1430 C   0  0  0  0  0  3  0  0  0  0  0  0
  -29.9240  -18.7040   20.7770 C   0  0  0  0  0  3  0  0  0  0  0  0
  -30.3250  -17.3210   20.1560 C   0  0  0  0  0  3  0  0  0  0  0  0
  -29.9370  -15.9680   20.9170 C   0  0  0  0  0  3  0  0  0  0  0  0
  -30.6260  -14.6340   20.4090 C   0  0  0  0  0  0  0  0  0  0  0  0
  -30.3510  -12.4060   19.3380 C   0  0  0  0  0  2  0  0  0  0  0  0
  -29.4100  -12.5600   18.1220 C   0  0  0  0  0  2  0  0  0  0  0  0
  -27.9370  -12.4190   18.5530 C   0  0  0  0  0  2  0  0  0  0  0  0
  -27.5940  -13.2820   19.7970 C   0  0  0  0  0  3  0  0  0  0  0  0
  -28.6550  -13.1200   20.9080 C   0  0  0  0  0  2  0  0  0  0  0  0
  -29.9690  -13.4320   20.3310 N   0  0  0  0  0  0  0  0  0  0  0  0
  -31.7780  -14.7330   19.9770 O   0  0  0  0  0  0  0  0  0  0  0  0
  -25.2060  -13.8970   20.5170 C   0  0  0  0  0  0  0  0  0  0  0  0
  -24.1350  -13.1330   20.8860 C   0  0  0  0  0  0  0  0  0  0  0  0
  -24.5850  -11.7770   20.8560 C   0  0  0  0  0  0  0  0  0  0  0  0
  -26.2450  -13.0090   20.2860 N   0  0  0  0  0  0  0  0  0  0  0  0
  -25.8760  -11.7280   20.5480 N   0  0  0  0  0  0  0  0  0  0  0  0
  -23.8480  -10.5220   21.0460 C   0  0  0  0  0  0  0  0  0  0  0  0
  -24.2910   -9.5360   21.9570 C   0  0  0  0  0  3  0  0  0  0  0  0
  -23.5530   -8.3450   22.1370 C   0  0  0  0  0  3  0  0  0  0  0  0
  -22.3590   -8.1340   21.4060 C   0  0  0  0  0  0  0  0  0  0  0  0
  -21.9350   -9.1090   20.4860 C   0  0  0  0  0  3  0  0  0  0  0  0
  -22.6730  -10.2900   20.3050 C   0  0  0  0  0  3  0  0  0  0  0  0
  -21.5900   -6.9980   21.4970 O   0  0  0  0  0  0  0  0  0  0  0  0
  -21.5810   -6.2240   22.6310 C   0  0  0  0  0  0  0  0  0  0  0  0
  -21.2380   -6.7560   23.8930 C   0  0  0  0  0  3  0  0  0  0  0  0
  -21.1730   -5.9110   25.0180 C   0  0  0  0  0  3  0  0  0  0  0  0
  -21.4410   -4.5350   24.8840 C   0  0  0  0  0  0  0  0  0  0  0  0
  -21.7760   -4.0030   23.6270 C   0  0  0  0  0  3  0  0  0  0  0  0
  -21.8430   -4.8450   22.5030 C   0  0  0  0  0  0  0  0  0  0  0  0
  -22.1470   -4.3230   21.2890 F   0  0  0  0  0  0  0  0  0  0  0  0
  -21.3700   -3.7220   25.9630 F   0  0  0  0  0  0  0  0  0  0  0  0
  -22.7430  -13.6230   21.1610 C   0  0  0  0  0  0  0  0  0  0  0  0
  -22.0100  -12.9350   22.0300 N   0  0  0  0  0  0  0  0  0  0  0  0
  -22.3110  -14.6500   20.6380 O   0  0  0  0  0  0  0  0  0  0  0  0
  -22.3710  -12.1030   22.4730 H   0  0  0  0  0  0  0  0  0  0  0  0
  -21.0780  -13.2470   22.2600 H   0  0  0  0  0  0  0  0  0  0  0  0
  -25.3830  -15.2670   20.3390 N   0  0  0  0  0  0  0  0  0  0  0  0
  -24.6220  -15.9290   20.4510 H   0  0  0  0  0  0  0  0  0  0  0  0
  -26.2430  -15.6990   20.0270 H   0  0  0  0  0  0  0  0  0  0  0  0
  -28.1200  -25.0520   19.8060 C   0  0  0  0  0  2  0  0  0  0  0  0
  -28.3110  -26.4710   20.1930 O   0  0  0  0  0  0  0  0  0  0  0  0
  -24.6060  -31.8670   23.2230 C   0  0  0  0  0  0  0  0  0  0  0  0
  -27.1910  -27.3180   20.1370 C   0  0  0  0  0  0  0  0  0  0  0  0
  -23.3880  -30.4710   21.5930 C   0  0  0  0  0  3  0  0  0  0  0  0
  -24.8260  -28.9280   20.1530 C   0  0  0  0  0  0  0  0  0  0  0  0
  -25.9260  -30.7880   21.3930 C   0  0  0  0  0  2  0  0  0  0  0  0
  -25.9990  -29.4130   20.7420 C   0  0  0  0  0  0  0  0  0  0  0  0
  -27.1830  -28.6170   20.7310 C   0  0  0  0  0  3  0  0  0  0  0  0
  -25.9940  -26.8950   19.5090 C   0  0  0  0  0  3  0  0  0  0  0  0
  -24.8240  -27.6750   19.5280 C   0  0  0  0  0  3  0  0  0  0  0  0
  -23.5930  -29.8020   20.2100 C   0  0  0  0  0  2  0  0  0  0  0  0
  -24.6590  -31.0580   22.1260 N   0  0  0  0  0  0  0  0  0  0  0  0
  -23.5290  -32.1460   23.7680 O   0  0  0  0  0  0  0  0  0  0  0  0
  -22.7340  -29.4510   22.5560 C   0  0  0  0  0  0  0  0  0  0  0  0
  -21.4080  -29.2750   22.4420 N   0  0  0  0  0  0  0  0  0  0  0  0
  -23.4200  -28.8220   23.3670 O   0  0  0  0  0  0  0  0  0  0  0  0
  -20.9120  -29.8370   21.7660 H   0  0  0  0  0  0  0  0  0  0  0  0
  -18.0340  -28.0750   22.9580 C   0  0  0  0  0  0  0  0  0  0  0  0
  -20.5930  -28.3390   23.2170 C   0  0  0  0  0  3  0  0  0  0  0  0
  -20.6940  -26.9050   22.6470 C   0  0  0  0  0  2  0  0  0  0  0  0
  -19.5880  -26.5770   21.6380 C   0  0  0  0  0  2  0  0  0  0  0  0
  -18.2090  -26.7220   22.2860 C   0  0  0  0  0  2  0  0  0  0  0  0
  -19.1530  -28.8410   23.3800 C   0  0  0  0  0  0  0  0  0  0  0  0
  -18.9350  -30.1060   23.9670 C   0  0  0  0  0  3  0  0  0  0  0  0
  -17.6300  -30.6070   24.1350 C   0  0  0  0  0  3  0  0  0  0  0  0
  -16.5260  -29.8380   23.7290 C   0  0  0  0  0  3  0  0  0  0  0  0
  -16.7280  -28.5740   23.1460 C   0  0  0  0  0  3  0  0  0  0  0  0
  -25.8950  -32.4990   23.8330 C   0  0  0  0  0  3  0  0  0  0  0  0
  -26.4300  -31.7180   25.0970 C   0  0  1  0  0  0  0  0  0  0  0  0
  -25.3510  -31.4720   26.1760 C   0  0  0  0  0  1  0  0  0  0  0  0
  -27.0120  -30.3440   24.6890 C   0  0  0  0  0  1  0  0  0  0  0  0
  -27.5880  -32.5110   25.7500 C   0  0  0  0  0  1  0  0  0  0  0  0
  -25.5840  -33.8930   24.1790 N   0  0  0  0  0  0  0  0  0  0  0  0
  -25.8980  -34.9540   23.4230 C   0  0  0  0  0  0  0  0  0  0  0  0
  -26.5500  -34.8640   22.3800 O   0  0  0  0  0  0  0  0  0  0  0  0
  -25.0010  -34.0370   24.9910 H   0  0  0  0  0  0  0  0  0  0  0  0
  -24.1490  -36.7380   23.1240 C   0  0  0  0  0  1  0  0  0  0  0  0
  -25.4110  -36.3350   23.9020 C   0  0  0  0  0  3  0  0  0  0  0  0
  -27.5610  -37.2300   24.6830 C   0  0  0  0  0  1  0  0  0  0  0  0
  -26.4330  -37.3970   23.7710 N   0  0  0  0  0  0  0  0  0  0  0  0
  -26.0240  -38.3120   23.9380 H   0  0  0  0  0  0  0  0  0  0  0  0
  1  2  2  0
  3  1  1  0
  3  4  2  0
  5  6  2  0
  5  4  1  0
  7  6  1  0
  7  8  2  0
  9  8  1  0
 10 15  1  0
 11 12  1  0
 11 10  1  0
 13 12  1  0
 13 20  1  0
 13 14  1  0
 15  9  1  0
 15 14  1  0
 16  9  2  0
 17 18  2  0
 18 37  1  0
 19 18  1  0
 19 22  1  0
 20 17  1  0
 20 21  1  0
 21 19  2  0
 22 23  1  0
 23 24  2  0
 25 28  1  0
 25 24  1  0
 26 25  2  0
 27 26  1  0
 27 22  2  0
 28 29  1  0
 29 30  1  0
 30 31  2  0
 32 31  1  0
 32 36  1  0
 33 32  2  0
 34 29  2  0
 34 33  1  0
 35 34  1  0
 37 38  1  0
 38 41  1  0
 38 40  1  0
 39 37  2  0
 42 43  1  0
 42 17  1  0
 44 42  1  0
 45 46  1  0
 45  1  1  0
 47 58  2  0
 48 46  1  0
 48 53  1  0
 49 57  1  0
 49 59  1  0
 50 56  1  0
 50 52  1  0
 51 57  1  0
 52 51  1  0
 53 52  2  0
 54 55  1  0
 54 48  2  0
 55 50  2  0
 56 49  1  0
 57 47  1  0
 59 61  2  0
 60 59  1  0
 62 60  1  0
 63 72  2  0
 63 68  1  0
 64 60  1  0
 64 68  1  0
 65 64  1  0
 66 67  1  0
 66 65  1  0
 67 63  1  0
 68 69  2  0
 69 70  1  0
 71 70  2  0
 72 71  1  0
 73 47  1  0
 73 78  1  0
 73 74  1  0
 74 77  1  1
 74 75  1  0
 76 74  1  0
 78 81  1  0
 79 83  1  0
 79 78  1  0
 80 79  2  0
 83 82  1  0
 85 83  1  0
 85 86  1  0
 85 84  1  0
M  ISO  4   8 100   9 100  45 101  46 101
M  END
>  <TORSDO>  (75) 
F 22

>  <SCORE>  (75) 
-12.907

>  <name>  (75) 
74

>  <ligand_id>  (75) 
74

>  <original_smiles>  (75) 
[H]C(=C([H])C([H])([H])C([H])([H])C(=O)C([H])([H])Oc1c([H])c([H])c2c(c1[H])C([H])([H])N(C(=O)C([H])(N([H])C(=O)C([H])(N([H])C([H])([H])[H])C([H])([H])[H])C(C([H])([H])[H])(C([H])([H])[H])C([H])([H])[H])C([H])(C(=O)N([H])C1([H])c3c([H])c([H])c([H])c([H])c3C([H])([H])C([H])([H])C1([H])[H])C2([H])[H])C([H])([H])C([H])([H])C(=O)N1C([H])([H])C([H])([H])C([H])([H])C([H])(n2nc(-c3c([H])c([H])c(Oc4c([H])c([H])c(F)c([H])c4F)c([H])c3[H])c(C(=O)N([H])[H])c2N([H])[H])C1([H])[H]

>  <smiles>  (75) 
[H]C(=C([H])C([H])([H])C([H])([H])C(=O)C([H])([H])Oc1c([H])c([H])c2c(c1[H])C([H])([H])N(C(=O)C([H])(N([H])C(=O)C([H])(N([H])C([H])([H])[H])C([H])([H])[H])C(C([H])([H])[H])(C([H])([H])[H])C([H])([H])[H])C([H])(C(=O)N([H])C1([H])c3c([H])c([H])c([H])c([H])c3C([H])([H])C([H])([H])C1([H])[H])C2([H])[H])C([H])([H])C([H])([H])C(=O)N1C([H])([H])C([H])([H])C([H])([H])C([H])(n2nc(-c3c([H])c([H])c(Oc4c([H])c([H])c(F)c([H])c4F)c([H])c3[H])c(C(=O)N([H])[H])c2N([H])[H])C1([H])[H]

$$$$
75:0:0
     RDKit          3D

 89 96  0  0  1  0  0  0  0  0999 V2000
  -29.0000  -22.4360   20.5540 N   0  0  0  0  0  4  0  0  0  0  0  0
  -28.0200  -22.2600   20.7240 H   0  0  0  0  0  0  0  0  0  0  0  0
  -29.4230  -22.5570   21.4610 H   0  0  0  0  0  0  0  0  0  0  0  0
  -30.9220  -21.3460   19.2830 C   0  0  0  0  0  1  0  0  0  0  0  0
  -29.5590  -21.1310   19.9570 C   0  0  0  0  0  3  0  0  0  0  0  0
  -29.6310  -19.9810   21.0310 C   0  0  0  0  0  3  0  0  0  0  0  0
  -30.0480  -18.6580   21.1490 C   0  0  0  0  0  0  0  0  0  0  0  0
  -29.9280  -18.0760   22.5580 C   0  0  0  0  0  1  0  0  0  0  0  0
  -30.6510  -17.5920   20.1370 C   0  0  0  0  0  3  0  0  0  0  0  0
  -30.4800  -16.0270   20.5440 C   0  0  0  0  0  3  0  0  0  0  0  0
  -31.1830  -14.8020   19.8020 C   0  0  0  0  0  0  0  0  0  0  0  0
  -30.8450  -12.6090   18.6360 C   0  0  0  0  0  2  0  0  0  0  0  0
  -29.7770  -12.7930   17.5340 C   0  0  0  0  0  2  0  0  0  0  0  0
  -28.3540  -12.6300   18.1060 C   0  0  0  0  0  2  0  0  0  0  0  0
  -28.1440  -13.4440   19.4090 C   0  0  0  0  0  3  0  0  0  0  0  0
  -29.3080  -13.2180   20.3990 C   0  0  0  0  0  2  0  0  0  0  0  0
  -30.5550  -13.5810   19.7120 N   0  0  0  0  0  0  0  0  0  0  0  0
  -32.2740  -14.9760   19.2500 O   0  0  0  0  0  0  0  0  0  0  0  0
  -25.8620  -14.0690   20.4120 C   0  0  0  0  0  0  0  0  0  0  0  0
  -24.8120  -13.3050   20.8480 C   0  0  0  0  0  0  0  0  0  0  0  0
  -25.2210  -11.9460   20.6910 C   0  0  0  0  0  0  0  0  0  0  0  0
  -26.8440  -13.1730   20.0180 N   0  0  0  0  0  0  0  0  0  0  0  0
  -26.4700  -11.8880   20.2450 N   0  0  0  0  0  0  0  0  0  0  0  0
  -24.4750  -10.6960   20.8840 C   0  0  0  0  0  0  0  0  0  0  0  0
  -24.9060   -9.7140   21.8020 C   0  0  0  0  0  3  0  0  0  0  0  0
  -24.1620   -8.5280   21.9840 C   0  0  0  0  0  3  0  0  0  0  0  0
  -22.9720   -8.3170   21.2480 C   0  0  0  0  0  0  0  0  0  0  0  0
  -22.5600   -9.2870   20.3190 C   0  0  0  0  0  3  0  0  0  0  0  0
  -23.3040  -10.4640   20.1340 C   0  0  0  0  0  3  0  0  0  0  0  0
  -22.1990   -7.1840   21.3400 O   0  0  0  0  0  0  0  0  0  0  0  0
  -22.0650   -6.4980   22.5210 C   0  0  0  0  0  0  0  0  0  0  0  0
  -21.5640   -7.1160   23.6880 C   0  0  0  0  0  3  0  0  0  0  0  0
  -21.3770   -6.3570   24.8600 C   0  0  0  0  0  3  0  0  0  0  0  0
  -21.6800   -4.9820   24.8650 C   0  0  0  0  0  0  0  0  0  0  0  0
  -22.1730   -4.3650   23.7020 C   0  0  0  0  0  3  0  0  0  0  0  0
  -22.3620   -5.1210   22.5320 C   0  0  0  0  0  0  0  0  0  0  0  0
  -22.8170   -4.5170   21.4090 F   0  0  0  0  0  0  0  0  0  0  0  0
  -21.4930   -4.2510   25.9890 F   0  0  0  0  0  0  0  0  0  0  0  0
  -23.4680  -13.8050   21.2940 C   0  0  0  0  0  0  0  0  0  0  0  0
  -22.8250  -13.0940   22.2130 N   0  0  0  0  0  0  0  0  0  0  0  0
  -23.0020  -14.8590   20.8640 O   0  0  0  0  0  0  0  0  0  0  0  0
  -23.2160  -12.2400   22.5820 H   0  0  0  0  0  0  0  0  0  0  0  0
  -21.9270  -13.4090   22.5540 H   0  0  0  0  0  0  0  0  0  0  0  0
  -26.0540  -15.4420   20.2970 N   0  0  0  0  0  0  0  0  0  0  0  0
  -25.3290  -16.1120   20.5280 H   0  0  0  0  0  0  0  0  0  0  0  0
  -26.8840  -15.8760   19.9150 H   0  0  0  0  0  0  0  0  0  0  0  0
  -29.0740  -23.7920   19.8370 C   0  0  0  0  0  3  0  0  0  0  0  0
  -28.3080  -25.0160   20.5550 C   0  0  0  0  0  3  0  0  0  0  0  0
  -28.5570  -26.4450   20.1950 O   0  0  0  0  0  0  0  0  0  0  0  0
  -24.8180  -31.8390   23.2750 C   0  0  0  0  0  0  0  0  0  0  0  0
  -27.4560  -27.3210   20.1740 C   0  0  0  0  0  0  0  0  0  0  0  0
  -23.6400  -30.4930   21.5720 C   0  0  0  0  0  3  0  0  0  0  0  0
  -25.1100  -28.9620   20.1420 C   0  0  0  0  0  0  0  0  0  0  0  0
  -26.1860  -30.7900   21.4550 C   0  0  0  0  0  2  0  0  0  0  0  0
  -26.2700  -29.4250   20.7770 C   0  0  0  0  0  0  0  0  0  0  0  0
  -27.4500  -28.6180   20.7800 C   0  0  0  0  0  3  0  0  0  0  0  0
  -26.2790  -26.9190   19.5080 C   0  0  0  0  0  3  0  0  0  0  0  0
  -25.1170  -27.7160   19.4970 C   0  0  0  0  0  3  0  0  0  0  0  0
  -23.8810  -29.8480   20.1820 C   0  0  0  0  0  2  0  0  0  0  0  0
  -24.8990  -31.0560   22.1590 N   0  0  0  0  0  0  0  0  0  0  0  0
  -23.7250  -32.1130   23.7910 O   0  0  0  0  0  0  0  0  0  0  0  0
  -22.9450  -29.4600   22.4920 C   0  0  0  0  0  0  0  0  0  0  0  0
  -21.6190  -29.3040   22.3350 N   0  0  0  0  0  0  0  0  0  0  0  0
  -23.5980  -28.8020   23.3060 O   0  0  0  0  0  0  0  0  0  0  0  0
  -21.1530  -29.8860   21.6530 H   0  0  0  0  0  0  0  0  0  0  0  0
  -18.2200  -28.1270   22.7220 C   0  0  0  0  0  0  0  0  0  0  0  0
  -20.7720  -28.3580   23.0640 C   0  0  0  0  0  3  0  0  0  0  0  0
  -20.8770  -26.9380   22.4600 C   0  0  0  0  0  2  0  0  0  0  0  0
  -19.7990  -26.6470   21.4110 C   0  0  0  0  0  2  0  0  0  0  0  0
  -18.4020  -26.7920   22.0220 C   0  0  0  0  0  2  0  0  0  0  0  0
  -19.3330  -28.8700   23.1970 C   0  0  0  0  0  0  0  0  0  0  0  0
  -19.1090  -30.1220   23.8100 C   0  0  0  0  0  3  0  0  0  0  0  0
  -17.8050  -30.6320   23.9540 C   0  0  0  0  0  3  0  0  0  0  0  0
  -16.7050  -29.8860   23.4950 C   0  0  0  0  0  3  0  0  0  0  0  0
  -16.9130  -28.6350   22.8850 C   0  0  0  0  0  3  0  0  0  0  0  0
  -26.0920  -32.4430   23.9420 C   0  0  0  0  0  3  0  0  0  0  0  0
  -25.7820  -33.8300   24.3160 N   0  0  0  0  0  0  0  0  0  0  0  0
  -26.1280  -34.9080   23.5990 C   0  0  0  0  0  0  0  0  0  0  0  0
  -26.8110  -34.8380   22.5740 O   0  0  0  0  0  0  0  0  0  0  0  0
  -25.1760  -33.9580   25.1140 H   0  0  0  0  0  0  0  0  0  0  0  0
  -24.4060  -36.7160   23.2940 C   0  0  0  0  0  1  0  0  0  0  0  0
  -25.6400  -36.2820   24.1000 C   0  0  0  0  0  3  0  0  0  0  0  0
  -27.7710  -37.1350   24.9750 C   0  0  0  0  0  1  0  0  0  0  0  0
  -26.6760  -37.3350   24.0290 N   0  0  0  0  0  0  0  0  0  0  0  0
  -26.2710  -38.2510   24.2020 H   0  0  0  0  0  0  0  0  0  0  0  0
  -26.5800  -31.6250   25.2000 C   0  0  1  0  0  0  0  0  0  0  0  0
  -25.4630  -31.3420   26.2310 C   0  0  0  0  0  1  0  0  0  0  0  0
  -27.1800  -30.2660   24.7700 C   0  0  0  0  0  1  0  0  0  0  0  0
  -27.7110  -32.3980   25.9200 C   0  0  0  0  0  1  0  0  0  0  0  0
  1  2  1  0
  1  3  1  0
  5  4  1  0
  5  1  1  0
  5  6  1  0
  6  7  2  0
  7  8  1  0
  9 10  2  0
  9  7  1  0
 11 10  1  0
 12 17  1  0
 13 14  1  0
 13 12  1  0
 15 14  1  0
 15 22  1  0
 15 16  1  0
 17 11  1  0
 17 16  1  0
 18 11  2  0
 19 20  2  0
 20 39  1  0
 21 20  1  0
 21 24  1  0
 22 23  1  0
 22 19  1  0
 23 21  2  0
 24 25  1  0
 25 26  2  0
 27 30  1  0
 27 26  1  0
 28 27  2  0
 29 28  1  0
 29 24  2  0
 30 31  1  0
 31 36  2  0
 31 32  1  0
 32 33  2  0
 33 34  1  0
 34 38  1  0
 35 34  2  0
 36 35  1  0
 37 36  1  0
 39 40  1  0
 40 43  1  0
 40 42  1  0
 41 39  2  0
 44 19  1  0
 44 45  1  0
 46 44  1  0
 47  1  1  0
 47 48  2  0
 49 48  1  0
 50 61  2  0
 51 49  1  0
 51 56  1  0
 52 60  1  0
 52 62  1  0
 53 59  1  0
 53 55  1  0
 54 60  1  0
 55 56  2  0
 55 54  1  0
 57 51  2  0
 58 57  1  0
 58 53  2  0
 59 52  1  0
 60 50  1  0
 62 64  2  0
 63 62  1  0
 65 63  1  0
 66 75  2  0
 66 71  1  0
 67 63  1  0
 67 71  1  0
 68 67  1  0
 69 70  1  0
 69 68  1  0
 70 66  1  0
 71 72  2  0
 72 73  1  0
 74 73  2  0
 75 74  1  0
 76 50  1  0
 76 77  1  0
 76 86  1  0
 77 80  1  0
 78 82  1  0
 78 77  1  0
 79 78  2  0
 82 81  1  0
 84 82  1  0
 84 85  1  0
 84 83  1  0
 86 89  1  1
 86 87  1  0
 88 86  1  0
M  ISO  4  10 100  11 100  48 101  49 101
M  END
>  <TORSDO>  (76) 
F 22

>  <SCORE>  (76) 
-10.987

>  <name>  (76) 
75

>  <ligand_id>  (76) 
75

>  <original_smiles>  (76) 
[H]C(=C(C([H])([H])[H])C([H])([H])C([H])([H])C(=O)N1C([H])([H])C([H])([H])C([H])([H])C([H])(n2nc(-c3c([H])c([H])c(Oc4c([H])c([H])c(F)c([H])c4F)c([H])c3[H])c(C(=O)N([H])[H])c2N([H])[H])C1([H])[H])C([H])(C([H])([H])[H])[N+]([H])([H])C([H])([H])C([H])([H])Oc1c([H])c([H])c2c(c1[H])C([H])([H])N(C(=O)C([H])(N([H])C(=O)C([H])(N([H])C([H])([H])[H])C([H])([H])[H])C(C([H])([H])[H])(C([H])([H])[H])C([H])([H])[H])C([H])(C(=O)N([H])C1([H])c3c([H])c([H])c([H])c([H])c3C([H])([H])C([H])([H])C1([H])[H])C2([H])[H]

>  <smiles>  (76) 
[H]C(=C(C([H])([H])[H])C([H])([H])C([H])([H])C(=O)N1C([H])([H])C([H])([H])C([H])([H])C([H])(n2nc(-c3c([H])c([H])c(Oc4c([H])c([H])c(F)c([H])c4F)c([H])c3[H])c(C(=O)N([H])[H])c2N([H])[H])C1([H])[H])C([H])(C([H])([H])[H])[N+]([H])([H])C([H])([H])C([H])([H])Oc1c([H])c([H])c2c(c1[H])C([H])([H])N(C(=O)C([H])(N([H])C(=O)C([H])(N([H])C([H])([H])[H])C([H])([H])[H])C(C([H])([H])[H])(C([H])([H])[H])C([H])([H])[H])C([H])(C(=O)N([H])C1([H])c3c([H])c([H])c([H])c([H])c3C([H])([H])C([H])([H])C1([H])[H])C2([H])[H]

$$$$
76:0:0
     RDKit          3D

 96105  0  0  1  0  0  0  0  0999 V2000
  -28.5200  -22.1360   22.5140 C   0  0  0  0  0  3  0  0  0  0  0  0
  -27.6480  -23.2300   22.3540 C   0  0  0  0  0  3  0  0  0  0  0  0
  -30.0170  -23.0990   20.8660 C   0  0  0  0  0  3  0  0  0  0  0  0
  -29.6990  -22.0500   21.7450 C   0  0  0  0  0  0  0  0  0  0  0  0
  -29.1610  -24.2020   20.7180 C   0  0  0  0  0  0  0  0  0  0  0  0
  -27.9490  -24.2720   21.4410 C   0  0  0  0  0  0  0  0  0  0  0  0
  -25.8430  -25.3730   21.8460 C   0  0  0  0  0  1  0  0  0  0  0  0
  -27.1160  -25.3480   21.2060 O   0  0  0  0  0  0  0  0  0  0  0  0
  -30.6410  -20.8610   21.8060 C   0  0  0  0  0  2  0  0  0  0  0  0
  -29.9750  -19.4790   21.9790 C   0  0  0  0  0  2  0  0  0  0  0  0
  -32.0580  -14.7200   19.4660 C   0  0  0  0  0  0  0  0  0  0  0  0
  -31.5900  -12.4390   18.6440 C   0  0  0  0  0  2  0  0  0  0  0  0
  -30.5580  -12.4890   17.5000 C   0  0  0  0  0  2  0  0  0  0  0  0
  -29.1240  -12.4490   18.0630 C   0  0  0  0  0  2  0  0  0  0  0  0
  -28.9070  -13.4870   19.1960 C   0  0  0  0  0  3  0  0  0  0  0  0
  -30.0380  -13.4020   20.2390 C   0  0  0  0  0  2  0  0  0  0  0  0
  -31.3270  -13.5740   19.5450 N   0  0  0  0  0  0  0  0  0  0  0  0
  -33.0480  -14.8190   18.7320 O   0  0  0  0  0  0  0  0  0  0  0  0
  -30.6710  -18.1510   19.9150 C   0  0  0  0  0  2  0  0  0  0  0  0
  -30.6930  -16.9910   22.1210 C   0  0  0  0  0  2  0  0  0  0  0  0
  -31.6560  -17.1050   19.3710 C   0  0  0  0  0  2  0  0  0  0  0  0
  -31.6950  -15.9650   21.5400 C   0  0  0  0  0  2  0  0  0  0  0  0
  -30.8740  -18.3510   21.4260 C   0  0  0  0  0  3  0  0  0  0  0  0
  -31.5430  -15.8170   20.0800 N   0  0  0  0  0  0  0  0  0  0  0  0
  -26.6950  -14.3070   20.2270 C   0  0  0  0  0  0  0  0  0  0  0  0
  -25.5970  -13.6300   20.6910 C   0  0  0  0  0  0  0  0  0  0  0  0
  -25.8950  -12.2430   20.5370 C   0  0  0  0  0  0  0  0  0  0  0  0
  -27.5970  -13.3330   19.8230 N   0  0  0  0  0  0  0  0  0  0  0  0
  -27.1240  -12.0830   20.0620 N   0  0  0  0  0  0  0  0  0  0  0  0
  -25.0590  -11.0550   20.7580 C   0  0  0  0  0  0  0  0  0  0  0  0
  -25.4040  -10.0780   21.7180 C   0  0  0  0  0  3  0  0  0  0  0  0
  -24.5740   -8.9560   21.9250 C   0  0  0  0  0  3  0  0  0  0  0  0
  -23.3850   -8.8010   21.1710 C   0  0  0  0  0  0  0  0  0  0  0  0
  -23.0600   -9.7670   20.2010 C   0  0  0  0  0  3  0  0  0  0  0  0
  -23.8890  -10.8820   19.9930 C   0  0  0  0  0  3  0  0  0  0  0  0
  -22.5310   -7.7310   21.2860 O   0  0  0  0  0  0  0  0  0  0  0  0
  -22.1860   -7.2130   22.5080 C   0  0  0  0  0  0  0  0  0  0  0  0
  -21.6390   -8.0190   23.5310 C   0  0  0  0  0  3  0  0  0  0  0  0
  -21.2320   -7.4330   24.7460 C   0  0  0  0  0  3  0  0  0  0  0  0
  -21.3660   -6.0460   24.9390 C   0  0  0  0  0  0  0  0  0  0  0  0
  -21.9050   -5.2410   23.9200 C   0  0  0  0  0  3  0  0  0  0  0  0
  -22.3140   -5.8240   22.7070 C   0  0  0  0  0  0  0  0  0  0  0  0
  -22.8140   -5.0410   21.7210 F   0  0  0  0  0  0  0  0  0  0  0  0
  -20.9680   -5.4810   26.1030 F   0  0  0  0  0  0  0  0  0  0  0  0
  -24.3080  -14.2360   21.1640 C   0  0  0  0  0  0  0  0  0  0  0  0
  -23.6460  -13.5940   22.1220 N   0  0  0  0  0  0  0  0  0  0  0  0
  -23.9040  -15.3090   20.7200 O   0  0  0  0  0  0  0  0  0  0  0  0
  -23.9900  -12.7240   22.4990 H   0  0  0  0  0  0  0  0  0  0  0  0
  -22.7840  -13.9780   22.4800 H   0  0  0  0  0  0  0  0  0  0  0  0
  -26.9910  -15.6590   20.0980 N   0  0  0  0  0  0  0  0  0  0  0  0
  -26.3260  -16.3840   20.3430 H   0  0  0  0  0  0  0  0  0  0  0  0
  -27.8590  -16.0240   19.7260 H   0  0  0  0  0  0  0  0  0  0  0  0
  -29.5560  -25.2800   19.7270 C   0  0  0  0  0  2  0  0  0  0  0  0
  -28.7780  -25.1310   18.4210 C   0  0  0  0  0  2  0  0  0  0  0  0
  -29.1670  -26.1810   17.3750 C   0  0  0  0  0  2  0  0  0  0  0  0
  -28.0050  -26.5290   16.6430 O   0  0  0  0  0  0  0  0  0  0  0  0
  -25.8970  -29.5450   22.7580 C   0  0  0  0  0  0  0  0  0  0  0  0
  -27.0120  -27.1210   17.3800 C   0  0  0  0  0  0  0  0  0  0  0  0
  -24.1170  -29.0730   21.1050 C   0  0  0  0  0  3  0  0  0  0  0  0
  -24.9180  -28.3780   18.7860 C   0  0  0  0  0  0  0  0  0  0  0  0
  -26.5210  -29.5000   20.3530 C   0  0  0  0  0  2  0  0  0  0  0  0
  -26.2460  -28.5850   19.1770 C   0  0  0  0  0  0  0  0  0  0  0  0
  -27.2990  -27.9590   18.4790 C   0  0  0  0  0  3  0  0  0  0  0  0
  -25.6720  -26.9130   17.0000 C   0  0  0  0  0  3  0  0  0  0  0  0
  -24.6210  -27.5300   17.7040 C   0  0  0  0  0  3  0  0  0  0  0  0
  -23.8570  -29.1090   19.5740 C   0  0  0  0  0  2  0  0  0  0  0  0
  -25.5470  -29.3590   21.4560 N   0  0  0  0  0  0  0  0  0  0  0  0
  -25.0450  -29.5350   23.6580 O   0  0  0  0  0  0  0  0  0  0  0  0
  -23.6070  -27.7230   21.6530 C   0  0  0  0  0  0  0  0  0  0  0  0
  -22.2830  -27.5170   21.5810 N   0  0  0  0  0  0  0  0  0  0  0  0
  -24.3920  -26.8820   22.0990 O   0  0  0  0  0  0  0  0  0  0  0  0
  -21.7070  -28.2610   21.2090 H   0  0  0  0  0  0  0  0  0  0  0  0
  -19.0640  -25.8710   21.5740 C   0  0  0  0  0  0  0  0  0  0  0  0
  -21.5780  -26.3050   21.9930 C   0  0  0  0  0  3  0  0  0  0  0  0
  -21.8420  -25.1480   21.0010 C   0  0  0  0  0  2  0  0  0  0  0  0
  -20.7760  -25.0340   19.9070 C   0  0  0  0  0  2  0  0  0  0  0  0
  -19.3900  -24.8210   20.5240 C   0  0  0  0  0  2  0  0  0  0  0  0
  -20.0920  -26.5770   22.2530 C   0  0  0  0  0  0  0  0  0  0  0  0
  -19.7370  -27.5640   23.1960 C   0  0  0  0  0  3  0  0  0  0  0  0
  -18.3850  -27.8530   23.4610 C   0  0  0  0  0  3  0  0  0  0  0  0
  -17.3720  -27.1430   22.7950 C   0  0  0  0  0  3  0  0  0  0  0  0
  -17.7110  -26.1490   21.8600 C   0  0  0  0  0  3  0  0  0  0  0  0
  -27.3770  -29.8050   23.1810 C   0  0  0  0  0  3  0  0  0  0  0  0
  -27.3610  -30.8500   24.2120 N   0  0  0  0  0  0  0  0  0  0  0  0
  -27.7230  -32.1230   24.0090 C   0  0  0  0  0  0  0  0  0  0  0  0
  -28.1810  -32.5260   22.9350 O   0  0  0  0  0  0  0  0  0  0  0  0
  -26.9510  -30.6030   25.1000 H   0  0  0  0  0  0  0  0  0  0  0  0
  -26.2910  -33.9530   24.9680 C   0  0  0  0  0  1  0  0  0  0  0  0
  -27.5540  -33.1040   25.1830 C   0  0  0  0  0  3  0  0  0  0  0  0
  -29.9110  -33.2840   25.8510 C   0  0  0  0  0  1  0  0  0  0  0  0
  -28.7210  -33.9910   25.3850 N   0  0  0  0  0  0  0  0  0  0  0  0
  -28.5030  -34.7250   26.0540 H   0  0  0  0  0  0  0  0  0  0  0  0
  -28.1140  -28.5130   23.7030 C   0  0  1  0  0  0  0  0  0  0  0  0
  -27.2990  -27.7130   24.7480 C   0  0  0  0  0  1  0  0  0  0  0  0
  -28.4420  -27.5600   22.5290 C   0  0  0  0  0  1  0  0  0  0  0  0
  -29.4650  -28.9040   24.3480 C   0  0  0  0  0  1  0  0  0  0  0  0
  2  1  1  0
  3  4  1  0
  4  9  1  0
  4  1  2  0
  5  3  2  0
  5  6  1  0
  6  2  2  0
  8  6  1  0
  8  7  1  0
  9 10  1  0
 11 17  1  0
 11 24  1  0
 12 17  1  0
 13 14  1  0
 13 12  1  0
 15 14  1  0
 15 28  1  0
 15 16  1  0
 17 16  1  0
 18 11  2  0
 19 23  1  0
 21 19  1  0
 21 24  1  0
 22 20  1  0
 23 10  1  0
 23 20  1  0
 24 22  1  0
 25 26  2  0
 26 45  1  0
 27 26  1  0
 27 30  1  0
 28 29  1  0
 28 25  1  0
 29 27  2  0
 30 31  1  0
 31 32  2  0
 33 36  1  0
 33 32  1  0
 34 33  2  0
 35 34  1  0
 35 30  2  0
 36 37  1  0
 37 42  2  0
 37 38  1  0
 38 39  2  0
 39 40  1  0
 40 44  1  0
 41 40  2  0
 42 41  1  0
 43 42  1  0
 45 46  1  0
 46 49  1  0
 46 48  1  0
 47 45  2  0
 50 25  1  0
 50 51  1  0
 52 50  1  0
 53  5  1  0
 54 53  1  0
 55 54  1  0
 56 55  1  0
 56 58  1  0
 57 68  2  0
 58 63  1  0
 59 67  1  0
 59 69  1  0
 60 62  1  0
 60 66  1  0
 61 67  1  0
 62 61  1  0
 63 62  2  0
 64 58  2  0
 64 65  1  0
 65 60  2  0
 66 59  1  0
 67 57  1  0
 69 71  2  0
 70 69  1  0
 72 70  1  0
 73 82  2  0
 73 78  1  0
 74 70  1  0
 74 78  1  0
 75 74  1  0
 76 77  1  0
 76 75  1  0
 77 73  1  0
 78 79  2  0
 79 80  1  0
 81 80  2  0
 82 81  1  0
 83 57  1  0
 83 93  1  0
 83 84  1  0
 84 87  1  0
 85 84  1  0
 85 89  1  0
 86 85  2  0
 89 88  1  0
 89 91  1  0
 91 90  1  0
 91 92  1  0
 93 96  1  1
 93 94  1  0
 95 93  1  0
M  ISO  4  11 100  24 100  55 101  56 101
M  END
>  <TORSDO>  (77) 
F 22

>  <SCORE>  (77) 
-7.440

>  <name>  (77) 
76

>  <ligand_id>  (77) 
76

>  <original_smiles>  (77) 
[H]c1c([H])c([H])c2c(c1[H])C([H])([H])C([H])([H])C([H])([H])C2([H])N([H])C(=O)C1([H])N(C(=O)C([H])(N([H])C(=O)C([H])(N([H])C([H])([H])[H])C([H])([H])[H])C(C([H])([H])[H])(C([H])([H])[H])C([H])([H])[H])C([H])([H])c2c([H])c(OC([H])([H])C([H])([H])C([H])([H])c3c([H])c(C([H])([H])C([H])([H])C4([H])C([H])([H])C([H])([H])N(C(=O)N5C([H])([H])C([H])([H])C([H])([H])C([H])(n6nc(-c7c([H])c([H])c(Oc8c([H])c([H])c(F)c([H])c8F)c([H])c7[H])c(C(=O)N([H])[H])c6N([H])[H])C5([H])[H])C([H])([H])C4([H])[H])c([H])c([H])c3OC([H])([H])[H])c([H])c([H])c2C1([H])[H]

>  <smiles>  (77) 
[H]c1c([H])c([H])c2c(c1[H])C([H])([H])C([H])([H])C([H])([H])C2([H])N([H])C(=O)C1([H])N(C(=O)C([H])(N([H])C(=O)C([H])(N([H])C([H])([H])[H])C([H])([H])[H])C(C([H])([H])[H])(C([H])([H])[H])C([H])([H])[H])C([H])([H])c2c([H])c(OC([H])([H])C([H])([H])C([H])([H])c3c([H])c(C([H])([H])C([H])([H])C4([H])C([H])([H])C([H])([H])N(C(=O)N5C([H])([H])C([H])([H])C([H])([H])C([H])(n6nc(-c7c([H])c([H])c(Oc8c([H])c([H])c(F)c([H])c8F)c([H])c7[H])c(C(=O)N([H])[H])c6N([H])[H])C5([H])[H])C([H])([H])C4([H])[H])c([H])c([H])c3OC([H])([H])[H])c([H])c([H])c2C1([H])[H]

$$$$
77:0:0
     RDKit          3D

 95104  0  0  1  0  0  0  0  0999 V2000
  -28.8600  -21.4440   22.2320 C   0  0  0  0  0  3  0  0  0  0  0  0
  -30.7220  -22.8020   23.0270 C   0  0  0  0  0  3  0  0  0  0  0  0
  -28.0410  -22.5890   22.2010 C   0  0  0  0  0  3  0  0  0  0  0  0
  -29.9040  -23.9470   22.9900 C   0  0  0  0  0  3  0  0  0  0  0  0
  -30.2130  -21.5490   22.6230 C   0  0  0  0  0  0  0  0  0  0  0  0
  -28.5690  -23.8500   22.5470 C   0  0  0  0  0  0  0  0  0  0  0  0
  -31.1400  -20.3530   22.4970 C   0  0  0  0  0  2  0  0  0  0  0  0
  -30.4730  -18.9700   22.6830 C   0  0  0  0  0  2  0  0  0  0  0  0
  -32.1020  -14.4520   19.5080 C   0  0  0  0  0  0  0  0  0  0  0  0
  -31.4880  -12.2500   18.5690 C   0  0  0  0  0  2  0  0  0  0  0  0
  -30.4840  -12.3930   17.4090 C   0  0  0  0  0  2  0  0  0  0  0  0
  -29.0430  -12.3990   17.9480 C   0  0  0  0  0  2  0  0  0  0  0  0
  -28.8560  -13.4100   19.1070 C   0  0  0  0  0  3  0  0  0  0  0  0
  -29.9630  -13.2580   20.1670 C   0  0  0  0  0  2  0  0  0  0  0  0
  -31.2790  -13.3650   19.5080 N   0  0  0  0  0  0  0  0  0  0  0  0
  -33.0660  -14.5430   18.7360 O   0  0  0  0  0  0  0  0  0  0  0  0
  -31.2310  -17.9430   20.4730 C   0  0  0  0  0  2  0  0  0  0  0  0
  -30.8560  -16.4270   22.4170 C   0  0  0  0  0  2  0  0  0  0  0  0
  -32.1010  -16.8570   19.8190 C   0  0  0  0  0  2  0  0  0  0  0  0
  -31.8010  -15.3970   21.7590 C   0  0  0  0  0  2  0  0  0  0  0  0
  -31.2840  -17.8450   22.0070 C   0  0  0  0  0  3  0  0  0  0  0  0
  -31.7490  -15.5040   20.2890 N   0  0  0  0  0  0  0  0  0  0  0  0
  -26.6480  -14.2990   20.0850 C   0  0  0  0  0  0  0  0  0  0  0  0
  -25.5270  -13.6580   20.5410 C   0  0  0  0  0  0  0  0  0  0  0  0
  -25.7950  -12.2600   20.4200 C   0  0  0  0  0  0  0  0  0  0  0  0
  -27.5310  -13.2970   19.7120 N   0  0  0  0  0  0  0  0  0  0  0  0
  -27.0270  -12.0640   19.9700 N   0  0  0  0  0  0  0  0  0  0  0  0
  -24.9280  -11.0970   20.6460 C   0  0  0  0  0  0  0  0  0  0  0  0
  -25.2910  -10.0670   21.5410 C   0  0  0  0  0  3  0  0  0  0  0  0
  -24.4310   -8.9670   21.7530 C   0  0  0  0  0  3  0  0  0  0  0  0
  -23.1930   -8.8930   21.0700 C   0  0  0  0  0  0  0  0  0  0  0  0
  -22.8470   -9.9100   20.1640 C   0  0  0  0  0  3  0  0  0  0  0  0
  -23.7060  -11.0000   19.9500 C   0  0  0  0  0  3  0  0  0  0  0  0
  -22.3060   -7.8510   21.1950 O   0  0  0  0  0  0  0  0  0  0  0  0
  -22.1500   -7.1750   22.3780 C   0  0  0  0  0  0  0  0  0  0  0  0
  -21.8280   -7.8410   23.5810 C   0  0  0  0  0  3  0  0  0  0  0  0
  -21.6090   -7.1000   24.7600 C   0  0  0  0  0  3  0  0  0  0  0  0
  -21.7030   -5.6960   24.7370 C   0  0  0  0  0  0  0  0  0  0  0  0
  -22.0180   -5.0310   23.5390 C   0  0  0  0  0  3  0  0  0  0  0  0
  -22.2390   -5.7680   22.3630 C   0  0  0  0  0  0  0  0  0  0  0  0
  -22.5210   -5.1210   21.2060 F   0  0  0  0  0  0  0  0  0  0  0  0
  -21.4850   -4.9830   25.8660 F   0  0  0  0  0  0  0  0  0  0  0  0
  -24.2430  -14.3020   20.9760 C   0  0  0  0  0  0  0  0  0  0  0  0
  -23.5500  -13.7010   21.9360 N   0  0  0  0  0  0  0  0  0  0  0  0
  -23.8680  -15.3720   20.4960 O   0  0  0  0  0  0  0  0  0  0  0  0
  -23.8670  -12.8330   22.3430 H   0  0  0  0  0  0  0  0  0  0  0  0
  -22.6900  -14.1140   22.2710 H   0  0  0  0  0  0  0  0  0  0  0  0
  -26.9800  -15.6410   19.9360 N   0  0  0  0  0  0  0  0  0  0  0  0
  -26.3390  -16.3890   20.1710 H   0  0  0  0  0  0  0  0  0  0  0  0
  -27.8550  -15.9750   19.5460 H   0  0  0  0  0  0  0  0  0  0  0  0
  -27.7310  -25.1070   22.3810 C   0  0  0  0  0  2  0  0  0  0  0  0
  -28.3450  -26.1050   21.3790 C   0  0  0  0  0  2  0  0  0  0  0  0
  -28.7260  -25.4810   20.0240 C   0  0  0  0  0  2  0  0  0  0  0  0
  -29.1240  -26.5110   18.9550 C   0  0  0  0  0  2  0  0  0  0  0  0
  -28.0090  -26.7490   18.1030 O   0  0  0  0  0  0  0  0  0  0  0  0
  -25.4950  -31.2060   23.0890 C   0  0  0  0  0  0  0  0  0  0  0  0
  -26.9950  -27.5320   18.5890 C   0  0  0  0  0  0  0  0  0  0  0  0
  -23.8600  -30.4060   21.4110 C   0  0  0  0  0  3  0  0  0  0  0  0
  -24.8450  -29.1600   19.4170 C   0  0  0  0  0  0  0  0  0  0  0  0
  -26.3440  -30.5720   20.8370 C   0  0  0  0  0  2  0  0  0  0  0  0
  -26.1400  -29.4090   19.8940 C   0  0  0  0  0  0  0  0  0  0  0  0
  -27.2180  -28.5970   19.4890 C   0  0  0  0  0  3  0  0  0  0  0  0
  -25.6910  -27.2880   18.1140 C   0  0  0  0  0  3  0  0  0  0  0  0
  -24.6130  -28.0930   18.5300 C   0  0  0  0  0  3  0  0  0  0  0  0
  -23.7500  -30.0870   19.8960 C   0  0  0  0  0  2  0  0  0  0  0  0
  -25.2610  -30.7250   21.8350 N   0  0  0  0  0  0  0  0  0  0  0  0
  -24.5620  -31.4320   23.8710 O   0  0  0  0  0  0  0  0  0  0  0  0
  -23.2290  -29.2380   22.2020 C   0  0  0  0  0  0  0  0  0  0  0  0
  -21.8900  -29.1550   22.1740 N   0  0  0  0  0  0  0  0  0  0  0  0
  -23.9360  -28.4160   22.7900 O   0  0  0  0  0  0  0  0  0  0  0  0
  -21.3790  -29.8720   21.6770 H   0  0  0  0  0  0  0  0  0  0  0  0
  -18.5090  -27.9570   22.5790 C   0  0  0  0  0  0  0  0  0  0  0  0
  -21.0790  -28.1140   22.8030 C   0  0  0  0  0  3  0  0  0  0  0  0
  -21.1280  -26.8010   21.9890 C   0  0  0  0  0  2  0  0  0  0  0  0
  -19.9890  -26.6880   20.9700 C   0  0  0  0  0  2  0  0  0  0  0  0
  -18.6320  -26.7390   21.6780 C   0  0  0  0  0  2  0  0  0  0  0  0
  -19.6590  -28.6120   23.0940 C   0  0  0  0  0  0  0  0  0  0  0  0
  -19.4910  -29.7650   23.8920 C   0  0  0  0  0  3  0  0  0  0  0  0
  -18.2060  -30.2590   24.1800 C   0  0  0  0  0  3  0  0  0  0  0  0
  -17.0690  -29.5970   23.6840 C   0  0  0  0  0  3  0  0  0  0  0  0
  -17.2220  -28.4470   22.8880 C   0  0  0  0  0  3  0  0  0  0  0  0
  -26.9410  -31.5180   23.5890 C   0  0  0  0  0  3  0  0  0  0  0  0
  -26.8790  -32.7600   24.3700 N   0  0  0  0  0  0  0  0  0  0  0  0
  -27.2760  -33.9600   23.9240 C   0  0  0  0  0  0  0  0  0  0  0  0
  -27.8080  -34.1200   22.8220 O   0  0  0  0  0  0  0  0  0  0  0  0
  -26.4090  -32.7100   25.2630 H   0  0  0  0  0  0  0  0  0  0  0  0
  -25.8280  -35.9680   24.3500 C   0  0  0  0  0  1  0  0  0  0  0  0
  -27.0450  -35.1720   24.8460 C   0  0  0  0  0  3  0  0  0  0  0  0
  -29.3430  -35.4580   25.6550 C   0  0  0  0  0  1  0  0  0  0  0  0
  -28.2190  -36.0650   24.9490 N   0  0  0  0  0  0  0  0  0  0  0  0
  -27.9760  -36.9280   25.4280 H   0  0  0  0  0  0  0  0  0  0  0  0
  -27.5690  -30.3500   24.4460 C   0  0  1  0  0  0  0  0  0  0  0  0
  -26.6580  -29.8630   25.5970 C   0  0  0  0  0  1  0  0  0  0  0  0
  -27.8900  -29.1300   23.5500 C   0  0  0  0  0  1  0  0  0  0  0  0
  -28.9120  -30.8110   25.0610 C   0  0  0  0  0  1  0  0  0  0  0  0
  1  5  1  0
  3  1  2  0
  3  6  1  0
  4  2  1  0
  5  2  2  0
  6  4  2  0
  7  5  1  0
  7  8  1  0
  9 15  1  0
  9 22  1  0
 10 15  1  0
 11 12  1  0
 11 10  1  0
 13 12  1  0
 13 26  1  0
 13 14  1  0
 15 14  1  0
 16  9  2  0
 17 21  1  0
 19 22  1  0
 19 17  1  0
 20 18  1  0
 21 18  1  0
 21  8  1  0
 22 20  1  0
 23 24  2  0
 24 43  1  0
 25 24  1  0
 25 28  1  0
 26 27  1  0
 26 23  1  0
 27 25  2  0
 28 29  1  0
 29 30  2  0
 31 34  1  0
 31 30  1  0
 32 31  2  0
 33 32  1  0
 33 28  2  0
 34 35  1  0
 35 36  1  0
 36 37  2  0
 38 37  1  0
 38 42  1  0
 39 38  2  0
 40 35  2  0
 40 39  1  0
 41 40  1  0
 43 44  1  0
 44 47  1  0
 44 46  1  0
 45 43  2  0
 48 23  1  0
 48 49  1  0
 50 48  1  0
 51  6  1  0
 52 51  1  0
 53 52  1  0
 54 53  1  0
 55 57  1  0
 55 54  1  0
 56 67  2  0
 57 62  1  0
 58 66  1  0
 58 68  1  0
 59 61  1  0
 59 65  1  0
 60 66  1  0
 61 60  1  0
 62 61  2  0
 63 64  1  0
 63 57  2  0
 64 59  2  0
 65 58  1  0
 66 56  1  0
 68 70  2  0
 69 68  1  0
 71 69  1  0
 72 81  2  0
 72 77  1  0
 73 69  1  0
 73 77  1  0
 74 73  1  0
 75 76  1  0
 75 74  1  0
 76 72  1  0
 77 78  2  0
 78 79  1  0
 80 79  2  0
 81 80  1  0
 82 56  1  0
 82 83  1  0
 82 92  1  0
 83 86  1  0
 84 83  1  0
 84 88  1  0
 85 84  2  0
 88 87  1  0
 88 90  1  0
 90 91  1  0
 90 89  1  0
 92 95  1  1
 92 93  1  0
 94 92  1  0
M  ISO  4   9 100  22 100  54 101  55 101
M  END
>  <TORSDO>  (78) 
F 22

>  <SCORE>  (78) 
-7.493

>  <name>  (78) 
77

>  <ligand_id>  (78) 
77

>  <original_smiles>  (78) 
[H]c1c([H])c([H])c2c(c1[H])C([H])([H])C([H])([H])C([H])([H])C2([H])N([H])C(=O)C1([H])N(C(=O)C([H])(N([H])C(=O)C([H])(N([H])C([H])([H])[H])C([H])([H])[H])C(C([H])([H])[H])(C([H])([H])[H])C([H])([H])[H])C([H])([H])c2c([H])c(OC([H])([H])C([H])([H])C([H])([H])C([H])([H])c3c([H])c([H])c(C([H])([H])C([H])([H])C4([H])C([H])([H])C([H])([H])N(C(=O)N5C([H])([H])C([H])([H])C([H])([H])C([H])(n6nc(-c7c([H])c([H])c(Oc8c([H])c([H])c(F)c([H])c8F)c([H])c7[H])c(C(=O)N([H])[H])c6N([H])[H])C5([H])[H])C([H])([H])C4([H])[H])c([H])c3[H])c([H])c([H])c2C1([H])[H]

>  <smiles>  (78) 
[H]c1c([H])c([H])c2c(c1[H])C([H])([H])C([H])([H])C([H])([H])C2([H])N([H])C(=O)C1([H])N(C(=O)C([H])(N([H])C(=O)C([H])(N([H])C([H])([H])[H])C([H])([H])[H])C(C([H])([H])[H])(C([H])([H])[H])C([H])([H])[H])C([H])([H])c2c([H])c(OC([H])([H])C([H])([H])C([H])([H])C([H])([H])c3c([H])c([H])c(C([H])([H])C([H])([H])C4([H])C([H])([H])C([H])([H])N(C(=O)N5C([H])([H])C([H])([H])C([H])([H])C([H])(n6nc(-c7c([H])c([H])c(Oc8c([H])c([H])c(F)c([H])c8F)c([H])c7[H])c(C(=O)N([H])[H])c6N([H])[H])C5([H])[H])C([H])([H])C4([H])[H])c([H])c3[H])c([H])c([H])c2C1([H])[H]

$$$$
78:0:0
     RDKit          3D

100108  0  0  1  0  0  0  0  0999 V2000
  -29.5900  -25.5570   24.2400 C   0  0  0  0  0  3  0  0  0  0  0  0
  -30.2230  -24.8080   25.2500 C   0  0  0  0  0  3  0  0  0  0  0  0
  -28.3850  -23.5620   23.5390 C   0  0  0  0  0  3  0  0  0  0  0  0
  -28.6760  -24.9300   23.3710 C   0  0  0  0  0  0  0  0  0  0  0  0
  -29.9470  -23.4320   25.4150 C   0  0  0  0  0  0  0  0  0  0  0  0
  -29.0080  -22.8050   24.5510 C   0  0  0  0  0  0  0  0  0  0  0  0
  -28.6340  -21.3310   24.6420 C   0  0  0  0  0  1  0  0  0  0  0  0
  -28.0010  -25.7040   22.2510 C   0  0  0  0  0  2  0  0  0  0  0  0
  -28.9850  -26.4330   21.3110 C   0  0  0  0  0  2  0  0  0  0  0  0
  -28.3820  -26.7170   20.0490 O   0  0  0  0  0  0  0  0  0  0  0  0
  -24.6080  -31.8690   23.2140 C   0  0  0  0  0  0  0  0  0  0  0  0
  -27.2440  -27.4810   20.0890 C   0  0  0  0  0  0  0  0  0  0  0  0
  -23.3960  -30.4900   21.5520 C   0  0  0  0  0  3  0  0  0  0  0  0
  -24.8480  -28.9620   20.1150 C   0  0  0  0  0  0  0  0  0  0  0  0
  -25.9190  -30.8470   21.3630 C   0  0  0  0  0  2  0  0  0  0  0  0
  -26.0000  -29.4830   20.7190 C   0  0  0  0  0  0  0  0  0  0  0  0
  -27.2000  -28.7440   20.7170 C   0  0  0  0  0  3  0  0  0  0  0  0
  -26.0850  -26.9710   19.4720 C   0  0  0  0  0  3  0  0  0  0  0  0
  -24.8820  -27.7010   19.4930 C   0  0  0  0  0  3  0  0  0  0  0  0
  -23.6040  -29.8190   20.1660 C   0  0  0  0  0  2  0  0  0  0  0  0
  -24.6580  -31.0830   22.1020 N   0  0  0  0  0  0  0  0  0  0  0  0
  -23.5280  -32.1410   23.7560 O   0  0  0  0  0  0  0  0  0  0  0  0
  -22.7370  -29.4640   22.5000 C   0  0  0  0  0  0  0  0  0  0  0  0
  -21.4100  -29.3010   22.3750 N   0  0  0  0  0  0  0  0  0  0  0  0
  -23.4160  -28.8180   23.3030 O   0  0  0  0  0  0  0  0  0  0  0  0
  -20.9240  -29.8760   21.7010 H   0  0  0  0  0  0  0  0  0  0  0  0
  -18.0260  -28.1370   22.8490 C   0  0  0  0  0  0  0  0  0  0  0  0
  -20.5840  -28.3640   23.1340 C   0  0  0  0  0  3  0  0  0  0  0  0
  -20.6750  -26.9380   22.5430 C   0  0  0  0  0  2  0  0  0  0  0  0
  -19.5740  -26.6380   21.5200 C   0  0  0  0  0  2  0  0  0  0  0  0
  -18.1910  -26.7930   22.1590 C   0  0  0  0  0  2  0  0  0  0  0  0
  -19.1510  -28.8820   23.2920 C   0  0  0  0  0  0  0  0  0  0  0  0
  -18.9440  -30.1430   23.8920 C   0  0  0  0  0  3  0  0  0  0  0  0
  -17.6440  -30.6580   24.0570 C   0  0  0  0  0  3  0  0  0  0  0  0
  -16.5330  -29.9080   23.6320 C   0  0  0  0  0  3  0  0  0  0  0  0
  -16.7250  -28.6500   23.0340 C   0  0  0  0  0  3  0  0  0  0  0  0
  -25.8980  -32.4840   23.8420 C   0  0  0  0  0  3  0  0  0  0  0  0
  -25.5850  -33.8650   24.2340 N   0  0  0  0  0  0  0  0  0  0  0  0
  -25.9020  -34.9490   23.5150 C   0  0  0  0  0  0  0  0  0  0  0  0
  -26.5590  -34.8930   22.4720 O   0  0  0  0  0  0  0  0  0  0  0  0
  -24.9970  -33.9820   25.0470 H   0  0  0  0  0  0  0  0  0  0  0  0
  -24.1470  -36.7340   23.2650 C   0  0  0  0  0  1  0  0  0  0  0  0
  -25.4100  -36.3130   24.0350 C   0  0  0  0  0  3  0  0  0  0  0  0
  -27.5580  -37.1830   24.8460 C   0  0  0  0  0  1  0  0  0  0  0  0
  -26.4300  -37.3810   23.9410 N   0  0  0  0  0  0  0  0  0  0  0  0
  -26.0190  -38.2890   24.1390 H   0  0  0  0  0  0  0  0  0  0  0  0
  -26.4460  -31.6610   25.0720 C   0  0  1  0  0  0  0  0  0  0  0  0
  -25.3760  -31.3650   26.1460 C   0  0  0  0  0  1  0  0  0  0  0  0
  -27.0340  -30.3080   24.6050 C   0  0  0  0  0  1  0  0  0  0  0  0
  -27.6010  -32.4380   25.7480 C   0  0  0  0  0  1  0  0  0  0  0  0
  -30.7020  -22.6610   26.4890 C   0  0  0  0  0  2  0  0  0  0  0  0
  -31.8090  -21.9200   25.8610 N   0  0  0  0  0  4  0  0  0  0  0  0
  -32.5530  -22.5610   25.6180 H   0  0  0  0  0  0  0  0  0  0  0  0
  -31.4660  -21.4970   25.0170 H   0  0  0  0  0  0  0  0  0  0  0  0
  -32.4640  -20.8900   26.6870 C   0  0  0  0  0  3  0  0  0  0  0  0
  -32.9580  -19.7340   25.7890 C   0  0  0  0  0  2  0  0  0  0  0  0
  -31.8160  -18.8690   25.2220 C   0  0  0  0  0  2  0  0  0  0  0  0
  -32.2930  -17.8520   24.1740 C   0  0  0  0  0  2  0  0  0  0  0  0
  -31.1420  -16.9860   23.6390 C   0  0  0  0  0  2  0  0  0  0  0  0
  -31.5600  -16.1160   22.4420 C   0  0  0  0  0  2  0  0  0  0  0  0
  -30.4270  -15.1840   21.9620 C   0  0  0  0  0  2  0  0  0  0  0  0
  -30.7920  -14.3300   20.7340 C   0  0  0  0  0  0  0  0  0  0  0  0
  -30.4160  -12.2950   19.3770 C   0  0  0  0  0  2  0  0  0  0  0  0
  -29.4770  -12.5390   18.1830 C   0  0  0  0  0  2  0  0  0  0  0  0
  -28.0050  -12.3870   18.6060 C   0  0  0  0  0  2  0  0  0  0  0  0
  -27.6690  -13.2020   19.8810 C   0  0  0  0  0  3  0  0  0  0  0  0
  -28.7110  -12.9440   20.9920 C   0  0  0  0  0  2  0  0  0  0  0  0
  -30.0510  -13.2280   20.4510 N   0  0  0  0  0  0  0  0  0  0  0  0
  -31.7810  -14.6480   20.0630 O   0  0  0  0  0  0  0  0  0  0  0  0
  -25.2620  -13.8160   20.5680 C   0  0  0  0  0  0  0  0  0  0  0  0
  -24.1860  -13.0440   20.9160 C   0  0  0  0  0  0  0  0  0  0  0  0
  -24.6400  -11.6900   20.8720 C   0  0  0  0  0  0  0  0  0  0  0  0
  -26.3070  -12.9320   20.3400 N   0  0  0  0  0  0  0  0  0  0  0  0
  -25.9330  -11.6480   20.5760 N   0  0  0  0  0  0  0  0  0  0  0  0
  -23.9060  -10.4290   21.0390 C   0  0  0  0  0  0  0  0  0  0  0  0
  -24.3610   -9.4210   21.9180 C   0  0  0  0  0  3  0  0  0  0  0  0
  -23.6280   -8.2250   22.0750 C   0  0  0  0  0  3  0  0  0  0  0  0
  -22.4270   -8.0280   21.3540 C   0  0  0  0  0  0  0  0  0  0  0  0
  -21.9910   -9.0250   20.4640 C   0  0  0  0  0  3  0  0  0  0  0  0
  -22.7230  -10.2130   20.3040 C   0  0  0  0  0  3  0  0  0  0  0  0
  -21.6630   -6.8880   21.4240 O   0  0  0  0  0  0  0  0  0  0  0  0
  -21.6860   -6.0730   22.5280 C   0  0  0  0  0  0  0  0  0  0  0  0
  -21.4010   -6.5640   23.8210 C   0  0  0  0  0  3  0  0  0  0  0  0
  -21.3660   -5.6790   24.9180 C   0  0  0  0  0  3  0  0  0  0  0  0
  -21.6050   -4.3060   24.7230 C   0  0  0  0  0  0  0  0  0  0  0  0
  -21.8820   -3.8150   23.4350 C   0  0  0  0  0  3  0  0  0  0  0  0
  -21.9190   -4.6960   22.3400 C   0  0  0  0  0  0  0  0  0  0  0  0
  -22.1660   -4.2150   21.0980 F   0  0  0  0  0  0  0  0  0  0  0  0
  -21.5630   -3.4540   25.7740 F   0  0  0  0  0  0  0  0  0  0  0  0
  -22.7880  -13.5240   21.1820 C   0  0  0  0  0  0  0  0  0  0  0  0
  -22.0510  -12.8220   22.0370 N   0  0  0  0  0  0  0  0  0  0  0  0
  -22.3560  -14.5550   20.6680 O   0  0  0  0  0  0  0  0  0  0  0  0
  -22.4120  -11.9870   22.4740 H   0  0  0  0  0  0  0  0  0  0  0  0
  -21.1130  -13.1240   22.2580 H   0  0  0  0  0  0  0  0  0  0  0  0
  -25.4360  -15.1870   20.4100 N   0  0  0  0  0  0  0  0  0  0  0  0
  -24.6760  -15.8490   20.5180 H   0  0  0  0  0  0  0  0  0  0  0  0
  -26.3000  -15.6230   20.1100 H   0  0  0  0  0  0  0  0  0  0  0  0
  -33.6200  -21.5560   27.4550 C   0  0  0  0  0  2  0  0  0  0  0  0
  -34.3850  -22.3490   26.5560 O   0  0  0  0  0  0  0  0  0  0  0  0
  -35.1510  -22.6660   27.0290 H   0  0  0  0  0  0  0  0  0  0  0  0
  1  2  1  0
  2  5  2  0
  3  6  2  0
  4  3  1  0
  4  1  2  0
  5 51  1  0
  6  7  1  0
  6  5  1  0
  8  4  1  0
  9  8  1  0
 10 12  1  0
 10  9  1  0
 11 22  2  0
 12 17  1  0
 13 21  1  0
 13 23  1  0
 14 20  1  0
 14 16  1  0
 15 21  1  0
 16 15  1  0
 17 16  2  0
 18 19  1  0
 18 12  2  0
 19 14  2  0
 20 13  1  0
 21 11  1  0
 23 25  2  0
 24 23  1  0
 26 24  1  0
 27 36  2  0
 27 32  1  0
 28 24  1  0
 28 32  1  0
 29 28  1  0
 30 31  1  0
 30 29  1  0
 31 27  1  0
 32 33  2  0
 33 34  1  0
 35 34  2  0
 36 35  1  0
 37 11  1  0
 37 38  1  0
 37 47  1  0
 38 41  1  0
 39 43  1  0
 39 38  1  0
 40 39  2  0
 43 42  1  0
 45 43  1  0
 45 46  1  0
 45 44  1  0
 47 50  1  1
 47 48  1  0
 49 47  1  0
 52 51  1  0
 52 55  1  0
 53 52  1  0
 54 52  1  0
 55 56  1  0
 55 98  1  0
 57 56  1  0
 58 57  1  0
 59 58  1  0
 60 59  1  0
 61 60  1  0
 62 61  1  0
 63 68  1  0
 64 65  1  0
 64 63  1  0
 66 65  1  0
 66 73  1  0
 66 67  1  0
 68 62  1  0
 68 67  1  0
 69 62  2  0
 70 71  2  0
 71 90  1  0
 72 71  1  0
 72 75  1  0
 73 70  1  0
 73 74  1  0
 74 72  2  0
 75 76  1  0
 76 77  2  0
 78 81  1  0
 78 77  1  0
 79 78  2  0
 80 79  1  0
 80 75  2  0
 81 82  1  0
 82 83  1  0
 83 84  2  0
 85 84  1  0
 85 89  1  0
 86 85  2  0
 87 82  2  0
 87 86  1  0
 88 87  1  0
 90 91  1  0
 91 94  1  0
 91 93  1  0
 92 90  2  0
 95 96  1  0
 95 70  1  0
 97 95  1  0
 99100  1  0
 99 98  1  0
M  ISO  4   9 101  10 101  61 100  62 100
M  END
>  <TORSDO>  (79) 
F 29

>  <SCORE>  (79) 
29.975

>  <name>  (79) 
78

>  <ligand_id>  (79) 
78

>  <original_smiles>  (79) 
[H]OC([H])([H])C([H])(C([H])([H])C([H])([H])C([H])([H])C([H])([H])C([H])([H])C([H])([H])C(=O)N1C([H])([H])C([H])([H])C([H])([H])C([H])(n2nc(-c3c([H])c([H])c(Oc4c([H])c([H])c(F)c([H])c4F)c([H])c3[H])c(C(=O)N([H])[H])c2N([H])[H])C1([H])[H])[N+]([H])([H])C([H])([H])c1c([H])c([H])c(C([H])([H])C([H])([H])Oc2c([H])c([H])c3c(c2[H])C([H])([H])N(C(=O)C([H])(N([H])C(=O)C([H])(N([H])C([H])([H])[H])C([H])([H])[H])C(C([H])([H])[H])(C([H])([H])[H])C([H])([H])[H])C([H])(C(=O)N([H])C2([H])c4c([H])c([H])c([H])c([H])c4C([H])([H])C([H])([H])C2([H])[H])C3([H])[H])c([H])c1C([H])([H])[H]

>  <smiles>  (79) 
[H]OC([H])([H])C([H])(C([H])([H])C([H])([H])C([H])([H])C([H])([H])C([H])([H])C([H])([H])C(=O)N1C([H])([H])C([H])([H])C([H])([H])C([H])(n2nc(-c3c([H])c([H])c(Oc4c([H])c([H])c(F)c([H])c4F)c([H])c3[H])c(C(=O)N([H])[H])c2N([H])[H])C1([H])[H])[N+]([H])([H])C([H])([H])c1c([H])c([H])c(C([H])([H])C([H])([H])Oc2c([H])c([H])c3c(c2[H])C([H])([H])N(C(=O)C([H])(N([H])C(=O)C([H])(N([H])C([H])([H])[H])C([H])([H])[H])C(C([H])([H])[H])(C([H])([H])[H])C([H])([H])[H])C([H])(C(=O)N([H])C2([H])c4c([H])c([H])c([H])c([H])c4C([H])([H])C([H])([H])C2([H])[H])C3([H])[H])c([H])c1C([H])([H])[H]

$$$$
79:0:0
     RDKit          3D

 87 94  0  0  1  0  0  0  0  0999 V2000
  -28.6500  -23.4990   20.6610 C   0  0  0  0  0  0  0  0  0  0  0  0
  -28.6290  -23.6050   21.8900 O   0  0  0  0  0  0  0  0  0  0  0  0
  -29.1500  -22.0640   20.0330 C   0  0  0  0  0  2  0  0  0  0  0  0
  -28.8140  -20.5410   20.6410 C   0  0  0  0  0  2  0  0  0  0  0  0
  -29.8060  -19.1980   20.5310 C   0  0  0  0  0  2  0  0  0  0  0  0
  -29.3030  -17.6130   20.3440 C   0  0  0  0  0  3  0  0  0  0  0  0
  -28.0350  -18.1260   18.1520 C   0  0  0  0  0  1  0  0  0  0  0  0
  -29.1070  -17.2790   18.8500 C   0  0  0  0  0  2  0  0  0  0  0  0
  -29.9690  -16.2950   21.1290 C   0  0  0  0  0  2  0  0  0  0  0  0
  -30.5880  -14.9080   20.4950 C   0  0  0  0  0  0  0  0  0  0  0  0
  -30.4240  -12.6040   19.4710 C   0  0  0  0  0  2  0  0  0  0  0  0
  -29.5260  -12.6690   18.2140 C   0  0  0  0  0  2  0  0  0  0  0  0
  -28.0450  -12.4790   18.5930 C   0  0  0  0  0  2  0  0  0  0  0  0
  -27.6360  -13.3500   19.8100 C   0  0  0  0  0  3  0  0  0  0  0  0
  -28.6630  -13.2820   20.9610 C   0  0  0  0  0  2  0  0  0  0  0  0
  -29.9690  -13.6660   20.4120 N   0  0  0  0  0  0  0  0  0  0  0  0
  -31.7430  -14.9790   20.0610 O   0  0  0  0  0  0  0  0  0  0  0  0
  -25.2280  -13.9220   20.4590 C   0  0  0  0  0  0  0  0  0  0  0  0
  -24.1580  -13.1450   20.8080 C   0  0  0  0  0  0  0  0  0  0  0  0
  -24.6300  -11.7980   20.8150 C   0  0  0  0  0  0  0  0  0  0  0  0
  -26.2840  -13.0470   20.2650 N   0  0  0  0  0  0  0  0  0  0  0  0
  -25.9310  -11.7640   20.5420 N   0  0  0  0  0  0  0  0  0  0  0  0
  -23.9050  -10.5350   21.0070 C   0  0  0  0  0  0  0  0  0  0  0  0
  -24.3210   -9.5840   21.9650 C   0  0  0  0  0  3  0  0  0  0  0  0
  -23.5970   -8.3840   22.1430 C   0  0  0  0  0  3  0  0  0  0  0  0
  -22.4430   -8.1300   21.3640 C   0  0  0  0  0  0  0  0  0  0  0  0
  -22.0460   -9.0700   20.3960 C   0  0  0  0  0  3  0  0  0  0  0  0
  -22.7710  -10.2600   20.2170 C   0  0  0  0  0  3  0  0  0  0  0  0
  -21.6900   -6.9830   21.4520 O   0  0  0  0  0  0  0  0  0  0  0  0
  -21.6230   -6.2530   22.6120 C   0  0  0  0  0  0  0  0  0  0  0  0
  -21.1790   -6.8200   23.8260 C   0  0  0  0  0  3  0  0  0  0  0  0
  -21.0610   -6.0150   24.9780 C   0  0  0  0  0  3  0  0  0  0  0  0
  -21.3740   -4.6440   24.9150 C   0  0  0  0  0  0  0  0  0  0  0  0
  -21.8120   -4.0760   23.7050 C   0  0  0  0  0  3  0  0  0  0  0  0
  -21.9320   -4.8780   22.5560 C   0  0  0  0  0  0  0  0  0  0  0  0
  -22.3340   -4.3210   21.3880 F   0  0  0  0  0  0  0  0  0  0  0  0
  -21.2540   -3.8690   26.0180 F   0  0  0  0  0  0  0  0  0  0  0  0
  -22.7510  -13.6170   21.0310 C   0  0  0  0  0  0  0  0  0  0  0  0
  -22.0010  -12.9320   21.8880 N   0  0  0  0  0  0  0  0  0  0  0  0
  -22.3230  -14.6300   20.4780 O   0  0  0  0  0  0  0  0  0  0  0  0
  -22.3590  -12.1130   22.3570 H   0  0  0  0  0  0  0  0  0  0  0  0
  -21.0530  -13.2270   22.0740 H   0  0  0  0  0  0  0  0  0  0  0  0
  -25.3910  -15.2900   20.2700 N   0  0  0  0  0  0  0  0  0  0  0  0
  -24.6250  -15.9470   20.3640 H   0  0  0  0  0  0  0  0  0  0  0  0
  -26.2520  -15.7260   19.9650 H   0  0  0  0  0  0  0  0  0  0  0  0
  -28.1780  -24.7920   19.7680 C   0  0  0  0  0  2  0  0  0  0  0  0
  -28.2640  -26.2500   20.2800 O   0  0  0  0  0  0  0  0  0  0  0  0
  -24.6130  -31.8790   23.2340 C   0  0  0  0  0  0  0  0  0  0  0  0
  -27.1990  -27.2090   20.1710 C   0  0  0  0  0  0  0  0  0  0  0  0
  -23.4120  -30.4860   21.5910 C   0  0  0  0  0  3  0  0  0  0  0  0
  -24.8620  -28.9320   20.1490 C   0  0  0  0  0  0  0  0  0  0  0  0
  -25.9620  -30.7650   21.4230 C   0  0  0  0  0  2  0  0  0  0  0  0
  -26.0370  -29.3790   20.7650 C   0  0  0  0  0  0  0  0  0  0  0  0
  -27.2020  -28.5300   20.7680 C   0  0  0  0  0  3  0  0  0  0  0  0
  -26.0030  -26.8690   19.4960 C   0  0  0  0  0  3  0  0  0  0  0  0
  -24.8570  -27.6890   19.5000 C   0  0  0  0  0  3  0  0  0  0  0  0
  -23.6300  -29.8200   20.2080 C   0  0  0  0  0  2  0  0  0  0  0  0
  -24.6820  -31.0650   22.1380 N   0  0  0  0  0  0  0  0  0  0  0  0
  -23.5280  -32.1580   23.7670 O   0  0  0  0  0  0  0  0  0  0  0  0
  -22.7400  -29.4700   22.5490 C   0  0  0  0  0  0  0  0  0  0  0  0
  -21.4140  -29.2920   22.4210 N   0  0  0  0  0  0  0  0  0  0  0  0
  -23.4160  -28.8440   23.3700 O   0  0  0  0  0  0  0  0  0  0  0  0
  -20.9240  -29.8510   21.7360 H   0  0  0  0  0  0  0  0  0  0  0  0
  -18.0400  -28.0650   22.9030 C   0  0  0  0  0  0  0  0  0  0  0  0
  -20.5950  -28.3480   23.1870 C   0  0  0  0  0  3  0  0  0  0  0  0
  -20.7130  -26.9160   22.6180 C   0  0  0  0  0  2  0  0  0  0  0  0
  -19.6210  -26.5810   21.5960 C   0  0  0  0  0  2  0  0  0  0  0  0
  -18.2330  -26.7160   22.2300 C   0  0  0  0  0  2  0  0  0  0  0  0
  -19.1490  -28.8390   23.3360 C   0  0  0  0  0  0  0  0  0  0  0  0
  -18.9140  -30.1000   23.9250 C   0  0  0  0  0  3  0  0  0  0  0  0
  -17.6030  -30.5880   24.0830 C   0  0  0  0  0  3  0  0  0  0  0  0
  -16.5090  -29.8120   23.6630 C   0  0  0  0  0  3  0  0  0  0  0  0
  -16.7290  -28.5520   23.0780 C   0  0  0  0  0  3  0  0  0  0  0  0
  -25.8910  -32.5130   23.8620 C   0  0  0  0  0  3  0  0  0  0  0  0
  -25.5780  -33.9100   24.2010 N   0  0  0  0  0  0  0  0  0  0  0  0
  -25.9080  -34.9710   23.4520 C   0  0  0  0  0  0  0  0  0  0  0  0
  -26.5760  -34.8770   22.4190 O   0  0  0  0  0  0  0  0  0  0  0  0
  -24.9870  -34.0560   25.0060 H   0  0  0  0  0  0  0  0  0  0  0  0
  -24.1810  -36.7710   23.1160 C   0  0  0  0  0  1  0  0  0  0  0  0
  -25.4220  -36.3560   23.9220 C   0  0  0  0  0  3  0  0  0  0  0  0
  -27.5560  -37.2340   24.7620 C   0  0  0  0  0  1  0  0  0  0  0  0
  -26.4550  -37.4090   23.8200 N   0  0  0  0  0  0  0  0  0  0  0  0
  -26.0480  -38.3280   23.9770 H   0  0  0  0  0  0  0  0  0  0  0  0
  -26.4080  -31.7380   25.1370 C   0  0  1  0  0  0  0  0  0  0  0  0
  -25.3160  -31.4960   26.2060 C   0  0  0  0  0  1  0  0  0  0  0  0
  -26.9900  -30.3600   24.7470 C   0  0  0  0  0  1  0  0  0  0  0  0
  -27.5590  -32.5320   25.8000 C   0  0  0  0  0  1  0  0  0  0  0  0
  1  2  2  0
  3  4  1  0
  3  1  1  0
  5  4  1  0
  6  8  1  0
  6  5  1  0
  6  9  1  0
  7  8  1  0
 10  9  1  0
 11 16  1  0
 12 13  1  0
 12 11  1  0
 14 13  1  0
 14 21  1  0
 14 15  1  0
 16 10  1  0
 16 15  1  0
 17 10  2  0
 18 19  2  0
 19 20  1  0
 19 38  1  0
 20 23  1  0
 21 18  1  0
 21 22  1  0
 22 20  2  0
 23 24  1  0
 24 25  2  0
 26 29  1  0
 26 25  1  0
 27 26  2  0
 28 27  1  0
 28 23  2  0
 29 30  1  0
 30 31  1  0
 31 32  2  0
 33 32  1  0
 33 37  1  0
 34 33  2  0
 35 30  2  0
 35 34  1  0
 36 35  1  0
 38 39  1  0
 39 42  1  0
 39 41  1  0
 40 38  2  0
 43 44  1  0
 43 18  1  0
 45 43  1  0
 46 47  1  0
 46  1  1  0
 48 59  2  0
 49 47  1  0
 49 54  1  0
 50 58  1  0
 50 60  1  0
 51 57  1  0
 51 53  1  0
 52 58  1  0
 53 54  2  0
 53 52  1  0
 55 56  1  0
 55 49  2  0
 56 51  2  0
 57 50  1  0
 58 48  1  0
 60 62  2  0
 61 60  1  0
 63 61  1  0
 64 73  2  0
 64 69  1  0
 65 61  1  0
 65 69  1  0
 66 65  1  0
 67 68  1  0
 67 66  1  0
 68 64  1  0
 69 70  2  0
 70 71  1  0
 72 71  2  0
 73 72  1  0
 74 48  1  0
 74 75  1  0
 74 84  1  0
 75 78  1  0
 76 80  1  0
 76 75  1  0
 77 76  2  0
 80 79  1  0
 82 80  1  0
 82 83  1  0
 82 81  1  0
 84 87  1  1
 84 85  1  0
 86 84  1  0
M  ISO  4   9 100  10 100  46 101  47 101
M  END
>  <TORSDO>  (80) 
F 23

>  <SCORE>  (80) 
-12.859

>  <name>  (80) 
79

>  <ligand_id>  (80) 
79

>  <original_smiles>  (80) 
[H]c1c([H])c([H])c2c(c1[H])C([H])([H])C([H])([H])C([H])([H])C2([H])N([H])C(=O)C1([H])N(C(=O)C([H])(N([H])C(=O)C([H])(N([H])C([H])([H])[H])C([H])([H])[H])C(C([H])([H])[H])(C([H])([H])[H])C([H])([H])[H])C([H])([H])c2c([H])c(OC([H])([H])C(=O)C([H])([H])C([H])([H])C([H])([H])C([H])(C([H])([H])C(=O)N3C([H])([H])C([H])([H])C([H])([H])C([H])(n4nc(-c5c([H])c([H])c(Oc6c([H])c([H])c(F)c([H])c6F)c([H])c5[H])c(C(=O)N([H])[H])c4N([H])[H])C3([H])[H])C([H])([H])C([H])([H])[H])c([H])c([H])c2C1([H])[H]

>  <smiles>  (80) 
[H]c1c([H])c([H])c2c(c1[H])C([H])([H])C([H])([H])C([H])([H])C2([H])N([H])C(=O)C1([H])N(C(=O)C([H])(N([H])C(=O)C([H])(N([H])C([H])([H])[H])C([H])([H])[H])C(C([H])([H])[H])(C([H])([H])[H])C([H])([H])[H])C([H])([H])c2c([H])c(OC([H])([H])C(=O)C([H])([H])C([H])([H])C([H])([H])C([H])(C([H])([H])C(=O)N3C([H])([H])C([H])([H])C([H])([H])C([H])(n4nc(-c5c([H])c([H])c(Oc6c([H])c([H])c(F)c([H])c6F)c([H])c5[H])c(C(=O)N([H])[H])c4N([H])[H])C3([H])[H])C([H])([H])C([H])([H])[H])c([H])c([H])c2C1([H])[H]

$$$$
80:0:0
     RDKit          3D

 99108  0  0  1  0  0  0  0  0999 V2000
  -29.0140  -21.9630   23.6930 C   0  0  0  0  0  3  0  0  0  0  0  0
  -28.9270  -23.2320   23.0900 C   0  0  0  0  0  3  0  0  0  0  0  0
  -27.1370  -21.2070   22.3540 C   0  0  0  0  0  3  0  0  0  0  0  0
  -28.0940  -20.9520   23.3590 C   0  0  0  0  0  0  0  0  0  0  0  0
  -27.9160  -23.5210   22.1460 C   0  0  0  0  0  0  0  0  0  0  0  0
  -27.0320  -22.4790   21.7390 C   0  0  0  0  0  0  0  0  0  0  0  0
  -26.2210  -21.8390   19.4240 C   0  0  0  0  0  1  0  0  0  0  0  0
  -25.9380  -22.6810   20.6810 C   0  0  0  0  0  3  0  0  0  0  0  0
  -24.1830  -23.2790   22.3520 C   0  0  0  0  0  1  0  0  0  0  0  0
  -24.5870  -22.4120   21.2250 N   0  0  0  0  0  4  0  0  0  0  0  0
  -23.9180  -22.5350   20.4830 H   0  0  0  0  0  0  0  0  0  0  0  0
  -24.5260  -21.4540   21.5250 H   0  0  0  0  0  0  0  0  0  0  0  0
  -28.0630  -19.6760   24.1980 C   0  0  0  0  0  2  0  0  0  0  0  0
  -27.7270  -18.3430   23.4870 C   0  0  0  0  0  2  0  0  0  0  0  0
  -30.7490  -14.4080   20.6510 C   0  0  0  0  0  0  0  0  0  0  0  0
  -30.4180  -12.2960   19.4150 C   0  0  0  0  0  2  0  0  0  0  0  0
  -29.4930  -12.5220   18.2030 C   0  0  0  0  0  2  0  0  0  0  0  0
  -28.0140  -12.3820   18.6100 C   0  0  0  0  0  2  0  0  0  0  0  0
  -27.6640  -13.2060   19.8760 C   0  0  0  0  0  3  0  0  0  0  0  0
  -28.6970  -12.9560   20.9930 C   0  0  0  0  0  2  0  0  0  0  0  0
  -30.0400  -13.2580   20.4630 N   0  0  0  0  0  0  0  0  0  0  0  0
  -31.8070  -14.6350   20.0520 O   0  0  0  0  0  0  0  0  0  0  0  0
  -29.0850  -17.6350   21.4220 C   0  0  0  0  0  2  0  0  0  0  0  0
  -28.8900  -16.0660   23.3740 C   0  0  0  0  0  2  0  0  0  0  0  0
  -30.2690  -16.7840   20.9210 C   0  0  0  0  0  2  0  0  0  0  0  0
  -30.1090  -15.2970   22.8340 C   0  0  0  0  0  2  0  0  0  0  0  0
  -28.9430  -17.5500   22.9530 C   0  0  0  0  0  3  0  0  0  0  0  0
  -30.1450  -15.3850   21.3680 N   0  0  0  0  0  0  0  0  0  0  0  0
  -25.2590  -13.8170   20.5670 C   0  0  0  0  0  0  0  0  0  0  0  0
  -24.1850  -13.0440   20.9160 C   0  0  0  0  0  0  0  0  0  0  0  0
  -24.6400  -11.6910   20.8720 C   0  0  0  0  0  0  0  0  0  0  0  0
  -26.3030  -12.9340   20.3350 N   0  0  0  0  0  0  0  0  0  0  0  0
  -25.9320  -11.6490   20.5730 N   0  0  0  0  0  0  0  0  0  0  0  0
  -23.9070  -10.4300   21.0390 C   0  0  0  0  0  0  0  0  0  0  0  0
  -24.3620   -9.4220   21.9180 C   0  0  0  0  0  3  0  0  0  0  0  0
  -23.6290   -8.2250   22.0750 C   0  0  0  0  0  3  0  0  0  0  0  0
  -22.4270   -8.0290   21.3550 C   0  0  0  0  0  0  0  0  0  0  0  0
  -21.9920   -9.0250   20.4640 C   0  0  0  0  0  3  0  0  0  0  0  0
  -22.7240  -10.2140   20.3050 C   0  0  0  0  0  3  0  0  0  0  0  0
  -21.6640   -6.8880   21.4240 O   0  0  0  0  0  0  0  0  0  0  0  0
  -21.6860   -6.0740   22.5280 C   0  0  0  0  0  0  0  0  0  0  0  0
  -21.4010   -6.5640   23.8210 C   0  0  0  0  0  3  0  0  0  0  0  0
  -21.3660   -5.6790   24.9180 C   0  0  0  0  0  3  0  0  0  0  0  0
  -21.6050   -4.3060   24.7230 C   0  0  0  0  0  0  0  0  0  0  0  0
  -21.8820   -3.8150   23.4350 C   0  0  0  0  0  3  0  0  0  0  0  0
  -21.9190   -4.6970   22.3400 C   0  0  0  0  0  0  0  0  0  0  0  0
  -22.1660   -4.2150   21.0980 F   0  0  0  0  0  0  0  0  0  0  0  0
  -21.5630   -3.4540   25.7740 F   0  0  0  0  0  0  0  0  0  0  0  0
  -22.7870  -13.5240   21.1840 C   0  0  0  0  0  0  0  0  0  0  0  0
  -22.0510  -12.8220   22.0380 N   0  0  0  0  0  0  0  0  0  0  0  0
  -22.3550  -14.5550   20.6700 O   0  0  0  0  0  0  0  0  0  0  0  0
  -22.4120  -11.9870   22.4760 H   0  0  0  0  0  0  0  0  0  0  0  0
  -21.1110  -13.1220   22.2580 H   0  0  0  0  0  0  0  0  0  0  0  0
  -25.4320  -15.1880   20.4100 N   0  0  0  0  0  0  0  0  0  0  0  0
  -24.6700  -15.8460   20.5300 H   0  0  0  0  0  0  0  0  0  0  0  0
  -26.2970  -15.6280   20.1240 H   0  0  0  0  0  0  0  0  0  0  0  0
  -27.7730  -24.9770   21.6970 C   0  0  0  0  0  2  0  0  0  0  0  0
  -28.3610  -25.3180   20.3090 C   0  0  0  0  0  2  0  0  0  0  0  0
  -28.4160  -26.7370   20.1020 O   0  0  0  0  0  0  0  0  0  0  0  0
  -24.6150  -31.8670   23.2130 C   0  0  0  0  0  0  0  0  0  0  0  0
  -27.2330  -27.4440   20.0940 C   0  0  0  0  0  0  0  0  0  0  0  0
  -23.4020  -30.4920   21.5530 C   0  0  0  0  0  3  0  0  0  0  0  0
  -24.8470  -28.9600   20.1130 C   0  0  0  0  0  0  0  0  0  0  0  0
  -25.9310  -30.8330   21.3700 C   0  0  0  0  0  2  0  0  0  0  0  0
  -26.0070  -29.4720   20.7090 C   0  0  0  0  0  0  0  0  0  0  0  0
  -27.2030  -28.7220   20.6920 C   0  0  0  0  0  3  0  0  0  0  0  0
  -26.0570  -26.9420   19.4920 C   0  0  0  0  0  3  0  0  0  0  0  0
  -24.8680  -27.6950   19.5000 C   0  0  0  0  0  3  0  0  0  0  0  0
  -23.6100  -29.8270   20.1660 C   0  0  0  0  0  2  0  0  0  0  0  0
  -24.6670  -31.0780   22.1030 N   0  0  0  0  0  0  0  0  0  0  0  0
  -23.5350  -32.1430   23.7530 O   0  0  0  0  0  0  0  0  0  0  0  0
  -22.7410  -29.4650   22.5000 C   0  0  0  0  0  0  0  0  0  0  0  0
  -21.4140  -29.3020   22.3740 N   0  0  0  0  0  0  0  0  0  0  0  0
  -23.4200  -28.8180   23.3020 O   0  0  0  0  0  0  0  0  0  0  0  0
  -20.9300  -29.8710   21.6930 H   0  0  0  0  0  0  0  0  0  0  0  0
  -18.0280  -28.1390   22.8490 C   0  0  0  0  0  0  0  0  0  0  0  0
  -20.5860  -28.3670   23.1330 C   0  0  0  0  0  3  0  0  0  0  0  0
  -20.6790  -26.9400   22.5430 C   0  0  0  0  0  2  0  0  0  0  0  0
  -19.5770  -26.6390   21.5220 C   0  0  0  0  0  2  0  0  0  0  0  0
  -18.1930  -26.7940   22.1610 C   0  0  0  0  0  2  0  0  0  0  0  0
  -19.1520  -28.8850   23.2910 C   0  0  0  0  0  0  0  0  0  0  0  0
  -18.9450  -30.1450   23.8920 C   0  0  0  0  0  3  0  0  0  0  0  0
  -17.6450  -30.6590   24.0570 C   0  0  0  0  0  3  0  0  0  0  0  0
  -16.5340  -29.9080   23.6340 C   0  0  0  0  0  3  0  0  0  0  0  0
  -16.7270  -28.6500   23.0340 C   0  0  0  0  0  3  0  0  0  0  0  0
  -25.9070  -32.4810   23.8390 C   0  0  0  0  0  3  0  0  0  0  0  0
  -25.5940  -33.8610   24.2310 N   0  0  0  0  0  0  0  0  0  0  0  0
  -25.9040  -34.9450   23.5090 C   0  0  0  0  0  0  0  0  0  0  0  0
  -26.5570  -34.8910   22.4630 O   0  0  0  0  0  0  0  0  0  0  0  0
  -25.0200  -33.9780   25.0530 H   0  0  0  0  0  0  0  0  0  0  0  0
  -24.1500  -36.7290   23.2630 C   0  0  0  0  0  1  0  0  0  0  0  0
  -25.4130  -36.3080   24.0310 C   0  0  0  0  0  3  0  0  0  0  0  0
  -27.5580  -37.1810   24.8460 C   0  0  0  0  0  1  0  0  0  0  0  0
  -26.4300  -37.3770   23.9390 N   0  0  0  0  0  0  0  0  0  0  0  0
  -26.0170  -38.2840   24.1380 H   0  0  0  0  0  0  0  0  0  0  0  0
  -26.4510  -31.6610   25.0730 C   0  0  1  0  0  0  0  0  0  0  0  0
  -25.3780  -31.3690   26.1480 C   0  0  0  0  0  1  0  0  0  0  0  0
  -27.0380  -30.3050   24.6130 C   0  0  0  0  0  1  0  0  0  0  0  0
  -27.6060  -32.4360   25.7520 C   0  0  0  0  0  1  0  0  0  0  0  0
  2  1  2  0
  3  4  2  0
  4  1  1  0
  4 13  1  0
  5  2  1  0
  6  5  2  0
  6  3  1  0
  8  7  1  0
  8 10  1  0
  8  6  1  0
 10 12  1  0
 10  9  1  0
 11 10  1  0
 14 13  1  0
 15 28  1  0
 16 21  1  0
 17 18  1  0
 17 16  1  0
 19 18  1  0
 19 32  1  0
 19 20  1  0
 21 15  1  0
 21 20  1  0
 22 15  2  0
 23 27  1  0
 25 28  1  0
 25 23  1  0
 26 24  1  0
 27 24  1  0
 27 14  1  0
 28 26  1  0
 29 30  2  0
 30 49  1  0
 31 30  1  0
 31 34  1  0
 32 29  1  0
 32 33  1  0
 33 31  2  0
 34 35  1  0
 35 36  2  0
 37 40  1  0
 37 36  1  0
 38 37  2  0
 39 38  1  0
 39 34  2  0
 40 41  1  0
 41 42  1  0
 42 43  2  0
 44 43  1  0
 44 48  1  0
 45 44  2  0
 46 41  2  0
 46 45  1  0
 47 46  1  0
 49 50  1  0
 50 53  1  0
 50 52  1  0
 51 49  2  0
 54 55  1  0
 54 29  1  0
 56 54  1  0
 57  5  1  0
 58 57  1  0
 59 58  1  0
 60 71  2  0
 61 59  1  0
 61 66  1  0
 62 70  1  0
 62 72  1  0
 63 69  1  0
 63 65  1  0
 64 70  1  0
 65 64  1  0
 66 65  2  0
 67 68  1  0
 67 61  2  0
 68 63  2  0
 69 62  1  0
 70 60  1  0
 72 74  2  0
 73 72  1  0
 75 73  1  0
 76 85  2  0
 76 81  1  0
 77 73  1  0
 77 81  1  0
 78 77  1  0
 79 80  1  0
 79 78  1  0
 80 76  1  0
 81 82  2  0
 82 83  1  0
 84 83  2  0
 85 84  1  0
 86 60  1  0
 86 87  1  0
 86 96  1  0
 87 90  1  0
 88 92  1  0
 88 87  1  0
 89 88  2  0
 92 91  1  0
 94 92  1  0
 94 95  1  0
 94 93  1  0
 96 99  1  1
 96 97  1  0
 98 96  1  0
M  ISO  4  15 100  28 100  58 101  59 101
M  END
>  <TORSDO>  (81) 
F 22

>  <SCORE>  (81) 
26.746

>  <name>  (81) 
80

>  <ligand_id>  (81) 
80

>  <original_smiles>  (81) 
[H]c1c([H])c([H])c2c(c1[H])C([H])([H])C([H])([H])C([H])([H])C2([H])N([H])C(=O)C1([H])N(C(=O)C([H])(N([H])C(=O)C([H])(N([H])C([H])([H])[H])C([H])([H])[H])C(C([H])([H])[H])(C([H])([H])[H])C([H])([H])[H])C([H])([H])c2c([H])c(OC([H])([H])C([H])([H])c3c([H])c([H])c(C([H])([H])C([H])([H])C4([H])C([H])([H])C([H])([H])N(C(=O)N5C([H])([H])C([H])([H])C([H])([H])C([H])(n6nc(-c7c([H])c([H])c(Oc8c([H])c([H])c(F)c([H])c8F)c([H])c7[H])c(C(=O)N([H])[H])c6N([H])[H])C5([H])[H])C([H])([H])C4([H])[H])c([H])c3C([H])(C([H])([H])[H])[N+]([H])([H])C([H])([H])[H])c([H])c([H])c2C1([H])[H]

>  <smiles>  (81) 
[H]c1c([H])c([H])c2c(c1[H])C([H])([H])C([H])([H])C([H])([H])C2([H])N([H])C(=O)C1([H])N(C(=O)C([H])(N([H])C(=O)C([H])(N([H])C([H])([H])[H])C([H])([H])[H])C(C([H])([H])[H])(C([H])([H])[H])C([H])([H])[H])C([H])([H])c2c([H])c(OC([H])([H])C([H])([H])c3c([H])c([H])c(C([H])([H])C([H])([H])C4([H])C([H])([H])C([H])([H])N(C(=O)N5C([H])([H])C([H])([H])C([H])([H])C([H])(n6nc(-c7c([H])c([H])c(Oc8c([H])c([H])c(F)c([H])c8F)c([H])c7[H])c(C(=O)N([H])[H])c6N([H])[H])C5([H])[H])C([H])([H])C4([H])[H])c([H])c3C([H])(C([H])([H])[H])[N+]([H])([H])C([H])([H])[H])c([H])c([H])c2C1([H])[H]

$$$$
81:0:0
     RDKit          3D

 95104  0  0  1  0  0  0  0  0999 V2000
  -30.2820  -22.5410   17.3050 C   0  0  0  0  0  3  0  0  0  0  0  0
  -30.1740  -21.1260   17.2380 C   0  0  0  0  0  3  0  0  0  0  0  0
  -27.9040  -21.0770   18.2870 C   0  0  0  0  0  3  0  0  0  0  0  0
  -29.1540  -23.1760   17.8290 C   0  0  0  0  0  0  0  0  0  0  0  0
  -28.0100  -22.4640   18.3030 C   0  0  0  0  0  0  0  0  0  0  0  0
  -29.0340  -20.4160   17.7330 C   0  0  0  0  0  0  0  0  0  0  0  0
  -27.4560  -23.6450   19.0440 C   0  0  0  0  0  2  0  0  0  0  0  0
  -28.7750  -24.4330   18.5750 C   0  0  0  0  0  3  0  0  0  0  0  0
  -29.1160  -18.9150   17.8590 C   0  0  0  0  0  2  0  0  0  0  0  0
  -30.0270  -18.5670   19.0490 C   0  0  0  0  0  2  0  0  0  0  0  0
  -29.7830  -17.1880   19.6410 C   0  0  0  0  0  0  0  0  0  0  0  0
  -29.0320  -16.3740   19.0960 O   0  0  0  0  0  0  0  0  0  0  0  0
  -30.4920  -16.8870   20.9680 C   0  0  0  0  0  2  0  0  0  0  0  0
  -30.2180  -15.4740   21.5160 C   0  0  0  0  0  2  0  0  0  0  0  0
  -30.8360  -14.3760   20.6370 C   0  0  0  0  0  0  0  0  0  0  0  0
  -30.5230  -12.3060   19.3420 C   0  0  0  0  0  2  0  0  0  0  0  0
  -29.6000  -12.5830   18.1390 C   0  0  0  0  0  2  0  0  0  0  0  0
  -28.1140  -12.4550   18.5390 C   0  0  0  0  0  2  0  0  0  0  0  0
  -27.7750  -13.2460   19.8320 C   0  0  0  0  0  3  0  0  0  0  0  0
  -28.8040  -12.9190   20.9360 C   0  0  0  0  0  2  0  0  0  0  0  0
  -30.1450  -13.2310   20.4150 N   0  0  0  0  0  0  0  0  0  0  0  0
  -31.9240  -14.6120   20.0980 O   0  0  0  0  0  0  0  0  0  0  0  0
  -25.3550  -13.8830   20.4510 C   0  0  0  0  0  0  0  0  0  0  0  0
  -24.2730  -13.1230   20.8080 C   0  0  0  0  0  0  0  0  0  0  0  0
  -24.7300  -11.7690   20.8130 C   0  0  0  0  0  0  0  0  0  0  0  0
  -26.4040  -12.9920   20.2710 N   0  0  0  0  0  0  0  0  0  0  0  0
  -26.0260  -11.7170   20.5380 N   0  0  0  0  0  0  0  0  0  0  0  0
  -23.9960  -10.5130   21.0050 C   0  0  0  0  0  0  0  0  0  0  0  0
  -24.4100   -9.5550   21.9570 C   0  0  0  0  0  3  0  0  0  0  0  0
  -23.6760   -8.3620   22.1360 C   0  0  0  0  0  3  0  0  0  0  0  0
  -22.5150   -8.1210   21.3640 C   0  0  0  0  0  0  0  0  0  0  0  0
  -22.1220   -9.0670   20.4010 C   0  0  0  0  0  3  0  0  0  0  0  0
  -22.8570  -10.2500   20.2190 C   0  0  0  0  0  3  0  0  0  0  0  0
  -21.7540   -6.9810   21.4550 O   0  0  0  0  0  0  0  0  0  0  0  0
  -21.6930   -6.2470   22.6140 C   0  0  0  0  0  0  0  0  0  0  0  0
  -21.2680   -6.8160   23.8350 C   0  0  0  0  0  3  0  0  0  0  0  0
  -21.1560   -6.0100   24.9860 C   0  0  0  0  0  3  0  0  0  0  0  0
  -21.4560   -4.6360   24.9170 C   0  0  0  0  0  0  0  0  0  0  0  0
  -21.8740   -4.0670   23.7010 C   0  0  0  0  0  3  0  0  0  0  0  0
  -21.9910   -4.8700   22.5520 C   0  0  0  0  0  0  0  0  0  0  0  0
  -22.3750   -4.3120   21.3800 F   0  0  0  0  0  0  0  0  0  0  0  0
  -21.3390   -3.8600   26.0200 F   0  0  0  0  0  0  0  0  0  0  0  0
  -22.8710  -13.6090   21.0370 C   0  0  0  0  0  0  0  0  0  0  0  0
  -22.1190  -12.9290   21.8970 N   0  0  0  0  0  0  0  0  0  0  0  0
  -22.4490  -14.6280   20.4900 O   0  0  0  0  0  0  0  0  0  0  0  0
  -22.4710  -12.1080   22.3670 H   0  0  0  0  0  0  0  0  0  0  0  0
  -21.1760  -13.2350   22.0910 H   0  0  0  0  0  0  0  0  0  0  0  0
  -25.5300  -15.2480   20.2500 N   0  0  0  0  0  0  0  0  0  0  0  0
  -24.7690  -15.9140   20.3310 H   0  0  0  0  0  0  0  0  0  0  0  0
  -26.3910  -15.6640   19.9140 H   0  0  0  0  0  0  0  0  0  0  0  0
  -28.6610  -25.7710   17.8240 C   0  0  0  0  0  3  0  0  0  0  0  0
  -28.6860  -25.3180   15.2760 C   0  0  0  0  0  1  0  0  0  0  0  0
  -29.4530  -25.8530   16.4970 C   0  0  0  0  0  2  0  0  0  0  0  0
  -29.0880  -26.9000   18.7860 C   0  0  0  0  0  2  0  0  0  0  0  0
  -28.4180  -26.8140   20.0460 O   0  0  0  0  0  0  0  0  0  0  0  0
  -24.5900  -31.8880   23.2300 C   0  0  0  0  0  0  0  0  0  0  0  0
  -27.2360  -27.5000   20.1080 C   0  0  0  0  0  0  0  0  0  0  0  0
  -23.3780  -30.4850   21.5930 C   0  0  0  0  0  3  0  0  0  0  0  0
  -24.8280  -28.9540   20.1680 C   0  0  0  0  0  0  0  0  0  0  0  0
  -25.8970  -30.8580   21.3790 C   0  0  0  0  0  2  0  0  0  0  0  0
  -25.9830  -29.4900   20.7480 C   0  0  0  0  0  0  0  0  0  0  0  0
  -27.1920  -28.7640   20.7300 C   0  0  0  0  0  3  0  0  0  0  0  0
  -26.0570  -26.9570   19.5570 C   0  0  0  0  0  3  0  0  0  0  0  0
  -24.8510  -27.6780   19.5820 C   0  0  0  0  0  3  0  0  0  0  0  0
  -23.5820  -29.8060   20.2130 C   0  0  0  0  0  2  0  0  0  0  0  0
  -24.6400  -31.0910   22.1280 N   0  0  0  0  0  0  0  0  0  0  0  0
  -23.5120  -32.1600   23.7770 O   0  0  0  0  0  0  0  0  0  0  0  0
  -22.7360  -29.4590   22.5550 C   0  0  0  0  0  0  0  0  0  0  0  0
  -21.4130  -29.2700   22.4300 N   0  0  0  0  0  0  0  0  0  0  0  0
  -23.4250  -28.8380   23.3690 O   0  0  0  0  0  0  0  0  0  0  0  0
  -20.9200  -29.8240   21.7430 H   0  0  0  0  0  0  0  0  0  0  0  0
  -18.0450  -28.0740   22.9320 C   0  0  0  0  0  0  0  0  0  0  0  0
  -20.6020  -28.3330   23.2030 C   0  0  0  0  0  3  0  0  0  0  0  0
  -20.7060  -26.9030   22.6250 C   0  0  0  0  0  2  0  0  0  0  0  0
  -19.6030  -26.5790   21.6140 C   0  0  0  0  0  2  0  0  0  0  0  0
  -18.2220  -26.7240   22.2580 C   0  0  0  0  0  2  0  0  0  0  0  0
  -19.1620  -28.8370   23.3620 C   0  0  0  0  0  0  0  0  0  0  0  0
  -18.9430  -30.1020   23.9500 C   0  0  0  0  0  3  0  0  0  0  0  0
  -17.6380  -30.6020   24.1170 C   0  0  0  0  0  3  0  0  0  0  0  0
  -16.5330  -29.8350   23.7030 C   0  0  0  0  0  3  0  0  0  0  0  0
  -16.7390  -28.5740   23.1170 C   0  0  0  0  0  3  0  0  0  0  0  0
  -25.8800  -32.5180   23.8420 C   0  0  0  0  0  3  0  0  0  0  0  0
  -25.5700  -33.9150   24.1760 N   0  0  0  0  0  0  0  0  0  0  0  0
  -25.9060  -34.9670   23.4180 C   0  0  0  0  0  0  0  0  0  0  0  0
  -26.5770  -34.8660   22.3880 O   0  0  0  0  0  0  0  0  0  0  0  0
  -24.9730  -34.0690   24.9760 H   0  0  0  0  0  0  0  0  0  0  0  0
  -24.1810  -36.7590   23.0620 C   0  0  0  0  0  1  0  0  0  0  0  0
  -25.4170  -36.3530   23.8770 C   0  0  0  0  0  3  0  0  0  0  0  0
  -27.5520  -37.2330   24.7180 C   0  0  0  0  0  1  0  0  0  0  0  0
  -26.4520  -37.4050   23.7720 N   0  0  0  0  0  0  0  0  0  0  0  0
  -26.0470  -38.3250   23.9210 H   0  0  0  0  0  0  0  0  0  0  0  0
  -26.4090  -31.7420   25.1100 C   0  0  1  0  0  0  0  0  0  0  0  0
  -25.3250  -31.5000   26.1840 C   0  0  0  0  0  1  0  0  0  0  0  0
  -26.9890  -30.3670   24.7030 C   0  0  0  0  0  1  0  0  0  0  0  0
  -27.5620  -32.5360   25.7660 C   0  0  0  0  0  1  0  0  0  0  0  0
  1  4  1  0
  2  1  2  0
  2  6  1  0
  3  5  1  0
  4  5  2  0
  4  8  1  0
  5  7  1  0
  6  9  1  0
  6  3  2  0
  8 51  1  0
  8  7  1  0
  9 10  1  0
 10 11  1  0
 11 13  1  0
 12 11  2  0
 13 14  1  0
 15 14  1  0
 16 21  1  0
 17 18  1  0
 17 16  1  0
 19 18  1  0
 19 26  1  0
 19 20  1  0
 21 15  1  0
 21 20  1  0
 22 15  2  0
 23 24  2  0
 24 25  1  0
 24 43  1  0
 25 28  1  0
 26 23  1  0
 26 27  1  0
 27 25  2  0
 28 29  1  0
 29 30  2  0
 31 34  1  0
 31 30  1  0
 32 31  2  0
 33 32  1  0
 33 28  2  0
 34 35  1  0
 35 36  1  0
 36 37  2  0
 38 37  1  0
 38 42  1  0
 39 38  2  0
 40 35  2  0
 40 39  1  0
 41 40  1  0
 43 44  1  0
 44 47  1  0
 44 46  1  0
 45 43  2  0
 48 49  1  0
 48 23  1  0
 50 48  1  0
 51 53  1  0
 51 54  1  0
 52 53  1  0
 54 55  1  0
 55 57  1  0
 56 67  2  0
 57 62  1  0
 58 66  1  0
 58 68  1  0
 59 65  1  0
 59 61  1  0
 60 66  1  0
 61 60  1  0
 62 61  2  0
 63 64  1  0
 63 57  2  0
 64 59  2  0
 65 58  1  0
 66 56  1  0
 68 70  2  0
 69 68  1  0
 71 69  1  0
 72 81  2  0
 72 77  1  0
 73 69  1  0
 73 77  1  0
 74 73  1  0
 75 76  1  0
 75 74  1  0
 76 72  1  0
 77 78  2  0
 78 79  1  0
 80 79  2  0
 81 80  1  0
 82 56  1  0
 82 83  1  0
 82 92  1  0
 83 86  1  0
 84 88  1  0
 84 83  1  0
 85 84  2  0
 88 87  1  0
 90 88  1  0
 90 91  1  0
 90 89  1  0
 92 95  1  1
 92 93  1  0
 94 92  1  0
M  ISO  4  14 100  15 100  54 101  55 101
M  END
>  <TORSDO>  (82) 
F 24

>  <SCORE>  (82) 
-12.590

>  <name>  (82) 
81

>  <ligand_id>  (82) 
81

>  <original_smiles>  (82) 
[H]c1c([H])c([H])c2c(c1[H])C([H])([H])C([H])([H])C([H])([H])C2([H])N([H])C(=O)C1([H])N(C(=O)C([H])(N([H])C(=O)C([H])(N([H])C([H])([H])[H])C([H])([H])[H])C(C([H])([H])[H])(C([H])([H])[H])C([H])([H])[H])C([H])([H])c2c([H])c(OC([H])([H])C([H])(C([H])([H])C([H])([H])[H])C3([H])c4c([H])c([H])c(C([H])([H])C([H])([H])C(=O)C([H])([H])C([H])([H])C(=O)N5C([H])([H])C([H])([H])C([H])([H])C([H])(n6nc(-c7c([H])c([H])c(Oc8c([H])c([H])c(F)c([H])c8F)c([H])c7[H])c(C(=O)N([H])[H])c6N([H])[H])C5([H])[H])c([H])c4C3([H])[H])c([H])c([H])c2C1([H])[H]

>  <smiles>  (82) 
[H]c1c([H])c([H])c2c(c1[H])C([H])([H])C([H])([H])C([H])([H])C2([H])N([H])C(=O)C1([H])N(C(=O)C([H])(N([H])C(=O)C([H])(N([H])C([H])([H])[H])C([H])([H])[H])C(C([H])([H])[H])(C([H])([H])[H])C([H])([H])[H])C([H])([H])c2c([H])c(OC([H])([H])C([H])(C([H])([H])C([H])([H])[H])C3([H])c4c([H])c([H])c(C([H])([H])C([H])([H])C(=O)C([H])([H])C([H])([H])C(=O)N5C([H])([H])C([H])([H])C([H])([H])C([H])(n6nc(-c7c([H])c([H])c(Oc8c([H])c([H])c(F)c([H])c8F)c([H])c7[H])c(C(=O)N([H])[H])c6N([H])[H])C5([H])[H])c([H])c4C3([H])[H])c([H])c([H])c2C1([H])[H]

$$$$
82:0:0
     RDKit          3D

 92100  0  0  1  0  0  0  0  0999 V2000
  -29.5320  -18.5150   18.1780 C   0  0  0  0  0  3  0  0  0  0  0  0
  -29.3710  -19.8260   18.6670 C   0  0  0  0  0  3  0  0  0  0  0  0
  -29.9030  -17.4850   19.0610 C   0  0  0  0  0  3  0  0  0  0  0  0
  -29.5990  -20.0950   20.0300 C   0  0  0  0  0  0  0  0  0  0  0  0
  -30.0940  -17.7830   20.4180 C   0  0  0  0  0  0  0  0  0  0  0  0
  -29.9420  -19.0740   20.8740 N   0  0  0  0  0  0  0  0  0  0  0  0
  -29.4730  -21.4940   20.5790 C   0  0  0  0  0  3  0  0  0  0  0  0
  -29.0500  -22.6160   19.9210 C   0  0  0  0  0  3  0  0  0  0  0  0
  -29.0000  -24.0010   20.5080 C   0  0  0  0  0  0  0  0  0  0  0  0
  -29.4000  -24.2470   21.6510 O   0  0  0  0  0  0  0  0  0  0  0  0
  -28.4280  -25.1650   19.6310 C   0  0  0  0  0  2  0  0  0  0  0  0
  -28.3970  -26.4900   20.2690 O   0  0  0  0  0  0  0  0  0  0  0  0
  -24.6120  -31.8320   23.2450 C   0  0  0  0  0  0  0  0  0  0  0  0
  -27.2480  -27.2880   20.2050 C   0  0  0  0  0  0  0  0  0  0  0  0
  -23.4270  -30.4400   21.5880 C   0  0  0  0  0  3  0  0  0  0  0  0
  -24.8860  -28.8900   20.1860 C   0  0  0  0  0  0  0  0  0  0  0  0
  -25.9680  -30.7520   21.4400 C   0  0  0  0  0  2  0  0  0  0  0  0
  -26.0480  -29.3760   20.7980 C   0  0  0  0  0  0  0  0  0  0  0  0
  -27.2280  -28.5810   20.8060 C   0  0  0  0  0  3  0  0  0  0  0  0
  -26.0560  -26.8530   19.5760 C   0  0  0  0  0  3  0  0  0  0  0  0
  -24.8890  -27.6330   19.5740 C   0  0  0  0  0  3  0  0  0  0  0  0
  -23.6560  -29.7670   20.2100 C   0  0  0  0  0  2  0  0  0  0  0  0
  -24.6870  -31.0240   22.1480 N   0  0  0  0  0  0  0  0  0  0  0  0
  -23.5220  -32.1150   23.7630 O   0  0  0  0  0  0  0  0  0  0  0  0
  -22.7490  -29.4220   22.5360 C   0  0  0  0  0  0  0  0  0  0  0  0
  -21.4230  -29.2570   22.3950 N   0  0  0  0  0  0  0  0  0  0  0  0
  -23.4150  -28.7860   23.3580 O   0  0  0  0  0  0  0  0  0  0  0  0
  -20.9480  -29.8230   21.7060 H   0  0  0  0  0  0  0  0  0  0  0  0
  -18.0250  -28.0990   22.8510 C   0  0  0  0  0  0  0  0  0  0  0  0
  -20.5830  -28.3270   23.1520 C   0  0  0  0  0  3  0  0  0  0  0  0
  -20.6750  -26.8960   22.5710 C   0  0  0  0  0  2  0  0  0  0  0  0
  -19.5790  -26.5900   21.5460 C   0  0  0  0  0  2  0  0  0  0  0  0
  -18.1930  -26.7490   22.1750 C   0  0  0  0  0  2  0  0  0  0  0  0
  -19.1480  -28.8470   23.2960 C   0  0  0  0  0  0  0  0  0  0  0  0
  -18.9370  -30.1110   23.8870 C   0  0  0  0  0  3  0  0  0  0  0  0
  -17.6370  -30.6280   24.0380 C   0  0  0  0  0  3  0  0  0  0  0  0
  -16.5280  -29.8770   23.6090 C   0  0  0  0  0  3  0  0  0  0  0  0
  -16.7240  -28.6150   23.0210 C   0  0  0  0  0  3  0  0  0  0  0  0
  -25.8890  -32.4560   23.8860 C   0  0  0  0  0  3  0  0  0  0  0  0
  -25.5770  -33.8520   24.2220 N   0  0  0  0  0  0  0  0  0  0  0  0
  -25.9090  -34.9090   23.4690 C   0  0  0  0  0  0  0  0  0  0  0  0
  -26.5820  -34.8110   22.4380 O   0  0  0  0  0  0  0  0  0  0  0  0
  -24.9770  -34.0000   25.0200 H   0  0  0  0  0  0  0  0  0  0  0  0
  -24.1720  -36.6970   23.1290 C   0  0  0  0  0  1  0  0  0  0  0  0
  -25.4200  -36.2940   23.9330 C   0  0  0  0  0  3  0  0  0  0  0  0
  -27.5550  -37.1840   24.7540 C   0  0  0  0  0  1  0  0  0  0  0  0
  -26.4470  -37.3520   23.8180 N   0  0  0  0  0  0  0  0  0  0  0  0
  -26.0380  -38.2700   23.9710 H   0  0  0  0  0  0  0  0  0  0  0  0
  -26.3880  -31.6740   25.1620 C   0  0  1  0  0  0  0  0  0  0  0  0
  -25.2820  -31.4340   26.2170 C   0  0  0  0  0  1  0  0  0  0  0  0
  -26.9700  -30.2970   24.7670 C   0  0  0  0  0  1  0  0  0  0  0  0
  -27.5340  -32.4600   25.8430 C   0  0  0  0  0  1  0  0  0  0  0  0
  -30.7240  -15.4040   21.4200 C   0  0  0  0  0  3  0  0  0  0  0  0
  -30.3480  -16.7230   21.4590 C   0  0  0  0  0  0  0  0  0  0  0  0
  -31.1500  -14.5620   20.2930 C   0  0  0  0  0  0  0  0  0  0  0  0
  -30.7240  -12.4850   18.9820 C   0  0  0  0  0  2  0  0  0  0  0  0
  -29.7590  -12.7690   17.8140 C   0  0  0  0  0  2  0  0  0  0  0  0
  -28.2960  -12.6490   18.2800 C   0  0  0  0  0  2  0  0  0  0  0  0
  -28.0260  -13.4440   19.5840 C   0  0  0  0  0  3  0  0  0  0  0  0
  -29.0930  -13.1280   20.6560 C   0  0  0  0  0  2  0  0  0  0  0  0
  -30.4180  -13.4230   20.0810 N   0  0  0  0  0  0  0  0  0  0  0  0
  -32.1690  -14.7990   19.6370 O   0  0  0  0  0  0  0  0  0  0  0  0
  -25.6670  -14.1330   20.3570 C   0  0  0  0  0  0  0  0  0  0  0  0
  -24.5760  -13.3960   20.7340 C   0  0  0  0  0  0  0  0  0  0  0  0
  -24.9810  -12.0280   20.6670 C   0  0  0  0  0  0  0  0  0  0  0  0
  -26.6700  -13.2150   20.0840 N   0  0  0  0  0  0  0  0  0  0  0  0
  -26.2620  -11.9430   20.3270 N   0  0  0  0  0  0  0  0  0  0  0  0
  -24.2100  -10.7930   20.8490 C   0  0  0  0  0  0  0  0  0  0  0  0
  -24.6180   -9.7940   21.7600 C   0  0  0  0  0  3  0  0  0  0  0  0
  -23.8490   -8.6230   21.9300 C   0  0  0  0  0  3  0  0  0  0  0  0
  -22.6560   -8.4430   21.1900 C   0  0  0  0  0  0  0  0  0  0  0  0
  -22.2650   -9.4320   20.2680 C   0  0  0  0  0  3  0  0  0  0  0  0
  -23.0340  -10.5940   20.0960 C   0  0  0  0  0  3  0  0  0  0  0  0
  -21.8570   -7.3290   21.2710 O   0  0  0  0  0  0  0  0  0  0  0  0
  -21.7820   -6.5780   22.4180 C   0  0  0  0  0  0  0  0  0  0  0  0
  -21.3970   -7.1420   23.6540 C   0  0  0  0  0  3  0  0  0  0  0  0
  -21.2690   -6.3190   24.7920 C   0  0  0  0  0  3  0  0  0  0  0  0
  -21.5130   -4.9360   24.6940 C   0  0  0  0  0  0  0  0  0  0  0  0
  -21.8920   -4.3740   23.4630 C   0  0  0  0  0  3  0  0  0  0  0  0
  -22.0240   -5.1920   22.3270 C   0  0  0  0  0  0  0  0  0  0  0  0
  -22.3680   -4.6410   21.1390 F   0  0  0  0  0  0  0  0  0  0  0  0
  -21.3830   -4.1460   25.7840 F   0  0  0  0  0  0  0  0  0  0  0  0
  -23.2070  -13.9250   21.0490 C   0  0  0  0  0  0  0  0  0  0  0  0
  -22.4710  -13.2450   21.9240 N   0  0  0  0  0  0  0  0  0  0  0  0
  -22.7980  -14.9740   20.5550 O   0  0  0  0  0  0  0  0  0  0  0  0
  -22.8110  -12.3940   22.3460 H   0  0  0  0  0  0  0  0  0  0  0  0
  -21.5530  -13.5830   22.1740 H   0  0  0  0  0  0  0  0  0  0  0  0
  -25.8860  -15.5000   20.2090 N   0  0  0  0  0  0  0  0  0  0  0  0
  -25.1590  -16.1860   20.3710 H   0  0  0  0  0  0  0  0  0  0  0  0
  -26.7630  -15.9140   19.9190 H   0  0  0  0  0  0  0  0  0  0  0  0
  -30.0790  -17.2370   22.6670 O   0  0  0  0  0  0  0  0  0  0  0  0
  -29.8650  -18.1510   22.4760 H   0  0  0  0  0  0  0  0  0  0  0  0
  1  2  2  0
  1  3  1  0
  2  4  1  0
  3  5  2  0
  4  7  1  0
  4  6  2  0
  5  6  1  0
  5 54  1  0
  8  9  1  0
  8  7  2  0
  9 10  2  0
 11 12  1  0
 11  9  1  0
 13 24  2  0
 14 12  1  0
 14 19  1  0
 15 23  1  0
 15 25  1  0
 16 22  1  0
 16 18  1  0
 17 23  1  0
 18 19  2  0
 18 17  1  0
 20 14  2  0
 21 20  1  0
 21 16  2  0
 22 15  1  0
 23 13  1  0
 25 27  2  0
 26 25  1  0
 28 26  1  0
 29 38  2  0
 29 34  1  0
 30 26  1  0
 30 34  1  0
 31 30  1  0
 32 33  1  0
 32 31  1  0
 33 29  1  0
 34 35  2  0
 35 36  1  0
 37 36  2  0
 38 37  1  0
 39 13  1  0
 39 40  1  0
 39 49  1  0
 40 43  1  0
 41 45  1  0
 41 40  1  0
 42 41  2  0
 45 44  1  0
 47 45  1  0
 47 48  1  0
 47 46  1  0
 49 52  1  1
 49 50  1  0
 51 49  1  0
 53 54  2  0
 54 91  1  0
 55 53  1  0
 56 61  1  0
 57 58  1  0
 57 56  1  0
 59 58  1  0
 59 66  1  0
 59 60  1  0
 61 55  1  0
 61 60  1  0
 62 55  2  0
 63 64  2  0
 64 83  1  0
 65 64  1  0
 65 68  1  0
 66 67  1  0
 66 63  1  0
 67 65  2  0
 68 69  1  0
 69 70  2  0
 71 74  1  0
 71 70  1  0
 72 71  2  0
 73 72  1  0
 73 68  2  0
 74 75  1  0
 75 76  1  0
 76 77  2  0
 78 77  1  0
 78 82  1  0
 79 78  2  0
 80 75  2  0
 80 79  1  0
 81 80  1  0
 83 84  1  0
 84 87  1  0
 84 86  1  0
 85 83  2  0
 88 63  1  0
 88 89  1  0
 90 88  1  0
 92 91  1  0
M  ISO  4  11 101  12 101  53 100  55 100
M  END
>  <TORSDO>  (83) 
F 21

>  <SCORE>  (83) 
-13.979

>  <name>  (83) 
82

>  <ligand_id>  (83) 
82

>  <original_smiles>  (83) 
[H]OC(=C([H])C(=O)N1C([H])([H])C([H])([H])C([H])([H])C([H])(n2nc(-c3c([H])c([H])c(Oc4c([H])c([H])c(F)c([H])c4F)c([H])c3[H])c(C(=O)N([H])[H])c2N([H])[H])C1([H])[H])c1nc(C([H])=C([H])C(=O)C([H])([H])Oc2c([H])c([H])c3c(c2[H])C([H])([H])N(C(=O)C([H])(N([H])C(=O)C([H])(N([H])C([H])([H])[H])C([H])([H])[H])C(C([H])([H])[H])(C([H])([H])[H])C([H])([H])[H])C([H])(C(=O)N([H])C2([H])c4c([H])c([H])c([H])c([H])c4C([H])([H])C([H])([H])C2([H])[H])C3([H])[H])c([H])c([H])c1[H]

>  <smiles>  (83) 
[H]OC(=C([H])C(=O)N1C([H])([H])C([H])([H])C([H])([H])C([H])(n2nc(-c3c([H])c([H])c(Oc4c([H])c([H])c(F)c([H])c4F)c([H])c3[H])c(C(=O)N([H])[H])c2N([H])[H])C1([H])[H])c1nc(C([H])=C([H])C(=O)C([H])([H])Oc2c([H])c([H])c3c(c2[H])C([H])([H])N(C(=O)C([H])(N([H])C(=O)C([H])(N([H])C([H])([H])[H])C([H])([H])[H])C(C([H])([H])[H])(C([H])([H])[H])C([H])([H])[H])C([H])(C(=O)N([H])C2([H])c4c([H])c([H])c([H])c([H])c4C([H])([H])C([H])([H])C2([H])[H])C3([H])[H])c([H])c([H])c1[H]

$$$$
83:0:0
     RDKit          3D

 93102  0  0  1  0  0  0  0  0999 V2000
  -31.4690  -22.3380   21.1600 C   0  0  0  0  0  3  0  0  0  0  0  0
  -32.4640  -21.4410   21.6080 C   0  0  0  0  0  3  0  0  0  0  0  0
  -29.8730  -20.4880   20.9680 C   0  0  0  0  0  3  0  0  0  0  0  0
  -30.1600  -21.8820   20.8500 C   0  0  0  0  0  0  0  0  0  0  0  0
  -32.1310  -20.0820   21.7580 C   0  0  0  0  0  0  0  0  0  0  0  0
  -30.8710  -19.5930   21.4270 C   0  0  0  0  0  0  0  0  0  0  0  0
  -33.0000  -19.0150   22.3590 C   0  0  0  0  0  2  0  0  0  0  0  0
  -32.0040  -17.8730   22.6540 C   0  0  0  0  0  2  0  0  0  0  0  0
  -30.7330  -18.1040   21.7790 C   0  0  1  0  0  0  0  0  0  0  0  0
  -29.4340  -17.8730   22.5760 C   0  0  0  0  0  1  0  0  0  0  0  0
  -29.0810  -22.8410   20.4180 C   0  0  0  0  0  0  0  0  0  0  0  0
  -27.9530  -22.4380   20.1110 O   0  0  0  0  0  0  0  0  0  0  0  0
  -29.3740  -24.3660   20.3760 C   0  0  0  0  0  2  0  0  0  0  0  0
  -28.1410  -25.2140   19.9570 C   0  0  0  0  0  2  0  0  0  0  0  0
  -28.3140  -26.6510   19.9670 O   0  0  0  0  0  0  0  0  0  0  0  0
  -24.5420  -31.8280   23.1030 C   0  0  0  0  0  0  0  0  0  0  0  0
  -27.1470  -27.4050   19.9490 C   0  0  0  0  0  0  0  0  0  0  0  0
  -23.3080  -30.4230   21.4870 C   0  0  0  0  0  3  0  0  0  0  0  0
  -24.7400  -28.9100   20.0170 C   0  0  0  0  0  0  0  0  0  0  0  0
  -25.8260  -30.8070   21.2210 C   0  0  0  0  0  2  0  0  0  0  0  0
  -25.9120  -29.4390   20.5730 C   0  0  0  0  0  0  0  0  0  0  0  0
  -27.1180  -28.6960   20.5290 C   0  0  0  0  0  3  0  0  0  0  0  0
  -25.9490  -26.9030   19.3810 C   0  0  0  0  0  3  0  0  0  0  0  0
  -24.7550  -27.6430   19.4170 C   0  0  0  0  0  3  0  0  0  0  0  0
  -23.4900  -29.7550   20.0980 C   0  0  0  0  0  2  0  0  0  0  0  0
  -24.5800  -31.0320   21.9960 N   0  0  0  0  0  0  0  0  0  0  0  0
  -23.4720  -32.0860   23.6710 O   0  0  0  0  0  0  0  0  0  0  0  0
  -22.6920  -29.3890   22.4570 C   0  0  0  0  0  0  0  0  0  0  0  0
  -21.3670  -29.1870   22.3560 N   0  0  0  0  0  0  0  0  0  0  0  0
  -23.3990  -28.7720   23.2570 O   0  0  0  0  0  0  0  0  0  0  0  0
  -20.8530  -29.7390   21.6820 H   0  0  0  0  0  0  0  0  0  0  0  0
  -18.0190  -27.9500   22.9220 C   0  0  0  0  0  0  0  0  0  0  0  0
  -20.5780  -28.2360   23.1400 C   0  0  0  0  0  3  0  0  0  0  0  0
  -20.6850  -26.8080   22.5570 C   0  0  0  0  0  2  0  0  0  0  0  0
  -19.5660  -26.4760   21.5640 C   0  0  0  0  0  2  0  0  0  0  0  0
  -18.1950  -26.6050   22.2360 C   0  0  0  0  0  2  0  0  0  0  0  0
  -19.1380  -28.7230   23.3310 C   0  0  0  0  0  0  0  0  0  0  0  0
  -18.9180  -29.9810   23.9310 C   0  0  0  0  0  3  0  0  0  0  0  0
  -17.6120  -30.4690   24.1250 C   0  0  0  0  0  3  0  0  0  0  0  0
  -16.5080  -29.6930   23.7310 C   0  0  0  0  0  3  0  0  0  0  0  0
  -16.7120  -28.4360   23.1360 C   0  0  0  0  0  3  0  0  0  0  0  0
  -25.8370  -32.4690   23.6930 C   0  0  0  0  0  3  0  0  0  0  0  0
  -25.5140  -33.8530   24.0620 N   0  0  0  0  0  0  0  0  0  0  0  0
  -25.8380  -34.9300   23.3340 C   0  0  0  0  0  0  0  0  0  0  0  0
  -26.5100  -34.8610   22.3000 O   0  0  0  0  0  0  0  0  0  0  0  0
  -24.9180  -33.9800   24.8670 H   0  0  0  0  0  0  0  0  0  0  0  0
  -24.1220  -36.7370   22.9940 C   0  0  0  0  0  1  0  0  0  0  0  0
  -25.3370  -36.2990   23.8290 C   0  0  0  0  0  3  0  0  0  0  0  0
  -27.4410  -37.1510   24.7630 C   0  0  0  0  0  1  0  0  0  0  0  0
  -26.3720  -37.3540   23.7890 N   0  0  0  0  0  0  0  0  0  0  0  0
  -25.9600  -38.2680   23.9580 H   0  0  0  0  0  0  0  0  0  0  0  0
  -26.4100  -31.6800   24.9340 C   0  0  1  0  0  0  0  0  0  0  0  0
  -25.3580  -31.3970   26.0310 C   0  0  0  0  0  1  0  0  0  0  0  0
  -27.0070  -30.3240   24.4880 C   0  0  0  0  0  1  0  0  0  0  0  0
  -27.5640  -32.4840   25.5800 C   0  0  0  0  0  1  0  0  0  0  0  0
  -30.7940  -17.1530   20.5400 C   0  0  0  0  0  2  0  0  0  0  0  0
  -30.3260  -15.6810   20.8180 C   0  0  0  0  0  2  0  0  0  0  0  0
  -30.8360  -14.5860   19.8450 C   0  0  0  0  0  0  0  0  0  0  0  0
  -30.4130  -12.4980   18.5770 C   0  0  0  0  0  2  0  0  0  0  0  0
  -29.3700  -12.7660   17.4740 C   0  0  0  0  0  2  0  0  0  0  0  0
  -27.9340  -12.6230   18.0210 C   0  0  0  0  0  2  0  0  0  0  0  0
  -27.7230  -13.3930   19.3540 C   0  0  0  0  0  3  0  0  0  0  0  0
  -28.8690  -13.0880   20.3470 C   0  0  0  0  0  2  0  0  0  0  0  0
  -30.1410  -13.4230   19.6880 N   0  0  0  0  0  0  0  0  0  0  0  0
  -31.8660  -14.8140   19.2010 O   0  0  0  0  0  0  0  0  0  0  0  0
  -25.3800  -13.9940   20.2260 C   0  0  0  0  0  0  0  0  0  0  0  0
  -24.3430  -13.2170   20.6740 C   0  0  0  0  0  0  0  0  0  0  0  0
  -24.8040  -11.8670   20.6090 C   0  0  0  0  0  0  0  0  0  0  0  0
  -26.4090  -13.1140   19.9270 N   0  0  0  0  0  0  0  0  0  0  0  0
  -26.0690  -11.8310   20.2090 N   0  0  0  0  0  0  0  0  0  0  0  0
  -24.0970  -10.6040   20.8520 C   0  0  0  0  0  0  0  0  0  0  0  0
  -24.5430   -9.6860   21.8290 C   0  0  0  0  0  3  0  0  0  0  0  0
  -23.8360   -8.4860   22.0570 C   0  0  0  0  0  3  0  0  0  0  0  0
  -22.6700   -8.1950   21.3100 C   0  0  0  0  0  0  0  0  0  0  0  0
  -22.2430   -9.1020   20.3220 C   0  0  0  0  0  3  0  0  0  0  0  0
  -22.9510  -10.2940   20.0940 C   0  0  0  0  0  3  0  0  0  0  0  0
  -21.9330   -7.0430   21.4480 O   0  0  0  0  0  0  0  0  0  0  0  0
  -21.8160   -6.4040   22.6560 C   0  0  0  0  0  0  0  0  0  0  0  0
  -21.2740   -7.0460   23.7910 C   0  0  0  0  0  3  0  0  0  0  0  0
  -21.1100   -6.3300   24.9940 C   0  0  0  0  0  3  0  0  0  0  0  0
  -21.4740   -4.9710   25.0600 C   0  0  0  0  0  0  0  0  0  0  0  0
  -22.0070   -4.3280   23.9280 C   0  0  0  0  0  3  0  0  0  0  0  0
  -22.1750   -5.0430   22.7300 C   0  0  0  0  0  0  0  0  0  0  0  0
  -22.6680   -4.4120   21.6360 F   0  0  0  0  0  0  0  0  0  0  0  0
  -21.3080   -4.2800   26.2120 F   0  0  0  0  0  0  0  0  0  0  0  0
  -22.9700  -13.6900   21.0520 C   0  0  0  0  0  0  0  0  0  0  0  0
  -22.3190  -13.0030   21.9840 N   0  0  0  0  0  0  0  0  0  0  0  0
  -22.4860  -14.7040   20.5550 O   0  0  0  0  0  0  0  0  0  0  0  0
  -22.7240  -12.1810   22.4070 H   0  0  0  0  0  0  0  0  0  0  0  0
  -21.4000  -13.3050   22.2790 H   0  0  0  0  0  0  0  0  0  0  0  0
  -25.5270  -15.3620   20.0310 N   0  0  0  0  0  0  0  0  0  0  0  0
  -24.7690  -16.0160   20.1920 H   0  0  0  0  0  0  0  0  0  0  0  0
  -26.3510  -15.7980   19.6350 H   0  0  0  0  0  0  0  0  0  0  0  0
  1  2  1  0
  2  5  2  0
  3  6  2  0
  4  3  1  0
  4  1  2  0
  5  7  1  0
  6  5  1  0
  6  9  1  0
  7  8  1  0
  9 10  1  1
  9  8  1  0
 11  4  1  0
 12 11  2  0
 13 11  1  0
 14 15  1  0
 14 13  1  0
 16 27  2  0
 17 15  1  0
 17 22  1  0
 18 26  1  0
 18 28  1  0
 19 25  1  0
 19 21  1  0
 20 26  1  0
 21 20  1  0
 22 21  2  0
 23 24  1  0
 23 17  2  0
 24 19  2  0
 25 18  1  0
 26 16  1  0
 28 30  2  0
 29 28  1  0
 31 29  1  0
 32 41  2  0
 32 37  1  0
 33 29  1  0
 33 37  1  0
 34 33  1  0
 35 36  1  0
 35 34  1  0
 36 32  1  0
 37 38  2  0
 38 39  1  0
 40 39  2  0
 41 40  1  0
 42 16  1  0
 42 43  1  0
 42 52  1  0
 43 46  1  0
 44 48  1  0
 44 43  1  0
 45 44  2  0
 48 47  1  0
 50 48  1  0
 50 51  1  0
 50 49  1  0
 52 55  1  1
 52 53  1  0
 54 52  1  0
 56 57  1  0
 56  9  1  0
 58 57  1  0
 59 64  1  0
 60 61  1  0
 60 59  1  0
 62 61  1  0
 62 69  1  0
 62 63  1  0
 64 58  1  0
 64 63  1  0
 65 58  2  0
 66 67  2  0
 67 86  1  0
 68 67  1  0
 68 71  1  0
 69 70  1  0
 69 66  1  0
 70 68  2  0
 71 72  1  0
 72 73  2  0
 74 77  1  0
 74 73  1  0
 75 74  2  0
 76 75  1  0
 76 71  2  0
 77 78  1  0
 78 83  2  0
 78 79  1  0
 79 80  2  0
 80 81  1  0
 81 85  1  0
 82 81  2  0
 83 82  1  0
 84 83  1  0
 86 87  1  0
 87 90  1  0
 87 89  1  0
 88 86  2  0
 91 92  1  0
 91 66  1  0
 93 91  1  0
M  ISO  4  14 101  15 101  57 100  58 100
M  END
>  <TORSDO>  (84) 
F 21

>  <SCORE>  (84) 
-9.559

>  <name>  (84) 
83

>  <ligand_id>  (84) 
83

>  <original_smiles>  (84) 
[H]c1c([H])c([H])c2c(c1[H])C([H])([H])C([H])([H])C([H])([H])C2([H])N([H])C(=O)C1([H])N(C(=O)C([H])(N([H])C(=O)C([H])(N([H])C([H])([H])[H])C([H])([H])[H])C(C([H])([H])[H])(C([H])([H])[H])C([H])([H])[H])C([H])([H])c2c([H])c(OC([H])([H])C([H])([H])C(=O)c3c([H])c([H])c4c(c3[H])C(C([H])([H])[H])(C([H])([H])C([H])([H])C(=O)N3C([H])([H])C([H])([H])C([H])([H])C([H])(n5nc(-c6c([H])c([H])c(Oc7c([H])c([H])c(F)c([H])c7F)c([H])c6[H])c(C(=O)N([H])[H])c5N([H])[H])C3([H])[H])C([H])([H])C4([H])[H])c([H])c([H])c2C1([H])[H]

>  <smiles>  (84) 
[H]c1c([H])c([H])c2c(c1[H])C([H])([H])C([H])([H])C([H])([H])C2([H])N([H])C(=O)C1([H])N(C(=O)C([H])(N([H])C(=O)C([H])(N([H])C([H])([H])[H])C([H])([H])[H])C(C([H])([H])[H])(C([H])([H])[H])C([H])([H])[H])C([H])([H])c2c([H])c(OC([H])([H])C([H])([H])C(=O)c3c([H])c([H])c4c(c3[H])C(C([H])([H])[H])(C([H])([H])C([H])([H])C(=O)N3C([H])([H])C([H])([H])C([H])([H])C([H])(n5nc(-c6c([H])c([H])c(Oc7c([H])c([H])c(F)c([H])c7F)c([H])c6[H])c(C(=O)N([H])[H])c5N([H])[H])C3([H])[H])C([H])([H])C4([H])[H])c([H])c([H])c2C1([H])[H]

$$$$
84:0:0
     RDKit          3D

 98107  0  0  1  0  0  0  0  0999 V2000
  -26.3970  -22.0110   25.7240 C   0  0  0  0  0  3  0  0  0  0  0  0
  -26.7100  -20.6550   25.9290 C   0  0  0  0  0  3  0  0  0  0  0  0
  -26.1680  -21.5640   23.3490 C   0  0  0  0  0  3  0  0  0  0  0  0
  -26.2450  -22.4870   24.4130 C   0  0  0  0  0  0  0  0  0  0  0  0
  -26.8820  -19.7740   24.8340 C   0  0  0  0  0  0  0  0  0  0  0  0
  -26.4760  -20.2050   23.5370 C   0  0  0  0  0  0  0  0  0  0  0  0
  -26.4550  -19.3240   22.2940 C   0  0  0  0  0  1  0  0  0  0  0  0
  -26.5040  -23.9030   24.1380 C   0  0  0  0  0  3  0  0  0  0  0  0
  -27.3590  -24.2220   23.1480 C   0  0  0  0  0  3  0  0  0  0  0  0
  -27.8170  -25.5720   22.8440 C   0  0  0  0  0  0  0  0  0  0  0  0
  -27.2610  -26.5980   23.2470 O   0  0  0  0  0  0  0  0  0  0  0  0
  -29.1280  -25.6270   22.0550 C   0  0  0  0  0  2  0  0  0  0  0  0
  -29.3090  -26.8400   21.1370 C   0  0  0  0  0  2  0  0  0  0  0  0
  -28.4070  -26.7640   20.0320 O   0  0  0  0  0  0  0  0  0  0  0  0
  -24.6060  -31.8800   23.2140 C   0  0  0  0  0  0  0  0  0  0  0  0
  -27.2540  -27.5130   20.0890 C   0  0  0  0  0  0  0  0  0  0  0  0
  -23.3860  -30.5010   21.5590 C   0  0  0  0  0  3  0  0  0  0  0  0
  -24.8340  -28.9730   20.1160 C   0  0  0  0  0  0  0  0  0  0  0  0
  -25.9060  -30.8680   21.3520 C   0  0  0  0  0  2  0  0  0  0  0  0
  -25.9860  -29.5100   20.6960 C   0  0  0  0  0  0  0  0  0  0  0  0
  -27.1950  -28.7970   20.6740 C   0  0  0  0  0  3  0  0  0  0  0  0
  -26.0870  -26.9760   19.5070 C   0  0  0  0  0  3  0  0  0  0  0  0
  -24.8790  -27.7040   19.5100 C   0  0  0  0  0  3  0  0  0  0  0  0
  -23.5850  -29.8210   20.1770 C   0  0  0  0  0  2  0  0  0  0  0  0
  -24.6510  -31.0980   22.1000 N   0  0  0  0  0  0  0  0  0  0  0  0
  -23.5270  -32.1510   23.7600 O   0  0  0  0  0  0  0  0  0  0  0  0
  -22.7330  -29.4770   22.5150 C   0  0  0  0  0  0  0  0  0  0  0  0
  -21.4090  -29.3110   22.3850 N   0  0  0  0  0  0  0  0  0  0  0  0
  -23.4140  -28.8280   23.3140 O   0  0  0  0  0  0  0  0  0  0  0  0
  -20.9240  -29.8860   21.7090 H   0  0  0  0  0  0  0  0  0  0  0  0
  -18.0240  -28.1400   22.8570 C   0  0  0  0  0  0  0  0  0  0  0  0
  -20.5870  -28.3580   23.1280 C   0  0  0  0  0  3  0  0  0  0  0  0
  -20.6750  -26.9470   22.4920 C   0  0  0  0  0  2  0  0  0  0  0  0
  -19.5530  -26.6780   21.4860 C   0  0  0  0  0  2  0  0  0  0  0  0
  -18.1880  -26.8020   22.1570 C   0  0  0  0  0  2  0  0  0  0  0  0
  -19.1550  -28.8770   23.3010 C   0  0  0  0  0  0  0  0  0  0  0  0
  -18.9500  -30.1390   23.9050 C   0  0  0  0  0  3  0  0  0  0  0  0
  -17.6510  -30.6550   24.0690 C   0  0  0  0  0  3  0  0  0  0  0  0
  -16.5380  -29.9110   23.6410 C   0  0  0  0  0  3  0  0  0  0  0  0
  -16.7250  -28.6560   23.0400 C   0  0  0  0  0  3  0  0  0  0  0  0
  -25.8970  -32.4890   23.8440 C   0  0  0  0  0  3  0  0  0  0  0  0
  -25.5930  -33.8700   24.2360 N   0  0  0  0  0  0  0  0  0  0  0  0
  -25.9080  -34.9530   23.5120 C   0  0  0  0  0  0  0  0  0  0  0  0
  -26.5580  -34.8940   22.4650 O   0  0  0  0  0  0  0  0  0  0  0  0
  -25.0150  -33.9950   25.0550 H   0  0  0  0  0  0  0  0  0  0  0  0
  -24.1470  -36.7290   23.2650 C   0  0  0  0  0  1  0  0  0  0  0  0
  -25.4100  -36.3150   24.0340 C   0  0  0  0  0  3  0  0  0  0  0  0
  -27.5570  -37.1820   24.8490 C   0  0  0  0  0  1  0  0  0  0  0  0
  -26.4270  -37.3830   23.9430 N   0  0  0  0  0  0  0  0  0  0  0  0
  -26.0170  -38.2910   24.1410 H   0  0  0  0  0  0  0  0  0  0  0  0
  -26.4440  -31.6630   25.0720 C   0  0  1  0  0  0  0  0  0  0  0  0
  -25.3760  -31.3630   26.1500 C   0  0  0  0  0  1  0  0  0  0  0  0
  -27.0340  -30.3120   24.6030 C   0  0  0  0  0  1  0  0  0  0  0  0
  -27.6030  -32.4370   25.7450 C   0  0  0  0  0  1  0  0  0  0  0  0
  -27.8150  -18.5900   25.1110 C   0  0  0  0  0  2  0  0  0  0  0  0
  -27.6140  -17.2060   24.4570 C   0  0  0  0  0  2  0  0  0  0  0  0
  -30.7730  -14.3360   20.8010 C   0  0  0  0  0  0  0  0  0  0  0  0
  -30.4340  -12.3090   19.4100 C   0  0  0  0  0  2  0  0  0  0  0  0
  -29.5110  -12.5560   18.2010 C   0  0  0  0  0  2  0  0  0  0  0  0
  -28.0290  -12.3800   18.5880 C   0  0  0  0  0  2  0  0  0  0  0  0
  -27.6640  -13.1960   19.8510 C   0  0  0  0  0  3  0  0  0  0  0  0
  -28.6800  -12.9110   20.9650 C   0  0  0  0  0  2  0  0  0  0  0  0
  -30.0450  -13.2220   20.4990 N   0  0  0  0  0  0  0  0  0  0  0  0
  -31.7100  -14.7100   20.0800 O   0  0  0  0  0  0  0  0  0  0  0  0
  -29.4230  -17.1800   22.6080 C   0  0  0  0  0  2  0  0  0  0  0  0
  -28.8870  -15.0620   23.8810 C   0  0  0  0  0  2  0  0  0  0  0  0
  -30.6770  -16.4810   22.0470 C   0  0  0  0  0  2  0  0  0  0  0  0
  -30.1620  -14.4520   23.2380 C   0  0  0  0  0  2  0  0  0  0  0  0
  -28.9600  -16.5960   23.9670 C   0  0  0  0  0  3  0  0  0  0  0  0
  -30.4000  -15.0450   21.9090 N   0  0  0  0  0  0  0  0  0  0  0  0
  -25.2600  -13.8150   20.5570 C   0  0  0  0  0  0  0  0  0  0  0  0
  -24.1870  -13.0450   20.9120 C   0  0  0  0  0  0  0  0  0  0  0  0
  -24.6410  -11.6900   20.8660 C   0  0  0  0  0  0  0  0  0  0  0  0
  -26.3000  -12.9310   20.3120 N   0  0  0  0  0  0  0  0  0  0  0  0
  -25.9300  -11.6470   20.5570 N   0  0  0  0  0  0  0  0  0  0  0  0
  -23.9070  -10.4310   21.0370 C   0  0  0  0  0  0  0  0  0  0  0  0
  -24.3610   -9.4240   21.9170 C   0  0  0  0  0  3  0  0  0  0  0  0
  -23.6300   -8.2270   22.0760 C   0  0  0  0  0  3  0  0  0  0  0  0
  -22.4270   -8.0290   21.3550 C   0  0  0  0  0  0  0  0  0  0  0  0
  -21.9910   -9.0260   20.4640 C   0  0  0  0  0  3  0  0  0  0  0  0
  -22.7240  -10.2140   20.3040 C   0  0  0  0  0  3  0  0  0  0  0  0
  -21.6630   -6.8890   21.4270 O   0  0  0  0  0  0  0  0  0  0  0  0
  -21.6840   -6.0740   22.5300 C   0  0  0  0  0  0  0  0  0  0  0  0
  -21.4010   -6.5640   23.8240 C   0  0  0  0  0  3  0  0  0  0  0  0
  -21.3660   -5.6790   24.9190 C   0  0  0  0  0  3  0  0  0  0  0  0
  -21.6040   -4.3050   24.7240 C   0  0  0  0  0  0  0  0  0  0  0  0
  -21.8810   -3.8150   23.4360 C   0  0  0  0  0  3  0  0  0  0  0  0
  -21.9190   -4.6970   22.3420 C   0  0  0  0  0  0  0  0  0  0  0  0
  -22.1640   -4.2150   21.0990 F   0  0  0  0  0  0  0  0  0  0  0  0
  -21.5640   -3.4540   25.7750 F   0  0  0  0  0  0  0  0  0  0  0  0
  -22.7880  -13.5260   21.1840 C   0  0  0  0  0  0  0  0  0  0  0  0
  -22.0490  -12.8230   22.0350 N   0  0  0  0  0  0  0  0  0  0  0  0
  -22.3570  -14.5580   20.6710 O   0  0  0  0  0  0  0  0  0  0  0  0
  -22.4020  -11.9840   22.4700 H   0  0  0  0  0  0  0  0  0  0  0  0
  -21.1100  -13.1280   22.2530 H   0  0  0  0  0  0  0  0  0  0  0  0
  -25.4360  -15.1890   20.4020 N   0  0  0  0  0  0  0  0  0  0  0  0
  -24.6750  -15.8480   20.5120 H   0  0  0  0  0  0  0  0  0  0  0  0
  -26.3000  -15.6260   20.1090 H   0  0  0  0  0  0  0  0  0  0  0  0
  1  2  1  0
  3  6  2  0
  3  4  1  0
  4  1  2  0
  5 55  1  0
  5  2  2  0
  6  5  1  0
  7  6  1  0
  8  4  1  0
  9  8  2  0
 10  9  1  0
 10 11  2  0
 12 10  1  0
 13 12  1  0
 14 16  1  0
 14 13  1  0
 15 26  2  0
 16 21  1  0
 17 25  1  0
 17 27  1  0
 18 24  1  0
 18 20  1  0
 19 25  1  0
 20 19  1  0
 21 20  2  0
 22 23  1  0
 22 16  2  0
 23 18  2  0
 24 17  1  0
 25 15  1  0
 27 29  2  0
 28 27  1  0
 30 28  1  0
 31 40  2  0
 31 36  1  0
 32 28  1  0
 32 36  1  0
 33 32  1  0
 34 35  1  0
 34 33  1  0
 35 31  1  0
 36 37  2  0
 37 38  1  0
 39 38  2  0
 40 39  1  0
 41 15  1  0
 41 42  1  0
 41 51  1  0
 42 45  1  0
 43 47  1  0
 43 42  1  0
 44 43  2  0
 47 46  1  0
 49 47  1  0
 49 50  1  0
 49 48  1  0
 51 54  1  1
 51 52  1  0
 53 51  1  0
 56 55  1  0
 57 70  1  0
 58 63  1  0
 59 60  1  0
 59 58  1  0
 61 60  1  0
 61 74  1  0
 61 62  1  0
 63 57  1  0
 63 62  1  0
 64 57  2  0
 65 69  1  0
 66 69  1  0
 67 65  1  0
 68 66  1  0
 69 56  1  0
 70 67  1  0
 70 68  1  0
 71 72  2  0
 72 91  1  0
 73 72  1  0
 73 76  1  0
 74 71  1  0
 74 75  1  0
 75 73  2  0
 76 77  1  0
 77 78  2  0
 79 82  1  0
 79 78  1  0
 80 79  2  0
 81 80  1  0
 81 76  2  0
 82 83  1  0
 83 84  1  0
 84 85  2  0
 86 85  1  0
 86 90  1  0
 87 86  2  0
 88 83  2  0
 88 87  1  0
 89 88  1  0
 91 92  1  0
 92 95  1  0
 92 94  1  0
 93 91  2  0
 96 97  1  0
 96 71  1  0
 98 96  1  0
M  ISO  4  13 101  14 101  57 100  70 100
M  END
>  <TORSDO>  (85) 
F 22

>  <SCORE>  (85) 
91.159

>  <name>  (85) 
84

>  <ligand_id>  (85) 
84

>  <original_smiles>  (85) 
[H]C(C(=O)C([H])([H])C([H])([H])Oc1c([H])c([H])c2c(c1[H])C([H])([H])N(C(=O)C([H])(N([H])C(=O)C([H])(N([H])C([H])([H])[H])C([H])([H])[H])C(C([H])([H])[H])(C([H])([H])[H])C([H])([H])[H])C([H])(C(=O)N([H])C1([H])c3c([H])c([H])c([H])c([H])c3C([H])([H])C([H])([H])C1([H])[H])C2([H])[H])=C([H])c1c([H])c([H])c(C([H])([H])C([H])([H])C2([H])C([H])([H])C([H])([H])N(C(=O)N3C([H])([H])C([H])([H])C([H])([H])C([H])(n4nc(-c5c([H])c([H])c(Oc6c([H])c([H])c(F)c([H])c6F)c([H])c5[H])c(C(=O)N([H])[H])c4N([H])[H])C3([H])[H])C([H])([H])C2([H])[H])c(C([H])([H])[H])c1[H]

>  <smiles>  (85) 
[H]C(C(=O)C([H])([H])C([H])([H])Oc1c([H])c([H])c2c(c1[H])C([H])([H])N(C(=O)C([H])(N([H])C(=O)C([H])(N([H])C([H])([H])[H])C([H])([H])[H])C(C([H])([H])[H])(C([H])([H])[H])C([H])([H])[H])C([H])(C(=O)N([H])C1([H])c3c([H])c([H])c([H])c([H])c3C([H])([H])C([H])([H])C1([H])[H])C2([H])[H])=C([H])c1c([H])c([H])c(C([H])([H])C([H])([H])C2([H])C([H])([H])C([H])([H])N(C(=O)N3C([H])([H])C([H])([H])C([H])([H])C([H])(n4nc(-c5c([H])c([H])c(Oc6c([H])c([H])c(F)c([H])c6F)c([H])c5[H])c(C(=O)N([H])[H])c4N([H])[H])C3([H])[H])C([H])([H])C2([H])[H])c(C([H])([H])[H])c1[H]

$$$$
85:0:0
     RDKit          3D

 97105  0  0  1  0  0  0  0  0999 V2000
  -30.6060  -26.0170   23.8370 C   0  0  0  0  0  3  0  0  0  0  0  0
  -30.6770  -24.8220   23.0980 C   0  0  0  0  0  3  0  0  0  0  0  0
  -29.3100  -27.0400   22.0500 C   0  0  0  0  0  3  0  0  0  0  0  0
  -29.8970  -27.1270   23.3310 C   0  0  0  0  0  0  0  0  0  0  0  0
  -30.0660  -24.7210   21.8290 C   0  0  0  0  0  0  0  0  0  0  0  0
  -29.3910  -25.8500   21.2940 C   0  0  0  0  0  0  0  0  0  0  0  0
  -28.7380  -25.8350   19.9200 C   0  0  0  0  0  1  0  0  0  0  0  0
  -29.8460  -28.3870   24.1240 C   0  0  0  0  0  0  0  0  0  0  0  0
  -30.8570  -28.8780   24.6360 O   0  0  0  0  0  0  0  0  0  0  0  0
  -28.4650  -29.0250   24.3640 C   0  0  0  0  0  2  0  0  0  0  0  0
  -28.5080  -30.4390   24.1580 O   0  0  0  0  0  0  0  0  0  0  0  0
  -31.2470  -34.3150   29.4460 C   0  0  0  0  0  0  0  0  0  0  0  0
  -28.2820  -31.1760   25.2910 C   0  0  0  0  0  0  0  0  0  0  0  0
  -28.8440  -33.7510   29.6540 C   0  0  0  0  0  3  0  0  0  0  0  0
  -27.7640  -32.7340   27.5810 C   0  0  0  0  0  0  0  0  0  0  0  0
  -29.9460  -33.9430   27.3580 C   0  0  0  0  0  2  0  0  0  0  0  0
  -28.9560  -32.9100   26.8670 C   0  0  0  0  0  0  0  0  0  0  0  0
  -29.2170  -32.1400   25.7170 C   0  0  0  0  0  3  0  0  0  0  0  0
  -27.0860  -30.9970   26.0130 C   0  0  0  0  0  3  0  0  0  0  0  0
  -26.8240  -31.7750   27.1600 C   0  0  0  0  0  3  0  0  0  0  0  0
  -27.5610  -33.6180   28.7900 C   0  0  0  0  0  2  0  0  0  0  0  0
  -30.0740  -33.9920   28.8320 N   0  0  0  0  0  0  0  0  0  0  0  0
  -31.3070  -34.4590   30.6740 O   0  0  0  0  0  0  0  0  0  0  0  0
  -28.9530  -32.5080   30.5650 C   0  0  0  0  0  0  0  0  0  0  0  0
  -28.2050  -32.5190   31.6800 N   0  0  0  0  0  0  0  0  0  0  0  0
  -29.6680  -31.5520   30.2490 O   0  0  0  0  0  0  0  0  0  0  0  0
  -27.6510  -33.3430   31.8690 H   0  0  0  0  0  0  0  0  0  0  0  0
  -26.6400  -31.5470   34.7850 C   0  0  0  0  0  0  0  0  0  0  0  0
  -28.1140  -31.4430   32.6650 C   0  0  0  0  0  3  0  0  0  0  0  0
  -27.1610  -30.3250   32.1810 C   0  0  0  0  0  2  0  0  0  0  0  0
  -25.7210  -30.5060   32.6690 C   0  0  0  0  0  2  0  0  0  0  0  0
  -25.6720  -30.5320   34.1990 C   0  0  0  0  0  2  0  0  0  0  0  0
  -27.7780  -31.9850   34.0580 C   0  0  0  0  0  0  0  0  0  0  0  0
  -28.6260  -32.9560   34.6330 C   0  0  0  0  0  3  0  0  0  0  0  0
  -28.3540  -33.4840   35.9100 C   0  0  0  0  0  3  0  0  0  0  0  0
  -27.2350  -33.0340   36.6320 C   0  0  0  0  0  3  0  0  0  0  0  0
  -26.3850  -32.0640   36.0720 C   0  0  0  0  0  3  0  0  0  0  0  0
  -32.5620  -34.5410   28.6350 C   0  0  0  0  0  3  0  0  0  0  0  0
  -33.4380  -33.2370   28.4890 C   0  0  1  0  0  0  0  0  0  0  0  0
  -33.6830  -32.5010   29.8270 C   0  0  0  0  0  1  0  0  0  0  0  0
  -32.7670  -32.2380   27.5150 C   0  0  0  0  0  1  0  0  0  0  0  0
  -34.8150  -33.5920   27.8810 C   0  0  0  0  0  1  0  0  0  0  0  0
  -33.3190  -35.6040   29.3090 N   0  0  0  0  0  0  0  0  0  0  0  0
  -33.2890  -36.8970   28.9600 C   0  0  0  0  0  0  0  0  0  0  0  0
  -32.6690  -37.3120   27.9770 O   0  0  0  0  0  0  0  0  0  0  0  0
  -33.8060  -35.3440   30.1560 H   0  0  0  0  0  0  0  0  0  0  0  0
  -33.1160  -38.5560   30.8410 C   0  0  0  0  0  1  0  0  0  0  0  0
  -34.0730  -37.8880   29.8420 C   0  0  0  0  0  3  0  0  0  0  0  0
  -35.9000  -38.3980   28.2830 C   0  0  0  0  0  1  0  0  0  0  0  0
  -34.7880  -38.9260   29.0680 N   0  0  0  0  0  0  0  0  0  0  0  0
  -35.1490  -39.6490   29.6830 H   0  0  0  0  0  0  0  0  0  0  0  0
  -30.1380  -23.3880   21.0920 C   0  0  0  0  0  2  0  0  0  0  0  0
  -29.2160  -21.2320   21.8850 C   0  0  0  0  0  1  0  0  0  0  0  0
  -28.9180  -22.5950   21.3890 N   0  0  2  0  0  4  0  0  0  0  0  0
  -28.5050  -23.0900   22.1640 H   0  0  0  0  0  0  0  0  0  0  0  0
  -27.9020  -22.6160   20.3070 C   0  0  0  0  0  2  0  0  0  0  0  0
  -26.4810  -22.8380   20.8600 C   0  0  0  0  0  2  0  0  0  0  0  0
  -25.4810  -23.2030   19.7530 C   0  0  0  0  0  2  0  0  0  0  0  0
  -24.1120  -23.6490   20.2890 C   0  0  0  0  0  2  0  0  0  0  0  0
  -23.1390  -23.9550   19.1410 C   0  0  0  0  0  2  0  0  0  0  0  0
  -21.7440  -24.4150   19.6100 C   0  0  0  0  0  2  0  0  0  0  0  0
  -20.7050  -24.4280   18.4750 C   0  0  0  0  0  0  0  0  0  0  0  0
  -18.3470  -24.4740   17.7380 C   0  0  0  0  0  2  0  0  0  0  0  0
  -17.8470  -25.9050   17.4830 C   0  0  0  0  0  2  0  0  0  0  0  0
  -17.3250  -26.5360   18.7870 C   0  0  0  0  0  2  0  0  0  0  0  0
  -18.3320  -26.3940   19.9580 C   0  0  0  0  0  3  0  0  0  0  0  0
  -18.8390  -24.9390   20.0800 C   0  0  0  0  0  2  0  0  0  0  0  0
  -19.3850  -24.5270   18.7760 N   0  0  0  0  0  0  0  0  0  0  0  0
  -21.1040  -24.3140   17.3110 O   0  0  0  0  0  0  0  0  0  0  0  0
  -18.0300  -28.0300   21.9250 C   0  0  0  0  0  0  0  0  0  0  0  0
  -17.1650  -28.0340   22.9870 C   0  0  0  0  0  0  0  0  0  0  0  0
  -16.3810  -26.8470   22.8610 C   0  0  0  0  0  0  0  0  0  0  0  0
  -17.7550  -26.8720   21.2150 N   0  0  0  0  0  0  0  0  0  0  0  0
  -16.7880  -26.1340   21.8190 N   0  0  0  0  0  0  0  0  0  0  0  0
  -15.2290  -26.3750   23.6390 C   0  0  0  0  0  0  0  0  0  0  0  0
  -15.1910  -25.0740   24.1880 C   0  0  0  0  0  3  0  0  0  0  0  0
  -14.0800  -24.6500   24.9470 C   0  0  0  0  0  3  0  0  0  0  0  0
  -12.9920  -25.5290   25.1680 C   0  0  0  0  0  0  0  0  0  0  0  0
  -13.0250  -26.8150   24.5990 C   0  0  0  0  0  3  0  0  0  0  0  0
  -14.1300  -27.2340   23.8400 C   0  0  0  0  0  3  0  0  0  0  0  0
  -11.8610  -25.1940   25.8710 O   0  0  0  0  0  0  0  0  0  0  0  0
  -11.8940  -24.2910   26.9030 C   0  0  0  0  0  0  0  0  0  0  0  0
  -12.7520  -24.4590   28.0130 C   0  0  0  0  0  3  0  0  0  0  0  0
  -12.7050  -23.5440   29.0840 C   0  0  0  0  0  3  0  0  0  0  0  0
  -11.7970  -22.4690   29.0520 C   0  0  0  0  0  0  0  0  0  0  0  0
  -10.9390  -22.3040   27.9520 C   0  0  0  0  0  3  0  0  0  0  0  0
  -10.9860  -23.2150   26.8810 C   0  0  0  0  0  0  0  0  0  0  0  0
  -10.1410  -23.0620   25.8320 F   0  0  0  0  0  0  0  0  0  0  0  0
  -11.7450  -21.5950   30.0850 F   0  0  0  0  0  0  0  0  0  0  0  0
  -17.0090  -29.1220   24.0110 C   0  0  0  0  0  0  0  0  0  0  0  0
  -16.6220  -28.7640   25.2310 N   0  0  0  0  0  0  0  0  0  0  0  0
  -17.2750  -30.2930   23.7460 O   0  0  0  0  0  0  0  0  0  0  0  0
  -16.4230  -27.8000   25.4550 H   0  0  0  0  0  0  0  0  0  0  0  0
  -16.5240  -29.4650   25.9520 H   0  0  0  0  0  0  0  0  0  0  0  0
  -19.0100  -28.9210   21.4940 N   0  0  0  0  0  0  0  0  0  0  0  0
  -19.1940  -29.7980   21.9670 H   0  0  0  0  0  0  0  0  0  0  0  0
  -19.5630  -28.7990   20.6540 H   0  0  0  0  0  0  0  0  0  0  0  0
  2  1  2  0
  3  4  2  0
  4  1  1  0
  4  8  1  0
  5  2  1  0
  6  5  2  0
  6  3  1  0
  7  6  1  0
  8 10  1  0
  8  9  2  0
 11 10  1  0
 11 13  1  0
 12 23  2  0
 13 18  2  0
 13 19  1  0
 14 24  1  0
 15 21  1  0
 16 22  1  0
 17 16  1  0
 17 15  2  0
 18 17  1  0
 19 20  2  0
 20 15  1  0
 21 14  1  0
 22 12  1  0
 22 14  1  0
 24 25  1  0
 25 27  1  0
 26 24  2  0
 28 37  1  0
 29 25  1  0
 29 33  1  0
 30 29  1  0
 30 31  1  0
 31 32  1  0
 32 28  1  0
 33 34  1  0
 33 28  2  0
 34 35  2  0
 35 36  1  0
 37 36  2  0
 38 43  1  0
 38 12  1  0
 39 38  1  0
 39 40  1  1
 41 39  1  0
 42 39  1  0
 43 46  1  0
 44 43  1  0
 44 48  1  0
 45 44  2  0
 48 47  1  0
 49 50  1  0
 50 51  1  0
 50 48  1  0
 52 54  1  0
 52  5  1  0
 54 53  1  0
 54 55  1  1
 56 57  1  0
 56 54  1  0
 58 59  1  0
 58 57  1  0
 60 61  1  0
 60 59  1  0
 62 68  1  0
 62 61  1  0
 63 68  1  0
 64 63  1  0
 64 65  1  0
 66 65  1  0
 66 67  1  0
 66 73  1  0
 68 67  1  0
 69 62  2  0
 70 71  2  0
 71 90  1  0
 72 71  1  0
 72 75  1  0
 73 74  1  0
 73 70  1  0
 74 72  2  0
 75 80  2  0
 75 76  1  0
 76 77  2  0
 77 78  1  0
 78 81  1  0
 79 78  2  0
 80 79  1  0
 81 82  1  0
 82 83  1  0
 83 84  2  0
 85 84  1  0
 85 89  1  0
 86 85  2  0
 87 82  2  0
 87 86  1  0
 88 87  1  0
 90 91  1  0
 91 93  1  0
 91 94  1  0
 92 90  2  0
 95 70  1  0
 95 96  1  0
 97 95  1  0
M  ISO  4  10 101  11 101  61 100  62 100
M  END
>  <TORSDO>  (86) 
F 26

>  <SCORE>  (86) 
-1.784

>  <name>  (86) 
85

>  <ligand_id>  (86) 
85

>  <original_smiles>  (86) 
[H]c1c([H])c([H])c2c(c1[H])C([H])([H])C([H])([H])C([H])([H])C2([H])N([H])C(=O)C1([H])N(C(=O)C([H])(N([H])C(=O)C([H])(N([H])C([H])([H])[H])C([H])([H])[H])C(C([H])([H])[H])(C([H])([H])[H])C([H])([H])[H])C([H])([H])c2c([H])c(OC([H])([H])C(=O)c3c([H])c([H])c(C([H])([H])[N+]([H])(C([H])([H])[H])C([H])([H])C([H])([H])C([H])([H])C([H])([H])C([H])([H])C([H])([H])C(=O)N4C([H])([H])C([H])([H])C([H])([H])C([H])(n5nc(-c6c([H])c([H])c(Oc7c([H])c([H])c(F)c([H])c7F)c([H])c6[H])c(C(=O)N([H])[H])c5N([H])[H])C4([H])[H])c(C([H])([H])[H])c3[H])c([H])c([H])c2C1([H])[H]

>  <smiles>  (86) 
[H]c1c([H])c([H])c2c(c1[H])C([H])([H])C([H])([H])C([H])([H])C2([H])N([H])C(=O)C1([H])N(C(=O)C([H])(N([H])C(=O)C([H])(N([H])C([H])([H])[H])C([H])([H])[H])C(C([H])([H])[H])(C([H])([H])[H])C([H])([H])[H])C([H])([H])c2c([H])c(OC([H])([H])C(=O)c3c([H])c([H])c(C([H])([H])[N+]([H])(C([H])([H])[H])C([H])([H])C([H])([H])C([H])([H])C([H])([H])C([H])([H])C([H])([H])C(=O)N4C([H])([H])C([H])([H])C([H])([H])C([H])(n5nc(-c6c([H])c([H])c(Oc7c([H])c([H])c(F)c([H])c7F)c([H])c6[H])c(C(=O)N([H])[H])c5N([H])[H])C4([H])[H])c(C([H])([H])[H])c3[H])c([H])c([H])c2C1([H])[H]

$$$$
86:0:0
     RDKit          3D

100108  0  0  1  0  0  0  0  0999 V2000
  -27.0210  -25.1720   27.6810 C   0  0  0  0  0  3  0  0  0  0  0  0
  -27.9190  -27.1700   26.6150 C   0  0  0  0  0  3  0  0  0  0  0  0
  -26.5820  -27.3680   28.6460 C   0  0  0  0  0  3  0  0  0  0  0  0
  -27.7660  -25.7630   26.6330 C   0  0  0  0  0  0  0  0  0  0  0  0
  -26.4290  -25.9680   28.6840 C   0  0  0  0  0  0  0  0  0  0  0  0
  -27.3280  -27.9680   27.6120 C   0  0  0  0  0  0  0  0  0  0  0  0
  -25.6200  -25.3200   29.7900 C   0  0  0  0  0  1  0  0  0  0  0  0
  -28.3770  -24.8960   25.5810 C   0  0  0  0  0  0  0  0  0  0  0  0
  -28.2480  -23.6670   25.5630 O   0  0  0  0  0  0  0  0  0  0  0  0
  -29.1770  -25.5990   24.4740 C   0  0  0  0  0  2  0  0  0  0  0  0
  -29.3710  -24.7780   23.1860 C   0  0  0  0  0  2  0  0  0  0  0  0
  -29.4370  -25.6920   21.9520 C   0  0  0  0  0  2  0  0  0  0  0  0
  -29.5050  -24.9270   20.6160 C   0  0  0  0  0  2  0  0  0  0  0  0
  -28.6990  -25.6220   19.5040 C   0  0  0  0  0  2  0  0  0  0  0  0
  -27.1870  -25.3890   19.6620 C   0  0  0  0  0  2  0  0  0  0  0  0
  -26.3210  -26.1950   18.6850 C   0  0  0  0  0  2  0  0  0  0  0  0
  -24.8340  -25.9300   18.9470 C   0  0  0  0  0  2  0  0  0  0  0  0
  -23.8980  -26.4690   17.8560 C   0  0  0  0  0  2  0  0  0  0  0  0
  -22.4290  -26.1520   18.1920 C   0  0  0  0  0  2  0  0  0  0  0  0
  -21.4960  -26.0890   16.9750 C   0  0  0  0  0  0  0  0  0  0  0  0
  -19.5140  -25.0330   15.9430 C   0  0  0  0  0  2  0  0  0  0  0  0
  -18.2750  -25.9400   15.8940 C   0  0  0  0  0  2  0  0  0  0  0  0
  -17.4830  -25.8510   17.2110 C   0  0  0  0  0  2  0  0  0  0  0  0
  -18.3870  -26.0520   18.4560 C   0  0  0  0  0  3  0  0  0  0  0  0
  -19.6380  -25.1500   18.3790 C   0  0  0  0  0  2  0  0  0  0  0  0
  -20.3270  -25.4140   17.1040 N   0  0  0  0  0  0  0  0  0  0  0  0
  -21.8770  -26.5670   15.9010 O   0  0  0  0  0  0  0  0  0  0  0  0
  -17.2730  -26.7480   20.6730 C   0  0  0  0  0  0  0  0  0  0  0  0
  -16.5220  -26.0450   21.5780 C   0  0  0  0  0  0  0  0  0  0  0  0
  -16.4620  -24.7060   21.0870 C   0  0  0  0  0  0  0  0  0  0  0  0
  -17.6390  -25.8370   19.6940 N   0  0  0  0  0  0  0  0  0  0  0  0
  -17.1860  -24.5890   19.9800 N   0  0  0  0  0  0  0  0  0  0  0  0
  -15.7120  -23.5410   21.5710 C   0  0  0  0  0  0  0  0  0  0  0  0
  -16.3500  -22.3100   21.8370 C   0  0  0  0  0  3  0  0  0  0  0  0
  -15.6090  -21.2090   22.3200 C   0  0  0  0  0  3  0  0  0  0  0  0
  -14.2180  -21.3360   22.5470 C   0  0  0  0  0  0  0  0  0  0  0  0
  -13.5840  -22.5570   22.2590 C   0  0  0  0  0  3  0  0  0  0  0  0
  -14.3220  -23.6490   21.7730 C   0  0  0  0  0  3  0  0  0  0  0  0
  -13.4140  -20.3130   22.9890 O   0  0  0  0  0  0  0  0  0  0  0  0
  -13.9090  -19.2870   23.7530 C   0  0  0  0  0  0  0  0  0  0  0  0
  -14.5640  -19.5210   24.9830 C   0  0  0  0  0  3  0  0  0  0  0  0
  -14.9960  -18.4330   25.7680 C   0  0  0  0  0  3  0  0  0  0  0  0
  -14.7660  -17.1150   25.3330 C   0  0  0  0  0  0  0  0  0  0  0  0
  -14.1100  -16.8800   24.1120 C   0  0  0  0  0  3  0  0  0  0  0  0
  -13.6800  -17.9630   23.3260 C   0  0  0  0  0  0  0  0  0  0  0  0
  -13.0290  -17.7310   22.1610 F   0  0  0  0  0  0  0  0  0  0  0  0
  -15.1740  -16.0700   26.0920 F   0  0  0  0  0  0  0  0  0  0  0  0
  -15.8190  -26.6030   22.7830 C   0  0  0  0  0  0  0  0  0  0  0  0
  -15.6240  -25.7840   23.8120 N   0  0  0  0  0  0  0  0  0  0  0  0
  -15.4820  -27.7840   22.8380 O   0  0  0  0  0  0  0  0  0  0  0  0
  -15.9190  -24.8200   23.7750 H   0  0  0  0  0  0  0  0  0  0  0  0
  -15.1740  -26.1290   24.6480 H   0  0  0  0  0  0  0  0  0  0  0  0
  -17.6560  -28.0840   20.5910 N   0  0  0  0  0  0  0  0  0  0  0  0
  -17.3600  -28.7770   21.2680 H   0  0  0  0  0  0  0  0  0  0  0  0
  -18.2030  -28.4770   19.8330 H   0  0  0  0  0  0  0  0  0  0  0  0
  -27.4810  -29.4760   27.5620 C   0  0  0  0  0  2  0  0  0  0  0  0
  -26.9570  -30.0670   26.2420 C   0  0  0  0  0  2  0  0  0  0  0  0
  -27.7250  -31.3340   25.8360 C   0  0  0  0  0  2  0  0  0  0  0  0
  -27.2000  -31.9900   24.5400 C   0  0  0  0  0  2  0  0  0  0  0  0
  -28.1840  -32.8420   23.9500 O   0  0  0  0  0  0  0  0  0  0  0  0
  -32.6570  -36.0250   28.4240 C   0  0  0  0  0  0  0  0  0  0  0  0
  -28.4400  -33.9590   24.7020 C   0  0  0  0  0  0  0  0  0  0  0  0
  -30.4090  -37.0480   28.2430 C   0  0  0  0  0  3  0  0  0  0  0  0
  -28.9600  -36.2050   26.3210 C   0  0  0  0  0  0  0  0  0  0  0  0
  -31.4290  -35.7740   26.2750 C   0  0  0  0  0  2  0  0  0  0  0  0
  -30.0200  -35.4150   25.8580 C   0  0  0  0  0  0  0  0  0  0  0  0
  -29.7660  -34.3050   25.0320 C   0  0  0  0  0  3  0  0  0  0  0  0
  -27.3770  -34.7570   25.1690 C   0  0  0  0  0  3  0  0  0  0  0  0
  -27.6330  -35.8830   25.9770 C   0  0  0  0  0  3  0  0  0  0  0  0
  -29.3250  -37.3900   27.1860 C   0  0  0  0  0  2  0  0  0  0  0  0
  -31.5390  -36.2430   27.6750 N   0  0  0  0  0  0  0  0  0  0  0  0
  -32.7780  -36.5210   29.5510 O   0  0  0  0  0  0  0  0  0  0  0  0
  -29.7230  -36.3710   29.4500 C   0  0  0  0  0  0  0  0  0  0  0  0
  -29.2230  -37.1940   30.3870 N   0  0  0  0  0  0  0  0  0  0  0  0
  -29.6260  -35.1430   29.5180 O   0  0  0  0  0  0  0  0  0  0  0  0
  -29.3560  -38.1880   30.2620 H   0  0  0  0  0  0  0  0  0  0  0  0
  -27.6570  -38.4360   33.3950 C   0  0  0  0  0  0  0  0  0  0  0  0
  -28.4980  -36.7900   31.5900 C   0  0  0  0  0  3  0  0  0  0  0  0
  -27.0060  -36.5260   31.2800 C   0  0  0  0  0  2  0  0  0  0  0  0
  -26.1170  -37.7520   31.5060 C   0  0  0  0  0  2  0  0  0  0  0  0
  -26.2160  -38.2270   32.9590 C   0  0  0  0  0  2  0  0  0  0  0  0
  -28.7290  -37.7750   32.7410 C   0  0  0  0  0  0  0  0  0  0  0  0
  -30.0520  -38.0320   33.1610 C   0  0  0  0  0  3  0  0  0  0  0  0
  -30.3120  -38.9250   34.2180 C   0  0  0  0  0  3  0  0  0  0  0  0
  -29.2450  -39.5640   34.8740 C   0  0  0  0  0  3  0  0  0  0  0  0
  -27.9220  -39.3170   34.4650 C   0  0  0  0  0  3  0  0  0  0  0  0
  -33.8470  -35.1660   27.8900 C   0  0  0  0  0  3  0  0  0  0  0  0
  -35.0900  -35.8320   28.2970 N   0  0  0  0  0  0  0  0  0  0  0  0
  -35.8230  -36.6280   27.5050 C   0  0  0  0  0  0  0  0  0  0  0  0
  -35.5530  -36.8210   26.3170 O   0  0  0  0  0  0  0  0  0  0  0  0
  -35.3460  -35.7560   29.2710 H   0  0  0  0  0  0  0  0  0  0  0  0
  -36.6980  -38.7740   28.4800 C   0  0  0  0  0  1  0  0  0  0  0  0
  -37.0490  -37.3180   28.1310 C   0  0  0  0  0  3  0  0  0  0  0  0
  -38.8080  -35.9520   27.1000 C   0  0  0  0  0  1  0  0  0  0  0  0
  -38.2460  -37.2900   27.2630 N   0  0  0  0  0  0  0  0  0  0  0  0
  -38.9750  -37.8940   27.6320 H   0  0  0  0  0  0  0  0  0  0  0  0
  -33.8190  -33.6730   28.4040 C   0  0  1  0  0  0  0  0  0  0  0  0
  -33.5730  -33.5410   29.9240 C   0  0  0  0  0  1  0  0  0  0  0  0
  -32.7170  -32.8680   27.6770 C   0  0  0  0  0  1  0  0  0  0  0  0
  -35.1630  -32.9810   28.0750 C   0  0  0  0  0  1  0  0  0  0  0  0
  1  5  1  0
  2  4  1  0
  2  6  2  0
  3  5  2  0
  4  1  2  0
  5  7  1  0
  6  3  1  0
  8  4  1  0
  9  8  2  0
 10  8  1  0
 11 10  1  0
 12 11  1  0
 13 12  1  0
 14 15  1  0
 14 13  1  0
 16 17  1  0
 16 15  1  0
 18 19  1  0
 18 17  1  0
 20 26  1  0
 20 19  1  0
 21 26  1  0
 22 21  1  0
 22 23  1  0
 24 23  1  0
 24 31  1  0
 25 24  1  0
 26 25  1  0
 27 20  2  0
 28 29  2  0
 29 48  1  0
 30 33  1  0
 30 29  1  0
 31 32  1  0
 31 28  1  0
 32 30  2  0
 33 38  2  0
 33 34  1  0
 34 35  2  0
 35 36  1  0
 36 39  1  0
 37 36  2  0
 38 37  1  0
 39 40  1  0
 40 41  1  0
 41 42  2  0
 43 42  1  0
 43 47  1  0
 44 43  2  0
 45 40  2  0
 45 44  1  0
 46 45  1  0
 48 50  2  0
 48 49  1  0
 49 52  1  0
 51 49  1  0
 53 28  1  0
 53 54  1  0
 55 53  1  0
 56  6  1  0
 57 56  1  0
 58 57  1  0
 59 58  1  0
 60 59  1  0
 60 62  1  0
 61 72  2  0
 62 67  2  0
 62 68  1  0
 63 73  1  0
 64 70  1  0
 65 71  1  0
 66 65  1  0
 66 64  2  0
 67 66  1  0
 68 69  2  0
 69 64  1  0
 70 63  1  0
 71 63  1  0
 71 61  1  0
 73 75  2  0
 73 74  1  0
 76 74  1  0
 77 86  1  0
 78 74  1  0
 78 82  1  0
 79 80  1  0
 79 78  1  0
 80 81  1  0
 81 77  1  0
 82 83  1  0
 82 77  2  0
 83 84  2  0
 84 85  1  0
 86 85  2  0
 87 88  1  0
 87 97  1  0
 87 61  1  0
 88 91  1  0
 89 93  1  0
 89 88  1  0
 90 89  2  0
 93 92  1  0
 94 95  1  0
 95 96  1  0
 95 93  1  0
 97 98  1  1
 99 97  1  0
100 97  1  0
M  ISO  4  19 100  20 100  59 101  60 101
M  END
>  <TORSDO>  (87) 
F 31

>  <SCORE>  (87) 
0.222

>  <name>  (87) 
86

>  <ligand_id>  (87) 
86

>  <original_smiles>  (87) 
[H]c1c([H])c([H])c2c(c1[H])C([H])([H])C([H])([H])C([H])([H])C2([H])N([H])C(=O)C1([H])N(C(=O)C([H])(N([H])C(=O)C([H])(N([H])C([H])([H])[H])C([H])([H])[H])C(C([H])([H])[H])(C([H])([H])[H])C([H])([H])[H])C([H])([H])c2c([H])c(OC([H])([H])C([H])([H])C([H])([H])C([H])([H])c3c([H])c(C(=O)C([H])([H])C([H])([H])C([H])([H])C([H])([H])C([H])([H])C([H])([H])C([H])([H])C([H])([H])C([H])([H])C([H])([H])C(=O)N4C([H])([H])C([H])([H])C([H])([H])C([H])(n5nc(-c6c([H])c([H])c(Oc7c([H])c([H])c(F)c([H])c7F)c([H])c6[H])c(C(=O)N([H])[H])c5N([H])[H])C4([H])[H])c([H])c(C([H])([H])[H])c3[H])c([H])c([H])c2C1([H])[H]

>  <smiles>  (87) 
[H]c1c([H])c([H])c2c(c1[H])C([H])([H])C([H])([H])C([H])([H])C2([H])N([H])C(=O)C1([H])N(C(=O)C([H])(N([H])C(=O)C([H])(N([H])C([H])([H])[H])C([H])([H])[H])C(C([H])([H])[H])(C([H])([H])[H])C([H])([H])[H])C([H])([H])c2c([H])c(OC([H])([H])C([H])([H])C([H])([H])C([H])([H])c3c([H])c(C(=O)C([H])([H])C([H])([H])C([H])([H])C([H])([H])C([H])([H])C([H])([H])C([H])([H])C([H])([H])C([H])([H])C([H])([H])C(=O)N4C([H])([H])C([H])([H])C([H])([H])C([H])(n5nc(-c6c([H])c([H])c(Oc7c([H])c([H])c(F)c([H])c7F)c([H])c6[H])c(C(=O)N([H])[H])c5N([H])[H])C4([H])[H])c([H])c(C([H])([H])[H])c3[H])c([H])c([H])c2C1([H])[H]

$$$$
87:0:0
     RDKit          3D

 92 99  0  0  1  0  0  0  0  0999 V2000
  -31.9830  -24.0590   18.7930 C   0  0  0  0  0  0  0  0  0  0  0  0
  -31.5250  -22.8690   18.3780 N   0  0  0  0  0  0  0  0  0  0  0  0
  -33.1830  -24.3370   18.7970 O   0  0  0  0  0  0  0  0  0  0  0  0
  -30.5210  -22.7430   18.3660 H   0  0  0  0  0  0  0  0  0  0  0  0
  -32.3320  -21.7050   18.0150 C   0  0  0  0  0  2  0  0  0  0  0  0
  -32.6310  -20.8220   19.2470 C   0  0  0  0  0  2  0  0  0  0  0  0
  -31.4120  -20.0410   19.7910 C   0  0  0  0  0  2  0  0  0  0  0  0
  -31.6550  -19.3960   21.1790 C   0  0  0  0  0  2  0  0  0  0  0  0
  -30.6700  -18.2500   21.5310 C   0  0  0  0  0  2  0  0  0  0  0  0
  -31.2550  -16.8370   21.2610 C   0  0  0  0  0  2  0  0  0  0  0  0
  -30.2450  -15.6400   21.1900 C   0  0  0  0  0  2  0  0  0  0  0  0
  -30.7470  -14.4430   20.3420 C   0  0  0  0  0  0  0  0  0  0  0  0
  -30.3110  -12.3410   19.1080 C   0  0  0  0  0  2  0  0  0  0  0  0
  -29.3530  -12.6110   17.9330 C   0  0  0  0  0  2  0  0  0  0  0  0
  -27.8910  -12.4940   18.3970 C   0  0  0  0  0  2  0  0  0  0  0  0
  -27.6060  -13.2900   19.6980 C   0  0  0  0  0  3  0  0  0  0  0  0
  -28.6870  -13.0490   20.7740 C   0  0  0  0  0  2  0  0  0  0  0  0
  -30.0040  -13.3110   20.1750 N   0  0  0  0  0  0  0  0  0  0  0  0
  -31.8200  -14.5850   19.7480 O   0  0  0  0  0  0  0  0  0  0  0  0
  -25.2220  -13.8830   20.4480 C   0  0  0  0  0  0  0  0  0  0  0  0
  -24.1630  -13.1040   20.8380 C   0  0  0  0  0  0  0  0  0  0  0  0
  -24.6270  -11.7540   20.8020 C   0  0  0  0  0  0  0  0  0  0  0  0
  -26.2650  -13.0070   20.2030 N   0  0  0  0  0  0  0  0  0  0  0  0
  -25.9110  -11.7220   20.4700 N   0  0  0  0  0  0  0  0  0  0  0  0
  -23.9040  -10.4930   21.0110 C   0  0  0  0  0  0  0  0  0  0  0  0
  -24.3600   -9.5280   21.9340 C   0  0  0  0  0  3  0  0  0  0  0  0
  -23.6430   -8.3280   22.1310 C   0  0  0  0  0  3  0  0  0  0  0  0
  -22.4530   -8.0850   21.4060 C   0  0  0  0  0  0  0  0  0  0  0  0
  -22.0120   -9.0390   20.4700 C   0  0  0  0  0  3  0  0  0  0  0  0
  -22.7320  -10.2290   20.2730 C   0  0  0  0  0  3  0  0  0  0  0  0
  -21.7040   -6.9390   21.5120 O   0  0  0  0  0  0  0  0  0  0  0  0
  -21.6940   -6.1880   22.6620 C   0  0  0  0  0  0  0  0  0  0  0  0
  -21.3160   -6.7370   23.9050 C   0  0  0  0  0  3  0  0  0  0  0  0
  -21.2500   -5.9160   25.0470 C   0  0  0  0  0  3  0  0  0  0  0  0
  -21.5520   -4.5450   24.9470 C   0  0  0  0  0  0  0  0  0  0  0  0
  -21.9250   -3.9930   23.7090 C   0  0  0  0  0  3  0  0  0  0  0  0
  -21.9910   -4.8140   22.5670 C   0  0  0  0  0  0  0  0  0  0  0  0
  -22.3280   -4.2740   21.3720 F   0  0  0  0  0  0  0  0  0  0  0  0
  -21.4830   -3.7530   26.0420 F   0  0  0  0  0  0  0  0  0  0  0  0
  -22.7740  -13.5770   21.1460 C   0  0  0  0  0  0  0  0  0  0  0  0
  -22.0750  -12.8730   22.0300 N   0  0  0  0  0  0  0  0  0  0  0  0
  -22.3150  -14.5970   20.6350 O   0  0  0  0  0  0  0  0  0  0  0  0
  -22.4640  -12.0420   22.4510 H   0  0  0  0  0  0  0  0  0  0  0  0
  -21.1400  -13.1620   22.2850 H   0  0  0  0  0  0  0  0  0  0  0  0
  -25.3840  -15.2530   20.2690 N   0  0  0  0  0  0  0  0  0  0  0  0
  -24.6200  -15.9150   20.3780 H   0  0  0  0  0  0  0  0  0  0  0  0
  -26.2410  -15.6820   19.9430 H   0  0  0  0  0  0  0  0  0  0  0  0
  -30.9690  -25.0870   19.3160 C   0  0  0  0  0  2  0  0  0  0  0  0
  -28.6260  -23.9400   19.1250 C   0  0  0  0  0  1  0  0  0  0  0  0
  -29.5710  -25.0630   18.6380 C   0  0  0  0  0  3  0  0  0  0  0  0
  -28.8590  -26.4300   18.7140 C   0  0  0  0  0  2  0  0  0  0  0  0
  -28.4320  -26.7590   20.0420 O   0  0  0  0  0  0  0  0  0  0  0  0
  -24.6190  -31.8750   23.2430 C   0  0  0  0  0  0  0  0  0  0  0  0
  -27.2480  -27.4580   20.1100 C   0  0  0  0  0  0  0  0  0  0  0  0
  -23.3980  -30.4770   21.6080 C   0  0  0  0  0  3  0  0  0  0  0  0
  -24.8400  -28.9340   20.1780 C   0  0  0  0  0  0  0  0  0  0  0  0
  -25.9230  -30.8300   21.3970 C   0  0  0  0  0  2  0  0  0  0  0  0
  -26.0020  -29.4600   20.7590 C   0  0  0  0  0  0  0  0  0  0  0  0
  -27.2060  -28.7220   20.7390 C   0  0  0  0  0  3  0  0  0  0  0  0
  -26.0630  -26.9280   19.5540 C   0  0  0  0  0  3  0  0  0  0  0  0
  -24.8620  -27.6610   19.5800 C   0  0  0  0  0  3  0  0  0  0  0  0
  -23.5960  -29.7910   20.2300 C   0  0  0  0  0  2  0  0  0  0  0  0
  -24.6650  -31.0760   22.1400 N   0  0  0  0  0  0  0  0  0  0  0  0
  -23.5420  -32.1530   23.7880 O   0  0  0  0  0  0  0  0  0  0  0  0
  -22.7510  -29.4570   22.5730 C   0  0  0  0  0  0  0  0  0  0  0  0
  -21.4270  -29.2720   22.4460 N   0  0  0  0  0  0  0  0  0  0  0  0
  -23.4370  -28.8360   23.3900 O   0  0  0  0  0  0  0  0  0  0  0  0
  -20.9400  -29.8170   21.7490 H   0  0  0  0  0  0  0  0  0  0  0  0
  -18.0560  -28.0770   22.9420 C   0  0  0  0  0  0  0  0  0  0  0  0
  -20.6130  -28.3360   23.2190 C   0  0  0  0  0  3  0  0  0  0  0  0
  -20.7200  -26.9060   22.6430 C   0  0  0  0  0  2  0  0  0  0  0  0
  -19.6190  -26.5790   21.6300 C   0  0  0  0  0  2  0  0  0  0  0  0
  -18.2350  -26.7260   22.2690 C   0  0  0  0  0  2  0  0  0  0  0  0
  -19.1730  -28.8410   23.3720 C   0  0  0  0  0  0  0  0  0  0  0  0
  -18.9520  -30.1060   23.9560 C   0  0  0  0  0  3  0  0  0  0  0  0
  -17.6470  -30.6080   24.1180 C   0  0  0  0  0  3  0  0  0  0  0  0
  -16.5430  -29.8400   23.7060 C   0  0  0  0  0  3  0  0  0  0  0  0
  -16.7480  -28.5770   23.1230 C   0  0  0  0  0  3  0  0  0  0  0  0
  -25.9120  -32.5010   23.8520 C   0  0  0  0  0  3  0  0  0  0  0  0
  -26.4350  -31.7280   25.1240 C   0  0  1  0  0  0  0  0  0  0  0  0
  -25.3470  -31.4960   26.1960 C   0  0  0  0  0  1  0  0  0  0  0  0
  -27.0110  -30.3470   24.7290 C   0  0  0  0  0  1  0  0  0  0  0  0
  -27.5930  -32.5170   25.7800 C   0  0  0  0  0  1  0  0  0  0  0  0
  -25.6130  -33.9000   24.1840 N   0  0  0  0  0  0  0  0  0  0  0  0
  -25.9490  -34.9500   23.4230 C   0  0  0  0  0  0  0  0  0  0  0  0
  -26.6180  -34.8430   22.3910 O   0  0  0  0  0  0  0  0  0  0  0  0
  -25.0210  -34.0580   24.9860 H   0  0  0  0  0  0  0  0  0  0  0  0
  -24.2310  -36.7500   23.0630 C   0  0  0  0  0  1  0  0  0  0  0  0
  -25.4670  -36.3390   23.8790 C   0  0  0  0  0  3  0  0  0  0  0  0
  -27.6030  -37.2090   24.7200 C   0  0  0  0  0  1  0  0  0  0  0  0
  -26.5050  -37.3880   23.7740 N   0  0  0  0  0  0  0  0  0  0  0  0
  -26.1020  -38.3080   23.9260 H   0  0  0  0  0  0  0  0  0  0  0  0
  1  3  2  0
  1 48  1  0
  2  1  1  0
  4  2  1  0
  5  2  1  0
  5  6  1  0
  6  7  1  0
  7  8  1  0
  8  9  1  0
 10  9  1  0
 11 10  1  0
 12 11  1  0
 13 18  1  0
 14 15  1  0
 14 13  1  0
 16 15  1  0
 16 23  1  0
 16 17  1  0
 18 12  1  0
 18 17  1  0
 19 12  2  0
 20 21  2  0
 21 40  1  0
 22 21  1  0
 22 25  1  0
 23 20  1  0
 23 24  1  0
 24 22  2  0
 25 26  1  0
 26 27  2  0
 28 31  1  0
 28 27  1  0
 29 28  2  0
 30 29  1  0
 30 25  2  0
 31 32  1  0
 32 33  1  0
 33 34  2  0
 35 34  1  0
 35 39  1  0
 36 35  2  0
 37 32  2  0
 37 36  1  0
 38 37  1  0
 40 41  1  0
 41 44  1  0
 41 43  1  0
 42 40  2  0
 45 46  1  0
 45 20  1  0
 47 45  1  0
 50 51  1  0
 50 49  1  0
 50 48  1  0
 51 52  1  0
 52 54  1  0
 53 64  2  0
 54 59  1  0
 55 63  1  0
 55 65  1  0
 56 62  1  0
 56 58  1  0
 57 63  1  0
 58 57  1  0
 59 58  2  0
 60 61  1  0
 60 54  2  0
 61 56  2  0
 62 55  1  0
 63 53  1  0
 65 67  2  0
 66 65  1  0
 68 66  1  0
 69 78  2  0
 69 74  1  0
 70 66  1  0
 70 74  1  0
 71 70  1  0
 72 73  1  0
 72 71  1  0
 73 69  1  0
 74 75  2  0
 75 76  1  0
 77 76  2  0
 78 77  1  0
 79 53  1  0
 79 84  1  0
 79 80  1  0
 80 83  1  1
 80 81  1  0
 82 80  1  0
 84 87  1  0
 85 89  1  0
 85 84  1  0
 86 85  2  0
 89 88  1  0
 91 89  1  0
 91 92  1  0
 91 90  1  0
M  ISO  4  11 100  12 100  51 101  52 101
M  END
>  <TORSDO>  (88) 
F 26

>  <SCORE>  (88) 
-11.746

>  <name>  (88) 
87

>  <ligand_id>  (88) 
87

>  <original_smiles>  (88) 
[H]c1c([H])c([H])c2c(c1[H])C([H])([H])C([H])([H])C([H])([H])C2([H])N([H])C(=O)C1([H])N(C(=O)C([H])(N([H])C(=O)C([H])(N([H])C([H])([H])[H])C([H])([H])[H])C(C([H])([H])[H])(C([H])([H])[H])C([H])([H])[H])C([H])([H])c2c([H])c(OC([H])([H])C([H])(C([H])([H])[H])C([H])([H])C(=O)N([H])C([H])([H])C([H])([H])C([H])([H])C([H])([H])C([H])([H])C([H])([H])C([H])([H])C(=O)N3C([H])([H])C([H])([H])C([H])([H])C([H])(n4nc(-c5c([H])c([H])c(Oc6c([H])c([H])c(F)c([H])c6F)c([H])c5[H])c(C(=O)N([H])[H])c4N([H])[H])C3([H])[H])c([H])c([H])c2C1([H])[H]

>  <smiles>  (88) 
[H]c1c([H])c([H])c2c(c1[H])C([H])([H])C([H])([H])C([H])([H])C2([H])N([H])C(=O)C1([H])N(C(=O)C([H])(N([H])C(=O)C([H])(N([H])C([H])([H])[H])C([H])([H])[H])C(C([H])([H])[H])(C([H])([H])[H])C([H])([H])[H])C([H])([H])c2c([H])c(OC([H])([H])C([H])(C([H])([H])[H])C([H])([H])C(=O)N([H])C([H])([H])C([H])([H])C([H])([H])C([H])([H])C([H])([H])C([H])([H])C([H])([H])C(=O)N3C([H])([H])C([H])([H])C([H])([H])C([H])(n4nc(-c5c([H])c([H])c(Oc6c([H])c([H])c(F)c([H])c6F)c([H])c5[H])c(C(=O)N([H])[H])c4N([H])[H])C3([H])[H])c([H])c([H])c2C1([H])[H]

$$$$
88:0:0
     RDKit          3D

 92 99  0  0  1  0  0  0  0  0999 V2000
  -31.5740  -23.8680   20.1810 C   0  0  0  0  0  3  0  0  0  0  0  0
  -30.2130  -24.4430   20.0830 N   0  0  0  0  0  4  0  0  0  0  0  0
  -29.5420  -23.7230   20.3020 H   0  0  0  0  0  0  0  0  0  0  0  0
  -30.1560  -25.1260   20.8270 H   0  0  0  0  0  0  0  0  0  0  0  0
  -29.9040  -25.1010   18.7920 C   0  0  0  0  0  2  0  0  0  0  0  0
  -28.5000  -25.7320   18.7690 C   0  0  0  0  0  2  0  0  0  0  0  0
  -28.3900  -26.8050   19.7100 O   0  0  0  0  0  0  0  0  0  0  0  0
  -24.5790  -31.7960   23.0900 C   0  0  0  0  0  0  0  0  0  0  0  0
  -27.1860  -27.4850   19.7770 C   0  0  0  0  0  0  0  0  0  0  0  0
  -23.3500  -30.4660   21.4070 C   0  0  0  0  0  3  0  0  0  0  0  0
  -24.7810  -28.9780   19.9120 C   0  0  0  0  0  0  0  0  0  0  0  0
  -25.8750  -30.8210   21.1960 C   0  0  0  0  0  2  0  0  0  0  0  0
  -25.9470  -29.4750   20.5020 C   0  0  0  0  0  0  0  0  0  0  0  0
  -27.1480  -28.7310   20.4440 C   0  0  0  0  0  3  0  0  0  0  0  0
  -25.9870  -26.9910   19.2040 C   0  0  0  0  0  3  0  0  0  0  0  0
  -24.7910  -27.7270   19.2720 C   0  0  0  0  0  3  0  0  0  0  0  0
  -23.5440  -29.8400   19.9990 C   0  0  0  0  0  2  0  0  0  0  0  0
  -24.6200  -31.0400   21.9570 N   0  0  0  0  0  0  0  0  0  0  0  0
  -23.5040  -32.0520   23.6510 O   0  0  0  0  0  0  0  0  0  0  0  0
  -22.7050  -29.4100   22.3320 C   0  0  0  0  0  0  0  0  0  0  0  0
  -21.3730  -29.2730   22.2460 N   0  0  0  0  0  0  0  0  0  0  0  0
  -23.3990  -28.7180   23.0840 O   0  0  0  0  0  0  0  0  0  0  0  0
  -20.8740  -29.8830   21.6150 H   0  0  0  0  0  0  0  0  0  0  0  0
  -17.9800  -28.1860   22.8450 C   0  0  0  0  0  0  0  0  0  0  0  0
  -20.5570  -28.3160   22.9940 C   0  0  0  0  0  3  0  0  0  0  0  0
  -20.5640  -26.9260   22.3150 C   0  0  0  0  0  2  0  0  0  0  0  0
  -19.3990  -26.7220   21.3430 C   0  0  0  0  0  2  0  0  0  0  0  0
  -18.0600  -26.8810   22.0700 C   0  0  0  0  0  2  0  0  0  0  0  0
  -19.1530  -28.8670   23.2650 C   0  0  0  0  0  0  0  0  0  0  0  0
  -19.0210  -30.0940   23.9510 C   0  0  0  0  0  3  0  0  0  0  0  0
  -17.7510  -30.6360   24.2220 C   0  0  0  0  0  3  0  0  0  0  0  0
  -16.5930  -29.9490   23.8180 C   0  0  0  0  0  3  0  0  0  0  0  0
  -16.7090  -28.7260   23.1340 C   0  0  0  0  0  3  0  0  0  0  0  0
  -25.8750  -32.3960   23.7190 C   0  0  0  0  0  3  0  0  0  0  0  0
  -26.4070  -31.5700   24.9540 C   0  0  1  0  0  0  0  0  0  0  0  0
  -25.3270  -31.2950   26.0270 C   0  0  0  0  0  1  0  0  0  0  0  0
  -26.9790  -30.2100   24.4920 C   0  0  0  0  0  1  0  0  0  0  0  0
  -27.5720  -32.3310   25.6300 C   0  0  0  0  0  1  0  0  0  0  0  0
  -25.5770  -33.7790   24.1090 N   0  0  0  0  0  0  0  0  0  0  0  0
  -25.9190  -34.8600   23.3960 C   0  0  0  0  0  0  0  0  0  0  0  0
  -26.5900  -34.7960   22.3610 O   0  0  0  0  0  0  0  0  0  0  0  0
  -24.9840  -33.9040   24.9170 H   0  0  0  0  0  0  0  0  0  0  0  0
  -24.2060  -36.6770   23.1140 C   0  0  0  0  0  1  0  0  0  0  0  0
  -25.4420  -36.2310   23.9130 C   0  0  0  0  0  3  0  0  0  0  0  0
  -27.5820  -37.0570   24.7880 C   0  0  0  0  0  1  0  0  0  0  0  0
  -26.4840  -37.2790   23.8500 N   0  0  0  0  0  0  0  0  0  0  0  0
  -26.0840  -38.1930   24.0420 H   0  0  0  0  0  0  0  0  0  0  0  0
  -32.0340  -24.0210   21.6370 C   0  0  0  0  0  3  0  0  0  0  0  0
  -31.2850  -24.3330   22.5690 O   0  0  0  0  0  0  0  0  0  0  0  0
  -31.6530  -22.3990   19.6870 C   0  0  0  0  0  2  0  0  0  0  0  0
  -30.6920  -21.3820   20.3470 C   0  0  0  0  0  2  0  0  0  0  0  0
  -31.1700  -19.9370   20.1260 C   0  0  0  0  0  2  0  0  0  0  0  0
  -30.2300  -18.8630   20.6960 C   0  0  0  0  0  2  0  0  0  0  0  0
  -30.8880  -17.4740   20.6420 C   0  0  0  0  0  2  0  0  0  0  0  0
  -30.0910  -16.3670   21.3540 C   0  0  0  0  0  2  0  0  0  0  0  0
  -30.9280  -15.1060   21.6560 C   0  0  0  0  0  2  0  0  0  0  0  0
  -31.1960  -14.2130   20.4300 C   0  0  0  0  0  0  0  0  0  0  0  0
  -30.7780  -12.1200   19.1830 C   0  0  0  0  0  2  0  0  0  0  0  0
  -29.8630  -12.3230   17.9650 C   0  0  0  0  0  2  0  0  0  0  0  0
  -28.3850  -12.2100   18.3800 C   0  0  0  0  0  2  0  0  0  0  0  0
  -28.0510  -13.1030   19.6020 C   0  0  0  0  0  3  0  0  0  0  0  0
  -29.0720  -12.9000   20.7390 C   0  0  0  0  0  2  0  0  0  0  0  0
  -30.4260  -13.1180   20.2030 N   0  0  0  0  0  0  0  0  0  0  0  0
  -32.1810  -14.4820   19.7340 O   0  0  0  0  0  0  0  0  0  0  0  0
  -25.6530  -13.7940   20.2350 C   0  0  0  0  0  0  0  0  0  0  0  0
  -24.5620  -13.0620   20.6220 C   0  0  0  0  0  0  0  0  0  0  0  0
  -24.9950  -11.7010   20.6650 C   0  0  0  0  0  0  0  0  0  0  0  0
  -26.6820  -12.8810   20.0660 N   0  0  0  0  0  0  0  0  0  0  0  0
  -26.2880  -11.6190   20.3790 N   0  0  0  0  0  0  0  0  0  0  0  0
  -24.2390  -10.4650   20.9020 C   0  0  0  0  0  0  0  0  0  0  0  0
  -24.6110   -9.5530   21.9140 C   0  0  0  0  0  3  0  0  0  0  0  0
  -23.8570   -8.3800   22.1340 C   0  0  0  0  0  3  0  0  0  0  0  0
  -22.7160   -8.1120   21.3400 C   0  0  0  0  0  0  0  0  0  0  0  0
  -22.3630   -9.0120   20.3180 C   0  0  0  0  0  3  0  0  0  0  0  0
  -23.1180  -10.1760   20.0980 C   0  0  0  0  0  3  0  0  0  0  0  0
  -21.9370   -6.9870   21.4670 O   0  0  0  0  0  0  0  0  0  0  0  0
  -21.8000   -6.3370   22.6670 C   0  0  0  0  0  0  0  0  0  0  0  0
  -21.3080   -6.9930   23.8170 C   0  0  0  0  0  3  0  0  0  0  0  0
  -21.1140   -6.2700   25.0100 C   0  0  0  0  0  3  0  0  0  0  0  0
  -21.4040   -4.8920   25.0560 C   0  0  0  0  0  0  0  0  0  0  0  0
  -21.8900   -4.2380   23.9110 C   0  0  0  0  0  3  0  0  0  0  0  0
  -22.0840   -4.9580   22.7190 C   0  0  0  0  0  0  0  0  0  0  0  0
  -22.5310   -4.3170   21.6130 F   0  0  0  0  0  0  0  0  0  0  0  0
  -21.2120   -4.1970   26.2010 F   0  0  0  0  0  0  0  0  0  0  0  0
  -23.1700  -13.5810   20.8490 C   0  0  0  0  0  0  0  0  0  0  0  0
  -22.4150  -12.9460   21.7400 N   0  0  0  0  0  0  0  0  0  0  0  0
  -22.7610  -14.5890   20.2720 O   0  0  0  0  0  0  0  0  0  0  0  0
  -22.7550  -12.1310   22.2270 H   0  0  0  0  0  0  0  0  0  0  0  0
  -21.4820  -13.2800   21.9340 H   0  0  0  0  0  0  0  0  0  0  0  0
  -25.8480  -15.1500   19.9950 N   0  0  0  0  0  0  0  0  0  0  0  0
  -25.0910  -15.8240   20.0430 H   0  0  0  0  0  0  0  0  0  0  0  0
  -26.7230  -15.5600   19.6920 H   0  0  0  0  0  0  0  0  0  0  0  0
  1 50  1  0
  1 48  1  0
  2  1  1  0
  2  3  1  0
  2  4  1  0
  5  2  1  0
  6  5  1  0
  6  7  1  0
  7  9  1  0
  8 19  2  0
  9 14  1  0
 10 18  1  0
 10 20  1  0
 11 17  1  0
 11 13  1  0
 12 18  1  0
 13 12  1  0
 14 13  2  0
 15 16  1  0
 15  9  2  0
 16 11  2  0
 17 10  1  0
 18  8  1  0
 20 22  2  0
 21 20  1  0
 23 21  1  0
 24 33  2  0
 24 29  1  0
 25 21  1  0
 25 29  1  0
 26 25  1  0
 27 28  1  0
 27 26  1  0
 28 24  1  0
 29 30  2  0
 30 31  1  0
 32 31  2  0
 33 32  1  0
 34  8  1  0
 34 39  1  0
 34 35  1  0
 35 38  1  1
 35 36  1  0
 37 35  1  0
 39 42  1  0
 40 44  1  0
 40 39  1  0
 41 40  2  0
 44 43  1  0
 46 44  1  0
 46 47  1  0
 46 45  1  0
 48 49  2  0
 50 51  1  0
 52 51  1  0
 52 53  1  0
 54 53  1  0
 54 55  1  0
 55 56  1  0
 57 56  1  0
 58 63  1  0
 59 60  1  0
 59 58  1  0
 61 60  1  0
 61 68  1  0
 61 62  1  0
 63 57  1  0
 63 62  1  0
 64 57  2  0
 65 66  2  0
 66 67  1  0
 66 85  1  0
 67 70  1  0
 68 65  1  0
 68 69  1  0
 69 67  2  0
 70 71  1  0
 71 72  2  0
 73 76  1  0
 73 72  1  0
 74 73  2  0
 75 74  1  0
 75 70  2  0
 76 77  1  0
 77 82  2  0
 77 78  1  0
 78 79  2  0
 79 80  1  0
 80 84  1  0
 81 80  2  0
 82 81  1  0
 83 82  1  0
 85 86  1  0
 86 89  1  0
 86 88  1  0
 87 85  2  0
 90 91  1  0
 90 65  1  0
 92 90  1  0
M  ISO  4   6 101   7 101  56 100  57 100
M  END
>  <TORSDO>  (89) 
F 27

>  <SCORE>  (89) 
-8.737

>  <name>  (89) 
88

>  <ligand_id>  (89) 
88

>  <original_smiles>  (89) 
[H]C(=O)C([H])(C([H])([H])C([H])([H])C([H])([H])C([H])([H])C([H])([H])C([H])([H])C([H])([H])C(=O)N1C([H])([H])C([H])([H])C([H])([H])C([H])(n2nc(-c3c([H])c([H])c(Oc4c([H])c([H])c(F)c([H])c4F)c([H])c3[H])c(C(=O)N([H])[H])c2N([H])[H])C1([H])[H])[N+]([H])([H])C([H])([H])C([H])([H])Oc1c([H])c([H])c2c(c1[H])C([H])([H])N(C(=O)C([H])(N([H])C(=O)C([H])(N([H])C([H])([H])[H])C([H])([H])[H])C(C([H])([H])[H])(C([H])([H])[H])C([H])([H])[H])C([H])(C(=O)N([H])C1([H])c3c([H])c([H])c([H])c([H])c3C([H])([H])C([H])([H])C1([H])[H])C2([H])[H]

>  <smiles>  (89) 
[H]C(=O)C([H])(C([H])([H])C([H])([H])C([H])([H])C([H])([H])C([H])([H])C([H])([H])C([H])([H])C(=O)N1C([H])([H])C([H])([H])C([H])([H])C([H])(n2nc(-c3c([H])c([H])c(Oc4c([H])c([H])c(F)c([H])c4F)c([H])c3[H])c(C(=O)N([H])[H])c2N([H])[H])C1([H])[H])[N+]([H])([H])C([H])([H])C([H])([H])Oc1c([H])c([H])c2c(c1[H])C([H])([H])N(C(=O)C([H])(N([H])C(=O)C([H])(N([H])C([H])([H])[H])C([H])([H])[H])C(C([H])([H])[H])(C([H])([H])[H])C([H])([H])[H])C([H])(C(=O)N([H])C1([H])c3c([H])c([H])c([H])c([H])c3C([H])([H])C([H])([H])C1([H])[H])C2([H])[H]

$$$$
89:0:0
     RDKit          3D

 94103  0  0  1  0  0  0  0  0999 V2000
  -29.1480  -21.6740   22.3170 C   0  0  0  0  0  3  0  0  0  0  0  0
  -28.7690  -21.8490   20.9850 C   0  0  0  0  0  3  0  0  0  0  0  0
  -30.0400  -20.6520   22.6430 C   0  0  0  0  0  3  0  0  0  0  0  0
  -29.1900  -20.9750   19.9510 C   0  0  0  0  0  0  0  0  0  0  0  0
  -30.5000  -19.7660   21.6510 C   0  0  0  0  0  0  0  0  0  0  0  0
  -30.0280  -19.8380   20.3040 C   0  0  0  0  0  0  0  0  0  0  0  0
  -31.5110  -18.7250   22.0850 C   0  0  0  0  0  2  0  0  0  0  0  0
  -30.3580  -18.6350   19.3500 C   0  0  0  0  0  2  0  0  0  0  0  0
  -31.2440  -17.3920   21.4250 C   0  0  0  0  0  2  0  0  0  0  0  0
  -31.3360  -17.5050   19.8960 C   0  0  0  0  0  3  0  0  0  0  0  0
  -31.9580  -15.0490   19.3660 C   0  0  0  0  0  0  0  0  0  0  0  0
  -31.6820  -12.6360   18.8520 C   0  0  0  0  0  2  0  0  0  0  0  0
  -30.6780  -12.5000   17.6880 C   0  0  0  0  0  2  0  0  0  0  0  0
  -29.2270  -12.4870   18.2170 C   0  0  0  0  0  2  0  0  0  0  0  0
  -28.9400  -13.6380   19.2140 C   0  0  0  0  0  3  0  0  0  0  0  0
  -30.0460  -13.7090   20.2880 C   0  0  0  0  0  2  0  0  0  0  0  0
  -31.3270  -13.8600   19.5810 N   0  0  0  0  0  0  0  0  0  0  0  0
  -33.1280  -15.1320   18.9850 O   0  0  0  0  0  0  0  0  0  0  0  0
  -31.1260  -16.1200   19.4120 N   0  0  0  0  0  0  0  0  0  0  0  0
  -30.1620  -15.8320   19.4690 H   0  0  0  0  0  0  0  0  0  0  0  0
  -26.7170  -14.5380   20.1500 C   0  0  0  0  0  0  0  0  0  0  0  0
  -25.5810  -13.9000   20.5810 C   0  0  0  0  0  0  0  0  0  0  0  0
  -25.8450  -12.5000   20.4580 C   0  0  0  0  0  0  0  0  0  0  0  0
  -27.6040  -13.5320   19.7980 N   0  0  0  0  0  0  0  0  0  0  0  0
  -27.0900  -12.3020   20.0430 N   0  0  0  0  0  0  0  0  0  0  0  0
  -24.9670  -11.3400   20.6510 C   0  0  0  0  0  0  0  0  0  0  0  0
  -25.2770  -10.3240   21.5840 C   0  0  0  0  0  3  0  0  0  0  0  0
  -24.4040   -9.2290   21.7680 C   0  0  0  0  0  3  0  0  0  0  0  0
  -23.2070   -9.1460   21.0170 C   0  0  0  0  0  0  0  0  0  0  0  0
  -22.9150  -10.1450   20.0740 C   0  0  0  0  0  3  0  0  0  0  0  0
  -23.7870  -11.2290   19.8890 C   0  0  0  0  0  3  0  0  0  0  0  0
  -22.3120   -8.1070   21.1110 O   0  0  0  0  0  0  0  0  0  0  0  0
  -22.0320   -7.5100   22.3140 C   0  0  0  0  0  0  0  0  0  0  0  0
  -21.5510   -8.2490   23.4160 C   0  0  0  0  0  3  0  0  0  0  0  0
  -21.2040   -7.5850   24.6120 C   0  0  0  0  0  3  0  0  0  0  0  0
  -21.3280   -6.1860   24.6980 C   0  0  0  0  0  0  0  0  0  0  0  0
  -21.8030   -5.4470   23.6010 C   0  0  0  0  0  3  0  0  0  0  0  0
  -22.1510   -6.1090   22.4100 C   0  0  0  0  0  0  0  0  0  0  0  0
  -22.5890   -5.3910   21.3470 F   0  0  0  0  0  0  0  0  0  0  0  0
  -20.9950   -5.5470   25.8430 F   0  0  0  0  0  0  0  0  0  0  0  0
  -24.2900  -14.5520   20.9850 C   0  0  0  0  0  0  0  0  0  0  0  0
  -23.5550  -13.9330   21.9060 N   0  0  0  0  0  0  0  0  0  0  0  0
  -23.9470  -15.6390   20.5260 O   0  0  0  0  0  0  0  0  0  0  0  0
  -23.8370  -13.0460   22.2950 H   0  0  0  0  0  0  0  0  0  0  0  0
  -22.6920  -14.3540   22.2200 H   0  0  0  0  0  0  0  0  0  0  0  0
  -27.0540  -15.8780   20.0030 N   0  0  0  0  0  0  0  0  0  0  0  0
  -26.3790  -16.6180   20.1650 H   0  0  0  0  0  0  0  0  0  0  0  0
  -27.8660  -16.1980   19.4890 H   0  0  0  0  0  0  0  0  0  0  0  0
  -28.7320  -21.3880   18.5660 C   0  0  0  0  0  0  0  0  0  0  0  0
  -29.0400  -20.7560   17.5530 O   0  0  0  0  0  0  0  0  0  0  0  0
  -27.7810  -22.6280   18.4140 C   0  0  0  0  0  2  0  0  0  0  0  0
  -28.3640  -24.1020   18.3560 C   0  0  0  0  0  2  0  0  0  0  0  0
  -27.2400  -25.1880   18.5310 C   0  0  0  0  0  2  0  0  0  0  0  0
  -27.5720  -26.5790   18.8360 O   0  0  0  0  0  0  0  0  0  0  0  0
  -24.7800  -31.4700   23.3330 C   0  0  0  0  0  0  0  0  0  0  0  0
  -26.5080  -27.4370   19.1390 C   0  0  0  0  0  0  0  0  0  0  0  0
  -23.2210  -30.4570   21.7090 C   0  0  0  0  0  3  0  0  0  0  0  0
  -24.2980  -29.1130   19.8260 C   0  0  0  0  0  0  0  0  0  0  0  0
  -25.7160  -30.6710   21.1560 C   0  0  0  0  0  2  0  0  0  0  0  0
  -25.5820  -29.4250   20.2930 C   0  0  0  0  0  0  0  0  0  0  0  0
  -26.6870  -28.5940   19.9540 C   0  0  0  0  0  3  0  0  0  0  0  0
  -25.1970  -27.1800   18.6640 C   0  0  0  0  0  3  0  0  0  0  0  0
  -24.1040  -27.9890   19.0130 C   0  0  0  0  0  3  0  0  0  0  0  0
  -23.1620  -30.0310   20.2190 C   0  0  0  0  0  2  0  0  0  0  0  0
  -24.6020  -30.8690   22.1230 N   0  0  0  0  0  0  0  0  0  0  0  0
  -23.8210  -31.7080   24.0800 O   0  0  0  0  0  0  0  0  0  0  0  0
  -22.6350  -29.3210   22.5770 C   0  0  0  0  0  0  0  0  0  0  0  0
  -21.3180  -29.0830   22.4440 N   0  0  0  0  0  0  0  0  0  0  0  0
  -23.3570  -28.6620   23.3300 O   0  0  0  0  0  0  0  0  0  0  0  0
  -20.7960  -29.6750   21.8150 H   0  0  0  0  0  0  0  0  0  0  0  0
  -18.0900  -27.4620   22.6320 C   0  0  0  0  0  0  0  0  0  0  0  0
  -20.5590  -28.0400   23.1350 C   0  0  0  0  0  3  0  0  0  0  0  0
  -20.8930  -26.6390   22.5730 C   0  0  0  0  0  2  0  0  0  0  0  0
  -19.9400  -26.1910   21.4610 C   0  0  0  0  0  2  0  0  0  0  0  0
  -18.4970  -26.1530   21.9770 C   0  0  0  0  0  2  0  0  0  0  0  0
  -19.0580  -28.3540   23.1630 C   0  0  0  0  0  0  0  0  0  0  0  0
  -18.6310  -29.5710   23.7370 C   0  0  0  0  0  3  0  0  0  0  0  0
  -17.2640  -29.9060   23.7780 C   0  0  0  0  0  3  0  0  0  0  0  0
  -16.3070  -29.0130   23.2640 C   0  0  0  0  0  3  0  0  0  0  0  0
  -16.7190  -27.7910   22.7000 C   0  0  0  0  0  3  0  0  0  0  0  0
  -26.1960  -31.9090   23.8250 C   0  0  0  0  0  3  0  0  0  0  0  0
  -26.7920  -30.9480   24.9250 C   0  0  1  0  0  0  0  0  0  0  0  0
  -25.8260  -30.6680   26.0970 C   0  0  0  0  0  1  0  0  0  0  0  0
  -27.1830  -29.5880   24.2990 C   0  0  0  0  0  1  0  0  0  0  0  0
  -28.0900  -31.5550   25.5080 C   0  0  0  0  0  1  0  0  0  0  0  0
  -26.0840  -33.2810   24.3380 N   0  0  0  0  0  0  0  0  0  0  0  0
  -26.4530  -34.3780   23.6600 C   0  0  0  0  0  0  0  0  0  0  0  0
  -26.9980  -34.3290   22.5550 O   0  0  0  0  0  0  0  0  0  0  0  0
  -25.6070  -33.3970   25.2200 H   0  0  0  0  0  0  0  0  0  0  0  0
  -24.9240  -36.3740   23.6800 C   0  0  0  0  0  1  0  0  0  0  0  0
  -26.1750  -35.7460   24.3150 C   0  0  0  0  0  3  0  0  0  0  0  0
  -28.4680  -36.2850   25.0140 C   0  0  0  0  0  1  0  0  0  0  0  0
  -27.3120  -36.6870   24.2160 N   0  0  0  0  0  0  0  0  0  0  0  0
  -27.0350  -37.6200   24.5090 H   0  0  0  0  0  0  0  0  0  0  0  0
  1  3  1  0
  2  1  2  0
  4  6  2  0
  4  2  1  0
  5  7  1  0
  5  3  2  0
  6  5  1  0
  8 10  1  0
  8  6  1  0
  9  7  1  0
 10 19  1  0
 10  9  1  0
 11 19  1  0
 11 17  1  0
 12 17  1  0
 13 14  1  0
 13 12  1  0
 15 14  1  0
 15 24  1  0
 15 16  1  0
 17 16  1  0
 18 11  2  0
 19 20  1  0
 21 22  2  0
 22 41  1  0
 23 22  1  0
 23 26  1  0
 24 25  1  0
 24 21  1  0
 25 23  2  0
 26 27  1  0
 27 28  2  0
 29 32  1  0
 29 28  1  0
 30 29  2  0
 31 30  1  0
 31 26  2  0
 32 33  1  0
 33 38  2  0
 33 34  1  0
 34 35  2  0
 35 36  1  0
 36 40  1  0
 37 36  2  0
 38 37  1  0
 39 38  1  0
 41 42  1  0
 42 45  1  0
 42 44  1  0
 43 41  2  0
 46 21  1  0
 46 47  1  0
 48 46  1  0
 49  4  1  0
 50 49  2  0
 51 49  1  0
 52 51  1  0
 52 53  1  0
 53 54  1  0
 54 56  1  0
 55 66  2  0
 56 61  1  0
 57 65  1  0
 57 67  1  0
 58 64  1  0
 58 60  1  0
 59 65  1  0
 60 59  1  0
 61 60  2  0
 62 63  1  0
 62 56  2  0
 63 58  2  0
 64 57  1  0
 65 55  1  0
 67 69  2  0
 68 67  1  0
 70 68  1  0
 71 80  2  0
 71 76  1  0
 72 68  1  0
 72 76  1  0
 73 72  1  0
 74 75  1  0
 74 73  1  0
 75 71  1  0
 76 77  2  0
 77 78  1  0
 79 78  2  0
 80 79  1  0
 81 55  1  0
 81 86  1  0
 81 82  1  0
 82 85  1  1
 82 83  1  0
 84 82  1  0
 86 89  1  0
 87 91  1  0
 87 86  1  0
 88 87  2  0
 91 90  1  0
 93 91  1  0
 93 94  1  0
 93 92  1  0
M  ISO  4  11 100  19 100  53 101  54 101
M  END
>  <TORSDO>  (90) 
F 20

>  <SCORE>  (90) 
-10.836

>  <name>  (90) 
89

>  <ligand_id>  (90) 
89

>  <original_smiles>  (90) 
[H]c1c([H])c([H])c2c(c1[H])C([H])([H])C([H])([H])C([H])([H])C2([H])N([H])C(=O)C1([H])N(C(=O)C([H])(N([H])C(=O)C([H])(N([H])C([H])([H])[H])C([H])([H])[H])C(C([H])([H])[H])(C([H])([H])[H])C([H])([H])[H])C([H])([H])c2c([H])c(OC([H])([H])C([H])([H])C([H])([H])C(=O)c3c([H])c([H])c([H])c4c3C([H])([H])C([H])(N([H])C(=O)N3C([H])([H])C([H])([H])C([H])([H])C([H])(n5nc(-c6c([H])c([H])c(Oc7c([H])c([H])c(F)c([H])c7F)c([H])c6[H])c(C(=O)N([H])[H])c5N([H])[H])C3([H])[H])C([H])([H])C4([H])[H])c([H])c([H])c2C1([H])[H]

>  <smiles>  (90) 
[H]c1c([H])c([H])c2c(c1[H])C([H])([H])C([H])([H])C([H])([H])C2([H])N([H])C(=O)C1([H])N(C(=O)C([H])(N([H])C(=O)C([H])(N([H])C([H])([H])[H])C([H])([H])[H])C(C([H])([H])[H])(C([H])([H])[H])C([H])([H])[H])C([H])([H])c2c([H])c(OC([H])([H])C([H])([H])C([H])([H])C(=O)c3c([H])c([H])c([H])c4c3C([H])([H])C([H])(N([H])C(=O)N3C([H])([H])C([H])([H])C([H])([H])C([H])(n5nc(-c6c([H])c([H])c(Oc7c([H])c([H])c(F)c([H])c7F)c([H])c6[H])c(C(=O)N([H])[H])c5N([H])[H])C3([H])[H])C([H])([H])C4([H])[H])c([H])c([H])c2C1([H])[H]

$$$$
90:0:0
     RDKit          3D

 90 97  0  0  1  0  0  0  0  0999 V2000
  -29.8480  -23.5240   22.7350 C   0  0  0  0  0  3  0  0  0  0  0  0
  -29.6350  -23.9680   21.4830 C   0  0  0  0  0  3  0  0  0  0  0  0
  -29.5970  -22.1210   23.0960 C   0  0  0  0  0  0  0  0  0  0  0  0
  -28.6770  -21.4580   22.6070 O   0  0  0  0  0  0  0  0  0  0  0  0
  -30.5280  -21.4670   24.1190 C   0  0  0  0  0  2  0  0  0  0  0  0
  -31.1120  -20.1260   23.6300 C   0  0  0  0  0  2  0  0  0  0  0  0
  -31.8190  -20.2290   22.2650 C   0  0  0  0  0  2  0  0  0  0  0  0
  -32.3440  -18.8930   21.7200 C   0  0  0  0  0  2  0  0  0  0  0  0
  -31.2500  -17.8220   21.5650 C   0  0  0  0  0  2  0  0  0  0  0  0
  -31.7010  -16.6530   20.6820 C   0  0  0  0  0  2  0  0  0  0  0  0
  -30.7190  -15.4610   20.7020 C   0  0  0  0  0  2  0  0  0  0  0  0
  -31.1140  -14.3280   19.7400 C   0  0  0  0  0  0  0  0  0  0  0  0
  -30.7070  -12.0810   18.8020 C   0  0  0  0  0  2  0  0  0  0  0  0
  -29.6730  -12.1270   17.6640 C   0  0  0  0  0  2  0  0  0  0  0  0
  -28.2460  -12.0150   18.2290 C   0  0  0  0  0  2  0  0  0  0  0  0
  -27.9870  -13.0130   19.3890 C   0  0  0  0  0  3  0  0  0  0  0  0
  -29.1250  -12.9530   20.4330 C   0  0  0  0  0  2  0  0  0  0  0  0
  -30.4050  -13.1710   19.7380 N   0  0  0  0  0  0  0  0  0  0  0  0
  -32.0780  -14.5060   18.9880 O   0  0  0  0  0  0  0  0  0  0  0  0
  -25.7140  -13.7070   20.3830 C   0  0  0  0  0  0  0  0  0  0  0  0
  -24.6480  -12.9710   20.8310 C   0  0  0  0  0  0  0  0  0  0  0  0
  -25.0280  -11.6010   20.6870 C   0  0  0  0  0  0  0  0  0  0  0  0
  -26.6780  -12.7870   20.0010 N   0  0  0  0  0  0  0  0  0  0  0  0
  -26.2740  -11.5130   20.2370 N   0  0  0  0  0  0  0  0  0  0  0  0
  -24.2580  -10.3690   20.8990 C   0  0  0  0  0  0  0  0  0  0  0  0
  -24.6720   -9.3900   21.8300 C   0  0  0  0  0  3  0  0  0  0  0  0
  -23.9050   -8.2210   22.0290 C   0  0  0  0  0  3  0  0  0  0  0  0
  -22.7100   -8.0240   21.2990 C   0  0  0  0  0  0  0  0  0  0  0  0
  -22.3130   -8.9910   20.3570 C   0  0  0  0  0  3  0  0  0  0  0  0
  -23.0800  -10.1510   20.1570 C   0  0  0  0  0  3  0  0  0  0  0  0
  -21.9140   -6.9090   21.4080 O   0  0  0  0  0  0  0  0  0  0  0  0
  -21.7930   -6.2250   22.5900 C   0  0  0  0  0  0  0  0  0  0  0  0
  -21.3160   -6.8460   23.7650 C   0  0  0  0  0  3  0  0  0  0  0  0
  -21.1410   -6.0880   24.9410 C   0  0  0  0  0  3  0  0  0  0  0  0
  -21.4320   -4.7110   24.9420 C   0  0  0  0  0  0  0  0  0  0  0  0
  -21.9030   -4.0900   23.7700 C   0  0  0  0  0  3  0  0  0  0  0  0
  -22.0790   -4.8450   22.5980 C   0  0  0  0  0  0  0  0  0  0  0  0
  -22.5120   -4.2370   21.4670 F   0  0  0  0  0  0  0  0  0  0  0  0
  -21.2580   -3.9800   26.0680 F   0  0  0  0  0  0  0  0  0  0  0  0
  -23.3180  -13.5030   21.2790 C   0  0  0  0  0  0  0  0  0  0  0  0
  -22.6530  -12.7990   22.1900 N   0  0  0  0  0  0  0  0  0  0  0  0
  -22.8810  -14.5730   20.8580 O   0  0  0  0  0  0  0  0  0  0  0  0
  -23.0190  -11.9300   22.5470 H   0  0  0  0  0  0  0  0  0  0  0  0
  -21.7640  -13.1340   22.5300 H   0  0  0  0  0  0  0  0  0  0  0  0
  -25.9350  -15.0750   20.2490 N   0  0  0  0  0  0  0  0  0  0  0  0
  -25.2260  -15.7650   20.4710 H   0  0  0  0  0  0  0  0  0  0  0  0
  -26.7800  -15.4840   19.8670 H   0  0  0  0  0  0  0  0  0  0  0  0
  -29.8160  -25.4050   21.0350 C   0  0  0  0  0  2  0  0  0  0  0  0
  -28.5690  -25.8980   20.2930 C   0  0  0  0  0  2  0  0  0  0  0  0
  -28.6510  -27.3050   20.0850 O   0  0  0  0  0  0  0  0  0  0  0  0
  -24.7060  -32.1120   23.4890 C   0  0  0  0  0  0  0  0  0  0  0  0
  -27.4490  -27.9700   20.1210 C   0  0  0  0  0  0  0  0  0  0  0  0
  -23.5180  -30.7650   21.7870 C   0  0  0  0  0  3  0  0  0  0  0  0
  -24.9990  -29.3650   20.2560 C   0  0  0  0  0  0  0  0  0  0  0  0
  -26.0240  -31.2280   21.5720 C   0  0  0  0  0  2  0  0  0  0  0  0
  -26.1470  -29.9030   20.8520 C   0  0  0  0  0  0  0  0  0  0  0  0
  -27.3760  -29.2150   20.7790 C   0  0  0  0  0  3  0  0  0  0  0  0
  -26.2850  -27.4380   19.5210 C   0  0  0  0  0  3  0  0  0  0  0  0
  -25.0630  -28.1280   19.5880 C   0  0  0  0  0  3  0  0  0  0  0  0
  -23.7260  -30.1700   20.3680 C   0  0  0  0  0  2  0  0  0  0  0  0
  -24.7680  -31.3800   22.3410 N   0  0  0  0  0  0  0  0  0  0  0  0
  -23.6250  -32.3160   24.0590 O   0  0  0  0  0  0  0  0  0  0  0  0
  -22.9200  -29.6690   22.6960 C   0  0  0  0  0  0  0  0  0  0  0  0
  -21.6160  -29.3970   22.5230 N   0  0  0  0  0  0  0  0  0  0  0  0
  -23.6250  -29.0670   23.5100 O   0  0  0  0  0  0  0  0  0  0  0  0
  -21.1070  -29.9410   21.8400 H   0  0  0  0  0  0  0  0  0  0  0  0
  -18.3430  -27.8930   22.8090 C   0  0  0  0  0  0  0  0  0  0  0  0
  -20.8450  -28.3800   23.2360 C   0  0  0  0  0  3  0  0  0  0  0  0
  -21.1120  -26.9720   22.6560 C   0  0  0  0  0  2  0  0  0  0  0  0
  -20.1060  -26.5640   21.5750 C   0  0  0  0  0  2  0  0  0  0  0  0
  -18.6820  -26.5740   22.1380 C   0  0  0  0  0  2  0  0  0  0  0  0
  -19.3600  -28.7500   23.3100 C   0  0  0  0  0  0  0  0  0  0  0  0
  -18.9930  -29.9820   23.8930 C   0  0  0  0  0  3  0  0  0  0  0  0
  -17.6410  -30.3640   23.9800 C   0  0  0  0  0  3  0  0  0  0  0  0
  -16.6370  -29.5060   23.4970 C   0  0  0  0  0  3  0  0  0  0  0  0
  -16.9890  -28.2730   22.9180 C   0  0  0  0  0  3  0  0  0  0  0  0
  -25.9830  -32.7460   24.1270 C   0  0  0  0  0  3  0  0  0  0  0  0
  -26.4930  -31.9700   25.4030 C   0  0  1  0  0  0  0  0  0  0  0  0
  -25.3870  -31.6960   26.4480 C   0  0  0  0  0  1  0  0  0  0  0  0
  -27.1110  -30.6100   25.0010 C   0  0  0  0  0  1  0  0  0  0  0  0
  -27.6150  -32.7800   26.0970 C   0  0  0  0  0  1  0  0  0  0  0  0
  -25.6620  -34.1400   24.4590 N   0  0  0  0  0  0  0  0  0  0  0  0
  -26.0200  -35.2000   23.7200 C   0  0  0  0  0  0  0  0  0  0  0  0
  -26.7280  -35.1070   22.7130 O   0  0  0  0  0  0  0  0  0  0  0  0
  -25.0390  -34.2870   25.2380 H   0  0  0  0  0  0  0  0  0  0  0  0
  -24.3040  -36.9900   23.3160 C   0  0  0  0  0  1  0  0  0  0  0  0
  -25.5140  -36.5830   24.1700 C   0  0  0  0  0  3  0  0  0  0  0  0
  -27.6170  -37.4590   25.0890 C   0  0  0  0  0  1  0  0  0  0  0  0
  -26.5490  -37.6370   24.1070 N   0  0  0  0  0  0  0  0  0  0  0  0
  -26.1360  -38.5550   24.2500 H   0  0  0  0  0  0  0  0  0  0  0  0
  1  3  1  0
  2  1  2  0
  3  5  1  0
  4  3  2  0
  6  5  1  0
  7  6  1  0
  8  7  1  0
  9  8  1  0
 10 11  1  0
 10  9  1  0
 12 11  1  0
 13 18  1  0
 14 15  1  0
 14 13  1  0
 16 15  1  0
 16 23  1  0
 16 17  1  0
 18 12  1  0
 18 17  1  0
 19 12  2  0
 20 21  2  0
 21 40  1  0
 22 21  1  0
 22 25  1  0
 23 24  1  0
 23 20  1  0
 24 22  2  0
 25 26  1  0
 26 27  2  0
 28 31  1  0
 28 27  1  0
 29 28  2  0
 30 29  1  0
 30 25  2  0
 31 32  1  0
 32 37  2  0
 32 33  1  0
 33 34  2  0
 34 35  1  0
 35 39  1  0
 36 35  2  0
 37 36  1  0
 38 37  1  0
 40 41  1  0
 41 44  1  0
 41 43  1  0
 42 40  2  0
 45 20  1  0
 45 46  1  0
 47 45  1  0
 48  2  1  0
 49 48  1  0
 50 52  1  0
 50 49  1  0
 51 62  2  0
 52 57  1  0
 53 61  1  0
 53 63  1  0
 54 60  1  0
 54 56  1  0
 55 61  1  0
 56 55  1  0
 57 56  2  0
 58 59  1  0
 58 52  2  0
 59 54  2  0
 60 53  1  0
 61 51  1  0
 63 65  2  0
 64 63  1  0
 66 64  1  0
 67 76  2  0
 67 72  1  0
 68 64  1  0
 68 72  1  0
 69 68  1  0
 70 71  1  0
 70 69  1  0
 71 67  1  0
 72 73  2  0
 73 74  1  0
 75 74  2  0
 76 75  1  0
 77 51  1  0
 77 82  1  0
 77 78  1  0
 78 81  1  1
 78 79  1  0
 80 78  1  0
 82 85  1  0
 83 87  1  0
 83 82  1  0
 84 83  2  0
 87 86  1  0
 89 87  1  0
 89 90  1  0
 89 88  1  0
M  ISO  4  11 100  12 100  49 101  50 101
M  END
>  <TORSDO>  (91) 
F 26

>  <SCORE>  (91) 
-11.171

>  <name>  (91) 
90

>  <ligand_id>  (91) 
90

>  <original_smiles>  (91) 
[H]C(C(=O)C([H])([H])C([H])([H])C([H])([H])C([H])([H])C([H])([H])C([H])([H])C([H])([H])C(=O)N1C([H])([H])C([H])([H])C([H])([H])C([H])(n2nc(-c3c([H])c([H])c(Oc4c([H])c([H])c(F)c([H])c4F)c([H])c3[H])c(C(=O)N([H])[H])c2N([H])[H])C1([H])[H])=C([H])C([H])([H])C([H])([H])Oc1c([H])c([H])c2c(c1[H])C([H])([H])N(C(=O)C([H])(N([H])C(=O)C([H])(N([H])C([H])([H])[H])C([H])([H])[H])C(C([H])([H])[H])(C([H])([H])[H])C([H])([H])[H])C([H])(C(=O)N([H])C1([H])c3c([H])c([H])c([H])c([H])c3C([H])([H])C([H])([H])C1([H])[H])C2([H])[H]

>  <smiles>  (91) 
[H]C(C(=O)C([H])([H])C([H])([H])C([H])([H])C([H])([H])C([H])([H])C([H])([H])C([H])([H])C(=O)N1C([H])([H])C([H])([H])C([H])([H])C([H])(n2nc(-c3c([H])c([H])c(Oc4c([H])c([H])c(F)c([H])c4F)c([H])c3[H])c(C(=O)N([H])[H])c2N([H])[H])C1([H])[H])=C([H])C([H])([H])C([H])([H])Oc1c([H])c([H])c2c(c1[H])C([H])([H])N(C(=O)C([H])(N([H])C(=O)C([H])(N([H])C([H])([H])[H])C([H])([H])[H])C(C([H])([H])[H])(C([H])([H])[H])C([H])([H])[H])C([H])(C(=O)N([H])C1([H])c3c([H])c([H])c([H])c([H])c3C([H])([H])C([H])([H])C1([H])[H])C2([H])[H]

$$$$
91:0:0
     RDKit          3D

 85 92  0  0  1  0  0  0  0  0999 V2000
  -29.0600  -22.5070   20.0040 C   0  0  0  0  0  3  0  0  0  0  0  0
  -27.9160  -20.4260   21.2380 C   0  0  0  0  0  1  0  0  0  0  0  0
  -28.7610  -20.6420   19.9730 C   0  0  1  0  0  0  0  0  0  0  0  0
  -27.8540  -20.4850   18.7340 C   0  0  0  0  0  2  0  0  0  0  0  0
  -27.2930  -19.2770   18.6710 F   0  0  0  0  0  0  0  0  0  0  0  0
  -29.8240  -19.0810   19.9340 C   0  0  0  0  0  3  0  0  0  0  0  0
  -29.5750  -17.2220   20.1380 C   0  0  0  0  0  3  0  0  0  0  0  0
  -30.4770  -15.6480   19.9430 C   0  0  0  0  0  0  0  0  0  0  0  0
  -30.5670  -13.1360   19.1270 C   0  0  0  0  0  2  0  0  0  0  0  0
  -29.6120  -12.8490   17.9350 C   0  0  0  0  0  2  0  0  0  0  0  0
  -28.1920  -12.5210   18.4250 C   0  0  0  0  0  2  0  0  0  0  0  0
  -27.7490  -13.4810   19.5520 C   0  0  0  0  0  3  0  0  0  0  0  0
  -28.8310  -13.7010   20.6290 C   0  0  0  0  0  2  0  0  0  0  0  0
  -30.0100  -14.2800   19.9580 N   0  0  0  0  0  0  0  0  0  0  0  0
  -31.6850  -15.6580   19.6490 O   0  0  0  0  0  0  0  0  0  0  0  0
  -25.4210  -13.9960   20.4410 C   0  0  0  0  0  0  0  0  0  0  0  0
  -24.3830  -13.2030   20.8390 C   0  0  0  0  0  0  0  0  0  0  0  0
  -24.8540  -11.8580   20.7510 C   0  0  0  0  0  0  0  0  0  0  0  0
  -26.4540  -13.1340   20.1190 N   0  0  0  0  0  0  0  0  0  0  0  0
  -26.1300  -11.8390   20.3750 N   0  0  0  0  0  0  0  0  0  0  0  0
  -24.1400  -10.5880   20.9450 C   0  0  0  0  0  0  0  0  0  0  0  0
  -24.5520   -9.6450   21.9130 C   0  0  0  0  0  3  0  0  0  0  0  0
  -23.8350   -8.4430   22.0940 C   0  0  0  0  0  3  0  0  0  0  0  0
  -22.6910   -8.1730   21.3060 C   0  0  0  0  0  0  0  0  0  0  0  0
  -22.2980   -9.1030   20.3280 C   0  0  0  0  0  3  0  0  0  0  0  0
  -23.0150  -10.2980   20.1460 C   0  0  0  0  0  3  0  0  0  0  0  0
  -21.9490   -7.0190   21.3940 O   0  0  0  0  0  0  0  0  0  0  0  0
  -21.7810   -6.3590   22.5840 C   0  0  0  0  0  0  0  0  0  0  0  0
  -21.1670   -6.9730   23.6960 C   0  0  0  0  0  3  0  0  0  0  0  0
  -20.9520   -6.2350   24.8780 C   0  0  0  0  0  3  0  0  0  0  0  0
  -21.3430   -4.8850   24.9470 C   0  0  0  0  0  0  0  0  0  0  0  0
  -21.9490   -4.2690   23.8370 C   0  0  0  0  0  3  0  0  0  0  0  0
  -22.1660   -5.0040   22.6580 C   0  0  0  0  0  0  0  0  0  0  0  0
  -22.7320   -4.4010   21.5850 F   0  0  0  0  0  0  0  0  0  0  0  0
  -21.1290   -4.1730   26.0790 F   0  0  0  0  0  0  0  0  0  0  0  0
  -22.9970  -13.6660   21.1820 C   0  0  0  0  0  0  0  0  0  0  0  0
  -22.3120  -12.9500   22.0650 N   0  0  0  0  0  0  0  0  0  0  0  0
  -22.5320  -14.6990   20.7020 O   0  0  0  0  0  0  0  0  0  0  0  0
  -22.7060  -12.1160   22.4760 H   0  0  0  0  0  0  0  0  0  0  0  0
  -21.3850  -13.2420   22.3360 H   0  0  0  0  0  0  0  0  0  0  0  0
  -25.5700  -15.3720   20.2960 N   0  0  0  0  0  0  0  0  0  0  0  0
  -24.8070  -16.0170   20.4730 H   0  0  0  0  0  0  0  0  0  0  0  0
  -26.3970  -15.8320   19.9380 H   0  0  0  0  0  0  0  0  0  0  0  0
  -28.0550  -24.1100   19.9990 C   0  0  0  0  0  3  0  0  0  0  0  0
  -28.2740  -25.8070   20.1240 O   0  0  0  0  0  0  0  0  0  0  0  0
  -24.6810  -31.8690   23.2040 C   0  0  0  0  0  0  0  0  0  0  0  0
  -27.2780  -26.9660   20.1020 C   0  0  0  0  0  0  0  0  0  0  0  0
  -23.5140  -30.5060   21.5200 C   0  0  0  0  0  3  0  0  0  0  0  0
  -24.9860  -28.9190   20.0790 C   0  0  0  0  0  0  0  0  0  0  0  0
  -26.0880  -30.6950   21.4200 C   0  0  0  0  0  2  0  0  0  0  0  0
  -26.1710  -29.2910   20.7250 C   0  0  0  0  0  0  0  0  0  0  0  0
  -27.3080  -28.3400   20.7060 C   0  0  0  0  0  3  0  0  0  0  0  0
  -26.0550  -26.7790   19.4170 C   0  0  0  0  0  3  0  0  0  0  0  0
  -24.9600  -27.6900   19.4020 C   0  0  0  0  0  3  0  0  0  0  0  0
  -23.7660  -29.8480   20.1350 C   0  0  0  0  0  2  0  0  0  0  0  0
  -24.7830  -31.0510   22.1020 N   0  0  0  0  0  0  0  0  0  0  0  0
  -23.5830  -32.1460   23.7160 O   0  0  0  0  0  0  0  0  0  0  0  0
  -22.8010  -29.4940   22.4580 C   0  0  0  0  0  0  0  0  0  0  0  0
  -21.4730  -29.3290   22.3120 N   0  0  0  0  0  0  0  0  0  0  0  0
  -23.4550  -28.8550   23.2860 O   0  0  0  0  0  0  0  0  0  0  0  0
  -20.9970  -29.8950   21.6220 H   0  0  0  0  0  0  0  0  0  0  0  0
  -18.0850  -28.1050   22.7760 C   0  0  0  0  0  0  0  0  0  0  0  0
  -20.6450  -28.3680   23.0520 C   0  0  0  0  0  3  0  0  0  0  0  0
  -20.7490  -26.9530   22.4370 C   0  0  0  0  0  2  0  0  0  0  0  0
  -19.6510  -26.6610   21.4090 C   0  0  0  0  0  2  0  0  0  0  0  0
  -18.2670  -26.7800   22.0540 C   0  0  0  0  0  2  0  0  0  0  0  0
  -19.2020  -28.8580   23.2290 C   0  0  0  0  0  0  0  0  0  0  0  0
  -18.9760  -30.0960   23.8700 C   0  0  0  0  0  3  0  0  0  0  0  0
  -17.6690  -30.5840   24.0570 C   0  0  0  0  0  3  0  0  0  0  0  0
  -16.5680  -29.8290   23.6160 C   0  0  0  0  0  3  0  0  0  0  0  0
  -16.7760  -28.5910   22.9830 C   0  0  0  0  0  3  0  0  0  0  0  0
  -25.9380  -32.5050   23.8690 C   0  0  0  0  0  3  0  0  0  0  0  0
  -25.6190  -33.9060   24.2030 N   0  0  0  0  0  0  0  0  0  0  0  0
  -25.9340  -34.9700   23.4520 C   0  0  0  0  0  0  0  0  0  0  0  0
  -26.5820  -34.8750   22.4050 O   0  0  0  0  0  0  0  0  0  0  0  0
  -25.0380  -34.0530   25.0150 H   0  0  0  0  0  0  0  0  0  0  0  0
  -24.1760  -36.7530   23.1790 C   0  0  0  0  0  1  0  0  0  0  0  0
  -25.4570  -36.3570   23.9290 C   0  0  0  0  0  3  0  0  0  0  0  0
  -27.6130  -37.2780   24.6670 C   0  0  0  0  0  1  0  0  0  0  0  0
  -26.4740  -37.4210   23.7640 N   0  0  0  0  0  0  0  0  0  0  0  0
  -26.0640  -38.3380   23.9170 H   0  0  0  0  0  0  0  0  0  0  0  0
  -26.4080  -31.7360   25.1680 C   0  0  1  0  0  0  0  0  0  0  0  0
  -25.2780  -31.5100   26.2000 C   0  0  0  0  0  1  0  0  0  0  0  0
  -26.9950  -30.3520   24.8150 C   0  0  0  0  0  1  0  0  0  0  0  0
  -27.5390  -32.5290   25.8640 C   0  0  0  0  0  1  0  0  0  0  0  0
  3  1  1  0
  3  2  1  1
  4  3  1  0
  5  4  1  0
  6  3  1  0
  6  7  2  0
  8 14  1  0
  8  7  1  0
  9 14  1  0
 10 11  1  0
 10  9  1  0
 12 11  1  0
 12 19  1  0
 12 13  1  0
 14 13  1  0
 15  8  2  0
 16 17  2  0
 17 36  1  0
 18 17  1  0
 18 21  1  0
 19 20  1  0
 19 16  1  0
 20 18  2  0
 21 22  1  0
 22 23  2  0
 24 27  1  0
 24 23  1  0
 25 24  2  0
 26 25  1  0
 26 21  2  0
 27 28  1  0
 28 33  2  0
 28 29  1  0
 29 30  2  0
 30 31  1  0
 31 35  1  0
 32 31  2  0
 33 32  1  0
 34 33  1  0
 36 37  1  0
 37 40  1  0
 37 39  1  0
 38 36  2  0
 41 16  1  0
 41 42  1  0
 43 41  1  0
 44  1  2  0
 44 45  1  0
 46 57  2  0
 47 45  1  0
 47 52  1  0
 48 56  1  0
 48 58  1  0
 49 55  1  0
 49 51  1  0
 50 56  1  0
 51 50  1  0
 52 51  2  0
 53 47  2  0
 54 53  1  0
 54 49  2  0
 55 48  1  0
 56 46  1  0
 58 60  2  0
 59 58  1  0
 61 59  1  0
 62 71  2  0
 62 67  1  0
 63 59  1  0
 63 67  1  0
 64 63  1  0
 65 66  1  0
 65 64  1  0
 66 62  1  0
 67 68  2  0
 68 69  1  0
 70 69  2  0
 71 70  1  0
 72 46  1  0
 72 73  1  0
 72 82  1  0
 73 76  1  0
 74 78  1  0
 74 73  1  0
 75 74  2  0
 78 77  1  0
 80 81  1  0
 80 78  1  0
 80 79  1  0
 82 85  1  1
 82 83  1  0
 84 82  1  0
M  ISO  4   7 100   8 100  44 101  45 101
M  END
>  <TORSDO>  (92) 
F 21

>  <SCORE>  (92) 
-15.046

>  <name>  (92) 
91

>  <ligand_id>  (92) 
91

>  <original_smiles>  (92) 
[H]c1c([H])c([H])c2c(c1[H])C([H])([H])C([H])([H])C([H])([H])C2([H])N([H])C(=O)C1([H])N(C(=O)C([H])(N([H])C(=O)C([H])(N([H])C([H])([H])[H])C([H])([H])[H])C(C([H])([H])[H])(C([H])([H])[H])C([H])([H])[H])C([H])([H])c2c([H])c(OC([H])([H])C([H])([H])C(C([H])([H])[H])(C([H])([H])F)C([H])([H])C([H])([H])C(=O)N3C([H])([H])C([H])([H])C([H])([H])C([H])(n4nc(-c5c([H])c([H])c(Oc6c([H])c([H])c(F)c([H])c6F)c([H])c5[H])c(C(=O)N([H])[H])c4N([H])[H])C3([H])[H])c([H])c([H])c2C1([H])[H]

>  <smiles>  (92) 
[H]c1c([H])c([H])c2c(c1[H])C([H])([H])C([H])([H])C([H])([H])C2([H])N([H])C(=O)C1([H])N(C(=O)C([H])(N([H])C(=O)C([H])(N([H])C([H])([H])[H])C([H])([H])[H])C(C([H])([H])[H])(C([H])([H])[H])C([H])([H])[H])C([H])([H])c2c([H])c(OC([H])([H])C([H])([H])C(C([H])([H])[H])(C([H])([H])F)C([H])([H])C([H])([H])C(=O)N3C([H])([H])C([H])([H])C([H])([H])C([H])(n4nc(-c5c([H])c([H])c(Oc6c([H])c([H])c(F)c([H])c6F)c([H])c5[H])c(C(=O)N([H])[H])c4N([H])[H])C3([H])[H])c([H])c([H])c2C1([H])[H]

$$$$
92:0:0
     RDKit          3D

 94102  0  0  1  0  0  0  0  0999 V2000
  -26.7600  -22.5250   20.8310 C   0  0  0  0  0  2  0  0  0  0  0  0
  -27.9680  -21.9920   20.6670 C   0  0  0  0  0  3  0  0  0  0  0  0
  -28.9990  -23.0960   20.4670 C   0  0  0  0  0  2  0  0  0  0  0  0
  -26.7480  -24.0330   20.7600 C   0  0  0  0  0  3  0  0  0  0  0  0
  -28.1300  -24.3610   20.0860 C   0  0  2  0  0  0  0  0  0  0  0  0
  -28.0610  -24.3100   18.5310 C   0  0  0  0  0  1  0  0  0  0  0  0
  -28.1800  -20.4820   20.4780 C   0  0  0  0  0  2  0  0  0  0  0  0
  -29.5450  -19.8090   20.7610 C   0  0  0  0  0  2  0  0  0  0  0  0
  -29.3490  -18.2660   20.8920 C   0  0  0  0  0  2  0  0  0  0  0  0
  -30.5730  -17.3330   20.6630 C   0  0  0  0  0  2  0  0  0  0  0  0
  -30.2810  -15.8710   21.1290 C   0  0  0  0  0  2  0  0  0  0  0  0
  -31.0060  -14.7150   20.3840 C   0  0  0  0  0  0  0  0  0  0  0  0
  -30.7770  -12.5200   19.2450 C   0  0  0  0  0  2  0  0  0  0  0  0
  -29.8280  -12.6600   18.0350 C   0  0  0  0  0  2  0  0  0  0  0  0
  -28.3520  -12.5200   18.4660 C   0  0  0  0  0  2  0  0  0  0  0  0
  -28.0070  -13.4000   19.6960 C   0  0  0  0  0  3  0  0  0  0  0  0
  -29.0530  -13.1910   20.8130 C   0  0  0  0  0  2  0  0  0  0  0  0
  -30.3740  -13.5140   20.2530 N   0  0  0  0  0  0  0  0  0  0  0  0
  -32.1060  -14.9330   19.8660 O   0  0  0  0  0  0  0  0  0  0  0  0
  -25.6140  -14.0480   20.3940 C   0  0  0  0  0  0  0  0  0  0  0  0
  -24.5320  -13.2910   20.7650 C   0  0  0  0  0  0  0  0  0  0  0  0
  -24.9750  -11.9340   20.7330 C   0  0  0  0  0  0  0  0  0  0  0  0
  -26.6470  -13.1510   20.1700 N   0  0  0  0  0  0  0  0  0  0  0  0
  -26.2650  -11.8750   20.4260 N   0  0  0  0  0  0  0  0  0  0  0  0
  -24.2340  -10.6810   20.9230 C   0  0  0  0  0  0  0  0  0  0  0  0
  -24.6110   -9.7420   21.9080 C   0  0  0  0  0  3  0  0  0  0  0  0
  -23.8740   -8.5510   22.0840 C   0  0  0  0  0  3  0  0  0  0  0  0
  -22.7450   -8.2910   21.2720 C   0  0  0  0  0  0  0  0  0  0  0  0
  -22.3850   -9.2190   20.2780 C   0  0  0  0  0  3  0  0  0  0  0  0
  -23.1230  -10.4020   20.1020 C   0  0  0  0  0  3  0  0  0  0  0  0
  -21.9850   -7.1480   21.3540 O   0  0  0  0  0  0  0  0  0  0  0  0
  -21.8090   -6.4840   22.5400 C   0  0  0  0  0  0  0  0  0  0  0  0
  -21.2340   -7.1110   23.6680 C   0  0  0  0  0  3  0  0  0  0  0  0
  -21.0060   -6.3710   24.8440 C   0  0  0  0  0  3  0  0  0  0  0  0
  -21.3450   -5.0050   24.8950 C   0  0  0  0  0  0  0  0  0  0  0  0
  -21.9130   -4.3790   23.7720 C   0  0  0  0  0  3  0  0  0  0  0  0
  -22.1420   -5.1150   22.5980 C   0  0  0  0  0  0  0  0  0  0  0  0
  -22.6680   -4.5000   21.5110 F   0  0  0  0  0  0  0  0  0  0  0  0
  -21.1180   -4.2920   26.0240 F   0  0  0  0  0  0  0  0  0  0  0  0
  -23.1410  -13.7870   21.0360 C   0  0  0  0  0  0  0  0  0  0  0  0
  -22.4060  -13.1090   21.9110 N   0  0  0  0  0  0  0  0  0  0  0  0
  -22.7130  -14.8090   20.5050 O   0  0  0  0  0  0  0  0  0  0  0  0
  -22.7620  -12.2790   22.3610 H   0  0  0  0  0  0  0  0  0  0  0  0
  -21.4750  -13.4270   22.1360 H   0  0  0  0  0  0  0  0  0  0  0  0
  -25.8030  -15.4150   20.2130 N   0  0  0  0  0  0  0  0  0  0  0  0
  -25.0560  -16.0920   20.3280 H   0  0  0  0  0  0  0  0  0  0  0  0
  -26.6720  -15.8300   19.8990 H   0  0  0  0  0  0  0  0  0  0  0  0
  -26.5530  -24.6230   22.1820 C   0  0  0  0  0  2  0  0  0  0  0  0
  -25.2780  -24.2420   22.8130 N   0  0  0  0  0  4  0  0  0  0  0  0
  -24.4940  -24.6390   22.3260 H   0  0  0  0  0  0  0  0  0  0  0  0
  -25.2670  -24.5820   23.7590 H   0  0  0  0  0  0  0  0  0  0  0  0
  -25.1860  -23.2420   22.8420 H   0  0  0  0  0  0  0  0  0  0  0  0
  -28.7410  -25.7500   20.5250 C   0  0  0  0  0  2  0  0  0  0  0  0
  -28.3980  -26.9390   19.7770 O   0  0  0  0  0  0  0  0  0  0  0  0
  -24.6220  -31.9620   23.2540 C   0  0  0  0  0  0  0  0  0  0  0  0
  -27.2090  -27.6160   19.9780 C   0  0  0  0  0  0  0  0  0  0  0  0
  -23.3850  -30.6200   21.5890 C   0  0  0  0  0  3  0  0  0  0  0  0
  -24.8150  -29.1400   20.0880 C   0  0  0  0  0  0  0  0  0  0  0  0
  -25.9100  -30.9850   21.3550 C   0  0  0  0  0  2  0  0  0  0  0  0
  -25.9840  -29.6310   20.6790 C   0  0  0  0  0  0  0  0  0  0  0  0
  -27.1840  -28.8770   20.6240 C   0  0  0  0  0  3  0  0  0  0  0  0
  -26.0180  -27.1550   19.3790 C   0  0  0  0  0  3  0  0  0  0  0  0
  -24.8280  -27.9000   19.4360 C   0  0  0  0  0  3  0  0  0  0  0  0
  -23.5720  -29.9990   20.1810 C   0  0  0  0  0  2  0  0  0  0  0  0
  -24.6580  -31.2000   22.1250 N   0  0  0  0  0  0  0  0  0  0  0  0
  -23.5520  -32.2130   23.8250 O   0  0  0  0  0  0  0  0  0  0  0  0
  -22.7610  -29.5550   22.5190 C   0  0  0  0  0  0  0  0  0  0  0  0
  -21.4360  -29.3630   22.3980 N   0  0  0  0  0  0  0  0  0  0  0  0
  -23.4600  -28.9040   23.3000 O   0  0  0  0  0  0  0  0  0  0  0  0
  -20.9310  -29.9420   21.7430 H   0  0  0  0  0  0  0  0  0  0  0  0
  -18.0810  -28.1110   22.8870 C   0  0  0  0  0  0  0  0  0  0  0  0
  -20.6360  -28.3950   23.1510 C   0  0  0  0  0  3  0  0  0  0  0  0
  -20.7530  -26.9760   22.5480 C   0  0  0  0  0  2  0  0  0  0  0  0
  -19.6520  -26.6600   21.5300 C   0  0  0  0  0  2  0  0  0  0  0  0
  -18.2740  -26.7770   22.1830 C   0  0  0  0  0  2  0  0  0  0  0  0
  -19.1930  -28.8770   23.3300 C   0  0  0  0  0  0  0  0  0  0  0  0
  -18.9610  -30.1230   23.9500 C   0  0  0  0  0  3  0  0  0  0  0  0
  -17.6520  -30.6040   24.1310 C   0  0  0  0  0  3  0  0  0  0  0  0
  -16.5540  -29.8350   23.7050 C   0  0  0  0  0  3  0  0  0  0  0  0
  -16.7700  -28.5880   23.0910 C   0  0  0  0  0  3  0  0  0  0  0  0
  -25.9210  -32.5730   23.8670 C   0  0  0  0  0  3  0  0  0  0  0  0
  -26.4450  -31.7810   25.1280 C   0  0  1  0  0  0  0  0  0  0  0  0
  -25.3600  -31.5310   26.2000 C   0  0  0  0  0  1  0  0  0  0  0  0
  -27.0180  -30.4070   24.7080 C   0  0  0  0  0  1  0  0  0  0  0  0
  -27.6030  -32.5610   25.7940 C   0  0  0  0  0  1  0  0  0  0  0  0
  -25.6290  -33.9710   24.2150 N   0  0  0  0  0  0  0  0  0  0  0  0
  -25.9660  -35.0270   23.4630 C   0  0  0  0  0  0  0  0  0  0  0  0
  -26.6280  -34.9290   22.4260 O   0  0  0  0  0  0  0  0  0  0  0  0
  -25.0450  -34.1230   25.0230 H   0  0  0  0  0  0  0  0  0  0  0  0
  -24.2560  -36.8410   23.1300 C   0  0  0  0  0  1  0  0  0  0  0  0
  -25.4910  -36.4140   23.9380 C   0  0  0  0  0  3  0  0  0  0  0  0
  -27.6320  -37.2680   24.7860 C   0  0  0  0  0  1  0  0  0  0  0  0
  -26.5350  -37.4580   23.8410 N   0  0  0  0  0  0  0  0  0  0  0  0
  -26.1360  -38.3800   23.9990 H   0  0  0  0  0  0  0  0  0  0  0  0
  2  7  1  0
  2  1  1  0
  3  2  1  0
  4  1  1  0
  4 48  1  0
  5  6  1  6
  5  3  1  0
  5 53  1  0
  5  4  1  0
  7  8  1  0
  8  9  1  0
 10  9  1  0
 10 11  1  0
 12 11  1  0
 13 18  1  0
 14 15  1  0
 14 13  1  0
 16 15  1  0
 16 23  1  0
 16 17  1  0
 18 12  1  0
 18 17  1  0
 19 12  2  0
 20 21  2  0
 21 40  1  0
 22 21  1  0
 22 25  1  0
 23 20  1  0
 23 24  1  0
 24 22  2  0
 25 26  1  0
 26 27  2  0
 28 31  1  0
 28 27  1  0
 29 28  2  0
 30 29  1  0
 30 25  2  0
 31 32  1  0
 32 37  2  0
 32 33  1  0
 33 34  2  0
 34 35  1  0
 35 39  1  0
 36 35  2  0
 37 36  1  0
 38 37  1  0
 40 41  1  0
 41 44  1  0
 41 43  1  0
 42 40  2  0
 45 46  1  0
 45 20  1  0
 47 45  1  0
 48 49  1  0
 49 52  1  0
 49 51  1  0
 50 49  1  0
 54 56  1  0
 54 53  1  0
 55 66  2  0
 56 61  1  0
 57 65  1  0
 57 67  1  0
 58 64  1  0
 58 60  1  0
 59 65  1  0
 60 59  1  0
 61 60  2  0
 62 63  1  0
 62 56  2  0
 63 58  2  0
 64 57  1  0
 65 55  1  0
 67 69  2  0
 68 67  1  0
 70 68  1  0
 71 80  2  0
 71 76  1  0
 72 68  1  0
 72 76  1  0
 73 72  1  0
 74 75  1  0
 74 73  1  0
 75 71  1  0
 76 77  2  0
 77 78  1  0
 79 78  2  0
 80 79  1  0
 81 55  1  0
 81 86  1  0
 81 82  1  0
 82 85  1  1
 82 83  1  0
 84 82  1  0
 86 89  1  0
 87 91  1  0
 87 86  1  0
 88 87  2  0
 91 90  1  0
 93 91  1  0
 93 94  1  0
 93 92  1  0
M  ISO  4  11 100  12 100  53 101  54 101
M  END
>  <TORSDO>  (93) 
F 24

>  <SCORE>  (93) 
-12.349

>  <name>  (93) 
92

>  <ligand_id>  (93) 
92

>  <original_smiles>  (93) 
[H]C1=C(C([H])([H])C([H])([H])C([H])([H])C([H])([H])C([H])([H])C(=O)N2C([H])([H])C([H])([H])C([H])([H])C([H])(n3nc(-c4c([H])c([H])c(Oc5c([H])c([H])c(F)c([H])c5F)c([H])c4[H])c(C(=O)N([H])[H])c3N([H])[H])C2([H])[H])C([H])([H])C(C([H])([H])[H])(C([H])([H])Oc2c([H])c([H])c3c(c2[H])C([H])([H])N(C(=O)C([H])(N([H])C(=O)C([H])(N([H])C([H])([H])[H])C([H])([H])[H])C(C([H])([H])[H])(C([H])([H])[H])C([H])([H])[H])C([H])(C(=O)N([H])C2([H])c4c([H])c([H])c([H])c([H])c4C([H])([H])C([H])([H])C2([H])[H])C3([H])[H])C1([H])C([H])([H])[N+]([H])([H])[H]

>  <smiles>  (93) 
[H]C1=C(C([H])([H])C([H])([H])C([H])([H])C([H])([H])C([H])([H])C(=O)N2C([H])([H])C([H])([H])C([H])([H])C([H])(n3nc(-c4c([H])c([H])c(Oc5c([H])c([H])c(F)c([H])c5F)c([H])c4[H])c(C(=O)N([H])[H])c3N([H])[H])C2([H])[H])C([H])([H])C(C([H])([H])[H])(C([H])([H])Oc2c([H])c([H])c3c(c2[H])C([H])([H])N(C(=O)C([H])(N([H])C(=O)C([H])(N([H])C([H])([H])[H])C([H])([H])[H])C(C([H])([H])[H])(C([H])([H])[H])C([H])([H])[H])C([H])(C(=O)N([H])C2([H])c4c([H])c([H])c([H])c([H])c4C([H])([H])C([H])([H])C2([H])[H])C3([H])[H])C1([H])C([H])([H])[N+]([H])([H])[H]

$$$$
93:0:0
     RDKit          3D

 93100  0  0  1  0  0  0  0  0999 V2000
  -30.7350  -20.3320   19.4540 C   0  0  0  0  0  2  0  0  0  0  0  0
  -31.3520  -19.8340   20.7630 C   0  0  0  0  0  0  0  0  0  0  0  0
  -32.5710  -19.7290   20.9120 O   0  0  0  0  0  0  0  0  0  0  0  0
  -30.4100  -19.3700   21.8710 C   0  0  0  0  0  2  0  0  0  0  0  0
  -29.7890  -17.9720   21.6400 C   0  0  0  0  0  2  0  0  0  0  0  0
  -30.7300  -16.8460   21.1300 C   0  0  0  0  0  3  0  0  0  0  0  0
  -31.9860  -16.7760   21.9170 N   0  0  0  0  0  4  0  0  0  0  0  0
  -31.8150  -16.5290   22.8780 H   0  0  0  0  0  0  0  0  0  0  0  0
  -32.4640  -17.6620   21.8960 H   0  0  0  0  0  0  0  0  0  0  0  0
  -32.6110  -16.0940   21.5220 H   0  0  0  0  0  0  0  0  0  0  0  0
  -29.9750  -15.4850   21.1100 C   0  0  0  0  0  2  0  0  0  0  0  0
  -30.5640  -14.3950   20.1920 C   0  0  0  0  0  0  0  0  0  0  0  0
  -30.1770  -12.3160   18.9120 C   0  0  0  0  0  2  0  0  0  0  0  0
  -29.1760  -12.5910   17.7720 C   0  0  0  0  0  2  0  0  0  0  0  0
  -27.7240  -12.4380   18.2700 C   0  0  0  0  0  2  0  0  0  0  0  0
  -27.4600  -13.2150   19.5870 C   0  0  0  0  0  3  0  0  0  0  0  0
  -28.5700  -12.9290   20.6240 C   0  0  0  0  0  2  0  0  0  0  0  0
  -29.8680  -13.2420   20.0080 N   0  0  0  0  0  0  0  0  0  0  0  0
  -31.6190  -14.6330   19.6000 O   0  0  0  0  0  0  0  0  0  0  0  0
  -25.0840  -13.7960   20.3930 C   0  0  0  0  0  0  0  0  0  0  0  0
  -24.0410  -13.0110   20.8070 C   0  0  0  0  0  0  0  0  0  0  0  0
  -24.5160  -11.6650   20.7570 C   0  0  0  0  0  0  0  0  0  0  0  0
  -26.1300  -12.9270   20.1210 N   0  0  0  0  0  0  0  0  0  0  0  0
  -25.7930  -11.6410   20.3950 N   0  0  0  0  0  0  0  0  0  0  0  0
  -23.8140  -10.3940   20.9780 C   0  0  0  0  0  0  0  0  0  0  0  0
  -24.2910   -9.4360   21.8990 C   0  0  0  0  0  3  0  0  0  0  0  0
  -23.5870   -8.2300   22.1070 C   0  0  0  0  0  3  0  0  0  0  0  0
  -22.3910   -7.9740   21.3950 C   0  0  0  0  0  0  0  0  0  0  0  0
  -21.9340   -8.9210   20.4620 C   0  0  0  0  0  3  0  0  0  0  0  0
  -22.6390  -10.1190   20.2510 C   0  0  0  0  0  3  0  0  0  0  0  0
  -21.6560   -6.8190   21.5110 O   0  0  0  0  0  0  0  0  0  0  0  0
  -21.6550   -6.0810   22.6680 C   0  0  0  0  0  0  0  0  0  0  0  0
  -21.2770   -6.6410   23.9090 C   0  0  0  0  0  3  0  0  0  0  0  0
  -21.2240   -5.8300   25.0610 C   0  0  0  0  0  3  0  0  0  0  0  0
  -21.5370   -4.4600   24.9730 C   0  0  0  0  0  0  0  0  0  0  0  0
  -21.9090   -3.9000   23.7380 C   0  0  0  0  0  3  0  0  0  0  0  0
  -21.9650   -4.7090   22.5890 C   0  0  0  0  0  0  0  0  0  0  0  0
  -22.3020   -4.1600   21.3970 F   0  0  0  0  0  0  0  0  0  0  0  0
  -21.4790   -3.6790   26.0760 F   0  0  0  0  0  0  0  0  0  0  0  0
  -22.6500  -13.4710   21.1380 C   0  0  0  0  0  0  0  0  0  0  0  0
  -21.9700  -12.7690   22.0370 N   0  0  0  0  0  0  0  0  0  0  0  0
  -22.1760  -14.4900   20.6350 O   0  0  0  0  0  0  0  0  0  0  0  0
  -22.3670  -11.9460   22.4640 H   0  0  0  0  0  0  0  0  0  0  0  0
  -21.0390  -13.0570   22.2990 H   0  0  0  0  0  0  0  0  0  0  0  0
  -25.2260  -15.1690   20.2070 N   0  0  0  0  0  0  0  0  0  0  0  0
  -24.4590  -15.8180   20.3500 H   0  0  0  0  0  0  0  0  0  0  0  0
  -26.0590  -15.6150   19.8450 H   0  0  0  0  0  0  0  0  0  0  0  0
  -31.5170  -21.4810   18.7790 C   0  0  0  0  0  2  0  0  0  0  0  0
  -31.3630  -22.8560   19.4570 C   0  0  0  0  0  2  0  0  0  0  0  0
  -29.9770  -23.4790   19.2310 C   0  0  0  0  0  2  0  0  0  0  0  0
  -29.8740  -24.9250   19.7360 C   0  0  0  0  0  2  0  0  0  0  0  0
  -28.4470  -25.4690   19.6060 C   0  0  0  0  0  2  0  0  0  0  0  0
  -28.3980  -26.7790   20.1570 O   0  0  0  0  0  0  0  0  0  0  0  0
  -24.5470  -31.8790   23.2390 C   0  0  0  0  0  0  0  0  0  0  0  0
  -27.1910  -27.4450   20.1580 C   0  0  0  0  0  0  0  0  0  0  0  0
  -23.3360  -30.4760   21.6000 C   0  0  0  0  0  3  0  0  0  0  0  0
  -24.7860  -28.9320   20.1810 C   0  0  0  0  0  0  0  0  0  0  0  0
  -25.8600  -30.8350   21.3960 C   0  0  0  0  0  2  0  0  0  0  0  0
  -25.9410  -29.4620   20.7660 C   0  0  0  0  0  0  0  0  0  0  0  0
  -27.1450  -28.7230   20.7540 C   0  0  0  0  0  3  0  0  0  0  0  0
  -26.0100  -26.9170   19.5820 C   0  0  0  0  0  3  0  0  0  0  0  0
  -24.8120  -27.6570   19.5910 C   0  0  0  0  0  3  0  0  0  0  0  0
  -23.5410  -29.7880   20.2250 C   0  0  0  0  0  2  0  0  0  0  0  0
  -24.6010  -31.0770   22.1380 N   0  0  0  0  0  0  0  0  0  0  0  0
  -23.4660  -32.1560   23.7780 O   0  0  0  0  0  0  0  0  0  0  0  0
  -22.6830  -29.4600   22.5650 C   0  0  0  0  0  0  0  0  0  0  0  0
  -21.3600  -29.2770   22.4310 N   0  0  0  0  0  0  0  0  0  0  0  0
  -23.3640  -28.8360   23.3830 O   0  0  0  0  0  0  0  0  0  0  0  0
  -20.8730  -29.8330   21.7410 H   0  0  0  0  0  0  0  0  0  0  0  0
  -17.9830  -28.0910   22.9100 C   0  0  0  0  0  0  0  0  0  0  0  0
  -20.5380  -28.3440   23.2000 C   0  0  0  0  0  3  0  0  0  0  0  0
  -20.6430  -26.9120   22.6300 C   0  0  0  0  0  2  0  0  0  0  0  0
  -19.5480  -26.5860   21.6090 C   0  0  0  0  0  2  0  0  0  0  0  0
  -18.1620  -26.7360   22.2450 C   0  0  0  0  0  2  0  0  0  0  0  0
  -19.0990  -28.8530   23.3430 C   0  0  0  0  0  0  0  0  0  0  0  0
  -18.8780  -30.1220   23.9220 C   0  0  0  0  0  3  0  0  0  0  0  0
  -17.5740  -30.6270   24.0750 C   0  0  0  0  0  3  0  0  0  0  0  0
  -16.4720  -29.8600   23.6590 C   0  0  0  0  0  3  0  0  0  0  0  0
  -16.6760  -28.5950   23.0810 C   0  0  0  0  0  3  0  0  0  0  0  0
  -25.8350  -32.5070   23.8570 C   0  0  0  0  0  3  0  0  0  0  0  0
  -26.3540  -31.7310   25.1290 C   0  0  1  0  0  0  0  0  0  0  0  0
  -25.2650  -31.4930   26.2030 C   0  0  0  0  0  1  0  0  0  0  0  0
  -26.9310  -30.3540   24.7270 C   0  0  0  0  0  1  0  0  0  0  0  0
  -27.5100  -32.5210   25.7880 C   0  0  0  0  0  1  0  0  0  0  0  0
  -25.5300  -33.9040   24.1900 N   0  0  0  0  0  0  0  0  0  0  0  0
  -25.8680  -34.9550   23.4330 C   0  0  0  0  0  0  0  0  0  0  0  0
  -26.5420  -34.8520   22.4040 O   0  0  0  0  0  0  0  0  0  0  0  0
  -24.9270  -34.0590   24.9850 H   0  0  0  0  0  0  0  0  0  0  0  0
  -24.1470  -36.7540   23.0720 C   0  0  0  0  0  1  0  0  0  0  0  0
  -25.3820  -36.3440   23.8890 C   0  0  0  0  0  3  0  0  0  0  0  0
  -27.5190  -37.2190   24.7280 C   0  0  0  0  0  1  0  0  0  0  0  0
  -26.4190  -37.3940   23.7830 N   0  0  0  0  0  0  0  0  0  0  0  0
  -26.0150  -38.3150   23.9340 H   0  0  0  0  0  0  0  0  0  0  0  0
  1  2  1  0
  2  3  2  0
  2  4  1  0
  5  4  1  0
  6 11  1  0
  6  5  1  0
  6  7  1  0
  7  8  1  0
  9  7  1  0
 10  7  1  0
 12 11  1  0
 13 18  1  0
 14 15  1  0
 14 13  1  0
 16 15  1  0
 16 23  1  0
 16 17  1  0
 18 12  1  0
 18 17  1  0
 19 12  2  0
 20 21  2  0
 21 40  1  0
 22 21  1  0
 22 25  1  0
 23 20  1  0
 23 24  1  0
 24 22  2  0
 25 26  1  0
 26 27  2  0
 28 31  1  0
 28 27  1  0
 29 28  2  0
 30 29  1  0
 30 25  2  0
 31 32  1  0
 32 33  1  0
 33 34  2  0
 35 34  1  0
 35 39  1  0
 36 35  2  0
 37 32  2  0
 37 36  1  0
 38 37  1  0
 40 41  1  0
 41 44  1  0
 41 43  1  0
 42 40  2  0
 45 46  1  0
 45 20  1  0
 47 45  1  0
 48  1  1  0
 48 49  1  0
 50 49  1  0
 50 51  1  0
 52 51  1  0
 52 53  1  0
 53 55  1  0
 54 65  2  0
 55 60  1  0
 56 64  1  0
 56 66  1  0
 57 63  1  0
 57 59  1  0
 58 64  1  0
 59 58  1  0
 60 59  2  0
 61 62  1  0
 61 55  2  0
 62 57  2  0
 63 56  1  0
 64 54  1  0
 66 68  2  0
 67 66  1  0
 69 67  1  0
 70 79  2  0
 70 75  1  0
 71 67  1  0
 71 75  1  0
 72 71  1  0
 73 74  1  0
 73 72  1  0
 74 70  1  0
 75 76  2  0
 76 77  1  0
 78 77  2  0
 79 78  1  0
 80 54  1  0
 80 85  1  0
 80 81  1  0
 81 84  1  1
 81 82  1  0
 83 81  1  0
 85 88  1  0
 86 90  1  0
 86 85  1  0
 87 86  2  0
 90 89  1  0
 92 90  1  0
 92 93  1  0
 92 91  1  0
M  ISO  4  11 100  12 100  52 101  53 101
M  END
>  <TORSDO>  (94) 
F 27

>  <SCORE>  (94) 
-10.574

>  <name>  (94) 
93

>  <ligand_id>  (94) 
93

>  <original_smiles>  (94) 
[H]c1c([H])c([H])c2c(c1[H])C([H])([H])C([H])([H])C([H])([H])C2([H])N([H])C(=O)C1([H])N(C(=O)C([H])(N([H])C(=O)C([H])(N([H])C([H])([H])[H])C([H])([H])[H])C(C([H])([H])[H])(C([H])([H])[H])C([H])([H])[H])C([H])([H])c2c([H])c(OC([H])([H])C([H])([H])C([H])([H])C([H])([H])C([H])([H])C([H])([H])C(=O)C([H])([H])C([H])([H])C([H])(C([H])([H])C(=O)N3C([H])([H])C([H])([H])C([H])([H])C([H])(n4nc(-c5c([H])c([H])c(Oc6c([H])c([H])c(F)c([H])c6F)c([H])c5[H])c(C(=O)N([H])[H])c4N([H])[H])C3([H])[H])[N+]([H])([H])[H])c([H])c([H])c2C1([H])[H]

>  <smiles>  (94) 
[H]c1c([H])c([H])c2c(c1[H])C([H])([H])C([H])([H])C([H])([H])C2([H])N([H])C(=O)C1([H])N(C(=O)C([H])(N([H])C(=O)C([H])(N([H])C([H])([H])[H])C([H])([H])[H])C(C([H])([H])[H])(C([H])([H])[H])C([H])([H])[H])C([H])([H])c2c([H])c(OC([H])([H])C([H])([H])C([H])([H])C([H])([H])C([H])([H])C([H])([H])C(=O)C([H])([H])C([H])([H])C([H])(C([H])([H])C(=O)N3C([H])([H])C([H])([H])C([H])([H])C([H])(n4nc(-c5c([H])c([H])c(Oc6c([H])c([H])c(F)c([H])c6F)c([H])c5[H])c(C(=O)N([H])[H])c4N([H])[H])C3([H])[H])[N+]([H])([H])[H])c([H])c([H])c2C1([H])[H]

$$$$
94:0:0
     RDKit          3D

 93101  0  0  1  0  0  0  0  0999 V2000
  -27.5130  -24.6920   21.7070 C   0  0  0  0  0  0  0  0  0  0  0  0
  -27.9980  -23.2600   21.5940 C   0  0  0  0  0  2  0  0  0  0  0  0
  -28.6780  -25.6750   21.7780 C   0  0  0  0  0  3  0  0  0  0  0  0
  -29.4540  -23.3280   22.0760 C   0  0  0  0  0  3  0  0  0  0  0  0
  -29.9240  -24.7590   21.7220 C   0  0  0  0  0  3  0  0  0  0  0  0
  -26.3220  -24.9940   21.8190 O   0  0  0  0  0  0  0  0  0  0  0  0
  -28.7020  -26.8340   20.7400 C   0  0  0  0  0  2  0  0  0  0  0  0
  -27.7220  -26.7600   19.6930 O   0  0  0  0  0  0  0  0  0  0  0  0
  -24.3190  -31.9910   23.1340 C   0  0  0  0  0  0  0  0  0  0  0  0
  -26.6110  -27.5690   19.8060 C   0  0  0  0  0  0  0  0  0  0  0  0
  -22.9530  -30.6740   21.5390 C   0  0  0  0  0  3  0  0  0  0  0  0
  -24.2590  -29.1240   19.9860 C   0  0  0  0  0  0  0  0  0  0  0  0
  -25.4670  -30.9620   21.1840 C   0  0  0  0  0  2  0  0  0  0  0  0
  -25.4620  -29.6090   20.5110 C   0  0  0  0  0  0  0  0  0  0  0  0
  -26.6390  -28.8420   20.4200 C   0  0  0  0  0  3  0  0  0  0  0  0
  -25.3990  -27.1030   19.2600 C   0  0  0  0  0  3  0  0  0  0  0  0
  -24.2190  -27.8670   19.3560 C   0  0  0  0  0  3  0  0  0  0  0  0
  -23.0490  -30.0200   20.1330 C   0  0  0  0  0  2  0  0  0  0  0  0
  -24.2670  -31.2220   22.0100 N   0  0  0  0  0  0  0  0  0  0  0  0
  -23.2890  -32.2880   23.7550 O   0  0  0  0  0  0  0  0  0  0  0  0
  -22.3320  -29.6530   22.5180 C   0  0  0  0  0  0  0  0  0  0  0  0
  -21.0020  -29.4890   22.4410 N   0  0  0  0  0  0  0  0  0  0  0  0
  -23.0390  -29.0140   23.2990 O   0  0  0  0  0  0  0  0  0  0  0  0
  -20.4940  -30.0620   21.7830 H   0  0  0  0  0  0  0  0  0  0  0  0
  -17.6430  -28.2850   22.9980 C   0  0  0  0  0  0  0  0  0  0  0  0
  -20.2030  -28.5550   23.2320 C   0  0  0  0  0  3  0  0  0  0  0  0
  -20.3030  -27.1180   22.6690 C   0  0  0  0  0  2  0  0  0  0  0  0
  -19.1890  -26.7820   21.6720 C   0  0  0  0  0  2  0  0  0  0  0  0
  -17.8150  -26.9290   22.3340 C   0  0  0  0  0  2  0  0  0  0  0  0
  -18.7650  -29.0560   23.4030 C   0  0  0  0  0  0  0  0  0  0  0  0
  -18.5510  -30.3260   23.9820 C   0  0  0  0  0  3  0  0  0  0  0  0
  -17.2490  -30.8270   24.1590 C   0  0  0  0  0  3  0  0  0  0  0  0
  -16.1400  -30.0550   23.7680 C   0  0  0  0  0  3  0  0  0  0  0  0
  -16.3380  -28.7850   23.1950 C   0  0  0  0  0  3  0  0  0  0  0  0
  -25.6700  -32.5540   23.6800 C   0  0  0  0  0  3  0  0  0  0  0  0
  -26.2480  -31.7160   24.8860 C   0  0  1  0  0  0  0  0  0  0  0  0
  -25.2240  -31.4760   26.0200 C   0  0  0  0  0  1  0  0  0  0  0  0
  -26.7500  -30.3360   24.3980 C   0  0  0  0  0  1  0  0  0  0  0  0
  -27.4690  -32.4450   25.4940 C   0  0  0  0  0  1  0  0  0  0  0  0
  -25.4370  -33.9480   24.0790 N   0  0  0  0  0  0  0  0  0  0  0  0
  -25.7950  -35.0150   23.3550 C   0  0  0  0  0  0  0  0  0  0  0  0
  -26.4280  -34.9280   22.2990 O   0  0  0  0  0  0  0  0  0  0  0  0
  -24.8770  -34.0950   24.9060 H   0  0  0  0  0  0  0  0  0  0  0  0
  -24.1480  -36.9010   23.1140 C   0  0  0  0  0  1  0  0  0  0  0  0
  -25.3830  -36.4030   23.8820 C   0  0  0  0  0  3  0  0  0  0  0  0
  -27.5720  -37.1470   24.7080 C   0  0  0  0  0  1  0  0  0  0  0  0
  -26.4620  -37.4100   23.7960 N   0  0  0  0  0  0  0  0  0  0  0  0
  -26.1030  -38.3400   23.9950 H   0  0  0  0  0  0  0  0  0  0  0  0
  -30.3480  -22.2230   21.4760 C   0  0  0  0  0  2  0  0  0  0  0  0
  -29.9160  -20.8090   21.8990 C   0  0  0  0  0  2  0  0  0  0  0  0
  -30.7740  -19.7020   21.2660 C   0  0  0  0  0  2  0  0  0  0  0  0
  -30.2500  -18.3000   21.6140 C   0  0  0  0  0  2  0  0  0  0  0  0
  -31.0380  -17.1700   20.9280 C   0  0  0  0  0  2  0  0  0  0  0  0
  -30.4140  -15.7760   21.1660 C   0  0  0  0  0  2  0  0  0  0  0  0
  -30.9780  -14.6780   20.2450 C   0  0  0  0  0  0  0  0  0  0  0  0
  -30.5950  -12.5900   18.9790 C   0  0  0  0  0  2  0  0  0  0  0  0
  -29.6270  -12.8510   17.8100 C   0  0  0  0  0  2  0  0  0  0  0  0
  -28.1610  -12.7270   18.2710 C   0  0  0  0  0  2  0  0  0  0  0  0
  -27.8700  -13.5310   19.5660 C   0  0  0  0  0  3  0  0  0  0  0  0
  -28.9470  -13.2500   20.6390 C   0  0  0  0  0  2  0  0  0  0  0  0
  -30.2650  -13.5370   20.0530 N   0  0  0  0  0  0  0  0  0  0  0  0
  -32.0430  -14.8940   19.6580 O   0  0  0  0  0  0  0  0  0  0  0  0
  -25.4800  -14.1520   20.3030 C   0  0  0  0  0  0  0  0  0  0  0  0
  -24.4160  -13.3830   20.6910 C   0  0  0  0  0  0  0  0  0  0  0  0
  -24.8740  -12.0300   20.6630 C   0  0  0  0  0  0  0  0  0  0  0  0
  -26.5210  -13.2650   20.0650 N   0  0  0  0  0  0  0  0  0  0  0  0
  -26.1590  -11.9860   20.3360 N   0  0  0  0  0  0  0  0  0  0  0  0
  -24.1480  -10.7700   20.8720 C   0  0  0  0  0  0  0  0  0  0  0  0
  -24.5540   -9.8380   21.8520 C   0  0  0  0  0  3  0  0  0  0  0  0
  -23.8300   -8.6430   22.0460 C   0  0  0  0  0  3  0  0  0  0  0  0
  -22.6850   -8.3700   21.2600 C   0  0  0  0  0  0  0  0  0  0  0  0
  -22.2990   -9.2910   20.2700 C   0  0  0  0  0  3  0  0  0  0  0  0
  -23.0240  -10.4780   20.0740 C   0  0  0  0  0  3  0  0  0  0  0  0
  -21.9340   -7.2240   21.3610 O   0  0  0  0  0  0  0  0  0  0  0  0
  -21.7900   -6.5620   22.5530 C   0  0  0  0  0  0  0  0  0  0  0  0
  -21.2540   -7.1930   23.6970 C   0  0  0  0  0  3  0  0  0  0  0  0
  -21.0560   -6.4570   24.8820 C   0  0  0  0  0  3  0  0  0  0  0  0
  -21.3870   -5.0890   24.9240 C   0  0  0  0  0  0  0  0  0  0  0  0
  -21.9160   -4.4570   23.7850 C   0  0  0  0  0  3  0  0  0  0  0  0
  -22.1140   -5.1920   22.6020 C   0  0  0  0  0  0  0  0  0  0  0  0
  -22.6050   -4.5720   21.5010 F   0  0  0  0  0  0  0  0  0  0  0  0
  -21.1920   -4.3770   26.0600 F   0  0  0  0  0  0  0  0  0  0  0  0
  -23.0230  -13.8640   20.9820 C   0  0  0  0  0  0  0  0  0  0  0  0
  -22.3100  -13.1820   21.8720 N   0  0  0  0  0  0  0  0  0  0  0  0
  -22.5750  -14.8820   20.4570 O   0  0  0  0  0  0  0  0  0  0  0  0
  -22.6820  -12.3580   22.3200 H   0  0  0  0  0  0  0  0  0  0  0  0
  -21.3770  -13.4890   22.1080 H   0  0  0  0  0  0  0  0  0  0  0  0
  -25.6430  -15.5210   20.1110 N   0  0  0  0  0  0  0  0  0  0  0  0
  -24.8770  -16.1760   20.2250 H   0  0  0  0  0  0  0  0  0  0  0  0
  -26.4920  -15.9580   19.7750 H   0  0  0  0  0  0  0  0  0  0  0  0
  -31.0960  -25.2770   22.5860 C   0  0  0  0  0  2  0  0  0  0  0  0
  -30.7050  -25.4620   23.9360 O   0  0  0  0  0  0  0  0  0  0  0  0
  -31.4790  -25.7210   24.4300 H   0  0  0  0  0  0  0  0  0  0  0  0
  1  3  1  0
  1  6  2  0
  2  1  1  0
  2  4  1  0
  3  7  1  0
  4 49  1  0
  5  3  1  0
  5  4  1  0
  5 91  1  0
  8 10  1  0
  8  7  1  0
  9 20  2  0
 10 15  1  0
 11 19  1  0
 11 21  1  0
 12 18  1  0
 12 14  1  0
 13 19  1  0
 14 13  1  0
 15 14  2  0
 16 17  1  0
 16 10  2  0
 17 12  2  0
 18 11  1  0
 19  9  1  0
 21 23  2  0
 22 21  1  0
 24 22  1  0
 25 34  2  0
 25 30  1  0
 26 22  1  0
 26 30  1  0
 27 26  1  0
 28 29  1  0
 28 27  1  0
 29 25  1  0
 30 31  2  0
 31 32  1  0
 33 32  2  0
 34 33  1  0
 35  9  1  0
 35 40  1  0
 35 36  1  0
 36 39  1  1
 36 37  1  0
 38 36  1  0
 40 43  1  0
 41 45  1  0
 41 40  1  0
 42 41  2  0
 45 44  1  0
 47 45  1  0
 47 48  1  0
 47 46  1  0
 49 50  1  0
 51 52  1  0
 51 50  1  0
 53 54  1  0
 53 52  1  0
 55 54  1  0
 56 61  1  0
 57 58  1  0
 57 56  1  0
 59 58  1  0
 59 66  1  0
 59 60  1  0
 61 55  1  0
 61 60  1  0
 62 55  2  0
 63 64  2  0
 64 83  1  0
 65 64  1  0
 65 68  1  0
 66 63  1  0
 66 67  1  0
 67 65  2  0
 68 69  1  0
 69 70  2  0
 71 74  1  0
 71 70  1  0
 72 71  2  0
 73 72  1  0
 73 68  2  0
 74 75  1  0
 75 80  2  0
 75 76  1  0
 76 77  2  0
 77 78  1  0
 78 82  1  0
 79 78  2  0
 80 79  1  0
 81 80  1  0
 83 84  1  0
 84 87  1  0
 84 86  1  0
 85 83  2  0
 88 89  1  0
 88 63  1  0
 90 88  1  0
 91 92  1  0
 92 93  1  0
M  ISO  4   7 101   8 101  54 100  55 100
M  END
>  <TORSDO>  (95) 
F 25

>  <SCORE>  (95) 
-9.801

>  <name>  (95) 
94

>  <ligand_id>  (95) 
94

>  <original_smiles>  (95) 
[H]OC([H])([H])C1([H])C([H])(C([H])([H])Oc2c([H])c([H])c3c(c2[H])C([H])([H])N(C(=O)C([H])(N([H])C(=O)C([H])(N([H])C([H])([H])[H])C([H])([H])[H])C(C([H])([H])[H])(C([H])([H])[H])C([H])([H])[H])C([H])(C(=O)N([H])C2([H])c4c([H])c([H])c([H])c([H])c4C([H])([H])C([H])([H])C2([H])[H])C3([H])[H])C(=O)C([H])([H])C1([H])C([H])([H])C([H])([H])C([H])([H])C([H])([H])C([H])([H])C([H])([H])C(=O)N1C([H])([H])C([H])([H])C([H])([H])C([H])(n2nc(-c3c([H])c([H])c(Oc4c([H])c([H])c(F)c([H])c4F)c([H])c3[H])c(C(=O)N([H])[H])c2N([H])[H])C1([H])[H]

>  <smiles>  (95) 
[H]OC([H])([H])C1([H])C([H])(C([H])([H])Oc2c([H])c([H])c3c(c2[H])C([H])([H])N(C(=O)C([H])(N([H])C(=O)C([H])(N([H])C([H])([H])[H])C([H])([H])[H])C(C([H])([H])[H])(C([H])([H])[H])C([H])([H])[H])C([H])(C(=O)N([H])C2([H])c4c([H])c([H])c([H])c([H])c4C([H])([H])C([H])([H])C2([H])[H])C3([H])[H])C(=O)C([H])([H])C1([H])C([H])([H])C([H])([H])C([H])([H])C([H])([H])C([H])([H])C([H])([H])C(=O)N1C([H])([H])C([H])([H])C([H])([H])C([H])(n2nc(-c3c([H])c([H])c(Oc4c([H])c([H])c(F)c([H])c4F)c([H])c3[H])c(C(=O)N([H])[H])c2N([H])[H])C1([H])[H]

$$$$
95:0:0
     RDKit          3D

 91 99  0  0  1  0  0  0  0  0999 V2000
  -29.4070  -19.9100   20.1050 C   0  0  0  0  0  3  0  0  0  0  0  0
  -31.5360  -20.9380   20.6770 C   0  0  0  0  0  3  0  0  0  0  0  0
  -29.1320  -20.9680   19.2200 C   0  0  0  0  0  3  0  0  0  0  0  0
  -31.2650  -22.0000   19.7890 C   0  0  0  0  0  3  0  0  0  0  0  0
  -30.6120  -19.8860   20.8320 C   0  0  0  0  0  0  0  0  0  0  0  0
  -30.0610  -22.0150   19.0440 C   0  0  0  0  0  0  0  0  0  0  0  0
  -30.9020  -18.7270   21.7660 C   0  0  0  0  0  2  0  0  0  0  0  0
  -31.3600  -17.4750   21.0040 C   0  0  0  0  0  2  0  0  0  0  0  0
  -31.4400  -16.2220   21.8990 C   0  0  0  0  0  2  0  0  0  0  0  0
  -30.3880  -15.1400   21.5590 C   0  0  0  0  0  2  0  0  0  0  0  0
  -30.6900  -14.3190   20.2950 C   0  0  0  0  0  0  0  0  0  0  0  0
  -30.2320  -12.3220   18.9140 C   0  0  0  0  0  2  0  0  0  0  0  0
  -29.2410  -12.6180   17.7770 C   0  0  0  0  0  2  0  0  0  0  0  0
  -27.7940  -12.4520   18.2720 C   0  0  0  0  0  2  0  0  0  0  0  0
  -27.5270  -13.2290   19.5880 C   0  0  0  0  0  3  0  0  0  0  0  0
  -28.6230  -12.9330   20.6380 C   0  0  0  0  0  2  0  0  0  0  0  0
  -29.9330  -13.2240   20.0330 N   0  0  0  0  0  0  0  0  0  0  0  0
  -31.6460  -14.6460   19.5850 O   0  0  0  0  0  0  0  0  0  0  0  0
  -25.1380  -13.8210   20.3560 C   0  0  0  0  0  0  0  0  0  0  0  0
  -24.0880  -13.0400   20.7600 C   0  0  0  0  0  0  0  0  0  0  0  0
  -24.5610  -11.6940   20.7260 C   0  0  0  0  0  0  0  0  0  0  0  0
  -26.1870  -12.9480   20.1050 N   0  0  0  0  0  0  0  0  0  0  0  0
  -25.8430  -11.6630   20.3790 N   0  0  0  0  0  0  0  0  0  0  0  0
  -23.8540  -10.4270   20.9470 C   0  0  0  0  0  0  0  0  0  0  0  0
  -24.3150   -9.4790   21.8880 C   0  0  0  0  0  3  0  0  0  0  0  0
  -23.6080   -8.2740   22.0970 C   0  0  0  0  0  3  0  0  0  0  0  0
  -22.4260   -8.0100   21.3660 C   0  0  0  0  0  0  0  0  0  0  0  0
  -21.9820   -8.9470   20.4150 C   0  0  0  0  0  3  0  0  0  0  0  0
  -22.6910  -10.1430   20.2050 C   0  0  0  0  0  3  0  0  0  0  0  0
  -21.6900   -6.8560   21.4830 O   0  0  0  0  0  0  0  0  0  0  0  0
  -21.6690   -6.1310   22.6470 C   0  0  0  0  0  0  0  0  0  0  0  0
  -21.2520   -6.6980   23.8710 C   0  0  0  0  0  3  0  0  0  0  0  0
  -21.1780   -5.8970   25.0290 C   0  0  0  0  0  3  0  0  0  0  0  0
  -21.5130   -4.5310   24.9640 C   0  0  0  0  0  0  0  0  0  0  0  0
  -21.9230   -3.9630   23.7450 C   0  0  0  0  0  3  0  0  0  0  0  0
  -21.9980   -4.7620   22.5890 C   0  0  0  0  0  0  0  0  0  0  0  0
  -22.3730   -4.2050   21.4130 F   0  0  0  0  0  0  0  0  0  0  0  0
  -21.4350   -3.7600   26.0730 F   0  0  0  0  0  0  0  0  0  0  0  0
  -22.6950  -13.5080   21.0730 C   0  0  0  0  0  0  0  0  0  0  0  0
  -22.0040  -12.8130   21.9690 N   0  0  0  0  0  0  0  0  0  0  0  0
  -22.2300  -14.5230   20.5580 O   0  0  0  0  0  0  0  0  0  0  0  0
  -22.3920  -11.9930   22.4080 H   0  0  0  0  0  0  0  0  0  0  0  0
  -21.0720  -13.1100   22.2200 H   0  0  0  0  0  0  0  0  0  0  0  0
  -25.2840  -15.1920   20.1640 N   0  0  0  0  0  0  0  0  0  0  0  0
  -24.5170  -15.8440   20.2900 H   0  0  0  0  0  0  0  0  0  0  0  0
  -26.1290  -15.6340   19.8270 H   0  0  0  0  0  0  0  0  0  0  0  0
  -29.7490  -23.0850   18.0000 C   0  0  0  0  0  2  0  0  0  0  0  0
  -30.4460  -24.4490   18.1580 C   0  0  0  0  0  2  0  0  0  0  0  0
  -29.9850  -25.2940   19.3610 C   0  0  0  0  0  2  0  0  0  0  0  0
  -28.5290  -25.7780   19.2570 C   0  0  0  0  0  2  0  0  0  0  0  0
  -28.3400  -26.8540   20.1680 O   0  0  0  0  0  0  0  0  0  0  0  0
  -24.5250  -31.9730   23.2540 C   0  0  0  0  0  0  0  0  0  0  0  0
  -27.1370  -27.5260   20.1590 C   0  0  0  0  0  0  0  0  0  0  0  0
  -23.2970  -30.5620   21.6330 C   0  0  0  0  0  3  0  0  0  0  0  0
  -24.7300  -29.0110   20.2030 C   0  0  0  0  0  0  0  0  0  0  0  0
  -25.8180  -30.9180   21.4060 C   0  0  0  0  0  2  0  0  0  0  0  0
  -25.8900  -29.5410   20.7780 C   0  0  0  0  0  0  0  0  0  0  0  0
  -27.0900  -28.8020   20.7630 C   0  0  0  0  0  3  0  0  0  0  0  0
  -25.9540  -27.0000   19.5850 C   0  0  0  0  0  3  0  0  0  0  0  0
  -24.7540  -27.7370   19.6100 C   0  0  0  0  0  3  0  0  0  0  0  0
  -23.4870  -29.8690   20.2550 C   0  0  0  0  0  2  0  0  0  0  0  0
  -24.5660  -31.1670   22.1550 N   0  0  0  0  0  0  0  0  0  0  0  0
  -23.4510  -32.2510   23.8040 O   0  0  0  0  0  0  0  0  0  0  0  0
  -22.6580  -29.5490   22.6090 C   0  0  0  0  0  0  0  0  0  0  0  0
  -21.3370  -29.3490   22.4760 N   0  0  0  0  0  0  0  0  0  0  0  0
  -23.3470  -28.9430   23.4350 O   0  0  0  0  0  0  0  0  0  0  0  0
  -20.8480  -29.8840   21.7720 H   0  0  0  0  0  0  0  0  0  0  0  0
  -17.9760  -28.1130   22.9640 C   0  0  0  0  0  0  0  0  0  0  0  0
  -20.5260  -28.4150   23.2570 C   0  0  0  0  0  3  0  0  0  0  0  0
  -20.6550  -26.9750   22.7090 C   0  0  0  0  0  2  0  0  0  0  0  0
  -19.5680  -26.6150   21.6920 C   0  0  0  0  0  2  0  0  0  0  0  0
  -18.1790  -26.7530   22.3180 C   0  0  0  0  0  2  0  0  0  0  0  0
  -19.0790  -28.9000   23.3880 C   0  0  0  0  0  0  0  0  0  0  0  0
  -18.8350  -30.1720   23.9510 C   0  0  0  0  0  3  0  0  0  0  0  0
  -17.5210  -30.6580   24.0920 C   0  0  0  0  0  3  0  0  0  0  0  0
  -16.4330  -29.8690   23.6800 C   0  0  0  0  0  3  0  0  0  0  0  0
  -16.6610  -28.5980   23.1230 C   0  0  0  0  0  3  0  0  0  0  0  0
  -25.8230  -32.6010   23.8530 C   0  0  0  0  0  3  0  0  0  0  0  0
  -25.5210  -34.0020   24.1800 N   0  0  0  0  0  0  0  0  0  0  0  0
  -25.8580  -35.0500   23.4170 C   0  0  0  0  0  0  0  0  0  0  0  0
  -26.5260  -34.9390   22.3860 O   0  0  0  0  0  0  0  0  0  0  0  0
  -24.9270  -34.1600   24.9810 H   0  0  0  0  0  0  0  0  0  0  0  0
  -24.1450  -36.8530   23.0420 C   0  0  0  0  0  1  0  0  0  0  0  0
  -25.3740  -36.4410   23.8670 C   0  0  0  0  0  3  0  0  0  0  0  0
  -27.5090  -37.3110   24.7160 C   0  0  0  0  0  1  0  0  0  0  0  0
  -26.4150  -37.4870   23.7640 N   0  0  0  0  0  0  0  0  0  0  0  0
  -26.0140  -38.4110   23.9050 H   0  0  0  0  0  0  0  0  0  0  0  0
  -26.3560  -31.8330   25.1260 C   0  0  1  0  0  0  0  0  0  0  0  0
  -25.2750  -31.5970   26.2060 C   0  0  0  0  0  1  0  0  0  0  0  0
  -26.9360  -30.4560   24.7280 C   0  0  0  0  0  1  0  0  0  0  0  0
  -27.5100  -32.6340   25.7730 C   0  0  0  0  0  1  0  0  0  0  0  0
  1  5  1  0
  2  5  2  0
  3  1  2  0
  4  2  1  0
  5  7  1  0
  6  3  1  0
  6  4  2  0
  8  7  1  0
  8  9  1  0
 10  9  1  0
 11 10  1  0
 12 17  1  0
 13 14  1  0
 13 12  1  0
 15 14  1  0
 15 22  1  0
 15 16  1  0
 17 11  1  0
 17 16  1  0
 18 11  2  0
 19 20  2  0
 20 39  1  0
 21 20  1  0
 21 24  1  0
 22 19  1  0
 22 23  1  0
 23 21  2  0
 24 25  1  0
 25 26  2  0
 27 30  1  0
 27 26  1  0
 28 27  2  0
 29 28  1  0
 29 24  2  0
 30 31  1  0
 31 32  1  0
 32 33  2  0
 34 33  1  0
 34 38  1  0
 35 34  2  0
 36 31  2  0
 36 35  1  0
 37 36  1  0
 39 40  1  0
 40 43  1  0
 40 42  1  0
 41 39  2  0
 44 45  1  0
 44 19  1  0
 46 44  1  0
 47 48  1  0
 47  6  1  0
 48 49  1  0
 50 49  1  0
 50 51  1  0
 52 63  2  0
 53 51  1  0
 53 58  1  0
 54 62  1  0
 54 64  1  0
 55 61  1  0
 55 57  1  0
 56 62  1  0
 57 56  1  0
 58 57  2  0
 59 60  1  0
 59 53  2  0
 60 55  2  0
 61 54  1  0
 62 52  1  0
 64 66  2  0
 65 64  1  0
 67 65  1  0
 68 77  2  0
 68 73  1  0
 69 65  1  0
 69 73  1  0
 70 69  1  0
 71 72  1  0
 71 70  1  0
 72 68  1  0
 73 74  2  0
 74 75  1  0
 76 75  2  0
 77 76  1  0
 78 52  1  0
 78 79  1  0
 78 88  1  0
 79 82  1  0
 80 84  1  0
 80 79  1  0
 81 80  2  0
 84 83  1  0
 86 84  1  0
 86 87  1  0
 86 85  1  0
 88 91  1  1
 88 89  1  0
 90 88  1  0
M  ISO  4  10 100  11 100  50 101  51 101
M  END
>  <TORSDO>  (96) 
F 24

>  <SCORE>  (96) 
-12.020

>  <name>  (96) 
95

>  <ligand_id>  (96) 
95

>  <original_smiles>  (96) 
[H]c1c([H])c([H])c2c(c1[H])C([H])([H])C([H])([H])C([H])([H])C2([H])N([H])C(=O)C1([H])N(C(=O)C([H])(N([H])C(=O)C([H])(N([H])C([H])([H])[H])C([H])([H])[H])C(C([H])([H])[H])(C([H])([H])[H])C([H])([H])[H])C([H])([H])c2c([H])c(OC([H])([H])C([H])([H])C([H])([H])C([H])([H])c3c([H])c([H])c(C([H])([H])C([H])([H])C([H])([H])C([H])([H])C(=O)N4C([H])([H])C([H])([H])C([H])([H])C([H])(n5nc(-c6c([H])c([H])c(Oc7c([H])c([H])c(F)c([H])c7F)c([H])c6[H])c(C(=O)N([H])[H])c5N([H])[H])C4([H])[H])c([H])c3[H])c([H])c([H])c2C1([H])[H]

>  <smiles>  (96) 
[H]c1c([H])c([H])c2c(c1[H])C([H])([H])C([H])([H])C([H])([H])C2([H])N([H])C(=O)C1([H])N(C(=O)C([H])(N([H])C(=O)C([H])(N([H])C([H])([H])[H])C([H])([H])[H])C(C([H])([H])[H])(C([H])([H])[H])C([H])([H])[H])C([H])([H])c2c([H])c(OC([H])([H])C([H])([H])C([H])([H])C([H])([H])c3c([H])c([H])c(C([H])([H])C([H])([H])C([H])([H])C([H])([H])C(=O)N4C([H])([H])C([H])([H])C([H])([H])C([H])(n5nc(-c6c([H])c([H])c(Oc7c([H])c([H])c(F)c([H])c7F)c([H])c6[H])c(C(=O)N([H])[H])c5N([H])[H])C4([H])[H])c([H])c3[H])c([H])c([H])c2C1([H])[H]

$$$$
97:0:0
     RDKit          3D

 90 97  0  0  1  0  0  0  0  0999 V2000
  -26.7560  -23.9130   21.0880 C   0  0  0  0  0  2  0  0  0  0  0  0
  -28.1180  -24.5540   20.7670 C   0  0  0  0  0  0  0  0  0  0  0  0
  -28.9740  -23.9910   20.0800 O   0  0  0  0  0  0  0  0  0  0  0  0
  -28.3860  -25.9450   21.3280 C   0  0  0  0  0  2  0  0  0  0  0  0
  -28.3910  -26.8980   20.2660 O   0  0  0  0  0  0  0  0  0  0  0  0
  -24.5330  -32.0070   23.2960 C   0  0  0  0  0  0  0  0  0  0  0  0
  -27.2290  -27.6180   20.2310 C   0  0  0  0  0  0  0  0  0  0  0  0
  -23.3460  -30.5920   21.6470 C   0  0  0  0  0  3  0  0  0  0  0  0
  -24.8200  -29.0670   20.2300 C   0  0  0  0  0  0  0  0  0  0  0  0
  -25.8630  -30.9830   21.4590 C   0  0  0  0  0  2  0  0  0  0  0  0
  -25.9640  -29.6130   20.8260 C   0  0  0  0  0  0  0  0  0  0  0  0
  -27.1730  -28.8890   20.8340 C   0  0  0  0  0  3  0  0  0  0  0  0
  -26.0790  -27.0800   19.6170 C   0  0  0  0  0  3  0  0  0  0  0  0
  -24.8680  -27.7990   19.6250 C   0  0  0  0  0  3  0  0  0  0  0  0
  -23.5660  -29.9110   20.2690 C   0  0  0  0  0  2  0  0  0  0  0  0
  -24.5980  -31.2070   22.1940 N   0  0  0  0  0  0  0  0  0  0  0  0
  -23.4490  -32.2710   23.8300 O   0  0  0  0  0  0  0  0  0  0  0  0
  -22.7000  -29.5670   22.6060 C   0  0  0  0  0  0  0  0  0  0  0  0
  -21.3760  -29.3820   22.4760 N   0  0  0  0  0  0  0  0  0  0  0  0
  -23.3840  -28.9390   23.4180 O   0  0  0  0  0  0  0  0  0  0  0  0
  -20.8880  -29.9340   21.7840 H   0  0  0  0  0  0  0  0  0  0  0  0
  -18.0020  -28.1890   22.9630 C   0  0  0  0  0  0  0  0  0  0  0  0
  -20.5600  -28.4410   23.2410 C   0  0  0  0  0  3  0  0  0  0  0  0
  -20.6650  -27.0130   22.6570 C   0  0  0  0  0  2  0  0  0  0  0  0
  -19.5630  -26.6980   21.6400 C   0  0  0  0  0  2  0  0  0  0  0  0
  -18.1800  -26.8410   22.2830 C   0  0  0  0  0  2  0  0  0  0  0  0
  -19.1210  -28.9470   23.3980 C   0  0  0  0  0  0  0  0  0  0  0  0
  -18.9040  -30.2100   23.9910 C   0  0  0  0  0  3  0  0  0  0  0  0
  -17.6000  -30.7150   24.1510 C   0  0  0  0  0  3  0  0  0  0  0  0
  -16.4950  -29.9530   23.7340 C   0  0  0  0  0  3  0  0  0  0  0  0
  -16.6980  -28.6910   23.1470 C   0  0  0  0  0  3  0  0  0  0  0  0
  -25.8140  -32.6450   23.9200 C   0  0  0  0  0  3  0  0  0  0  0  0
  -26.3200  -31.8900   25.2090 C   0  0  1  0  0  0  0  0  0  0  0  0
  -25.2160  -31.6600   26.2670 C   0  0  0  0  0  1  0  0  0  0  0  0
  -26.9110  -30.5110   24.8350 C   0  0  0  0  0  1  0  0  0  0  0  0
  -27.4640  -32.6930   25.8730 C   0  0  0  0  0  1  0  0  0  0  0  0
  -25.5070  -34.0490   24.2230 N   0  0  0  0  0  0  0  0  0  0  0  0
  -25.8550  -35.0850   23.4500 C   0  0  0  0  0  0  0  0  0  0  0  0
  -26.5400  -34.9630   22.4320 O   0  0  0  0  0  0  0  0  0  0  0  0
  -24.9000  -34.2180   25.0130 H   0  0  0  0  0  0  0  0  0  0  0  0
  -24.1340  -36.8700   23.0370 C   0  0  0  0  0  1  0  0  0  0  0  0
  -25.3630  -36.4820   23.8740 C   0  0  0  0  0  3  0  0  0  0  0  0
  -27.4900  -37.3750   24.7170 C   0  0  0  0  0  1  0  0  0  0  0  0
  -26.4000  -37.5320   23.7570 N   0  0  0  0  0  0  0  0  0  0  0  0
  -25.9940  -38.4550   23.8880 H   0  0  0  0  0  0  0  0  0  0  0  0
  -26.6760  -22.3920   20.8580 C   0  0  0  0  0  2  0  0  0  0  0  0
  -26.7660  -21.9600   19.3760 C   0  0  0  0  0  2  0  0  0  0  0  0
  -26.9180  -20.4450   19.1680 C   0  0  0  0  0  2  0  0  0  0  0  0
  -28.0620  -19.8350   19.9900 C   0  0  0  0  0  2  0  0  0  0  0  0
  -28.4510  -18.4120   19.5480 C   0  0  0  0  0  2  0  0  0  0  0  0
  -29.1040  -17.5580   20.6770 C   0  0  0  0  0  2  0  0  0  0  0  0
  -30.5000  -16.8730   20.7840 C   0  0  0  0  0  2  0  0  0  0  0  0
  -31.0460  -14.4840   20.5340 C   0  0  0  0  0  0  0  0  0  0  0  0
  -30.7340  -12.3340   19.3960 C   0  0  0  0  0  2  0  0  0  0  0  0
  -29.8270  -12.5470   18.1640 C   0  0  0  0  0  2  0  0  0  0  0  0
  -28.3370  -12.4640   18.5520 C   0  0  0  0  0  2  0  0  0  0  0  0
  -27.9860  -13.3300   19.7890 C   0  0  0  0  0  3  0  0  0  0  0  0
  -28.9980  -13.0730   20.9320 C   0  0  0  0  0  2  0  0  0  0  0  0
  -30.3570  -13.3220   20.4120 N   0  0  0  0  0  0  0  0  0  0  0  0
  -32.1410  -14.6970   20.0060 O   0  0  0  0  0  0  0  0  0  0  0  0
  -30.3590  -15.4600   21.1280 N   0  0  0  0  0  0  0  0  0  0  0  0
  -29.5070  -15.1830   21.5940 H   0  0  0  0  0  0  0  0  0  0  0  0
  -25.5730  -14.0140   20.3890 C   0  0  0  0  0  0  0  0  0  0  0  0
  -24.4740  -13.2740   20.7380 C   0  0  0  0  0  0  0  0  0  0  0  0
  -24.9040  -11.9120   20.7570 C   0  0  0  0  0  0  0  0  0  0  0  0
  -26.6070  -13.1040   20.2210 N   0  0  0  0  0  0  0  0  0  0  0  0
  -26.2020  -11.8360   20.4990 N   0  0  0  0  0  0  0  0  0  0  0  0
  -24.1440  -10.6710   20.9540 C   0  0  0  0  0  0  0  0  0  0  0  0
  -24.5220   -9.7190   21.9270 C   0  0  0  0  0  3  0  0  0  0  0  0
  -23.7650   -8.5420   22.1090 C   0  0  0  0  0  3  0  0  0  0  0  0
  -22.6160   -8.3080   21.3160 C   0  0  0  0  0  0  0  0  0  0  0  0
  -22.2560   -9.2490   20.3350 C   0  0  0  0  0  3  0  0  0  0  0  0
  -23.0130  -10.4180   20.1510 C   0  0  0  0  0  3  0  0  0  0  0  0
  -21.8330   -7.1820   21.4040 O   0  0  0  0  0  0  0  0  0  0  0  0
  -21.7230   -6.4730   22.5740 C   0  0  0  0  0  0  0  0  0  0  0  0
  -21.2740   -7.0770   23.7690 C   0  0  0  0  0  3  0  0  0  0  0  0
  -21.1070   -6.2980   24.9300 C   0  0  0  0  0  3  0  0  0  0  0  0
  -21.3790   -4.9170   24.9000 C   0  0  0  0  0  0  0  0  0  0  0  0
  -21.8210   -4.3130   23.7080 C   0  0  0  0  0  3  0  0  0  0  0  0
  -21.9900   -5.0900   22.5490 C   0  0  0  0  0  0  0  0  0  0  0  0
  -22.3960   -4.4990   21.3980 F   0  0  0  0  0  0  0  0  0  0  0  0
  -21.2120   -4.1670   26.0130 F   0  0  0  0  0  0  0  0  0  0  0  0
  -23.0800  -13.7900   20.9500 C   0  0  0  0  0  0  0  0  0  0  0  0
  -22.3120  -13.1400   21.8170 N   0  0  0  0  0  0  0  0  0  0  0  0
  -22.6780  -14.8060   20.3850 O   0  0  0  0  0  0  0  0  0  0  0  0
  -22.6480  -12.3200   22.3020 H   0  0  0  0  0  0  0  0  0  0  0  0
  -21.3750  -13.4700   22.0030 H   0  0  0  0  0  0  0  0  0  0  0  0
  -25.7750  -15.3770   20.1830 N   0  0  0  0  0  0  0  0  0  0  0  0
  -25.0250  -16.0550   20.2510 H   0  0  0  0  0  0  0  0  0  0  0  0
  -26.6510  -15.7880   19.8880 H   0  0  0  0  0  0  0  0  0  0  0  0
  2  1  1  0
  2  4  1  0
  3  2  2  0
  5  4  1  0
  6 17  2  0
  7  5  1  0
  7 12  1  0
  8 16  1  0
  8 18  1  0
  9 15  1  0
  9 11  1  0
 10 16  1  0
 11 12  2  0
 11 10  1  0
 13 14  1  0
 13  7  2  0
 14  9  2  0
 15  8  1  0
 16  6  1  0
 18 20  2  0
 19 18  1  0
 21 19  1  0
 22 31  2  0
 22 27  1  0
 23 19  1  0
 23 27  1  0
 24 23  1  0
 25 26  1  0
 25 24  1  0
 26 22  1  0
 27 28  2  0
 28 29  1  0
 30 29  2  0
 31 30  1  0
 32  6  1  0
 32 37  1  0
 32 33  1  0
 33 36  1  1
 33 34  1  0
 35 33  1  0
 37 40  1  0
 38 42  1  0
 38 37  1  0
 39 38  2  0
 42 41  1  0
 44 42  1  0
 44 45  1  0
 44 43  1  0
 46  1  1  0
 47 46  1  0
 48 47  1  0
 48 49  1  0
 50 49  1  0
 50 51  1  0
 51 52  1  0
 52 61  1  0
 53 61  1  0
 54 59  1  0
 55 56  1  0
 55 54  1  0
 57 56  1  0
 57 66  1  0
 57 58  1  0
 59 53  1  0
 59 58  1  0
 60 53  2  0
 61 62  1  0
 63 64  2  0
 64 65  1  0
 64 83  1  0
 65 68  1  0
 66 63  1  0
 66 67  1  0
 67 65  2  0
 68 69  1  0
 69 70  2  0
 71 74  1  0
 71 70  1  0
 72 71  2  0
 73 72  1  0
 73 68  2  0
 74 75  1  0
 75 76  1  0
 76 77  2  0
 78 77  1  0
 78 82  1  0
 79 78  2  0
 80 75  2  0
 80 79  1  0
 81 80  1  0
 83 84  1  0
 84 87  1  0
 84 86  1  0
 85 83  2  0
 88 89  1  0
 88 63  1  0
 90 88  1  0
M  ISO  4   4 101   5 101  53 100  61 100
M  END
>  <TORSDO>  (97) 
F 25

>  <SCORE>  (97) 
-11.568

>  <name>  (97) 
97

>  <ligand_id>  (97) 
97

>  <original_smiles>  (97) 
[H]c1c([H])c([H])c2c(c1[H])C([H])([H])C([H])([H])C([H])([H])C2([H])N([H])C(=O)C1([H])N(C(=O)C([H])(N([H])C(=O)C([H])(N([H])C([H])([H])[H])C([H])([H])[H])C(C([H])([H])[H])(C([H])([H])[H])C([H])([H])[H])C([H])([H])c2c([H])c(OC([H])([H])C(=O)C([H])([H])C([H])([H])C([H])([H])C([H])([H])C([H])([H])C([H])([H])C([H])([H])C([H])([H])N([H])C(=O)N3C([H])([H])C([H])([H])C([H])([H])C([H])(n4nc(-c5c([H])c([H])c(Oc6c([H])c([H])c(F)c([H])c6F)c([H])c5[H])c(C(=O)N([H])[H])c4N([H])[H])C3([H])[H])c([H])c([H])c2C1([H])[H]

>  <smiles>  (97) 
[H]c1c([H])c([H])c2c(c1[H])C([H])([H])C([H])([H])C([H])([H])C2([H])N([H])C(=O)C1([H])N(C(=O)C([H])(N([H])C(=O)C([H])(N([H])C([H])([H])[H])C([H])([H])[H])C(C([H])([H])[H])(C([H])([H])[H])C([H])([H])[H])C([H])([H])c2c([H])c(OC([H])([H])C(=O)C([H])([H])C([H])([H])C([H])([H])C([H])([H])C([H])([H])C([H])([H])C([H])([H])C([H])([H])N([H])C(=O)N3C([H])([H])C([H])([H])C([H])([H])C([H])(n4nc(-c5c([H])c([H])c(Oc6c([H])c([H])c(F)c([H])c6F)c([H])c5[H])c(C(=O)N([H])[H])c4N([H])[H])C3([H])[H])c([H])c([H])c2C1([H])[H]

$$$$
