0:0:0
     RDKit          3D

 94103  0  0  1  0  0  0  0  0999 V2000
  -29.7930  -21.0310   24.8400 C   0  0  0  0  0  3  0  0  0  0  0  0
  -29.4740  -19.9640   23.9780 C   0  0  0  0  0  3  0  0  0  0  0  0
  -30.2260  -22.2610   24.3090 C   0  0  0  0  0  3  0  0  0  0  0  0
  -30.0190  -21.3590   22.0530 C   0  0  0  0  0  3  0  0  0  0  0  0
  -29.5860  -20.1230   22.5820 C   0  0  0  0  0  0  0  0  0  0  0  0
  -30.3400  -22.4330   22.9130 C   0  0  0  0  0  0  0  0  0  0  0  0
  -29.2310  -18.9690   21.6570 C   0  0  0  0  0  2  0  0  0  0  0  0
  -32.2850  -14.7420   19.3950 C   0  0  0  0  0  0  0  0  0  0  0  0
  -31.9030  -12.4150   18.6720 C   0  0  0  0  0  2  0  0  0  0  0  0
  -30.7790  -12.3680   17.6190 C   0  0  0  0  0  2  0  0  0  0  0  0
  -29.3990  -12.2650   18.2960 C   0  0  0  0  0  2  0  0  0  0  0  0
  -29.2090  -13.3140   19.4230 C   0  0  0  0  0  3  0  0  0  0  0  0
  -30.4270  -13.3210   20.3700 C   0  0  0  0  0  2  0  0  0  0  0  0
  -31.6400  -13.5540   19.5650 N   0  0  0  0  0  0  0  0  0  0  0  0
  -33.2210  -14.8830   18.5980 O   0  0  0  0  0  0  0  0  0  0  0  0
  -30.3640  -17.8600   19.6550 C   0  0  0  0  0  2  0  0  0  0  0  0
  -30.7100  -16.8880   21.9560 C   0  0  0  0  0  2  0  0  0  0  0  0
  -31.5830  -17.0530   19.1810 C   0  0  0  0  0  2  0  0  0  0  0  0
  -31.9150  -16.1040   21.3940 C   0  0  0  0  0  2  0  0  0  0  0  0
  -30.4670  -18.1850   21.1570 C   0  0  0  0  0  3  0  0  0  0  0  0
  -31.7070  -15.8200   19.9670 N   0  0  0  0  0  0  0  0  0  0  0  0
  -27.1330  -14.0110   20.7820 C   0  0  0  0  0  0  0  0  0  0  0  0
  -26.0670  -13.2940   21.2540 C   0  0  0  0  0  0  0  0  0  0  0  0
  -26.3040  -11.9380   20.8730 C   0  0  0  0  0  0  0  0  0  0  0  0
  -27.9620  -13.0920   20.1540 N   0  0  0  0  0  0  0  0  0  0  0  0
  -27.4750  -11.8290   20.2600 N   0  0  0  0  0  0  0  0  0  0  0  0
  -25.4560  -10.7460   21.0070 C   0  0  0  0  0  0  0  0  0  0  0  0
  -25.8740   -9.6220   21.7540 C   0  0  0  0  0  3  0  0  0  0  0  0
  -25.0350   -8.4950   21.8820 C   0  0  0  0  0  3  0  0  0  0  0  0
  -23.7620   -8.4840   21.2630 C   0  0  0  0  0  0  0  0  0  0  0  0
  -23.3600   -9.5950   20.5010 C   0  0  0  0  0  3  0  0  0  0  0  0
  -24.1990  -10.7150   20.3710 C   0  0  0  0  0  3  0  0  0  0  0  0
  -22.8900   -7.4230   21.3120 O   0  0  0  0  0  0  0  0  0  0  0  0
  -22.5960   -6.7860   22.4910 C   0  0  0  0  0  0  0  0  0  0  0  0
  -22.1200   -7.4900   23.6190 C   0  0  0  0  0  3  0  0  0  0  0  0
  -21.7640   -6.7870   24.7870 C   0  0  0  0  0  3  0  0  0  0  0  0
  -21.8730   -5.3840   24.8290 C   0  0  0  0  0  0  0  0  0  0  0  0
  -22.3420   -4.6820   23.7040 C   0  0  0  0  0  3  0  0  0  0  0  0
  -22.6990   -5.3810   22.5380 C   0  0  0  0  0  0  0  0  0  0  0  0
  -23.1300   -4.6980   21.4500 F   0  0  0  0  0  0  0  0  0  0  0  0
  -21.5240   -4.7090   25.9480 F   0  0  0  0  0  0  0  0  0  0  0  0
  -24.8480  -13.8470   21.9370 C   0  0  0  0  0  0  0  0  0  0  0  0
  -24.2660  -13.0880   22.8590 N   0  0  0  0  0  0  0  0  0  0  0  0
  -24.4340  -14.9780   21.6890 O   0  0  0  0  0  0  0  0  0  0  0  0
  -24.6180  -12.1680   23.0770 H   0  0  0  0  0  0  0  0  0  0  0  0
  -23.4560  -13.4330   23.3550 H   0  0  0  0  0  0  0  0  0  0  0  0
  -27.4590  -15.3640   20.8160 N   0  0  0  0  0  0  0  0  0  0  0  0
  -26.8450  -16.0590   21.2250 H   0  0  0  0  0  0  0  0  0  0  0  0
  -28.2890  -15.7620   20.3960 H   0  0  0  0  0  0  0  0  0  0  0  0
  -30.7960  -23.7730   22.3520 C   0  0  0  0  0  2  0  0  0  0  0  0
  -29.9230  -24.2630   21.1850 C   0  0  0  0  0  2  0  0  0  0  0  0
  -29.9750  -25.7900   20.9830 C   0  0  0  0  0  2  0  0  0  0  0  0
  -29.1490  -26.2420   19.7700 C   0  0  0  0  0  2  0  0  0  0  0  0
  -28.9580  -27.6600   19.8170 O   0  0  0  0  0  0  0  0  0  0  0  0
  -24.2750  -31.6700   23.3450 C   0  0  0  0  0  0  0  0  0  0  0  0
  -27.6590  -28.1200   19.8740 C   0  0  0  0  0  0  0  0  0  0  0  0
  -23.3260  -30.2070   21.5890 C   0  0  0  0  0  3  0  0  0  0  0  0
  -25.0170  -29.1140   20.0270 C   0  0  0  0  0  0  0  0  0  0  0  0
  -25.7270  -31.0700   21.4110 C   0  0  0  0  0  2  0  0  0  0  0  0
  -26.0620  -29.8020   20.6550 C   0  0  0  0  0  0  0  0  0  0  0  0
  -27.3850  -29.3120   20.5780 C   0  0  0  0  0  3  0  0  0  0  0  0
  -26.5960  -27.4500   19.2240 C   0  0  0  0  0  3  0  0  0  0  0  0
  -25.2790  -27.9350   19.3100 C   0  0  0  0  0  3  0  0  0  0  0  0
  -23.6320  -29.7050   20.1540 C   0  0  0  0  0  2  0  0  0  0  0  0
  -24.4590  -30.9940   22.1750 N   0  0  0  0  0  0  0  0  0  0  0  0
  -23.1740  -31.6790   23.9120 O   0  0  0  0  0  0  0  0  0  0  0  0
  -22.9080  -28.9990   22.4570 C   0  0  0  0  0  0  0  0  0  0  0  0
  -21.7020  -28.4670   22.1980 N   0  0  0  0  0  0  0  0  0  0  0  0
  -23.6670  -28.5430   23.3160 O   0  0  0  0  0  0  0  0  0  0  0  0
  -21.1380  -28.9020   21.4820 H   0  0  0  0  0  0  0  0  0  0  0  0
  -18.8180  -26.2930   22.2440 C   0  0  0  0  0  0  0  0  0  0  0  0
  -21.1140  -27.3050   22.8630 C   0  0  0  0  0  3  0  0  0  0  0  0
  -21.7250  -25.9900   22.3270 C   0  0  0  0  0  2  0  0  0  0  0  0
  -20.9210  -25.3780   21.1750 C   0  0  0  0  0  2  0  0  0  0  0  0
  -19.4860  -25.0790   21.6200 C   0  0  0  0  0  2  0  0  0  0  0  0
  -19.5830  -27.3450   22.8130 C   0  0  0  0  0  0  0  0  0  0  0  0
  -18.9130  -28.4660   23.3500 C   0  0  0  0  0  3  0  0  0  0  0  0
  -17.5080  -28.5470   23.3240 C   0  0  0  0  0  3  0  0  0  0  0  0
  -16.7550  -27.4950   22.7740 C   0  0  0  0  0  3  0  0  0  0  0  0
  -17.4090  -26.3700   22.2400 C   0  0  0  0  0  3  0  0  0  0  0  0
  -25.4290  -32.4800   24.0120 C   0  0  0  0  0  3  0  0  0  0  0  0
  -25.0400  -33.8970   23.9960 N   0  0  0  0  0  0  0  0  0  0  0  0
  -25.5250  -34.8080   23.1420 C   0  0  0  0  0  0  0  0  0  0  0  0
  -26.4110  -34.5540   22.3230 O   0  0  0  0  0  0  0  0  0  0  0  0
  -24.2800  -34.1640   24.6050 H   0  0  0  0  0  0  0  0  0  0  0  0
  -23.9390  -36.4240   22.0460 C   0  0  0  0  0  1  0  0  0  0  0  0
  -24.9290  -36.2280   23.2060 C   0  0  0  0  0  3  0  0  0  0  0  0
  -26.7800  -37.3370   24.3780 C   0  0  0  0  0  1  0  0  0  0  0  0
  -25.9500  -37.2970   23.1770 N   0  0  0  0  0  0  0  0  0  0  0  0
  -25.5140  -38.2080   23.0640 H   0  0  0  0  0  0  0  0  0  0  0  0
  -25.7540  -32.0060   25.4810 C   0  0  1  0  0  0  0  0  0  0  0  0
  -24.5120  -31.9240   26.3970 C   0  0  0  0  0  1  0  0  0  0  0  0
  -26.4250  -30.6120   25.4650 C   0  0  0  0  0  1  0  0  0  0  0  0
  -26.7660  -32.9770   26.1340 C   0  0  0  0  0  1  0  0  0  0  0  0
  2  1  2  0
  3  1  1  0
  4  5  2  0
  4  6  1  0
  5  2  1  0
  6  3  2  0
  7  5  1  0
  8 14  1  0
  8 21  1  0
  9 14  1  0
 10 11  1  0
 10  9  1  0
 12 11  1  0
 12 25  1  0
 12 13  1  0
 14 13  1  0
 15  8  2  0
 16 20  1  0
 18 16  1  0
 18 21  1  0
 19 17  1  0
 20  7  1  0
 20 17  1  0
 21 19  1  0
 22 47  1  0
 22 23  2  0
 23 42  1  0
 24 27  1  0
 24 23  1  0
 25 26  1  0
 25 22  1  0
 26 24  2  0
 27 28  1  0
 28 29  2  0
 30 33  1  0
 30 29  1  0
 31 30  2  0
 32 31  1  0
 32 27  2  0
 33 34  1  0
 34 39  2  0
 34 35  1  0
 35 36  2  0
 36 37  1  0
 37 41  1  0
 38 37  2  0
 39 38  1  0
 40 39  1  0
 42 43  1  0
 43 45  1  0
 43 46  1  0
 44 42  2  0
 47 48  1  0
 49 47  1  0
 50  6  1  0
 51 50  1  0
 52 51  1  0
 53 54  1  0
 53 52  1  0
 54 56  1  0
 55 66  2  0
 56 61  1  0
 57 65  1  0
 57 67  1  0
 58 64  1  0
 58 60  1  0
 59 65  1  0
 60 59  1  0
 61 60  2  0
 62 63  1  0
 62 56  2  0
 63 58  2  0
 64 57  1  0
 65 55  1  0
 67 69  2  0
 68 67  1  0
 70 68  1  0
 71 76  1  0
 72 68  1  0
 73 72  1  0
 74 75  1  0
 74 73  1  0
 75 71  1  0
 76 72  1  0
 76 77  2  0
 78 77  1  0
 79 78  2  0
 80 71  2  0
 80 79  1  0
 81 55  1  0
 81 91  1  0
 82 81  1  0
 82 85  1  0
 83 87  1  0
 83 82  1  0
 84 83  2  0
 87 86  1  0
 89 87  1  0
 89 88  1  0
 90 89  1  0
 91 94  1  1
 91 92  1  0
 93 91  1  0
M  ISO  4   8 100  21 100  53 101  54 101
M  END
>  <TORSDO>  (1) 
F 21

>  <SCORE>  (1) 
-2.930

>  <name>  (1) 
0

>  <ligand_id>  (1) 
0

>  <original_smiles>  (1) 
[H]c1c([H])c([H])c2c(c1[H])C([H])([H])C([H])([H])C([H])([H])C2([H])N([H])C(=O)C1([H])N(C(=O)C([H])(N([H])C(=O)C([H])(N([H])C([H])([H])[H])C([H])([H])[H])C(C([H])([H])[H])(C([H])([H])[H])C([H])([H])[H])C([H])([H])c2c([H])c(OC([H])([H])C([H])([H])C([H])([H])C([H])([H])c3c([H])c([H])c([H])c(C([H])([H])C4([H])C([H])([H])C([H])([H])N(C(=O)N5C([H])([H])C([H])([H])C([H])([H])C([H])(n6nc(-c7c([H])c([H])c(Oc8c([H])c([H])c(F)c([H])c8F)c([H])c7[H])c(C(=O)N([H])[H])c6N([H])[H])C5([H])[H])C([H])([H])C4([H])[H])c3[H])c([H])c([H])c2C1([H])[H]

>  <smiles>  (1) 
[H]c1c([H])c([H])c2c(c1[H])C([H])([H])C([H])([H])C([H])([H])C2([H])N([H])C(=O)C1([H])N(C(=O)C([H])(N([H])C(=O)C([H])(N([H])C([H])([H])[H])C([H])([H])[H])C(C([H])([H])[H])(C([H])([H])[H])C([H])([H])[H])C([H])([H])c2c([H])c(OC([H])([H])C([H])([H])C([H])([H])C([H])([H])c3c([H])c([H])c([H])c(C([H])([H])C4([H])C([H])([H])C([H])([H])N(C(=O)N5C([H])([H])C([H])([H])C([H])([H])C([H])(n6nc(-c7c([H])c([H])c(Oc8c([H])c([H])c(F)c([H])c8F)c([H])c7[H])c(C(=O)N([H])[H])c6N([H])[H])C5([H])[H])C([H])([H])C4([H])[H])c3[H])c([H])c([H])c2C1([H])[H]

$$$$
1:0:0
     RDKit          3D

 97104  0  0  1  0  0  0  0  0999 V2000
  -29.3810  -24.1790   23.4810 C   0  0  0  0  0  3  0  0  0  0  0  0
  -28.8070  -24.2520   22.1220 N   0  0  0  0  0  4  0  0  0  0  0  0
  -29.3970  -23.6660   21.5510 H   0  0  0  0  0  0  0  0  0  0  0  0
  -27.8840  -23.8450   22.1250 H   0  0  0  0  0  0  0  0  0  0  0  0
  -28.7880  -25.6050   21.5180 C   0  0  0  0  0  2  0  0  0  0  0  0
  -28.4370  -25.5640   20.0240 C   0  0  0  0  0  2  0  0  0  0  0  0
  -28.4550  -26.8970   19.5240 O   0  0  0  0  0  0  0  0  0  0  0  0
  -24.7890  -31.6370   23.3340 C   0  0  0  0  0  0  0  0  0  0  0  0
  -27.2900  -27.6040   19.6680 C   0  0  0  0  0  0  0  0  0  0  0  0
  -23.5320  -30.5070   21.5270 C   0  0  0  0  0  3  0  0  0  0  0  0
  -24.9330  -29.1280   19.9060 C   0  0  0  0  0  0  0  0  0  0  0  0
  -26.0630  -30.8240   21.3550 C   0  0  0  0  0  2  0  0  0  0  0  0
  -26.1060  -29.5490   20.5420 C   0  0  0  0  0  0  0  0  0  0  0  0
  -27.2910  -28.7980   20.4170 C   0  0  0  0  0  3  0  0  0  0  0  0
  -26.1040  -27.1840   19.0310 C   0  0  0  0  0  3  0  0  0  0  0  0
  -24.9240  -27.9430   19.1460 C   0  0  0  0  0  3  0  0  0  0  0  0
  -23.7140  -30.0030   20.0700 C   0  0  0  0  0  2  0  0  0  0  0  0
  -24.8140  -30.9940   22.1320 N   0  0  0  0  0  0  0  0  0  0  0  0
  -23.7200  -31.8650   23.9170 O   0  0  0  0  0  0  0  0  0  0  0  0
  -22.8560  -29.3860   22.3480 C   0  0  0  0  0  0  0  0  0  0  0  0
  -21.5240  -29.2740   22.2220 N   0  0  0  0  0  0  0  0  0  0  0  0
  -23.5270  -28.6230   23.0500 O   0  0  0  0  0  0  0  0  0  0  0  0
  -21.0480  -29.9430   21.6320 H   0  0  0  0  0  0  0  0  0  0  0  0
  -18.1070  -28.1810   22.6350 C   0  0  0  0  0  0  0  0  0  0  0  0
  -20.6800  -28.2700   22.8690 C   0  0  0  0  0  3  0  0  0  0  0  0
  -20.6950  -26.9390   22.0820 C   0  0  0  0  0  2  0  0  0  0  0  0
  -19.5560  -26.8270   21.0640 C   0  0  0  0  0  2  0  0  0  0  0  0
  -18.1990  -26.9400   21.7640 C   0  0  0  0  0  2  0  0  0  0  0  0
  -19.2730  -28.8140   23.1420 C   0  0  0  0  0  0  0  0  0  0  0  0
  -19.1330  -29.9850   23.9190 C   0  0  0  0  0  3  0  0  0  0  0  0
  -17.8600  -30.5190   24.1940 C   0  0  0  0  0  3  0  0  0  0  0  0
  -16.7090  -29.8780   23.7040 C   0  0  0  0  0  3  0  0  0  0  0  0
  -16.8330  -28.7110   22.9300 C   0  0  0  0  0  3  0  0  0  0  0  0
  -26.0980  -32.1370   24.0210 C   0  0  0  0  0  3  0  0  0  0  0  0
  -25.8350  -33.4840   24.5460 N   0  0  0  0  0  0  0  0  0  0  0  0
  -26.2110  -34.6200   23.9460 C   0  0  0  0  0  0  0  0  0  0  0  0
  -26.8880  -34.6390   22.9140 O   0  0  0  0  0  0  0  0  0  0  0  0
  -25.2350  -33.5430   25.3570 H   0  0  0  0  0  0  0  0  0  0  0  0
  -24.5460  -36.5000   23.8380 C   0  0  0  0  0  1  0  0  0  0  0  0
  -25.7650  -35.9460   24.5900 C   0  0  0  0  0  3  0  0  0  0  0  0
  -27.9170  -36.6350   25.5520 C   0  0  0  0  0  1  0  0  0  0  0  0
  -26.8340  -36.9680   24.6310 N   0  0  0  0  0  0  0  0  0  0  0  0
  -26.4560  -37.8730   24.8980 H   0  0  0  0  0  0  0  0  0  0  0  0
  -26.6050  -31.1780   25.1680 C   0  0  1  0  0  0  0  0  0  0  0  0
  -25.5160  -30.8240   26.2070 C   0  0  0  0  0  1  0  0  0  0  0  0
  -27.1420  -29.8550   24.5730 C   0  0  0  0  0  1  0  0  0  0  0  0
  -27.7870  -31.8360   25.9180 C   0  0  0  0  0  1  0  0  0  0  0  0
  -28.2730  -24.3180   24.5490 C   0  0  0  0  0  2  0  0  0  0  0  0
  -28.5260  -25.4510   25.4250 N   0  0  0  0  0  0  0  0  0  0  0  0
  -29.3160  -25.2350   26.0270 H   0  0  0  0  0  0  0  0  0  0  0  0
  -27.7480  -25.5540   26.0720 H   0  0  0  0  0  0  0  0  0  0  0  0
  -30.1960  -22.8800   23.6230 C   0  0  0  0  0  2  0  0  0  0  0  0
  -31.2220  -22.7070   22.4800 C   0  0  0  0  0  2  0  0  0  0  0  0
  -32.1780  -21.5190   22.6550 C   0  0  0  0  0  2  0  0  0  0  0  0
  -31.9700  -20.4030   21.6180 C   0  0  0  0  0  2  0  0  0  0  0  0
  -30.7750  -19.4830   21.9040 C   0  0  0  0  0  2  0  0  0  0  0  0
  -30.4890  -18.5490   20.7200 C   0  0  0  0  0  2  0  0  0  0  0  0
  -30.2190  -17.1010   21.1440 C   0  0  0  0  0  2  0  0  0  0  0  0
  -29.8150  -16.2450   19.9470 C   0  0  0  0  0  2  0  0  0  0  0  0
  -30.3470  -13.8380   19.8070 C   0  0  0  0  0  0  0  0  0  0  0  0
  -29.8420  -11.7720   18.5980 C   0  0  0  0  0  2  0  0  0  0  0  0
  -28.7570  -12.1330   17.5630 C   0  0  0  0  0  2  0  0  0  0  0  0
  -27.3470  -12.0120   18.1800 C   0  0  0  0  0  2  0  0  0  0  0  0
  -27.2200  -12.7370   19.5490 C   0  0  0  0  0  3  0  0  0  0  0  0
  -28.4110  -12.3820   20.4700 C   0  0  0  0  0  2  0  0  0  0  0  0
  -29.6590  -12.6730   19.7430 N   0  0  0  0  0  0  0  0  0  0  0  0
  -31.4190  -14.0410   19.2280 O   0  0  0  0  0  0  0  0  0  0  0  0
  -29.6360  -14.8470   20.3190 N   0  0  0  0  0  0  0  0  0  0  0  0
  -28.7650  -14.5890   20.7570 H   0  0  0  0  0  0  0  0  0  0  0  0
  -24.9490  -13.3370   20.6090 C   0  0  0  0  0  0  0  0  0  0  0  0
  -23.9280  -12.5560   21.0830 C   0  0  0  0  0  0  0  0  0  0  0  0
  -24.3560  -11.2040   20.9160 C   0  0  0  0  0  0  0  0  0  0  0  0
  -25.9380  -12.4590   20.1920 N   0  0  0  0  0  0  0  0  0  0  0  0
  -25.5900  -11.1670   20.4300 N   0  0  0  0  0  0  0  0  0  0  0  0
  -23.6420   -9.9400   21.1350 C   0  0  0  0  0  0  0  0  0  0  0  0
  -24.1690   -8.9270   21.9670 C   0  0  0  0  0  3  0  0  0  0  0  0
  -23.4530   -7.7280   22.1750 C   0  0  0  0  0  3  0  0  0  0  0  0
  -22.1980   -7.5330   21.5510 C   0  0  0  0  0  0  0  0  0  0  0  0
  -21.6910   -8.5340   20.7040 C   0  0  0  0  0  3  0  0  0  0  0  0
  -22.4080   -9.7240   20.4920 C   0  0  0  0  0  3  0  0  0  0  0  0
  -21.4420   -6.3930   21.6790 O   0  0  0  0  0  0  0  0  0  0  0  0
  -21.5220   -5.5960   22.7930 C   0  0  0  0  0  0  0  0  0  0  0  0
  -21.2110   -6.0820   24.0810 C   0  0  0  0  0  3  0  0  0  0  0  0
  -21.2400   -5.2120   25.1890 C   0  0  0  0  0  3  0  0  0  0  0  0
  -21.5680   -3.8540   25.0110 C   0  0  0  0  0  0  0  0  0  0  0  0
  -21.8710   -3.3670   23.7290 C   0  0  0  0  0  3  0  0  0  0  0  0
  -21.8460   -4.2330   22.6230 C   0  0  0  0  0  0  0  0  0  0  0  0
  -22.1200   -3.7520   21.3860 F   0  0  0  0  0  0  0  0  0  0  0  0
  -21.5860   -3.0170   26.0750 F   0  0  0  0  0  0  0  0  0  0  0  0
  -22.5890  -13.0300   21.5720 C   0  0  0  0  0  0  0  0  0  0  0  0
  -21.9650  -12.2840   22.4780 N   0  0  0  0  0  0  0  0  0  0  0  0
  -22.1110  -14.0960   21.1850 O   0  0  0  0  0  0  0  0  0  0  0  0
  -22.3640  -11.4210   22.8150 H   0  0  0  0  0  0  0  0  0  0  0  0
  -21.0730  -12.5820   22.8460 H   0  0  0  0  0  0  0  0  0  0  0  0
  -25.1090  -14.7160   20.4820 N   0  0  0  0  0  0  0  0  0  0  0  0
  -24.3740  -15.3730   20.7270 H   0  0  0  0  0  0  0  0  0  0  0  0
  -25.9020  -15.1620   20.0390 H   0  0  0  0  0  0  0  0  0  0  0  0
  1 52  1  0
  1 48  1  0
  2  4  1  0
  2  1  1  0
  3  2  1  0
  5  2  1  0
  6  5  1  0
  7  9  1  0
  7  6  1  0
  8 19  2  0
  9 14  1  0
 10 18  1  0
 10 20  1  0
 11 17  1  0
 11 13  1  0
 12 18  1  0
 13 12  1  0
 14 13  2  0
 15 16  1  0
 15  9  2  0
 16 11  2  0
 17 10  1  0
 18  8  1  0
 20 22  2  0
 21 20  1  0
 23 21  1  0
 24 33  2  0
 24 29  1  0
 25 21  1  0
 25 29  1  0
 26 25  1  0
 27 28  1  0
 27 26  1  0
 28 24  1  0
 29 30  2  0
 30 31  1  0
 32 31  2  0
 33 32  1  0
 34  8  1  0
 34 35  1  0
 34 44  1  0
 35 38  1  0
 36 35  1  0
 36 40  1  0
 37 36  2  0
 40 39  1  0
 40 42  1  0
 42 43  1  0
 42 41  1  0
 44 47  1  1
 44 45  1  0
 46 44  1  0
 48 49  1  0
 49 50  1  0
 49 51  1  0
 53 54  1  0
 53 52  1  0
 55 56  1  0
 55 54  1  0
 57 58  1  0
 57 56  1  0
 59 68  1  0
 59 58  1  0
 60 68  1  0
 61 66  1  0
 62 63  1  0
 62 61  1  0
 64 63  1  0
 64 73  1  0
 64 65  1  0
 66 60  1  0
 66 65  1  0
 67 60  2  0
 68 69  1  0
 70 71  2  0
 71 90  1  0
 72 71  1  0
 72 75  1  0
 73 74  1  0
 73 70  1  0
 74 72  2  0
 75 76  1  0
 76 77  2  0
 78 81  1  0
 78 77  1  0
 79 78  2  0
 80 79  1  0
 80 75  2  0
 81 82  1  0
 82 83  1  0
 83 84  2  0
 85 84  1  0
 85 89  1  0
 86 85  2  0
 87 82  2  0
 87 86  1  0
 88 87  1  0
 90 91  1  0
 91 93  1  0
 91 94  1  0
 92 90  2  0
 95 70  1  0
 95 96  1  0
 97 95  1  0
M  ISO  4   6 101   7 101  60 100  68 100
M  END
>  <TORSDO>  (2) 
F 29

>  <SCORE>  (2) 
-7.207

>  <name>  (2) 
1

>  <ligand_id>  (2) 
1

>  <original_smiles>  (2) 
[H]c1c([H])c([H])c2c(c1[H])C([H])([H])C([H])([H])C([H])([H])C2([H])N([H])C(=O)C1([H])N(C(=O)C([H])(N([H])C(=O)C([H])(N([H])C([H])([H])[H])C([H])([H])[H])C(C([H])([H])[H])(C([H])([H])[H])C([H])([H])[H])C([H])([H])c2c([H])c(OC([H])([H])C([H])([H])[N+]([H])([H])C([H])(C([H])([H])N([H])[H])C([H])([H])C([H])([H])C([H])([H])C([H])([H])C([H])([H])C([H])([H])C([H])([H])C([H])([H])N([H])C(=O)N3C([H])([H])C([H])([H])C([H])([H])C([H])(n4nc(-c5c([H])c([H])c(Oc6c([H])c([H])c(F)c([H])c6F)c([H])c5[H])c(C(=O)N([H])[H])c4N([H])[H])C3([H])[H])c([H])c([H])c2C1([H])[H]

>  <smiles>  (2) 
[H]c1c([H])c([H])c2c(c1[H])C([H])([H])C([H])([H])C([H])([H])C2([H])N([H])C(=O)C1([H])N(C(=O)C([H])(N([H])C(=O)C([H])(N([H])C([H])([H])[H])C([H])([H])[H])C(C([H])([H])[H])(C([H])([H])[H])C([H])([H])[H])C([H])([H])c2c([H])c(OC([H])([H])C([H])([H])[N+]([H])([H])C([H])(C([H])([H])N([H])[H])C([H])([H])C([H])([H])C([H])([H])C([H])([H])C([H])([H])C([H])([H])C([H])([H])C([H])([H])N([H])C(=O)N3C([H])([H])C([H])([H])C([H])([H])C([H])(n4nc(-c5c([H])c([H])c(Oc6c([H])c([H])c(F)c([H])c6F)c([H])c5[H])c(C(=O)N([H])[H])c4N([H])[H])C3([H])[H])c([H])c([H])c2C1([H])[H]

$$$$
2:0:0
     RDKit          3D

100108  0  0  1  0  0  0  0  0999 V2000
  -28.8200  -20.0110   22.3920 C   0  0  0  0  0  3  0  0  0  0  0  0
  -29.8080  -21.0120   22.2720 C   0  0  0  0  0  3  0  0  0  0  0  0
  -28.4640  -19.2290   21.2730 C   0  0  0  0  0  3  0  0  0  0  0  0
  -30.0310  -20.4950   19.9030 C   0  0  0  0  0  3  0  0  0  0  0  0
  -30.4220  -21.2510   21.0230 C   0  0  0  0  0  0  0  0  0  0  0  0
  -29.0940  -19.4520   20.0290 C   0  0  0  0  0  0  0  0  0  0  0  0
  -28.8630  -18.5310   18.8410 C   0  0  0  0  0  2  0  0  0  0  0  0
  -28.0910  -19.1790   17.6760 C   0  0  0  0  0  2  0  0  0  0  0  0
  -29.0060  -20.0630   16.7980 C   0  0  0  0  0  2  0  0  0  0  0  0
  -29.3920  -19.3990   15.5270 N   0  0  0  0  0  4  0  0  0  0  0  0
  -28.6450  -18.7820   15.2460 H   0  0  0  0  0  0  0  0  0  0  0  0
  -30.1890  -18.8000   15.7010 H   0  0  0  0  0  0  0  0  0  0  0  0
  -29.7060  -20.3230   14.4100 C   0  0  0  0  0  2  0  0  0  0  0  0
  -30.6120  -21.5030   14.8460 C   0  0  0  0  0  2  0  0  0  0  0  0
  -30.7780  -22.4040   13.7530 O   0  0  0  0  0  0  0  0  0  0  0  0
  -25.9400  -26.2390   17.2710 C   0  0  0  0  0  0  0  0  0  0  0  0
  -29.8480  -23.4080   13.7120 C   0  0  0  0  0  0  0  0  0  0  0  0
  -25.9760  -26.5330   14.8100 C   0  0  0  0  0  3  0  0  0  0  0  0
  -27.9720  -25.5020   13.6020 C   0  0  0  0  0  0  0  0  0  0  0  0
  -28.0880  -25.8550   16.0770 C   0  0  0  0  0  2  0  0  0  0  0  0
  -28.5300  -25.1180   14.8320 C   0  0  0  0  0  0  0  0  0  0  0  0
  -29.4700  -24.0730   14.8940 C   0  0  0  0  0  3  0  0  0  0  0  0
  -29.2890  -23.7940   12.4780 C   0  0  0  0  0  3  0  0  0  0  0  0
  -28.3480  -24.8400   12.4170 C   0  0  0  0  0  3  0  0  0  0  0  0
  -26.9770  -26.6390   13.6280 C   0  0  0  0  0  2  0  0  0  0  0  0
  -26.6460  -26.1840   16.1030 N   0  0  0  0  0  0  0  0  0  0  0  0
  -24.7630  -26.6240   17.2900 O   0  0  0  0  0  0  0  0  0  0  0  0
  -24.8520  -25.5480   14.4200 C   0  0  0  0  0  0  0  0  0  0  0  0
  -23.8390  -26.0560   13.7050 N   0  0  0  0  0  0  0  0  0  0  0  0
  -24.9180  -24.3560   14.7300 O   0  0  0  0  0  0  0  0  0  0  0  0
  -23.8630  -27.0460   13.5040 H   0  0  0  0  0  0  0  0  0  0  0  0
  -20.6800  -26.4080   11.9870 C   0  0  0  0  0  0  0  0  0  0  0  0
  -22.6910  -25.3160   13.1860 C   0  0  0  0  0  3  0  0  0  0  0  0
  -23.0180  -24.6620   11.8240 C   0  0  0  0  0  2  0  0  0  0  0  0
  -22.6240  -25.5350   10.6250 C   0  0  0  0  0  2  0  0  0  0  0  0
  -21.1210  -25.8350   10.6500 C   0  0  0  0  0  2  0  0  0  0  0  0
  -21.4250  -26.1790   13.1730 C   0  0  0  0  0  0  0  0  0  0  0  0
  -20.9870  -26.7580   14.3830 C   0  0  0  0  0  3  0  0  0  0  0  0
  -19.8270  -27.5570   14.4200 C   0  0  0  0  0  3  0  0  0  0  0  0
  -19.0830  -27.7680   13.2470 C   0  0  0  0  0  3  0  0  0  0  0  0
  -19.5070  -27.1910   12.0370 C   0  0  0  0  0  3  0  0  0  0  0  0
  -26.5880  -25.8490   18.6370 C   0  0  0  0  0  3  0  0  0  0  0  0
  -26.0100  -26.7250   19.6640 N   0  0  0  0  0  0  0  0  0  0  0  0
  -26.6810  -27.6940   20.2980 C   0  0  0  0  0  0  0  0  0  0  0  0
  -27.8850  -27.9020   20.1300 O   0  0  0  0  0  0  0  0  0  0  0  0
  -25.0140  -26.6520   19.8140 H   0  0  0  0  0  0  0  0  0  0  0  0
  -25.6550  -29.9660   20.6460 C   0  0  0  0  0  1  0  0  0  0  0  0
  -25.8870  -28.5840   21.2760 C   0  0  0  0  0  3  0  0  0  0  0  0
  -26.5540  -27.5030   23.3740 C   0  0  0  0  0  1  0  0  0  0  0  0
  -26.5380  -28.7360   22.5930 N   0  0  0  0  0  0  0  0  0  0  0  0
  -26.0670  -29.4490   23.1440 H   0  0  0  0  0  0  0  0  0  0  0  0
  -26.3860  -24.3320   19.0170 C   0  0  1  0  0  0  0  0  0  0  0  0
  -24.9060  -23.8810   18.9810 C   0  0  0  0  0  1  0  0  0  0  0  0
  -27.1840  -23.4160   18.0590 C   0  0  0  0  0  1  0  0  0  0  0  0
  -26.9330  -24.0700   20.4420 C   0  0  0  0  0  1  0  0  0  0  0  0
  -31.5480  -22.2620   20.8640 C   0  0  0  0  0  2  0  0  0  0  0  0
  -32.4580  -21.9480   19.6520 C   0  0  0  0  0  2  0  0  0  0  0  0
  -31.6990  -21.3920   18.4210 C   0  0  0  0  0  2  0  0  0  0  0  0
  -32.3810  -20.1950   17.7360 C   0  0  0  0  0  2  0  0  0  0  0  0
  -32.1350  -18.8380   18.4370 C   0  0  0  0  0  2  0  0  0  0  0  0
  -31.9120  -17.6610   17.4490 C   0  0  0  0  0  2  0  0  0  0  0  0
  -32.7580  -16.4140   17.7620 C   0  0  0  0  0  2  0  0  0  0  0  0
  -32.3240  -14.0760   18.4860 C   0  0  0  0  0  0  0  0  0  0  0  0
  -32.5800  -12.3840   20.2450 C   0  0  0  0  0  2  0  0  0  0  0  0
  -31.9220  -11.0300   19.9460 C   0  0  0  0  0  2  0  0  0  0  0  0
  -30.4540  -11.0440   20.3980 C   0  0  0  0  0  2  0  0  0  0  0  0
  -29.6780  -12.2640   19.8360 C   0  0  0  0  0  3  0  0  0  0  0  0
  -30.4480  -13.5840   20.0790 C   0  0  0  0  0  2  0  0  0  0  0  0
  -31.8240  -13.4450   19.5710 N   0  0  0  0  0  0  0  0  0  0  0  0
  -33.2330  -13.6190   17.7830 O   0  0  0  0  0  0  0  0  0  0  0  0
  -31.9850  -15.3700   18.4330 N   0  0  0  0  0  0  0  0  0  0  0  0
  -31.2880  -15.6690   19.1010 H   0  0  0  0  0  0  0  0  0  0  0  0
  -27.5970  -13.4080   20.8370 C   0  0  0  0  0  0  0  0  0  0  0  0
  -26.3560  -12.9250   21.1650 C   0  0  0  0  0  0  0  0  0  0  0  0
  -26.3870  -11.5290   20.8750 C   0  0  0  0  0  0  0  0  0  0  0  0
  -28.3190  -12.3170   20.3790 N   0  0  0  0  0  0  0  0  0  0  0  0
  -27.5930  -11.1700   20.4510 N   0  0  0  0  0  0  0  0  0  0  0  0
  -25.3200  -10.5180   20.9190 C   0  0  0  0  0  0  0  0  0  0  0  0
  -25.3760   -9.4200   21.8040 C   0  0  0  0  0  3  0  0  0  0  0  0
  -24.3270   -8.4740   21.8390 C   0  0  0  0  0  3  0  0  0  0  0  0
  -23.2080   -8.6230   20.9880 C   0  0  0  0  0  0  0  0  0  0  0  0
  -23.1690   -9.7070   20.0920 C   0  0  0  0  0  3  0  0  0  0  0  0
  -24.2150  -10.6430   20.0540 C   0  0  0  0  0  3  0  0  0  0  0  0
  -22.1570   -7.7400   20.9360 O   0  0  0  0  0  0  0  0  0  0  0  0
  -21.6360   -7.1710   22.0710 C   0  0  0  0  0  0  0  0  0  0  0  0
  -20.9170   -7.9290   23.0200 C   0  0  0  0  0  3  0  0  0  0  0  0
  -20.3370   -7.2920   24.1350 C   0  0  0  0  0  3  0  0  0  0  0  0
  -20.4730   -5.9010   24.3030 C   0  0  0  0  0  0  0  0  0  0  0  0
  -21.1850   -5.1450   23.3560 C   0  0  0  0  0  3  0  0  0  0  0  0
  -21.7630   -5.7770   22.2430 C   0  0  0  0  0  0  0  0  0  0  0  0
  -22.4310   -5.0410   21.3230 F   0  0  0  0  0  0  0  0  0  0  0  0
  -19.9100   -5.2890   25.3700 F   0  0  0  0  0  0  0  0  0  0  0  0
  -25.1770  -13.7290   21.6350 C   0  0  0  0  0  0  0  0  0  0  0  0
  -24.3350  -13.1490   22.4800 N   0  0  0  0  0  0  0  0  0  0  0  0
  -25.0280  -14.9000   21.2890 O   0  0  0  0  0  0  0  0  0  0  0  0
  -24.4670  -12.1940   22.7790 H   0  0  0  0  0  0  0  0  0  0  0  0
  -23.5430  -13.6690   22.8350 H   0  0  0  0  0  0  0  0  0  0  0  0
  -28.1610  -14.6770   20.8710 N   0  0  0  0  0  0  0  0  0  0  0  0
  -27.6400  -15.4960   21.1670 H   0  0  0  0  0  0  0  0  0  0  0  0
  -29.1050  -14.8960   20.5790 H   0  0  0  0  0  0  0  0  0  0  0  0
  2  1  1  0
  3  1  2  0
  4  6  2  0
  4  5  1  0
  5  2  2  0
  6  3  1  0
  7  6  1  0
  8  7  1  0
  9  8  1  0
 10 12  1  0
 10  9  1  0
 11 10  1  0
 13 14  1  0
 13 10  1  0
 15 14  1  0
 16 27  2  0
 17 15  1  0
 17 22  1  0
 18 28  1  0
 18 26  1  0
 19 25  1  0
 19 21  1  0
 20 26  1  0
 21 22  2  0
 21 20  1  0
 23 17  2  0
 24 23  1  0
 24 19  2  0
 25 18  1  0
 26 16  1  0
 28 30  2  0
 29 28  1  0
 31 29  1  0
 32 41  2  0
 32 37  1  0
 33 29  1  0
 34 33  1  0
 35 36  1  0
 35 34  1  0
 36 32  1  0
 37 33  1  0
 37 38  2  0
 38 39  1  0
 40 39  2  0
 41 40  1  0
 42 16  1  0
 42 52  1  0
 42 43  1  0
 43 46  1  0
 43 44  1  0
 44 48  1  0
 45 44  2  0
 48 47  1  0
 48 50  1  0
 50 51  1  0
 50 49  1  0
 52 55  1  1
 53 52  1  0
 54 52  1  0
 56  5  1  0
 57 56  1  0
 58 57  1  0
 59 58  1  0
 59 60  1  0
 61 62  1  0
 61 60  1  0
 62 71  1  0
 63 69  1  0
 65 64  1  0
 65 66  1  0
 67 68  1  0
 67 76  1  0
 67 66  1  0
 69 68  1  0
 69 64  1  0
 70 63  2  0
 71 63  1  0
 71 72  1  0
 73 98  1  0
 73 74  2  0
 74 93  1  0
 75 78  1  0
 75 74  1  0
 76 77  1  0
 76 73  1  0
 77 75  2  0
 78 79  1  0
 79 80  2  0
 81 80  1  0
 82 81  2  0
 83 82  1  0
 83 78  2  0
 84 81  1  0
 84 85  1  0
 85 90  2  0
 85 86  1  0
 86 87  2  0
 87 88  1  0
 88 92  1  0
 89 88  2  0
 90 89  1  0
 91 90  1  0
 93 94  1  0
 94 96  1  0
 94 97  1  0
 95 93  2  0
 98 99  1  0
100 98  1  0
M  ISO  4  14 101  15 101  63 100  71 100
M  END
>  <TORSDO>  (3) 
F 29

>  <SCORE>  (3) 
-3.539

>  <name>  (3) 
2

>  <ligand_id>  (3) 
2

>  <original_smiles>  (3) 
[H]c1c([H])c([H])c2c(c1[H])C([H])([H])C([H])([H])C([H])([H])C2([H])N([H])C(=O)C1([H])N(C(=O)C([H])(N([H])C(=O)C([H])(N([H])C([H])([H])[H])C([H])([H])[H])C(C([H])([H])[H])(C([H])([H])[H])C([H])([H])[H])C([H])([H])c2c([H])c(OC([H])([H])C([H])([H])[N+]([H])([H])C([H])([H])C([H])([H])C([H])([H])c3c([H])c([H])c([H])c(C([H])([H])C([H])([H])C([H])([H])C([H])([H])C([H])([H])C([H])([H])C([H])([H])N([H])C(=O)N4C([H])([H])C([H])([H])C([H])([H])C([H])(n5nc(-c6c([H])c([H])c(Oc7c([H])c([H])c(F)c([H])c7F)c([H])c6[H])c(C(=O)N([H])[H])c5N([H])[H])C4([H])[H])c3[H])c([H])c([H])c2C1([H])[H]

>  <smiles>  (3) 
[H]c1c([H])c([H])c2c(c1[H])C([H])([H])C([H])([H])C([H])([H])C2([H])N([H])C(=O)C1([H])N(C(=O)C([H])(N([H])C(=O)C([H])(N([H])C([H])([H])[H])C([H])([H])[H])C(C([H])([H])[H])(C([H])([H])[H])C([H])([H])[H])C([H])([H])c2c([H])c(OC([H])([H])C([H])([H])[N+]([H])([H])C([H])([H])C([H])([H])C([H])([H])c3c([H])c([H])c([H])c(C([H])([H])C([H])([H])C([H])([H])C([H])([H])C([H])([H])C([H])([H])C([H])([H])N([H])C(=O)N4C([H])([H])C([H])([H])C([H])([H])C([H])(n5nc(-c6c([H])c([H])c(Oc7c([H])c([H])c(F)c([H])c7F)c([H])c6[H])c(C(=O)N([H])[H])c5N([H])[H])C4([H])[H])c3[H])c([H])c([H])c2C1([H])[H]

$$$$
3:0:0
     RDKit          3D

101108  0  0  1  0  0  0  0  0999 V2000
  -18.8660  -19.2000   21.8110 C   0  0  0  0  0  2  0  0  0  0  0  0
  -20.4050  -19.3040   21.8520 C   0  0  0  0  0  2  0  0  0  0  0  0
  -20.9660  -20.7370   21.8500 C   0  0  0  0  0  2  0  0  0  0  0  0
  -22.4670  -20.7390   21.5180 C   0  0  0  0  0  2  0  0  0  0  0  0
  -23.1620  -22.0940   21.7210 C   0  0  0  0  0  2  0  0  0  0  0  0
  -24.5680  -22.1200   21.0960 C   0  0  0  0  0  2  0  0  0  0  0  0
  -25.3960  -23.3440   21.5140 C   0  0  0  0  0  2  0  0  0  0  0  0
  -26.6920  -23.4870   20.6940 C   0  0  0  0  0  2  0  0  0  0  0  0
  -27.5520  -24.6850   21.1450 C   0  0  0  0  0  2  0  0  0  0  0  0
  -28.3580  -25.3380   19.9940 C   0  0  0  0  0  2  0  0  0  0  0  0
  -28.4180  -26.7600   20.1210 O   0  0  0  0  0  0  0  0  0  0  0  0
  -24.6100  -31.8710   23.2110 C   0  0  0  0  0  0  0  0  0  0  0  0
  -27.2350  -27.4690   20.0800 C   0  0  0  0  0  0  0  0  0  0  0  0
  -23.3960  -30.4940   21.5530 C   0  0  0  0  0  3  0  0  0  0  0  0
  -24.8410  -28.9720   20.1090 C   0  0  0  0  0  0  0  0  0  0  0  0
  -25.9220  -30.8460   21.3600 C   0  0  0  0  0  2  0  0  0  0  0  0
  -25.9990  -29.4860   20.7040 C   0  0  0  0  0  0  0  0  0  0  0  0
  -27.1980  -28.7420   20.6870 C   0  0  0  0  0  3  0  0  0  0  0  0
  -26.0550  -26.9660   19.4780 C   0  0  0  0  0  3  0  0  0  0  0  0
  -24.8610  -27.7100   19.4950 C   0  0  0  0  0  3  0  0  0  0  0  0
  -23.6000  -29.8310   20.1650 C   0  0  0  0  0  2  0  0  0  0  0  0
  -24.6620  -31.0840   22.1000 N   0  0  0  0  0  0  0  0  0  0  0  0
  -23.5300  -32.1450   23.7530 O   0  0  0  0  0  0  0  0  0  0  0  0
  -22.7410  -29.4640   22.5010 C   0  0  0  0  0  0  0  0  0  0  0  0
  -21.4140  -29.3000   22.3750 N   0  0  0  0  0  0  0  0  0  0  0  0
  -23.4210  -28.8200   23.3040 O   0  0  0  0  0  0  0  0  0  0  0  0
  -20.9300  -29.8750   21.7000 H   0  0  0  0  0  0  0  0  0  0  0  0
  -18.0290  -28.1350   22.8500 C   0  0  0  0  0  0  0  0  0  0  0  0
  -20.5870  -28.3630   23.1330 C   0  0  0  0  0  3  0  0  0  0  0  0
  -20.6770  -26.9370   22.5430 C   0  0  0  0  0  2  0  0  0  0  0  0
  -19.5750  -26.6350   21.5230 C   0  0  0  0  0  2  0  0  0  0  0  0
  -18.1930  -26.7890   22.1640 C   0  0  0  0  0  2  0  0  0  0  0  0
  -19.1530  -28.8810   23.2900 C   0  0  0  0  0  0  0  0  0  0  0  0
  -18.9470  -30.1420   23.8910 C   0  0  0  0  0  3  0  0  0  0  0  0
  -17.6450  -30.6570   24.0560 C   0  0  0  0  0  3  0  0  0  0  0  0
  -16.5350  -29.9070   23.6310 C   0  0  0  0  0  3  0  0  0  0  0  0
  -16.7270  -28.6480   23.0340 C   0  0  0  0  0  3  0  0  0  0  0  0
  -25.9020  -32.4830   23.8400 C   0  0  0  0  0  3  0  0  0  0  0  0
  -25.5890  -33.8640   24.2340 N   0  0  0  0  0  0  0  0  0  0  0  0
  -25.9030  -34.9470   23.5130 C   0  0  0  0  0  0  0  0  0  0  0  0
  -26.5590  -34.8920   22.4690 O   0  0  0  0  0  0  0  0  0  0  0  0
  -25.0080  -33.9820   25.0500 H   0  0  0  0  0  0  0  0  0  0  0  0
  -24.1490  -36.7310   23.2640 C   0  0  0  0  0  1  0  0  0  0  0  0
  -25.4110  -36.3120   24.0350 C   0  0  0  0  0  3  0  0  0  0  0  0
  -27.5590  -37.1800   24.8460 C   0  0  0  0  0  1  0  0  0  0  0  0
  -26.4300  -37.3790   23.9420 N   0  0  0  0  0  0  0  0  0  0  0  0
  -26.0180  -38.2880   24.1400 H   0  0  0  0  0  0  0  0  0  0  0  0
  -26.4470  -31.6590   25.0700 C   0  0  1  0  0  0  0  0  0  0  0  0
  -25.3750  -31.3680   26.1460 C   0  0  0  0  0  1  0  0  0  0  0  0
  -27.0280  -30.3030   24.6020 C   0  0  0  0  0  1  0  0  0  0  0  0
  -27.6050  -32.4290   25.7460 C   0  0  0  0  0  1  0  0  0  0  0  0
  -18.2190  -19.6530   20.4880 C   0  0  0  0  0  2  0  0  0  0  0  0
  -18.8720  -19.0440   19.2620 C   0  0  0  0  0  3  0  0  0  0  0  0
  -19.4890  -19.7760   18.3220 C   0  0  0  0  0  3  0  0  0  0  0  0
  -20.1730  -19.2270   17.0870 C   0  0  0  0  0  2  0  0  0  0  0  0
  -21.6650  -19.6100   17.0430 C   0  0  0  0  0  2  0  0  0  0  0  0
  -22.5950  -18.5580   17.6710 C   0  0  0  0  0  2  0  0  0  0  0  0
  -24.0020  -19.1030   17.9880 C   0  0  0  0  0  2  0  0  0  0  0  0
  -25.0540  -17.9920   18.1350 C   0  0  0  0  0  2  0  0  0  0  0  0
  -26.2350  -18.3590   19.0520 C   0  0  0  0  0  2  0  0  0  0  0  0
  -27.4440  -17.4320   18.8310 C   0  0  0  0  0  2  0  0  0  0  0  0
  -28.2910  -17.1640   20.0880 C   0  0  0  0  0  2  0  0  0  0  0  0
  -29.5400  -16.3350   19.7480 C   0  0  0  0  0  2  0  0  0  0  0  0
  -30.7270  -14.4280   20.5540 C   0  0  0  0  0  0  0  0  0  0  0  0
  -30.4190  -12.2770   19.4080 C   0  0  0  0  0  2  0  0  0  0  0  0
  -29.4880  -12.4870   18.1960 C   0  0  0  0  0  2  0  0  0  0  0  0
  -28.0100  -12.3570   18.6150 C   0  0  0  0  0  2  0  0  0  0  0  0
  -27.6600  -13.1970   19.8740 C   0  0  0  0  0  3  0  0  0  0  0  0
  -28.7110  -12.9880   20.9890 C   0  0  0  0  0  2  0  0  0  0  0  0
  -30.0400  -13.2670   20.4230 N   0  0  0  0  0  0  0  0  0  0  0  0
  -31.8850  -14.5900   20.1650 O   0  0  0  0  0  0  0  0  0  0  0  0
  -29.9840  -15.4960   20.8630 N   0  0  0  0  0  0  0  0  0  0  0  0
  -30.4370  -16.0650   21.5640 H   0  0  0  0  0  0  0  0  0  0  0  0
  -25.2590  -13.8080   20.5790 C   0  0  0  0  0  0  0  0  0  0  0  0
  -24.1830  -13.0370   20.9250 C   0  0  0  0  0  0  0  0  0  0  0  0
  -24.6390  -11.6850   20.8770 C   0  0  0  0  0  0  0  0  0  0  0  0
  -26.3030  -12.9250   20.3430 N   0  0  0  0  0  0  0  0  0  0  0  0
  -25.9310  -11.6420   20.5790 N   0  0  0  0  0  0  0  0  0  0  0  0
  -23.9050  -10.4250   21.0410 C   0  0  0  0  0  0  0  0  0  0  0  0
  -24.3600   -9.4170   21.9190 C   0  0  0  0  0  3  0  0  0  0  0  0
  -23.6290   -8.2210   22.0750 C   0  0  0  0  0  3  0  0  0  0  0  0
  -22.4270   -8.0250   21.3530 C   0  0  0  0  0  0  0  0  0  0  0  0
  -21.9900   -9.0230   20.4640 C   0  0  0  0  0  3  0  0  0  0  0  0
  -22.7230  -10.2110   20.3050 C   0  0  0  0  0  3  0  0  0  0  0  0
  -21.6600   -6.8880   21.4240 O   0  0  0  0  0  0  0  0  0  0  0  0
  -21.6820   -6.0740   22.5290 C   0  0  0  0  0  0  0  0  0  0  0  0
  -21.4000   -6.5640   23.8230 C   0  0  0  0  0  3  0  0  0  0  0  0
  -21.3670   -5.6800   24.9180 C   0  0  0  0  0  3  0  0  0  0  0  0
  -21.6040   -4.3060   24.7230 C   0  0  0  0  0  0  0  0  0  0  0  0
  -21.8810   -3.8160   23.4340 C   0  0  0  0  0  3  0  0  0  0  0  0
  -21.9190   -4.6970   22.3400 C   0  0  0  0  0  0  0  0  0  0  0  0
  -22.1660   -4.2160   21.0980 F   0  0  0  0  0  0  0  0  0  0  0  0
  -21.5640   -3.4550   25.7740 F   0  0  0  0  0  0  0  0  0  0  0  0
  -22.7860  -13.5210   21.1870 C   0  0  0  0  0  0  0  0  0  0  0  0
  -22.0440  -12.8220   22.0380 N   0  0  0  0  0  0  0  0  0  0  0  0
  -22.3580  -14.5530   20.6710 O   0  0  0  0  0  0  0  0  0  0  0  0
  -22.3980  -11.9890   22.4840 H   0  0  0  0  0  0  0  0  0  0  0  0
  -21.1090  -13.1340   22.2580 H   0  0  0  0  0  0  0  0  0  0  0  0
  -25.4210  -15.1780   20.4270 N   0  0  0  0  0  0  0  0  0  0  0  0
  -24.6450  -15.8190   20.5290 H   0  0  0  0  0  0  0  0  0  0  0  0
  -26.2690  -15.6280   20.1070 H   0  0  0  0  0  0  0  0  0  0  0  0
  1  2  1  0
  3  2  1  0
  4  5  1  0
  4  3  1  0
  6  7  1  0
  6  5  1  0
  8  9  1  0
  8  7  1  0
 10 11  1  0
 10  9  1  0
 12 23  2  0
 13 11  1  0
 13 18  1  0
 14 22  1  0
 14 24  1  0
 15 21  1  0
 15 17  1  0
 16 22  1  0
 17 16  1  0
 18 17  2  0
 19 20  1  0
 19 13  2  0
 20 15  2  0
 21 14  1  0
 22 12  1  0
 24 26  2  0
 25 24  1  0
 27 25  1  0
 28 37  2  0
 28 33  1  0
 29 25  1  0
 29 33  1  0
 30 29  1  0
 31 32  1  0
 31 30  1  0
 32 28  1  0
 33 34  2  0
 34 35  1  0
 36 35  2  0
 37 36  1  0
 38 12  1  0
 38 39  1  0
 38 48  1  0
 39 42  1  0
 40 44  1  0
 40 39  1  0
 41 40  2  0
 44 43  1  0
 46 44  1  0
 46 47  1  0
 46 45  1  0
 48 51  1  1
 48 49  1  0
 50 48  1  0
 52  1  1  0
 53 52  1  0
 54 53  2  0
 55 54  1  0
 56 55  1  0
 56 57  1  0
 57 58  1  0
 58 59  1  0
 59 60  1  0
 61 60  1  0
 61 62  1  0
 63 62  1  0
 63 72  1  0
 64 72  1  0
 65 70  1  0
 66 67  1  0
 66 65  1  0
 68 67  1  0
 68 77  1  0
 68 69  1  0
 70 64  1  0
 70 69  1  0
 71 64  2  0
 72 73  1  0
 74 75  2  0
 75 94  1  0
 76 75  1  0
 76 79  1  0
 77 78  1  0
 77 74  1  0
 78 76  2  0
 79 80  1  0
 80 81  2  0
 82 85  1  0
 82 81  1  0
 83 82  2  0
 84 83  1  0
 84 79  2  0
 85 86  1  0
 86 87  1  0
 87 88  2  0
 89 88  1  0
 89 93  1  0
 90 89  2  0
 91 86  2  0
 91 90  1  0
 92 91  1  0
 94 95  1  0
 95 98  1  0
 95 97  1  0
 96 94  2  0
 99100  1  0
 99 74  1  0
101 99  1  0
M  ISO  4  10 101  11 101  64 100  72 100
M  END
>  <TORSDO>  (4) 
F 36

>  <SCORE>  (4) 
39.328

>  <name>  (4) 
3

>  <ligand_id>  (4) 
3

>  <original_smiles>  (4) 
[H]C(=C([H])C([H])([H])C([H])([H])C([H])([H])C([H])([H])C([H])([H])C([H])([H])C([H])([H])C([H])([H])C([H])([H])C([H])([H])C([H])([H])Oc1c([H])c([H])c2c(c1[H])C([H])([H])N(C(=O)C([H])(N([H])C(=O)C([H])(N([H])C([H])([H])[H])C([H])([H])[H])C(C([H])([H])[H])(C([H])([H])[H])C([H])([H])[H])C([H])(C(=O)N([H])C1([H])c3c([H])c([H])c([H])c([H])c3C([H])([H])C([H])([H])C1([H])[H])C2([H])[H])C([H])([H])C([H])([H])C([H])([H])C([H])([H])C([H])([H])C([H])([H])C([H])([H])C([H])([H])C([H])([H])N([H])C(=O)N1C([H])([H])C([H])([H])C([H])([H])C([H])(n2nc(-c3c([H])c([H])c(Oc4c([H])c([H])c(F)c([H])c4F)c([H])c3[H])c(C(=O)N([H])[H])c2N([H])[H])C1([H])[H]

>  <smiles>  (4) 
[H]C(=C([H])C([H])([H])C([H])([H])C([H])([H])C([H])([H])C([H])([H])C([H])([H])C([H])([H])C([H])([H])C([H])([H])C([H])([H])C([H])([H])Oc1c([H])c([H])c2c(c1[H])C([H])([H])N(C(=O)C([H])(N([H])C(=O)C([H])(N([H])C([H])([H])[H])C([H])([H])[H])C(C([H])([H])[H])(C([H])([H])[H])C([H])([H])[H])C([H])(C(=O)N([H])C1([H])c3c([H])c([H])c([H])c([H])c3C([H])([H])C([H])([H])C1([H])[H])C2([H])[H])C([H])([H])C([H])([H])C([H])([H])C([H])([H])C([H])([H])C([H])([H])C([H])([H])C([H])([H])C([H])([H])N([H])C(=O)N1C([H])([H])C([H])([H])C([H])([H])C([H])(n2nc(-c3c([H])c([H])c(Oc4c([H])c([H])c(F)c([H])c4F)c([H])c3[H])c(C(=O)N([H])[H])c2N([H])[H])C1([H])[H]

$$$$
4:0:0
     RDKit          3D

 98106  0  0  1  0  0  0  0  0999 V2000
  -25.5270  -19.4240   20.6560 C   0  0  0  0  0  3  0  0  0  0  0  0
  -26.0660  -20.6670   20.3120 C   0  0  0  0  0  3  0  0  0  0  0  0
  -26.4020  -18.3610   20.7780 C   0  0  0  0  0  3  0  0  0  0  0  0
  -28.3340  -19.8610   20.6520 C   0  0  0  0  0  3  0  0  0  0  0  0
  -27.4560  -20.9550   20.4680 C   0  0  0  0  0  0  0  0  0  0  0  0
  -27.8390  -18.4670   20.7030 C   0  0  0  0  0  0  0  0  0  0  0  0
  -27.6980  -22.4250   20.9480 C   0  0  0  0  0  2  0  0  0  0  0  0
  -28.3250  -23.6500   20.1770 C   0  0  0  0  0  3  0  0  0  0  0  0
  -28.6420  -23.6250   18.6630 C   0  0  0  0  0  3  0  0  0  0  0  0
  -29.0920  -24.9680   17.9690 C   0  0  0  0  0  2  0  0  0  0  0  0
  -28.7940  -24.8120   16.4610 C   0  0  0  0  0  2  0  0  0  0  0  0
  -28.2800  -25.8670   15.6690 O   0  0  0  0  0  0  0  0  0  0  0  0
  -25.9790  -28.4550   21.6940 C   0  0  0  0  0  0  0  0  0  0  0  0
  -27.2280  -26.5490   16.2080 C   0  0  0  0  0  0  0  0  0  0  0  0
  -24.2180  -28.0620   19.9940 C   0  0  0  0  0  3  0  0  0  0  0  0
  -25.0430  -27.6780   17.6160 C   0  0  0  0  0  0  0  0  0  0  0  0
  -26.5900  -28.7330   19.2900 C   0  0  0  0  0  2  0  0  0  0  0  0
  -26.3690  -27.9300   18.0310 C   0  0  0  0  0  0  0  0  0  0  0  0
  -27.4550  -27.3660   17.3250 C   0  0  0  0  0  3  0  0  0  0  0  0
  -25.9040  -26.4050   15.7370 C   0  0  0  0  0  3  0  0  0  0  0  0
  -24.8150  -26.9270   16.4500 C   0  0  0  0  0  3  0  0  0  0  0  0
  -23.9290  -28.2120   18.4640 C   0  0  0  0  0  2  0  0  0  0  0  0
  -25.6310  -28.3810   20.3740 N   0  0  0  0  0  0  0  0  0  0  0  0
  -25.1440  -28.3230   22.5870 O   0  0  0  0  0  0  0  0  0  0  0  0
  -23.8110  -26.6340   20.4300 C   0  0  0  0  0  0  0  0  0  0  0  0
  -22.5820  -26.2610   20.0410 N   0  0  0  0  0  0  0  0  0  0  0  0
  -24.6340  -25.8920   20.9880 O   0  0  0  0  0  0  0  0  0  0  0  0
  -21.9590  -26.9740   19.6650 H   0  0  0  0  0  0  0  0  0  0  0  0
  -20.2510  -23.9830   18.5350 C   0  0  0  0  0  0  0  0  0  0  0  0
  -22.0200  -24.9010   20.1580 C   0  0  0  0  0  3  0  0  0  0  0  0
  -22.9860  -23.8490   19.4920 C   0  0  0  0  0  2  0  0  0  0  0  0
  -22.7610  -23.5530   17.9920 C   0  0  0  0  0  2  0  0  0  0  0  0
  -21.2700  -22.9800   17.8980 C   0  0  0  0  0  2  0  0  0  0  0  0
  -20.6160  -24.8850   19.5740 C   0  0  0  0  0  0  0  0  0  0  0  0
  -19.6680  -25.7910   20.0240 C   0  0  0  0  0  3  0  0  0  0  0  0
  -18.3360  -25.8290   19.5150 C   0  0  0  0  0  3  0  0  0  0  0  0
  -17.9570  -24.9180   18.5290 C   0  0  0  0  0  3  0  0  0  0  0  0
  -18.9350  -24.0420   18.0440 C   0  0  0  0  0  3  0  0  0  0  0  0
  -27.4470  -28.7600   22.1540 C   0  0  0  0  0  3  0  0  0  0  0  0
  -28.3240  -27.4570   22.2250 C   0  0  1  0  0  0  0  0  0  0  0  0
  -27.6520  -26.2960   23.0010 C   0  0  0  0  0  1  0  0  0  0  0  0
  -28.6590  -26.9510   20.8020 C   0  0  0  0  0  1  0  0  0  0  0  0
  -29.6760  -27.7840   22.9180 C   0  0  0  0  0  1  0  0  0  0  0  0
  -27.3870  -29.4210   23.4620 N   0  0  0  0  0  0  0  0  0  0  0  0
  -27.6110  -30.7270   23.6530 C   0  0  0  0  0  0  0  0  0  0  0  0
  -28.0050  -31.4790   22.7540 O   0  0  0  0  0  0  0  0  0  0  0  0
  -26.9640  -28.8890   24.2090 H   0  0  0  0  0  0  0  0  0  0  0  0
  -26.0990  -32.1080   25.1080 C   0  0  0  0  0  1  0  0  0  0  0  0
  -27.3970  -31.2860   25.0740 C   0  0  0  0  0  3  0  0  0  0  0  0
  -29.7350  -31.3290   25.8110 C   0  0  0  0  0  1  0  0  0  0  0  0
  -28.5260  -32.1110   25.5610 N   0  0  0  0  0  0  0  0  0  0  0  0
  -28.2830  -32.5940   26.4210 H   0  0  0  0  0  0  0  0  0  0  0  0
  -28.6930  -17.1070   20.7650 C   0  0  0  0  0  2  0  0  0  0  0  0
  -29.4780  -16.4650   19.4970 C   0  0  0  0  0  0  0  0  0  0  0  0
  -31.3580  -14.1850   19.7940 C   0  0  0  0  0  0  0  0  0  0  0  0
  -31.4340  -11.6410   19.5550 C   0  0  0  0  0  2  0  0  0  0  0  0
  -30.4860  -11.1960   18.4150 C   0  0  0  0  0  2  0  0  0  0  0  0
  -29.0100  -11.1880   18.9050 C   0  0  0  0  0  2  0  0  0  0  0  0
  -28.6690  -12.4670   19.7190 C   0  0  0  0  0  3  0  0  0  0  0  0
  -29.7270  -12.6730   20.8400 C   0  0  0  0  0  2  0  0  0  0  0  0
  -30.9640  -12.9120   20.1330 N   0  0  0  0  0  0  0  0  0  0  0  0
  -32.5550  -14.3380   19.4160 O   0  0  0  0  0  0  0  0  0  0  0  0
  -30.2430  -15.0690   19.7130 N   0  0  0  0  0  4  0  0  0  0  0  0
  -29.4430  -14.4910   20.0630 H   0  0  0  0  0  0  0  0  0  0  0  0
  -26.4470  -13.5450   20.4230 C   0  0  0  0  0  0  0  0  0  0  0  0
  -25.2860  -12.9970   20.8880 C   0  0  0  0  0  0  0  0  0  0  0  0
  -25.4970  -11.5860   20.9050 C   0  0  0  0  0  0  0  0  0  0  0  0
  -27.3090  -12.4750   20.2280 N   0  0  0  0  0  0  0  0  0  0  0  0
  -26.7460  -11.3000   20.5800 N   0  0  0  0  0  0  0  0  0  0  0  0
  -24.5750  -10.4790   21.1300 C   0  0  0  0  0  0  0  0  0  0  0  0
  -24.7900   -9.5320   22.1540 C   0  0  0  0  0  3  0  0  0  0  0  0
  -23.8710   -8.4810   22.3560 C   0  0  0  0  0  3  0  0  0  0  0  0
  -22.7270   -8.3730   21.5270 C   0  0  0  0  0  0  0  0  0  0  0  0
  -22.5370   -9.3030   20.4870 C   0  0  0  0  0  3  0  0  0  0  0  0
  -23.4580  -10.3420   20.2860 C   0  0  0  0  0  3  0  0  0  0  0  0
  -21.7930   -7.3710   21.6350 O   0  0  0  0  0  0  0  0  0  0  0  0
  -21.4610   -6.8350   22.8510 C   0  0  0  0  0  0  0  0  0  0  0  0
  -20.9550   -7.6320   23.9020 C   0  0  0  0  0  3  0  0  0  0  0  0
  -20.5600   -7.0290   25.1110 C   0  0  0  0  0  3  0  0  0  0  0  0
  -20.6610   -5.6340   25.2690 C   0  0  0  0  0  0  0  0  0  0  0  0
  -21.1610   -4.8400   24.2220 C   0  0  0  0  0  3  0  0  0  0  0  0
  -21.5590   -5.4390   23.0160 C   0  0  0  0  0  0  0  0  0  0  0  0
  -22.0210   -4.6700   22.0000 F   0  0  0  0  0  0  0  0  0  0  0  0
  -20.2730   -5.0520   26.4280 F   0  0  0  0  0  0  0  0  0  0  0  0
  -24.0080  -13.7270   21.1800 C   0  0  0  0  0  0  0  0  0  0  0  0
  -23.2190  -13.2180   22.1160 N   0  0  0  0  0  0  0  0  0  0  0  0
  -23.7310  -14.7810   20.6060 O   0  0  0  0  0  0  0  0  0  0  0  0
  -23.4470  -12.3610   22.5990 H   0  0  0  0  0  0  0  0  0  0  0  0
  -22.3730  -13.7050   22.3620 H   0  0  0  0  0  0  0  0  0  0  0  0
  -26.8270  -14.8480   20.1210 N   0  0  0  0  0  0  0  0  0  0  0  0
  -26.0860  -15.5370   20.1140 H   0  0  0  0  0  0  0  0  0  0  0  0
  -27.3800  -14.9910   19.2810 H   0  0  0  0  0  0  0  0  0  0  0  0
  -29.5520  -17.4700   18.2250 C   0  0  0  0  0  2  0  0  0  0  0  0
  -28.2380  -18.2360   17.8290 C   0  0  0  0  0  0  0  0  0  0  0  0
  -27.1830  -17.6120   17.7290 O   0  0  0  0  0  0  0  0  0  0  0  0
  -28.2480  -19.7490   17.5480 C   0  0  0  0  0  3  0  0  0  0  0  0
  -26.9440  -21.9610   16.9210 C   0  0  0  0  0  1  0  0  0  0  0  0
  -26.9290  -20.4020   17.0570 C   0  0  0  0  0  3  0  0  0  0  0  0
  1  3  1  0
  2  5  1  0
  2  1  2  0
  4  6  1  0
  5  4  2  0
  5  7  1  0
  6 53  1  0
  6  3  2  0
  8  7  1  0
  9  8  2  0
 10  9  1  0
 11 10  1  0
 12 14  1  0
 12 11  1  0
 13 24  2  0
 14 19  1  0
 15 23  1  0
 15 25  1  0
 16 18  1  0
 16 22  1  0
 17 23  1  0
 18 17  1  0
 19 18  2  0
 20 14  2  0
 20 21  1  0
 21 16  2  0
 22 15  1  0
 23 13  1  0
 25 27  2  0
 26 25  1  0
 28 26  1  0
 29 34  1  0
 30 26  1  0
 31 30  1  0
 32 31  1  0
 33 32  1  0
 33 29  1  0
 34 35  2  0
 34 30  1  0
 36 35  1  0
 37 36  2  0
 38 37  1  0
 38 29  2  0
 39 13  1  0
 39 40  1  0
 39 44  1  0
 40 43  1  1
 40 41  1  0
 42 40  1  0
 44 45  1  0
 44 47  1  0
 45 49  1  0
 46 45  2  0
 49 48  1  0
 49 51  1  0
 51 50  1  0
 51 52  1  0
 54 63  2  0
 54 53  1  0
 55 61  1  0
 56 61  1  0
 57 58  1  0
 57 56  1  0
 59 58  1  0
 59 68  1  0
 59 60  1  0
 61 60  1  0
 62 55  2  0
 63 55  1  0
 63 64  1  0
 65 66  2  0
 66 67  1  0
 66 85  1  0
 67 70  1  0
 68 65  1  0
 68 69  1  0
 69 67  2  0
 70 71  1  0
 71 72  2  0
 73 76  1  0
 73 72  1  0
 74 73  2  0
 75 74  1  0
 75 70  2  0
 76 77  1  0
 77 82  2  0
 77 78  1  0
 78 79  2  0
 79 80  1  0
 80 84  1  0
 81 80  2  0
 82 81  1  0
 83 82  1  0
 85 86  1  0
 86 89  1  0
 86 88  1  0
 87 85  2  0
 90 65  1  0
 91 90  1  0
 92 90  1  0
 93 54  1  0
 94 93  1  0
 95 94  2  0
 96 94  1  0
 97 98  1  0
 98 96  2  0
M  ISO  4  11 101  12 101  55 100  63 100
M  END
>  <TORSDO>  (5) 
F 27

>  <SCORE>  (5) 
0.748

>  <name>  (5) 
4

>  <ligand_id>  (5) 
4

>  <original_smiles>  (5) 
[H]c1c([H])c([H])c2c(c1[H])C([H])([H])C([H])([H])C([H])([H])C2([H])N([H])C(=O)C1([H])N(C(=O)C([H])(N([H])C(=O)C([H])(N([H])C([H])([H])[H])C([H])([H])[H])C(C([H])([H])[H])(C([H])([H])[H])C([H])([H])[H])C([H])([H])c2c([H])c(OC([H])([H])C([H])([H])C([H])([H])C([H])([H])C([H])([H])c3c([H])c([H])c([H])c(C([H])([H])C([H])(N([H])C(=O)N4C([H])([H])C([H])([H])C([H])([H])C([H])(n5nc(-c6c([H])c([H])c(Oc7c([H])c([H])c(F)c([H])c7F)c([H])c6[H])c(C(=O)N([H])[H])c5N([H])[H])C4([H])[H])C([H])([H])C(=O)C([H])([H])C([H])([H])C([H])([H])[H])c3[H])c([H])c([H])c2C1([H])[H]

>  <smiles>  (5) 
[H]c1c([H])c([H])c2c(c1[H])C([H])([H])C([H])([H])C([H])([H])C2([H])N([H])C(=O)C1([H])N(C(=O)C([H])(N([H])C(=O)C([H])(N([H])C([H])([H])[H])C([H])([H])[H])C(C([H])([H])[H])(C([H])([H])[H])C([H])([H])[H])C([H])([H])c2c([H])c(OC([H])([H])C([H])([H])C([H])([H])C([H])([H])C([H])([H])c3c([H])c([H])c([H])c(C([H])([H])C([H])(N([H])C(=O)N4C([H])([H])C([H])([H])C([H])([H])C([H])(n5nc(-c6c([H])c([H])c(Oc7c([H])c([H])c(F)c([H])c7F)c([H])c6[H])c(C(=O)N([H])[H])c5N([H])[H])C4([H])[H])C([H])([H])C(=O)C([H])([H])C([H])([H])C([H])([H])[H])c3[H])c([H])c([H])c2C1([H])[H]

$$$$
5:0:0
     RDKit          3D

100109  0  0  1  0  0  0  0  0999 V2000
  -27.0330  -26.2020   17.1990 C   0  0  0  0  0  3  0  0  0  0  0  0
  -25.6790  -27.3010   16.8800 C   0  0  0  0  0  2  0  0  0  0  0  0
  -24.6720  -30.4490   19.3090 C   0  0  0  0  0  3  0  0  0  0  0  0
  -25.4510  -29.6680   18.3800 C   0  0  0  0  0  3  0  0  0  0  0  0
  -23.4300  -29.9470   19.8720 C   0  0  0  0  0  3  0  0  0  0  0  0
  -23.4190  -28.5890   18.1670 C   0  0  0  0  0  3  0  0  0  0  0  0
  -24.8660  -28.5200   17.7780 C   0  0  0  0  0  0  0  0  0  0  0  0
  -23.0520  -28.5470   19.6840 C   0  0  0  0  0  0  0  0  0  0  0  0
  -23.2890  -26.2620   21.3420 C   0  0  0  0  0  1  0  0  0  0  0  0
  -24.3180  -24.9940   20.9170 O   0  0  0  0  0  0  0  0  0  0  0  0
  -24.3930  -28.9420   23.4500 C   0  0  0  0  0  0  0  0  0  0  0  0
  -24.6860  -24.6170   19.6480 C   0  0  0  0  0  3  0  0  0  0  0  0
  -22.4330  -28.5210   21.7140 C   0  0  0  0  0  3  0  0  0  0  0  0
  -23.1480  -26.5440   19.1620 C   0  0  0  0  0  3  0  0  0  0  0  0
  -25.4630  -27.7830   21.1040 C   0  0  0  0  0  1  0  0  0  0  0  0
  -24.8850  -26.7210   19.5220 C   0  0  0  0  0  2  0  0  0  0  0  0
  -25.6010  -25.5910   19.3580 C   0  0  0  0  0  2  0  0  0  0  0  0
  -23.5060  -24.4070   18.9140 C   0  0  0  0  0  2  0  0  0  0  0  0
  -22.6280  -25.4310   18.6610 C   0  0  0  0  0  2  0  0  0  0  0  0
  -21.8420  -27.5220   20.1710 C   0  0  0  0  0  3  0  0  0  0  0  0
  -24.1760  -28.6140   22.1340 N   0  0  0  0  0  0  0  0  0  0  0  0
  -23.5100  -29.4370   24.1710 O   0  0  0  0  0  0  0  0  0  0  0  0
  -21.4750  -27.9110   22.7520 C   0  0  0  0  0  0  0  0  0  0  0  0
  -20.1800  -28.1400   22.5480 N   0  0  0  0  0  0  0  0  0  0  0  0
  -21.8630  -27.0590   23.5520 O   0  0  0  0  0  0  0  0  0  0  0  0
  -19.9020  -28.8280   21.8590 H   0  0  0  0  0  0  0  0  0  0  0  0
  -16.6370  -27.8400   22.7020 C   0  0  0  0  0  0  0  0  0  0  0  0
  -19.1160  -27.3700   23.1680 C   0  0  0  0  0  3  0  0  0  0  0  0
  -18.9050  -26.0240   22.4360 C   0  0  0  0  0  2  0  0  0  0  0  0
  -17.8670  -26.1100   21.3140 C   0  0  0  0  0  2  0  0  0  0  0  0
  -16.5180  -26.5650   21.8810 C   0  0  0  0  0  2  0  0  0  0  0  0
  -17.8640  -28.2200   23.2940 C   0  0  0  0  0  0  0  0  0  0  0  0
  -17.9510  -29.4290   24.0170 C   0  0  0  0  0  3  0  0  0  0  0  0
  -16.8260  -30.2590   24.1540 C   0  0  0  0  0  3  0  0  0  0  0  0
  -15.6000  -29.8710   23.5880 C   0  0  0  0  0  3  0  0  0  0  0  0
  -15.5050  -28.6620   22.8710 C   0  0  0  0  0  3  0  0  0  0  0  0
  -25.7880  -28.7240   24.1040 C   0  0  0  0  0  3  0  0  0  0  0  0
  -26.1740  -30.0140   24.6980 N   0  0  0  0  0  0  0  0  0  0  0  0
  -27.0160  -30.8870   24.1380 C   0  0  0  0  0  0  0  0  0  0  0  0
  -27.5980  -30.6570   23.0760 O   0  0  0  0  0  0  0  0  0  0  0  0
  -25.6990  -30.2810   25.5490 H   0  0  0  0  0  0  0  0  0  0  0  0
  -26.4490  -33.3400   24.1920 C   0  0  0  0  0  1  0  0  0  0  0  0
  -27.2490  -32.2200   24.8750 C   0  0  0  0  0  3  0  0  0  0  0  0
  -29.4620  -31.7370   25.8190 C   0  0  0  0  0  1  0  0  0  0  0  0
  -28.6730  -32.6070   24.9520 N   0  0  0  0  0  0  0  0  0  0  0  0
  -28.7680  -33.5590   25.2940 H   0  0  0  0  0  0  0  0  0  0  0  0
  -25.8530  -27.5980   25.2190 C   0  0  1  0  0  0  0  0  0  0  0  0
  -24.7810  -27.7410   26.3250 C   0  0  0  0  0  1  0  0  0  0  0  0
  -25.7280  -26.1710   24.6430 C   0  0  0  0  0  1  0  0  0  0  0  0
  -27.2460  -27.6340   25.8920 C   0  0  0  0  0  1  0  0  0  0  0  0
  -27.1090  -24.4910   17.6300 C   0  0  0  0  0  3  0  0  0  0  0  0
  -28.3540  -23.4710   17.6920 N   0  0  0  0  0  4  0  0  0  0  0  0
  -28.5130  -23.2230   16.7290 H   0  0  0  0  0  0  0  0  0  0  0  0
  -29.1600  -24.0070   17.9660 H   0  0  0  0  0  0  0  0  0  0  0  0
  -30.7140  -14.7160   20.1700 C   0  0  0  0  0  0  0  0  0  0  0  0
  -30.5110  -12.3130   19.3870 C   0  0  0  0  0  2  0  0  0  0  0  0
  -29.5430  -12.1840   18.1960 C   0  0  0  0  0  2  0  0  0  0  0  0
  -28.1090  -11.9670   18.7070 C   0  0  0  0  0  2  0  0  0  0  0  0
  -27.7260  -12.9380   19.8550 C   0  0  0  0  0  3  0  0  0  0  0  0
  -28.8340  -13.0660   20.9190 C   0  0  0  0  0  2  0  0  0  0  0  0
  -30.0390  -13.4840   20.1830 N   0  0  0  0  0  0  0  0  0  0  0  0
  -31.9440  -14.6030   20.1130 O   0  0  0  0  0  0  0  0  0  0  0  0
  -29.3440  -22.0000   19.7540 C   0  0  0  0  0  2  0  0  0  0  0  0
  -29.4590  -20.4900   20.2510 C   0  0  0  0  0  2  0  0  0  0  0  0
  -28.4640  -18.1460   19.3570 C   0  0  0  0  0  2  0  0  0  0  0  0
  -30.7640  -18.5980   18.8910 C   0  0  0  0  0  2  0  0  0  0  0  0
  -28.9260  -20.5970   17.9470 C   0  0  0  0  0  2  0  0  0  0  0  0
  -28.9720  -16.8240   20.2160 C   0  0  0  0  0  2  0  0  0  0  0  0
  -30.8560  -16.9580   18.7830 C   0  0  0  0  0  2  0  0  0  0  0  0
  -28.4030  -22.0690   18.5220 C   0  0  0  0  0  3  0  0  0  0  0  0
  -29.3920  -19.4370   19.0760 C   0  0  2  0  0  0  0  0  0  0  0  0
  -30.1380  -15.9870   19.7220 N   0  0  0  0  0  0  0  0  0  0  0  0
  -25.3790  -13.5060   20.6940 C   0  0  0  0  0  0  0  0  0  0  0  0
  -24.3270  -12.7250   21.0780 C   0  0  0  0  0  0  0  0  0  0  0  0
  -24.7930  -11.3760   21.0280 C   0  0  0  0  0  0  0  0  0  0  0  0
  -26.4170  -12.6310   20.4210 N   0  0  0  0  0  0  0  0  0  0  0  0
  -26.0780  -11.3450   20.6960 N   0  0  0  0  0  0  0  0  0  0  0  0
  -24.0690  -10.1120   21.2170 C   0  0  0  0  0  0  0  0  0  0  0  0
  -24.5060   -9.1440   22.1490 C   0  0  0  0  0  3  0  0  0  0  0  0
  -23.7820   -7.9470   22.3300 C   0  0  0  0  0  3  0  0  0  0  0  0
  -22.6060   -7.7080   21.5790 C   0  0  0  0  0  0  0  0  0  0  0  0
  -22.1880   -8.6620   20.6350 C   0  0  0  0  0  3  0  0  0  0  0  0
  -22.9120   -9.8520   20.4520 C   0  0  0  0  0  3  0  0  0  0  0  0
  -21.8530   -6.5630   21.6720 O   0  0  0  0  0  0  0  0  0  0  0  0
  -21.7740   -5.8440   22.8380 C   0  0  0  0  0  0  0  0  0  0  0  0
  -21.2700   -6.4120   24.0290 C   0  0  0  0  0  3  0  0  0  0  0  0
  -21.1400   -5.6180   25.1870 C   0  0  0  0  0  3  0  0  0  0  0  0
  -21.5050   -4.2590   25.1540 C   0  0  0  0  0  0  0  0  0  0  0  0
  -22.0020   -3.6920   23.9670 C   0  0  0  0  0  3  0  0  0  0  0  0
  -22.1320   -4.4820   22.8130 C   0  0  0  0  0  0  0  0  0  0  0  0
  -22.5920   -3.9260   21.6650 F   0  0  0  0  0  0  0  0  0  0  0  0
  -21.3730   -3.4940   26.2630 F   0  0  0  0  0  0  0  0  0  0  0  0
  -22.9350  -13.1990   21.3740 C   0  0  0  0  0  0  0  0  0  0  0  0
  -22.2260  -12.4970   22.2510 N   0  0  0  0  0  0  0  0  0  0  0  0
  -22.4830  -14.2250   20.8630 O   0  0  0  0  0  0  0  0  0  0  0  0
  -22.6070  -11.6690   22.6850 H   0  0  0  0  0  0  0  0  0  0  0  0
  -21.2920  -12.7940   22.4960 H   0  0  0  0  0  0  0  0  0  0  0  0
  -25.5320  -14.8780   20.5190 N   0  0  0  0  0  0  0  0  0  0  0  0
  -24.7660  -15.5250   20.6610 H   0  0  0  0  0  0  0  0  0  0  0  0
  -26.3690  -15.3240   20.1670 H   0  0  0  0  0  0  0  0  0  0  0  0
  1 51  2  0
  2  1  1  0
  2  7  1  0
  3  5  1  0
  4  3  2  0
  6  8  1  0
  7  6  2  0
  7  4  1  0
  8  5  2  0
  8 20  1  0
 10  9  1  0
 11 22  2  0
 12 10  1  0
 13 21  1  0
 13 23  1  0
 14 16  1  0
 14 20  1  0
 15 21  1  0
 17 16  1  0
 17 12  1  0
 18 12  1  0
 19 18  1  0
 19 14  1  0
 20 13  1  0
 21 11  1  0
 23 25  2  0
 24 23  1  0
 26 24  1  0
 27 36  2  0
 27 32  1  0
 28 24  1  0
 28 32  1  0
 29 28  1  0
 30 31  1  0
 30 29  1  0
 31 27  1  0
 32 33  2  0
 33 34  1  0
 35 34  2  0
 36 35  1  0
 37 11  1  0
 37 38  1  0
 37 47  1  0
 38 41  1  0
 39 38  1  0
 39 43  1  0
 40 39  2  0
 43 42  1  0
 43 45  1  0
 45 46  1  0
 45 44  1  0
 47 50  1  1
 47 48  1  0
 49 47  1  0
 51 52  1  0
 52 54  1  0
 53 52  1  0
 55 61  1  0
 56 61  1  0
 57 58  1  0
 57 56  1  0
 59 58  1  0
 59 76  1  0
 59 60  1  0
 61 60  1  0
 62 55  2  0
 63 64  1  0
 65 68  1  0
 71 66  1  6
 67 70  1  0
 69 66  1  0
 69 72  1  0
 70 52  1  0
 70 63  1  0
 71 67  1  0
 71 65  1  0
 71 64  1  0
 72 55  1  0
 72 68  1  0
 73 74  2  0
 74 93  1  0
 75 74  1  0
 75 78  1  0
 76 73  1  0
 76 77  1  0
 77 75  2  0
 78 79  1  0
 79 80  2  0
 81 84  1  0
 81 80  1  0
 82 81  2  0
 83 82  1  0
 83 78  2  0
 84 85  1  0
 85 86  1  0
 86 87  2  0
 88 87  1  0
 88 92  1  0
 89 88  2  0
 90 85  2  0
 90 89  1  0
 91 90  1  0
 93 94  1  0
 94 97  1  0
 94 96  1  0
 95 93  2  0
 98 99  1  0
 98 73  1  0
100 98  1  0
M  ISO  4   9 101  10 101  55 100  72 100
M  END
>  <TORSDO>  (6) 
F 21

>  <SCORE>  (6) 
-13.203

>  <name>  (6) 
5

>  <ligand_id>  (6) 
5

>  <original_smiles>  (6) 
[H]c1c([H])c([H])c2c(c1[H])C([H])([H])C([H])([H])C([H])([H])C2([H])N([H])C(=O)C1([H])N(C(=O)C([H])(N([H])C(=O)C([H])(N([H])C([H])([H])[H])C([H])([H])[H])C(C([H])([H])[H])(C([H])([H])[H])C([H])([H])[H])C([H])([H])c2c([H])c(OC([H])([H])c3c([H])c([H])c([H])c(C([H])([H])C([H])([H])C([H])([H])[N+]([H])([H])C4([H])C([H])([H])C([H])([H])C5(C([H])([H])C([H])([H])N(C(=O)N6C([H])([H])C([H])([H])C([H])([H])C([H])(n7nc(-c8c([H])c([H])c(Oc9c([H])c([H])c(F)c([H])c9F)c([H])c8[H])c(C(=O)N([H])[H])c7N([H])[H])C6([H])[H])C([H])([H])C5([H])[H])C4([H])[H])c3[H])c([H])c([H])c2C1([H])[H]

>  <smiles>  (6) 
[H]c1c([H])c([H])c2c(c1[H])C([H])([H])C([H])([H])C([H])([H])C2([H])N([H])C(=O)C1([H])N(C(=O)C([H])(N([H])C(=O)C([H])(N([H])C([H])([H])[H])C([H])([H])[H])C(C([H])([H])[H])(C([H])([H])[H])C([H])([H])[H])C([H])([H])c2c([H])c(OC([H])([H])c3c([H])c([H])c([H])c(C([H])([H])C([H])([H])C([H])([H])[N+]([H])([H])C4([H])C([H])([H])C([H])([H])C5(C([H])([H])C([H])([H])N(C(=O)N6C([H])([H])C([H])([H])C([H])([H])C([H])(n7nc(-c8c([H])c([H])c(Oc9c([H])c([H])c(F)c([H])c9F)c([H])c8[H])c(C(=O)N([H])[H])c7N([H])[H])C6([H])[H])C([H])([H])C5([H])[H])C4([H])[H])c3[H])c([H])c([H])c2C1([H])[H]

$$$$
6:0:0
     RDKit          3D

107118  0  0  1  0  0  0  0  0999 V2000
  -20.6800  -25.7160   19.5800 C   0  0  0  0  0  3  0  0  0  0  0  0
  -21.7320  -24.5950   19.4960 C   0  0  0  0  0  3  0  0  0  0  0  0
  -20.8650  -25.0460   17.2790 C   0  0  0  0  0  2  0  0  0  0  0  0
  -20.4790  -26.2460   18.1490 C   0  0  0  0  0  3  0  0  0  0  0  0
  -22.0510  -24.3760   18.0050 C   0  0  0  0  0  3  0  0  0  0  0  0
  -23.3880  -24.9320   17.6670 N   0  0  0  0  0  4  0  0  0  0  0  0
  -23.2360  -25.8750   17.3410 H   0  0  0  0  0  0  0  0  0  0  0  0
  -23.8010  -24.4240   16.9020 H   0  0  0  0  0  0  0  0  0  0  0  0
  -24.3690  -25.0150   18.7690 C   0  0  0  0  0  2  0  0  0  0  0  0
  -25.6650  -25.7150   18.3170 C   0  0  0  0  0  2  0  0  0  0  0  0
  -26.9210  -24.9740   18.7880 C   0  0  0  0  0  2  0  0  0  0  0  0
  -26.8960  -24.6520   20.2880 C   0  0  0  0  0  2  0  0  0  0  0  0
  -27.3720  -23.2210   20.5520 C   0  0  0  0  0  2  0  0  0  0  0  0
  -28.0780  -23.0540   21.9090 C   0  0  0  0  0  2  0  0  0  0  0  0
  -29.3130  -23.9590   22.0470 C   0  0  0  0  0  2  0  0  0  0  0  0
  -29.2890  -24.8750   23.2850 C   0  0  0  0  0  2  0  0  0  0  0  0
  -30.6310  -24.8730   24.0320 C   0  0  0  0  0  2  0  0  0  0  0  0
  -31.4450  -23.5920   23.8240 C   0  0  0  0  0  2  0  0  0  0  0  0
  -33.8210  -22.8660   23.9370 C   0  0  0  0  0  0  0  0  0  0  0  0
  -35.8730  -22.4220   22.6680 C   0  0  0  0  0  2  0  0  0  0  0  0
  -37.0690  -21.9450   23.5010 C   0  0  0  0  0  2  0  0  0  0  0  0
  -37.8600  -23.1510   24.0280 C   0  0  0  0  0  2  0  0  0  0  0  0
  -36.9530  -24.1770   24.7550 C   0  0  0  0  0  3  0  0  0  0  0  0
  -35.7040  -24.5330   23.9120 C   0  0  0  0  0  2  0  0  0  0  0  0
  -35.0250  -23.2920   23.4920 N   0  0  0  0  0  0  0  0  0  0  0  0
  -33.5100  -21.6740   24.0320 O   0  0  0  0  0  0  0  0  0  0  0  0
  -32.8890  -23.8250   23.9360 N   0  0  0  0  0  0  0  0  0  0  0  0
  -33.2190  -24.7640   23.7640 H   0  0  0  0  0  0  0  0  0  0  0  0
  -37.8880  -25.9380   26.3860 C   0  0  0  0  0  0  0  0  0  0  0  0
  -38.7500  -26.9880   26.2070 C   0  0  0  0  0  0  0  0  0  0  0  0
  -39.0790  -26.9940   24.8170 C   0  0  0  0  0  0  0  0  0  0  0  0
  -37.7140  -25.3680   25.1340 N   0  0  0  0  0  0  0  0  0  0  0  0
  -38.4040  -26.0460   24.1800 N   0  0  0  0  0  0  0  0  0  0  0  0
  -40.0420  -27.8130   24.0660 C   0  0  0  0  0  0  0  0  0  0  0  0
  -39.6140  -28.7900   23.1400 C   0  0  0  0  0  3  0  0  0  0  0  0
  -40.5570  -29.5780   22.4440 C   0  0  0  0  0  3  0  0  0  0  0  0
  -41.9410  -29.3960   22.6730 C   0  0  0  0  0  0  0  0  0  0  0  0
  -42.3620  -28.4060   23.5790 C   0  0  0  0  0  3  0  0  0  0  0  0
  -41.4230  -27.6200   24.2670 C   0  0  0  0  0  3  0  0  0  0  0  0
  -42.9290  -30.0970   22.0230 O   0  0  0  0  0  0  0  0  0  0  0  0
  -42.8570  -31.4570   21.8590 C   0  0  0  0  0  0  0  0  0  0  0  0
  -42.8140  -32.3390   22.9600 C   0  0  0  0  0  3  0  0  0  0  0  0
  -42.8110  -33.7320   22.7460 C   0  0  0  0  0  3  0  0  0  0  0  0
  -42.8600  -34.2450   21.4370 C   0  0  0  0  0  0  0  0  0  0  0  0
  -42.9080  -33.3670   20.3390 C   0  0  0  0  0  3  0  0  0  0  0  0
  -42.9100  -31.9770   20.5500 C   0  0  0  0  0  0  0  0  0  0  0  0
  -42.9770  -31.1370   19.4890 F   0  0  0  0  0  0  0  0  0  0  0  0
  -42.8650  -35.5830   21.2300 F   0  0  0  0  0  0  0  0  0  0  0  0
  -39.3100  -27.8780   27.2780 C   0  0  0  0  0  0  0  0  0  0  0  0
  -39.6100  -29.1280   26.9420 N   0  0  0  0  0  0  0  0  0  0  0  0
  -39.4320  -27.4840   28.4370 O   0  0  0  0  0  0  0  0  0  0  0  0
  -39.4920  -29.4570   25.9960 H   0  0  0  0  0  0  0  0  0  0  0  0
  -39.9720  -29.7620   27.6390 H   0  0  0  0  0  0  0  0  0  0  0  0
  -37.2600  -25.4080   27.5070 N   0  0  0  0  0  0  0  0  0  0  0  0
  -37.5240  -25.6900   28.4420 H   0  0  0  0  0  0  0  0  0  0  0  0
  -36.7130  -24.5560   27.4890 H   0  0  0  0  0  0  0  0  0  0  0  0
  -19.0480  -26.7710   17.8510 C   0  0  0  0  0  2  0  0  0  0  0  0
  -18.2220  -28.5830   21.1650 C   0  0  0  0  0  3  0  0  0  0  0  0
  -16.8210  -28.5130   21.1960 C   0  0  0  0  0  3  0  0  0  0  0  0
  -18.9270  -28.0310   20.0830 C   0  0  0  0  0  3  0  0  0  0  0  0
  -16.1300  -27.8950   20.1400 C   0  0  0  0  0  3  0  0  0  0  0  0
  -18.2510  -27.3960   19.0090 C   0  0  0  0  0  0  0  0  0  0  0  0
  -16.8230  -27.3430   19.0350 C   0  0  0  0  0  0  0  0  0  0  0  0
  -16.0030  -26.6170   17.9550 C   0  0  0  0  0  2  0  0  0  0  0  0
  -14.7310  -27.3720   17.4190 C   0  0  0  0  0  3  0  0  0  0  0  0
  -13.2080  -26.9600   17.3860 C   0  0  0  0  0  3  0  0  0  0  0  0
  -12.8900  -25.5870   17.6910 O   0  0  0  0  0  0  0  0  0  0  0  0
  -15.5030  -26.8260   24.1480 C   0  0  0  0  0  0  0  0  0  0  0  0
  -13.5920  -25.0820   18.7520 C   0  0  0  0  0  0  0  0  0  0  0  0
  -16.5190  -24.9340   22.9110 C   0  0  0  0  0  3  0  0  0  0  0  0
  -15.2490  -24.1640   20.8340 C   0  0  0  0  0  0  0  0  0  0  0  0
  -14.0820  -25.5980   22.5190 C   0  0  0  0  0  2  0  0  0  0  0  0
  -14.2410  -25.1000   21.1010 C   0  0  0  0  0  0  0  0  0  0  0  0
  -13.4130  -25.5700   20.0640 C   0  0  0  0  0  3  0  0  0  0  0  0
  -14.5570  -24.0900   18.5040 C   0  0  0  0  0  3  0  0  0  0  0  0
  -15.4110  -23.6530   19.5330 C   0  0  0  0  0  3  0  0  0  0  0  0
  -16.1150  -23.7430   22.0000 C   0  0  0  0  0  2  0  0  0  0  0  0
  -15.3650  -25.8450   23.2110 N   0  0  0  0  0  0  0  0  0  0  0  0
  -16.5540  -26.9520   24.7920 O   0  0  0  0  0  0  0  0  0  0  0  0
  -17.7230  -25.6630   22.2730 C   0  0  0  0  0  0  0  0  0  0  0  0
  -18.9310  -25.1160   22.4820 N   0  0  0  0  0  0  0  0  0  0  0  0
  -17.5590  -26.6790   21.5930 O   0  0  0  0  0  0  0  0  0  0  0  0
  -18.9840  -24.2890   23.0600 H   0  0  0  0  0  0  0  0  0  0  0  0
  -22.5080  -24.6200   22.5790 C   0  0  0  0  0  0  0  0  0  0  0  0
  -20.2020  -25.6080   21.9520 C   0  0  0  0  0  3  0  0  0  0  0  0
  -20.4650  -25.0580   20.5310 C   0  0  0  0  0  3  0  0  0  0  0  0
  -21.2910  -23.7680   20.5280 C   0  0  0  0  0  3  0  0  0  0  0  0
  -22.6490  -23.9960   21.2000 C   0  0  0  0  0  2  0  0  0  0  0  0
  -21.3530  -25.3640   22.9350 C   0  0  0  0  0  0  0  0  0  0  0  0
  -21.2570  -25.8940   24.2410 C   0  0  0  0  0  3  0  0  0  0  0  0
  -22.2860  -25.6920   25.1780 C   0  0  0  0  0  3  0  0  0  0  0  0
  -23.4340  -24.9670   24.8150 C   0  0  0  0  0  3  0  0  0  0  0  0
  -23.5460  -24.4370   23.5170 C   0  0  0  0  0  3  0  0  0  0  0  0
  -14.3400  -27.8170   24.4710 C   0  0  0  0  0  3  0  0  0  0  0  0
  -14.0910  -27.7490   25.9150 N   0  0  0  0  0  0  0  0  0  0  0  0
  -13.1120  -27.0340   26.4850 C   0  0  0  0  0  0  0  0  0  0  0  0
  -12.2680  -26.4130   25.8320 O   0  0  0  0  0  0  0  0  0  0  0  0
  -14.7750  -28.1890   26.5120 H   0  0  0  0  0  0  0  0  0  0  0  0
  -13.6760  -25.6880   28.5320 C   0  0  0  0  0  1  0  0  0  0  0  0
  -13.0620  -27.0020   28.0240 C   0  0  0  0  0  3  0  0  0  0  0  0
  -11.1470  -28.4960   28.3750 C   0  0  0  0  0  1  0  0  0  0  0  0
  -11.6960  -27.1570   28.5720 N   0  0  0  0  0  0  0  0  0  0  0  0
  -11.6820  -26.9500   29.5670 H   0  0  0  0  0  0  0  0  0  0  0  0
  -14.6460  -29.2990   24.0240 C   0  0  1  0  0  0  0  0  0  0  0  0
  -16.0070  -29.8310   24.5250 C   0  0  0  0  0  1  0  0  0  0  0  0
  -14.6300  -29.4160   22.4820 C   0  0  0  0  0  1  0  0  0  0  0  0
  -13.5390  -30.2420   24.5520 C   0  0  0  0  0  1  0  0  0  0  0  0
  1 86  1  0
  2  1  1  0
  2 87  1  0
  3  5  1  0
  3  4  1  0
  4  1  1  0
  5  2  1  0
  6  5  1  0
  6  9  1  0
  7  6  1  0
  8  6  1  0
 10  9  1  0
 10 11  1  0
 11 12  1  0
 12 13  1  0
 13 14  1  0
 14 15  1  0
 15 16  1  0
 16 17  1  0
 18 27  1  0
 18 17  1  0
 19 26  2  0
 20 25  1  0
 20 21  1  0
 21 22  1  0
 22 23  1  0
 23 32  1  0
 24 23  1  0
 25 24  1  0
 25 19  1  0
 27 19  1  0
 28 27  1  0
 29 54  1  0
 30 29  2  0
 30 49  1  0
 31 30  1  0
 32 29  1  0
 33 31  2  0
 33 32  1  0
 34 39  1  0
 34 31  1  0
 35 34  2  0
 36 37  2  0
 36 35  1  0
 37 38  1  0
 38 39  2  0
 40 37  1  0
 41 40  1  0
 41 42  1  0
 43 42  2  0
 44 43  1  0
 45 46  1  0
 45 44  2  0
 46 41  2  0
 47 46  1  0
 48 44  1  0
 49 51  2  0
 50 49  1  0
 50 53  1  0
 52 50  1  0
 54 55  1  0
 56 54  1  0
 57  4  1  0
 57 62  1  0
 58 59  1  0
 60 58  2  0
 61 59  2  0
 62 63  2  0
 62 60  1  0
 63 61  1  0
 64 63  1  0
 65 64  1  0
 66 65  2  0
 66 67  1  0
 67 69  1  0
 68 94  1  0
 68 79  2  0
 69 74  1  0
 70 78  1  0
 71 73  1  0
 71 77  1  0
 72 78  1  0
 73 72  1  0
 74 73  2  0
 75 69  2  0
 75 76  1  0
 76 71  2  0
 77 70  1  0
 78 68  1  0
 80 81  1  0
 80 70  1  0
 81 83  1  0
 82 80  2  0
 84 89  2  0
 84 93  1  0
 85 81  1  0
 85 89  1  0
 86 85  1  0
 87 86  1  0
 87 88  1  0
 88 84  1  0
 89 90  1  0
 90 91  2  0
 92 91  1  0
 93 92  2  0
 94 95  1  0
 95 96  1  0
 95 98  1  0
 96100  1  0
 97 96  2  0
100 99  1  0
100102  1  0
101102  1  0
102103  1  0
104 94  1  0
104105  1  1
104107  1  0
106104  1  0
M  ISO  4  19 100  27 100  66 101  67 101
M  END
>  <TORSDO>  (7) 
F 32

>  <SCORE>  (7) 
50.152

>  <name>  (7) 
6

>  <ligand_id>  (7) 
6

>  <original_smiles>  (7) 
[H]c1c([H])c([H])c(C([H])([H])C2([H])C([H])([H])C([H])([H])C([H])([N+]([H])([H])C([H])([H])C([H])([H])C([H])([H])C([H])([H])C([H])([H])C([H])([H])C([H])([H])C([H])([H])C([H])([H])C([H])([H])N([H])C(=O)N3C([H])([H])C([H])([H])C([H])([H])C([H])(n4nc(-c5c([H])c([H])c(Oc6c([H])c([H])c(F)c([H])c6F)c([H])c5[H])c(C(=O)N([H])[H])c4N([H])[H])C3([H])[H])C2([H])[H])c(C([H])([H])C([H])([H])C([H])([H])Oc2c([H])c([H])c3c(c2[H])C([H])([H])N(C(=O)C([H])(N([H])C(=O)C([H])(N([H])C([H])([H])[H])C([H])([H])[H])C(C([H])([H])[H])(C([H])([H])[H])C([H])([H])[H])C([H])(C(=O)N([H])C2([H])c4c([H])c([H])c([H])c([H])c4C([H])([H])C([H])([H])C2([H])[H])C3([H])[H])c1[H]

>  <smiles>  (7) 
[H]c1c([H])c([H])c(C([H])([H])C2([H])C([H])([H])C([H])([H])C([H])([N+]([H])([H])C([H])([H])C([H])([H])C([H])([H])C([H])([H])C([H])([H])C([H])([H])C([H])([H])C([H])([H])C([H])([H])C([H])([H])N([H])C(=O)N3C([H])([H])C([H])([H])C([H])([H])C([H])(n4nc(-c5c([H])c([H])c(Oc6c([H])c([H])c(F)c([H])c6F)c([H])c5[H])c(C(=O)N([H])[H])c4N([H])[H])C3([H])[H])C2([H])[H])c(C([H])([H])C([H])([H])C([H])([H])Oc2c([H])c([H])c3c(c2[H])C([H])([H])N(C(=O)C([H])(N([H])C(=O)C([H])(N([H])C([H])([H])[H])C([H])([H])[H])C(C([H])([H])[H])(C([H])([H])[H])C([H])([H])[H])C([H])(C(=O)N([H])C2([H])c4c([H])c([H])c([H])c([H])c4C([H])([H])C([H])([H])C2([H])[H])C3([H])[H])c1[H]

$$$$
7:0:0
     RDKit          3D

 94103  0  0  1  0  0  0  0  0999 V2000
  -31.4330  -21.0280   24.2640 C   0  0  0  0  0  3  0  0  0  0  0  0
  -31.1400  -19.6810   23.9880 C   0  0  0  0  0  3  0  0  0  0  0  0
  -31.3880  -21.9810   23.2310 C   0  0  0  0  0  3  0  0  0  0  0  0
  -30.7680  -20.2320   21.6430 C   0  0  0  0  0  3  0  0  0  0  0  0
  -30.8000  -19.2690   22.6810 C   0  0  0  0  0  0  0  0  0  0  0  0
  -31.0580  -21.5890   21.9180 C   0  0  0  0  0  0  0  0  0  0  0  0
  -30.4710  -14.5070   19.9950 C   0  0  0  0  0  0  0  0  0  0  0  0
  -29.9980  -12.4960   18.6320 C   0  0  0  0  0  2  0  0  0  0  0  0
  -28.9290  -12.7700   17.5580 C   0  0  0  0  0  2  0  0  0  0  0  0
  -27.5140  -12.5620   18.1320 C   0  0  0  0  0  2  0  0  0  0  0  0
  -27.3090  -13.3110   19.4720 C   0  0  0  0  0  3  0  0  0  0  0  0
  -28.4720  -13.0110   20.4450 C   0  0  0  0  0  2  0  0  0  0  0  0
  -29.7370  -13.3790   19.7820 N   0  0  0  0  0  0  0  0  0  0  0  0
  -31.4340  -14.8160   19.2820 O   0  0  0  0  0  0  0  0  0  0  0  0
  -29.3940  -17.5120   21.3890 C   0  0  0  0  0  2  0  0  0  0  0  0
  -31.7050  -16.9390   22.1510 C   0  0  0  0  0  2  0  0  0  0  0  0
  -29.0450  -16.0090   21.3570 C   0  0  0  0  0  2  0  0  0  0  0  0
  -31.3330  -15.4410   22.1010 C   0  0  0  0  0  2  0  0  0  0  0  0
  -30.4650  -17.7940   22.4560 C   0  0  0  0  0  3  0  0  0  0  0  0
  -30.2370  -15.1630   21.1580 N   0  0  0  0  0  0  0  0  0  0  0  0
  -24.9850  -13.8530   20.4420 C   0  0  0  0  0  0  0  0  0  0  0  0
  -23.9690  -13.0470   20.8820 C   0  0  0  0  0  0  0  0  0  0  0  0
  -24.4420  -11.7070   20.7460 C   0  0  0  0  0  0  0  0  0  0  0  0
  -26.0130  -12.9990   20.0700 N   0  0  0  0  0  0  0  0  0  0  0  0
  -25.6950  -11.7020   20.3070 N   0  0  0  0  0  0  0  0  0  0  0  0
  -23.7570  -10.4250   20.9520 C   0  0  0  0  0  0  0  0  0  0  0  0
  -24.2650   -9.4500   21.8370 C   0  0  0  0  0  3  0  0  0  0  0  0
  -23.5800   -8.2320   22.0310 C   0  0  0  0  0  3  0  0  0  0  0  0
  -22.3710   -7.9800   21.3390 C   0  0  0  0  0  0  0  0  0  0  0  0
  -21.8820   -8.9440   20.4400 C   0  0  0  0  0  3  0  0  0  0  0  0
  -22.5690  -10.1540   20.2440 C   0  0  0  0  0  3  0  0  0  0  0  0
  -21.6490   -6.8160   21.4440 O   0  0  0  0  0  0  0  0  0  0  0  0
  -21.6590   -6.0660   22.5920 C   0  0  0  0  0  0  0  0  0  0  0  0
  -21.2750   -6.6050   23.8400 C   0  0  0  0  0  3  0  0  0  0  0  0
  -21.2340   -5.7800   24.9810 C   0  0  0  0  0  3  0  0  0  0  0  0
  -21.5650   -4.4160   24.8770 C   0  0  0  0  0  0  0  0  0  0  0  0
  -21.9420   -3.8760   23.6340 C   0  0  0  0  0  3  0  0  0  0  0  0
  -21.9860   -4.6980   22.4950 C   0  0  0  0  0  0  0  0  0  0  0  0
  -22.3300   -4.1670   21.2970 F   0  0  0  0  0  0  0  0  0  0  0  0
  -21.5180   -3.6210   25.9720 F   0  0  0  0  0  0  0  0  0  0  0  0
  -22.6000  -13.4880   21.3150 C   0  0  0  0  0  0  0  0  0  0  0  0
  -21.9740  -12.7460   22.2230 N   0  0  0  0  0  0  0  0  0  0  0  0
  -22.0940  -14.5240   20.8840 O   0  0  0  0  0  0  0  0  0  0  0  0
  -22.3960  -11.9070   22.5930 H   0  0  0  0  0  0  0  0  0  0  0  0
  -21.0610  -13.0230   22.5540 H   0  0  0  0  0  0  0  0  0  0  0  0
  -25.1130  -15.2330   20.3080 N   0  0  0  0  0  0  0  0  0  0  0  0
  -24.3530  -15.8690   20.5240 H   0  0  0  0  0  0  0  0  0  0  0  0
  -25.9230  -15.7020   19.9240 H   0  0  0  0  0  0  0  0  0  0  0  0
  -31.0200  -22.6400   20.8210 C   0  0  0  0  0  2  0  0  0  0  0  0
  -29.7170  -23.4640   20.8540 C   0  0  0  0  0  2  0  0  0  0  0  0
  -29.7190  -24.6890   19.9320 C   0  0  0  0  0  0  0  0  0  0  0  0
  -30.7680  -25.1710   19.4900 O   0  0  0  0  0  0  0  0  0  0  0  0
  -28.3570  -25.2960   19.5870 C   0  0  0  0  0  2  0  0  0  0  0  0
  -28.4300  -26.7220   19.6240 O   0  0  0  0  0  0  0  0  0  0  0  0
  -24.6110  -31.6090   23.0820 C   0  0  0  0  0  0  0  0  0  0  0  0
  -27.2310  -27.3950   19.6910 C   0  0  0  0  0  0  0  0  0  0  0  0
  -23.3770  -30.2820   21.3970 C   0  0  0  0  0  3  0  0  0  0  0  0
  -24.8100  -28.8460   19.8550 C   0  0  0  0  0  0  0  0  0  0  0  0
  -25.8900  -30.6920   21.1500 C   0  0  0  0  0  2  0  0  0  0  0  0
  -25.9760  -29.3600   20.4350 C   0  0  0  0  0  0  0  0  0  0  0  0
  -27.1890  -28.6450   20.3450 C   0  0  0  0  0  3  0  0  0  0  0  0
  -26.0430  -26.8860   19.1130 C   0  0  0  0  0  3  0  0  0  0  0  0
  -24.8380  -27.6070   19.1930 C   0  0  0  0  0  3  0  0  0  0  0  0
  -23.5560  -29.6800   19.9790 C   0  0  0  0  0  2  0  0  0  0  0  0
  -24.6460  -30.8720   21.9360 N   0  0  0  0  0  0  0  0  0  0  0  0
  -23.5420  -31.8360   23.6650 O   0  0  0  0  0  0  0  0  0  0  0  0
  -22.7660  -29.2010   22.3170 C   0  0  0  0  0  0  0  0  0  0  0  0
  -21.4460  -28.9880   22.1930 N   0  0  0  0  0  0  0  0  0  0  0  0
  -23.4750  -28.5580   23.0950 O   0  0  0  0  0  0  0  0  0  0  0  0
  -20.9340  -29.5620   21.5360 H   0  0  0  0  0  0  0  0  0  0  0  0
  -18.1100  -27.6790   22.6510 C   0  0  0  0  0  0  0  0  0  0  0  0
  -20.6610  -27.9960   22.9250 C   0  0  0  0  0  3  0  0  0  0  0  0
  -20.8020  -26.5940   22.2890 C   0  0  0  0  0  2  0  0  0  0  0  0
  -19.7060  -26.2850   21.2660 C   0  0  0  0  0  2  0  0  0  0  0  0
  -18.3220  -26.3640   21.9190 C   0  0  0  0  0  2  0  0  0  0  0  0
  -19.2090  -28.4530   23.1090 C   0  0  0  0  0  0  0  0  0  0  0  0
  -18.9580  -29.6850   23.7520 C   0  0  0  0  0  3  0  0  0  0  0  0
  -17.6420  -30.1420   23.9430 C   0  0  0  0  0  3  0  0  0  0  0  0
  -16.5570  -29.3650   23.5010 C   0  0  0  0  0  3  0  0  0  0  0  0
  -16.7930  -28.1350   22.8600 C   0  0  0  0  0  3  0  0  0  0  0  0
  -25.9080  -32.2200   23.7010 C   0  0  0  0  0  3  0  0  0  0  0  0
  -26.4450  -31.4100   24.9440 C   0  0  1  0  0  0  0  0  0  0  0  0
  -25.3620  -31.1150   26.0070 C   0  0  0  0  0  1  0  0  0  0  0  0
  -27.0470  -30.0580   24.4950 C   0  0  0  0  0  1  0  0  0  0  0  0
  -27.5870  -32.1970   25.6290 C   0  0  0  0  0  1  0  0  0  0  0  0
  -25.6050  -33.6080   24.0750 N   0  0  0  0  0  0  0  0  0  0  0  0
  -25.9400  -34.6810   23.3460 C   0  0  0  0  0  0  0  0  0  0  0  0
  -26.6060  -34.6060   22.3100 O   0  0  0  0  0  0  0  0  0  0  0  0
  -25.0140  -33.7420   24.8820 H   0  0  0  0  0  0  0  0  0  0  0  0
  -24.2210  -36.4900   23.0430 C   0  0  0  0  0  1  0  0  0  0  0  0
  -25.4580  -36.0560   23.8460 C   0  0  0  0  0  3  0  0  0  0  0  0
  -27.5940  -36.9020   24.7090 C   0  0  0  0  0  1  0  0  0  0  0  0
  -26.4960  -37.1070   23.7700 N   0  0  0  0  0  0  0  0  0  0  0  0
  -26.0940  -38.0240   23.9470 H   0  0  0  0  0  0  0  0  0  0  0  0
  2  1  1  0
  3  1  2  0
  4  6  2  0
  4  5  1  0
  5  2  2  0
  6  3  1  0
  7 20  1  0
  8 13  1  0
  9 10  1  0
  9  8  1  0
 11 10  1  0
 11 24  1  0
 11 12  1  0
 13  7  1  0
 13 12  1  0
 14  7  2  0
 15 19  1  0
 16 19  1  0
 17 15  1  0
 18 16  1  0
 19  5  1  0
 20 17  1  0
 20 18  1  0
 21 22  2  0
 22 41  1  0
 23 22  1  0
 23 26  1  0
 24 25  1  0
 24 21  1  0
 25 23  2  0
 26 27  1  0
 27 28  2  0
 29 32  1  0
 29 28  1  0
 30 29  2  0
 31 30  1  0
 31 26  2  0
 32 33  1  0
 33 34  1  0
 34 35  2  0
 36 35  1  0
 36 40  1  0
 37 36  2  0
 38 33  2  0
 38 37  1  0
 39 38  1  0
 41 42  1  0
 42 45  1  0
 42 44  1  0
 43 41  2  0
 46 21  1  0
 46 47  1  0
 48 46  1  0
 49 50  1  0
 49  6  1  0
 51 50  1  0
 52 51  2  0
 53 54  1  0
 53 51  1  0
 54 56  1  0
 55 66  2  0
 56 61  1  0
 57 65  1  0
 57 67  1  0
 58 64  1  0
 58 60  1  0
 59 65  1  0
 60 59  1  0
 61 60  2  0
 62 63  1  0
 62 56  2  0
 63 58  2  0
 64 57  1  0
 65 55  1  0
 67 69  2  0
 68 67  1  0
 70 68  1  0
 71 80  2  0
 71 76  1  0
 72 68  1  0
 72 76  1  0
 73 72  1  0
 74 75  1  0
 74 73  1  0
 75 71  1  0
 76 77  2  0
 77 78  1  0
 79 78  2  0
 80 79  1  0
 81 55  1  0
 81 86  1  0
 81 82  1  0
 82 85  1  1
 82 83  1  0
 84 82  1  0
 86 89  1  0
 87 91  1  0
 87 86  1  0
 88 87  2  0
 91 90  1  0
 93 91  1  0
 93 94  1  0
 93 92  1  0
M  ISO  4   7 100  20 100  53 101  54 101
M  END
>  <TORSDO>  (8) 
F 20

>  <SCORE>  (8) 
-11.145

>  <name>  (8) 
7

>  <ligand_id>  (8) 
7

>  <original_smiles>  (8) 
[H]c1c([H])c([H])c2c(c1[H])C([H])([H])C([H])([H])C([H])([H])C2([H])N([H])C(=O)C1([H])N(C(=O)C([H])(N([H])C(=O)C([H])(N([H])C([H])([H])[H])C([H])([H])[H])C(C([H])([H])[H])(C([H])([H])[H])C([H])([H])[H])C([H])([H])c2c([H])c(OC([H])([H])C(=O)C([H])([H])C([H])([H])c3c([H])c([H])c([H])c(C4([H])C([H])([H])C([H])([H])N(C(=O)N5C([H])([H])C([H])([H])C([H])([H])C([H])(n6nc(-c7c([H])c([H])c(Oc8c([H])c([H])c(F)c([H])c8F)c([H])c7[H])c(C(=O)N([H])[H])c6N([H])[H])C5([H])[H])C([H])([H])C4([H])[H])c3[H])c([H])c([H])c2C1([H])[H]

>  <smiles>  (8) 
[H]c1c([H])c([H])c2c(c1[H])C([H])([H])C([H])([H])C([H])([H])C2([H])N([H])C(=O)C1([H])N(C(=O)C([H])(N([H])C(=O)C([H])(N([H])C([H])([H])[H])C([H])([H])[H])C(C([H])([H])[H])(C([H])([H])[H])C([H])([H])[H])C([H])([H])c2c([H])c(OC([H])([H])C(=O)C([H])([H])C([H])([H])c3c([H])c([H])c([H])c(C4([H])C([H])([H])C([H])([H])N(C(=O)N5C([H])([H])C([H])([H])C([H])([H])C([H])(n6nc(-c7c([H])c([H])c(Oc8c([H])c([H])c(F)c([H])c8F)c([H])c7[H])c(C(=O)N([H])[H])c6N([H])[H])C5([H])[H])C([H])([H])C4([H])[H])c3[H])c([H])c([H])c2C1([H])[H]

$$$$
8:0:0
     RDKit          3D

 97106  0  0  1  0  0  0  0  0999 V2000
  -28.6830  -23.7960   20.9720 C   0  0  0  0  0  3  0  0  0  0  0  0
  -27.8480  -22.2740   19.2650 C   0  0  0  0  0  3  0  0  0  0  0  0
  -28.7290  -24.8380   20.0250 C   0  0  0  0  0  3  0  0  0  0  0  0
  -27.8610  -23.3260   18.3250 C   0  0  0  0  0  3  0  0  0  0  0  0
  -28.2880  -22.4970   20.5840 C   0  0  0  0  0  0  0  0  0  0  0  0
  -28.3260  -24.6070   18.6920 C   0  0  0  0  0  0  0  0  0  0  0  0
  -28.4480  -21.3220   21.5410 C   0  0  0  0  0  2  0  0  0  0  0  0
  -31.1270  -18.4850   21.4250 C   0  0  0  0  0  3  0  0  0  0  0  0
  -31.7440  -18.7820   20.2630 C   0  0  0  0  0  0  0  0  0  0  0  0
  -30.1740  -19.4440   22.1150 C   0  0  0  0  0  2  0  0  0  0  0  0
  -31.6580  -20.1700   19.6310 C   0  0  0  0  0  2  0  0  0  0  0  0
  -30.7540  -21.1470   20.3960 C   0  0  0  0  0  2  0  0  0  0  0  0
  -29.5850  -20.4020   21.0560 C   0  0  0  0  0  3  0  0  0  0  0  0
  -32.3230  -17.6840   19.3920 C   0  0  0  0  0  2  0  0  0  0  0  0
  -33.7060  -17.9600   18.7650 C   0  0  0  0  0  2  0  0  0  0  0  0
  -34.4100  -16.6530   18.3670 C   0  0  0  0  0  2  0  0  0  0  0  0
  -34.2560  -14.3030   19.2190 C   0  0  0  0  0  0  0  0  0  0  0  0
  -33.9130  -12.2030   20.4670 C   0  0  0  0  0  2  0  0  0  0  0  0
  -33.0180  -11.1990   19.7190 C   0  0  0  0  0  2  0  0  0  0  0  0
  -31.5270  -11.4820   19.9850 C   0  0  0  0  0  2  0  0  0  0  0  0
  -31.1570  -12.9710   19.7680 C   0  0  0  0  0  3  0  0  0  0  0  0
  -32.1450  -13.8840   20.5210 C   0  0  0  0  0  2  0  0  0  0  0  0
  -33.5180  -13.5610   20.0770 N   0  0  0  0  0  0  0  0  0  0  0  0
  -35.2630  -13.8910   18.6280 O   0  0  0  0  0  0  0  0  0  0  0  0
  -33.8550  -15.5690   19.1520 N   0  0  0  0  0  0  0  0  0  0  0  0
  -33.0380  -15.7880   19.7010 H   0  0  0  0  0  0  0  0  0  0  0  0
  -29.1450  -14.4510   20.4100 C   0  0  0  0  0  0  0  0  0  0  0  0
  -27.8350  -14.1480   20.6670 C   0  0  0  0  0  0  0  0  0  0  0  0
  -27.7270  -12.7290   20.5490 C   0  0  0  0  0  0  0  0  0  0  0  0
  -29.7730  -13.2400   20.1600 N   0  0  0  0  0  0  0  0  0  0  0  0
  -28.9150  -12.1960   20.2970 N   0  0  0  0  0  0  0  0  0  0  0  0
  -26.5520  -11.8500   20.6060 C   0  0  0  0  0  0  0  0  0  0  0  0
  -26.5140  -10.7220   21.4540 C   0  0  0  0  0  3  0  0  0  0  0  0
  -25.3650   -9.9020   21.5030 C   0  0  0  0  0  3  0  0  0  0  0  0
  -24.2400  -10.2080   20.7010 C   0  0  0  0  0  0  0  0  0  0  0  0
  -24.2940  -11.3190   19.8410 C   0  0  0  0  0  3  0  0  0  0  0  0
  -25.4390  -12.1310   19.7900 C   0  0  0  0  0  3  0  0  0  0  0  0
  -23.0910   -9.4550   20.6630 O   0  0  0  0  0  0  0  0  0  0  0  0
  -22.6320   -8.7870   21.7700 C   0  0  0  0  0  0  0  0  0  0  0  0
  -22.2700   -9.4650   22.9550 C   0  0  0  0  0  3  0  0  0  0  0  0
  -21.7370   -8.7470   24.0430 C   0  0  0  0  0  3  0  0  0  0  0  0
  -21.5590   -7.3530   23.9490 C   0  0  0  0  0  0  0  0  0  0  0  0
  -21.9140   -6.6770   22.7680 C   0  0  0  0  0  3  0  0  0  0  0  0
  -22.4480   -7.3920   21.6820 C   0  0  0  0  0  0  0  0  0  0  0  0
  -22.7690   -6.7370   20.5400 F   0  0  0  0  0  0  0  0  0  0  0  0
  -21.0410   -6.6640   24.9910 F   0  0  0  0  0  0  0  0  0  0  0  0
  -26.7220  -15.1260   20.9150 C   0  0  0  0  0  0  0  0  0  0  0  0
  -25.7130  -14.7250   21.6820 N   0  0  0  0  0  0  0  0  0  0  0  0
  -26.7630  -16.2700   20.4650 O   0  0  0  0  0  0  0  0  0  0  0  0
  -25.6850  -13.7930   22.0670 H   0  0  0  0  0  0  0  0  0  0  0  0
  -24.9570  -15.3630   21.8880 H   0  0  0  0  0  0  0  0  0  0  0  0
  -29.8510  -15.6500   20.3480 N   0  0  0  0  0  0  0  0  0  0  0  0
  -29.4040  -16.5520   20.4720 H   0  0  0  0  0  0  0  0  0  0  0  0
  -30.8320  -15.7230   20.1110 H   0  0  0  0  0  0  0  0  0  0  0  0
  -28.3940  -25.6930   17.6170 C   0  0  0  0  0  2  0  0  0  0  0  0
  -28.8060  -27.1220   18.0510 C   0  0  0  0  0  2  0  0  0  0  0  0
  -28.3610  -27.6350   19.3090 O   0  0  0  0  0  0  0  0  0  0  0  0
  -24.3360  -31.6780   23.4810 C   0  0  0  0  0  0  0  0  0  0  0  0
  -27.1050  -28.1820   19.4580 C   0  0  0  0  0  0  0  0  0  0  0  0
  -23.1230  -30.4390   21.7180 C   0  0  0  0  0  3  0  0  0  0  0  0
  -24.5730  -29.3480   19.9310 C   0  0  0  0  0  0  0  0  0  0  0  0
  -25.5580  -31.1330   21.3770 C   0  0  0  0  0  2  0  0  0  0  0  0
  -25.7190  -29.9050   20.5090 C   0  0  0  0  0  0  0  0  0  0  0  0
  -26.9830  -29.3230   20.2800 C   0  0  0  0  0  3  0  0  0  0  0  0
  -25.9360  -27.6300   18.8890 C   0  0  0  0  0  3  0  0  0  0  0  0
  -24.6740  -28.2050   19.1220 C   0  0  0  0  0  3  0  0  0  0  0  0
  -23.2590  -30.0290   20.2260 C   0  0  0  0  0  2  0  0  0  0  0  0
  -24.3620  -31.0910   22.2500 N   0  0  0  0  0  0  0  0  0  0  0  0
  -23.2910  -31.7320   24.1420 O   0  0  0  0  0  0  0  0  0  0  0  0
  -22.6790  -29.1990   22.5270 C   0  0  0  0  0  0  0  0  0  0  0  0
  -21.5300  -28.6180   22.1470 N   0  0  0  0  0  0  0  0  0  0  0  0
  -23.3710  -28.7670   23.4530 O   0  0  0  0  0  0  0  0  0  0  0  0
  -21.0140  -29.0490   21.3950 H   0  0  0  0  0  0  0  0  0  0  0  0
  -18.8960  -26.1750   21.7510 C   0  0  0  0  0  0  0  0  0  0  0  0
  -20.9300  -27.4240   22.7410 C   0  0  0  0  0  3  0  0  0  0  0  0
  -21.7420  -26.1560   22.3950 C   0  0  0  0  0  2  0  0  0  0  0  0
  -21.2370  -25.4310   21.1430 C   0  0  0  0  0  2  0  0  0  0  0  0
  -19.7740  -25.0150   21.3170 C   0  0  0  0  0  2  0  0  0  0  0  0
  -19.4400  -27.3140   22.4050 C   0  0  0  0  0  0  0  0  0  0  0  0
  -18.5820  -28.3790   22.7520 C   0  0  0  0  0  3  0  0  0  0  0  0
  -17.2060  -28.3210   22.4560 C   0  0  0  0  0  3  0  0  0  0  0  0
  -16.6710  -27.1850   21.8230 C   0  0  0  0  0  3  0  0  0  0  0  0
  -17.5150  -26.1150   21.4780 C   0  0  0  0  0  3  0  0  0  0  0  0
  -25.6080  -32.3400   24.1020 C   0  0  0  0  0  3  0  0  0  0  0  0
  -25.2800  -33.7420   24.3930 N   0  0  0  0  0  0  0  0  0  0  0  0
  -25.6350  -34.7820   23.6250 C   0  0  0  0  0  0  0  0  0  0  0  0
  -26.3490  -34.6640   22.6240 O   0  0  0  0  0  0  0  0  0  0  0  0
  -24.6520  -33.9090   25.1650 H   0  0  0  0  0  0  0  0  0  0  0  0
  -23.9070  -36.5530   23.1610 C   0  0  0  0  0  1  0  0  0  0  0  0
  -25.1150  -36.1750   24.0320 C   0  0  0  0  0  3  0  0  0  0  0  0
  -27.2170  -37.0790   24.9180 C   0  0  0  0  0  1  0  0  0  0  0  0
  -26.1420  -37.2350   23.9420 N   0  0  0  0  0  0  0  0  0  0  0  0
  -25.7230  -38.1510   24.0780 H   0  0  0  0  0  0  0  0  0  0  0  0
  -26.1260  -31.6020   25.3980 C   0  0  1  0  0  0  0  0  0  0  0  0
  -25.0100  -31.2640   26.4160 C   0  0  0  0  0  1  0  0  0  0  0  0
  -26.8370  -30.2810   25.0210 C   0  0  0  0  0  1  0  0  0  0  0  0
  -27.1860  -32.4790   26.1110 C   0  0  0  0  0  1  0  0  0  0  0  0
  2  5  2  0
  3  1  2  0
  4  6  2  0
  4  2  1  0
  5  1  1  0
  5  7  1  0
  6  3  1  0
  8 10  1  0
  9  8  2  0
 11  9  1  0
 11 12  1  0
 12 13  1  0
 13  7  1  0
 13 10  1  0
 14  9  1  0
 15 14  1  0
 16 15  1  0
 16 25  1  0
 17 23  1  0
 19 20  1  0
 19 18  1  0
 21 20  1  0
 21 30  1  0
 21 22  1  0
 23 18  1  0
 23 22  1  0
 24 17  2  0
 25 17  1  0
 25 26  1  0
 27 28  2  0
 28 47  1  0
 29 32  1  0
 29 28  1  0
 30 31  1  0
 30 27  1  0
 31 29  2  0
 32 33  1  0
 33 34  2  0
 35 34  1  0
 36 35  2  0
 37 36  1  0
 37 32  2  0
 38 35  1  0
 38 39  1  0
 39 40  1  0
 40 41  2  0
 42 41  1  0
 42 46  1  0
 43 42  2  0
 44 39  2  0
 44 43  1  0
 45 44  1  0
 47 48  1  0
 48 51  1  0
 48 50  1  0
 49 47  2  0
 52 27  1  0
 52 53  1  0
 54 52  1  0
 55 56  1  0
 55  6  1  0
 56 57  1  0
 57 59  1  0
 58 69  2  0
 59 64  1  0
 60 68  1  0
 60 70  1  0
 61 67  1  0
 61 63  1  0
 62 68  1  0
 63 62  1  0
 64 63  2  0
 65 66  1  0
 65 59  2  0
 66 61  2  0
 67 60  1  0
 68 58  1  0
 70 72  2  0
 71 70  1  0
 73 71  1  0
 74 79  1  0
 75 71  1  0
 76 75  1  0
 77 78  1  0
 77 76  1  0
 78 74  1  0
 79 75  1  0
 79 80  2  0
 81 80  1  0
 82 81  2  0
 83 74  2  0
 83 82  1  0
 84 58  1  0
 84 85  1  0
 84 94  1  0
 85 88  1  0
 86 90  1  0
 86 85  1  0
 87 86  2  0
 90 89  1  0
 92 90  1  0
 92 93  1  0
 92 91  1  0
 94 97  1  1
 94 95  1  0
 96 94  1  0
M  ISO  4  17 100  25 100  56 101  57 101
M  END
>  <TORSDO>  (9) 
F 23

>  <SCORE>  (9) 
-7.110

>  <name>  (9) 
8

>  <ligand_id>  (9) 
8

>  <original_smiles>  (9) 
[H]C1=C(C([H])([H])C([H])([H])C([H])([H])N([H])C(=O)N2C([H])([H])C([H])([H])C([H])([H])C([H])(n3nc(-c4c([H])c([H])c(Oc5c([H])c([H])c(F)c([H])c5F)c([H])c4[H])c(C(=O)N([H])[H])c3N([H])[H])C2([H])[H])C([H])([H])C([H])([H])C([H])(C([H])([H])c2c([H])c([H])c(C([H])([H])C([H])([H])Oc3c([H])c([H])c4c(c3[H])C([H])([H])N(C(=O)C([H])(N([H])C(=O)C([H])(N([H])C([H])([H])[H])C([H])([H])[H])C(C([H])([H])[H])(C([H])([H])[H])C([H])([H])[H])C([H])(C(=O)N([H])C3([H])c5c([H])c([H])c([H])c([H])c5C([H])([H])C([H])([H])C3([H])[H])C4([H])[H])c([H])c2[H])C1([H])[H]

>  <smiles>  (9) 
[H]C1=C(C([H])([H])C([H])([H])C([H])([H])N([H])C(=O)N2C([H])([H])C([H])([H])C([H])([H])C([H])(n3nc(-c4c([H])c([H])c(Oc5c([H])c([H])c(F)c([H])c5F)c([H])c4[H])c(C(=O)N([H])[H])c3N([H])[H])C2([H])[H])C([H])([H])C([H])([H])C([H])(C([H])([H])c2c([H])c([H])c(C([H])([H])C([H])([H])Oc3c([H])c([H])c4c(c3[H])C([H])([H])N(C(=O)C([H])(N([H])C(=O)C([H])(N([H])C([H])([H])[H])C([H])([H])[H])C(C([H])([H])[H])(C([H])([H])[H])C([H])([H])[H])C([H])(C(=O)N([H])C3([H])c5c([H])c([H])c([H])c([H])c5C([H])([H])C([H])([H])C3([H])[H])C4([H])[H])c([H])c2[H])C1([H])[H]

$$$$
9:0:0
     RDKit          3D

 94102  0  0  1  0  0  0  0  0999 V2000
  -30.8510  -23.1550   18.9730 C   0  0  0  0  0  3  0  0  0  0  0  0
  -28.8220  -23.2060   17.6290 C   0  0  0  0  0  3  0  0  0  0  0  0
  -31.1940  -24.4390   18.5090 C   0  0  0  0  0  3  0  0  0  0  0  0
  -29.1720  -24.4860   17.1570 C   0  0  0  0  0  3  0  0  0  0  0  0
  -29.6480  -22.5310   18.5600 C   0  0  0  0  0  0  0  0  0  0  0  0
  -30.3460  -25.1200   17.6130 C   0  0  0  0  0  0  0  0  0  0  0  0
  -29.2450  -21.1790   19.0530 C   0  0  0  0  0  0  0  0  0  0  0  0
  -28.4660  -20.4440   18.4380 O   0  0  0  0  0  0  0  0  0  0  0  0
  -29.7770  -20.7170   20.4190 C   0  0  0  0  0  2  0  0  0  0  0  0
  -30.6320  -19.4330   20.3660 C   0  0  0  0  0  2  0  0  0  0  0  0
  -29.8610  -18.1680   20.7910 C   0  0  0  0  0  2  0  0  0  0  0  0
  -30.7730  -16.9370   20.9090 C   0  0  0  0  0  2  0  0  0  0  0  0
  -29.9900  -15.6180   21.1220 C   0  0  0  0  0  2  0  0  0  0  0  0
  -30.6980  -14.3810   20.5460 C   0  0  0  0  0  0  0  0  0  0  0  0
  -30.3480  -12.2590   19.3500 C   0  0  0  0  0  2  0  0  0  0  0  0
  -29.4270  -12.5480   18.1460 C   0  0  0  0  0  2  0  0  0  0  0  0
  -27.9430  -12.4350   18.5480 C   0  0  0  0  0  2  0  0  0  0  0  0
  -27.6180  -13.2250   19.8440 C   0  0  0  0  0  3  0  0  0  0  0  0
  -28.6640  -12.9680   20.9540 C   0  0  0  0  0  2  0  0  0  0  0  0
  -30.0010  -13.2240   20.4030 N   0  0  0  0  0  0  0  0  0  0  0  0
  -31.8350  -14.5220   20.0890 O   0  0  0  0  0  0  0  0  0  0  0  0
  -25.2180  -13.8420   20.5300 C   0  0  0  0  0  0  0  0  0  0  0  0
  -24.1430  -13.0710   20.8940 C   0  0  0  0  0  0  0  0  0  0  0  0
  -24.6020  -11.7210   20.8780 C   0  0  0  0  0  0  0  0  0  0  0  0
  -26.2610  -12.9560   20.3150 N   0  0  0  0  0  0  0  0  0  0  0  0
  -25.8960  -11.6770   20.5800 N   0  0  0  0  0  0  0  0  0  0  0  0
  -23.8730  -10.4600   21.0720 C   0  0  0  0  0  0  0  0  0  0  0  0
  -24.3120   -9.4890   21.9980 C   0  0  0  0  0  3  0  0  0  0  0  0
  -23.5890   -8.2910   22.1800 C   0  0  0  0  0  3  0  0  0  0  0  0
  -22.4100   -8.0570   21.4330 C   0  0  0  0  0  0  0  0  0  0  0  0
  -21.9890   -9.0150   20.4940 C   0  0  0  0  0  3  0  0  0  0  0  0
  -22.7140  -10.2060   20.3100 C   0  0  0  0  0  3  0  0  0  0  0  0
  -21.6510   -6.9140   21.5240 O   0  0  0  0  0  0  0  0  0  0  0  0
  -21.6290   -6.1540   22.6650 C   0  0  0  0  0  0  0  0  0  0  0  0
  -21.2510   -6.6970   23.9120 C   0  0  0  0  0  3  0  0  0  0  0  0
  -21.1720   -5.8660   25.0470 C   0  0  0  0  0  3  0  0  0  0  0  0
  -21.4600   -4.4910   24.9360 C   0  0  0  0  0  0  0  0  0  0  0  0
  -21.8310   -3.9490   23.6930 C   0  0  0  0  0  3  0  0  0  0  0  0
  -21.9130   -4.7770   22.5610 C   0  0  0  0  0  0  0  0  0  0  0  0
  -22.2490   -4.2450   21.3610 F   0  0  0  0  0  0  0  0  0  0  0  0
  -21.3780   -3.6900   26.0250 F   0  0  0  0  0  0  0  0  0  0  0  0
  -22.7440  -13.5530   21.1510 C   0  0  0  0  0  0  0  0  0  0  0  0
  -22.0110  -12.8570   22.0140 N   0  0  0  0  0  0  0  0  0  0  0  0
  -22.3110  -14.5740   20.6230 O   0  0  0  0  0  0  0  0  0  0  0  0
  -22.3830  -12.0340   22.4630 H   0  0  0  0  0  0  0  0  0  0  0  0
  -21.0680  -13.1520   22.2260 H   0  0  0  0  0  0  0  0  0  0  0  0
  -25.3930  -15.2090   20.3470 N   0  0  0  0  0  0  0  0  0  0  0  0
  -24.6390  -15.8810   20.4300 H   0  0  0  0  0  0  0  0  0  0  0  0
  -26.2640  -15.6340   20.0520 H   0  0  0  0  0  0  0  0  0  0  0  0
  -30.6970  -26.5190   17.1360 C   0  0  0  0  0  2  0  0  0  0  0  0
  -29.6830  -27.5930   17.5770 C   0  0  0  0  0  2  0  0  0  0  0  0
  -29.9080  -28.2150   18.9740 C   0  0  0  0  0  2  0  0  0  0  0  0
  -29.6760  -27.2900   20.1860 C   0  0  0  0  0  2  0  0  0  0  0  0
  -28.4090  -26.6640   20.1040 O   0  0  0  0  0  0  0  0  0  0  0  0
  -24.6410  -31.8700   23.2000 C   0  0  0  0  0  0  0  0  0  0  0  0
  -27.2840  -27.4520   20.1610 C   0  0  0  0  0  0  0  0  0  0  0  0
  -23.4310  -30.4580   21.5650 C   0  0  0  0  0  3  0  0  0  0  0  0
  -24.8840  -28.9270   20.1410 C   0  0  0  0  0  0  0  0  0  0  0  0
  -25.9420  -30.8480   21.3430 C   0  0  0  0  0  2  0  0  0  0  0  0
  -26.0300  -29.4690   20.7330 C   0  0  0  0  0  0  0  0  0  0  0  0
  -27.2320  -28.7360   20.7540 C   0  0  0  0  0  3  0  0  0  0  0  0
  -26.1220  -26.9160   19.5760 C   0  0  0  0  0  3  0  0  0  0  0  0
  -24.9230  -27.6490   19.5530 C   0  0  0  0  0  3  0  0  0  0  0  0
  -23.6340  -29.7720   20.1850 C   0  0  0  0  0  2  0  0  0  0  0  0
  -24.6900  -31.0760   22.0950 N   0  0  0  0  0  0  0  0  0  0  0  0
  -23.5630  -32.1350   23.7490 O   0  0  0  0  0  0  0  0  0  0  0  0
  -22.7950  -29.4340   22.5310 C   0  0  0  0  0  0  0  0  0  0  0  0
  -21.4690  -29.2530   22.4140 N   0  0  0  0  0  0  0  0  0  0  0  0
  -23.4870  -28.8050   23.3370 O   0  0  0  0  0  0  0  0  0  0  0  0
  -20.9810  -29.8080   21.7260 H   0  0  0  0  0  0  0  0  0  0  0  0
  -18.0910  -28.0900   22.9370 C   0  0  0  0  0  0  0  0  0  0  0  0
  -20.6530  -28.3190   23.1860 C   0  0  0  0  0  3  0  0  0  0  0  0
  -20.7360  -26.8910   22.5960 C   0  0  0  0  0  2  0  0  0  0  0  0
  -19.6220  -26.5870   21.5910 C   0  0  0  0  0  2  0  0  0  0  0  0
  -18.2470  -26.7450   22.2500 C   0  0  0  0  0  2  0  0  0  0  0  0
  -19.2210  -28.8380   23.3620 C   0  0  0  0  0  0  0  0  0  0  0  0
  -19.0180  -30.1020   23.9580 C   0  0  0  0  0  3  0  0  0  0  0  0
  -17.7210  -30.6150   24.1380 C   0  0  0  0  0  3  0  0  0  0  0  0
  -16.6060  -29.8590   23.7350 C   0  0  0  0  0  3  0  0  0  0  0  0
  -16.7930  -28.6000   23.1400 C   0  0  0  0  0  3  0  0  0  0  0  0
  -25.9300  -32.5000   23.8160 C   0  0  0  0  0  3  0  0  0  0  0  0
  -26.4680  -31.7140   25.0740 C   0  0  1  0  0  0  0  0  0  0  0  0
  -25.3850  -31.4540   26.1460 C   0  0  0  0  0  1  0  0  0  0  0  0
  -27.0500  -30.3470   24.6430 C   0  0  0  0  0  1  0  0  0  0  0  0
  -27.6230  -32.5020   25.7350 C   0  0  0  0  0  1  0  0  0  0  0  0
  -25.6150  -33.8900   24.1640 N   0  0  0  0  0  0  0  0  0  0  0  0
  -25.9360  -34.9540   23.4130 C   0  0  0  0  0  0  0  0  0  0  0  0
  -26.6000  -34.8670   22.3770 O   0  0  0  0  0  0  0  0  0  0  0  0
  -25.0190  -34.0300   24.9670 H   0  0  0  0  0  0  0  0  0  0  0  0
  -24.1850  -36.7290   23.0860 C   0  0  0  0  0  1  0  0  0  0  0  0
  -25.4370  -36.3330   23.8860 C   0  0  0  0  0  3  0  0  0  0  0  0
  -27.5750  -37.2240   24.7000 C   0  0  0  0  0  1  0  0  0  0  0  0
  -26.4570  -37.3990   23.7770 N   0  0  0  0  0  0  0  0  0  0  0  0
  -26.0440  -38.3110   23.9530 H   0  0  0  0  0  0  0  0  0  0  0  0
  2  5  2  0
  3  1  2  0
  4  6  2  0
  4  2  1  0
  5  1  1  0
  5  7  1  0
  6  3  1  0
  7  9  1  0
  8  7  2  0
 10  9  1  0
 10 11  1  0
 11 12  1  0
 12 13  1  0
 14 13  1  0
 15 20  1  0
 16 17  1  0
 16 15  1  0
 18 17  1  0
 18 25  1  0
 18 19  1  0
 20 14  1  0
 20 19  1  0
 21 14  2  0
 22 23  2  0
 23 42  1  0
 24 23  1  0
 24 27  1  0
 25 22  1  0
 25 26  1  0
 26 24  2  0
 27 28  1  0
 28 29  2  0
 30 33  1  0
 30 29  1  0
 31 30  2  0
 32 31  1  0
 32 27  2  0
 33 34  1  0
 34 35  1  0
 35 36  2  0
 37 36  1  0
 37 41  1  0
 38 37  2  0
 39 34  2  0
 39 38  1  0
 40 39  1  0
 42 43  1  0
 43 46  1  0
 43 45  1  0
 44 42  2  0
 47 48  1  0
 47 22  1  0
 49 47  1  0
 50 51  1  0
 50  6  1  0
 51 52  1  0
 52 53  1  0
 54 56  1  0
 54 53  1  0
 55 66  2  0
 56 61  1  0
 57 65  1  0
 57 67  1  0
 58 64  1  0
 58 60  1  0
 59 65  1  0
 60 61  2  0
 60 59  1  0
 62 56  2  0
 63 62  1  0
 63 58  2  0
 64 57  1  0
 65 55  1  0
 67 69  2  0
 68 67  1  0
 70 68  1  0
 71 80  2  0
 71 76  1  0
 72 68  1  0
 72 76  1  0
 73 72  1  0
 74 75  1  0
 74 73  1  0
 75 71  1  0
 76 77  2  0
 77 78  1  0
 79 78  2  0
 80 79  1  0
 81 55  1  0
 81 86  1  0
 81 82  1  0
 82 85  1  1
 82 83  1  0
 84 82  1  0
 86 89  1  0
 87 91  1  0
 87 86  1  0
 88 87  2  0
 91 90  1  0
 93 91  1  0
 93 94  1  0
 93 92  1  0
M  ISO  4  13 100  14 100  53 101  54 101
M  END
>  <TORSDO>  (10) 
F 26

>  <SCORE>  (10) 
-11.778

>  <name>  (10) 
9

>  <ligand_id>  (10) 
9

>  <original_smiles>  (10) 
[H]c1c([H])c([H])c2c(c1[H])C([H])([H])C([H])([H])C([H])([H])C2([H])N([H])C(=O)C1([H])N(C(=O)C([H])(N([H])C(=O)C([H])(N([H])C([H])([H])[H])C([H])([H])[H])C(C([H])([H])[H])(C([H])([H])[H])C([H])([H])[H])C([H])([H])c2c([H])c(OC([H])([H])C([H])([H])C([H])([H])C([H])([H])c3c([H])c([H])c(C(=O)C([H])([H])C([H])([H])C([H])([H])C([H])([H])C([H])([H])C(=O)N4C([H])([H])C([H])([H])C([H])([H])C([H])(n5nc(-c6c([H])c([H])c(Oc7c([H])c([H])c(F)c([H])c7F)c([H])c6[H])c(C(=O)N([H])[H])c5N([H])[H])C4([H])[H])c([H])c3[H])c([H])c([H])c2C1([H])[H]

>  <smiles>  (10) 
[H]c1c([H])c([H])c2c(c1[H])C([H])([H])C([H])([H])C([H])([H])C2([H])N([H])C(=O)C1([H])N(C(=O)C([H])(N([H])C(=O)C([H])(N([H])C([H])([H])[H])C([H])([H])[H])C(C([H])([H])[H])(C([H])([H])[H])C([H])([H])[H])C([H])([H])c2c([H])c(OC([H])([H])C([H])([H])C([H])([H])C([H])([H])c3c([H])c([H])c(C(=O)C([H])([H])C([H])([H])C([H])([H])C([H])([H])C([H])([H])C(=O)N4C([H])([H])C([H])([H])C([H])([H])C([H])(n5nc(-c6c([H])c([H])c(Oc7c([H])c([H])c(F)c([H])c7F)c([H])c6[H])c(C(=O)N([H])[H])c5N([H])[H])C4([H])[H])c([H])c3[H])c([H])c([H])c2C1([H])[H]

$$$$
10:0:0
     RDKit          3D

 95103  0  0  1  0  0  0  0  0999 V2000
  -30.4910  -23.7230   17.5270 C   0  0  0  0  0  3  0  0  0  0  0  0
  -30.4720  -25.1260   17.4370 C   0  0  0  0  0  3  0  0  0  0  0  0
  -31.6490  -23.8710   19.6630 C   0  0  0  0  0  3  0  0  0  0  0  0
  -31.0970  -23.0850   18.6290 C   0  0  0  0  0  0  0  0  0  0  0  0
  -31.6370  -25.2840   19.5780 C   0  0  0  0  0  0  0  0  0  0  0  0
  -31.0670  -25.9080   18.4420 C   0  0  0  0  0  0  0  0  0  0  0  0
  -31.0990  -27.2650   18.2910 O   0  0  0  0  0  0  0  0  0  0  0  0
  -30.6520  -27.5610   17.5070 H   0  0  0  0  0  0  0  0  0  0  0  0
  -31.2250  -21.5680   18.6220 C   0  0  0  0  0  2  0  0  0  0  0  0
  -30.6730  -20.8220   19.8530 C   0  0  0  0  0  2  0  0  0  0  0  0
  -30.5640  -19.3180   19.5370 C   0  0  0  0  0  2  0  0  0  0  0  0
  -30.2520  -18.3780   20.7200 C   0  0  0  0  0  2  0  0  0  0  0  0
  -30.0640  -16.9340   20.2070 C   0  0  0  0  0  2  0  0  0  0  0  0
  -30.1420  -15.8060   21.2710 C   0  0  0  0  0  2  0  0  0  0  0  0
  -30.8010  -14.5390   20.6810 C   0  0  0  0  0  0  0  0  0  0  0  0
  -30.5170  -12.3870   19.5220 C   0  0  0  0  0  2  0  0  0  0  0  0
  -29.6200  -12.6070   18.2870 C   0  0  0  0  0  2  0  0  0  0  0  0
  -28.1310  -12.4760   18.6660 C   0  0  0  0  0  2  0  0  0  0  0  0
  -27.7580  -13.3110   19.9210 C   0  0  0  0  0  3  0  0  0  0  0  0
  -28.7760  -13.0780   21.0600 C   0  0  0  0  0  2  0  0  0  0  0  0
  -30.1180  -13.3710   20.5390 N   0  0  0  0  0  0  0  0  0  0  0  0
  -31.9420  -14.6800   20.2330 O   0  0  0  0  0  0  0  0  0  0  0  0
  -25.3310  -13.9170   20.5310 C   0  0  0  0  0  0  0  0  0  0  0  0
  -24.2540  -13.1440   20.8740 C   0  0  0  0  0  0  0  0  0  0  0  0
  -24.7220  -11.7940   20.8790 C   0  0  0  0  0  0  0  0  0  0  0  0
  -26.3880  -13.0380   20.3540 N   0  0  0  0  0  0  0  0  0  0  0  0
  -26.0230  -11.7570   20.6170 N   0  0  0  0  0  0  0  0  0  0  0  0
  -23.9950  -10.5300   21.0630 C   0  0  0  0  0  0  0  0  0  0  0  0
  -24.4150   -9.5690   22.0080 C   0  0  0  0  0  3  0  0  0  0  0  0
  -23.6890   -8.3700   22.1800 C   0  0  0  0  0  3  0  0  0  0  0  0
  -22.5300   -8.1250   21.4050 C   0  0  0  0  0  0  0  0  0  0  0  0
  -22.1310   -9.0770   20.4500 C   0  0  0  0  0  3  0  0  0  0  0  0
  -22.8570  -10.2660   20.2760 C   0  0  0  0  0  3  0  0  0  0  0  0
  -21.7780   -6.9780   21.4840 O   0  0  0  0  0  0  0  0  0  0  0  0
  -21.7230   -6.2320   22.6340 C   0  0  0  0  0  0  0  0  0  0  0  0
  -21.3050   -6.7870   23.8630 C   0  0  0  0  0  3  0  0  0  0  0  0
  -21.1970   -5.9670   25.0050 C   0  0  0  0  0  3  0  0  0  0  0  0
  -21.4960   -4.5950   24.9180 C   0  0  0  0  0  0  0  0  0  0  0  0
  -21.9040   -4.0390   23.6930 C   0  0  0  0  0  3  0  0  0  0  0  0
  -22.0160   -4.8560   22.5540 C   0  0  0  0  0  0  0  0  0  0  0  0
  -22.3910   -4.3110   21.3710 F   0  0  0  0  0  0  0  0  0  0  0  0
  -21.3840   -3.8050   26.0120 F   0  0  0  0  0  0  0  0  0  0  0  0
  -22.8450  -13.6170   21.0900 C   0  0  0  0  0  0  0  0  0  0  0  0
  -22.0930  -12.9300   21.9430 N   0  0  0  0  0  0  0  0  0  0  0  0
  -22.4200  -14.6330   20.5420 O   0  0  0  0  0  0  0  0  0  0  0  0
  -22.4490  -12.1100   22.4090 H   0  0  0  0  0  0  0  0  0  0  0  0
  -21.1470  -13.2300   22.1330 H   0  0  0  0  0  0  0  0  0  0  0  0
  -25.4960  -15.2850   20.3400 N   0  0  0  0  0  0  0  0  0  0  0  0
  -24.7270  -15.9410   20.4160 H   0  0  0  0  0  0  0  0  0  0  0  0
  -26.3650  -15.7230   20.0570 H   0  0  0  0  0  0  0  0  0  0  0  0
  -32.2820  -26.1080   20.6870 C   0  0  0  0  0  2  0  0  0  0  0  0
  -31.3590  -26.4190   21.8850 C   0  0  0  0  0  2  0  0  0  0  0  0
  -30.1060  -27.2620   21.5550 C   0  0  0  0  0  2  0  0  0  0  0  0
  -28.8620  -26.4220   21.2080 C   0  0  0  0  0  2  0  0  0  0  0  0
  -28.2820  -26.8190   19.9710 O   0  0  0  0  0  0  0  0  0  0  0  0
  -24.5420  -31.9770   23.1910 C   0  0  0  0  0  0  0  0  0  0  0  0
  -27.1330  -27.5600   20.0610 C   0  0  0  0  0  0  0  0  0  0  0  0
  -23.3050  -30.5740   21.5690 C   0  0  0  0  0  3  0  0  0  0  0  0
  -24.7340  -29.0370   20.1220 C   0  0  0  0  0  0  0  0  0  0  0  0
  -25.8220  -30.9390   21.3240 C   0  0  0  0  0  2  0  0  0  0  0  0
  -25.8970  -29.5660   20.6960 C   0  0  0  0  0  0  0  0  0  0  0  0
  -27.1000  -28.8310   20.6750 C   0  0  0  0  0  3  0  0  0  0  0  0
  -25.9620  -27.0400   19.4780 C   0  0  0  0  0  3  0  0  0  0  0  0
  -24.7580  -27.7690   19.5150 C   0  0  0  0  0  3  0  0  0  0  0  0
  -23.4900  -29.8930   20.1860 C   0  0  0  0  0  2  0  0  0  0  0  0
  -24.5750  -31.1790   22.0860 N   0  0  0  0  0  0  0  0  0  0  0  0
  -23.4720  -32.2490   23.7500 O   0  0  0  0  0  0  0  0  0  0  0  0
  -22.6720  -29.5530   22.5410 C   0  0  0  0  0  0  0  0  0  0  0  0
  -21.3460  -29.3670   22.4300 N   0  0  0  0  0  0  0  0  0  0  0  0
  -23.3680  -28.9330   23.3480 O   0  0  0  0  0  0  0  0  0  0  0  0
  -20.8470  -29.9200   21.7460 H   0  0  0  0  0  0  0  0  0  0  0  0
  -17.9840  -28.1510   22.9540 C   0  0  0  0  0  0  0  0  0  0  0  0
  -20.5410  -28.4300   23.2120 C   0  0  0  0  0  3  0  0  0  0  0  0
  -20.6520  -26.9960   22.6470 C   0  0  0  0  0  2  0  0  0  0  0  0
  -19.5470  -26.6560   21.6400 C   0  0  0  0  0  2  0  0  0  0  0  0
  -18.1680  -26.7970   22.2900 C   0  0  0  0  0  2  0  0  0  0  0  0
  -19.0990  -28.9250   23.3720 C   0  0  0  0  0  0  0  0  0  0  0  0
  -18.8740  -30.1930   23.9520 C   0  0  0  0  0  3  0  0  0  0  0  0
  -17.5660  -30.6870   24.1190 C   0  0  0  0  0  3  0  0  0  0  0  0
  -16.4650  -29.9110   23.7180 C   0  0  0  0  0  3  0  0  0  0  0  0
  -16.6750  -28.6450   23.1400 C   0  0  0  0  0  3  0  0  0  0  0  0
  -25.8410  -32.6050   23.7860 C   0  0  0  0  0  3  0  0  0  0  0  0
  -26.3930  -31.8210   25.0390 C   0  0  1  0  0  0  0  0  0  0  0  0
  -25.3280  -31.5700   26.1330 C   0  0  0  0  0  1  0  0  0  0  0  0
  -26.9680  -30.4500   24.6150 C   0  0  0  0  0  1  0  0  0  0  0  0
  -27.5600  -32.6100   25.6810 C   0  0  0  0  0  1  0  0  0  0  0  0
  -25.5410  -33.9990   24.1330 N   0  0  0  0  0  0  0  0  0  0  0  0
  -25.8670  -35.0560   23.3770 C   0  0  0  0  0  0  0  0  0  0  0  0
  -26.5260  -34.9590   22.3370 O   0  0  0  0  0  0  0  0  0  0  0  0
  -24.9590  -34.1500   24.9440 H   0  0  0  0  0  0  0  0  0  0  0  0
  -24.1440  -36.8550   23.0420 C   0  0  0  0  0  1  0  0  0  0  0  0
  -25.3860  -36.4410   23.8470 C   0  0  0  0  0  3  0  0  0  0  0  0
  -27.5320  -37.3030   24.6740 C   0  0  0  0  0  1  0  0  0  0  0  0
  -26.4230  -37.4910   23.7410 N   0  0  0  0  0  0  0  0  0  0  0  0
  -26.0230  -38.4110   23.9030 H   0  0  0  0  0  0  0  0  0  0  0  0
  1  4  1  0
  2  1  2  0
  2  6  1  0
  4  3  2  0
  5  3  1  0
  5 51  1  0
  6  5  2  0
  7  6  1  0
  8  7  1  0
  9  4  1  0
  9 10  1  0
 11 10  1  0
 11 12  1  0
 13 12  1  0
 13 14  1  0
 15 14  1  0
 16 21  1  0
 17 18  1  0
 17 16  1  0
 19 18  1  0
 19 26  1  0
 19 20  1  0
 21 15  1  0
 21 20  1  0
 22 15  2  0
 23 24  2  0
 24 25  1  0
 24 43  1  0
 25 28  1  0
 26 23  1  0
 26 27  1  0
 27 25  2  0
 28 29  1  0
 29 30  2  0
 31 34  1  0
 31 30  1  0
 32 31  2  0
 33 32  1  0
 33 28  2  0
 34 35  1  0
 35 36  1  0
 36 37  2  0
 38 37  1  0
 38 42  1  0
 39 38  2  0
 40 35  2  0
 40 39  1  0
 41 40  1  0
 43 44  1  0
 44 47  1  0
 44 46  1  0
 45 43  2  0
 48 49  1  0
 48 23  1  0
 50 48  1  0
 51 52  1  0
 53 52  1  0
 54 53  1  0
 55 57  1  0
 55 54  1  0
 56 67  2  0
 57 62  1  0
 58 66  1  0
 58 68  1  0
 59 65  1  0
 59 61  1  0
 60 66  1  0
 61 60  1  0
 62 61  2  0
 63 64  1  0
 63 57  2  0
 64 59  2  0
 65 58  1  0
 66 56  1  0
 68 70  2  0
 69 68  1  0
 71 69  1  0
 72 81  2  0
 72 77  1  0
 73 69  1  0
 73 77  1  0
 74 73  1  0
 75 76  1  0
 75 74  1  0
 76 72  1  0
 77 78  2  0
 78 79  1  0
 80 79  2  0
 81 80  1  0
 82 56  1  0
 82 87  1  0
 82 83  1  0
 83 86  1  1
 83 84  1  0
 85 83  1  0
 87 90  1  0
 88 92  1  0
 88 87  1  0
 89 88  2  0
 92 91  1  0
 94 92  1  0
 94 95  1  0
 94 93  1  0
M  ISO  4  14 100  15 100  54 101  55 101
M  END
>  <TORSDO>  (11) 
F 27

>  <SCORE>  (11) 
-11.627

>  <name>  (11) 
10

>  <ligand_id>  (11) 
10

>  <original_smiles>  (11) 
[H]Oc1c([H])c([H])c(C([H])([H])C([H])([H])C([H])([H])C([H])([H])C([H])([H])C([H])([H])C(=O)N2C([H])([H])C([H])([H])C([H])([H])C([H])(n3nc(-c4c([H])c([H])c(Oc5c([H])c([H])c(F)c([H])c5F)c([H])c4[H])c(C(=O)N([H])[H])c3N([H])[H])C2([H])[H])c([H])c1C([H])([H])C([H])([H])C([H])([H])C([H])([H])Oc1c([H])c([H])c2c(c1[H])C([H])([H])N(C(=O)C([H])(N([H])C(=O)C([H])(N([H])C([H])([H])[H])C([H])([H])[H])C(C([H])([H])[H])(C([H])([H])[H])C([H])([H])[H])C([H])(C(=O)N([H])C1([H])c3c([H])c([H])c([H])c([H])c3C([H])([H])C([H])([H])C1([H])[H])C2([H])[H]

>  <smiles>  (11) 
[H]Oc1c([H])c([H])c(C([H])([H])C([H])([H])C([H])([H])C([H])([H])C([H])([H])C([H])([H])C(=O)N2C([H])([H])C([H])([H])C([H])([H])C([H])(n3nc(-c4c([H])c([H])c(Oc5c([H])c([H])c(F)c([H])c5F)c([H])c4[H])c(C(=O)N([H])[H])c3N([H])[H])C2([H])[H])c([H])c1C([H])([H])C([H])([H])C([H])([H])C([H])([H])Oc1c([H])c([H])c2c(c1[H])C([H])([H])N(C(=O)C([H])(N([H])C(=O)C([H])(N([H])C([H])([H])[H])C([H])([H])[H])C(C([H])([H])[H])(C([H])([H])[H])C([H])([H])[H])C([H])(C(=O)N([H])C1([H])c3c([H])c([H])c([H])c([H])c3C([H])([H])C([H])([H])C1([H])[H])C2([H])[H]

$$$$
11:0:0
     RDKit          3D

 95102  0  0  1  0  0  0  0  0999 V2000
  -31.0100  -24.4600   20.9160 C   0  0  0  0  0  0  0  0  0  0  0  0
  -30.9610  -24.2000   22.1190 O   0  0  0  0  0  0  0  0  0  0  0  0
  -30.1180  -25.5030   20.2230 C   0  0  0  0  0  2  0  0  0  0  0  0
  -29.1850  -26.4760   21.0160 C   0  0  2  0  0  0  0  0  0  0  0  0
  -31.2590  -27.5670   22.2910 C   0  0  0  0  0  1  0  0  0  0  0  0
  -29.9260  -27.7450   21.5460 C   0  0  0  0  0  2  0  0  0  0  0  0
  -28.6380  -25.8670   23.5500 C   0  0  0  0  0  1  0  0  0  0  0  0
  -28.2630  -25.7610   22.0610 C   0  0  0  0  0  2  0  0  0  0  0  0
  -28.3620  -26.8460   19.8810 O   0  0  0  0  0  0  0  0  0  0  0  0
  -24.5150  -31.9230   23.1270 C   0  0  0  0  0  0  0  0  0  0  0  0
  -27.1910  -27.5690   19.9990 C   0  0  0  0  0  0  0  0  0  0  0  0
  -23.2970  -30.5070   21.5010 C   0  0  0  0  0  3  0  0  0  0  0  0
  -24.7470  -28.9970   20.0480 C   0  0  0  0  0  0  0  0  0  0  0  0
  -25.8000  -30.9260   21.2430 C   0  0  0  0  0  2  0  0  0  0  0  0
  -25.9000  -29.5550   20.6110 C   0  0  0  0  0  0  0  0  0  0  0  0
  -27.1220  -28.8560   20.5750 C   0  0  0  0  0  3  0  0  0  0  0  0
  -26.0240  -27.0200   19.4260 C   0  0  0  0  0  3  0  0  0  0  0  0
  -24.8020  -27.7250   19.4530 C   0  0  0  0  0  3  0  0  0  0  0  0
  -23.4860  -29.8300   20.1170 C   0  0  0  0  0  2  0  0  0  0  0  0
  -24.5560  -31.1310   22.0180 N   0  0  0  0  0  0  0  0  0  0  0  0
  -23.4430  -32.1760   23.6930 O   0  0  0  0  0  0  0  0  0  0  0  0
  -22.6820  -29.4740   22.4720 C   0  0  0  0  0  0  0  0  0  0  0  0
  -21.3640  -29.2550   22.3490 N   0  0  0  0  0  0  0  0  0  0  0  0
  -23.3890  -28.8740   23.2850 O   0  0  0  0  0  0  0  0  0  0  0  0
  -20.8550  -29.7940   21.6620 H   0  0  0  0  0  0  0  0  0  0  0  0
  -18.0330  -27.9480   22.8350 C   0  0  0  0  0  0  0  0  0  0  0  0
  -20.5770  -28.2970   23.1260 C   0  0  0  0  0  3  0  0  0  0  0  0
  -20.7350  -26.8650   22.5660 C   0  0  0  0  0  2  0  0  0  0  0  0
  -19.6530  -26.4920   21.5470 C   0  0  0  0  0  2  0  0  0  0  0  0
  -18.2610  -26.5970   22.1800 C   0  0  0  0  0  2  0  0  0  0  0  0
  -19.1210  -28.7530   23.2660 C   0  0  0  0  0  0  0  0  0  0  0  0
  -18.8550  -30.0160   23.8380 C   0  0  0  0  0  3  0  0  0  0  0  0
  -17.5330  -30.4740   23.9870 C   0  0  0  0  0  3  0  0  0  0  0  0
  -16.4590  -29.6660   23.5750 C   0  0  0  0  0  3  0  0  0  0  0  0
  -16.7090  -28.4060   23.0060 C   0  0  0  0  0  3  0  0  0  0  0  0
  -25.8060  -32.5660   23.7240 C   0  0  0  0  0  3  0  0  0  0  0  0
  -26.3790  -31.7780   24.9650 C   0  0  1  0  0  0  0  0  0  0  0  0
  -25.3230  -31.4830   26.0540 C   0  0  0  0  0  1  0  0  0  0  0  0
  -26.9910  -30.4300   24.5150 C   0  0  0  0  0  1  0  0  0  0  0  0
  -27.5250  -32.5860   25.6170 C   0  0  0  0  0  1  0  0  0  0  0  0
  -25.4820  -33.9510   24.0910 N   0  0  0  0  0  0  0  0  0  0  0  0
  -25.8010  -35.0260   23.3560 C   0  0  0  0  0  0  0  0  0  0  0  0
  -26.4700  -34.9550   22.3220 O   0  0  0  0  0  0  0  0  0  0  0  0
  -24.8890  -34.0790   24.8970 H   0  0  0  0  0  0  0  0  0  0  0  0
  -24.0660  -36.8140   23.0230 C   0  0  0  0  0  1  0  0  0  0  0  0
  -25.2940  -36.3950   23.8480 C   0  0  0  0  0  3  0  0  0  0  0  0
  -27.4040  -37.2660   24.7520 C   0  0  0  0  0  1  0  0  0  0  0  0
  -26.3200  -37.4580   23.7900 N   0  0  0  0  0  0  0  0  0  0  0  0
  -25.9060  -38.3700   23.9580 H   0  0  0  0  0  0  0  0  0  0  0  0
  -31.9890  -23.7110   20.0090 C   0  0  0  0  0  2  0  0  0  0  0  0
  -31.8380  -22.1770   20.0750 C   0  0  0  0  0  2  0  0  0  0  0  0
  -30.5000  -21.6640   19.5120 C   0  0  0  0  0  2  0  0  0  0  0  0
  -30.3570  -20.1360   19.5770 C   0  0  0  0  0  2  0  0  0  0  0  0
  -29.0150  -19.6690   18.9870 C   0  0  0  0  0  2  0  0  0  0  0  0
  -28.8110  -18.1440   18.9790 C   0  0  0  0  0  2  0  0  0  0  0  0
  -28.6980  -17.4950   20.3720 C   0  0  0  0  0  2  0  0  0  0  0  0
  -30.0060  -16.8840   20.9150 C   0  0  0  0  0  2  0  0  0  0  0  0
  -30.4980  -14.5490   20.1980 C   0  0  0  0  0  0  0  0  0  0  0  0
  -30.1510  -12.4620   18.9430 C   0  0  0  0  0  2  0  0  0  0  0  0
  -29.1450  -12.7270   17.8030 C   0  0  0  0  0  2  0  0  0  0  0  0
  -27.6930  -12.5680   18.2980 C   0  0  0  0  0  2  0  0  0  0  0  0
  -27.4210  -13.3290   19.6240 C   0  0  0  0  0  3  0  0  0  0  0  0
  -28.5320  -13.0370   20.6600 C   0  0  0  0  0  2  0  0  0  0  0  0
  -29.8350  -13.3750   20.0490 N   0  0  0  0  0  0  0  0  0  0  0  0
  -31.5270  -14.8420   19.5810 O   0  0  0  0  0  0  0  0  0  0  0  0
  -29.8750  -15.4330   20.9830 N   0  0  0  0  0  0  0  0  0  0  0  0
  -29.0840  -15.0740   21.4950 H   0  0  0  0  0  0  0  0  0  0  0  0
  -25.0250  -13.8810   20.4040 C   0  0  0  0  0  0  0  0  0  0  0  0
  -23.9960  -13.0840   20.8290 C   0  0  0  0  0  0  0  0  0  0  0  0
  -24.4960  -11.7470   20.8010 C   0  0  0  0  0  0  0  0  0  0  0  0
  -26.0880  -13.0290   20.1520 N   0  0  0  0  0  0  0  0  0  0  0  0
  -25.7720  -11.7400   20.4400 N   0  0  0  0  0  0  0  0  0  0  0  0
  -23.8180  -10.4660   21.0400 C   0  0  0  0  0  0  0  0  0  0  0  0
  -24.3000   -9.5450   21.9940 C   0  0  0  0  0  3  0  0  0  0  0  0
  -23.6220   -8.3270   22.2190 C   0  0  0  0  0  3  0  0  0  0  0  0
  -22.4480   -8.0230   21.4880 C   0  0  0  0  0  0  0  0  0  0  0  0
  -21.9890   -8.9320   20.5200 C   0  0  0  0  0  3  0  0  0  0  0  0
  -22.6670  -10.1410   20.2950 C   0  0  0  0  0  3  0  0  0  0  0  0
  -21.7410   -6.8540   21.6210 O   0  0  0  0  0  0  0  0  0  0  0  0
  -21.7190   -6.1550   22.8010 C   0  0  0  0  0  0  0  0  0  0  0  0
  -21.2470   -6.7310   24.0010 C   0  0  0  0  0  3  0  0  0  0  0  0
  -21.1780   -5.9520   25.1740 C   0  0  0  0  0  3  0  0  0  0  0  0
  -21.5700   -4.6010   25.1490 C   0  0  0  0  0  0  0  0  0  0  0  0
  -22.0320   -4.0250   23.9540 C   0  0  0  0  0  3  0  0  0  0  0  0
  -22.1040   -4.7990   22.7820 C   0  0  0  0  0  0  0  0  0  0  0  0
  -22.5310   -4.2330   21.6270 F   0  0  0  0  0  0  0  0  0  0  0  0
  -21.4930   -3.8500   26.2730 F   0  0  0  0  0  0  0  0  0  0  0  0
  -22.5950  -13.5220   21.1470 C   0  0  0  0  0  0  0  0  0  0  0  0
  -21.9230  -12.8150   22.0490 N   0  0  0  0  0  0  0  0  0  0  0  0
  -22.1050  -14.5230   20.6270 O   0  0  0  0  0  0  0  0  0  0  0  0
  -22.3370  -12.0080   22.4920 H   0  0  0  0  0  0  0  0  0  0  0  0
  -20.9840  -13.0870   22.2970 H   0  0  0  0  0  0  0  0  0  0  0  0
  -25.1390  -15.2520   20.1910 N   0  0  0  0  0  0  0  0  0  0  0  0
  -24.3630  -15.8900   20.3300 H   0  0  0  0  0  0  0  0  0  0  0  0
  -25.9520  -15.6980   19.7880 H   0  0  0  0  0  0  0  0  0  0  0  0
  1  2  2  0
  3  1  1  0
  4  3  1  6
  4  6  1  0
  4  8  1  0
  6  5  1  0
  8  7  1  0
  9 11  1  0
  9  4  1  0
 10 21  2  0
 11 16  1  0
 12 20  1  0
 12 22  1  0
 13 19  1  0
 13 15  1  0
 14 20  1  0
 15 14  1  0
 16 15  2  0
 17 18  1  0
 17 11  2  0
 18 13  2  0
 19 12  1  0
 20 10  1  0
 22 24  2  0
 23 22  1  0
 25 23  1  0
 26 35  2  0
 26 31  1  0
 27 23  1  0
 27 31  1  0
 28 27  1  0
 29 30  1  0
 29 28  1  0
 30 26  1  0
 31 32  2  0
 32 33  1  0
 34 33  2  0
 35 34  1  0
 36 10  1  0
 36 41  1  0
 36 37  1  0
 37 40  1  1
 37 38  1  0
 39 37  1  0
 41 44  1  0
 42 46  1  0
 42 41  1  0
 43 42  2  0
 46 45  1  0
 48 46  1  0
 48 49  1  0
 48 47  1  0
 50 51  1  0
 50  1  1  0
 52 53  1  0
 52 51  1  0
 54 53  1  0
 55 54  1  0
 55 56  1  0
 56 57  1  0
 57 66  1  0
 58 66  1  0
 59 64  1  0
 60 61  1  0
 60 59  1  0
 62 61  1  0
 62 71  1  0
 62 63  1  0
 64 58  1  0
 64 63  1  0
 65 58  2  0
 66 67  1  0
 68 69  2  0
 69 88  1  0
 70 69  1  0
 70 73  1  0
 71 68  1  0
 71 72  1  0
 72 70  2  0
 73 74  1  0
 74 75  2  0
 76 79  1  0
 76 75  1  0
 77 76  2  0
 78 77  1  0
 78 73  2  0
 79 80  1  0
 80 81  1  0
 81 82  2  0
 83 82  1  0
 83 87  1  0
 84 83  2  0
 85 80  2  0
 85 84  1  0
 86 85  1  0
 88 89  1  0
 89 92  1  0
 89 91  1  0
 90 88  2  0
 93 94  1  0
 93 68  1  0
 95 93  1  0
M  ISO  4   4 101   9 101  58 100  66 100
M  END
>  <TORSDO>  (12) 
F 28

>  <SCORE>  (12) 
-11.170

>  <name>  (12) 
11

>  <ligand_id>  (12) 
11

>  <original_smiles>  (12) 
[H]c1c([H])c([H])c2c(c1[H])C([H])([H])C([H])([H])C([H])([H])C2([H])N([H])C(=O)C1([H])N(C(=O)C([H])(N([H])C(=O)C([H])(N([H])C([H])([H])[H])C([H])([H])[H])C(C([H])([H])[H])(C([H])([H])[H])C([H])([H])[H])C([H])([H])c2c([H])c(OC(C([H])([H])C(=O)C([H])([H])C([H])([H])C([H])([H])C([H])([H])C([H])([H])C([H])([H])C([H])([H])C([H])([H])N([H])C(=O)N3C([H])([H])C([H])([H])C([H])([H])C([H])(n4nc(-c5c([H])c([H])c(Oc6c([H])c([H])c(F)c([H])c6F)c([H])c5[H])c(C(=O)N([H])[H])c4N([H])[H])C3([H])[H])(C([H])([H])C([H])([H])[H])C([H])([H])C([H])([H])[H])c([H])c([H])c2C1([H])[H]

>  <smiles>  (12) 
[H]c1c([H])c([H])c2c(c1[H])C([H])([H])C([H])([H])C([H])([H])C2([H])N([H])C(=O)C1([H])N(C(=O)C([H])(N([H])C(=O)C([H])(N([H])C([H])([H])[H])C([H])([H])[H])C(C([H])([H])[H])(C([H])([H])[H])C([H])([H])[H])C([H])([H])c2c([H])c(OC(C([H])([H])C(=O)C([H])([H])C([H])([H])C([H])([H])C([H])([H])C([H])([H])C([H])([H])C([H])([H])C([H])([H])N([H])C(=O)N3C([H])([H])C([H])([H])C([H])([H])C([H])(n4nc(-c5c([H])c([H])c(Oc6c([H])c([H])c(F)c([H])c6F)c([H])c5[H])c(C(=O)N([H])[H])c4N([H])[H])C3([H])[H])(C([H])([H])C([H])([H])[H])C([H])([H])C([H])([H])[H])c([H])c([H])c2C1([H])[H]

$$$$
12:0:0
     RDKit          3D

 94103  0  0  1  0  0  0  0  0999 V2000
  -31.8400  -20.0120   20.4470 C   0  0  0  0  0  3  0  0  0  0  0  0
  -30.0280  -20.0560   22.0620 C   0  0  0  0  0  3  0  0  0  0  0  0
  -31.9060  -21.4250   20.4820 C   0  0  0  0  0  3  0  0  0  0  0  0
  -30.0860  -21.4670   22.0880 C   0  0  0  0  0  3  0  0  0  0  0  0
  -30.9130  -19.3090   21.2510 C   0  0  0  0  0  0  0  0  0  0  0  0
  -31.0400  -22.1640   21.3170 C   0  0  0  0  0  0  0  0  0  0  0  0
  -30.9380  -17.7710   21.3140 C   0  0  0  0  0  2  0  0  0  0  0  0
  -28.8450  -18.1800   18.9710 C   0  0  0  0  0  2  0  0  0  0  0  0
  -29.9780  -17.1550   18.9070 C   0  0  0  0  0  2  0  0  0  0  0  0
  -28.4650  -17.5600   20.3160 C   0  0  0  0  0  2  0  0  0  0  0  0
  -29.9040  -17.0020   20.4480 C   0  0  2  0  0  0  0  0  0  0  0  0
  -30.6330  -14.5500   20.4720 C   0  0  0  0  0  0  0  0  0  0  0  0
  -30.3890  -12.3640   19.3660 C   0  0  0  0  0  2  0  0  0  0  0  0
  -29.4640  -12.5550   18.1430 C   0  0  0  0  0  2  0  0  0  0  0  0
  -27.9800  -12.4250   18.5460 C   0  0  0  0  0  2  0  0  0  0  0  0
  -27.6220  -13.2690   19.7990 C   0  0  0  0  0  3  0  0  0  0  0  0
  -28.6600  -13.0520   20.9260 C   0  0  0  0  0  2  0  0  0  0  0  0
  -29.9950  -13.3510   20.3810 N   0  0  0  0  0  0  0  0  0  0  0  0
  -31.7740  -14.7410   20.0420 O   0  0  0  0  0  0  0  0  0  0  0  0
  -29.8300  -15.5720   20.8380 N   0  0  0  0  0  0  0  0  0  0  0  0
  -28.9450  -15.2800   21.2230 H   0  0  0  0  0  0  0  0  0  0  0  0
  -25.2090  -13.8870   20.4530 C   0  0  0  0  0  0  0  0  0  0  0  0
  -24.1350  -13.1210   20.8160 C   0  0  0  0  0  0  0  0  0  0  0  0
  -24.5960  -11.7700   20.8120 C   0  0  0  0  0  0  0  0  0  0  0  0
  -26.2600  -13.0040   20.2550 N   0  0  0  0  0  0  0  0  0  0  0  0
  -25.8920  -11.7250   20.5270 N   0  0  0  0  0  0  0  0  0  0  0  0
  -23.8670  -10.5100   21.0050 C   0  0  0  0  0  0  0  0  0  0  0  0
  -24.2870   -9.5520   21.9530 C   0  0  0  0  0  3  0  0  0  0  0  0
  -23.5580   -8.3570   22.1340 C   0  0  0  0  0  3  0  0  0  0  0  0
  -22.3950   -8.1120   21.3650 C   0  0  0  0  0  0  0  0  0  0  0  0
  -21.9940   -9.0600   20.4070 C   0  0  0  0  0  3  0  0  0  0  0  0
  -22.7240  -10.2460   20.2240 C   0  0  0  0  0  3  0  0  0  0  0  0
  -21.6390   -6.9670   21.4530 O   0  0  0  0  0  0  0  0  0  0  0  0
  -21.5720   -6.2370   22.6120 C   0  0  0  0  0  0  0  0  0  0  0  0
  -21.1310   -6.8070   23.8280 C   0  0  0  0  0  3  0  0  0  0  0  0
  -21.0100   -6.0030   24.9780 C   0  0  0  0  0  3  0  0  0  0  0  0
  -21.3200   -4.6320   24.9160 C   0  0  0  0  0  0  0  0  0  0  0  0
  -21.7580   -4.0630   23.7060 C   0  0  0  0  0  3  0  0  0  0  0  0
  -21.8800   -4.8630   22.5570 C   0  0  0  0  0  0  0  0  0  0  0  0
  -22.2800   -4.3070   21.3900 F   0  0  0  0  0  0  0  0  0  0  0  0
  -21.1990   -3.8580   26.0190 F   0  0  0  0  0  0  0  0  0  0  0  0
  -22.7330  -13.6040   21.0570 C   0  0  0  0  0  0  0  0  0  0  0  0
  -21.9870  -12.9210   21.9170 N   0  0  0  0  0  0  0  0  0  0  0  0
  -22.3080  -14.6240   20.5160 O   0  0  0  0  0  0  0  0  0  0  0  0
  -22.3420  -12.1000   22.3830 H   0  0  0  0  0  0  0  0  0  0  0  0
  -21.0460  -13.2300   22.1160 H   0  0  0  0  0  0  0  0  0  0  0  0
  -25.3750  -15.2540   20.2540 N   0  0  0  0  0  0  0  0  0  0  0  0
  -24.6040  -15.9080   20.3310 H   0  0  0  0  0  0  0  0  0  0  0  0
  -26.2140  -15.6730   19.8770 H   0  0  0  0  0  0  0  0  0  0  0  0
  -31.2120  -23.6760   21.4830 C   0  0  0  0  0  2  0  0  0  0  0  0
  -30.3460  -24.5770   20.5700 C   0  0  0  0  0  2  0  0  0  0  0  0
  -30.3910  -26.0620   21.0240 C   0  0  0  0  0  2  0  0  0  0  0  0
  -29.6320  -27.0770   20.1380 C   0  0  0  0  0  2  0  0  0  0  0  0
  -28.2890  -26.6430   19.9810 O   0  0  0  0  0  0  0  0  0  0  0  0
  -24.5800  -31.8920   23.2240 C   0  0  0  0  0  0  0  0  0  0  0  0
  -27.2020  -27.4880   20.0670 C   0  0  0  0  0  0  0  0  0  0  0  0
  -23.3530  -30.5030   21.5870 C   0  0  0  0  0  3  0  0  0  0  0  0
  -24.7920  -28.9780   20.1350 C   0  0  0  0  0  0  0  0  0  0  0  0
  -25.8740  -30.8690   21.3570 C   0  0  0  0  0  2  0  0  0  0  0  0
  -25.9580  -29.5010   20.7080 C   0  0  0  0  0  0  0  0  0  0  0  0
  -27.1690  -28.7670   20.6780 C   0  0  0  0  0  3  0  0  0  0  0  0
  -26.0130  -26.9750   19.5120 C   0  0  0  0  0  3  0  0  0  0  0  0
  -24.8130  -27.7070   19.5350 C   0  0  0  0  0  3  0  0  0  0  0  0
  -23.5450  -29.8310   20.2010 C   0  0  0  0  0  2  0  0  0  0  0  0
  -24.6210  -31.1010   22.1150 N   0  0  0  0  0  0  0  0  0  0  0  0
  -23.5070  -32.1610   23.7800 O   0  0  0  0  0  0  0  0  0  0  0  0
  -22.7140  -29.4740   22.5490 C   0  0  0  0  0  0  0  0  0  0  0  0
  -21.3880  -29.2910   22.4350 N   0  0  0  0  0  0  0  0  0  0  0  0
  -23.4060  -28.8450   23.3540 O   0  0  0  0  0  0  0  0  0  0  0  0
  -20.8920  -29.8510   21.7580 H   0  0  0  0  0  0  0  0  0  0  0  0
  -18.0210  -28.0840   22.9510 C   0  0  0  0  0  0  0  0  0  0  0  0
  -20.5790  -28.3480   23.2090 C   0  0  0  0  0  3  0  0  0  0  0  0
  -20.6830  -26.9190   22.6290 C   0  0  0  0  0  2  0  0  0  0  0  0
  -19.5740  -26.5950   21.6200 C   0  0  0  0  0  2  0  0  0  0  0  0
  -18.1980  -26.7360   22.2730 C   0  0  0  0  0  2  0  0  0  0  0  0
  -19.1400  -28.8480   23.3770 C   0  0  0  0  0  0  0  0  0  0  0  0
  -18.9220  -30.1110   23.9700 C   0  0  0  0  0  3  0  0  0  0  0  0
  -17.6170  -30.6080   24.1450 C   0  0  0  0  0  3  0  0  0  0  0  0
  -16.5130  -29.8410   23.7360 C   0  0  0  0  0  3  0  0  0  0  0  0
  -16.7160  -28.5810   23.1440 C   0  0  0  0  0  3  0  0  0  0  0  0
  -25.8740  -32.5190   23.8310 C   0  0  0  0  0  3  0  0  0  0  0  0
  -25.5720  -33.9150   24.1700 N   0  0  0  0  0  0  0  0  0  0  0  0
  -25.9030  -34.9700   23.4130 C   0  0  0  0  0  0  0  0  0  0  0  0
  -26.5660  -34.8700   22.3770 O   0  0  0  0  0  0  0  0  0  0  0  0
  -24.9810  -34.0680   24.9750 H   0  0  0  0  0  0  0  0  0  0  0  0
  -24.1830  -36.7730   23.0720 C   0  0  0  0  0  1  0  0  0  0  0  0
  -25.4210  -36.3560   23.8800 C   0  0  0  0  0  3  0  0  0  0  0  0
  -27.5600  -37.2240   24.7190 C   0  0  0  0  0  1  0  0  0  0  0  0
  -26.4590  -37.4050   23.7760 N   0  0  0  0  0  0  0  0  0  0  0  0
  -26.0570  -38.3260   23.9260 H   0  0  0  0  0  0  0  0  0  0  0  0
  -26.4110  -31.7380   25.0930 C   0  0  1  0  0  0  0  0  0  0  0  0
  -25.3360  -31.4950   26.1780 C   0  0  0  0  0  1  0  0  0  0  0  0
  -26.9870  -30.3650   24.6790 C   0  0  0  0  0  1  0  0  0  0  0  0
  -27.5730  -32.5270   25.7400 C   0  0  0  0  0  1  0  0  0  0  0  0
  1  3  2  0
  1  5  1  0
  2  4  1  0
  3  6  1  0
  5  7  1  0
  5  2  2  0
  6 50  1  0
  6  4  2  0
  8 10  1  0
  9  8  1  0
  9 11  1  0
 10 11  1  0
 11 20  1  0
 11  7  1  1
 12 20  1  0
 13 18  1  0
 14 15  1  0
 14 13  1  0
 16 15  1  0
 16 25  1  0
 16 17  1  0
 18 12  1  0
 18 17  1  0
 19 12  2  0
 20 21  1  0
 22 23  2  0
 23 42  1  0
 24 23  1  0
 24 27  1  0
 25 22  1  0
 25 26  1  0
 26 24  2  0
 27 28  1  0
 28 29  2  0
 30 33  1  0
 30 29  1  0
 31 30  2  0
 32 31  1  0
 32 27  2  0
 33 34  1  0
 34 35  1  0
 35 36  2  0
 37 36  1  0
 37 41  1  0
 38 37  2  0
 39 34  2  0
 39 38  1  0
 40 39  1  0
 42 43  1  0
 43 46  1  0
 43 45  1  0
 44 42  2  0
 47 48  1  0
 47 22  1  0
 49 47  1  0
 51 52  1  0
 51 50  1  0
 53 52  1  0
 54 56  1  0
 54 53  1  0
 55 66  2  0
 56 61  1  0
 57 65  1  0
 57 67  1  0
 58 64  1  0
 58 60  1  0
 59 65  1  0
 60 59  1  0
 61 60  2  0
 62 63  1  0
 62 56  2  0
 63 58  2  0
 64 57  1  0
 65 55  1  0
 67 69  2  0
 68 67  1  0
 70 68  1  0
 71 80  2  0
 71 76  1  0
 72 68  1  0
 72 76  1  0
 73 72  1  0
 74 75  1  0
 74 73  1  0
 75 71  1  0
 76 77  2  0
 77 78  1  0
 79 78  2  0
 80 79  1  0
 81 55  1  0
 81 82  1  0
 81 91  1  0
 82 85  1  0
 83 87  1  0
 83 82  1  0
 84 83  2  0
 87 86  1  0
 89 87  1  0
 89 90  1  0
 89 88  1  0
 91 94  1  1
 91 92  1  0
 93 91  1  0
M  ISO  4  12 100  20 100  53 101  54 101
M  END
>  <TORSDO>  (13) 
F 22

>  <SCORE>  (13) 
-13.061

>  <name>  (13) 
12

>  <ligand_id>  (13) 
12

>  <original_smiles>  (13) 
[H]c1c([H])c([H])c2c(c1[H])C([H])([H])C([H])([H])C([H])([H])C2([H])N([H])C(=O)C1([H])N(C(=O)C([H])(N([H])C(=O)C([H])(N([H])C([H])([H])[H])C([H])([H])[H])C(C([H])([H])[H])(C([H])([H])[H])C([H])([H])[H])C([H])([H])c2c([H])c(OC([H])([H])C([H])([H])C([H])([H])C([H])([H])c3c([H])c([H])c(C([H])([H])C4(N([H])C(=O)N5C([H])([H])C([H])([H])C([H])([H])C([H])(n6nc(-c7c([H])c([H])c(Oc8c([H])c([H])c(F)c([H])c8F)c([H])c7[H])c(C(=O)N([H])[H])c6N([H])[H])C5([H])[H])C([H])([H])C([H])([H])C4([H])[H])c([H])c3[H])c([H])c([H])c2C1([H])[H]

>  <smiles>  (13) 
[H]c1c([H])c([H])c2c(c1[H])C([H])([H])C([H])([H])C([H])([H])C2([H])N([H])C(=O)C1([H])N(C(=O)C([H])(N([H])C(=O)C([H])(N([H])C([H])([H])[H])C([H])([H])[H])C(C([H])([H])[H])(C([H])([H])[H])C([H])([H])[H])C([H])([H])c2c([H])c(OC([H])([H])C([H])([H])C([H])([H])C([H])([H])c3c([H])c([H])c(C([H])([H])C4(N([H])C(=O)N5C([H])([H])C([H])([H])C([H])([H])C([H])(n6nc(-c7c([H])c([H])c(Oc8c([H])c([H])c(F)c([H])c8F)c([H])c7[H])c(C(=O)N([H])[H])c6N([H])[H])C5([H])[H])C([H])([H])C([H])([H])C4([H])[H])c([H])c3[H])c([H])c([H])c2C1([H])[H]

$$$$
13:0:0
     RDKit          3D

 94101  0  0  1  0  0  0  0  0999 V2000
  -30.8310  -26.2260   23.7790 C   0  0  0  0  0  0  0  0  0  0  0  0
  -31.9770  -26.3130   23.3330 O   0  0  0  0  0  0  0  0  0  0  0  0
  -29.6930  -27.0800   23.2160 C   0  0  0  0  0  2  0  0  0  0  0  0
  -28.6490  -26.2720   22.4110 C   0  0  0  0  0  2  0  0  0  0  0  0
  -28.9460  -26.1280   20.9010 C   0  0  0  0  0  2  0  0  0  0  0  0
  -28.5990  -27.3950   20.0990 C   0  0  0  0  0  2  0  0  0  0  0  0
  -27.4570  -27.1790   19.2600 O   0  0  0  0  0  0  0  0  0  0  0  0
  -24.3620  -32.0920   23.3560 C   0  0  0  0  0  0  0  0  0  0  0  0
  -26.3790  -28.0120   19.4680 C   0  0  0  0  0  0  0  0  0  0  0  0
  -22.8940  -31.0140   21.6760 C   0  0  0  0  0  3  0  0  0  0  0  0
  -24.0850  -29.6090   19.9100 C   0  0  0  0  0  0  0  0  0  0  0  0
  -25.3980  -31.2660   21.2520 C   0  0  0  0  0  2  0  0  0  0  0  0
  -25.3230  -29.9980   20.4340 C   0  0  0  0  0  0  0  0  0  0  0  0
  -26.4690  -29.2160   20.2060 C   0  0  0  0  0  3  0  0  0  0  0  0
  -25.1290  -27.6390   18.9300 C   0  0  0  0  0  3  0  0  0  0  0  0
  -23.9810  -28.4280   19.1500 C   0  0  0  0  0  3  0  0  0  0  0  0
  -22.9110  -30.5140   20.2030 C   0  0  0  0  0  2  0  0  0  0  0  0
  -24.2430  -31.4600   22.1530 N   0  0  0  0  0  0  0  0  0  0  0  0
  -23.3640  -32.3510   24.0430 O   0  0  0  0  0  0  0  0  0  0  0  0
  -22.2670  -29.9110   22.5570 C   0  0  0  0  0  0  0  0  0  0  0  0
  -20.9290  -29.7970   22.5060 N   0  0  0  0  0  0  0  0  0  0  0  0
  -22.9740  -29.1650   23.2400 O   0  0  0  0  0  0  0  0  0  0  0  0
  -20.4210  -30.4490   21.9240 H   0  0  0  0  0  0  0  0  0  0  0  0
  -17.5520  -28.6230   23.0100 C   0  0  0  0  0  0  0  0  0  0  0  0
  -20.1210  -28.8070   23.2170 C   0  0  0  0  0  3  0  0  0  0  0  0
  -20.1760  -27.4330   22.5090 C   0  0  0  0  0  2  0  0  0  0  0  0
  -19.0360  -27.2260   21.5090 C   0  0  0  0  0  2  0  0  0  0  0  0
  -17.6790  -27.3380   22.2100 C   0  0  0  0  0  2  0  0  0  0  0  0
  -18.6990  -29.3210   23.4690 C   0  0  0  0  0  0  0  0  0  0  0  0
  -18.5280  -30.5310   24.1760 C   0  0  0  0  0  3  0  0  0  0  0  0
  -17.2410  -31.0400   24.4290 C   0  0  0  0  0  3  0  0  0  0  0  0
  -16.1070  -30.3360   23.9870 C   0  0  0  0  0  3  0  0  0  0  0  0
  -16.2640  -29.1290   23.2840 C   0  0  0  0  0  3  0  0  0  0  0  0
  -25.7500  -32.5420   23.9120 C   0  0  0  0  0  3  0  0  0  0  0  0
  -25.5900  -33.8970   24.4560 N   0  0  0  0  0  0  0  0  0  0  0  0
  -25.9380  -35.0190   23.8100 C   0  0  0  0  0  0  0  0  0  0  0  0
  -26.5010  -35.0140   22.7120 O   0  0  0  0  0  0  0  0  0  0  0  0
  -25.0860  -33.9790   25.3260 H   0  0  0  0  0  0  0  0  0  0  0  0
  -24.3330  -36.9530   23.8720 C   0  0  0  0  0  1  0  0  0  0  0  0
  -25.6080  -36.3600   24.4930 C   0  0  0  0  0  3  0  0  0  0  0  0
  -27.8760  -36.9730   25.2060 C   0  0  0  0  0  1  0  0  0  0  0  0
  -26.7070  -37.3460   24.4140 N   0  0  0  0  0  0  0  0  0  0  0  0
  -26.3940  -38.2610   24.7260 H   0  0  0  0  0  0  0  0  0  0  0  0
  -26.3290  -31.5630   25.0060 C   0  0  1  0  0  0  0  0  0  0  0  0
  -25.3020  -31.1760   26.0940 C   0  0  0  0  0  1  0  0  0  0  0  0
  -26.8440  -30.2590   24.3530 C   0  0  0  0  0  1  0  0  0  0  0  0
  -27.5440  -32.2170   25.7050 C   0  0  0  0  0  1  0  0  0  0  0  0
  -30.4950  -25.2680   24.9270 C   0  0  0  0  0  2  0  0  0  0  0  0
  -29.2050  -24.4520   24.6920 C   0  0  0  0  0  2  0  0  0  0  0  0
  -29.2680  -23.5690   23.4360 C   0  0  0  0  0  2  0  0  0  0  0  0
  -27.8900  -23.2330   22.8410 C   0  0  0  0  0  2  0  0  0  0  0  0
  -28.0250  -22.8980   21.3500 C   0  0  0  0  0  2  0  0  0  0  0  0
  -26.7080  -22.8850   20.5550 C   0  0  0  0  0  2  0  0  0  0  0  0
  -26.9890  -23.3290   19.1120 C   0  0  0  0  0  2  0  0  0  0  0  0
  -25.7870  -23.3860   18.1540 C   0  0  0  0  0  2  0  0  0  0  0  0
  -26.1570  -24.2730   16.9540 C   0  0  0  0  0  2  0  0  0  0  0  0
  -25.1570  -25.3900   15.0190 C   0  0  0  0  0  0  0  0  0  0  0  0
  -24.0570  -26.4660   13.0960 C   0  0  0  0  0  2  0  0  0  0  0  0
  -23.1840  -27.6530   13.5420 C   0  0  0  0  0  2  0  0  0  0  0  0
  -21.7710  -27.1710   13.9170 C   0  0  0  0  0  2  0  0  0  0  0  0
  -21.7940  -25.9680   14.8980 C   0  0  0  0  0  3  0  0  0  0  0  0
  -22.7640  -24.8700   14.4040 C   0  0  0  0  0  2  0  0  0  0  0  0
  -24.0890  -25.4780   14.1850 N   0  0  0  0  0  0  0  0  0  0  0  0
  -26.1600  -26.1010   14.9050 O   0  0  0  0  0  0  0  0  0  0  0  0
  -25.0900  -24.4540   15.9750 N   0  0  0  0  0  0  0  0  0  0  0  0
  -24.2670  -23.8700   16.0200 H   0  0  0  0  0  0  0  0  0  0  0  0
  -19.9270  -24.7950   16.2300 C   0  0  0  0  0  0  0  0  0  0  0  0
  -18.6060  -24.5690   15.9480 C   0  0  0  0  0  0  0  0  0  0  0  0
  -18.3810  -25.1130   14.6460 C   0  0  0  0  0  0  0  0  0  0  0  0
  -20.4480  -25.4400   15.1190 N   0  0  0  0  0  0  0  0  0  0  0  0
  -19.5150  -25.5810   14.1410 N   0  0  0  0  0  0  0  0  0  0  0  0
  -17.1410  -25.2640   13.8740 C   0  0  0  0  0  0  0  0  0  0  0  0
  -16.9740  -24.6430   12.6160 C   0  0  0  0  0  3  0  0  0  0  0  0
  -15.7650  -24.7870   11.9010 C   0  0  0  0  0  3  0  0  0  0  0  0
  -14.7070  -25.5530   12.4440 C   0  0  0  0  0  0  0  0  0  0  0  0
  -14.8860  -26.1870   13.6850 C   0  0  0  0  0  3  0  0  0  0  0  0
  -16.0920  -26.0480   14.3930 C   0  0  0  0  0  3  0  0  0  0  0  0
  -13.5070  -25.7700   11.8080 O   0  0  0  0  0  0  0  0  0  0  0  0
  -12.9280  -24.8090   11.0180 C   0  0  0  0  0  0  0  0  0  0  0  0
  -12.5440  -23.5520   11.5330 C   0  0  0  0  0  3  0  0  0  0  0  0
  -11.8880  -22.6230   10.7030 C   0  0  0  0  0  3  0  0  0  0  0  0
  -11.6070  -22.9490    9.3630 C   0  0  0  0  0  0  0  0  0  0  0  0
  -11.9840  -24.2020    8.8490 C   0  0  0  0  0  3  0  0  0  0  0  0
  -12.6410  -25.1300    9.6760 C   0  0  0  0  0  0  0  0  0  0  0  0
  -12.9820  -26.3450    9.1830 F   0  0  0  0  0  0  0  0  0  0  0  0
  -10.9710  -22.0580    8.5670 F   0  0  0  0  0  0  0  0  0  0  0  0
  -17.5830  -23.9730   16.8720 C   0  0  0  0  0  0  0  0  0  0  0  0
  -16.5370  -23.3680   16.3210 N   0  0  0  0  0  0  0  0  0  0  0  0
  -17.7330  -23.9970   18.0920 O   0  0  0  0  0  0  0  0  0  0  0  0
  -16.4240  -23.3250   15.3190 H   0  0  0  0  0  0  0  0  0  0  0  0
  -15.8380  -22.9410   16.9120 H   0  0  0  0  0  0  0  0  0  0  0  0
  -20.7200  -24.5230   17.3400 N   0  0  0  0  0  0  0  0  0  0  0  0
  -20.3470  -24.0950   18.1800 H   0  0  0  0  0  0  0  0  0  0  0  0
  -21.6980  -24.7770   17.4280 H   0  0  0  0  0  0  0  0  0  0  0  0
  1 48  1  0
  2  1  2  0
  3  1  1  0
  4  3  1  0
  5  4  1  0
  6  5  1  0
  7  9  1  0
  7  6  1  0
  8 19  2  0
  9 14  1  0
 10 18  1  0
 10 20  1  0
 11 17  1  0
 11 13  1  0
 12 18  1  0
 13 12  1  0
 14 13  2  0
 15 16  1  0
 15  9  2  0
 16 11  2  0
 17 10  1  0
 18  8  1  0
 20 22  2  0
 21 20  1  0
 23 21  1  0
 24 33  2  0
 24 29  1  0
 25 21  1  0
 25 29  1  0
 26 25  1  0
 27 28  1  0
 27 26  1  0
 28 24  1  0
 29 30  2  0
 30 31  1  0
 32 31  2  0
 33 32  1  0
 34  8  1  0
 34 35  1  0
 34 44  1  0
 35 38  1  0
 36 35  1  0
 36 40  1  0
 37 36  2  0
 40 39  1  0
 42 40  1  0
 42 43  1  0
 42 41  1  0
 44 47  1  1
 44 45  1  0
 46 44  1  0
 49 48  1  0
 50 49  1  0
 51 50  1  0
 52 51  1  0
 53 52  1  0
 54 53  1  0
 55 54  1  0
 56 55  1  0
 57 65  1  0
 58 59  1  0
 58 63  1  0
 59 60  1  0
 61 60  1  0
 61 70  1  0
 62 61  1  0
 63 62  1  0
 63 57  1  0
 64 57  2  0
 65 66  1  0
 65 56  1  0
 67 92  1  0
 68 67  2  0
 68 87  1  0
 69 68  1  0
 70 67  1  0
 71 69  2  0
 71 70  1  0
 72 77  1  0
 72 69  1  0
 73 72  2  0
 74 75  2  0
 74 73  1  0
 75 76  1  0
 76 77  2  0
 78 75  1  0
 79 80  1  0
 79 78  1  0
 81 80  2  0
 82 81  1  0
 83 82  2  0
 83 84  1  0
 84 79  2  0
 85 84  1  0
 86 82  1  0
 87 89  2  0
 88 87  1  0
 88 91  1  0
 90 88  1  0
 92 94  1  0
 92 93  1  0
M  ISO  4   6 101   7 101  57 100  65 100
M  END
>  <TORSDO>  (14) 
F 29

>  <SCORE>  (14) 
0.500

>  <name>  (14) 
13

>  <ligand_id>  (14) 
13

>  <original_smiles>  (14) 
[H]c1c([H])c([H])c2c(c1[H])C([H])([H])C([H])([H])C([H])([H])C2([H])N([H])C(=O)C1([H])N(C(=O)C([H])(N([H])C(=O)C([H])(N([H])C([H])([H])[H])C([H])([H])[H])C(C([H])([H])[H])(C([H])([H])[H])C([H])([H])[H])C([H])([H])c2c([H])c(OC([H])([H])C([H])([H])C([H])([H])C([H])([H])C(=O)C([H])([H])C([H])([H])C([H])([H])C([H])([H])C([H])([H])C([H])([H])C([H])([H])C([H])([H])C([H])([H])N([H])C(=O)N3C([H])([H])C([H])([H])C([H])([H])C([H])(n4nc(-c5c([H])c([H])c(Oc6c([H])c([H])c(F)c([H])c6F)c([H])c5[H])c(C(=O)N([H])[H])c4N([H])[H])C3([H])[H])c([H])c([H])c2C1([H])[H]

>  <smiles>  (14) 
[H]c1c([H])c([H])c2c(c1[H])C([H])([H])C([H])([H])C([H])([H])C2([H])N([H])C(=O)C1([H])N(C(=O)C([H])(N([H])C(=O)C([H])(N([H])C([H])([H])[H])C([H])([H])[H])C(C([H])([H])[H])(C([H])([H])[H])C([H])([H])[H])C([H])([H])c2c([H])c(OC([H])([H])C([H])([H])C([H])([H])C([H])([H])C(=O)C([H])([H])C([H])([H])C([H])([H])C([H])([H])C([H])([H])C([H])([H])C([H])([H])C([H])([H])C([H])([H])N([H])C(=O)N3C([H])([H])C([H])([H])C([H])([H])C([H])(n4nc(-c5c([H])c([H])c(Oc6c([H])c([H])c(F)c([H])c6F)c([H])c5[H])c(C(=O)N([H])[H])c4N([H])[H])C3([H])[H])c([H])c([H])c2C1([H])[H]

$$$$
14:0:0
     RDKit          3D

101108  0  0  1  0  0  0  0  0999 V2000
  -32.2600  -23.6790   19.7870 C   0  0  0  0  0  3  0  0  0  0  0  0
  -31.5000  -22.9020   18.7830 N   0  0  0  0  0  4  0  0  0  0  0  0
  -30.8910  -23.5300   18.2810 H   0  0  0  0  0  0  0  0  0  0  0  0
  -32.1440  -22.5110   18.1150 H   0  0  0  0  0  0  0  0  0  0  0  0
  -30.6610  -21.8340   19.3630 C   0  0  0  0  0  2  0  0  0  0  0  0
  -30.2460  -20.7790   18.3230 C   0  0  0  0  0  2  0  0  0  0  0  0
  -29.8660  -19.4560   19.0040 C   0  0  0  0  0  2  0  0  0  0  0  0
  -31.1070  -18.6650   19.4690 C   0  0  0  0  0  2  0  0  0  0  0  0
  -30.8290  -17.6830   20.6120 C   0  0  0  0  0  2  0  0  0  0  0  0
  -29.7700  -16.6530   20.2100 C   0  0  0  0  0  2  0  0  0  0  0  0
  -30.6370  -14.4060   20.5280 C   0  0  0  0  0  0  0  0  0  0  0  0
  -30.3280  -12.2800   19.3590 C   0  0  0  0  0  2  0  0  0  0  0  0
  -29.3880  -12.5610   18.1680 C   0  0  0  0  0  2  0  0  0  0  0  0
  -27.9090  -12.4440   18.5910 C   0  0  0  0  0  2  0  0  0  0  0  0
  -27.5930  -13.2360   19.8890 C   0  0  0  0  0  3  0  0  0  0  0  0
  -28.6470  -12.9360   20.9850 C   0  0  0  0  0  2  0  0  0  0  0  0
  -29.9820  -13.2230   20.4300 N   0  0  0  0  0  0  0  0  0  0  0  0
  -31.7450  -14.6280   20.0340 O   0  0  0  0  0  0  0  0  0  0  0  0
  -29.8550  -15.4020   20.9530 N   0  0  0  0  0  0  0  0  0  0  0  0
  -29.0110  -15.1130   21.4240 H   0  0  0  0  0  0  0  0  0  0  0  0
  -25.1930  -13.8650   20.5870 C   0  0  0  0  0  0  0  0  0  0  0  0
  -24.1220  -13.0960   20.9570 C   0  0  0  0  0  0  0  0  0  0  0  0
  -24.5740  -11.7420   20.9190 C   0  0  0  0  0  0  0  0  0  0  0  0
  -26.2330  -12.9760   20.3570 N   0  0  0  0  0  0  0  0  0  0  0  0
  -25.8620  -11.6950   20.6100 N   0  0  0  0  0  0  0  0  0  0  0  0
  -23.8430  -10.4830   21.1050 C   0  0  0  0  0  0  0  0  0  0  0  0
  -24.2990   -9.4960   22.0070 C   0  0  0  0  0  3  0  0  0  0  0  0
  -23.5700   -8.3000   22.1850 C   0  0  0  0  0  3  0  0  0  0  0  0
  -22.3740   -8.0830   21.4610 C   0  0  0  0  0  0  0  0  0  0  0  0
  -21.9390   -9.0580   20.5470 C   0  0  0  0  0  3  0  0  0  0  0  0
  -22.6650  -10.2480   20.3670 C   0  0  0  0  0  3  0  0  0  0  0  0
  -21.6160   -6.9410   21.5490 O   0  0  0  0  0  0  0  0  0  0  0  0
  -21.6180   -6.1580   22.6760 C   0  0  0  0  0  0  0  0  0  0  0  0
  -21.2850   -6.6790   23.9440 C   0  0  0  0  0  3  0  0  0  0  0  0
  -21.2350   -5.8270   25.0660 C   0  0  0  0  0  3  0  0  0  0  0  0
  -21.5060   -4.4530   24.9170 C   0  0  0  0  0  0  0  0  0  0  0  0
  -21.8300   -3.9300   23.6530 C   0  0  0  0  0  3  0  0  0  0  0  0
  -21.8830   -4.7800   22.5350 C   0  0  0  0  0  0  0  0  0  0  0  0
  -22.1760   -4.2670   21.3150 F   0  0  0  0  0  0  0  0  0  0  0  0
  -21.4490   -3.6320   25.9920 F   0  0  0  0  0  0  0  0  0  0  0  0
  -22.7280  -13.5750   21.2380 C   0  0  0  0  0  0  0  0  0  0  0  0
  -22.0050  -12.8780   22.1080 N   0  0  0  0  0  0  0  0  0  0  0  0
  -22.2890  -14.6020   20.7220 O   0  0  0  0  0  0  0  0  0  0  0  0
  -22.3730  -12.0470   22.5490 H   0  0  0  0  0  0  0  0  0  0  0  0
  -21.0690  -13.1760   22.3390 H   0  0  0  0  0  0  0  0  0  0  0  0
  -25.3630  -15.2360   20.4100 N   0  0  0  0  0  0  0  0  0  0  0  0
  -24.5970  -15.8930   20.5130 H   0  0  0  0  0  0  0  0  0  0  0  0
  -26.2150  -15.6770   20.0840 H   0  0  0  0  0  0  0  0  0  0  0  0
  -32.5150  -25.1150   19.2910 C   0  0  0  0  0  2  0  0  0  0  0  0
  -31.2570  -26.0080   19.3070 C   0  0  0  0  0  2  0  0  0  0  0  0
  -30.6270  -26.1570   20.7070 C   0  0  0  0  0  2  0  0  0  0  0  0
  -29.5320  -27.2110   20.7730 C   0  0  0  0  0  2  0  0  0  0  0  0
  -28.3980  -26.7220   20.0710 O   0  0  0  0  0  0  0  0  0  0  0  0
  -24.6140  -31.8760   23.2280 C   0  0  0  0  0  0  0  0  0  0  0  0
  -27.2510  -27.4750   20.1390 C   0  0  0  0  0  0  0  0  0  0  0  0
  -23.3880  -30.4660   21.6000 C   0  0  0  0  0  3  0  0  0  0  0  0
  -24.8290  -28.9230   20.1710 C   0  0  0  0  0  0  0  0  0  0  0  0
  -25.8990  -30.8460   21.3670 C   0  0  0  0  0  2  0  0  0  0  0  0
  -25.9820  -29.4730   20.7410 C   0  0  0  0  0  0  0  0  0  0  0  0
  -27.1890  -28.7560   20.7360 C   0  0  0  0  0  3  0  0  0  0  0  0
  -26.0830  -26.9270   19.5720 C   0  0  0  0  0  3  0  0  0  0  0  0
  -24.8690  -27.6410   19.5910 C   0  0  0  0  0  3  0  0  0  0  0  0
  -23.5800  -29.7720   20.2220 C   0  0  0  0  0  2  0  0  0  0  0  0
  -24.6530  -31.0760   22.1250 N   0  0  0  0  0  0  0  0  0  0  0  0
  -23.5410  -32.1480   23.7810 O   0  0  0  0  0  0  0  0  0  0  0  0
  -22.7540  -29.4480   22.5720 C   0  0  0  0  0  0  0  0  0  0  0  0
  -21.4310  -29.2600   22.4550 N   0  0  0  0  0  0  0  0  0  0  0  0
  -23.4480  -28.8290   23.3830 O   0  0  0  0  0  0  0  0  0  0  0  0
  -20.9320  -29.8120   21.7710 H   0  0  0  0  0  0  0  0  0  0  0  0
  -18.0670  -28.0610   22.9680 C   0  0  0  0  0  0  0  0  0  0  0  0
  -20.6230  -28.3260   23.2360 C   0  0  0  0  0  3  0  0  0  0  0  0
  -20.7310  -26.8920   22.6680 C   0  0  0  0  0  2  0  0  0  0  0  0
  -19.6280  -26.5580   21.6590 C   0  0  0  0  0  2  0  0  0  0  0  0
  -18.2460  -26.7060   22.3030 C   0  0  0  0  0  2  0  0  0  0  0  0
  -19.1830  -28.8290   23.3910 C   0  0  0  0  0  0  0  0  0  0  0  0
  -18.9640  -30.0970   23.9690 C   0  0  0  0  0  3  0  0  0  0  0  0
  -17.6580  -30.5990   24.1310 C   0  0  0  0  0  3  0  0  0  0  0  0
  -16.5550  -29.8270   23.7250 C   0  0  0  0  0  3  0  0  0  0  0  0
  -16.7590  -28.5620   23.1480 C   0  0  0  0  0  3  0  0  0  0  0  0
  -25.9110  -32.5070   23.8300 C   0  0  0  0  0  3  0  0  0  0  0  0
  -25.6010  -33.8990   24.1780 N   0  0  0  0  0  0  0  0  0  0  0  0
  -25.9210  -34.9590   23.4210 C   0  0  0  0  0  0  0  0  0  0  0  0
  -26.5780  -34.8680   22.3810 O   0  0  0  0  0  0  0  0  0  0  0  0
  -25.0170  -34.0450   24.9870 H   0  0  0  0  0  0  0  0  0  0  0  0
  -24.1770  -36.7420   23.1060 C   0  0  0  0  0  1  0  0  0  0  0  0
  -25.4310  -36.3390   23.8970 C   0  0  0  0  0  3  0  0  0  0  0  0
  -27.5750  -37.2260   24.7020 C   0  0  0  0  0  1  0  0  0  0  0  0
  -26.4560  -37.4000   23.7800 N   0  0  0  0  0  0  0  0  0  0  0  0
  -26.0460  -38.3130   23.9480 H   0  0  0  0  0  0  0  0  0  0  0  0
  -26.4590  -31.7240   25.0850 C   0  0  1  0  0  0  0  0  0  0  0  0
  -25.3900  -31.4700   26.1740 C   0  0  0  0  0  1  0  0  0  0  0  0
  -27.0390  -30.3540   24.6610 C   0  0  0  0  0  1  0  0  0  0  0  0
  -27.6170  -32.5160   25.7350 C   0  0  0  0  0  1  0  0  0  0  0  0
  -33.5340  -22.9500   20.2760 C   0  0  0  0  0  2  0  0  0  0  0  0
  -34.5900  -22.5980   19.2130 C   0  0  0  0  0  2  0  0  0  0  0  0
  -35.6860  -21.7060   19.8260 C   0  0  0  0  0  2  0  0  0  0  0  0
  -36.8360  -21.3790   18.8560 C   0  0  0  0  0  2  0  0  0  0  0  0
  -37.8150  -20.4620   19.4640 N   0  0  0  0  0  4  0  0  0  0  0  0
  -38.1740  -20.8340   20.3250 H   0  0  0  0  0  0  0  0  0  0  0  0
  -38.5890  -20.3220   18.8390 H   0  0  0  0  0  0  0  0  0  0  0  0
  -37.4020  -19.5650   19.6480 H   0  0  0  0  0  0  0  0  0  0  0  0
  1 49  1  0
  1 94  1  0
  2  5  1  0
  2  1  1  0
  3  2  1  0
  4  2  1  0
  6  7  1  0
  6  5  1  0
  7  8  1  0
  8  9  1  0
 10  9  1  0
 10 19  1  0
 11 19  1  0
 12 17  1  0
 13 14  1  0
 13 12  1  0
 15 14  1  0
 15 24  1  0
 15 16  1  0
 17 11  1  0
 17 16  1  0
 18 11  2  0
 19 20  1  0
 21 22  2  0
 22 41  1  0
 23 22  1  0
 23 26  1  0
 24 21  1  0
 24 25  1  0
 25 23  2  0
 26 27  1  0
 27 28  2  0
 29 32  1  0
 29 28  1  0
 30 29  2  0
 31 30  1  0
 31 26  2  0
 32 33  1  0
 33 34  1  0
 34 35  2  0
 36 35  1  0
 36 40  1  0
 37 36  2  0
 38 33  2  0
 38 37  1  0
 39 38  1  0
 41 42  1  0
 42 45  1  0
 42 44  1  0
 43 41  2  0
 46 47  1  0
 46 21  1  0
 48 46  1  0
 49 50  1  0
 50 51  1  0
 51 52  1  0
 53 55  1  0
 53 52  1  0
 54 65  2  0
 55 60  1  0
 56 64  1  0
 56 66  1  0
 57 63  1  0
 57 59  1  0
 58 64  1  0
 59 58  1  0
 60 59  2  0
 61 62  1  0
 61 55  2  0
 62 57  2  0
 63 56  1  0
 64 54  1  0
 66 68  2  0
 67 66  1  0
 69 67  1  0
 70 79  2  0
 70 75  1  0
 71 67  1  0
 71 75  1  0
 72 71  1  0
 73 74  1  0
 73 72  1  0
 74 70  1  0
 75 76  2  0
 76 77  1  0
 78 77  2  0
 79 78  1  0
 80 54  1  0
 80 81  1  0
 80 90  1  0
 81 84  1  0
 82 86  1  0
 82 81  1  0
 83 82  2  0
 86 85  1  0
 88 86  1  0
 88 89  1  0
 88 87  1  0
 90 93  1  1
 90 91  1  0
 92 90  1  0
 95 96  1  0
 95 94  1  0
 97 98  1  0
 97 96  1  0
 98101  1  0
 98 99  1  0
100 98  1  0
M  ISO  4  11 100  19 100  52 101  53 101
M  END
>  <TORSDO>  (15) 
F 32

>  <SCORE>  (15) 
-10.288

>  <name>  (15) 
14

>  <ligand_id>  (15) 
14

>  <original_smiles>  (15) 
[H]c1c([H])c([H])c2c(c1[H])C([H])([H])C([H])([H])C([H])([H])C2([H])N([H])C(=O)C1([H])N(C(=O)C([H])(N([H])C(=O)C([H])(N([H])C([H])([H])[H])C([H])([H])[H])C(C([H])([H])[H])(C([H])([H])[H])C([H])([H])[H])C([H])([H])c2c([H])c(OC([H])([H])C([H])([H])C([H])([H])C([H])([H])C([H])(C([H])([H])C([H])([H])C([H])([H])C([H])([H])[N+]([H])([H])[H])[N+]([H])([H])C([H])([H])C([H])([H])C([H])([H])C([H])([H])C([H])([H])C([H])([H])N([H])C(=O)N3C([H])([H])C([H])([H])C([H])([H])C([H])(n4nc(-c5c([H])c([H])c(Oc6c([H])c([H])c(F)c([H])c6F)c([H])c5[H])c(C(=O)N([H])[H])c4N([H])[H])C3([H])[H])c([H])c([H])c2C1([H])[H]

>  <smiles>  (15) 
[H]c1c([H])c([H])c2c(c1[H])C([H])([H])C([H])([H])C([H])([H])C2([H])N([H])C(=O)C1([H])N(C(=O)C([H])(N([H])C(=O)C([H])(N([H])C([H])([H])[H])C([H])([H])[H])C(C([H])([H])[H])(C([H])([H])[H])C([H])([H])[H])C([H])([H])c2c([H])c(OC([H])([H])C([H])([H])C([H])([H])C([H])([H])C([H])(C([H])([H])C([H])([H])C([H])([H])C([H])([H])[N+]([H])([H])[H])[N+]([H])([H])C([H])([H])C([H])([H])C([H])([H])C([H])([H])C([H])([H])C([H])([H])N([H])C(=O)N3C([H])([H])C([H])([H])C([H])([H])C([H])(n4nc(-c5c([H])c([H])c(Oc6c([H])c([H])c(F)c([H])c6F)c([H])c5[H])c(C(=O)N([H])[H])c4N([H])[H])C3([H])[H])c([H])c([H])c2C1([H])[H]

$$$$
15:0:0
     RDKit          3D

 91 98  0  0  1  0  0  0  0  0999 V2000
  -29.3740  -23.3720   24.0200 C   0  0  0  0  0  2  0  0  0  0  0  0
  -31.0530  -21.3840   23.6200 C   0  0  0  0  0  3  0  0  0  0  0  0
  -30.3080  -22.2140   24.3840 C   0  0  0  0  0  3  0  0  0  0  0  0
  -31.1630  -21.3030   22.1010 C   0  0  0  0  0  2  0  0  0  0  0  0
  -31.7050  -19.9560   21.5820 C   0  0  0  0  0  2  0  0  0  0  0  0
  -30.9490  -18.7380   22.1480 C   0  0  0  0  0  2  0  0  0  0  0  0
  -30.9910  -17.4630   21.2780 C   0  0  0  0  0  2  0  0  0  0  0  0
  -31.0340  -16.1780   22.1390 C   0  0  0  0  0  2  0  0  0  0  0  0
  -30.7530  -14.4350   20.3100 C   0  0  0  0  0  0  0  0  0  0  0  0
  -30.2910  -12.4590   18.8850 C   0  0  0  0  0  2  0  0  0  0  0  0
  -29.2740  -12.7610   17.7720 C   0  0  0  0  0  2  0  0  0  0  0  0
  -27.8280  -12.6010   18.2770 C   0  0  0  0  0  2  0  0  0  0  0  0
  -27.5840  -13.3540   19.6100 C   0  0  0  0  0  3  0  0  0  0  0  0
  -28.6910  -13.0310   20.6340 C   0  0  0  0  0  2  0  0  0  0  0  0
  -30.0060  -13.3390   20.0320 N   0  0  0  0  0  0  0  0  0  0  0  0
  -31.6680  -14.8410   19.5830 O   0  0  0  0  0  0  0  0  0  0  0  0
  -30.4750  -14.9850   21.5000 N   0  0  0  0  0  0  0  0  0  0  0  0
  -29.7760  -14.4910   22.0400 H   0  0  0  0  0  0  0  0  0  0  0  0
  -25.2170  -13.9350   20.4390 C   0  0  0  0  0  0  0  0  0  0  0  0
  -24.1720  -13.1560   20.8480 C   0  0  0  0  0  0  0  0  0  0  0  0
  -24.6380  -11.8070   20.7770 C   0  0  0  0  0  0  0  0  0  0  0  0
  -26.2550  -13.0660   20.1460 N   0  0  0  0  0  0  0  0  0  0  0  0
  -25.9090  -11.7780   20.3990 N   0  0  0  0  0  0  0  0  0  0  0  0
  -23.9290  -10.5390   20.9840 C   0  0  0  0  0  0  0  0  0  0  0  0
  -24.3870   -9.5850   21.9190 C   0  0  0  0  0  3  0  0  0  0  0  0
  -23.6800   -8.3790   22.1140 C   0  0  0  0  0  3  0  0  0  0  0  0
  -22.5010   -8.1200   21.3750 C   0  0  0  0  0  0  0  0  0  0  0  0
  -22.0600   -9.0630   20.4310 C   0  0  0  0  0  3  0  0  0  0  0  0
  -22.7670  -10.2610   20.2340 C   0  0  0  0  0  3  0  0  0  0  0  0
  -21.7630   -6.9650   21.4760 O   0  0  0  0  0  0  0  0  0  0  0  0
  -21.7090   -6.2470   22.6420 C   0  0  0  0  0  0  0  0  0  0  0  0
  -21.2680   -6.8240   23.8540 C   0  0  0  0  0  3  0  0  0  0  0  0
  -21.1660   -6.0310   25.0150 C   0  0  0  0  0  3  0  0  0  0  0  0
  -21.4910   -4.6620   24.9640 C   0  0  0  0  0  0  0  0  0  0  0  0
  -21.9260   -4.0850   23.7570 C   0  0  0  0  0  3  0  0  0  0  0  0
  -22.0320   -4.8750   22.6000 C   0  0  0  0  0  0  0  0  0  0  0  0
  -22.4320   -4.3090   21.4350 F   0  0  0  0  0  0  0  0  0  0  0  0
  -21.3850   -3.9000   26.0760 F   0  0  0  0  0  0  0  0  0  0  0  0
  -22.7900  -13.6210   21.2030 C   0  0  0  0  0  0  0  0  0  0  0  0
  -22.1110  -12.9070   22.0940 N   0  0  0  0  0  0  0  0  0  0  0  0
  -22.3240  -14.6570   20.7240 O   0  0  0  0  0  0  0  0  0  0  0  0
  -22.5050  -12.0710   22.4990 H   0  0  0  0  0  0  0  0  0  0  0  0
  -21.1850  -13.1990   22.3750 H   0  0  0  0  0  0  0  0  0  0  0  0
  -25.3630  -15.3100   20.2780 N   0  0  0  0  0  0  0  0  0  0  0  0
  -24.5930  -15.9490   20.4330 H   0  0  0  0  0  0  0  0  0  0  0  0
  -26.2030  -15.7630   19.9410 H   0  0  0  0  0  0  0  0  0  0  0  0
  -29.0080  -23.5400   22.5350 C   0  0  0  0  0  2  0  0  0  0  0  0
  -27.9980  -24.6620   22.2390 C   0  0  0  0  0  2  0  0  0  0  0  0
  -27.5250  -24.6190   20.7710 C   0  0  0  0  0  2  0  0  0  0  0  0
  -28.4100  -25.4300   19.7870 C   0  0  0  0  0  2  0  0  0  0  0  0
  -28.4490  -26.8390   20.0450 O   0  0  0  0  0  0  0  0  0  0  0  0
  -24.6460  -31.9140   23.2250 C   0  0  0  0  0  0  0  0  0  0  0  0
  -27.2700  -27.5570   20.0170 C   0  0  0  0  0  0  0  0  0  0  0  0
  -23.4310  -30.5470   21.5590 C   0  0  0  0  0  3  0  0  0  0  0  0
  -24.8750  -29.0570   20.0860 C   0  0  0  0  0  0  0  0  0  0  0  0
  -25.9550  -30.9180   21.3550 C   0  0  0  0  0  2  0  0  0  0  0  0
  -26.0360  -29.5660   20.6810 C   0  0  0  0  0  0  0  0  0  0  0  0
  -27.2350  -28.8210   20.6460 C   0  0  0  0  0  3  0  0  0  0  0  0
  -26.0950  -27.0780   19.3890 C   0  0  0  0  0  3  0  0  0  0  0  0
  -24.8970  -27.8110   19.4420 C   0  0  0  0  0  3  0  0  0  0  0  0
  -23.6300  -29.9070   20.1620 C   0  0  0  0  0  2  0  0  0  0  0  0
  -24.6970  -31.1400   22.1040 N   0  0  0  0  0  0  0  0  0  0  0  0
  -23.5680  -32.1730   23.7760 O   0  0  0  0  0  0  0  0  0  0  0  0
  -22.7930  -29.4990   22.4990 C   0  0  0  0  0  0  0  0  0  0  0  0
  -21.4730  -29.3010   22.3580 N   0  0  0  0  0  0  0  0  0  0  0  0
  -23.4810  -28.8710   23.3070 O   0  0  0  0  0  0  0  0  0  0  0  0
  -20.9840  -29.8600   21.6740 H   0  0  0  0  0  0  0  0  0  0  0  0
  -18.1090  -28.0650   22.8080 C   0  0  0  0  0  0  0  0  0  0  0  0
  -20.6620  -28.3440   23.1060 C   0  0  0  0  0  3  0  0  0  0  0  0
  -20.7840  -26.9230   22.5090 C   0  0  0  0  0  2  0  0  0  0  0  0
  -19.6940  -26.6050   21.4810 C   0  0  0  0  0  2  0  0  0  0  0  0
  -18.3060  -26.7260   22.1160 C   0  0  0  0  0  2  0  0  0  0  0  0
  -19.2150  -28.8320   23.2590 C   0  0  0  0  0  0  0  0  0  0  0  0
  -18.9800  -30.0850   23.8630 C   0  0  0  0  0  3  0  0  0  0  0  0
  -17.6690  -30.5720   24.0270 C   0  0  0  0  0  3  0  0  0  0  0  0
  -16.5770  -29.8010   23.5940 C   0  0  0  0  0  3  0  0  0  0  0  0
  -16.7950  -28.5500   22.9900 C   0  0  0  0  0  3  0  0  0  0  0  0
  -25.9370  -32.5320   23.8490 C   0  0  0  0  0  3  0  0  0  0  0  0
  -26.4360  -31.7600   25.1300 C   0  0  1  0  0  0  0  0  0  0  0  0
  -25.3340  -31.5330   26.1890 C   0  0  0  0  0  1  0  0  0  0  0  0
  -27.0090  -30.3760   24.7460 C   0  0  0  0  0  1  0  0  0  0  0  0
  -27.5880  -32.5480   25.8000 C   0  0  0  0  0  1  0  0  0  0  0  0
  -25.6410  -33.9350   24.1660 N   0  0  0  0  0  0  0  0  0  0  0  0
  -26.0060  -34.9790   23.4100 C   0  0  0  0  0  0  0  0  0  0  0  0
  -26.6990  -34.8610   22.3950 O   0  0  0  0  0  0  0  0  0  0  0  0
  -25.0250  -34.1020   24.9480 H   0  0  0  0  0  0  0  0  0  0  0  0
  -24.3230  -36.8000   22.9950 C   0  0  0  0  0  1  0  0  0  0  0  0
  -25.5270  -36.3750   23.8500 C   0  0  0  0  0  3  0  0  0  0  0  0
  -27.6460  -37.2220   24.7570 C   0  0  0  0  0  1  0  0  0  0  0  0
  -26.5830  -37.4090   23.7740 N   0  0  0  0  0  0  0  0  0  0  0  0
  -26.1870  -38.3350   23.9060 H   0  0  0  0  0  0  0  0  0  0  0  0
  1  3  1  0
  2  3  2  0
  4  2  1  0
  5  4  1  0
  5  6  1  0
  7  8  1  0
  7  6  1  0
  9 17  1  0
 10 15  1  0
 11 12  1  0
 11 10  1  0
 13 12  1  0
 13 22  1  0
 13 14  1  0
 15  9  1  0
 15 14  1  0
 16  9  2  0
 17 18  1  0
 17  8  1  0
 19 20  2  0
 20 39  1  0
 21 20  1  0
 21 24  1  0
 22 23  1  0
 22 19  1  0
 23 21  2  0
 24 25  1  0
 25 26  2  0
 27 30  1  0
 27 26  1  0
 28 27  2  0
 29 28  1  0
 29 24  2  0
 30 31  1  0
 31 32  1  0
 32 33  2  0
 34 33  1  0
 34 38  1  0
 35 34  2  0
 36 31  2  0
 36 35  1  0
 37 36  1  0
 39 40  1  0
 40 43  1  0
 40 42  1  0
 41 39  2  0
 44 45  1  0
 44 19  1  0
 46 44  1  0
 47  1  1  0
 48 47  1  0
 49 48  1  0
 50 51  1  0
 50 49  1  0
 52 63  2  0
 53 51  1  0
 53 58  1  0
 54 62  1  0
 54 64  1  0
 55 61  1  0
 55 57  1  0
 56 62  1  0
 57 56  1  0
 58 57  2  0
 59 60  1  0
 59 53  2  0
 60 55  2  0
 61 54  1  0
 62 52  1  0
 64 66  2  0
 65 64  1  0
 67 65  1  0
 68 77  2  0
 68 73  1  0
 69 65  1  0
 69 73  1  0
 70 69  1  0
 71 72  1  0
 71 70  1  0
 72 68  1  0
 73 74  2  0
 74 75  1  0
 76 75  2  0
 77 76  1  0
 78 52  1  0
 78 83  1  0
 78 79  1  0
 79 82  1  1
 79 80  1  0
 81 79  1  0
 83 86  1  0
 84 88  1  0
 84 83  1  0
 85 84  2  0
 88 87  1  0
 90 88  1  0
 90 91  1  0
 90 89  1  0
M  ISO  4   9 100  17 100  50 101  51 101
M  END
>  <TORSDO>  (16) 
F 26

>  <SCORE>  (16) 
-11.585

>  <name>  (16) 
15

>  <ligand_id>  (16) 
15

>  <original_smiles>  (16) 
[H]C(=C([H])C([H])([H])C([H])([H])C([H])([H])C([H])([H])C([H])([H])N([H])C(=O)N1C([H])([H])C([H])([H])C([H])([H])C([H])(n2nc(-c3c([H])c([H])c(Oc4c([H])c([H])c(F)c([H])c4F)c([H])c3[H])c(C(=O)N([H])[H])c2N([H])[H])C1([H])[H])C([H])([H])C([H])([H])C([H])([H])C([H])([H])C([H])([H])Oc1c([H])c([H])c2c(c1[H])C([H])([H])N(C(=O)C([H])(N([H])C(=O)C([H])(N([H])C([H])([H])[H])C([H])([H])[H])C(C([H])([H])[H])(C([H])([H])[H])C([H])([H])[H])C([H])(C(=O)N([H])C1([H])c3c([H])c([H])c([H])c([H])c3C([H])([H])C([H])([H])C1([H])[H])C2([H])[H]

>  <smiles>  (16) 
[H]C(=C([H])C([H])([H])C([H])([H])C([H])([H])C([H])([H])C([H])([H])N([H])C(=O)N1C([H])([H])C([H])([H])C([H])([H])C([H])(n2nc(-c3c([H])c([H])c(Oc4c([H])c([H])c(F)c([H])c4F)c([H])c3[H])c(C(=O)N([H])[H])c2N([H])[H])C1([H])[H])C([H])([H])C([H])([H])C([H])([H])C([H])([H])C([H])([H])Oc1c([H])c([H])c2c(c1[H])C([H])([H])N(C(=O)C([H])(N([H])C(=O)C([H])(N([H])C([H])([H])[H])C([H])([H])[H])C(C([H])([H])[H])(C([H])([H])[H])C([H])([H])[H])C([H])(C(=O)N([H])C1([H])c3c([H])c([H])c([H])c([H])c3C([H])([H])C([H])([H])C1([H])[H])C2([H])[H]

$$$$
16:0:0
     RDKit          3D

 94101  0  0  1  0  0  0  0  0999 V2000
  -24.1980  -22.1640   17.3220 C   0  0  0  0  0  2  0  0  0  0  0  0
  -24.4490  -23.3630   18.2660 C   0  0  0  0  0  2  0  0  0  0  0  0
  -24.5490  -23.0370   19.7770 C   0  0  0  0  0  2  0  0  0  0  0  0
  -26.7310  -23.6010   20.3600 C   0  0  0  0  0  3  0  0  0  0  0  0
  -25.4980  -23.9170   20.4290 N   0  0  0  0  0  0  0  0  0  0  0  0
  -27.8360  -24.5050   20.8690 C   0  0  0  0  0  2  0  0  0  0  0  0
  -28.4180  -25.4010   19.7560 C   0  0  0  0  0  2  0  0  0  0  0  0
  -28.3940  -26.7830   20.1280 O   0  0  0  0  0  0  0  0  0  0  0  0
  -24.5710  -31.8940   23.2520 C   0  0  0  0  0  0  0  0  0  0  0  0
  -27.1920  -27.4610   20.1330 C   0  0  0  0  0  0  0  0  0  0  0  0
  -23.3520  -30.4980   21.6140 C   0  0  0  0  0  3  0  0  0  0  0  0
  -24.7960  -28.9650   20.1750 C   0  0  0  0  0  0  0  0  0  0  0  0
  -25.8770  -30.8400   21.4160 C   0  0  0  0  0  2  0  0  0  0  0  0
  -25.9520  -29.4720   20.7760 C   0  0  0  0  0  0  0  0  0  0  0  0
  -27.1460  -28.7210   20.7670 C   0  0  0  0  0  3  0  0  0  0  0  0
  -26.0180  -26.9770   19.5100 C   0  0  0  0  0  3  0  0  0  0  0  0
  -24.8210  -27.7130   19.5410 C   0  0  0  0  0  3  0  0  0  0  0  0
  -23.5540  -29.8230   20.2300 C   0  0  0  0  0  2  0  0  0  0  0  0
  -24.6180  -31.0910   22.1530 N   0  0  0  0  0  0  0  0  0  0  0  0
  -23.4940  -32.1690   23.7950 O   0  0  0  0  0  0  0  0  0  0  0  0
  -22.7050  -29.4750   22.5720 C   0  0  0  0  0  0  0  0  0  0  0  0
  -21.3800  -29.2980   22.4500 N   0  0  0  0  0  0  0  0  0  0  0  0
  -23.3870  -28.8440   23.3830 O   0  0  0  0  0  0  0  0  0  0  0  0
  -20.8880  -29.8580   21.7670 H   0  0  0  0  0  0  0  0  0  0  0  0
  -18.0030  -28.1350   22.9580 C   0  0  0  0  0  0  0  0  0  0  0  0
  -20.5610  -28.3680   23.2240 C   0  0  0  0  0  3  0  0  0  0  0  0
  -20.6510  -26.9370   22.6440 C   0  0  0  0  0  2  0  0  0  0  0  0
  -19.5450  -26.6270   21.6300 C   0  0  0  0  0  2  0  0  0  0  0  0
  -18.1650  -26.7870   22.2750 C   0  0  0  0  0  2  0  0  0  0  0  0
  -19.1290  -28.8840   23.3880 C   0  0  0  0  0  0  0  0  0  0  0  0
  -18.9230  -30.1490   23.9800 C   0  0  0  0  0  3  0  0  0  0  0  0
  -17.6240  -30.6610   24.1540 C   0  0  0  0  0  3  0  0  0  0  0  0
  -16.5110  -29.9060   23.7460 C   0  0  0  0  0  3  0  0  0  0  0  0
  -16.7020  -28.6470   23.1490 C   0  0  0  0  0  3  0  0  0  0  0  0
  -25.8650  -32.5190   23.8620 C   0  0  0  0  0  3  0  0  0  0  0  0
  -25.5690  -33.9190   24.1910 N   0  0  0  0  0  0  0  0  0  0  0  0
  -25.9020  -34.9650   23.4240 C   0  0  0  0  0  0  0  0  0  0  0  0
  -26.5620  -34.8550   22.3880 O   0  0  0  0  0  0  0  0  0  0  0  0
  -24.9940  -34.0870   25.0030 H   0  0  0  0  0  0  0  0  0  0  0  0
  -24.1760  -36.7600   23.0740 C   0  0  0  0  0  1  0  0  0  0  0  0
  -25.4210  -36.3560   23.8800 C   0  0  0  0  0  3  0  0  0  0  0  0
  -27.5630  -37.2330   24.6940 C   0  0  0  0  0  1  0  0  0  0  0  0
  -26.4540  -37.4070   23.7580 N   0  0  0  0  0  0  0  0  0  0  0  0
  -26.0530  -38.3270   23.9100 H   0  0  0  0  0  0  0  0  0  0  0  0
  -26.3860  -31.7460   25.1340 C   0  0  1  0  0  0  0  0  0  0  0  0
  -25.2980  -31.5190   26.2080 C   0  0  0  0  0  1  0  0  0  0  0  0
  -26.9520  -30.3610   24.7420 C   0  0  0  0  0  1  0  0  0  0  0  0
  -27.5520  -32.5300   25.7850 C   0  0  0  0  0  1  0  0  0  0  0  0
  -25.4620  -21.3500   16.9750 C   0  0  0  0  0  2  0  0  0  0  0  0
  -25.7300  -20.1440   17.8940 C   0  0  0  0  0  2  0  0  0  0  0  0
  -27.2150  -19.7530   17.9440 C   0  0  0  0  0  2  0  0  0  0  0  0
  -27.5150  -18.8170   19.1220 C   0  0  0  0  0  2  0  0  0  0  0  0
  -29.0150  -18.5880   19.3330 C   0  0  0  0  0  2  0  0  0  0  0  0
  -29.2730  -17.7320   20.5790 C   0  0  0  0  0  2  0  0  0  0  0  0
  -30.7690  -17.5020   20.8450 C   0  0  0  0  0  2  0  0  0  0  0  0
  -31.0390  -16.4030   21.8920 C   0  0  0  0  0  2  0  0  0  0  0  0
  -30.8810  -14.3520   20.4850 C   0  0  0  0  0  0  0  0  0  0  0  0
  -30.4540  -12.3170   19.1640 C   0  0  0  0  0  2  0  0  0  0  0  0
  -29.5040  -12.5900   17.9830 C   0  0  0  0  0  2  0  0  0  0  0  0
  -28.0330  -12.4760   18.4250 C   0  0  0  0  0  2  0  0  0  0  0  0
  -27.7340  -13.2880   19.7110 C   0  0  0  0  0  3  0  0  0  0  0  0
  -28.7820  -12.9870   20.8040 C   0  0  0  0  0  2  0  0  0  0  0  0
  -30.1250  -13.2470   20.2510 N   0  0  0  0  0  0  0  0  0  0  0  0
  -31.8920  -14.6330   19.8370 O   0  0  0  0  0  0  0  0  0  0  0  0
  -30.4630  -15.1190   21.4990 N   0  0  0  0  0  0  0  0  0  0  0  0
  -29.6530  -14.7980   22.0070 H   0  0  0  0  0  0  0  0  0  0  0  0
  -25.3380  -13.9430   20.4020 C   0  0  0  0  0  0  0  0  0  0  0  0
  -24.2600  -13.1910   20.7820 C   0  0  0  0  0  0  0  0  0  0  0  0
  -24.7020  -11.8310   20.7710 C   0  0  0  0  0  0  0  0  0  0  0  0
  -26.3730  -13.0430   20.1880 N   0  0  0  0  0  0  0  0  0  0  0  0
  -25.9910  -11.7700   20.4620 N   0  0  0  0  0  0  0  0  0  0  0  0
  -23.9580  -10.5820   20.9770 C   0  0  0  0  0  0  0  0  0  0  0  0
  -24.3880   -9.6150   21.9120 C   0  0  0  0  0  3  0  0  0  0  0  0
  -23.6470   -8.4290   22.1060 C   0  0  0  0  0  3  0  0  0  0  0  0
  -22.4610   -8.2030   21.3680 C   0  0  0  0  0  0  0  0  0  0  0  0
  -22.0510   -9.1600   20.4220 C   0  0  0  0  0  3  0  0  0  0  0  0
  -22.7920  -10.3360   20.2260 C   0  0  0  0  0  3  0  0  0  0  0  0
  -21.6900   -7.0700   21.4710 O   0  0  0  0  0  0  0  0  0  0  0  0
  -21.6530   -6.3290   22.6250 C   0  0  0  0  0  0  0  0  0  0  0  0
  -21.2750   -6.8960   23.8620 C   0  0  0  0  0  3  0  0  0  0  0  0
  -21.1820   -6.0830   25.0100 C   0  0  0  0  0  3  0  0  0  0  0  0
  -21.4560   -4.7060   24.9230 C   0  0  0  0  0  0  0  0  0  0  0  0
  -21.8260   -4.1380   23.6910 C   0  0  0  0  0  3  0  0  0  0  0  0
  -21.9210   -4.9470   22.5450 C   0  0  0  0  0  0  0  0  0  0  0  0
  -22.2580   -4.3930   21.3560 F   0  0  0  0  0  0  0  0  0  0  0  0
  -21.3580   -3.9220   26.0220 F   0  0  0  0  0  0  0  0  0  0  0  0
  -22.8690  -13.6890   21.0510 C   0  0  0  0  0  0  0  0  0  0  0  0
  -22.1340  -13.0180   21.9290 N   0  0  0  0  0  0  0  0  0  0  0  0
  -22.4420  -14.7120   20.5150 O   0  0  0  0  0  0  0  0  0  0  0  0
  -22.4910  -12.1910   22.3860 H   0  0  0  0  0  0  0  0  0  0  0  0
  -21.2010  -13.3340   22.1510 H   0  0  0  0  0  0  0  0  0  0  0  0
  -25.5240  -15.3070   20.2030 N   0  0  0  0  0  0  0  0  0  0  0  0
  -24.7700  -15.9790   20.2970 H   0  0  0  0  0  0  0  0  0  0  0  0
  -26.3880  -15.7230   19.8780 H   0  0  0  0  0  0  0  0  0  0  0  0
  1  2  1  0
  2  3  1  0
  3  5  1  0
  4  5  2  0
  4  6  1  0
  7  8  1  0
  7  6  1  0
  8 10  1  0
  9 20  2  0
 10 15  1  0
 11 19  1  0
 11 21  1  0
 12 18  1  0
 12 14  1  0
 13 19  1  0
 14 13  1  0
 15 14  2  0
 16 17  1  0
 16 10  2  0
 17 12  2  0
 18 11  1  0
 19  9  1  0
 21 23  2  0
 22 21  1  0
 24 22  1  0
 25 34  2  0
 25 30  1  0
 26 22  1  0
 26 30  1  0
 27 26  1  0
 28 29  1  0
 28 27  1  0
 29 25  1  0
 30 31  2  0
 31 32  1  0
 33 32  2  0
 34 33  1  0
 35  9  1  0
 35 36  1  0
 35 45  1  0
 36 39  1  0
 37 41  1  0
 37 36  1  0
 38 37  2  0
 41 40  1  0
 43 41  1  0
 43 44  1  0
 43 42  1  0
 45 48  1  1
 45 46  1  0
 47 45  1  0
 49  1  1  0
 49 50  1  0
 50 51  1  0
 51 52  1  0
 52 53  1  0
 53 54  1  0
 54 55  1  0
 55 56  1  0
 57 65  1  0
 58 63  1  0
 59 60  1  0
 59 58  1  0
 61 60  1  0
 61 70  1  0
 61 62  1  0
 63 57  1  0
 63 62  1  0
 64 57  2  0
 65 56  1  0
 65 66  1  0
 67 68  2  0
 68 87  1  0
 69 68  1  0
 69 72  1  0
 70 67  1  0
 70 71  1  0
 71 69  2  0
 72 73  1  0
 73 74  2  0
 75 78  1  0
 75 74  1  0
 76 75  2  0
 77 76  1  0
 77 72  2  0
 78 79  1  0
 79 80  1  0
 80 81  2  0
 82 81  1  0
 82 86  1  0
 83 82  2  0
 84 79  2  0
 84 83  1  0
 85 84  1  0
 87 88  1  0
 88 91  1  0
 88 90  1  0
 89 87  2  0
 92 93  1  0
 92 67  1  0
 94 92  1  0
M  ISO  4   7 101   8 101  57 100  65 100
M  END
>  <TORSDO>  (17) 
F 29

>  <SCORE>  (17) 
-11.169

>  <name>  (17) 
16

>  <ligand_id>  (17) 
16

>  <original_smiles>  (17) 
[H]C(=NC([H])([H])C([H])([H])C([H])([H])C([H])([H])C([H])([H])C([H])([H])C([H])([H])C([H])([H])C([H])([H])C([H])([H])C([H])([H])N([H])C(=O)N1C([H])([H])C([H])([H])C([H])([H])C([H])(n2nc(-c3c([H])c([H])c(Oc4c([H])c([H])c(F)c([H])c4F)c([H])c3[H])c(C(=O)N([H])[H])c2N([H])[H])C1([H])[H])C([H])([H])C([H])([H])Oc1c([H])c([H])c2c(c1[H])C([H])([H])N(C(=O)C([H])(N([H])C(=O)C([H])(N([H])C([H])([H])[H])C([H])([H])[H])C(C([H])([H])[H])(C([H])([H])[H])C([H])([H])[H])C([H])(C(=O)N([H])C1([H])c3c([H])c([H])c([H])c([H])c3C([H])([H])C([H])([H])C1([H])[H])C2([H])[H]

>  <smiles>  (17) 
[H]C(=NC([H])([H])C([H])([H])C([H])([H])C([H])([H])C([H])([H])C([H])([H])C([H])([H])C([H])([H])C([H])([H])C([H])([H])C([H])([H])N([H])C(=O)N1C([H])([H])C([H])([H])C([H])([H])C([H])(n2nc(-c3c([H])c([H])c(Oc4c([H])c([H])c(F)c([H])c4F)c([H])c3[H])c(C(=O)N([H])[H])c2N([H])[H])C1([H])[H])C([H])([H])C([H])([H])Oc1c([H])c([H])c2c(c1[H])C([H])([H])N(C(=O)C([H])(N([H])C(=O)C([H])(N([H])C([H])([H])[H])C([H])([H])[H])C(C([H])([H])[H])(C([H])([H])[H])C([H])([H])[H])C([H])(C(=O)N([H])C1([H])c3c([H])c([H])c([H])c([H])c3C([H])([H])C([H])([H])C1([H])[H])C2([H])[H]

$$$$
17:0:0
     RDKit          3D

 94102  0  0  1  0  0  0  0  0999 V2000
  -23.8060  -21.2790   18.7700 C   0  0  0  0  0  3  0  0  0  0  0  0
  -23.2190  -22.5060   19.1340 C   0  0  0  0  0  3  0  0  0  0  0  0
  -26.0080  -22.2800   18.9820 C   0  0  0  0  0  3  0  0  0  0  0  0
  -25.2070  -21.1720   18.6560 C   0  0  0  0  0  0  0  0  0  0  0  0
  -24.0240  -23.6490   19.3340 C   0  0  0  0  0  0  0  0  0  0  0  0
  -25.4330  -23.5310   19.2390 C   0  0  0  0  0  0  0  0  0  0  0  0
  -23.3650  -24.9850   19.6050 C   0  0  0  0  0  1  0  0  0  0  0  0
  -26.3720  -24.7230   19.1700 C   0  0  0  0  0  2  0  0  0  0  0  0
  -26.6460  -24.9870   17.6800 C   0  0  0  0  0  2  0  0  0  0  0  0
  -27.7660  -25.9760   17.3600 C   0  0  0  0  0  2  0  0  0  0  0  0
  -27.3640  -26.8650   16.1550 C   0  0  0  0  0  2  0  0  0  0  0  0
  -27.3850  -28.2580   16.4410 O   0  0  0  0  0  0  0  0  0  0  0  0
  -25.5180  -28.6790   23.2290 C   0  0  0  0  0  0  0  0  0  0  0  0
  -26.4320  -28.7400   17.3060 C   0  0  0  0  0  0  0  0  0  0  0  0
  -23.7670  -29.3560   21.6150 C   0  0  0  0  0  3  0  0  0  0  0  0
  -24.5450  -29.6410   19.2000 C   0  0  0  0  0  0  0  0  0  0  0  0
  -26.2430  -29.6050   21.0370 C   0  0  0  0  0  2  0  0  0  0  0  0
  -25.8660  -29.3900   19.5890 C   0  0  0  0  0  0  0  0  0  0  0  0
  -26.8130  -28.9480   18.6440 C   0  0  0  0  0  3  0  0  0  0  0  0
  -25.0980  -29.0020   16.9170 C   0  0  0  0  0  3  0  0  0  0  0  0
  -24.1530  -29.4490   17.8620 C   0  0  0  0  0  3  0  0  0  0  0  0
  -23.5980  -30.1240   20.2750 C   0  0  0  0  0  2  0  0  0  0  0  0
  -25.2040  -29.1670   21.9960 N   0  0  0  0  0  0  0  0  0  0  0  0
  -24.6360  -28.4280   24.0620 O   0  0  0  0  0  0  0  0  0  0  0  0
  -22.9810  -28.0320   21.5200 C   0  0  0  0  0  0  0  0  0  0  0  0
  -21.6420  -28.1340   21.4880 N   0  0  0  0  0  0  0  0  0  0  0  0
  -23.5690  -26.9500   21.4480 O   0  0  0  0  0  0  0  0  0  0  0  0
  -21.2330  -29.0550   21.5590 H   0  0  0  0  0  0  0  0  0  0  0  0
  -18.1770  -27.3150   20.8880 C   0  0  0  0  0  0  0  0  0  0  0  0
  -20.7000  -27.0250   21.3560 C   0  0  0  0  0  3  0  0  0  0  0  0
  -20.7860  -26.3980   19.9480 C   0  0  0  0  0  2  0  0  0  0  0  0
  -19.7750  -26.9820   18.9550 C   0  0  0  0  0  2  0  0  0  0  0  0
  -18.3460  -26.7940   19.4710 C   0  0  0  0  0  2  0  0  0  0  0  0
  -19.2850  -27.4370   21.7680 C   0  0  0  0  0  0  0  0  0  0  0  0
  -19.0780  -27.9620   23.0620 C   0  0  0  0  0  3  0  0  0  0  0  0
  -17.7950  -28.3550   23.4830 C   0  0  0  0  0  3  0  0  0  0  0  0
  -16.6990  -28.2180   22.6130 C   0  0  0  0  0  3  0  0  0  0  0  0
  -16.8900  -27.6980   21.3210 C   0  0  0  0  0  3  0  0  0  0  0  0
  -26.9980  -28.4360   23.6640 C   0  0  0  0  0  3  0  0  0  0  0  0
  -27.4010  -26.9110   23.6760 C   0  0  1  0  0  0  0  0  0  0  0  0
  -26.4270  -26.0200   24.4800 C   0  0  0  0  0  1  0  0  0  0  0  0
  -27.4670  -26.3570   22.2340 C   0  0  0  0  0  1  0  0  0  0  0  0
  -28.8150  -26.7460   24.2800 C   0  0  0  0  0  1  0  0  0  0  0  0
  -27.1710  -29.0320   24.9940 N   0  0  0  0  0  0  0  0  0  0  0  0
  -27.8340  -30.1730   25.2340 C   0  0  0  0  0  0  0  0  0  0  0  0
  -28.4310  -30.8000   24.3540 O   0  0  0  0  0  0  0  0  0  0  0  0
  -26.6640  -28.6030   25.7530 H   0  0  0  0  0  0  0  0  0  0  0  0
  -26.8600  -31.8840   26.7980 C   0  0  0  0  0  1  0  0  0  0  0  0
  -27.8340  -30.7010   26.6810 C   0  0  0  0  0  3  0  0  0  0  0  0
  -30.0870  -29.9840   27.3410 C   0  0  0  0  0  1  0  0  0  0  0  0
  -29.1730  -31.1080   27.1610 N   0  0  0  0  0  0  0  0  0  0  0  0
  -29.1030  -31.6040   28.0450 H   0  0  0  0  0  0  0  0  0  0  0  0
  -25.8300  -19.9140   18.0770 C   0  0  0  0  0  2  0  0  0  0  0  0
  -27.3700  -19.9750   17.9280 C   0  0  0  0  0  2  0  0  0  0  0  0
  -27.9920  -18.5860   17.8560 C   0  0  0  0  0  2  0  0  0  0  0  0
  -29.2500  -18.3850   18.7180 C   0  0  0  0  0  2  0  0  0  0  0  0
  -29.3990  -16.8870   18.9580 C   0  0  0  0  0  2  0  0  0  0  0  0
  -30.2830  -16.4230   20.1240 C   0  0  0  0  0  2  0  0  0  0  0  0
  -30.9920  -15.1170   19.7340 C   0  0  0  0  0  0  0  0  0  0  0  0
  -30.9770  -12.6590   19.4940 C   0  0  0  0  0  2  0  0  0  0  0  0
  -30.0730  -12.2180   18.3260 C   0  0  0  0  0  2  0  0  0  0  0  0
  -28.6170  -12.0450   18.8020 C   0  0  0  0  0  2  0  0  0  0  0  0
  -28.1080  -13.2800   19.5840 C   0  0  0  0  0  3  0  0  0  0  0  0
  -29.1280  -13.7000   20.6760 C   0  0  0  0  0  2  0  0  0  0  0  0
  -30.4410  -13.9120   20.0430 N   0  0  0  0  0  0  0  0  0  0  0  0
  -32.0350  -15.2190   19.0830 O   0  0  0  0  0  0  0  0  0  0  0  0
  -25.8030  -13.9840   20.5030 C   0  0  0  0  0  0  0  0  0  0  0  0
  -24.7190  -13.2540   20.9000 C   0  0  0  0  0  0  0  0  0  0  0  0
  -25.0930  -11.8840   20.7500 C   0  0  0  0  0  0  0  0  0  0  0  0
  -26.7770  -13.0630   20.1430 N   0  0  0  0  0  0  0  0  0  0  0  0
  -26.3540  -11.7890   20.3480 N   0  0  0  0  0  0  0  0  0  0  0  0
  -24.3070  -10.6560   20.9080 C   0  0  0  0  0  0  0  0  0  0  0  0
  -24.6690   -9.6640   21.8460 C   0  0  0  0  0  3  0  0  0  0  0  0
  -23.8870   -8.4990   21.9910 C   0  0  0  0  0  3  0  0  0  0  0  0
  -22.7300   -8.3180   21.1970 C   0  0  0  0  0  0  0  0  0  0  0  0
  -22.3890   -9.2980   20.2470 C   0  0  0  0  0  3  0  0  0  0  0  0
  -23.1720  -10.4550   20.1000 C   0  0  0  0  0  3  0  0  0  0  0  0
  -21.9220   -7.2090   21.2520 O   0  0  0  0  0  0  0  0  0  0  0  0
  -21.6950   -6.5420   22.4300 C   0  0  0  0  0  0  0  0  0  0  0  0
  -21.1180   -7.1830   23.5480 C   0  0  0  0  0  3  0  0  0  0  0  0
  -20.8380   -6.4450   24.7160 C   0  0  0  0  0  3  0  0  0  0  0  0
  -21.1270   -5.0670   24.7630 C   0  0  0  0  0  0  0  0  0  0  0  0
  -21.6970   -4.4270   23.6490 C   0  0  0  0  0  3  0  0  0  0  0  0
  -21.9770   -5.1630   22.4850 C   0  0  0  0  0  0  0  0  0  0  0  0
  -22.5080   -4.5370   21.4060 F   0  0  0  0  0  0  0  0  0  0  0  0
  -20.8500   -4.3560   25.8800 F   0  0  0  0  0  0  0  0  0  0  0  0
  -23.3750  -13.7920   21.3030 C   0  0  0  0  0  0  0  0  0  0  0  0
  -22.6790  -13.0960   22.1920 N   0  0  0  0  0  0  0  0  0  0  0  0
  -22.9530  -14.8600   20.8610 O   0  0  0  0  0  0  0  0  0  0  0  0
  -23.0310  -12.2250   22.5630 H   0  0  0  0  0  0  0  0  0  0  0  0
  -21.7810  -13.4400   22.5040 H   0  0  0  0  0  0  0  0  0  0  0  0
  -26.0270  -15.3480   20.3960 N   0  0  0  0  0  0  0  0  0  0  0  0
  -25.3150  -16.0330   20.6240 H   0  0  0  0  0  0  0  0  0  0  0  0
  -26.8910  -15.7570   20.0680 H   0  0  0  0  0  0  0  0  0  0  0  0
  1  2  1  0
  2  5  2  0
  3  6  2  0
  4  1  2  0
  4  3  1  0
  5  7  1  0
  6  5  1  0
  8  6  1  0
  9  8  1  0
 10  9  1  0
 11 12  1  0
 11 10  1  0
 12 14  1  0
 13 24  2  0
 14 19  1  0
 15 25  1  0
 15 23  1  0
 16 18  1  0
 16 22  1  0
 17 23  1  0
 18 17  1  0
 19 18  2  0
 20 14  2  0
 20 21  1  0
 21 16  2  0
 22 15  1  0
 23 13  1  0
 26 25  1  0
 26 28  1  0
 27 25  2  0
 29 38  2  0
 29 34  1  0
 30 26  1  0
 30 34  1  0
 31 30  1  0
 32 33  1  0
 32 31  1  0
 33 29  1  0
 34 35  2  0
 35 36  1  0
 37 36  2  0
 38 37  1  0
 39 13  1  0
 39 40  1  0
 39 44  1  0
 40 43  1  1
 40 41  1  0
 42 40  1  0
 44 45  1  0
 44 47  1  0
 45 49  1  0
 46 45  2  0
 49 48  1  0
 49 51  1  0
 51 50  1  0
 51 52  1  0
 53  4  1  0
 54 53  1  0
 55 54  1  0
 55 56  1  0
 56 57  1  0
 57 58  1  0
 59 65  1  0
 59 58  1  0
 60 65  1  0
 61 62  1  0
 61 60  1  0
 63 62  1  0
 63 70  1  0
 63 64  1  0
 65 64  1  0
 66 59  2  0
 67 68  2  0
 68 87  1  0
 69 68  1  0
 69 72  1  0
 70 71  1  0
 70 67  1  0
 71 69  2  0
 72 73  1  0
 73 74  2  0
 75 78  1  0
 75 74  1  0
 76 75  2  0
 77 76  1  0
 77 72  2  0
 78 79  1  0
 79 84  2  0
 79 80  1  0
 80 81  2  0
 81 82  1  0
 82 86  1  0
 83 82  2  0
 84 83  1  0
 85 84  1  0
 87 88  1  0
 88 91  1  0
 88 90  1  0
 89 87  2  0
 92 67  1  0
 92 93  1  0
 94 92  1  0
M  ISO  4  11 101  12 101  58 100  59 100
M  END
>  <TORSDO>  (18) 
F 26

>  <SCORE>  (18) 
-7.414

>  <name>  (18) 
17

>  <ligand_id>  (18) 
17

>  <original_smiles>  (18) 
[H]c1c([H])c([H])c2c(c1[H])C([H])([H])C([H])([H])C([H])([H])C2([H])N([H])C(=O)C1([H])N(C(=O)C([H])(N([H])C(=O)C([H])(N([H])C([H])([H])[H])C([H])([H])[H])C(C([H])([H])[H])(C([H])([H])[H])C([H])([H])[H])C([H])([H])c2c([H])c(OC([H])([H])C([H])([H])C([H])([H])C([H])([H])c3c([H])c(C([H])([H])C([H])([H])C([H])([H])C([H])([H])C([H])([H])C([H])([H])C(=O)N4C([H])([H])C([H])([H])C([H])([H])C([H])(n5nc(-c6c([H])c([H])c(Oc7c([H])c([H])c(F)c([H])c7F)c([H])c6[H])c(C(=O)N([H])[H])c5N([H])[H])C4([H])[H])c([H])c([H])c3C([H])([H])[H])c([H])c([H])c2C1([H])[H]

>  <smiles>  (18) 
[H]c1c([H])c([H])c2c(c1[H])C([H])([H])C([H])([H])C([H])([H])C2([H])N([H])C(=O)C1([H])N(C(=O)C([H])(N([H])C(=O)C([H])(N([H])C([H])([H])[H])C([H])([H])[H])C(C([H])([H])[H])(C([H])([H])[H])C([H])([H])[H])C([H])([H])c2c([H])c(OC([H])([H])C([H])([H])C([H])([H])C([H])([H])c3c([H])c(C([H])([H])C([H])([H])C([H])([H])C([H])([H])C([H])([H])C([H])([H])C(=O)N4C([H])([H])C([H])([H])C([H])([H])C([H])(n5nc(-c6c([H])c([H])c(Oc7c([H])c([H])c(F)c([H])c7F)c([H])c6[H])c(C(=O)N([H])[H])c5N([H])[H])C4([H])[H])c([H])c([H])c3C([H])([H])[H])c([H])c([H])c2C1([H])[H]

$$$$
18:0:0
     RDKit          3D

 95103  0  0  1  0  0  0  0  0999 V2000
  -33.1620  -25.5600   20.9310 C   0  0  0  0  0  3  0  0  0  0  0  0
  -32.7910  -27.3850   19.5470 C   0  0  0  0  0  3  0  0  0  0  0  0
  -32.6480  -26.8860   20.8160 C   0  0  0  0  0  0  0  0  0  0  0  0
  -33.6320  -25.0510   19.7500 C   0  0  0  0  0  0  0  0  0  0  0  0
  -33.5100  -26.2230   18.4660 S   0  0  0  0  0  0  0  0  0  0  0  0
  -31.9910  -27.6120   21.9550 C   0  0  0  0  0  2  0  0  0  0  0  0
  -30.4500  -27.5780   21.8980 C   0  0  0  0  0  2  0  0  0  0  0  0
  -29.8540  -26.2040   21.5180 C   0  0  0  0  0  2  0  0  0  0  0  0
  -28.3470  -26.2310   21.2540 C   0  0  0  0  0  2  0  0  0  0  0  0
  -28.0490  -26.8690   20.0140 O   0  0  0  0  0  0  0  0  0  0  0  0
  -24.7350  -32.0700   23.5090 C   0  0  0  0  0  0  0  0  0  0  0  0
  -26.9370  -27.6610   20.0990 C   0  0  0  0  0  0  0  0  0  0  0  0
  -23.3450  -30.7880   21.9100 C   0  0  0  0  0  3  0  0  0  0  0  0
  -24.6180  -29.2400   20.3310 C   0  0  0  0  0  0  0  0  0  0  0  0
  -25.8610  -31.0470   21.5400 C   0  0  0  0  0  2  0  0  0  0  0  0
  -25.8340  -29.7000   20.8530 C   0  0  0  0  0  0  0  0  0  0  0  0
  -26.9980  -28.9160   20.7380 C   0  0  0  0  0  3  0  0  0  0  0  0
  -25.7140  -27.2040   19.5710 C   0  0  0  0  0  3  0  0  0  0  0  0
  -24.5500  -27.9880   19.6880 C   0  0  0  0  0  3  0  0  0  0  0  0
  -23.4210  -30.1480   20.4960 C   0  0  0  0  0  2  0  0  0  0  0  0
  -24.6700  -31.3130   22.3780 N   0  0  0  0  0  0  0  0  0  0  0  0
  -23.7110  -32.3740   24.1350 O   0  0  0  0  0  0  0  0  0  0  0  0
  -22.7140  -29.7650   22.8800 C   0  0  0  0  0  0  0  0  0  0  0  0
  -21.4140  -29.4890   22.6920 N   0  0  0  0  0  0  0  0  0  0  0  0
  -23.3930  -29.2210   23.7550 O   0  0  0  0  0  0  0  0  0  0  0  0
  -20.9270  -29.9860   21.9590 H   0  0  0  0  0  0  0  0  0  0  0  0
  -18.1590  -27.9440   22.9260 C   0  0  0  0  0  0  0  0  0  0  0  0
  -20.6180  -28.5310   23.4580 C   0  0  0  0  0  3  0  0  0  0  0  0
  -20.9480  -27.0780   23.0450 C   0  0  0  0  0  2  0  0  0  0  0  0
  -20.0230  -26.5360   21.9510 C   0  0  0  0  0  2  0  0  0  0  0  0
  -18.5650  -26.5710   22.4180 C   0  0  0  0  0  2  0  0  0  0  0  0
  -19.1250  -28.8690   23.4000 C   0  0  0  0  0  0  0  0  0  0  0  0
  -18.6990  -30.1460   23.8280 C   0  0  0  0  0  3  0  0  0  0  0  0
  -17.3370  -30.5010   23.7920 C   0  0  0  0  0  3  0  0  0  0  0  0
  -16.3830  -29.5740   23.3370 C   0  0  0  0  0  3  0  0  0  0  0  0
  -16.7940  -28.2980   22.9100 C   0  0  0  0  0  3  0  0  0  0  0  0
  -26.0940  -32.6110   24.0540 C   0  0  0  0  0  3  0  0  0  0  0  0
  -26.6230  -31.8130   25.3100 C   0  0  1  0  0  0  0  0  0  0  0  0
  -25.5600  -31.6220   26.4160 C   0  0  0  0  0  1  0  0  0  0  0  0
  -27.1260  -30.4120   24.8910 C   0  0  0  0  0  1  0  0  0  0  0  0
  -27.8310  -32.5520   25.9320 C   0  0  0  0  0  1  0  0  0  0  0  0
  -25.9060  -34.0300   24.3800 N   0  0  0  0  0  0  0  0  0  0  0  0
  -26.3040  -35.0470   23.6040 C   0  0  0  0  0  0  0  0  0  0  0  0
  -26.9410  -34.8840   22.5590 O   0  0  0  0  0  0  0  0  0  0  0  0
  -25.3440  -34.2380   25.1920 H   0  0  0  0  0  0  0  0  0  0  0  0
  -24.7360  -36.9790   23.2430 C   0  0  0  0  0  1  0  0  0  0  0  0
  -25.9360  -36.4730   24.0580 C   0  0  0  0  0  3  0  0  0  0  0  0
  -28.1310  -37.1800   24.9020 C   0  0  0  0  0  1  0  0  0  0  0  0
  -27.0570  -37.4330   23.9460 N   0  0  0  0  0  0  0  0  0  0  0  0
  -26.7290  -38.3850   24.0820 H   0  0  0  0  0  0  0  0  0  0  0  0
  -34.1200  -23.6610   19.5100 C   0  0  0  0  0  2  0  0  0  0  0  0
  -32.9590  -22.6650   19.3710 C   0  0  0  0  0  2  0  0  0  0  0  0
  -33.3020  -21.2610   19.8900 C   0  0  0  0  0  2  0  0  0  0  0  0
  -32.1010  -20.3050   19.8130 C   0  0  0  0  0  2  0  0  0  0  0  0
  -32.2860  -19.0620   20.6930 C   0  0  0  0  0  2  0  0  0  0  0  0
  -31.2240  -17.9850   20.4280 C   0  0  0  0  0  2  0  0  0  0  0  0
  -31.4220  -16.7560   21.3310 C   0  0  0  0  0  2  0  0  0  0  0  0
  -30.8940  -14.8220   19.8570 C   0  0  0  0  0  0  0  0  0  0  0  0
  -30.6120  -12.5440   18.9570 C   0  0  0  0  0  2  0  0  0  0  0  0
  -29.5940  -12.4690   17.8070 C   0  0  0  0  0  2  0  0  0  0  0  0
  -28.1680  -12.2850   18.3580 C   0  0  0  0  0  2  0  0  0  0  0  0
  -27.8250  -13.3170   19.4640 C   0  0  0  0  0  3  0  0  0  0  0  0
  -28.9420  -13.3760   20.5290 C   0  0  0  0  0  2  0  0  0  0  0  0
  -30.2270  -13.6410   19.8550 N   0  0  0  0  0  0  0  0  0  0  0  0
  -31.7850  -15.1030   19.0490 O   0  0  0  0  0  0  0  0  0  0  0  0
  -30.6260  -15.6080   20.9050 N   0  0  0  0  0  0  0  0  0  0  0  0
  -29.9060  -15.2860   21.5350 H   0  0  0  0  0  0  0  0  0  0  0  0
  -25.5300  -13.9170   20.4680 C   0  0  0  0  0  0  0  0  0  0  0  0
  -24.4880  -13.1390   20.8970 C   0  0  0  0  0  0  0  0  0  0  0  0
  -24.9090  -11.7860   20.7220 C   0  0  0  0  0  0  0  0  0  0  0  0
  -26.5230  -13.0360   20.0660 N   0  0  0  0  0  0  0  0  0  0  0  0
  -26.1560  -11.7450   20.2720 N   0  0  0  0  0  0  0  0  0  0  0  0
  -24.1760  -10.5260   20.9020 C   0  0  0  0  0  0  0  0  0  0  0  0
  -24.5550   -9.5850   21.8870 C   0  0  0  0  0  3  0  0  0  0  0  0
  -23.8230   -8.3890   22.0530 C   0  0  0  0  0  3  0  0  0  0  0  0
  -22.7010   -8.1240   21.2330 C   0  0  0  0  0  0  0  0  0  0  0  0
  -22.3430   -9.0530   20.2400 C   0  0  0  0  0  3  0  0  0  0  0  0
  -23.0740  -10.2410   20.0730 C   0  0  0  0  0  3  0  0  0  0  0  0
  -21.9470   -6.9780   21.3050 O   0  0  0  0  0  0  0  0  0  0  0  0
  -21.6970   -6.3550   22.5020 C   0  0  0  0  0  0  0  0  0  0  0  0
  -21.0340   -7.0120   23.5600 C   0  0  0  0  0  3  0  0  0  0  0  0
  -20.7360   -6.3130   24.7480 C   0  0  0  0  0  3  0  0  0  0  0  0
  -21.0910   -4.9570   24.8740 C   0  0  0  0  0  0  0  0  0  0  0  0
  -21.7460   -4.2990   23.8190 C   0  0  0  0  0  3  0  0  0  0  0  0
  -22.0460   -4.9950   22.6340 C   0  0  0  0  0  0  0  0  0  0  0  0
  -22.6590   -4.3510   21.6130 F   0  0  0  0  0  0  0  0  0  0  0  0
  -20.7970   -4.2820   26.0100 F   0  0  0  0  0  0  0  0  0  0  0  0
  -23.1410  -13.6190   21.3550 C   0  0  0  0  0  0  0  0  0  0  0  0
  -22.5080  -12.8910   22.2680 N   0  0  0  0  0  0  0  0  0  0  0  0
  -22.6620  -14.6730   20.9380 O   0  0  0  0  0  0  0  0  0  0  0  0
  -22.9090  -12.0360   22.6240 H   0  0  0  0  0  0  0  0  0  0  0  0
  -21.6090  -13.1920   22.6160 H   0  0  0  0  0  0  0  0  0  0  0  0
  -25.7100  -15.2940   20.3700 N   0  0  0  0  0  0  0  0  0  0  0  0
  -24.9830  -15.9580   20.6130 H   0  0  0  0  0  0  0  0  0  0  0  0
  -26.5440  -15.7360   20.0010 H   0  0  0  0  0  0  0  0  0  0  0  0
  2  3  2  0
  3  1  1  0
  3  6  1  0
  4  1  2  0
  5  2  1  0
  5  4  1  0
  7  6  1  0
  8  7  1  0
  9  8  1  0
 10 12  1  0
 10  9  1  0
 11 22  2  0
 12 17  1  0
 13 21  1  0
 13 23  1  0
 14 20  1  0
 14 16  1  0
 15 21  1  0
 16 15  1  0
 17 16  2  0
 18 19  1  0
 18 12  2  0
 19 14  2  0
 20 13  1  0
 21 11  1  0
 23 25  2  0
 24 23  1  0
 26 24  1  0
 27 32  1  0
 28 24  1  0
 29 28  1  0
 30 31  1  0
 30 29  1  0
 31 27  1  0
 32 28  1  0
 32 33  2  0
 34 33  1  0
 35 34  2  0
 36 27  2  0
 36 35  1  0
 37 11  1  0
 37 42  1  0
 37 38  1  0
 38 41  1  1
 38 39  1  0
 40 38  1  0
 42 45  1  0
 43 47  1  0
 43 42  1  0
 44 43  2  0
 47 46  1  0
 49 47  1  0
 49 50  1  0
 49 48  1  0
 51  4  1  0
 52 51  1  0
 52 53  1  0
 54 53  1  0
 54 55  1  0
 56 55  1  0
 56 57  1  0
 58 66  1  0
 59 64  1  0
 60 61  1  0
 60 59  1  0
 62 61  1  0
 62 71  1  0
 62 63  1  0
 64 58  1  0
 64 63  1  0
 65 58  2  0
 66 57  1  0
 66 67  1  0
 68 69  2  0
 69 88  1  0
 70 69  1  0
 70 73  1  0
 71 72  1  0
 71 68  1  0
 72 70  2  0
 73 74  1  0
 74 75  2  0
 76 79  1  0
 76 75  1  0
 77 76  2  0
 78 77  1  0
 78 73  2  0
 79 80  1  0
 80 85  2  0
 80 81  1  0
 81 82  2  0
 82 83  1  0
 83 87  1  0
 84 83  2  0
 85 84  1  0
 86 85  1  0
 88 89  1  0
 89 92  1  0
 89 91  1  0
 90 88  2  0
 93 68  1  0
 93 94  1  0
 95 93  1  0
M  ISO  4   9 101  10 101  58 100  66 100
M  END
>  <TORSDO>  (19) 
F 27

>  <SCORE>  (19) 
-10.451

>  <name>  (19) 
18

>  <ligand_id>  (19) 
18

>  <original_smiles>  (19) 
[H]c1sc(C([H])([H])C([H])([H])C([H])([H])C([H])([H])C([H])([H])C([H])([H])C([H])([H])N([H])C(=O)N2C([H])([H])C([H])([H])C([H])([H])C([H])(n3nc(-c4c([H])c([H])c(Oc5c([H])c([H])c(F)c([H])c5F)c([H])c4[H])c(C(=O)N([H])[H])c3N([H])[H])C2([H])[H])c([H])c1C([H])([H])C([H])([H])C([H])([H])C([H])([H])Oc1c([H])c([H])c2c(c1[H])C([H])([H])N(C(=O)C([H])(N([H])C(=O)C([H])(N([H])C([H])([H])[H])C([H])([H])[H])C(C([H])([H])[H])(C([H])([H])[H])C([H])([H])[H])C([H])(C(=O)N([H])C1([H])c3c([H])c([H])c([H])c([H])c3C([H])([H])C([H])([H])C1([H])[H])C2([H])[H]

>  <smiles>  (19) 
[H]c1sc(C([H])([H])C([H])([H])C([H])([H])C([H])([H])C([H])([H])C([H])([H])C([H])([H])N([H])C(=O)N2C([H])([H])C([H])([H])C([H])([H])C([H])(n3nc(-c4c([H])c([H])c(Oc5c([H])c([H])c(F)c([H])c5F)c([H])c4[H])c(C(=O)N([H])[H])c3N([H])[H])C2([H])[H])c([H])c1C([H])([H])C([H])([H])C([H])([H])C([H])([H])Oc1c([H])c([H])c2c(c1[H])C([H])([H])N(C(=O)C([H])(N([H])C(=O)C([H])(N([H])C([H])([H])[H])C([H])([H])[H])C(C([H])([H])[H])(C([H])([H])[H])C([H])([H])[H])C([H])(C(=O)N([H])C1([H])c3c([H])c([H])c([H])c([H])c3C([H])([H])C([H])([H])C1([H])[H])C2([H])[H]

$$$$
19:0:0
     RDKit          3D

 92 99  0  0  1  0  0  0  0  0999 V2000
  -27.5510  -24.2800   21.3370 N   0  0  0  0  0  4  0  0  0  0  0  0
  -26.8750  -24.6590   21.9840 H   0  0  0  0  0  0  0  0  0  0  0  0
  -27.0430  -23.7020   20.6870 H   0  0  0  0  0  0  0  0  0  0  0  0
  -28.1930  -25.3850   20.5950 C   0  0  0  0  0  2  0  0  0  0  0  0
  -27.3010  -25.8250   19.4250 C   0  0  0  0  0  2  0  0  0  0  0  0
  -27.8440  -27.0220   18.6180 C   0  0  0  0  0  2  0  0  0  0  0  0
  -26.8910  -27.4190   17.6250 O   0  0  0  0  0  0  0  0  0  0  0  0
  -24.6210  -31.5030   22.9600 C   0  0  0  0  0  0  0  0  0  0  0  0
  -25.8560  -28.1530   18.1470 C   0  0  0  0  0  0  0  0  0  0  0  0
  -22.8660  -30.6310   21.4480 C   0  0  0  0  0  3  0  0  0  0  0  0
  -23.7000  -29.5670   19.2850 C   0  0  0  0  0  0  0  0  0  0  0  0
  -25.2430  -31.0370   20.5970 C   0  0  0  0  0  2  0  0  0  0  0  0
  -25.0180  -29.9060   19.6200 C   0  0  0  0  0  0  0  0  0  0  0  0
  -26.1000  -29.2020   19.0570 C   0  0  0  0  0  3  0  0  0  0  0  0
  -24.5280  -27.8320   17.8000 C   0  0  0  0  0  3  0  0  0  0  0  0
  -23.4460  -28.5220   18.3780 C   0  0  0  0  0  3  0  0  0  0  0  0
  -22.6010  -30.3710   19.9390 C   0  0  0  0  0  2  0  0  0  0  0  0
  -24.2780  -31.0540   21.7200 N   0  0  0  0  0  0  0  0  0  0  0  0
  -23.7770  -31.6100   23.8590 O   0  0  0  0  0  0  0  0  0  0  0  0
  -22.4390  -29.3800   22.2480 C   0  0  0  0  0  0  0  0  0  0  0  0
  -21.1310  -29.0770   22.2320 N   0  0  0  0  0  0  0  0  0  0  0  0
  -23.2740  -28.6900   22.8370 O   0  0  0  0  0  0  0  0  0  0  0  0
  -20.5080  -29.6990   21.7330 H   0  0  0  0  0  0  0  0  0  0  0  0
  -18.0520  -27.2060   22.5040 C   0  0  0  0  0  0  0  0  0  0  0  0
  -20.5070  -27.9250   22.8820 C   0  0  0  0  0  3  0  0  0  0  0  0
  -20.8970  -26.6080   22.1720 C   0  0  0  0  0  2  0  0  0  0  0  0
  -19.8890  -26.1810   21.0980 C   0  0  0  0  0  2  0  0  0  0  0  0
  -18.4980  -25.9900   21.7120 C   0  0  0  0  0  2  0  0  0  0  0  0
  -18.9950  -28.1230   23.0430 C   0  0  0  0  0  0  0  0  0  0  0  0
  -18.5260  -29.2550   23.7420 C   0  0  0  0  0  3  0  0  0  0  0  0
  -17.1460  -29.4770   23.9130 C   0  0  0  0  0  3  0  0  0  0  0  0
  -16.2180  -28.5600   23.3910 C   0  0  0  0  0  3  0  0  0  0  0  0
  -16.6730  -27.4270   22.6930 C   0  0  0  0  0  3  0  0  0  0  0  0
  -26.0840  -31.9290   23.3000 C   0  0  0  0  0  3  0  0  0  0  0  0
  -26.8920  -30.8220   24.0850 C   0  0  1  0  0  0  0  0  0  0  0  0
  -26.1550  -30.2810   25.3320 C   0  0  0  0  0  1  0  0  0  0  0  0
  -27.2030  -29.6170   23.1650 C   0  0  0  0  0  1  0  0  0  0  0  0
  -28.2520  -31.3970   24.5490 C   0  0  0  0  0  1  0  0  0  0  0  0
  -26.0110  -33.1750   24.0750 N   0  0  0  0  0  0  0  0  0  0  0  0
  -26.2820  -34.3920   23.5870 C   0  0  0  0  0  0  0  0  0  0  0  0
  -26.6910  -34.5790   22.4380 O   0  0  0  0  0  0  0  0  0  0  0  0
  -25.6420  -33.1040   25.0110 H   0  0  0  0  0  0  0  0  0  0  0  0
  -24.7430  -36.2970   24.1640 C   0  0  0  0  0  1  0  0  0  0  0  0
  -26.0630  -35.5970   24.5210 C   0  0  0  0  0  3  0  0  0  0  0  0
  -28.4100  -36.0690   25.0680 C   0  0  0  0  0  1  0  0  0  0  0  0
  -27.1690  -36.5770   24.4890 N   0  0  0  0  0  0  0  0  0  0  0  0
  -26.9140  -37.4240   24.9900 H   0  0  0  0  0  0  0  0  0  0  0  0
  -28.4710  -23.4170   22.1000 C   0  0  0  0  0  2  0  0  0  0  0  0
  -28.0880  -21.9390   21.9360 C   0  0  0  0  0  2  0  0  0  0  0  0
  -28.0040  -21.4760   20.4710 C   0  0  0  0  0  2  0  0  0  0  0  0
  -27.6920  -19.9790   20.3840 C   0  0  0  0  0  2  0  0  0  0  0  0
  -28.2770  -19.2850   19.1440 C   0  0  0  0  0  2  0  0  0  0  0  0
  -28.4030  -17.7770   19.4030 C   0  0  0  0  0  2  0  0  0  0  0  0
  -29.7190  -17.1160   18.9540 C   0  0  0  0  0  2  0  0  0  0  0  0
  -30.4490  -14.7080   19.2190 C   0  0  0  0  0  0  0  0  0  0  0  0
  -30.6750  -12.2730   19.5860 C   0  0  0  0  0  2  0  0  0  0  0  0
  -29.8420  -11.4730   18.5680 C   0  0  0  0  0  2  0  0  0  0  0  0
  -28.3890  -11.3040   19.0550 C   0  0  0  0  0  2  0  0  0  0  0  0
  -27.7590  -12.6470   19.5120 C   0  0  0  0  0  3  0  0  0  0  0  0
  -28.7080  -13.3880   20.4800 C   0  0  0  0  0  2  0  0  0  0  0  0
  -30.0160  -13.5660   19.8120 N   0  0  0  0  0  0  0  0  0  0  0  0
  -31.4130  -14.7650   18.4500 O   0  0  0  0  0  0  0  0  0  0  0  0
  -29.7440  -15.7920   19.5640 N   0  0  0  0  0  0  0  0  0  0  0  0
  -29.0420  -15.6190   20.2670 H   0  0  0  0  0  0  0  0  0  0  0  0
  -25.5150  -13.3800   20.5460 C   0  0  0  0  0  0  0  0  0  0  0  0
  -24.4150  -12.6660   20.9470 C   0  0  0  0  0  0  0  0  0  0  0  0
  -24.7280  -11.2930   20.7060 C   0  0  0  0  0  0  0  0  0  0  0  0
  -26.4360  -12.4430   20.1010 N   0  0  0  0  0  0  0  0  0  0  0  0
  -25.9700  -11.1770   20.2490 N   0  0  0  0  0  0  0  0  0  0  0  0
  -23.8980  -10.0870   20.8310 C   0  0  0  0  0  0  0  0  0  0  0  0
  -24.2100   -9.0680   21.7570 C   0  0  0  0  0  3  0  0  0  0  0  0
  -23.3850   -7.9280   21.8680 C   0  0  0  0  0  3  0  0  0  0  0  0
  -22.2320   -7.8020   21.0560 C   0  0  0  0  0  0  0  0  0  0  0  0
  -21.9410   -8.8100   20.1210 C   0  0  0  0  0  3  0  0  0  0  0  0
  -22.7670   -9.9400   20.0060 C   0  0  0  0  0  3  0  0  0  0  0  0
  -21.3850   -6.7200   21.0800 O   0  0  0  0  0  0  0  0  0  0  0  0
  -21.0190   -6.1200   22.2600 C   0  0  0  0  0  0  0  0  0  0  0  0
  -20.3960   -6.8420   23.3020 C   0  0  0  0  0  3  0  0  0  0  0  0
  -19.9710   -6.1700   24.4670 C   0  0  0  0  0  3  0  0  0  0  0  0
  -20.1620   -4.7810   24.5870 C   0  0  0  0  0  0  0  0  0  0  0  0
  -20.7770   -4.0600   23.5500 C   0  0  0  0  0  3  0  0  0  0  0  0
  -21.2030   -4.7290   22.3880 C   0  0  0  0  0  0  0  0  0  0  0  0
  -21.7750   -4.0280   21.3810 F   0  0  0  0  0  0  0  0  0  0  0  0
  -19.7500   -4.1340   25.7040 F   0  0  0  0  0  0  0  0  0  0  0  0
  -23.1110  -13.2300   21.4340 C   0  0  0  0  0  0  0  0  0  0  0  0
  -22.4200  -12.5090   22.3100 N   0  0  0  0  0  0  0  0  0  0  0  0
  -22.7210  -14.3400   21.0770 O   0  0  0  0  0  0  0  0  0  0  0  0
  -22.7450  -11.6040   22.6190 H   0  0  0  0  0  0  0  0  0  0  0  0
  -21.5500  -12.8670   22.6790 H   0  0  0  0  0  0  0  0  0  0  0  0
  -25.8010  -14.7410   20.5080 N   0  0  0  0  0  0  0  0  0  0  0  0
  -25.1240  -15.4430   20.7890 H   0  0  0  0  0  0  0  0  0  0  0  0
  -26.6670  -15.1360   20.1600 H   0  0  0  0  0  0  0  0  0  0  0  0
  1  2  1  0
  1 48  1  0
  3  1  1  0
  4  1  1  0
  5  4  1  0
  6  5  1  0
  7  9  1  0
  7  6  1  0
  8 19  2  0
  9 14  1  0
 10 18  1  0
 10 20  1  0
 11 13  1  0
 11 17  1  0
 12 18  1  0
 13 12  1  0
 14 13  2  0
 15  9  2  0
 15 16  1  0
 16 11  2  0
 17 10  1  0
 18  8  1  0
 20 22  2  0
 21 20  1  0
 23 21  1  0
 24 33  2  0
 24 29  1  0
 25 21  1  0
 25 29  1  0
 26 25  1  0
 27 28  1  0
 27 26  1  0
 28 24  1  0
 29 30  2  0
 30 31  1  0
 32 31  2  0
 33 32  1  0
 34  8  1  0
 34 39  1  0
 34 35  1  0
 35 38  1  1
 35 36  1  0
 37 35  1  0
 39 42  1  0
 40 39  1  0
 40 44  1  0
 41 40  2  0
 44 43  1  0
 46 44  1  0
 46 47  1  0
 46 45  1  0
 49 48  1  0
 50 49  1  0
 51 50  1  0
 52 53  1  0
 52 51  1  0
 54 53  1  0
 54 63  1  0
 55 63  1  0
 55 61  1  0
 56 61  1  0
 57 58  1  0
 57 56  1  0
 59 58  1  0
 59 68  1  0
 59 60  1  0
 61 60  1  0
 62 55  2  0
 63 64  1  0
 65 66  2  0
 66 85  1  0
 67 70  1  0
 67 66  1  0
 68 69  1  0
 68 65  1  0
 69 67  2  0
 70 71  1  0
 71 72  2  0
 73 76  1  0
 73 72  1  0
 74 73  2  0
 75 74  1  0
 75 70  2  0
 76 77  1  0
 77 82  2  0
 77 78  1  0
 78 79  2  0
 79 80  1  0
 80 84  1  0
 81 80  2  0
 82 81  1  0
 83 82  1  0
 85 86  1  0
 86 88  1  0
 86 89  1  0
 87 85  2  0
 90 65  1  0
 90 91  1  0
 92 90  1  0
M  ISO  4   6 101   7 101  55 100  63 100
M  END
>  <TORSDO>  (20) 
F 26

>  <SCORE>  (20) 
-7.940

>  <name>  (20) 
19

>  <ligand_id>  (20) 
19

>  <original_smiles>  (20) 
[H]c1c([H])c([H])c2c(c1[H])C([H])([H])C([H])([H])C([H])([H])C2([H])N([H])C(=O)C1([H])N(C(=O)C([H])(N([H])C(=O)C([H])(N([H])C([H])([H])[H])C([H])([H])[H])C(C([H])([H])[H])(C([H])([H])[H])C([H])([H])[H])C([H])([H])c2c([H])c(OC([H])([H])C([H])([H])C([H])([H])[N+]([H])([H])C([H])([H])C([H])([H])C([H])([H])C([H])([H])C([H])([H])C([H])([H])C([H])([H])N([H])C(=O)N3C([H])([H])C([H])([H])C([H])([H])C([H])(n4nc(-c5c([H])c([H])c(Oc6c([H])c([H])c(F)c([H])c6F)c([H])c5[H])c(C(=O)N([H])[H])c4N([H])[H])C3([H])[H])c([H])c([H])c2C1([H])[H]

>  <smiles>  (20) 
[H]c1c([H])c([H])c2c(c1[H])C([H])([H])C([H])([H])C([H])([H])C2([H])N([H])C(=O)C1([H])N(C(=O)C([H])(N([H])C(=O)C([H])(N([H])C([H])([H])[H])C([H])([H])[H])C(C([H])([H])[H])(C([H])([H])[H])C([H])([H])[H])C([H])([H])c2c([H])c(OC([H])([H])C([H])([H])C([H])([H])[N+]([H])([H])C([H])([H])C([H])([H])C([H])([H])C([H])([H])C([H])([H])C([H])([H])C([H])([H])N([H])C(=O)N3C([H])([H])C([H])([H])C([H])([H])C([H])(n4nc(-c5c([H])c([H])c(Oc6c([H])c([H])c(F)c([H])c6F)c([H])c5[H])c(C(=O)N([H])[H])c4N([H])[H])C3([H])[H])c([H])c([H])c2C1([H])[H]

$$$$
20:0:0
     RDKit          3D

105114  0  0  1  0  0  0  0  0999 V2000
  -32.4350  -23.1870   23.3160 C   0  0  0  0  0  2  0  0  0  0  0  0
  -30.9120  -23.6890   21.3680 C   0  0  0  0  0  2  0  0  0  0  0  0
  -31.1890  -23.0240   24.2040 C   0  0  0  0  0  2  0  0  0  0  0  0
  -29.7070  -23.5110   22.3100 C   0  0  0  0  0  2  0  0  0  0  0  0
  -32.1910  -24.1300   22.1180 C   0  0  0  0  0  3  0  0  0  0  0  0
  -30.0290  -22.5620   23.4040 N   0  0  2  0  0  4  0  0  0  0  0  0
  -30.3260  -21.7080   22.9580 H   0  0  0  0  0  0  0  0  0  0  0  0
  -28.8560  -22.1700   24.2270 C   0  0  0  0  0  2  0  0  0  0  0  0
  -29.1440  -20.9060   25.0620 C   0  0  0  0  0  2  0  0  0  0  0  0
  -30.5790  -20.3730   24.8830 C   0  0  0  0  0  2  0  0  0  0  0  0
  -30.6780  -19.1600   23.9370 C   0  0  0  0  0  2  0  0  0  0  0  0
  -32.1290  -18.6830   23.7160 C   0  0  0  0  0  2  0  0  0  0  0  0
  -32.9990  -19.7080   22.9670 C   0  0  0  0  0  2  0  0  0  0  0  0
  -34.0570  -19.0810   22.0370 C   0  0  0  0  0  2  0  0  0  0  0  0
  -34.1550  -19.8440   20.7030 C   0  0  0  0  0  2  0  0  0  0  0  0
  -34.4080  -18.9510   19.4700 C   0  0  0  0  0  2  0  0  0  0  0  0
  -34.0210  -19.1980   16.9940 C   0  0  0  0  0  0  0  0  0  0  0  0
  -32.7820  -17.9850   15.2430 C   0  0  0  0  0  2  0  0  0  0  0  0
  -31.3990  -18.6330   15.0140 C   0  0  0  0  0  2  0  0  0  0  0  0
  -30.3540  -18.0700   15.9990 C   0  0  0  0  0  2  0  0  0  0  0  0
  -30.8590  -18.0720   17.4660 C   0  0  0  0  0  3  0  0  0  0  0  0
  -32.2650  -17.4450   17.5430 C   0  0  0  0  0  2  0  0  0  0  0  0
  -33.1600  -18.2000   16.6500 N   0  0  0  0  0  0  0  0  0  0  0  0
  -34.6470  -19.8590   16.1620 O   0  0  0  0  0  0  0  0  0  0  0  0
  -33.9810  -19.6490   18.2560 N   0  0  0  0  0  0  0  0  0  0  0  0
  -34.2670  -20.6170   18.2800 H   0  0  0  0  0  0  0  0  0  0  0  0
  -28.8850  -17.9060   19.1170 C   0  0  0  0  0  0  0  0  0  0  0  0
  -28.2900  -16.8320   19.7200 C   0  0  0  0  0  0  0  0  0  0  0  0
  -29.0120  -15.6800   19.2810 C   0  0  0  0  0  0  0  0  0  0  0  0
  -29.9270  -17.3880   18.3590 N   0  0  0  0  0  0  0  0  0  0  0  0
  -30.0280  -16.0420   18.5090 N   0  0  0  0  0  0  0  0  0  0  0  0
  -28.7610  -14.2520   19.5020 C   0  0  0  0  0  0  0  0  0  0  0  0
  -29.2850  -13.5750   20.6250 C   0  0  0  0  0  3  0  0  0  0  0  0
  -29.0110  -12.2050   20.8260 C   0  0  0  0  0  3  0  0  0  0  0  0
  -28.2050  -11.4990   19.9010 C   0  0  0  0  0  0  0  0  0  0  0  0
  -27.7070  -12.1730   18.7720 C   0  0  0  0  0  3  0  0  0  0  0  0
  -27.9850  -13.5350   18.5710 C   0  0  0  0  0  3  0  0  0  0  0  0
  -27.9100  -10.1600   20.0010 O   0  0  0  0  0  0  0  0  0  0  0  0
  -26.9230   -9.7010   20.8380 C   0  0  0  0  0  0  0  0  0  0  0  0
  -25.7320  -10.4270   21.0530 C   0  0  0  0  0  3  0  0  0  0  0  0
  -24.7120   -9.8850   21.8630 C   0  0  0  0  0  3  0  0  0  0  0  0
  -24.8790   -8.6160   22.4490 C   0  0  0  0  0  0  0  0  0  0  0  0
  -26.0620   -7.8890   22.2310 C   0  0  0  0  0  3  0  0  0  0  0  0
  -27.0790   -8.4290   21.4230 C   0  0  0  0  0  0  0  0  0  0  0  0
  -28.2060   -7.7130   21.1960 F   0  0  0  0  0  0  0  0  0  0  0  0
  -23.9010   -8.0930   23.2240 F   0  0  0  0  0  0  0  0  0  0  0  0
  -27.0580  -16.8560   20.5800 C   0  0  0  0  0  0  0  0  0  0  0  0
  -27.0260  -16.0470   21.6320 N   0  0  0  0  0  0  0  0  0  0  0  0
  -26.1310  -17.6320   20.3460 O   0  0  0  0  0  0  0  0  0  0  0  0
  -27.7890  -15.4180   21.8330 H   0  0  0  0  0  0  0  0  0  0  0  0
  -26.2200  -16.0510   22.2410 H   0  0  0  0  0  0  0  0  0  0  0  0
  -28.6150  -19.2710   19.1330 N   0  0  0  0  0  0  0  0  0  0  0  0
  -27.8250  -19.6570   19.6360 H   0  0  0  0  0  0  0  0  0  0  0  0
  -29.1170  -19.9670   18.5950 H   0  0  0  0  0  0  0  0  0  0  0  0
  -33.4450  -24.1700   21.2100 C   0  0  0  0  0  2  0  0  0  0  0  0
  -34.0560  -26.5860   20.6990 C   0  0  0  0  0  3  0  0  0  0  0  0
  -34.1570  -27.6720   19.8080 C   0  0  0  0  0  3  0  0  0  0  0  0
  -33.0650  -25.2380   18.9340 C   0  0  0  0  0  3  0  0  0  0  0  0
  -33.5120  -25.3600   20.2650 C   0  0  0  0  0  0  0  0  0  0  0  0
  -33.6970  -27.5560   18.4790 C   0  0  0  0  0  0  0  0  0  0  0  0
  -33.1340  -26.3300   18.0440 C   0  0  0  0  0  0  0  0  0  0  0  0
  -33.8270  -28.7500   17.5470 C   0  0  0  0  0  1  0  0  0  0  0  0
  -32.5870  -26.1490   16.6350 C   0  0  0  0  0  2  0  0  0  0  0  0
  -31.0540  -26.2310   16.5720 C   0  0  0  0  0  2  0  0  0  0  0  0
  -30.4550  -25.4070   17.5700 O   0  0  0  0  0  0  0  0  0  0  0  0
  -27.9360  -28.7090   23.3690 C   0  0  0  0  0  0  0  0  0  0  0  0
  -29.4150  -26.0330   18.2020 C   0  0  0  0  0  0  0  0  0  0  0  0
  -26.2820  -28.1910   21.6010 C   0  0  0  0  0  3  0  0  0  0  0  0
  -27.2500  -27.3890   19.3830 C   0  0  0  0  0  0  0  0  0  0  0  0
  -28.7450  -28.5520   21.0190 C   0  0  0  0  0  2  0  0  0  0  0  0
  -28.5490  -27.5920   19.8660 C   0  0  0  0  0  0  0  0  0  0  0  0
  -29.6390  -26.9140   19.2810 C   0  0  0  0  0  3  0  0  0  0  0  0
  -28.1040  -25.8160   17.7370 C   0  0  0  0  0  3  0  0  0  0  0  0
  -27.0180  -26.4970   18.3210 C   0  0  0  0  0  3  0  0  0  0  0  0
  -26.1440  -28.1710   20.0550 C   0  0  0  0  0  2  0  0  0  0  0  0
  -27.6850  -28.4710   22.0500 N   0  0  0  0  0  0  0  0  0  0  0  0
  -27.0180  -28.7430   24.1980 O   0  0  0  0  0  0  0  0  0  0  0  0
  -25.7120  -26.8690   22.1610 C   0  0  0  0  0  0  0  0  0  0  0  0
  -24.6140  -26.3900   21.5560 N   0  0  0  0  0  0  0  0  0  0  0  0
  -26.2690  -26.2860   23.0950 O   0  0  0  0  0  0  0  0  0  0  0  0
  -24.2140  -26.9310   20.8020 H   0  0  0  0  0  0  0  0  0  0  0  0
  -22.3730  -23.8730   20.2560 C   0  0  0  0  0  0  0  0  0  0  0  0
  -23.9250  -25.1430   21.8850 C   0  0  0  0  0  3  0  0  0  0  0  0
  -24.8780  -23.9310   21.7630 C   0  0  0  0  0  2  0  0  0  0  0  0
  -24.8250  -23.2610   20.3860 C   0  0  0  0  0  2  0  0  0  0  0  0
  -23.4060  -22.7740   20.0810 C   0  0  0  0  0  2  0  0  0  0  0  0
  -22.6230  -24.9940   21.0900 C   0  0  0  0  0  0  0  0  0  0  0  0
  -21.6450  -26.0080   21.1900 C   0  0  0  0  0  3  0  0  0  0  0  0
  -20.4350  -25.9110   20.4770 C   0  0  0  0  0  3  0  0  0  0  0  0
  -20.1850  -24.7910   19.6640 C   0  0  0  0  0  3  0  0  0  0  0  0
  -21.1510  -23.7750   19.5580 C   0  0  0  0  0  3  0  0  0  0  0  0
  -29.3840  -28.9730   23.8910 C   0  0  0  0  0  3  0  0  0  0  0  0
  -29.3160  -30.1050   24.8240 N   0  0  0  0  0  0  0  0  0  0  0  0
  -29.7660  -31.3390   24.5550 C   0  0  0  0  0  0  0  0  0  0  0  0
  -30.3540  -31.6240   23.5080 O   0  0  0  0  0  0  0  0  0  0  0  0
  -28.7990  -29.9580   25.6770 H   0  0  0  0  0  0  0  0  0  0  0  0
  -28.3610  -33.3290   25.1740 C   0  0  0  0  0  1  0  0  0  0  0  0
  -29.5250  -32.4280   25.6160 C   0  0  0  0  0  3  0  0  0  0  0  0
  -31.7790  -32.5300   26.5820 C   0  0  0  0  0  1  0  0  0  0  0  0
  -30.7190  -33.2570   25.8900 N   0  0  0  0  0  0  0  0  0  0  0  0
  -30.4730  -34.0690   26.4500 H   0  0  0  0  0  0  0  0  0  0  0  0
  -30.0350  -27.7140   24.5850 C   0  0  1  0  0  0  0  0  0  0  0  0
  -29.1420  -27.0740   25.6720 C   0  0  0  0  0  1  0  0  0  0  0  0
  -30.3600  -26.6240   23.5370 C   0  0  0  0  0  1  0  0  0  0  0  0
  -31.3770  -28.1130   25.2410 C   0  0  0  0  0  1  0  0  0  0  0  0
  1  3  1  0
  2  5  1  0
  2  4  1  0
  4  6  1  0
  5 55  1  0
  5  1  1  0
  6  3  1  0
  6  8  1  0
  6  7  1  6
  8  9  1  0
 10  9  1  0
 11 10  1  0
 12 11  1  0
 13 12  1  0
 14 13  1  0
 15 14  1  0
 16 15  1  0
 17 25  1  0
 18 23  1  0
 19 18  1  0
 19 20  1  0
 21 20  1  0
 21 22  1  0
 21 30  1  0
 23 17  1  0
 23 22  1  0
 24 17  2  0
 25 26  1  0
 25 16  1  0
 27 52  1  0
 27 28  2  0
 28 47  1  0
 29 32  1  0
 29 28  1  0
 30 31  1  0
 30 27  1  0
 31 29  2  0
 32 33  1  0
 33 34  2  0
 35 38  1  0
 35 34  1  0
 36 35  2  0
 37 36  1  0
 37 32  2  0
 38 39  1  0
 39 40  2  0
 39 44  1  0
 40 41  1  0
 41 42  2  0
 42 46  1  0
 43 42  1  0
 44 43  2  0
 45 44  1  0
 47 48  1  0
 48 50  1  0
 48 51  1  0
 49 47  2  0
 52 53  1  0
 54 52  1  0
 57 56  2  0
 58 59  2  0
 59 56  1  0
 59 55  1  0
 60 57  1  0
 61 60  2  0
 61 58  1  0
 62 60  1  0
 63 61  1  0
 64 63  1  0
 64 65  1  0
 65 67  1  0
 66 77  2  0
 67 72  1  0
 68 76  1  0
 68 78  1  0
 69 71  1  0
 69 75  1  0
 70 76  1  0
 71 70  1  0
 72 71  2  0
 73 67  2  0
 73 74  1  0
 74 69  2  0
 75 68  1  0
 76 66  1  0
 78 80  2  0
 79 78  1  0
 81 79  1  0
 82 87  1  0
 83 79  1  0
 84 83  1  0
 85 84  1  0
 86 82  1  0
 86 85  1  0
 87 88  2  0
 87 83  1  0
 89 88  1  0
 90 89  2  0
 91 90  1  0
 91 82  2  0
 92 66  1  0
 92102  1  0
 92 93  1  0
 93 96  1  0
 94 93  1  0
 94 98  1  0
 95 94  2  0
 98 97  1  0
 98100  1  0
100101  1  0
100 99  1  0
102105  1  1
102103  1  0
104102  1  0
M  ISO  4  17 100  25 100  64 101  65 101
M  END
>  <TORSDO>  (21) 
F 29

>  <SCORE>  (21) 
10.691

>  <name>  (21) 
20

>  <ligand_id>  (21) 
20

>  <original_smiles>  (21) 
[H]c1c([H])c([H])c2c(c1[H])C([H])([H])C([H])([H])C([H])([H])C2([H])N([H])C(=O)C1([H])N(C(=O)C([H])(N([H])C(=O)C([H])(N([H])C([H])([H])[H])C([H])([H])[H])C(C([H])([H])[H])(C([H])([H])[H])C([H])([H])[H])C([H])([H])c2c([H])c(OC([H])([H])C([H])([H])c3c([H])c(C([H])([H])C4([H])C([H])([H])C([H])([H])[N+]([H])(C([H])([H])C([H])([H])C([H])([H])C([H])([H])C([H])([H])C([H])([H])C([H])([H])C([H])([H])C([H])([H])N([H])C(=O)N5C([H])([H])C([H])([H])C([H])([H])C([H])(n6nc(-c7c([H])c([H])c(Oc8c([H])c([H])c(F)c([H])c8F)c([H])c7[H])c(C(=O)N([H])[H])c6N([H])[H])C5([H])[H])C([H])([H])C4([H])[H])c([H])c([H])c3C([H])([H])[H])c([H])c([H])c2C1([H])[H]

>  <smiles>  (21) 
[H]c1c([H])c([H])c2c(c1[H])C([H])([H])C([H])([H])C([H])([H])C2([H])N([H])C(=O)C1([H])N(C(=O)C([H])(N([H])C(=O)C([H])(N([H])C([H])([H])[H])C([H])([H])[H])C(C([H])([H])[H])(C([H])([H])[H])C([H])([H])[H])C([H])([H])c2c([H])c(OC([H])([H])C([H])([H])c3c([H])c(C([H])([H])C4([H])C([H])([H])C([H])([H])[N+]([H])(C([H])([H])C([H])([H])C([H])([H])C([H])([H])C([H])([H])C([H])([H])C([H])([H])C([H])([H])C([H])([H])N([H])C(=O)N5C([H])([H])C([H])([H])C([H])([H])C([H])(n6nc(-c7c([H])c([H])c(Oc8c([H])c([H])c(F)c([H])c8F)c([H])c7[H])c(C(=O)N([H])[H])c6N([H])[H])C5([H])[H])C([H])([H])C4([H])[H])c([H])c([H])c3C([H])([H])[H])c([H])c([H])c2C1([H])[H]

$$$$
21:0:0
     RDKit          3D

 95104  0  0  1  0  0  0  0  0999 V2000
  -27.4260  -22.3280   22.2060 C   0  0  0  0  0  3  0  0  0  0  0  0
  -26.4890  -23.3740   22.1420 C   0  0  0  0  0  3  0  0  0  0  0  0
  -28.4430  -23.1250   20.1410 C   0  0  0  0  0  3  0  0  0  0  0  0
  -28.4110  -22.2010   21.2070 C   0  0  0  0  0  0  0  0  0  0  0  0
  -26.5210  -24.3040   21.0790 C   0  0  0  0  0  0  0  0  0  0  0  0
  -27.5050  -24.1790   20.0620 C   0  0  0  0  0  0  0  0  0  0  0  0
  -25.4780  -25.4110   21.0500 C   0  0  0  0  0  1  0  0  0  0  0  0
  -29.4370  -21.0810   21.2810 C   0  0  0  0  0  2  0  0  0  0  0  0
  -29.2920  -20.0600   20.1380 C   0  0  0  0  0  2  0  0  0  0  0  0
  -32.3070  -15.1660   20.0650 C   0  0  0  0  0  0  0  0  0  0  0  0
  -32.0880  -12.7580   19.6160 C   0  0  0  0  0  2  0  0  0  0  0  0
  -31.1980  -12.5620   18.3730 C   0  0  0  0  0  2  0  0  0  0  0  0
  -29.7090  -12.5180   18.7700 C   0  0  0  0  0  2  0  0  0  0  0  0
  -29.3000  -13.6910   19.7020 C   0  0  0  0  0  3  0  0  0  0  0  0
  -30.3090  -13.8520   20.8620 C   0  0  0  0  0  2  0  0  0  0  0  0
  -31.6530  -13.9950   20.2780 N   0  0  0  0  0  0  0  0  0  0  0  0
  -33.4410  -15.2240   19.5760 O   0  0  0  0  0  0  0  0  0  0  0  0
  -30.2720  -18.0440   18.9300 C   0  0  0  0  0  2  0  0  0  0  0  0
  -30.4440  -18.1180   21.4140 C   0  0  0  0  0  2  0  0  0  0  0  0
  -31.4630  -17.0770   18.8980 C   0  0  0  0  0  2  0  0  0  0  0  0
  -31.6070  -17.1020   21.3460 C   0  0  0  0  0  2  0  0  0  0  0  0
  -30.3920  -18.9800   20.1380 C   0  0  0  0  0  3  0  0  0  0  0  0
  -31.5390  -16.2750   20.1290 N   0  0  0  0  0  0  0  0  0  0  0  0
  -26.9860  -14.4980   20.4920 C   0  0  0  0  0  0  0  0  0  0  0  0
  -25.8500  -13.8150   20.8390 C   0  0  0  0  0  0  0  0  0  0  0  0
  -26.1710  -12.4290   20.7230 C   0  0  0  0  0  0  0  0  0  0  0  0
  -27.9330  -13.5300   20.1930 N   0  0  0  0  0  0  0  0  0  0  0  0
  -27.4440  -12.2770   20.3840 N   0  0  0  0  0  0  0  0  0  0  0  0
  -25.3230  -11.2370   20.8570 C   0  0  0  0  0  0  0  0  0  0  0  0
  -25.6220  -10.2210   21.7920 C   0  0  0  0  0  3  0  0  0  0  0  0
  -24.7820   -9.0930   21.9160 C   0  0  0  0  0  3  0  0  0  0  0  0
  -23.6280   -8.9760   21.1060 C   0  0  0  0  0  0  0  0  0  0  0  0
  -23.3470   -9.9790   20.1610 C   0  0  0  0  0  3  0  0  0  0  0  0
  -24.1880  -11.0980   20.0340 C   0  0  0  0  0  3  0  0  0  0  0  0
  -22.7680   -7.9040   21.1390 O   0  0  0  0  0  0  0  0  0  0  0  0
  -22.4380   -7.2820   22.3160 C   0  0  0  0  0  0  0  0  0  0  0  0
  -21.9040   -7.9950   23.4110 C   0  0  0  0  0  3  0  0  0  0  0  0
  -21.5150   -7.3050   24.5780 C   0  0  0  0  0  3  0  0  0  0  0  0
  -21.6490   -5.9060   24.6460 C   0  0  0  0  0  0  0  0  0  0  0  0
  -22.1760   -5.1930   23.5550 C   0  0  0  0  0  3  0  0  0  0  0  0
  -22.5670   -5.8800   22.3910 C   0  0  0  0  0  0  0  0  0  0  0  0
  -23.0540   -5.1870   21.3340 F   0  0  0  0  0  0  0  0  0  0  0  0
  -21.2680   -5.2420   25.7630 F   0  0  0  0  0  0  0  0  0  0  0  0
  -24.5140  -14.4150   21.1690 C   0  0  0  0  0  0  0  0  0  0  0  0
  -23.7420  -13.7560   22.0270 N   0  0  0  0  0  0  0  0  0  0  0  0
  -24.1660  -15.5010   20.7070 O   0  0  0  0  0  0  0  0  0  0  0  0
  -24.0350  -12.8740   22.4240 H   0  0  0  0  0  0  0  0  0  0  0  0
  -22.8440  -14.1370   22.2900 H   0  0  0  0  0  0  0  0  0  0  0  0
  -27.2870  -15.8510   20.3870 N   0  0  0  0  0  0  0  0  0  0  0  0
  -26.6000  -16.5760   20.5600 H   0  0  0  0  0  0  0  0  0  0  0  0
  -28.1860  -16.2150   20.0990 H   0  0  0  0  0  0  0  0  0  0  0  0
  -27.5510  -25.1310   18.8640 C   0  0  0  0  0  2  0  0  0  0  0  0
  -28.9470  -25.3060   18.2380 C   0  0  0  0  0  2  0  0  0  0  0  0
  -29.1840  -26.6990   17.6200 C   0  0  0  0  0  2  0  0  0  0  0  0
  -28.0780  -27.1190   16.8100 O   0  0  0  0  0  0  0  0  0  0  0  0
  -25.4750  -29.3650   23.0310 C   0  0  0  0  0  0  0  0  0  0  0  0
  -27.0670  -27.7620   17.4830 C   0  0  0  0  0  0  0  0  0  0  0  0
  -23.8890  -29.3680   21.1300 C   0  0  0  0  0  3  0  0  0  0  0  0
  -24.9230  -29.0140   18.8260 C   0  0  0  0  0  0  0  0  0  0  0  0
  -26.3920  -29.6840   20.7390 C   0  0  0  0  0  2  0  0  0  0  0  0
  -26.2020  -29.0180   19.3940 C   0  0  0  0  0  0  0  0  0  0  0  0
  -27.2780  -28.4040   18.7240 C   0  0  0  0  0  3  0  0  0  0  0  0
  -25.7790  -27.7770   16.9120 C   0  0  0  0  0  3  0  0  0  0  0  0
  -24.7030  -28.3930   17.5810 C   0  0  0  0  0  3  0  0  0  0  0  0
  -23.8300  -29.6980   19.6140 C   0  0  0  0  0  2  0  0  0  0  0  0
  -25.2790  -29.4440   21.6850 N   0  0  0  0  0  0  0  0  0  0  0  0
  -24.5200  -29.2760   23.8120 O   0  0  0  0  0  0  0  0  0  0  0  0
  -23.2110  -27.9980   21.3610 C   0  0  0  0  0  0  0  0  0  0  0  0
  -21.9030  -27.9230   21.0640 N   0  0  0  0  0  0  0  0  0  0  0  0
  -23.8600  -27.0300   21.7670 O   0  0  0  0  0  0  0  0  0  0  0  0
  -21.4410  -28.7620   20.7450 H   0  0  0  0  0  0  0  0  0  0  0  0
  -18.6600  -26.5690   20.2310 C   0  0  0  0  0  0  0  0  0  0  0  0
  -21.0650  -26.7280   21.1620 C   0  0  0  0  0  3  0  0  0  0  0  0
  -21.4440  -25.6900   20.0810 C   0  0  0  0  0  2  0  0  0  0  0  0
  -20.6100  -25.8200   18.8030 C   0  0  0  0  0  2  0  0  0  0  0  0
  -19.1200  -25.6480   19.1150 C   0  0  0  0  0  2  0  0  0  0  0  0
  -19.5750  -27.0890   21.1830 C   0  0  0  0  0  0  0  0  0  0  0  0
  -19.1010  -27.9700   22.1800 C   0  0  0  0  0  3  0  0  0  0  0  0
  -17.7410  -28.3280   22.2370 C   0  0  0  0  0  3  0  0  0  0  0  0
  -16.8360  -27.7970   21.3020 C   0  0  0  0  0  3  0  0  0  0  0  0
  -17.2950  -26.9180   20.3040 C   0  0  0  0  0  3  0  0  0  0  0  0
  -26.9050  -29.4060   23.6550 C   0  0  0  0  0  3  0  0  0  0  0  0
  -26.9380  -30.5180   24.6120 N   0  0  0  0  0  0  0  0  0  0  0  0
  -27.5580  -31.6870   24.4010 C   0  0  0  0  0  0  0  0  0  0  0  0
  -28.2310  -31.9150   23.3900 O   0  0  0  0  0  0  0  0  0  0  0  0
  -26.3620  -30.4210   25.4350 H   0  0  0  0  0  0  0  0  0  0  0  0
  -26.4010  -33.8360   25.0050 C   0  0  0  0  0  1  0  0  0  0  0  0
  -27.4080  -32.7770   25.4780 C   0  0  0  0  0  3  0  0  0  0  0  0
  -29.6130  -32.5430   26.5330 C   0  0  0  0  0  1  0  0  0  0  0  0
  -28.6860  -33.4310   25.8370 N   0  0  0  0  0  0  0  0  0  0  0  0
  -28.5220  -34.2420   26.4270 H   0  0  0  0  0  0  0  0  0  0  0  0
  -27.3190  -28.0520   24.3540 C   0  0  1  0  0  0  0  0  0  0  0  0
  -26.2570  -27.5130   25.3400 C   0  0  0  0  0  1  0  0  0  0  0  0
  -27.5840  -26.9560   23.2950 C   0  0  0  0  0  1  0  0  0  0  0  0
  -28.6400  -28.2470   25.1340 C   0  0  0  0  0  1  0  0  0  0  0  0
  2  1  1  0
  3  4  1  0
  4  8  1  0
  4  1  2  0
  5  2  2  0
  6  3  2  0
  6  5  1  0
  7  5  1  0
  9  8  1  0
 10 23  1  0
 10 16  1  0
 11 16  1  0
 12 13  1  0
 12 11  1  0
 14 13  1  0
 14 27  1  0
 14 15  1  0
 16 15  1  0
 17 10  2  0
 18 22  1  0
 20 18  1  0
 20 23  1  0
 21 19  1  0
 22  9  1  0
 22 19  1  0
 23 21  1  0
 24 25  2  0
 25 44  1  0
 26 25  1  0
 26 29  1  0
 27 28  1  0
 27 24  1  0
 28 26  2  0
 29 30  1  0
 30 31  2  0
 32 35  1  0
 32 31  1  0
 33 32  2  0
 34 33  1  0
 34 29  2  0
 35 36  1  0
 36 41  2  0
 36 37  1  0
 37 38  2  0
 38 39  1  0
 39 43  1  0
 40 39  2  0
 41 40  1  0
 42 41  1  0
 44 45  1  0
 45 48  1  0
 45 47  1  0
 46 44  2  0
 49 24  1  0
 49 50  1  0
 51 49  1  0
 52  6  1  0
 53 52  1  0
 54 53  1  0
 55 57  1  0
 55 54  1  0
 56 67  2  0
 57 62  1  0
 58 68  1  0
 58 66  1  0
 59 61  1  0
 59 65  1  0
 60 66  1  0
 61 60  1  0
 62 61  2  0
 63 57  2  0
 63 64  1  0
 64 59  2  0
 65 58  1  0
 66 56  1  0
 68 70  2  0
 69 68  1  0
 71 69  1  0
 72 81  2  0
 72 77  1  0
 73 69  1  0
 73 77  1  0
 74 73  1  0
 75 76  1  0
 75 74  1  0
 76 72  1  0
 77 78  2  0
 78 79  1  0
 80 79  2  0
 81 80  1  0
 82 56  1  0
 82 92  1  0
 82 83  1  0
 83 86  1  0
 84 83  1  0
 84 88  1  0
 85 84  2  0
 88 87  1  0
 88 90  1  0
 90 91  1  0
 90 89  1  0
 92 95  1  1
 92 93  1  0
 94 92  1  0
M  ISO  4  10 100  23 100  54 101  55 101
M  END
>  <TORSDO>  (22) 
F 21

>  <SCORE>  (22) 
-7.906

>  <name>  (22) 
21

>  <ligand_id>  (22) 
21

>  <original_smiles>  (22) 
[H]c1c([H])c([H])c2c(c1[H])C([H])([H])C([H])([H])C([H])([H])C2([H])N([H])C(=O)C1([H])N(C(=O)C([H])(N([H])C(=O)C([H])(N([H])C([H])([H])[H])C([H])([H])[H])C(C([H])([H])[H])(C([H])([H])[H])C([H])([H])[H])C([H])([H])c2c([H])c(OC([H])([H])C([H])([H])C([H])([H])c3c([H])c(C([H])([H])C([H])([H])C4([H])C([H])([H])C([H])([H])N(C(=O)N5C([H])([H])C([H])([H])C([H])([H])C([H])(n6nc(-c7c([H])c([H])c(Oc8c([H])c([H])c(F)c([H])c8F)c([H])c7[H])c(C(=O)N([H])[H])c6N([H])[H])C5([H])[H])C([H])([H])C4([H])[H])c([H])c([H])c3C([H])([H])[H])c([H])c([H])c2C1([H])[H]

>  <smiles>  (22) 
[H]c1c([H])c([H])c2c(c1[H])C([H])([H])C([H])([H])C([H])([H])C2([H])N([H])C(=O)C1([H])N(C(=O)C([H])(N([H])C(=O)C([H])(N([H])C([H])([H])[H])C([H])([H])[H])C(C([H])([H])[H])(C([H])([H])[H])C([H])([H])[H])C([H])([H])c2c([H])c(OC([H])([H])C([H])([H])C([H])([H])c3c([H])c(C([H])([H])C([H])([H])C4([H])C([H])([H])C([H])([H])N(C(=O)N5C([H])([H])C([H])([H])C([H])([H])C([H])(n6nc(-c7c([H])c([H])c(Oc8c([H])c([H])c(F)c([H])c8F)c([H])c7[H])c(C(=O)N([H])[H])c6N([H])[H])C5([H])[H])C([H])([H])C4([H])[H])c([H])c([H])c3C([H])([H])[H])c([H])c([H])c2C1([H])[H]

$$$$
22:0:0
     RDKit          3D

 98107  0  0  1  0  0  0  0  0999 V2000
  -32.8650  -24.0100   20.9790 C   0  0  0  0  0  3  0  0  0  0  0  0
  -33.1300  -25.3910   21.0180 C   0  0  0  0  0  3  0  0  0  0  0  0
  -31.2120  -24.3770   19.2270 C   0  0  0  0  0  3  0  0  0  0  0  0
  -31.8990  -23.5010   20.0890 C   0  0  0  0  0  0  0  0  0  0  0  0
  -31.4800  -25.7600   19.2530 C   0  0  0  0  0  0  0  0  0  0  0  0
  -32.4380  -26.2710   20.1630 C   0  0  0  0  0  0  0  0  0  0  0  0
  -32.7210  -27.6340   20.2340 N   0  0  0  0  0  0  0  0  0  0  0  0
  -33.1940  -27.9970   21.0550 H   0  0  0  0  0  0  0  0  0  0  0  0
  -32.0650  -28.2950   19.8320 H   0  0  0  0  0  0  0  0  0  0  0  0
  -31.5890  -22.0180   20.0700 C   0  0  0  0  0  2  0  0  0  0  0  0
  -30.5250  -21.6500   21.1160 C   0  0  0  0  0  2  0  0  0  0  0  0
  -29.1980  -19.4790   21.1060 C   0  0  0  0  0  2  0  0  0  0  0  0
  -30.3360  -20.1540   21.2380 C   0  0  0  0  0  3  0  0  0  0  0  0
  -29.3960  -17.9960   21.2500 C   0  0  0  0  0  2  0  0  0  0  0  0
  -31.5050  -19.2480   21.5180 C   0  0  0  0  0  2  0  0  0  0  0  0
  -30.8750  -17.8420   21.7180 C   0  0  1  0  0  0  0  0  0  0  0  0
  -30.9050  -17.4840   23.2180 C   0  0  0  0  0  1  0  0  0  0  0  0
  -31.6500  -16.7960   20.8750 C   0  0  0  0  0  2  0  0  0  0  0  0
  -31.2960  -15.3300   21.1940 C   0  0  0  0  0  2  0  0  0  0  0  0
  -31.8150  -14.3010   20.1710 C   0  0  0  0  0  0  0  0  0  0  0  0
  -31.3170  -12.3040   18.7990 C   0  0  0  0  0  2  0  0  0  0  0  0
  -30.3570  -12.6750   17.6520 C   0  0  0  0  0  2  0  0  0  0  0  0
  -28.8880  -12.6330   18.1170 C   0  0  0  0  0  2  0  0  0  0  0  0
  -28.6620  -13.4040   19.4450 C   0  0  0  0  0  3  0  0  0  0  0  0
  -29.7130  -12.9750   20.4930 C   0  0  0  0  0  2  0  0  0  0  0  0
  -31.0460  -13.2120   19.9200 N   0  0  0  0  0  0  0  0  0  0  0  0
  -32.8810  -14.5110   19.5810 O   0  0  0  0  0  0  0  0  0  0  0  0
  -26.3230  -14.1850   20.1950 C   0  0  0  0  0  0  0  0  0  0  0  0
  -25.2090  -13.4880   20.5780 C   0  0  0  0  0  0  0  0  0  0  0  0
  -25.5710  -12.1070   20.5300 C   0  0  0  0  0  0  0  0  0  0  0  0
  -27.2990  -13.2310   19.9420 N   0  0  0  0  0  0  0  0  0  0  0  0
  -26.8470  -11.9760   20.1960 N   0  0  0  0  0  0  0  0  0  0  0  0
  -24.7600  -10.8980   20.7260 C   0  0  0  0  0  0  0  0  0  0  0  0
  -25.0840   -9.9450   21.7160 C   0  0  0  0  0  3  0  0  0  0  0  0
  -24.2790   -8.8000   21.8980 C   0  0  0  0  0  3  0  0  0  0  0  0
  -23.1370   -8.6000   21.0860 C   0  0  0  0  0  0  0  0  0  0  0  0
  -22.8330   -9.5390   20.0860 C   0  0  0  0  0  3  0  0  0  0  0  0
  -23.6370  -10.6770   19.9040 C   0  0  0  0  0  3  0  0  0  0  0  0
  -22.3120   -7.5040   21.1720 O   0  0  0  0  0  0  0  0  0  0  0  0
  -22.0710   -6.8770   22.3690 C   0  0  0  0  0  0  0  0  0  0  0  0
  -21.5510   -7.5730   23.4820 C   0  0  0  0  0  3  0  0  0  0  0  0
  -21.2530   -6.8780   24.6710 C   0  0  0  0  0  3  0  0  0  0  0  0
  -21.4650   -5.4870   24.7460 C   0  0  0  0  0  0  0  0  0  0  0  0
  -21.9770   -4.7930   23.6360 C   0  0  0  0  0  3  0  0  0  0  0  0
  -22.2760   -5.4850   22.4500 C   0  0  0  0  0  0  0  0  0  0  0  0
  -22.7500   -4.8080   21.3770 F   0  0  0  0  0  0  0  0  0  0  0  0
  -21.1700   -4.8170   25.8840 F   0  0  0  0  0  0  0  0  0  0  0  0
  -23.8540  -14.0600   20.8790 C   0  0  0  0  0  0  0  0  0  0  0  0
  -23.1110  -13.4350   21.7860 N   0  0  0  0  0  0  0  0  0  0  0  0
  -23.4650  -15.0980   20.3450 O   0  0  0  0  0  0  0  0  0  0  0  0
  -23.4360  -12.5930   22.2380 H   0  0  0  0  0  0  0  0  0  0  0  0
  -22.2010  -13.8000   22.0290 H   0  0  0  0  0  0  0  0  0  0  0  0
  -26.5850  -15.5410   20.0220 N   0  0  0  0  0  0  0  0  0  0  0  0
  -25.8720  -16.2530   20.1490 H   0  0  0  0  0  0  0  0  0  0  0  0
  -27.4640  -15.9180   19.6910 H   0  0  0  0  0  0  0  0  0  0  0  0
  -30.7450  -26.6710   18.2810 C   0  0  0  0  0  2  0  0  0  0  0  0
  -29.5970  -27.4560   18.9270 C   0  0  0  0  0  2  0  0  0  0  0  0
  -28.4320  -26.6440   19.1140 O   0  0  0  0  0  0  0  0  0  0  0  0
  -24.7600  -31.5550   22.7750 C   0  0  0  0  0  0  0  0  0  0  0  0
  -27.2630  -27.3440   19.3130 C   0  0  0  0  0  0  0  0  0  0  0  0
  -23.4640  -30.2470   21.1150 C   0  0  0  0  0  3  0  0  0  0  0  0
  -24.8430  -28.7870   19.5440 C   0  0  0  0  0  0  0  0  0  0  0  0
  -25.9690  -30.6340   20.8070 C   0  0  0  0  0  2  0  0  0  0  0  0
  -26.0200  -29.2990   20.1020 C   0  0  0  0  0  0  0  0  0  0  0  0
  -27.2250  -28.5810   19.9980 C   0  0  0  0  0  3  0  0  0  0  0  0
  -26.0650  -26.8220   18.7830 C   0  0  0  0  0  3  0  0  0  0  0  0
  -24.8560  -27.5420   18.8890 C   0  0  0  0  0  3  0  0  0  0  0  0
  -23.6020  -29.6350   19.6940 C   0  0  0  0  0  2  0  0  0  0  0  0
  -24.7510  -30.8240   21.6250 N   0  0  0  0  0  0  0  0  0  0  0  0
  -23.7100  -31.7950   23.3870 O   0  0  0  0  0  0  0  0  0  0  0  0
  -22.8620  -29.1760   22.0510 C   0  0  0  0  0  0  0  0  0  0  0  0
  -21.5300  -29.0180   21.9930 N   0  0  0  0  0  0  0  0  0  0  0  0
  -23.5830  -28.4920   22.7810 O   0  0  0  0  0  0  0  0  0  0  0  0
  -21.0070  -29.6250   21.3760 H   0  0  0  0  0  0  0  0  0  0  0  0
  -18.1730  -27.8490   22.6230 C   0  0  0  0  0  0  0  0  0  0  0  0
  -20.7460  -28.0440   22.7500 C   0  0  0  0  0  3  0  0  0  0  0  0
  -20.7830  -26.6530   22.0740 C   0  0  0  0  0  2  0  0  0  0  0  0
  -19.6150  -26.4200   21.1110 C   0  0  0  0  0  2  0  0  0  0  0  0
  -18.2780  -26.5460   21.8480 C   0  0  0  0  0  2  0  0  0  0  0  0
  -19.3310  -28.5620   23.0310 C   0  0  0  0  0  0  0  0  0  0  0  0
  -19.1770  -29.7860   23.7170 C   0  0  0  0  0  3  0  0  0  0  0  0
  -17.8970  -30.2980   23.9970 C   0  0  0  0  0  3  0  0  0  0  0  0
  -16.7530  -29.5820   23.6050 C   0  0  0  0  0  3  0  0  0  0  0  0
  -16.8930  -28.3580   22.9230 C   0  0  0  0  0  3  0  0  0  0  0  0
  -26.0810  -32.1440   23.3650 C   0  0  0  0  0  3  0  0  0  0  0  0
  -25.7970  -33.5190   23.7950 N   0  0  0  0  0  0  0  0  0  0  0  0
  -26.1200  -34.6160   23.0970 C   0  0  0  0  0  0  0  0  0  0  0  0
  -26.7600  -34.5740   22.0420 O   0  0  0  0  0  0  0  0  0  0  0  0
  -25.2260  -33.6250   24.6220 H   0  0  0  0  0  0  0  0  0  0  0  0
  -24.4100  -36.4470   22.8960 C   0  0  0  0  0  1  0  0  0  0  0  0
  -25.6580  -35.9740   23.6570 C   0  0  0  0  0  3  0  0  0  0  0  0
  -27.8150  -36.7720   24.5170 C   0  0  0  0  0  1  0  0  0  0  0  0
  -26.7030  -37.0190   23.6020 N   0  0  0  0  0  0  0  0  0  0  0  0
  -26.3120  -37.9310   23.8180 H   0  0  0  0  0  0  0  0  0  0  0  0
  -26.6670  -31.2920   24.5560 C   0  0  1  0  0  0  0  0  0  0  0  0
  -25.6350  -30.9810   25.6650 C   0  0  0  0  0  1  0  0  0  0  0  0
  -27.2210  -29.9440   24.0390 C   0  0  0  0  0  1  0  0  0  0  0  0
  -27.8540  -32.0410   25.2060 C   0  0  0  0  0  1  0  0  0  0  0  0
  1  2  1  0
  3  5  2  0
  3  4  1  0
  4  1  2  0
  5  6  1  0
  6  7  1  0
  6  2  2  0
  7  8  1  0
  9  7  1  0
 10  4  1  0
 10 11  1  0
 12 13  1  0
 12 14  1  0
 13 11  1  0
 13 15  1  0
 14 16  1  0
 15 16  1  0
 16 17  1  1
 18 19  1  0
 18 16  1  0
 20 19  1  0
 21 26  1  0
 22 23  1  0
 22 21  1  0
 24 23  1  0
 24 31  1  0
 24 25  1  0
 26 20  1  0
 26 25  1  0
 27 20  2  0
 28 29  2  0
 29 48  1  0
 30 29  1  0
 30 33  1  0
 31 28  1  0
 31 32  1  0
 32 30  2  0
 33 34  1  0
 34 35  2  0
 36 39  1  0
 36 35  1  0
 37 36  2  0
 38 37  1  0
 38 33  2  0
 39 40  1  0
 40 45  2  0
 40 41  1  0
 41 42  2  0
 42 43  1  0
 43 47  1  0
 44 43  2  0
 45 44  1  0
 46 45  1  0
 48 49  1  0
 49 52  1  0
 49 51  1  0
 50 48  2  0
 53 54  1  0
 53 28  1  0
 55 53  1  0
 56 57  1  0
 56  5  1  0
 57 58  1  0
 58 60  1  0
 59 70  2  0
 60 65  1  0
 61 69  1  0
 61 71  1  0
 62 68  1  0
 62 64  1  0
 63 69  1  0
 64 63  1  0
 65 64  2  0
 66 67  1  0
 66 60  2  0
 67 62  2  0
 68 61  1  0
 69 59  1  0
 71 73  2  0
 72 71  1  0
 74 72  1  0
 75 84  2  0
 75 80  1  0
 76 72  1  0
 76 80  1  0
 77 76  1  0
 78 79  1  0
 78 77  1  0
 79 75  1  0
 80 81  2  0
 81 82  1  0
 83 82  2  0
 84 83  1  0
 85 59  1  0
 85 86  1  0
 85 95  1  0
 86 89  1  0
 87 91  1  0
 87 86  1  0
 88 87  2  0
 91 90  1  0
 93 91  1  0
 93 94  1  0
 93 92  1  0
 95 98  1  1
 95 96  1  0
 97 95  1  0
M  ISO  4  19 100  20 100  57 101  58 101
M  END
>  <TORSDO>  (23) 
F 24

>  <SCORE>  (23) 
-8.571

>  <name>  (23) 
22

>  <ligand_id>  (23) 
22

>  <original_smiles>  (23) 
[H]C1=C(C([H])([H])C([H])([H])c2c([H])c([H])c(N([H])[H])c(C([H])([H])C([H])([H])Oc3c([H])c([H])c4c(c3[H])C([H])([H])N(C(=O)C([H])(N([H])C(=O)C([H])(N([H])C([H])([H])[H])C([H])([H])[H])C(C([H])([H])[H])(C([H])([H])[H])C([H])([H])[H])C([H])(C(=O)N([H])C3([H])c5c([H])c([H])c([H])c([H])c5C([H])([H])C([H])([H])C3([H])[H])C4([H])[H])c2[H])C([H])([H])C(C([H])([H])[H])(C([H])([H])C([H])([H])C(=O)N2C([H])([H])C([H])([H])C([H])([H])C([H])(n3nc(-c4c([H])c([H])c(Oc5c([H])c([H])c(F)c([H])c5F)c([H])c4[H])c(C(=O)N([H])[H])c3N([H])[H])C2([H])[H])C1([H])[H]

>  <smiles>  (23) 
[H]C1=C(C([H])([H])C([H])([H])c2c([H])c([H])c(N([H])[H])c(C([H])([H])C([H])([H])Oc3c([H])c([H])c4c(c3[H])C([H])([H])N(C(=O)C([H])(N([H])C(=O)C([H])(N([H])C([H])([H])[H])C([H])([H])[H])C(C([H])([H])[H])(C([H])([H])[H])C([H])([H])[H])C([H])(C(=O)N([H])C3([H])c5c([H])c([H])c([H])c([H])c5C([H])([H])C([H])([H])C3([H])[H])C4([H])[H])c2[H])C([H])([H])C(C([H])([H])[H])(C([H])([H])C([H])([H])C(=O)N2C([H])([H])C([H])([H])C([H])([H])C([H])(n3nc(-c4c([H])c([H])c(Oc5c([H])c([H])c(F)c([H])c5F)c([H])c4[H])c(C(=O)N([H])[H])c3N([H])[H])C2([H])[H])C1([H])[H]

$$$$
23:0:0
     RDKit          3D

 96105  0  0  1  0  0  0  0  0999 V2000
  -31.6880  -21.8270   18.5850 C   0  0  0  0  0  3  0  0  0  0  0  0
  -31.9490  -22.8330   17.6360 C   0  0  0  0  0  3  0  0  0  0  0  0
  -29.4620  -22.7450   18.9230 C   0  0  0  0  0  3  0  0  0  0  0  0
  -30.4320  -21.7600   19.2170 C   0  0  0  0  0  0  0  0  0  0  0  0
  -30.9630  -23.7850   17.3010 C   0  0  0  0  0  0  0  0  0  0  0  0
  -29.7090  -23.7630   17.9690 C   0  0  0  0  0  0  0  0  0  0  0  0
  -31.2810  -24.7840   16.2000 C   0  0  0  0  0  1  0  0  0  0  0  0
  -30.1130  -20.6090   20.1720 C   0  0  0  0  0  2  0  0  0  0  0  0
  -28.4730  -18.6020   20.4140 C   0  0  0  0  0  2  0  0  0  0  0  0
  -30.3060  -18.5380   18.6100 C   0  0  0  0  0  2  0  0  0  0  0  0
  -29.1990  -17.4430   21.1280 C   0  0  0  0  0  2  0  0  0  0  0  0
  -30.9870  -17.3940   19.3900 C   0  0  0  0  0  2  0  0  0  0  0  0
  -29.3780  -19.4380   19.4700 C   0  0  0  0  0  3  0  0  0  0  0  0
  -29.9060  -16.5490   20.0950 C   0  0  0  0  0  3  0  0  0  0  0  0
  -30.9360  -14.2400   20.0190 C   0  0  0  0  0  0  0  0  0  0  0  0
  -30.5530  -12.0680   18.9260 C   0  0  0  0  0  2  0  0  0  0  0  0
  -29.5620  -12.2970   17.7650 C   0  0  0  0  0  2  0  0  0  0  0  0
  -28.1040  -12.2100   18.2570 C   0  0  0  0  0  2  0  0  0  0  0  0
  -27.8510  -13.0680   19.5260 C   0  0  0  0  0  3  0  0  0  0  0  0
  -28.9440  -12.8040   20.5890 C   0  0  0  0  0  2  0  0  0  0  0  0
  -30.2600  -13.0600   19.9710 N   0  0  0  0  0  0  0  0  0  0  0  0
  -32.0010  -14.4320   19.4250 O   0  0  0  0  0  0  0  0  0  0  0  0
  -30.2700  -15.2290   20.6400 N   0  0  0  0  0  0  0  0  0  0  0  0
  -29.5620  -14.8610   21.2600 H   0  0  0  0  0  0  0  0  0  0  0  0
  -25.5190  -13.7760   20.3650 C   0  0  0  0  0  0  0  0  0  0  0  0
  -24.4360  -13.0460   20.7730 C   0  0  0  0  0  0  0  0  0  0  0  0
  -24.8280  -11.6750   20.6880 C   0  0  0  0  0  0  0  0  0  0  0  0
  -26.5090  -12.8510   20.0630 N   0  0  0  0  0  0  0  0  0  0  0  0
  -26.0960  -11.5820   20.3100 N   0  0  0  0  0  0  0  0  0  0  0  0
  -24.0540  -10.4450   20.8900 C   0  0  0  0  0  0  0  0  0  0  0  0
  -24.4420   -9.4760   21.8420 C   0  0  0  0  0  3  0  0  0  0  0  0
  -23.6720   -8.3090   22.0310 C   0  0  0  0  0  3  0  0  0  0  0  0
  -22.4990   -8.1010   21.2660 C   0  0  0  0  0  0  0  0  0  0  0  0
  -22.1290   -9.0570   20.3040 C   0  0  0  0  0  3  0  0  0  0  0  0
  -22.9000  -10.2160   20.1130 C   0  0  0  0  0  3  0  0  0  0  0  0
  -21.7030   -6.9860   21.3630 O   0  0  0  0  0  0  0  0  0  0  0  0
  -21.5640   -6.3010   22.5440 C   0  0  0  0  0  0  0  0  0  0  0  0
  -21.0410   -6.9120   23.7050 C   0  0  0  0  0  3  0  0  0  0  0  0
  -20.8510   -6.1530   24.8760 C   0  0  0  0  0  3  0  0  0  0  0  0
  -21.1740   -4.7830   24.8880 C   0  0  0  0  0  0  0  0  0  0  0  0
  -21.6890   -4.1710   23.7320 C   0  0  0  0  0  3  0  0  0  0  0  0
  -21.8810   -4.9280   22.5630 C   0  0  0  0  0  0  0  0  0  0  0  0
  -22.3590   -4.3280   21.4450 F   0  0  0  0  0  0  0  0  0  0  0  0
  -20.9840   -4.0510   26.0110 F   0  0  0  0  0  0  0  0  0  0  0  0
  -23.0800  -13.5810   21.1350 C   0  0  0  0  0  0  0  0  0  0  0  0
  -22.3680  -12.8970   22.0250 N   0  0  0  0  0  0  0  0  0  0  0  0
  -22.6630  -14.6380   20.6630 O   0  0  0  0  0  0  0  0  0  0  0  0
  -22.7160  -12.0400   22.4280 H   0  0  0  0  0  0  0  0  0  0  0  0
  -21.4610  -13.2370   22.3100 H   0  0  0  0  0  0  0  0  0  0  0  0
  -25.7380  -15.1410   20.2090 N   0  0  0  0  0  0  0  0  0  0  0  0
  -25.0060  -15.8220   20.3750 H   0  0  0  0  0  0  0  0  0  0  0  0
  -26.5900  -15.5540   19.8520 H   0  0  0  0  0  0  0  0  0  0  0  0
  -28.5660  -24.7230   17.6160 C   0  0  0  0  0  2  0  0  0  0  0  0
  -28.8160  -26.2470   17.7610 C   0  0  0  0  0  2  0  0  0  0  0  0
  -29.2710  -26.7560   19.1420 C   0  0  0  0  0  2  0  0  0  0  0  0
  -28.3190  -26.5600   20.1810 O   0  0  0  0  0  0  0  0  0  0  0  0
  -24.5360  -31.7660   23.2280 C   0  0  0  0  0  0  0  0  0  0  0  0
  -27.1880  -27.3380   20.1440 C   0  0  0  0  0  0  0  0  0  0  0  0
  -23.3360  -30.3700   21.5770 C   0  0  0  0  0  3  0  0  0  0  0  0
  -24.7950  -28.8330   20.1570 C   0  0  0  0  0  0  0  0  0  0  0  0
  -25.8620  -30.7270   21.3940 C   0  0  0  0  0  2  0  0  0  0  0  0
  -25.9510  -29.3580   20.7500 C   0  0  0  0  0  0  0  0  0  0  0  0
  -27.1540  -28.6160   20.7460 C   0  0  0  0  0  3  0  0  0  0  0  0
  -26.0130  -26.8140   19.5710 C   0  0  0  0  0  3  0  0  0  0  0  0
  -24.8190  -27.5580   19.5670 C   0  0  0  0  0  3  0  0  0  0  0  0
  -23.5510  -29.6910   20.1980 C   0  0  0  0  0  2  0  0  0  0  0  0
  -24.5960  -30.9680   22.1260 N   0  0  0  0  0  0  0  0  0  0  0  0
  -23.4520  -32.0410   23.7620 O   0  0  0  0  0  0  0  0  0  0  0  0
  -22.6760  -29.3500   22.5310 C   0  0  0  0  0  0  0  0  0  0  0  0
  -21.3480  -29.1840   22.4050 N   0  0  0  0  0  0  0  0  0  0  0  0
  -23.3530  -28.7110   23.3420 O   0  0  0  0  0  0  0  0  0  0  0  0
  -20.8650  -29.7520   21.7240 H   0  0  0  0  0  0  0  0  0  0  0  0
  -17.9550  -28.0640   22.9320 C   0  0  0  0  0  0  0  0  0  0  0  0
  -20.5220  -28.2520   23.1700 C   0  0  0  0  0  3  0  0  0  0  0  0
  -20.5790  -26.8300   22.5640 C   0  0  0  0  0  2  0  0  0  0  0  0
  -19.4540  -26.5570   21.5600 C   0  0  0  0  0  2  0  0  0  0  0  0
  -18.0870  -26.7240   22.2280 C   0  0  0  0  0  2  0  0  0  0  0  0
  -19.0990  -28.7890   23.3600 C   0  0  0  0  0  0  0  0  0  0  0  0
  -18.9210  -30.0460   23.9770 C   0  0  0  0  0  3  0  0  0  0  0  0
  -17.6330  -30.5770   24.1720 C   0  0  0  0  0  3  0  0  0  0  0  0
  -16.5030  -29.8490   23.7600 C   0  0  0  0  0  3  0  0  0  0  0  0
  -16.6650  -28.5940   23.1470 C   0  0  0  0  0  3  0  0  0  0  0  0
  -25.8220  -32.3910   23.8570 C   0  0  0  0  0  3  0  0  0  0  0  0
  -25.5190  -33.7910   24.1770 N   0  0  0  0  0  0  0  0  0  0  0  0
  -25.8710  -34.8370   23.4170 C   0  0  0  0  0  0  0  0  0  0  0  0
  -26.5530  -34.7240   22.3950 O   0  0  0  0  0  0  0  0  0  0  0  0
  -24.9150  -33.9550   24.9690 H   0  0  0  0  0  0  0  0  0  0  0  0
  -24.1690  -36.6460   23.0200 C   0  0  0  0  0  1  0  0  0  0  0  0
  -25.3870  -36.2320   23.8610 C   0  0  0  0  0  3  0  0  0  0  0  0
  -27.5060  -37.1010   24.7460 C   0  0  0  0  0  1  0  0  0  0  0  0
  -26.4340  -37.2730   23.7700 N   0  0  0  0  0  0  0  0  0  0  0  0
  -26.0330  -38.1980   23.8980 H   0  0  0  0  0  0  0  0  0  0  0  0
  -26.3250  -31.6190   25.1380 C   0  0  1  0  0  0  0  0  0  0  0  0
  -25.2210  -31.3840   26.1960 C   0  0  0  0  0  1  0  0  0  0  0  0
  -26.9080  -30.2400   24.7500 C   0  0  0  0  0  1  0  0  0  0  0  0
  -27.4720  -32.4110   25.8100 C   0  0  0  0  0  1  0  0  0  0  0  0
  1  4  1  0
  2  1  2  0
  3  4  2  0
  4  8  1  0
  5  2  1  0
  5  6  2  0
  6  3  1  0
  7  5  1  0
  9 11  1  0
 10 12  1  0
 10 13  1  0
 12 14  1  0
 13  8  1  0
 13  9  1  0
 14 23  1  0
 14 11  1  0
 15 23  1  0
 16 21  1  0
 17 18  1  0
 17 16  1  0
 19 18  1  0
 19 28  1  0
 19 20  1  0
 21 15  1  0
 21 20  1  0
 22 15  2  0
 23 24  1  0
 25 26  2  0
 26 45  1  0
 27 26  1  0
 27 30  1  0
 28 29  1  0
 28 25  1  0
 29 27  2  0
 30 31  1  0
 31 32  2  0
 33 36  1  0
 33 32  1  0
 34 33  2  0
 35 34  1  0
 35 30  2  0
 36 37  1  0
 37 42  2  0
 37 38  1  0
 38 39  2  0
 39 40  1  0
 40 44  1  0
 41 40  2  0
 42 41  1  0
 43 42  1  0
 45 46  1  0
 46 49  1  0
 46 48  1  0
 47 45  2  0
 50 25  1  0
 50 51  1  0
 52 50  1  0
 53 54  1  0
 53  6  1  0
 54 55  1  0
 55 56  1  0
 57 68  2  0
 58 56  1  0
 58 63  1  0
 59 67  1  0
 59 69  1  0
 60 66  1  0
 60 62  1  0
 61 67  1  0
 62 61  1  0
 63 62  2  0
 64 58  2  0
 65 64  1  0
 65 60  2  0
 66 59  1  0
 67 57  1  0
 69 71  2  0
 70 69  1  0
 72 70  1  0
 73 82  2  0
 73 78  1  0
 74 70  1  0
 74 78  1  0
 75 74  1  0
 76 77  1  0
 76 75  1  0
 77 73  1  0
 78 79  2  0
 79 80  1  0
 81 80  2  0
 82 81  1  0
 83 57  1  0
 83 84  1  0
 83 93  1  0
 84 87  1  0
 85 89  1  0
 85 84  1  0
 86 85  2  0
 89 88  1  0
 91 89  1  0
 91 92  1  0
 91 90  1  0
 93 96  1  1
 93 94  1  0
 95 93  1  0
M  ISO  4  15 100  23 100  55 101  56 101
M  END
>  <TORSDO>  (24) 
F 21

>  <SCORE>  (24) 
-13.103

>  <name>  (24) 
23

>  <ligand_id>  (24) 
23

>  <original_smiles>  (24) 
[H]c1c([H])c([H])c2c(c1[H])C([H])([H])C([H])([H])C([H])([H])C2([H])N([H])C(=O)C1([H])N(C(=O)C([H])(N([H])C(=O)C([H])(N([H])C([H])([H])[H])C([H])([H])[H])C(C([H])([H])[H])(C([H])([H])[H])C([H])([H])[H])C([H])([H])c2c([H])c(OC([H])([H])C([H])([H])C([H])([H])c3c([H])c(C([H])([H])C4([H])C([H])([H])C([H])([H])C([H])(N([H])C(=O)N5C([H])([H])C([H])([H])C([H])([H])C([H])(n6nc(-c7c([H])c([H])c(Oc8c([H])c([H])c(F)c([H])c8F)c([H])c7[H])c(C(=O)N([H])[H])c6N([H])[H])C5([H])[H])C([H])([H])C4([H])[H])c([H])c([H])c3C([H])([H])[H])c([H])c([H])c2C1([H])[H]

>  <smiles>  (24) 
[H]c1c([H])c([H])c2c(c1[H])C([H])([H])C([H])([H])C([H])([H])C2([H])N([H])C(=O)C1([H])N(C(=O)C([H])(N([H])C(=O)C([H])(N([H])C([H])([H])[H])C([H])([H])[H])C(C([H])([H])[H])(C([H])([H])[H])C([H])([H])[H])C([H])([H])c2c([H])c(OC([H])([H])C([H])([H])C([H])([H])c3c([H])c(C([H])([H])C4([H])C([H])([H])C([H])([H])C([H])(N([H])C(=O)N5C([H])([H])C([H])([H])C([H])([H])C([H])(n6nc(-c7c([H])c([H])c(Oc8c([H])c([H])c(F)c([H])c8F)c([H])c7[H])c(C(=O)N([H])[H])c6N([H])[H])C5([H])[H])C([H])([H])C4([H])[H])c([H])c([H])c3C([H])([H])[H])c([H])c([H])c2C1([H])[H]

$$$$
24:0:0
     RDKit          3D

 93100  0  0  1  0  0  0  0  0999 V2000
  -27.0210  -21.1560   21.1830 C   0  0  0  0  0  2  0  0  0  0  0  0
  -27.4270  -22.5410   20.6370 C   0  0  0  0  0  2  0  0  0  0  0  0
  -27.1250  -23.6710   21.6390 C   0  0  0  0  0  2  0  0  0  0  0  0
  -27.4250  -25.0870   21.1130 C   0  0  0  0  0  2  0  0  0  0  0  0
  -28.9190  -25.3710   20.8520 C   0  0  0  0  0  2  0  0  0  0  0  0
  -29.2680  -26.8590   20.6130 C   0  0  0  0  0  2  0  0  0  0  0  0
  -28.6880  -27.3640   19.4070 O   0  0  0  0  0  0  0  0  0  0  0  0
  -24.6780  -31.8700   23.2190 C   0  0  0  0  0  0  0  0  0  0  0  0
  -27.4960  -28.0320   19.5570 C   0  0  0  0  0  0  0  0  0  0  0  0
  -23.5080  -30.5930   21.4530 C   0  0  0  0  0  3  0  0  0  0  0  0
  -25.0080  -29.3410   19.8110 C   0  0  0  0  0  0  0  0  0  0  0  0
  -25.9930  -31.1480   21.2310 C   0  0  0  0  0  2  0  0  0  0  0  0
  -26.1460  -29.8720   20.4320 C   0  0  0  0  0  0  0  0  0  0  0  0
  -27.3920  -29.2210   20.3170 C   0  0  0  0  0  3  0  0  0  0  0  0
  -26.3520  -27.5280   18.9090 C   0  0  0  0  0  3  0  0  0  0  0  0
  -25.1040  -28.1630   19.0490 C   0  0  0  0  0  3  0  0  0  0  0  0
  -23.7120  -30.0950   19.9980 C   0  0  0  0  0  2  0  0  0  0  0  0
  -24.7460  -31.2110   22.0280 N   0  0  0  0  0  0  0  0  0  0  0  0
  -23.6010  -32.0020   23.8180 O   0  0  0  0  0  0  0  0  0  0  0  0
  -22.9600  -29.4210   22.3000 C   0  0  0  0  0  0  0  0  0  0  0  0
  -21.6550  -29.1430   22.1600 N   0  0  0  0  0  0  0  0  0  0  0  0
  -23.7060  -28.7710   23.0370 O   0  0  0  0  0  0  0  0  0  0  0  0
  -21.1100  -29.7270   21.5420 H   0  0  0  0  0  0  0  0  0  0  0  0
  -18.4040  -27.6110   22.5210 C   0  0  0  0  0  0  0  0  0  0  0  0
  -20.9320  -28.0600   22.8250 C   0  0  0  0  0  3  0  0  0  0  0  0
  -21.1570  -26.7130   22.1020 C   0  0  0  0  0  2  0  0  0  0  0  0
  -20.0790  -26.3960   21.0600 C   0  0  0  0  0  2  0  0  0  0  0  0
  -18.6940  -26.3590   21.7110 C   0  0  0  0  0  2  0  0  0  0  0  0
  -19.4560  -28.4170   23.0320 C   0  0  0  0  0  0  0  0  0  0  0  0
  -19.1340  -29.5870   23.7510 C   0  0  0  0  0  3  0  0  0  0  0  0
  -17.7910  -29.9540   23.9670 C   0  0  0  0  0  3  0  0  0  0  0  0
  -16.7550  -29.1450   23.4680 C   0  0  0  0  0  3  0  0  0  0  0  0
  -17.0610  -27.9750   22.7520 C   0  0  0  0  0  3  0  0  0  0  0  0
  -25.9430  -32.5070   23.8740 C   0  0  0  0  0  3  0  0  0  0  0  0
  -26.4620  -31.7070   25.1310 C   0  0  1  0  0  0  0  0  0  0  0  0
  -25.3620  -31.3990   26.1720 C   0  0  0  0  0  1  0  0  0  0  0  0
  -27.0910  -30.3620   24.6980 C   0  0  0  0  0  1  0  0  0  0  0  0
  -27.5800  -32.5100   25.8360 C   0  0  0  0  0  1  0  0  0  0  0  0
  -25.6050  -33.8880   24.2400 N   0  0  0  0  0  0  0  0  0  0  0  0
  -25.9350  -34.9680   23.5190 C   0  0  0  0  0  0  0  0  0  0  0  0
  -26.6290  -34.9080   22.5010 O   0  0  0  0  0  0  0  0  0  0  0  0
  -24.9900  -34.0080   25.0310 H   0  0  0  0  0  0  0  0  0  0  0  0
  -24.1770  -36.7360   23.1800 C   0  0  0  0  0  1  0  0  0  0  0  0
  -25.4100  -36.3340   24.0070 C   0  0  0  0  0  3  0  0  0  0  0  0
  -27.5060  -37.2340   24.9160 C   0  0  0  0  0  1  0  0  0  0  0  0
  -26.4240  -37.4100   23.9490 N   0  0  0  0  0  0  0  0  0  0  0  0
  -25.9980  -38.3180   24.1090 H   0  0  0  0  0  0  0  0  0  0  0  0
  -27.3860  -19.9570   20.2820 C   0  0  0  0  0  2  0  0  0  0  0  0
  -28.9020  -19.7770   20.0950 C   0  0  0  0  0  2  0  0  0  0  0  0
  -29.2950  -18.4300   19.4640 C   0  0  0  0  0  2  0  0  0  0  0  0
  -30.8280  -18.3060   19.2610 C   0  0  0  0  0  3  0  0  0  0  0  0
  -31.5320  -17.7060   20.5060 C   0  0  0  0  0  2  0  0  0  0  0  0
  -31.9030  -15.2590   20.2460 C   0  0  0  0  0  0  0  0  0  0  0  0
  -31.6810  -12.9220   19.5000 C   0  0  0  0  0  2  0  0  0  0  0  0
  -30.7940  -12.8750   18.2400 C   0  0  0  0  0  2  0  0  0  0  0  0
  -29.3010  -12.8060   18.6130 C   0  0  0  0  0  2  0  0  0  0  0  0
  -28.8980  -13.8770   19.6600 C   0  0  0  0  0  3  0  0  0  0  0  0
  -29.8890  -13.8740   20.8460 C   0  0  0  0  0  2  0  0  0  0  0  0
  -31.2500  -14.0700   20.3100 N   0  0  0  0  0  0  0  0  0  0  0  0
  -32.9950  -15.4100   19.6900 O   0  0  0  0  0  0  0  0  0  0  0  0
  -31.2090  -16.2970   20.7260 N   0  0  0  0  0  0  0  0  0  0  0  0
  -30.3440  -16.0820   21.2010 H   0  0  0  0  0  0  0  0  0  0  0  0
  -26.5380  -14.6300   20.3590 C   0  0  0  0  0  0  0  0  0  0  0  0
  -25.4170  -13.9230   20.7020 C   0  0  0  0  0  0  0  0  0  0  0  0
  -25.7830  -12.5450   20.6290 C   0  0  0  0  0  0  0  0  0  0  0  0
  -27.5230  -13.6880   20.1100 N   0  0  0  0  0  0  0  0  0  0  0  0
  -27.0690  -12.4260   20.3230 N   0  0  0  0  0  0  0  0  0  0  0  0
  -24.9700  -11.3330   20.7740 C   0  0  0  0  0  0  0  0  0  0  0  0
  -25.2710  -10.3560   21.7480 C   0  0  0  0  0  3  0  0  0  0  0  0
  -24.4640   -9.2050   21.8780 C   0  0  0  0  0  3  0  0  0  0  0  0
  -23.3420   -9.0250   21.0340 C   0  0  0  0  0  0  0  0  0  0  0  0
  -23.0590   -9.9910   20.0530 C   0  0  0  0  0  3  0  0  0  0  0  0
  -23.8650  -11.1340   19.9200 C   0  0  0  0  0  3  0  0  0  0  0  0
  -22.5150   -7.9270   21.0750 O   0  0  0  0  0  0  0  0  0  0  0  0
  -22.2310   -7.2840   22.2530 C   0  0  0  0  0  0  0  0  0  0  0  0
  -21.6070   -7.9470   23.3330 C   0  0  0  0  0  3  0  0  0  0  0  0
  -21.2680   -7.2290   24.4970 C   0  0  0  0  0  3  0  0  0  0  0  0
  -21.5440   -5.8510   24.5840 C   0  0  0  0  0  0  0  0  0  0  0  0
  -22.1600   -5.1890   23.5070 C   0  0  0  0  0  3  0  0  0  0  0  0
  -22.5000   -5.9030   22.3460 C   0  0  0  0  0  0  0  0  0  0  0  0
  -23.0750   -5.2540   21.3040 F   0  0  0  0  0  0  0  0  0  0  0  0
  -21.2150   -5.1610   25.7000 F   0  0  0  0  0  0  0  0  0  0  0  0
  -24.0560  -14.4890   20.9850 C   0  0  0  0  0  0  0  0  0  0  0  0
  -23.2780  -13.8240   21.8330 N   0  0  0  0  0  0  0  0  0  0  0  0
  -23.6880  -15.5490   20.4810 O   0  0  0  0  0  0  0  0  0  0  0  0
  -23.5750  -12.9540   22.2500 H   0  0  0  0  0  0  0  0  0  0  0  0
  -22.3620  -14.1850   22.0560 H   0  0  0  0  0  0  0  0  0  0  0  0
  -26.7950  -15.9910   20.2140 N   0  0  0  0  0  0  0  0  0  0  0  0
  -26.0540  -16.6760   20.2890 H   0  0  0  0  0  0  0  0  0  0  0  0
  -27.6490  -16.3740   19.8300 H   0  0  0  0  0  0  0  0  0  0  0  0
  -31.1890  -17.5870   17.9380 C   0  0  0  0  0  2  0  0  0  0  0  0
  -30.7930  -18.3460   16.8090 O   0  0  0  0  0  0  0  0  0  0  0  0
  -29.8430  -18.3820   16.7970 H   0  0  0  0  0  0  0  0  0  0  0  0
  2  1  1  0
  2  3  1  0
  4  3  1  0
  5  4  1  0
  6  5  1  0
  7  9  1  0
  7  6  1  0
  8 19  2  0
  9 14  1  0
 10 18  1  0
 10 20  1  0
 11 17  1  0
 11 13  1  0
 12 18  1  0
 13 12  1  0
 14 13  2  0
 15 16  1  0
 15  9  2  0
 16 11  2  0
 17 10  1  0
 18  8  1  0
 20 22  2  0
 21 20  1  0
 23 21  1  0
 24 33  2  0
 24 29  1  0
 25 21  1  0
 25 29  1  0
 26 25  1  0
 27 28  1  0
 27 26  1  0
 28 24  1  0
 29 30  2  0
 30 31  1  0
 32 31  2  0
 33 32  1  0
 34  8  1  0
 34 39  1  0
 34 35  1  0
 35 38  1  1
 35 36  1  0
 37 35  1  0
 39 42  1  0
 40 44  1  0
 40 39  1  0
 41 40  2  0
 44 43  1  0
 46 44  1  0
 46 47  1  0
 46 45  1  0
 48  1  1  0
 49 48  1  0
 50 49  1  0
 51 91  1  0
 51 50  1  0
 51 52  1  0
 52 61  1  0
 53 59  1  0
 53 61  1  0
 54 59  1  0
 55 56  1  0
 55 54  1  0
 57 56  1  0
 57 66  1  0
 57 58  1  0
 59 58  1  0
 60 53  2  0
 61 62  1  0
 63 64  2  0
 64 83  1  0
 65 64  1  0
 65 68  1  0
 66 67  1  0
 66 63  1  0
 67 65  2  0
 68 69  1  0
 69 70  2  0
 71 74  1  0
 71 70  1  0
 72 71  2  0
 73 72  1  0
 73 68  2  0
 74 75  1  0
 75 80  2  0
 75 76  1  0
 76 77  2  0
 77 78  1  0
 78 82  1  0
 79 78  2  0
 80 79  1  0
 81 80  1  0
 83 84  1  0
 84 87  1  0
 84 86  1  0
 85 83  2  0
 88 89  1  0
 88 63  1  0
 90 88  1  0
 92 91  1  0
 93 92  1  0
M  ISO  4   6 101   7 101  53 100  61 100
M  END
>  <TORSDO>  (25) 
F 28

>  <SCORE>  (25) 
-7.724

>  <name>  (25) 
24

>  <ligand_id>  (25) 
24

>  <original_smiles>  (25) 
[H]OC([H])([H])C([H])(C([H])([H])N([H])C(=O)N1C([H])([H])C([H])([H])C([H])([H])C([H])(n2nc(-c3c([H])c([H])c(Oc4c([H])c([H])c(F)c([H])c4F)c([H])c3[H])c(C(=O)N([H])[H])c2N([H])[H])C1([H])[H])C([H])([H])C([H])([H])C([H])([H])C([H])([H])C([H])([H])C([H])([H])C([H])([H])C([H])([H])C([H])([H])Oc1c([H])c([H])c2c(c1[H])C([H])([H])N(C(=O)C([H])(N([H])C(=O)C([H])(N([H])C([H])([H])[H])C([H])([H])[H])C(C([H])([H])[H])(C([H])([H])[H])C([H])([H])[H])C([H])(C(=O)N([H])C1([H])c3c([H])c([H])c([H])c([H])c3C([H])([H])C([H])([H])C1([H])[H])C2([H])[H]

>  <smiles>  (25) 
[H]OC([H])([H])C([H])(C([H])([H])N([H])C(=O)N1C([H])([H])C([H])([H])C([H])([H])C([H])(n2nc(-c3c([H])c([H])c(Oc4c([H])c([H])c(F)c([H])c4F)c([H])c3[H])c(C(=O)N([H])[H])c2N([H])[H])C1([H])[H])C([H])([H])C([H])([H])C([H])([H])C([H])([H])C([H])([H])C([H])([H])C([H])([H])C([H])([H])C([H])([H])Oc1c([H])c([H])c2c(c1[H])C([H])([H])N(C(=O)C([H])(N([H])C(=O)C([H])(N([H])C([H])([H])[H])C([H])([H])[H])C(C([H])([H])[H])(C([H])([H])[H])C([H])([H])[H])C([H])(C(=O)N([H])C1([H])c3c([H])c([H])c([H])c([H])c3C([H])([H])C([H])([H])C1([H])[H])C2([H])[H]

$$$$
25:0:0
     RDKit          3D

105114  0  0  1  0  0  0  0  0999 V2000
  -26.1250  -24.0850   20.8130 C   0  0  0  0  0  3  0  0  0  0  0  0
  -25.8580  -23.6280   19.4020 N   0  0  0  0  0  4  0  0  0  0  0  0
  -24.9470  -23.1940   19.3750 H   0  0  0  0  0  0  0  0  0  0  0  0
  -25.7890  -24.4510   18.8290 H   0  0  0  0  0  0  0  0  0  0  0  0
  -26.8090  -22.6740   18.7370 C   0  0  0  0  0  2  0  0  0  0  0  0
  -27.0060  -22.9340   17.2150 C   0  0  0  0  0  2  0  0  0  0  0  0
  -28.4440  -23.2700   16.7230 C   0  0  0  0  0  2  0  0  0  0  0  0
  -29.5890  -22.3210   17.1320 C   0  0  0  0  0  2  0  0  0  0  0  0
  -30.7060  -23.1000   17.8380 C   0  0  0  0  0  2  0  0  0  0  0  0
  -31.9480  -22.2510   18.1420 C   0  0  0  0  0  2  0  0  0  0  0  0
  -31.8200  -21.6840   19.5650 C   0  0  0  0  0  2  0  0  0  0  0  0
  -30.9030  -20.4000   19.5980 C   0  0  0  0  0  3  0  0  0  0  0  0
  -31.0150  -19.2370   20.6300 C   0  0  0  0  0  3  0  0  0  0  0  0
  -30.0200  -18.0640   20.4090 C   0  0  0  0  0  2  0  0  0  0  0  0
  -30.4620  -16.9250   21.3660 C   0  0  0  0  0  2  0  0  0  0  0  0
  -30.6780  -14.4700   21.0970 C   0  0  0  0  0  0  0  0  0  0  0  0
  -30.4500  -12.3530   19.9100 C   0  0  0  0  0  2  0  0  0  0  0  0
  -29.6150  -12.6690   18.6530 C   0  0  0  0  0  2  0  0  0  0  0  0
  -28.1090  -12.5280   18.9640 C   0  0  0  0  0  2  0  0  0  0  0  0
  -27.6810  -13.2800   20.2530 C   0  0  0  0  0  3  0  0  0  0  0  0
  -28.6520  -12.9790   21.4100 C   0  0  0  0  0  2  0  0  0  0  0  0
  -30.0090  -13.3000   20.9310 N   0  0  0  0  0  0  0  0  0  0  0  0
  -31.8950  -14.5750   20.9200 O   0  0  0  0  0  0  0  0  0  0  0  0
  -29.9120  -15.5670   21.1850 N   0  0  0  0  0  0  0  0  0  0  0  0
  -28.9160  -15.4380   21.2310 H   0  0  0  0  0  0  0  0  0  0  0  0
  -25.2330  -13.8280   20.7840 C   0  0  0  0  0  0  0  0  0  0  0  0
  -24.1550  -13.0310   21.0530 C   0  0  0  0  0  0  0  0  0  0  0  0
  -24.6440  -11.6910   21.0370 C   0  0  0  0  0  0  0  0  0  0  0  0
  -26.3050  -12.9730   20.6210 N   0  0  0  0  0  0  0  0  0  0  0  0
  -25.9540  -11.6820   20.8310 N   0  0  0  0  0  0  0  0  0  0  0  0
  -23.9310  -10.4150   21.1510 C   0  0  0  0  0  0  0  0  0  0  0  0
  -24.3190   -9.4350   22.0900 C   0  0  0  0  0  3  0  0  0  0  0  0
  -23.6120   -8.2170   22.1880 C   0  0  0  0  0  3  0  0  0  0  0  0
  -22.5030   -7.9740   21.3460 C   0  0  0  0  0  0  0  0  0  0  0  0
  -22.1320   -8.9420   20.3990 C   0  0  0  0  0  3  0  0  0  0  0  0
  -22.8400  -10.1520   20.3000 C   0  0  0  0  0  3  0  0  0  0  0  0
  -21.7700   -6.8120   21.3560 O   0  0  0  0  0  0  0  0  0  0  0  0
  -21.6600   -6.0420   22.4870 C   0  0  0  0  0  0  0  0  0  0  0  0
  -21.1550   -6.5670   23.6940 C   0  0  0  0  0  3  0  0  0  0  0  0
  -20.9850   -5.7250   24.8110 C   0  0  0  0  0  3  0  0  0  0  0  0
  -21.3130   -4.3580   24.7210 C   0  0  0  0  0  0  0  0  0  0  0  0
  -21.8090   -3.8320   23.5140 C   0  0  0  0  0  3  0  0  0  0  0  0
  -21.9780   -4.6720   22.4000 C   0  0  0  0  0  0  0  0  0  0  0  0
  -22.4390   -4.1590   21.2330 F   0  0  0  0  0  0  0  0  0  0  0  0
  -21.1440   -3.5460   25.7870 F   0  0  0  0  0  0  0  0  0  0  0  0
  -22.7350  -13.4800   21.2200 C   0  0  0  0  0  0  0  0  0  0  0  0
  -21.9600  -12.7760   22.0370 N   0  0  0  0  0  0  0  0  0  0  0  0
  -22.3180  -14.4940   20.6610 O   0  0  0  0  0  0  0  0  0  0  0  0
  -22.3080  -11.9540   22.5090 H   0  0  0  0  0  0  0  0  0  0  0  0
  -21.0020  -13.0610   22.1930 H   0  0  0  0  0  0  0  0  0  0  0  0
  -25.3900  -15.2020   20.6410 N   0  0  0  0  0  0  0  0  0  0  0  0
  -24.6110  -15.8490   20.7000 H   0  0  0  0  0  0  0  0  0  0  0  0
  -26.2510  -15.6640   20.3790 H   0  0  0  0  0  0  0  0  0  0  0  0
  -27.0320  -23.1950   21.7270 C   0  0  0  0  0  2  0  0  0  0  0  0
  -28.5420  -23.4810   21.9270 C   0  0  0  0  0  2  0  0  0  0  0  0
  -28.9850  -24.8960   21.5200 C   0  0  0  0  0  2  0  0  0  0  0  0
  -29.0430  -25.0240   20.0030 C   0  0  0  0  0  2  0  0  0  0  0  0
  -29.0900  -26.3660   19.5810 O   0  0  0  0  0  0  0  0  0  0  0  0
  -24.5610  -31.9300   23.5300 C   0  0  0  0  0  0  0  0  0  0  0  0
  -27.9320  -27.0260   19.5010 C   0  0  0  0  0  0  0  0  0  0  0  0
  -22.9690  -30.6570   21.6870 C   0  0  0  0  0  3  0  0  0  0  0  0
  -24.4550  -28.3030   19.7540 C   0  0  1  0  0  0  0  0  0  0  0  0
  -26.3550  -30.8400   21.9140 C   0  0  0  0  0  3  0  0  0  0  0  0
  -26.6620  -29.3040   20.8610 C   0  0  0  0  0  3  0  0  0  0  0  0
  -28.0090  -28.4040   20.5100 C   0  0  0  0  0  3  0  0  0  0  0  0
  -26.5130  -26.3540   18.6610 C   0  0  0  0  0  2  0  0  0  0  0  0
  -24.8380  -26.9290   18.7790 C   0  0  0  0  0  3  0  0  0  0  0  0
  -22.8910  -29.2280   20.2310 C   0  0  0  0  0  2  0  0  0  0  0  0
  -24.6100  -31.3920   22.3370 N   0  0  0  0  0  0  0  0  0  0  0  0
  -23.4770  -32.1350   24.0890 O   0  0  0  0  0  0  0  0  0  0  0  0
  -22.2500  -29.7260   22.7630 C   0  0  0  0  0  0  0  0  0  0  0  0
  -21.1000  -29.2210   22.3940 N   0  0  0  0  0  0  0  0  0  0  0  0
  -22.8110  -29.2110   23.7430 O   0  0  0  0  0  0  0  0  0  0  0  0
  -20.6460  -29.5640   21.5570 H   0  0  0  0  0  0  0  0  0  0  0  0
  -17.9320  -27.9180   22.7570 C   0  0  0  0  0  0  0  0  0  0  0  0
  -20.4290  -28.1750   23.1310 C   0  0  0  0  0  3  0  0  0  0  0  0
  -20.6300  -26.7960   22.4670 C   0  0  0  0  0  2  0  0  0  0  0  0
  -19.5600  -26.4920   21.4180 C   0  0  0  0  0  2  0  0  0  0  0  0
  -18.1570  -26.5990   22.0310 C   0  0  0  0  0  2  0  0  0  0  0  0
  -19.0150  -28.6510   23.2820 C   0  0  0  0  0  0  0  0  0  0  0  0
  -18.8030  -29.9040   23.9000 C   0  0  0  0  0  3  0  0  0  0  0  0
  -17.5080  -30.4220   24.0180 C   0  0  0  0  0  3  0  0  0  0  0  0
  -16.4200  -29.6790   23.5300 C   0  0  0  0  0  3  0  0  0  0  0  0
  -16.6310  -28.4330   22.9060 C   0  0  0  0  0  3  0  0  0  0  0  0
  -25.8990  -32.3510   24.1790 C   0  0  0  0  0  3  0  0  0  0  0  0
  -25.7000  -33.7590   24.4580 N   0  0  0  0  0  0  0  0  0  0  0  0
  -26.0320  -34.7300   23.5970 C   0  0  0  0  0  0  0  0  0  0  0  0
  -26.6660  -34.5380   22.5530 O   0  0  0  0  0  0  0  0  0  0  0  0
  -25.1510  -33.9960   25.2730 H   0  0  0  0  0  0  0  0  0  0  0  0
  -24.3890  -36.5520   23.1090 C   0  0  0  0  0  1  0  0  0  0  0  0
  -25.5850  -36.1380   23.9780 C   0  0  0  0  0  3  0  0  0  0  0  0
  -27.7390  -36.9180   24.8440 C   0  0  0  0  0  1  0  0  0  0  0  0
  -26.6700  -37.1290   23.8690 N   0  0  0  0  0  0  0  0  0  0  0  0
  -26.3100  -38.0700   23.9970 H   0  0  0  0  0  0  0  0  0  0  0  0
  -26.3310  -31.5000   25.4410 C   0  0  1  0  0  0  0  0  0  0  0  0
  -25.1810  -31.3270   26.4470 C   0  0  0  0  0  1  0  0  0  0  0  0
  -26.8620  -30.0640   25.1580 C   0  0  0  0  0  1  0  0  0  0  0  0
  -27.5090  -32.2270   26.1220 C   0  0  0  0  0  1  0  0  0  0  0  0
  -25.7000  -25.5440   21.3650 C   0  0  0  0  0  2  0  0  0  0  0  0
  -24.2230  -30.2890   20.2400 C   0  0  0  0  0  3  0  0  0  0  0  0
  -24.3340  -28.9850   21.9910 C   0  0  0  0  0  1  0  0  0  0  0  0
  -24.9840  -29.9580   18.8540 C   0  0  0  0  0  3  0  0  0  0  0  0
  -25.0170  -27.6580   22.1650 C   0  0  0  0  0  2  0  0  0  0  0  0
  -25.8090  -28.5660   18.8160 C   0  0  0  0  0  3  0  0  0  0  0  0
  -25.7420  -27.1310   20.9280 C   0  0  0  0  0  2  0  0  0  0  0  0
  1 99  1  0
  1 54  1  0
  2  1  1  0
  3  2  1  0
  4  2  1  0
  5  2  1  0
  6  5  1  0
  7  8  1  0
  7  6  1  0
  8  9  1  0
  9 10  1  0
 10 11  1  0
 11 12  1  0
 12 13  2  0
 14 13  1  0
 14 15  1  0
 16 24  1  0
 17 22  1  0
 18 19  1  0
 18 17  1  0
 20 19  1  0
 20 29  1  0
 20 21  1  0
 22 16  1  0
 22 21  1  0
 23 16  2  0
 24 25  1  0
 24 15  1  0
 26 27  2  0
 27 46  1  0
 28 27  1  0
 28 31  1  0
 29 26  1  0
 29 30  1  0
 30 28  2  0
 31 32  1  0
 32 33  2  0
 34 37  1  0
 34 33  1  0
 35 34  2  0
 36 35  1  0
 36 31  2  0
 37 38  1  0
 38 39  1  0
 39 40  2  0
 41 40  1  0
 41 45  1  0
 42 41  2  0
 43 38  2  0
 43 42  1  0
 44 43  1  0
 46 47  1  0
 47 50  1  0
 47 49  1  0
 48 46  2  0
 51 52  1  0
 51 26  1  0
 53 51  1  0
 54 55  1  0
 56 55  1  0
 57 56  1  0
 58 57  1  0
 59 70  2  0
 60 58  1  0
 60 65  2  0
 61 69  1  0
 61 71  1  0
 62 68  1  1
 63 69  1  0
 64 63  2  0
 65 64  1  0
 66 60  1  0
 67 66  1  0
 67104  1  0
 67 62  1  0
 69 59  1  0
 71 73  2  0
 72 71  1  0
 74 72  1  0
 75 84  2  0
 75 80  1  0
 76 72  1  0
 76 80  1  0
 77 76  1  0
 78 79  1  0
 78 77  1  0
 79 75  1  0
 80 81  2  0
 81 82  1  0
 83 82  2  0
 84 83  1  0
 85 59  1  0
 85 86  1  0
 85 95  1  0
 86 89  1  0
 87 91  1  0
 87 86  1  0
 88 87  2  0
 91 90  1  0
 93 91  1  0
 93 94  1  0
 93 92  1  0
 95 98  1  1
 95 96  1  0
 97 95  1  0
100 68  1  0
100 61  1  0
101103  1  0
102 62  1  0
102100  1  0
104102  1  0
104 62  1  0
105 99  1  0
105103  1  0
M  ISO  4  16 100  24 100  57 101  58 101
M  END
>  <TORSDO>  (26) 
F 34

>  <SCORE>  (26) 
-9.597

>  <name>  (26) 
25

>  <ligand_id>  (26) 
25

>  <original_smiles>  (26) 
[H]c1c([H])c([H])c(C([H])([H])C([H])(C([H])([H])C([H])([H])C([H])([H])C([H])([H])Oc2c([H])c([H])c3c(c2[H])C([H])([H])N(C(=O)C([H])(N([H])C(=O)C([H])(N([H])C([H])([H])[H])C([H])([H])[H])C(C([H])([H])[H])(C([H])([H])[H])C([H])([H])[H])C([H])(C(=O)N([H])C2([H])c4c([H])c([H])c([H])c([H])c4C([H])([H])C([H])([H])C2([H])[H])C3([H])[H])[N+]([H])([H])C([H])([H])C([H])([H])C([H])([H])C([H])([H])C([H])([H])C([H])([H])C([H])([H])C([H])([H])C([H])([H])C([H])([H])C([H])([H])N([H])C(=O)N2C([H])([H])C([H])([H])C([H])([H])C([H])(n3nc(-c4c([H])c([H])c(Oc5c([H])c([H])c(F)c([H])c5F)c([H])c4[H])c(C(=O)N([H])[H])c3N([H])[H])C2([H])[H])c([H])c1[H]

>  <smiles>  (26) 
[H]c1c([H])c([H])c(C([H])([H])C([H])(C([H])([H])C([H])([H])C([H])([H])C([H])([H])Oc2c([H])c([H])c3c(c2[H])C([H])([H])N(C(=O)C([H])(N([H])C(=O)C([H])(N([H])C([H])([H])[H])C([H])([H])[H])C(C([H])([H])[H])(C([H])([H])[H])C([H])([H])[H])C([H])(C(=O)N([H])C2([H])c4c([H])c([H])c([H])c([H])c4C([H])([H])C([H])([H])C2([H])[H])C3([H])[H])[N+]([H])([H])C([H])([H])C([H])([H])C([H])([H])C([H])([H])C([H])([H])C([H])([H])C([H])([H])C([H])([H])C([H])([H])C([H])([H])C([H])([H])N([H])C(=O)N2C([H])([H])C([H])([H])C([H])([H])C([H])(n3nc(-c4c([H])c([H])c(Oc5c([H])c([H])c(F)c([H])c5F)c([H])c4[H])c(C(=O)N([H])[H])c3N([H])[H])C2([H])[H])c([H])c1[H]

$$$$
26:0:0
     RDKit          3D

103112  0  0  1  0  0  0  0  0999 V2000
  -29.5680  -29.2660   21.7180 C   0  0  0  0  0  2  0  0  0  0  0  0
  -27.5100  -31.0640   21.8190 C   0  0  0  0  0  3  0  0  0  0  0  0
  -25.9940  -31.5920   22.0430 C   0  0  0  0  0  3  0  0  0  0  0  0
  -27.1820  -28.2460   22.3200 C   0  0  0  0  0  3  0  0  0  0  0  0
  -28.0720  -29.5520   21.9600 C   0  0  0  0  0  0  0  0  0  0  0  0
  -25.5350  -28.3460   22.6060 C   0  0  0  0  0  3  0  0  0  0  0  0
  -24.7960  -30.5450   22.4710 C   0  0  0  0  0  3  0  0  0  0  0  0
  -23.6030  -31.1890   22.6780 F   0  0  0  0  0  0  0  0  0  0  0  0
  -25.0800  -26.8330   22.3770 C   0  0  0  0  0  2  0  0  0  0  0  0
  -25.8090  -25.8790   21.3210 C   0  0  0  0  0  2  0  0  0  0  0  0
  -25.6150  -25.8290   19.7530 C   0  0  0  0  0  2  0  0  0  0  0  0
  -26.2230  -26.8120   18.8700 O   0  0  0  0  0  0  0  0  0  0  0  0
  -24.3960  -29.1060   25.3480 C   0  0  0  0  0  0  0  0  0  0  0  0
  -25.4500  -27.9020   18.7740 C   0  0  0  0  0  3  0  0  0  0  0  0
  -22.6800  -29.0960   23.2860 C   0  0  0  0  0  3  0  0  0  0  0  0
  -23.5370  -29.2770   20.1030 C   0  0  0  0  0  3  0  0  0  0  0  0
  -25.7590  -29.7820   23.2580 C   0  0  0  0  0  3  0  0  0  0  0  0
  -25.1410  -29.6080   20.2920 C   0  0  0  0  0  2  0  0  0  0  0  0
  -25.9270  -29.0810   19.2850 C   0  0  0  0  0  2  0  0  0  0  0  0
  -24.1160  -27.8140   18.3640 C   0  0  0  0  0  3  0  0  0  0  0  0
  -23.1350  -28.5530   19.0110 C   0  0  0  0  0  3  0  0  0  0  0  0
  -22.3350  -29.1640   21.4340 C   0  0  0  0  0  2  0  0  0  0  0  0
  -24.2330  -29.3870   24.0860 N   0  0  0  0  0  0  0  0  0  0  0  0
  -23.4320  -28.9200   26.0870 O   0  0  0  0  0  0  0  0  0  0  0  0
  -21.9190  -27.8370   23.6850 C   0  0  0  0  0  0  0  0  0  0  0  0
  -20.6280  -27.7670   23.3620 N   0  0  0  0  0  0  0  0  0  0  0  0
  -22.4990  -26.8710   24.1540 O   0  0  0  0  0  0  0  0  0  0  0  0
  -20.1760  -28.5740   22.9570 H   0  0  0  0  0  0  0  0  0  0  0  0
  -17.3880  -26.3730   22.7380 C   0  0  0  0  0  0  0  0  0  0  0  0
  -19.8420  -26.5450   23.4690 C   0  0  0  0  0  3  0  0  0  0  0  0
  -20.1730  -25.5800   22.3100 C   0  0  0  0  0  2  0  0  0  0  0  0
  -19.2290  -25.7380   21.1170 C   0  0  0  0  0  2  0  0  0  0  0  0
  -17.7760  -25.5090   21.5480 C   0  0  0  0  0  2  0  0  0  0  0  0
  -18.3670  -26.8700   23.6320 C   0  0  0  0  0  0  0  0  0  0  0  0
  -17.9750  -27.6930   24.7090 C   0  0  0  0  0  3  0  0  0  0  0  0
  -16.6220  -28.0210   24.9000 C   0  0  0  0  0  3  0  0  0  0  0  0
  -15.6500  -27.5150   24.0200 C   0  0  0  0  0  3  0  0  0  0  0  0
  -16.0320  -26.6890   22.9470 C   0  0  0  0  0  3  0  0  0  0  0  0
  -25.8500  -29.0520   25.8800 C   0  0  0  0  0  3  0  0  0  0  0  0
  -26.0480  -30.2870   26.6000 N   0  0  0  0  0  0  0  0  0  0  0  0
  -26.7740  -31.3090   26.1060 C   0  0  0  0  0  0  0  0  0  0  0  0
  -27.4160  -31.2710   25.0450 O   0  0  0  0  0  0  0  0  0  0  0  0
  -25.5260  -30.4210   27.4540 H   0  0  0  0  0  0  0  0  0  0  0  0
  -25.8920  -33.6300   26.3110 C   0  0  0  0  0  1  0  0  0  0  0  0
  -26.7970  -32.5720   26.9580 C   0  0  0  0  0  3  0  0  0  0  0  0
  -29.0130  -32.2080   27.9390 C   0  0  0  0  0  1  0  0  0  0  0  0
  -28.1590  -33.1020   27.1580 N   0  0  0  0  0  0  0  0  0  0  0  0
  -28.1290  -34.0030   27.6260 H   0  0  0  0  0  0  0  0  0  0  0  0
  -26.2070  -27.7170   26.6130 C   0  0  1  0  0  0  0  0  0  0  0  0
  -25.1890  -27.3780   27.7090 C   0  0  0  0  0  1  0  0  0  0  0  0
  -26.2780  -26.4760   25.6880 C   0  0  0  0  0  1  0  0  0  0  0  0
  -27.6230  -27.8620   27.2070 C   0  0  0  0  0  1  0  0  0  0  0  0
  -29.9950  -29.1790   19.2030 C   0  0  0  0  0  1  0  0  0  0  0  0
  -29.8900  -28.3470   20.4880 C   0  0  0  0  0  3  0  0  0  0  0  0
  -31.1020  -27.3760   20.6750 C   0  0  0  0  0  2  0  0  0  0  0  0
  -32.3330  -23.7550   19.5740 C   0  0  0  0  0  2  0  0  0  0  0  0
  -29.8710  -23.6550   19.8840 C   0  0  0  0  0  2  0  0  0  0  0  0
  -32.3750  -25.2020   20.1290 C   0  0  0  0  0  2  0  0  0  0  0  0
  -29.8900  -25.0920   20.4350 C   0  0  0  0  0  2  0  0  0  0  0  0
  -31.1850  -22.9160   20.1820 C   0  0  0  0  0  3  0  0  0  0  0  0
  -31.0490  -25.9840   19.9450 C   0  0  0  0  0  3  0  0  0  0  0  0
  -31.1680  -21.4530   19.6620 C   0  0  0  0  0  2  0  0  0  0  0  0
  -30.4050  -20.4240   20.5400 C   0  0  0  0  0  2  0  0  0  0  0  0
  -30.7900  -18.9650   20.1960 C   0  0  0  0  0  2  0  0  0  0  0  0
  -30.2610  -17.8580   21.1470 C   0  0  0  0  0  2  0  0  0  0  0  0
  -30.9100  -16.4940   20.8090 C   0  0  0  0  0  2  0  0  0  0  0  0
  -30.4320  -15.2380   21.5970 C   0  0  0  0  0  2  0  0  0  0  0  0
  -31.1000  -13.9410   21.0720 C   0  0  0  0  0  0  0  0  0  0  0  0
  -30.8300  -11.7070   20.0630 C   0  0  0  0  0  2  0  0  0  0  0  0
  -29.9740  -11.8350   18.7880 C   0  0  0  0  0  2  0  0  0  0  0  0
  -28.4780  -11.7240   19.1340 C   0  0  0  0  0  2  0  0  0  0  0  0
  -28.0630  -12.6570   20.3050 C   0  0  0  0  0  3  0  0  0  0  0  0
  -29.0480  -12.5440   21.4920 C   0  0  0  0  0  2  0  0  0  0  0  0
  -30.4090  -12.7730   20.9860 N   0  0  0  0  0  0  0  0  0  0  0  0
  -32.2480  -14.0390   20.6290 O   0  0  0  0  0  0  0  0  0  0  0  0
  -25.7140  -13.3150   21.1220 C   0  0  0  0  0  0  0  0  0  0  0  0
  -24.5770  -12.5810   21.3270 C   0  0  0  0  0  0  0  0  0  0  0  0
  -24.9210  -11.2280   21.0260 C   0  0  0  0  0  0  0  0  0  0  0  0
  -26.6840  -12.4100   20.7200 N   0  0  0  0  0  0  0  0  0  0  0  0
  -26.2080  -11.1380   20.7190 N   0  0  0  0  0  0  0  0  0  0  0  0
  -24.0850  -10.0220   20.9590 C   0  0  0  0  0  0  0  0  0  0  0  0
  -24.3610   -8.8860   21.7520 C   0  0  0  0  0  3  0  0  0  0  0  0
  -23.5320   -7.7460   21.6830 C   0  0  0  0  0  3  0  0  0  0  0  0
  -22.4120   -7.7340   20.8170 C   0  0  0  0  0  0  0  0  0  0  0  0
  -22.1550   -8.8590   20.0140 C   0  0  0  0  0  3  0  0  0  0  0  0
  -22.9840   -9.9910   20.0790 C   0  0  0  0  0  3  0  0  0  0  0  0
  -21.5670   -6.6620   20.6660 O   0  0  0  0  0  0  0  0  0  0  0  0
  -21.3170   -5.7900   21.6950 C   0  0  0  0  0  0  0  0  0  0  0  0
  -20.7440   -6.2180   22.9120 C   0  0  0  0  0  3  0  0  0  0  0  0
  -20.4410   -5.2780   23.9170 C   0  0  0  0  0  3  0  0  0  0  0  0
  -20.7000   -3.9110   23.7050 C   0  0  0  0  0  0  0  0  0  0  0  0
  -21.2660   -3.4820   22.4920 C   0  0  0  0  0  3  0  0  0  0  0  0
  -21.5710   -4.4190   21.4880 C   0  0  0  0  0  0  0  0  0  0  0  0
  -22.0960   -3.9970   20.3130 F   0  0  0  0  0  0  0  0  0  0  0  0
  -20.4020   -3.0060   24.6660 F   0  0  0  0  0  0  0  0  0  0  0  0
  -23.2210  -13.1160   21.6890 C   0  0  0  0  0  0  0  0  0  0  0  0
  -22.4210  -12.3280   22.4000 N   0  0  0  0  0  0  0  0  0  0  0  0
  -22.8810  -14.2580   21.3820 O   0  0  0  0  0  0  0  0  0  0  0  0
  -22.7090  -11.3990   22.6680 H   0  0  0  0  0  0  0  0  0  0  0  0
  -21.5090  -12.6590   22.6790 H   0  0  0  0  0  0  0  0  0  0  0  0
  -26.0000  -14.6730   21.2230 N   0  0  0  0  0  0  0  0  0  0  0  0
  -25.2930  -15.3610   21.4640 H   0  0  0  0  0  0  0  0  0  0  0  0
  -26.8980  -15.0890   21.0080 H   0  0  0  0  0  0  0  0  0  0  0  0
  1  5  1  0
  2  5  1  0
  2  3  2  0
  3  7  1  0
  5  4  2  0
  6  4  1  0
  6 17  1  0
  7  8  1  0
  7 17  1  0
  9  6  1  0
 10  9  1  0
 11 10  1  0
 12 11  1  0
 13 24  2  0
 14 20  1  0
 14 12  1  0
 14 19  1  0
 15 25  1  0
 15 23  1  0
 16 21  1  0
 16 18  1  0
 16 22  1  0
 17 23  1  0
 19 18  1  0
 20 21  2  0
 22 15  1  0
 23 13  1  0
 25 27  2  0
 26 25  1  0
 28 26  1  0
 29 38  2  0
 29 34  1  0
 30 26  1  0
 30 34  1  0
 31 30  1  0
 32 33  1  0
 32 31  1  0
 33 29  1  0
 34 35  2  0
 35 36  1  0
 37 36  2  0
 38 37  1  0
 39 13  1  0
 39 40  1  0
 39 49  1  0
 40 43  1  0
 41 40  1  0
 41 45  1  0
 42 41  2  0
 45 44  1  0
 45 47  1  0
 47 48  1  0
 47 46  1  0
 49 52  1  1
 49 50  1  0
 51 49  1  0
 54 53  1  0
 54 55  1  0
 54  1  1  0
 56 58  1  0
 56 60  1  0
 57 60  1  0
 57 59  1  0
 60 62  1  0
 61 58  1  0
 61 59  1  0
 61 55  1  0
 62 63  1  0
 64 63  1  0
 64 65  1  0
 66 65  1  0
 66 67  1  0
 68 67  1  0
 69 74  1  0
 70 71  1  0
 70 69  1  0
 72 71  1  0
 72 79  1  0
 72 73  1  0
 74 68  1  0
 74 73  1  0
 75 68  2  0
 76101  1  0
 76 77  2  0
 77 96  1  0
 78 77  1  0
 79 76  1  0
 80 79  1  0
 80 78  2  0
 81 78  1  0
 81 82  1  0
 83 82  2  0
 84 83  1  0
 85 86  1  0
 85 84  2  0
 86 81  2  0
 87 84  1  0
 87 88  1  0
 88 89  1  0
 89 90  2  0
 91 90  1  0
 91 95  1  0
 92 91  2  0
 93 88  2  0
 93 92  1  0
 94 93  1  0
 96 97  1  0
 97 99  1  0
 97100  1  0
 98 96  2  0
101102  1  0
103101  1  0
M  ISO  4  11 101  12 101  67 100  68 100
M  END
>  <TORSDO>  (27) 
F 29

>  <SCORE>  (27) 
-1.745

>  <name>  (27) 
26

>  <ligand_id>  (27) 
26

>  <original_smiles>  (27) 
[H]c1c([H])c([H])c2c(c1[H])C([H])([H])C([H])([H])C([H])([H])C2([H])N([H])C(=O)C1([H])N(C(=O)C([H])(N([H])C(=O)C([H])(N([H])C([H])([H])[H])C([H])([H])[H])C(C([H])([H])[H])(C([H])([H])[H])C([H])([H])[H])C([H])([H])c2c([H])c(OC([H])([H])C([H])([H])C([H])([H])c3c([H])c(C([H])([H])C([H])(C([H])([H])[H])C([H])([H])C4([H])C([H])([H])C([H])([H])C([H])(C([H])([H])C([H])([H])C([H])([H])C([H])([H])C([H])([H])C([H])([H])C(=O)N5C([H])([H])C([H])([H])C([H])([H])C([H])(n6nc(-c7c([H])c([H])c(Oc8c([H])c([H])c(F)c([H])c8F)c([H])c7[H])c(C(=O)N([H])[H])c6N([H])[H])C5([H])[H])C([H])([H])C4([H])[H])c([H])c([H])c3F)c([H])c([H])c2C1([H])[H]

>  <smiles>  (27) 
[H]c1c([H])c([H])c2c(c1[H])C([H])([H])C([H])([H])C([H])([H])C2([H])N([H])C(=O)C1([H])N(C(=O)C([H])(N([H])C(=O)C([H])(N([H])C([H])([H])[H])C([H])([H])[H])C(C([H])([H])[H])(C([H])([H])[H])C([H])([H])[H])C([H])([H])c2c([H])c(OC([H])([H])C([H])([H])C([H])([H])c3c([H])c(C([H])([H])C([H])(C([H])([H])[H])C([H])([H])C4([H])C([H])([H])C([H])([H])C([H])(C([H])([H])C([H])([H])C([H])([H])C([H])([H])C([H])([H])C([H])([H])C(=O)N5C([H])([H])C([H])([H])C([H])([H])C([H])(n6nc(-c7c([H])c([H])c(Oc8c([H])c([H])c(F)c([H])c8F)c([H])c7[H])c(C(=O)N([H])[H])c6N([H])[H])C5([H])[H])C([H])([H])C4([H])[H])c([H])c([H])c3F)c([H])c([H])c2C1([H])[H]

$$$$
27:0:0
     RDKit          3D

 96104  0  0  1  0  0  0  0  0999 V2000
  -27.7680  -21.1670   21.7800 C   0  0  0  0  0  3  0  0  0  0  0  0
  -27.7780  -20.2770   20.6880 C   0  0  0  0  0  3  0  0  0  0  0  0
  -27.7420  -22.5540   21.5510 C   0  0  0  0  0  3  0  0  0  0  0  0
  -27.7760  -22.1450   19.1310 C   0  0  0  0  0  3  0  0  0  0  0  0
  -27.7950  -20.7510   19.3550 C   0  0  0  0  0  0  0  0  0  0  0  0
  -27.7690  -23.0450   20.2250 C   0  0  0  0  0  0  0  0  0  0  0  0
  -27.9580  -19.7210   18.2420 C   0  0  0  0  0  2  0  0  0  0  0  0
  -27.9260  -20.1090   16.7440 C   0  0  0  0  0  2  0  0  0  0  0  0
  -28.9770  -19.2460   15.9910 C   0  0  0  0  0  2  0  0  0  0  0  0
  -30.4170  -19.7760   16.2000 C   0  0  0  0  0  2  0  0  0  0  0  0
  -31.4820  -18.7600   16.6840 C   0  0  0  0  0  2  0  0  0  0  0  0
  -31.5520  -18.5190   18.2170 C   0  0  0  0  0  2  0  0  0  0  0  0
  -30.8020  -17.2720   18.7500 C   0  0  0  0  0  2  0  0  0  0  0  0
  -30.1580  -17.4660   20.1460 C   0  0  0  0  0  2  0  0  0  0  0  0
  -30.9380  -16.8740   21.3410 C   0  0  0  0  0  2  0  0  0  0  0  0
  -31.3630  -14.4730   20.7930 C   0  0  0  0  0  0  0  0  0  0  0  0
  -30.9820  -12.4270   19.4960 C   0  0  0  0  0  2  0  0  0  0  0  0
  -30.1150  -12.8010   18.2810 C   0  0  0  0  0  2  0  0  0  0  0  0
  -28.6120  -12.7630   18.6300 C   0  0  0  0  0  2  0  0  0  0  0  0
  -28.2670  -13.5100   19.9500 C   0  0  0  0  0  3  0  0  0  0  0  0
  -29.2600  -13.1230   21.0700 C   0  0  0  0  0  2  0  0  0  0  0  0
  -30.6350  -13.3510   20.5820 N   0  0  0  0  0  0  0  0  0  0  0  0
  -32.4760  -14.6770   20.3020 O   0  0  0  0  0  0  0  0  0  0  0  0
  -30.7040  -15.4380   21.4440 N   0  0  0  0  0  0  0  0  0  0  0  0
  -29.8270  -15.1480   21.8480 H   0  0  0  0  0  0  0  0  0  0  0  0
  -25.8710  -14.2070   20.6000 C   0  0  0  0  0  0  0  0  0  0  0  0
  -24.7490  -13.4810   20.8950 C   0  0  0  0  0  0  0  0  0  0  0  0
  -25.1360  -12.1090   20.8100 C   0  0  0  0  0  0  0  0  0  0  0  0
  -26.8770  -13.2840   20.3580 N   0  0  0  0  0  0  0  0  0  0  0  0
  -26.4350  -12.0130   20.5400 N   0  0  0  0  0  0  0  0  0  0  0  0
  -24.3320  -10.8830   20.9210 C   0  0  0  0  0  0  0  0  0  0  0  0
  -24.6870   -9.8440   21.8080 C   0  0  0  0  0  3  0  0  0  0  0  0
  -23.8900   -8.6840   21.9090 C   0  0  0  0  0  3  0  0  0  0  0  0
  -22.7220   -8.5500   21.1220 C   0  0  0  0  0  0  0  0  0  0  0  0
  -22.3850   -9.5810   20.2260 C   0  0  0  0  0  3  0  0  0  0  0  0
  -23.1820  -10.7330   20.1210 C   0  0  0  0  0  3  0  0  0  0  0  0
  -21.9010   -7.4480   21.1350 O   0  0  0  0  0  0  0  0  0  0  0  0
  -21.7770   -6.6500   22.2440 C   0  0  0  0  0  0  0  0  0  0  0  0
  -21.3660   -7.1680   23.4930 C   0  0  0  0  0  3  0  0  0  0  0  0
  -21.1850   -6.3010   24.5880 C   0  0  0  0  0  3  0  0  0  0  0  0
  -21.4060   -4.9200   24.4380 C   0  0  0  0  0  0  0  0  0  0  0  0
  -21.8040   -4.4000   23.1930 C   0  0  0  0  0  3  0  0  0  0  0  0
  -21.9870   -5.2630   22.0990 C   0  0  0  0  0  0  0  0  0  0  0  0
  -22.3510   -4.7540   20.8980 F   0  0  0  0  0  0  0  0  0  0  0  0
  -21.2220   -4.0850   25.4870 F   0  0  0  0  0  0  0  0  0  0  0  0
  -23.3700  -14.0210   21.1440 C   0  0  0  0  0  0  0  0  0  0  0  0
  -22.5790  -13.3310   21.9560 N   0  0  0  0  0  0  0  0  0  0  0  0
  -23.0020  -15.0850   20.6490 O   0  0  0  0  0  0  0  0  0  0  0  0
  -22.8890  -12.4700   22.3850 H   0  0  0  0  0  0  0  0  0  0  0  0
  -21.6510  -13.6750   22.1560 H   0  0  0  0  0  0  0  0  0  0  0  0
  -26.1130  -15.5720   20.4980 N   0  0  0  0  0  0  0  0  0  0  0  0
  -25.3660  -16.2490   20.5780 H   0  0  0  0  0  0  0  0  0  0  0  0
  -26.9910  -15.9880   20.2170 H   0  0  0  0  0  0  0  0  0  0  0  0
  -27.6780  -24.5290   19.9320 C   0  0  0  0  0  3  0  0  0  0  0  0
  -28.7130  -25.5040   20.5380 C   0  0  0  0  0  3  0  0  0  0  0  0
  -28.6230  -26.8750   20.0810 O   0  0  0  0  0  0  0  0  0  0  0  0
  -24.5470  -31.8360   23.1990 C   0  0  0  0  0  0  0  0  0  0  0  0
  -27.4150  -27.5500   20.1060 C   0  0  0  0  0  0  0  0  0  0  0  0
  -23.4320  -30.4300   21.5000 C   0  0  0  0  0  3  0  0  0  0  0  0
  -24.9690  -28.9820   20.0840 C   0  0  0  0  0  0  0  0  0  0  0  0
  -25.9460  -30.8770   21.3800 C   0  0  0  0  0  2  0  0  0  0  0  0
  -26.0980  -29.5200   20.7260 C   0  0  0  0  0  0  0  0  0  0  0  0
  -27.3130  -28.8050   20.7510 C   0  0  0  0  0  3  0  0  0  0  0  0
  -26.2840  -27.0760   19.3990 C   0  0  0  0  0  3  0  0  0  0  0  0
  -25.0590  -27.7580   19.4190 C   0  0  0  0  0  3  0  0  0  0  0  0
  -23.7000  -29.7980   20.1110 C   0  0  0  0  0  2  0  0  0  0  0  0
  -24.6580  -31.0590   22.0870 N   0  0  0  0  0  0  0  0  0  0  0  0
  -23.4430  -32.0530   23.7200 O   0  0  0  0  0  0  0  0  0  0  0  0
  -22.7940  -29.3640   22.4170 C   0  0  0  0  0  0  0  0  0  0  0  0
  -21.4780  -29.1410   22.2570 N   0  0  0  0  0  0  0  0  0  0  0  0
  -23.4800  -28.7410   23.2310 O   0  0  0  0  0  0  0  0  0  0  0  0
  -20.9810  -29.6920   21.5740 H   0  0  0  0  0  0  0  0  0  0  0  0
  -18.1340  -27.8420   22.6740 C   0  0  0  0  0  0  0  0  0  0  0  0
  -20.6780  -28.1590   22.9890 C   0  0  0  0  0  3  0  0  0  0  0  0
  -20.8320  -26.7490   22.3750 C   0  0  0  0  0  2  0  0  0  0  0  0
  -19.7520  -26.4220   21.3390 C   0  0  0  0  0  2  0  0  0  0  0  0
  -18.3550  -26.5170   21.9640 C   0  0  0  0  0  2  0  0  0  0  0  0
  -19.2250  -28.6210   23.1410 C   0  0  0  0  0  0  0  0  0  0  0  0
  -18.9670  -29.8610   23.7600 C   0  0  0  0  0  3  0  0  0  0  0  0
  -17.6460  -30.3260   23.9210 C   0  0  0  0  0  3  0  0  0  0  0  0
  -16.5690  -29.5450   23.4690 C   0  0  0  0  0  3  0  0  0  0  0  0
  -16.8120  -28.3050   22.8530 C   0  0  0  0  0  3  0  0  0  0  0  0
  -25.7980  -32.5020   23.8580 C   0  0  0  0  0  3  0  0  0  0  0  0
  -26.2890  -31.7440   25.1510 C   0  0  1  0  0  0  0  0  0  0  0  0
  -25.1690  -31.4770   26.1810 C   0  0  0  0  0  1  0  0  0  0  0  0
  -26.9250  -30.3840   24.7840 C   0  0  0  0  0  1  0  0  0  0  0  0
  -27.3900  -32.5710   25.8570 C   0  0  0  0  0  1  0  0  0  0  0  0
  -25.4390  -33.8900   24.1720 N   0  0  0  0  0  0  0  0  0  0  0  0
  -25.7600  -34.9490   23.4190 C   0  0  0  0  0  0  0  0  0  0  0  0
  -26.4630  -34.8610   22.4070 O   0  0  0  0  0  0  0  0  0  0  0  0
  -24.8390  -34.0280   24.9720 H   0  0  0  0  0  0  0  0  0  0  0  0
  -23.9920  -36.6910   22.9940 C   0  0  0  0  0  1  0  0  0  0  0  0
  -25.2150  -36.3270   23.8510 C   0  0  0  0  0  3  0  0  0  0  0  0
  -27.2910  -37.2740   24.7540 C   0  0  0  0  0  1  0  0  0  0  0  0
  -26.2190  -37.4090   23.7720 N   0  0  0  0  0  0  0  0  0  0  0  0
  -25.7790  -38.3190   23.9030 H   0  0  0  0  0  0  0  0  0  0  0  0
  2  1  2  0
  3  1  1  0
  4  5  2  0
  4  6  1  0
  5  2  1  0
  6  3  2  0
  7  5  1  0
  8  7  1  0
  9 10  1  0
  9  8  1  0
 10 11  1  0
 11 12  1  0
 12 13  1  0
 13 14  1  0
 14 15  1  0
 15 24  1  0
 16 24  1  0
 17 22  1  0
 18 19  1  0
 18 17  1  0
 20 19  1  0
 20 29  1  0
 20 21  1  0
 22 16  1  0
 22 21  1  0
 23 16  2  0
 24 25  1  0
 26 27  2  0
 27 46  1  0
 28 27  1  0
 28 31  1  0
 29 30  1  0
 29 26  1  0
 30 28  2  0
 31 32  1  0
 32 33  2  0
 34 37  1  0
 34 33  1  0
 35 34  2  0
 36 35  1  0
 36 31  2  0
 37 38  1  0
 38 39  1  0
 39 40  2  0
 41 40  1  0
 41 45  1  0
 42 41  2  0
 43 38  2  0
 43 42  1  0
 44 43  1  0
 46 47  1  0
 47 50  1  0
 47 49  1  0
 48 46  2  0
 51 52  1  0
 51 26  1  0
 53 51  1  0
 54  6  1  0
 54 55  2  0
 56 58  1  0
 56 55  1  0
 57 68  2  0
 58 63  1  0
 59 67  1  0
 59 69  1  0
 60 66  1  0
 60 62  1  0
 61 67  1  0
 62 63  2  0
 62 61  1  0
 64 65  1  0
 64 58  2  0
 65 60  2  0
 66 59  1  0
 67 57  1  0
 69 71  2  0
 70 69  1  0
 72 70  1  0
 73 82  2  0
 73 78  1  0
 74 70  1  0
 74 78  1  0
 75 74  1  0
 76 77  1  0
 76 75  1  0
 77 73  1  0
 78 79  2  0
 79 80  1  0
 81 80  2  0
 82 81  1  0
 83 57  1  0
 83 88  1  0
 83 84  1  0
 84 87  1  1
 84 85  1  0
 86 84  1  0
 88 91  1  0
 89 93  1  0
 89 88  1  0
 90 89  2  0
 93 92  1  0
 95 93  1  0
 95 96  1  0
 95 94  1  0
M  ISO  4  16 100  24 100  55 101  56 101
M  END
>  <TORSDO>  (28) 
F 27

>  <SCORE>  (28) 
-10.448

>  <name>  (28) 
27

>  <ligand_id>  (28) 
27

>  <original_smiles>  (28) 
[H]c1c([H])c([H])c2c(c1[H])C([H])([H])C([H])([H])C([H])([H])C2([H])N([H])C(=O)C1([H])N(C(=O)C([H])(N([H])C(=O)C([H])(N([H])C([H])([H])[H])C([H])([H])[H])C(C([H])([H])[H])(C([H])([H])[H])C([H])([H])[H])C([H])([H])c2c([H])c(OC([H])([H])C([H])([H])c3c([H])c([H])c([H])c(C([H])([H])C([H])([H])C([H])([H])C([H])([H])C([H])([H])C([H])([H])C([H])([H])C([H])([H])C([H])([H])N([H])C(=O)N4C([H])([H])C([H])([H])C([H])([H])C([H])(n5nc(-c6c([H])c([H])c(Oc7c([H])c([H])c(F)c([H])c7F)c([H])c6[H])c(C(=O)N([H])[H])c5N([H])[H])C4([H])[H])c3[H])c([H])c([H])c2C1([H])[H]

>  <smiles>  (28) 
[H]c1c([H])c([H])c2c(c1[H])C([H])([H])C([H])([H])C([H])([H])C2([H])N([H])C(=O)C1([H])N(C(=O)C([H])(N([H])C(=O)C([H])(N([H])C([H])([H])[H])C([H])([H])[H])C(C([H])([H])[H])(C([H])([H])[H])C([H])([H])[H])C([H])([H])c2c([H])c(OC([H])([H])C([H])([H])c3c([H])c([H])c([H])c(C([H])([H])C([H])([H])C([H])([H])C([H])([H])C([H])([H])C([H])([H])C([H])([H])C([H])([H])C([H])([H])N([H])C(=O)N4C([H])([H])C([H])([H])C([H])([H])C([H])(n5nc(-c6c([H])c([H])c(Oc7c([H])c([H])c(F)c([H])c7F)c([H])c6[H])c(C(=O)N([H])[H])c5N([H])[H])C4([H])[H])c3[H])c([H])c([H])c2C1([H])[H]

$$$$
28:0:0
     RDKit          3D

 98107  0  0  1  0  0  0  0  0999 V2000
  -32.5060  -25.4160   21.4400 C   0  0  0  0  0  2  0  0  0  0  0  0
  -30.1040  -28.3500   22.0830 C   0  0  0  0  0  3  0  0  0  0  0  0
  -31.2610  -27.5420   22.0900 C   0  0  0  0  0  3  0  0  0  0  0  0
  -28.9420  -27.9220   21.4100 C   0  0  0  0  0  3  0  0  0  0  0  0
  -30.0710  -25.8520   20.8170 C   0  0  0  0  0  3  0  0  0  0  0  0
  -31.2520  -26.2840   21.4490 C   0  0  0  0  0  0  0  0  0  0  0  0
  -28.9320  -26.6740   20.7550 C   0  0  0  0  0  0  0  0  0  0  0  0
  -27.7260  -26.2120   19.9610 C   0  0  0  0  0  2  0  0  0  0  0  0
  -27.4340  -27.1150   18.8950 O   0  0  0  0  0  0  0  0  0  0  0  0
  -24.2010  -31.9300   22.9650 C   0  0  0  0  0  0  0  0  0  0  0  0
  -26.3090  -27.8600   19.1130 C   0  0  0  0  0  0  0  0  0  0  0  0
  -22.7510  -30.7230   21.3620 C   0  0  0  0  0  3  0  0  0  0  0  0
  -23.9690  -29.3390   19.6000 C   0  0  0  0  0  0  0  0  0  0  0  0
  -25.2290  -31.0990   20.8570 C   0  0  0  0  0  2  0  0  0  0  0  0
  -25.2020  -29.8060   20.0720 C   0  0  0  0  0  0  0  0  0  0  0  0
  -26.3800  -29.0730   19.8240 C   0  0  0  0  0  3  0  0  0  0  0  0
  -25.0690  -27.3950   18.6370 C   0  0  0  0  0  3  0  0  0  0  0  0
  -23.8940  -28.1320   18.8810 C   0  0  0  0  0  3  0  0  0  0  0  0
  -22.7580  -30.1900   19.9050 C   0  0  0  0  0  2  0  0  0  0  0  0
  -24.0870  -31.2570   21.7850 N   0  0  0  0  0  0  0  0  0  0  0  0
  -23.2080  -32.1520   23.6710 O   0  0  0  0  0  0  0  0  0  0  0  0
  -22.2140  -29.6100   22.2880 C   0  0  0  0  0  0  0  0  0  0  0  0
  -20.8840  -29.4230   22.2840 N   0  0  0  0  0  0  0  0  0  0  0  0
  -22.9840  -28.9220   22.9630 O   0  0  0  0  0  0  0  0  0  0  0  0
  -20.3260  -30.0320   21.7040 H   0  0  0  0  0  0  0  0  0  0  0  0
  -17.5850  -28.1470   23.0150 C   0  0  0  0  0  0  0  0  0  0  0  0
  -20.1560  -28.4090   23.0460 C   0  0  0  0  0  3  0  0  0  0  0  0
  -20.2020  -27.0400   22.3310 C   0  0  0  0  0  2  0  0  0  0  0  0
  -19.0010  -26.7990   21.4100 C   0  0  0  0  0  2  0  0  0  0  0  0
  -17.6930  -26.8670   22.2040 C   0  0  0  0  0  2  0  0  0  0  0  0
  -18.7400  -28.8800   23.3960 C   0  0  0  0  0  0  0  0  0  0  0  0
  -18.5810  -30.0830   24.1170 C   0  0  0  0  0  3  0  0  0  0  0  0
  -17.3000  -30.5540   24.4600 C   0  0  0  0  0  3  0  0  0  0  0  0
  -16.1610  -29.8200   24.0930 C   0  0  0  0  0  3  0  0  0  0  0  0
  -16.3050  -28.6170   23.3760 C   0  0  0  0  0  3  0  0  0  0  0  0
  -25.5760  -32.4760   23.4680 C   0  0  0  0  0  3  0  0  0  0  0  0
  -25.3470  -33.8320   23.9820 N   0  0  0  0  0  0  0  0  0  0  0  0
  -25.6620  -34.9570   23.3250 C   0  0  0  0  0  0  0  0  0  0  0  0
  -26.2420  -34.9570   22.2360 O   0  0  0  0  0  0  0  0  0  0  0  0
  -24.8100  -33.9070   24.8340 H   0  0  0  0  0  0  0  0  0  0  0  0
  -23.9870  -36.8280   23.3160 C   0  0  0  0  0  1  0  0  0  0  0  0
  -25.2660  -36.2940   23.9790 C   0  0  0  0  0  3  0  0  0  0  0  0
  -27.4840  -37.0070   24.7520 C   0  0  0  0  0  1  0  0  0  0  0  0
  -26.3300  -37.3200   23.9110 N   0  0  0  0  0  0  0  0  0  0  0  0
  -25.9740  -38.2320   24.1850 H   0  0  0  0  0  0  0  0  0  0  0  0
  -26.2470  -31.5620   24.5670 C   0  0  1  0  0  0  0  0  0  0  0  0
  -25.2860  -31.1730   25.7140 C   0  0  0  0  0  1  0  0  0  0  0  0
  -26.7910  -30.2580   23.9360 C   0  0  0  0  0  1  0  0  0  0  0  0
  -27.4640  -32.2900   25.1850 C   0  0  0  0  0  1  0  0  0  0  0  0
  -32.8980  -24.8170   20.0590 C   0  0  0  0  0  2  0  0  0  0  0  0
  -31.5500  -23.3100   18.4440 C   0  0  0  0  0  2  0  0  0  0  0  0
  -31.2060  -21.8600   18.0720 C   0  0  0  0  0  2  0  0  0  0  0  0
  -31.8750  -22.5180   20.8470 C   0  0  0  0  0  2  0  0  0  0  0  0
  -32.4630  -23.3670   19.6930 C   0  0  0  0  0  3  0  0  0  0  0  0
  -30.6380  -21.0680   19.2700 C   0  0  0  0  0  3  0  0  0  0  0  0
  -31.5950  -21.1390   20.3970 N   0  0  0  0  0  4  0  0  0  0  0  0
  -31.2220  -20.6210   21.1770 H   0  0  0  0  0  0  0  0  0  0  0  0
  -32.4630  -20.7020   20.1290 H   0  0  0  0  0  0  0  0  0  0  0  0
  -30.3760  -19.6040   18.8620 C   0  0  0  0  0  2  0  0  0  0  0  0
  -29.9480  -18.6390   19.9960 C   0  0  0  0  0  2  0  0  0  0  0  0
  -30.2220  -17.1890   19.5620 C   0  0  0  0  0  2  0  0  0  0  0  0
  -30.1020  -16.0850   20.6470 C   0  0  0  0  0  2  0  0  0  0  0  0
  -30.7570  -14.7860   20.1340 C   0  0  0  0  0  0  0  0  0  0  0  0
  -30.4200  -12.5810   19.1050 C   0  0  0  0  0  2  0  0  0  0  0  0
  -29.4250  -12.7410   17.9390 C   0  0  0  0  0  2  0  0  0  0  0  0
  -27.9800  -12.5810   18.4470 C   0  0  0  0  0  2  0  0  0  0  0  0
  -27.6810  -13.4620   19.6920 C   0  0  0  0  0  3  0  0  0  0  0  0
  -28.7970  -13.3260   20.7530 C   0  0  0  0  0  2  0  0  0  0  0  0
  -30.0850  -13.6060   20.1050 N   0  0  0  0  0  0  0  0  0  0  0  0
  -31.8690  -14.9010   19.6150 O   0  0  0  0  0  0  0  0  0  0  0  0
  -25.3410  -14.0220   20.6030 C   0  0  0  0  0  0  0  0  0  0  0  0
  -24.3030  -13.2280   21.0110 C   0  0  0  0  0  0  0  0  0  0  0  0
  -24.7620  -11.8820   20.8800 C   0  0  0  0  0  0  0  0  0  0  0  0
  -26.3670  -13.1590   20.2530 N   0  0  0  0  0  0  0  0  0  0  0  0
  -26.0260  -11.8630   20.4760 N   0  0  0  0  0  0  0  0  0  0  0  0
  -24.0540  -10.6090   21.0620 C   0  0  0  0  0  0  0  0  0  0  0  0
  -24.4920   -9.6470   22.0000 C   0  0  0  0  0  3  0  0  0  0  0  0
  -23.7850   -8.4380   22.1710 C   0  0  0  0  0  3  0  0  0  0  0  0
  -22.6260   -8.1800   21.4030 C   0  0  0  0  0  0  0  0  0  0  0  0
  -22.2060   -9.1290   20.4540 C   0  0  0  0  0  3  0  0  0  0  0  0
  -22.9140  -10.3300   20.2820 C   0  0  0  0  0  3  0  0  0  0  0  0
  -21.8900   -7.0230   21.4820 O   0  0  0  0  0  0  0  0  0  0  0  0
  -21.7700   -6.3230   22.6550 C   0  0  0  0  0  0  0  0  0  0  0  0
  -21.2000   -6.9000   23.8110 C   0  0  0  0  0  3  0  0  0  0  0  0
  -21.0350   -6.1240   24.9760 C   0  0  0  0  0  3  0  0  0  0  0  0
  -21.4270   -4.7720   24.9850 C   0  0  0  0  0  0  0  0  0  0  0  0
  -21.9900   -4.1950   23.8310 C   0  0  0  0  0  3  0  0  0  0  0  0
  -22.1580   -4.9680   22.6700 C   0  0  0  0  0  0  0  0  0  0  0  0
  -22.6810   -4.4010   21.5560 F   0  0  0  0  0  0  0  0  0  0  0  0
  -21.2600   -4.0240   26.1000 F   0  0  0  0  0  0  0  0  0  0  0  0
  -22.9300  -13.6840   21.4090 C   0  0  0  0  0  0  0  0  0  0  0  0
  -22.2690  -12.9400   22.2910 N   0  0  0  0  0  0  0  0  0  0  0  0
  -22.4530  -14.7320   20.9770 O   0  0  0  0  0  0  0  0  0  0  0  0
  -22.6700  -12.0910   22.6620 H   0  0  0  0  0  0  0  0  0  0  0  0
  -21.3510  -13.2220   22.6000 H   0  0  0  0  0  0  0  0  0  0  0  0
  -25.4940  -15.4000   20.4820 N   0  0  0  0  0  0  0  0  0  0  0  0
  -24.7410  -16.0510   20.6820 H   0  0  0  0  0  0  0  0  0  0  0  0
  -26.3290  -15.8540   20.1300 H   0  0  0  0  0  0  0  0  0  0  0  0
  1  6  1  0
  2  3  1  0
  4  2  2  0
  5  6  1  0
  6  3  2  0
  7  5  2  0
  7  4  1  0
  8  7  1  0
  9 11  1  0
  9  8  1  0
 10 21  2  0
 11 16  1  0
 12 20  1  0
 12 22  1  0
 13 19  1  0
 13 15  1  0
 14 20  1  0
 15 14  1  0
 16 15  2  0
 17 18  1  0
 17 11  2  0
 18 13  2  0
 19 12  1  0
 20 10  1  0
 22 24  2  0
 23 22  1  0
 25 23  1  0
 26 35  2  0
 26 31  1  0
 27 23  1  0
 27 31  1  0
 28 27  1  0
 29 30  1  0
 29 28  1  0
 30 26  1  0
 31 32  2  0
 32 33  1  0
 34 33  2  0
 35 34  1  0
 36 10  1  0
 36 37  1  0
 36 46  1  0
 37 40  1  0
 38 42  1  0
 38 37  1  0
 39 38  2  0
 42 41  1  0
 44 42  1  0
 44 45  1  0
 44 43  1  0
 46 49  1  1
 46 47  1  0
 48 46  1  0
 50  1  1  0
 51 54  1  0
 52 51  1  0
 52 55  1  0
 54 50  1  0
 54 53  1  0
 55 59  1  0
 55 56  1  0
 56 53  1  0
 56 57  1  0
 58 56  1  0
 59 60  1  0
 61 60  1  0
 61 62  1  0
 63 62  1  0
 64 69  1  0
 65 66  1  0
 65 64  1  0
 67 66  1  0
 67 74  1  0
 67 68  1  0
 69 63  1  0
 69 68  1  0
 70 63  2  0
 71 72  2  0
 72 91  1  0
 73 72  1  0
 73 76  1  0
 74 75  1  0
 74 71  1  0
 75 73  2  0
 76 77  1  0
 77 78  2  0
 79 82  1  0
 79 78  1  0
 80 79  2  0
 81 80  1  0
 81 76  2  0
 82 83  1  0
 83 88  2  0
 83 84  1  0
 84 85  2  0
 85 86  1  0
 86 90  1  0
 87 86  2  0
 88 87  1  0
 89 88  1  0
 91 92  1  0
 92 95  1  0
 92 94  1  0
 93 91  2  0
 96 71  1  0
 96 97  1  0
 98 96  1  0
M  ISO  4   8 101   9 101  62 100  63 100
M  END
>  <TORSDO>  (29) 
F 24

>  <SCORE>  (29) 
-9.928

>  <name>  (29) 
28

>  <ligand_id>  (29) 
28

>  <original_smiles>  (29) 
[H]c1c([H])c([H])c2c(c1[H])C([H])([H])C([H])([H])C([H])([H])C2([H])N([H])C(=O)C1([H])N(C(=O)C([H])(N([H])C(=O)C([H])(N([H])C([H])([H])[H])C([H])([H])[H])C(C([H])([H])[H])(C([H])([H])[H])C([H])([H])[H])C([H])([H])c2c([H])c(OC([H])([H])c3c([H])c([H])c([H])c(C([H])([H])C([H])([H])C4([H])C([H])([H])C([H])([H])C([H])(C([H])([H])C([H])([H])C([H])([H])C([H])([H])C(=O)N5C([H])([H])C([H])([H])C([H])([H])C([H])(n6nc(-c7c([H])c([H])c(Oc8c([H])c([H])c(F)c([H])c8F)c([H])c7[H])c(C(=O)N([H])[H])c6N([H])[H])C5([H])[H])[N+]([H])([H])C4([H])[H])c3[H])c([H])c([H])c2C1([H])[H]

>  <smiles>  (29) 
[H]c1c([H])c([H])c2c(c1[H])C([H])([H])C([H])([H])C([H])([H])C2([H])N([H])C(=O)C1([H])N(C(=O)C([H])(N([H])C(=O)C([H])(N([H])C([H])([H])[H])C([H])([H])[H])C(C([H])([H])[H])(C([H])([H])[H])C([H])([H])[H])C([H])([H])c2c([H])c(OC([H])([H])c3c([H])c([H])c([H])c(C([H])([H])C([H])([H])C4([H])C([H])([H])C([H])([H])C([H])(C([H])([H])C([H])([H])C([H])([H])C([H])([H])C(=O)N5C([H])([H])C([H])([H])C([H])([H])C([H])(n6nc(-c7c([H])c([H])c(Oc8c([H])c([H])c(F)c([H])c8F)c([H])c7[H])c(C(=O)N([H])[H])c6N([H])[H])C5([H])[H])[N+]([H])([H])C4([H])[H])c3[H])c([H])c([H])c2C1([H])[H]

$$$$
29:0:0
     RDKit          3D

 96104  0  0  1  0  0  0  0  0999 V2000
  -20.8150  -27.2900   21.1930 C   0  0  0  0  0  0  0  0  0  0  0  0
  -22.5310  -26.9290   21.1880 C   0  0  0  0  0  3  0  0  0  0  0  0
  -19.8950  -25.4470   21.6950 C   0  0  0  0  0  1  0  0  0  0  0  0
  -22.3450  -24.3840   22.0060 C   0  0  0  0  0  2  0  0  0  0  0  0
  -23.2130  -25.4490   21.5120 C   0  0  0  0  0  0  0  0  0  0  0  0
  -20.8970  -24.2240   21.8650 C   0  0  0  0  0  3  0  0  0  0  0  0
  -24.8360  -24.6840   21.4490 C   0  0  0  0  0  2  0  0  0  0  0  0
  -25.8760  -23.2110   20.7380 C   0  0  0  0  0  2  0  0  0  0  0  0
  -26.3340  -22.1230   19.2450 C   0  0  0  0  0  3  0  0  0  0  0  0
  -27.7860  -21.5140   18.2590 C   0  0  0  0  0  3  0  0  0  0  0  0
  -28.0750  -20.3320   16.8480 C   0  0  0  0  0  3  0  0  0  0  0  0
  -29.5230  -19.5520   15.9910 C   0  0  0  0  0  3  0  0  0  0  0  0
  -30.6590  -17.6320   13.8970 C   0  0  0  0  0  0  0  0  0  0  0  0
  -31.7530  -16.8070   11.6330 C   0  0  0  0  0  2  0  0  0  0  0  0
  -32.2870  -17.9650   10.7370 C   0  0  0  0  0  2  0  0  0  0  0  0
  -31.1420  -18.6260    9.9460 C   0  0  0  0  0  2  0  0  0  0  0  0
  -29.8860  -18.8240   10.8330 C   0  0  0  0  0  3  0  0  0  0  0  0
  -29.5000  -17.5540   11.6080 C   0  0  0  0  0  2  0  0  0  0  0  0
  -30.6120  -17.3010   12.5120 N   0  0  0  0  0  0  0  0  0  0  0  0
  -31.6290  -17.0710   14.4490 O   0  0  0  0  0  0  0  0  0  0  0  0
  -29.7450  -18.6380   14.5640 N   0  0  0  0  0  0  0  0  0  0  0  0
  -29.0690  -18.9410   13.8770 H   0  0  0  0  0  0  0  0  0  0  0  0
  -28.2210  -20.6160   10.1560 C   0  0  0  0  0  0  0  0  0  0  0  0
  -27.1940  -20.6260    9.2550 C   0  0  0  0  0  0  0  0  0  0  0  0
  -27.1380  -19.3090    8.7020 C   0  0  0  0  0  0  0  0  0  0  0  0
  -28.7450  -19.3400   10.1060 N   0  0  0  0  0  0  0  0  0  0  0  0
  -28.0430  -18.5260    9.2770 N   0  0  0  0  0  0  0  0  0  0  0  0
  -26.3170  -18.7700    7.6130 C   0  0  0  0  0  0  0  0  0  0  0  0
  -25.4470  -17.6750    7.8120 C   0  0  0  0  0  3  0  0  0  0  0  0
  -24.6560  -17.1880    6.7510 C   0  0  0  0  0  3  0  0  0  0  0  0
  -24.7250  -17.8000    5.4760 C   0  0  0  0  0  0  0  0  0  0  0  0
  -25.6080  -18.8760    5.2780 C   0  0  0  0  0  3  0  0  0  0  0  0
  -26.3990  -19.3570    6.3340 C   0  0  0  0  0  3  0  0  0  0  0  0
  -24.0100  -17.3810    4.3800 O   0  0  0  0  0  0  0  0  0  0  0  0
  -22.7610  -16.8320    4.5050 C   0  0  0  0  0  0  0  0  0  0  0  0
  -21.6840  -17.5480    5.0700 C   0  0  0  0  0  3  0  0  0  0  0  0
  -20.3990  -16.9710    5.1140 C   0  0  0  0  0  3  0  0  0  0  0  0
  -20.1870  -15.6840    4.5860 C   0  0  0  0  0  0  0  0  0  0  0  0
  -21.2570  -14.9690    4.0180 C   0  0  0  0  0  3  0  0  0  0  0  0
  -22.5400  -15.5440    3.9760 C   0  0  0  0  0  0  0  0  0  0  0  0
  -23.5630  -14.8610    3.4070 F   0  0  0  0  0  0  0  0  0  0  0  0
  -18.9510  -15.1310    4.6210 F   0  0  0  0  0  0  0  0  0  0  0  0
  -26.3840  -21.8220    8.8530 C   0  0  0  0  0  0  0  0  0  0  0  0
  -25.1310  -21.6140    8.4680 N   0  0  0  0  0  0  0  0  0  0  0  0
  -26.8490  -22.9590    8.9270 O   0  0  0  0  0  0  0  0  0  0  0  0
  -24.7430  -20.6830    8.4250 H   0  0  0  0  0  0  0  0  0  0  0  0
  -24.5510  -22.3990    8.2110 H   0  0  0  0  0  0  0  0  0  0  0  0
  -28.7690  -21.5840   10.9920 N   0  0  0  0  0  0  0  0  0  0  0  0
  -28.4290  -22.5400   10.9910 H   0  0  0  0  0  0  0  0  0  0  0  0
  -29.6230  -21.4720   11.5220 H   0  0  0  0  0  0  0  0  0  0  0  0
  -20.9840  -23.0180   20.8060 C   0  0  0  0  0  2  0  0  0  0  0  0
  -21.5790  -23.1900   19.2150 C   0  0  0  0  0  2  0  0  0  0  0  0
  -22.9510  -23.9200   18.5400 C   0  0  0  0  0  2  0  0  0  0  0  0
  -23.6120  -25.4890   18.0840 C   0  0  0  0  0  2  0  0  0  0  0  0
  -25.2720  -26.0750   17.8810 C   0  0  0  0  0  2  0  0  0  0  0  0
  -26.3490  -26.9610   18.7120 O   0  0  0  0  0  0  0  0  0  0  0  0
  -24.4670  -31.7250   23.7470 C   0  0  0  0  0  0  0  0  0  0  0  0
  -26.0870  -28.3160   18.9280 C   0  0  0  0  0  0  0  0  0  0  0  0
  -23.1200  -31.2030   21.8190 C   0  0  0  0  0  3  0  0  0  0  0  0
  -24.3080  -30.3110   19.7210 C   0  0  0  0  0  0  0  0  0  0  0  0
  -25.6770  -31.1760   21.6010 C   0  0  0  0  0  2  0  0  0  0  0  0
  -25.5110  -30.1980   20.4310 C   0  0  0  0  0  0  0  0  0  0  0  0
  -26.4320  -29.1600   20.0540 C   0  0  0  0  0  3  0  0  0  0  0  0
  -25.0820  -28.7330   18.0770 C   0  0  0  0  0  3  0  0  0  0  0  0
  -24.1330  -29.6310   18.5170 C   0  0  0  0  0  3  0  0  0  0  0  0
  -23.2130  -31.2000   20.2660 C   0  0  0  0  0  2  0  0  0  0  0  0
  -24.4530  -31.4210   22.4210 N   0  0  0  0  0  0  0  0  0  0  0  0
  -23.4170  -31.9060   24.3870 O   0  0  0  0  0  0  0  0  0  0  0  0
  -22.5660  -29.9100   22.4680 C   0  0  0  0  0  0  0  0  0  0  0  0
  -21.2750  -29.7390   22.6290 N   0  0  0  0  0  0  0  0  0  0  0  0
  -23.3050  -28.9940   22.8060 O   0  0  0  0  0  0  0  0  0  0  0  0
  -20.6500  -30.5010   22.4040 H   0  0  0  0  0  0  0  0  0  0  0  0
  -17.6470  -29.0450   22.2830 C   0  0  0  0  0  0  0  0  0  0  0  0
  -20.6550  -28.3500   22.6570 C   0  0  0  0  0  3  0  0  0  0  0  0
  -19.9210  -26.8140   19.7510 C   0  0  0  0  0  3  0  0  0  0  0  0
  -18.1580  -27.3120   19.5720 C   0  0  0  0  0  3  0  0  0  0  0  0
  -17.2290  -28.3100   20.7690 C   0  0  0  0  0  3  0  0  0  0  0  0
  -19.0010  -29.1520   23.0860 C   0  0  0  0  0  0  0  0  0  0  0  0
  -18.8890  -30.0700   24.1810 C   0  0  0  0  0  3  0  0  0  0  0  0
  -17.6850  -30.6980   24.6040 C   0  0  0  0  0  3  0  0  0  0  0  0
  -16.4610  -30.4220   23.9810 C   0  0  0  0  0  3  0  0  0  0  0  0
  -16.4610  -29.6030   22.8480 C   0  0  0  0  0  3  0  0  0  0  0  0
  -25.7970  -31.8700   24.5110 C   0  0  0  0  0  3  0  0  0  0  0  0
  -25.9420  -30.8470   25.7020 C   0  0  1  0  0  0  0  0  0  0  0  0
  -24.7420  -30.8360   26.6770 C   0  0  0  0  0  1  0  0  0  0  0  0
  -26.1300  -29.4040   25.1820 C   0  0  0  0  0  1  0  0  0  0  0  0
  -27.2160  -31.1920   26.5060 C   0  0  0  0  0  1  0  0  0  0  0  0
  -25.8300  -33.2510   25.0010 N   0  0  0  0  0  0  0  0  0  0  0  0
  -26.4540  -34.2540   24.3780 C   0  0  0  0  0  0  0  0  0  0  0  0
  -27.1540  -34.0860   23.3760 O   0  0  0  0  0  0  0  0  0  0  0  0
  -25.2300  -33.4690   25.7830 H   0  0  0  0  0  0  0  0  0  0  0  0
  -25.3160  -36.4810   24.1020 C   0  0  0  0  0  1  0  0  0  0  0  0
  -26.2880  -35.6660   24.9680 C   0  0  0  0  0  3  0  0  0  0  0  0
  -28.4540  -35.8090   26.1120 C   0  0  0  0  0  1  0  0  0  0  0  0
  -27.5680  -36.3910   25.1080 N   0  0  0  0  0  0  0  0  0  0  0  0
  -27.4050  -37.3640   25.3530 H   0  0  0  0  0  0  0  0  0  0  0  0
  2  1  1  0
  2  5  2  0
  5  4  1  0
  6  3  1  0
  6  4  1  0
  7  5  1  0
  8  7  1  0
  9  8  1  0
 10  9  2  0
 11 10  1  0
 12 11  2  0
 13 20  2  0
 13 21  1  0
 14 19  1  0
 15 14  1  0
 16 15  1  0
 17 16  1  0
 17 18  1  0
 18 19  1  0
 19 13  1  0
 21 12  1  0
 22 21  1  0
 23 48  1  0
 24 23  2  0
 25 24  1  0
 25 27  2  0
 26 23  1  0
 26 17  1  0
 27 26  1  0
 28 29  1  0
 28 25  1  0
 30 29  2  0
 31 30  1  0
 32 31  2  0
 32 33  1  0
 33 28  2  0
 34 35  1  0
 34 31  1  0
 35 36  1  0
 36 37  2  0
 38 42  1  0
 38 37  1  0
 39 38  2  0
 40 39  1  0
 40 35  2  0
 41 40  1  0
 43 45  2  0
 43 24  1  0
 44 43  1  0
 46 44  1  0
 47 44  1  0
 48 50  1  0
 49 48  1  0
 51  6  1  0
 52 51  1  0
 53 52  1  0
 54 53  1  0
 55 54  1  0
 55 56  1  0
 56 58  1  0
 57 68  2  0
 58 63  1  0
 59 66  1  0
 59 67  1  0
 59 69  1  0
 60 66  1  0
 60 62  1  0
 61 67  1  0
 62 61  1  0
 63 62  2  0
 64 65  1  0
 64 58  2  0
 65 60  2  0
 67 57  1  0
 69 70  1  0
 69 71  2  0
 70 74  1  0
 72 70  1  0
 73 82  2  0
 73 78  1  0
 74  1  1  0
 74 78  1  0
 75  1  2  0
 76 75  1  0
 76 77  2  0
 77 73  1  0
 78 79  2  0
 79 80  1  0
 81 80  2  0
 82 81  1  0
 83 57  1  0
 83 88  1  0
 83 84  1  0
 84 87  1  1
 84 85  1  0
 86 84  1  0
 88 91  1  0
 89 93  1  0
 89 88  1  0
 90 89  2  0
 93 92  1  0
 93 95  1  0
 95 96  1  0
 95 94  1  0
M  ISO  4  13 100  21 100  55 101  56 101
M  END
>  <TORSDO>  (30) 
F 27

>  <SCORE>  (30) 
-6.323

>  <name>  (30) 
29

>  <ligand_id>  (30) 
29

>  <original_smiles>  (30) 
[H]c1c([H])c([H])c2c(c1[H])C([H])([H])C([H])([H])C([H])([H])C2([H])N([H])C(=O)C1([H])N(C(=O)C([H])(N([H])C(=O)C([H])(N([H])C([H])([H])[H])C([H])([H])[H])C(C([H])([H])[H])(C([H])([H])[H])C([H])([H])[H])C([H])([H])c2c([H])c(OC([H])([H])C([H])([H])C([H])([H])C([H])([H])C([H])([H])c3c([H])c([H])c([H])c(C([H])([H])C([H])([H])C([H])([H])C([H])([H])C([H])([H])C([H])([H])N([H])C(=O)N4C([H])([H])C([H])([H])C([H])([H])C([H])(n5nc(-c6c([H])c([H])c(Oc7c([H])c([H])c(F)c([H])c7F)c([H])c6[H])c(C(=O)N([H])[H])c5N([H])[H])C4([H])[H])c3[H])c([H])c([H])c2C1([H])[H]

>  <smiles>  (30) 
[H]c1c([H])c([H])c2c(c1[H])C([H])([H])C([H])([H])C([H])([H])C2([H])N([H])C(=O)C1([H])N(C(=O)C([H])(N([H])C(=O)C([H])(N([H])C([H])([H])[H])C([H])([H])[H])C(C([H])([H])[H])(C([H])([H])[H])C([H])([H])[H])C([H])([H])c2c([H])c(OC([H])([H])C([H])([H])C([H])([H])C([H])([H])C([H])([H])c3c([H])c([H])c([H])c(C([H])([H])C([H])([H])C([H])([H])C([H])([H])C([H])([H])C([H])([H])N([H])C(=O)N4C([H])([H])C([H])([H])C([H])([H])C([H])(n5nc(-c6c([H])c([H])c(Oc7c([H])c([H])c(F)c([H])c7F)c([H])c6[H])c(C(=O)N([H])[H])c5N([H])[H])C4([H])[H])c3[H])c([H])c([H])c2C1([H])[H]

$$$$
30:0:0
     RDKit          3D

 97105  0  0  1  0  0  0  0  0999 V2000
  -32.8780  -23.0090   18.3750 C   0  0  0  0  0  3  0  0  0  0  0  0
  -31.5250  -22.1840   20.2270 C   0  0  0  0  0  3  0  0  0  0  0  0
  -31.7310  -23.5820   17.7930 C   0  0  0  0  0  3  0  0  0  0  0  0
  -30.3730  -22.7280   19.6290 C   0  0  0  0  0  3  0  0  0  0  0  0
  -32.7770  -22.2830   19.5830 C   0  0  0  0  0  0  0  0  0  0  0  0
  -30.4710  -23.4280   18.4080 C   0  0  0  0  0  0  0  0  0  0  0  0
  -33.9610  -21.5980   20.1680 C   0  0  0  0  0  0  0  0  0  0  0  0
  -34.2130  -21.5760   21.3760 O   0  0  0  0  0  0  0  0  0  0  0  0
  -34.8340  -20.7940   19.1950 C   0  0  0  0  0  2  0  0  0  0  0  0
  -34.2660  -19.4010   18.8150 C   0  0  0  0  0  2  0  0  0  0  0  0
  -32.7810  -19.3590   18.3900 C   0  0  0  0  0  2  0  0  0  0  0  0
  -32.2840  -17.9660   17.9960 C   0  0  0  0  0  2  0  0  0  0  0  0
  -30.7620  -17.9490   17.7280 C   0  0  0  0  0  2  0  0  0  0  0  0
  -30.0330  -16.7850   18.4220 C   0  0  0  0  0  2  0  0  0  0  0  0
  -30.0020  -16.9040   19.9720 C   0  0  0  0  0  2  0  0  0  0  0  0
  -30.6240  -14.5830   20.6070 C   0  0  0  0  0  0  0  0  0  0  0  0
  -30.4440  -12.3910   19.5670 C   0  0  0  0  0  2  0  0  0  0  0  0
  -29.5340  -12.5530   18.3280 C   0  0  0  0  0  2  0  0  0  0  0  0
  -28.0450  -12.4000   18.7030 C   0  0  0  0  0  2  0  0  0  0  0  0
  -27.6460  -13.2580   19.9340 C   0  0  0  0  0  3  0  0  0  0  0  0
  -28.6680  -13.0910   21.0870 C   0  0  0  0  0  2  0  0  0  0  0  0
  -30.0080  -13.3790   20.5570 N   0  0  0  0  0  0  0  0  0  0  0  0
  -31.8110  -14.7590   20.3280 O   0  0  0  0  0  0  0  0  0  0  0  0
  -29.7610  -15.6110   20.6140 N   0  0  0  0  0  0  0  0  0  0  0  0
  -28.8040  -15.3890   20.8410 H   0  0  0  0  0  0  0  0  0  0  0  0
  -25.2180  -13.8670   20.5270 C   0  0  0  0  0  0  0  0  0  0  0  0
  -24.1400  -13.0930   20.8690 C   0  0  0  0  0  0  0  0  0  0  0  0
  -24.6120  -11.7460   20.8890 C   0  0  0  0  0  0  0  0  0  0  0  0
  -26.2770  -12.9870   20.3640 N   0  0  0  0  0  0  0  0  0  0  0  0
  -25.9140  -11.7090   20.6370 N   0  0  0  0  0  0  0  0  0  0  0  0
  -23.8900  -10.4800   21.0730 C   0  0  0  0  0  0  0  0  0  0  0  0
  -24.3120   -9.5190   22.0170 C   0  0  0  0  0  3  0  0  0  0  0  0
  -23.5880   -8.3200   22.1940 C   0  0  0  0  0  3  0  0  0  0  0  0
  -22.4260   -8.0730   21.4240 C   0  0  0  0  0  0  0  0  0  0  0  0
  -22.0230   -9.0240   20.4690 C   0  0  0  0  0  3  0  0  0  0  0  0
  -22.7490  -10.2130   20.2920 C   0  0  0  0  0  3  0  0  0  0  0  0
  -21.6770   -6.9250   21.5060 O   0  0  0  0  0  0  0  0  0  0  0  0
  -21.6400   -6.1720   22.6530 C   0  0  0  0  0  0  0  0  0  0  0  0
  -21.2510   -6.7240   23.8930 C   0  0  0  0  0  3  0  0  0  0  0  0
  -21.1580   -5.8980   25.0310 C   0  0  0  0  0  3  0  0  0  0  0  0
  -21.4450   -4.5250   24.9310 C   0  0  0  0  0  0  0  0  0  0  0  0
  -21.8290   -3.9730   23.6960 C   0  0  0  0  0  3  0  0  0  0  0  0
  -21.9220   -4.7950   22.5590 C   0  0  0  0  0  0  0  0  0  0  0  0
  -22.2730   -4.2560   21.3660 F   0  0  0  0  0  0  0  0  0  0  0  0
  -21.3460   -3.7300   26.0230 F   0  0  0  0  0  0  0  0  0  0  0  0
  -22.7280  -13.5660   21.0700 C   0  0  0  0  0  0  0  0  0  0  0  0
  -21.9680  -12.8830   21.9180 N   0  0  0  0  0  0  0  0  0  0  0  0
  -22.3060  -14.5760   20.5080 O   0  0  0  0  0  0  0  0  0  0  0  0
  -22.3200  -12.0640   22.3930 H   0  0  0  0  0  0  0  0  0  0  0  0
  -21.0190  -13.1810   22.0960 H   0  0  0  0  0  0  0  0  0  0  0  0
  -25.3770  -15.2340   20.3210 N   0  0  0  0  0  0  0  0  0  0  0  0
  -24.5900  -15.8730   20.3650 H   0  0  0  0  0  0  0  0  0  0  0  0
  -26.2300  -15.6770   20.0070 H   0  0  0  0  0  0  0  0  0  0  0  0
  -29.2330  -24.0300   17.7560 C   0  0  0  0  0  2  0  0  0  0  0  0
  -28.9310  -25.4530   18.2410 C   0  0  0  0  0  2  0  0  0  0  0  0
  -28.5830  -25.5080   19.7340 C   0  0  0  0  0  2  0  0  0  0  0  0
  -28.4650  -26.8490   20.1610 O   0  0  0  0  0  0  0  0  0  0  0  0
  -24.6180  -31.8950   23.2290 C   0  0  0  0  0  0  0  0  0  0  0  0
  -27.2450  -27.4800   20.1390 C   0  0  0  0  0  0  0  0  0  0  0  0
  -23.3930  -30.4830   21.6040 C   0  0  0  0  0  3  0  0  0  0  0  0
  -24.8300  -28.9420   20.1720 C   0  0  0  0  0  0  0  0  0  0  0  0
  -25.9080  -30.8560   21.3710 C   0  0  0  0  0  2  0  0  0  0  0  0
  -25.9870  -29.4840   20.7450 C   0  0  0  0  0  0  0  0  0  0  0  0
  -27.1900  -28.7560   20.7290 C   0  0  0  0  0  3  0  0  0  0  0  0
  -26.0700  -26.9380   19.5630 C   0  0  0  0  0  3  0  0  0  0  0  0
  -24.8640  -27.6660   19.5820 C   0  0  0  0  0  3  0  0  0  0  0  0
  -23.5840  -29.7930   20.2260 C   0  0  0  0  0  2  0  0  0  0  0  0
  -24.6590  -31.0930   22.1270 N   0  0  0  0  0  0  0  0  0  0  0  0
  -23.5430  -32.1680   23.7810 O   0  0  0  0  0  0  0  0  0  0  0  0
  -22.7560  -29.4670   22.5780 C   0  0  0  0  0  0  0  0  0  0  0  0
  -21.4290  -29.2850   22.4630 N   0  0  0  0  0  0  0  0  0  0  0  0
  -23.4480  -28.8440   23.3860 O   0  0  0  0  0  0  0  0  0  0  0  0
  -20.9340  -29.8400   21.7790 H   0  0  0  0  0  0  0  0  0  0  0  0
  -18.0610  -28.0910   22.9770 C   0  0  0  0  0  0  0  0  0  0  0  0
  -20.6180  -28.3510   23.2420 C   0  0  0  0  0  3  0  0  0  0  0  0
  -20.7220  -26.9170   22.6750 C   0  0  0  0  0  2  0  0  0  0  0  0
  -19.6180  -26.5860   21.6650 C   0  0  0  0  0  2  0  0  0  0  0  0
  -18.2370  -26.7350   22.3130 C   0  0  0  0  0  2  0  0  0  0  0  0
  -19.1810  -28.8560   23.3980 C   0  0  0  0  0  0  0  0  0  0  0  0
  -18.9630  -30.1250   23.9770 C   0  0  0  0  0  3  0  0  0  0  0  0
  -17.6580  -30.6280   24.1420 C   0  0  0  0  0  3  0  0  0  0  0  0
  -16.5530  -29.8590   23.7390 C   0  0  0  0  0  3  0  0  0  0  0  0
  -16.7560  -28.5930   23.1600 C   0  0  0  0  0  3  0  0  0  0  0  0
  -25.9130  -32.5230   23.8330 C   0  0  0  0  0  3  0  0  0  0  0  0
  -26.4590  -31.7370   25.0870 C   0  0  1  0  0  0  0  0  0  0  0  0
  -25.3920  -31.4800   26.1770 C   0  0  0  0  0  1  0  0  0  0  0  0
  -27.0380  -30.3680   24.6580 C   0  0  0  0  0  1  0  0  0  0  0  0
  -27.6220  -32.5250   25.7350 C   0  0  0  0  0  1  0  0  0  0  0  0
  -25.6040  -33.9150   24.1840 N   0  0  0  0  0  0  0  0  0  0  0  0
  -25.9200  -34.9770   23.4300 C   0  0  0  0  0  0  0  0  0  0  0  0
  -26.5750  -34.8880   22.3880 O   0  0  0  0  0  0  0  0  0  0  0  0
  -25.0200  -34.0580   24.9950 H   0  0  0  0  0  0  0  0  0  0  0  0
  -24.1740  -36.7600   23.1220 C   0  0  0  0  0  1  0  0  0  0  0  0
  -25.4320  -36.3570   23.9080 C   0  0  0  0  0  3  0  0  0  0  0  0
  -27.5790  -37.2450   24.7020 C   0  0  0  0  0  1  0  0  0  0  0  0
  -26.4550  -37.4180   23.7850 N   0  0  0  0  0  0  0  0  0  0  0  0
  -26.0470  -38.3340   23.9520 H   0  0  0  0  0  0  0  0  0  0  0  0
  1  5  1  0
  3  1  2  0
  3  6  1  0
  4  2  1  0
  5  7  1  0
  5  2  2  0
  6  4  2  0
  7  8  2  0
  9  7  1  0
 10  9  1  0
 11 10  1  0
 12 11  1  0
 13 12  1  0
 13 14  1  0
 14 15  1  0
 15 24  1  0
 16 24  1  0
 17 22  1  0
 18 19  1  0
 18 17  1  0
 20 19  1  0
 20 29  1  0
 20 21  1  0
 22 16  1  0
 22 21  1  0
 23 16  2  0
 24 25  1  0
 26 27  2  0
 27 28  1  0
 27 46  1  0
 28 31  1  0
 29 26  1  0
 29 30  1  0
 30 28  2  0
 31 32  1  0
 32 33  2  0
 34 37  1  0
 34 33  1  0
 35 34  2  0
 36 35  1  0
 36 31  2  0
 37 38  1  0
 38 39  1  0
 39 40  2  0
 41 40  1  0
 41 45  1  0
 42 41  2  0
 43 38  2  0
 43 42  1  0
 44 43  1  0
 46 47  1  0
 47 50  1  0
 47 49  1  0
 48 46  2  0
 51 52  1  0
 51 26  1  0
 53 51  1  0
 54 55  1  0
 54  6  1  0
 55 56  1  0
 56 57  1  0
 58 69  2  0
 59 57  1  0
 59 64  1  0
 60 68  1  0
 60 70  1  0
 61 67  1  0
 61 63  1  0
 62 68  1  0
 63 62  1  0
 64 63  2  0
 65 66  1  0
 65 59  2  0
 66 61  2  0
 67 60  1  0
 68 58  1  0
 70 72  2  0
 71 70  1  0
 73 71  1  0
 74 83  2  0
 74 79  1  0
 75 71  1  0
 75 79  1  0
 76 75  1  0
 77 78  1  0
 77 76  1  0
 78 74  1  0
 79 80  2  0
 80 81  1  0
 82 81  2  0
 83 82  1  0
 84 58  1  0
 84 89  1  0
 84 85  1  0
 85 88  1  1
 85 86  1  0
 87 85  1  0
 89 92  1  0
 90 94  1  0
 90 89  1  0
 91 90  2  0
 94 93  1  0
 96 94  1  0
 96 97  1  0
 96 95  1  0
M  ISO  4  16 100  24 100  56 101  57 101
M  END
>  <TORSDO>  (31) 
F 27

>  <SCORE>  (31) 
-11.210

>  <name>  (31) 
30

>  <ligand_id>  (31) 
30

>  <original_smiles>  (31) 
[H]c1c([H])c([H])c2c(c1[H])C([H])([H])C([H])([H])C([H])([H])C2([H])N([H])C(=O)C1([H])N(C(=O)C([H])(N([H])C(=O)C([H])(N([H])C([H])([H])[H])C([H])([H])[H])C(C([H])([H])[H])(C([H])([H])[H])C([H])([H])[H])C([H])([H])c2c([H])c(OC([H])([H])C([H])([H])C([H])([H])c3c([H])c([H])c(C(=O)C([H])([H])C([H])([H])C([H])([H])C([H])([H])C([H])([H])C([H])([H])C([H])([H])N([H])C(=O)N4C([H])([H])C([H])([H])C([H])([H])C([H])(n5nc(-c6c([H])c([H])c(Oc7c([H])c([H])c(F)c([H])c7F)c([H])c6[H])c(C(=O)N([H])[H])c5N([H])[H])C4([H])[H])c([H])c3[H])c([H])c([H])c2C1([H])[H]

>  <smiles>  (31) 
[H]c1c([H])c([H])c2c(c1[H])C([H])([H])C([H])([H])C([H])([H])C2([H])N([H])C(=O)C1([H])N(C(=O)C([H])(N([H])C(=O)C([H])(N([H])C([H])([H])[H])C([H])([H])[H])C(C([H])([H])[H])(C([H])([H])[H])C([H])([H])[H])C([H])([H])c2c([H])c(OC([H])([H])C([H])([H])C([H])([H])c3c([H])c([H])c(C(=O)C([H])([H])C([H])([H])C([H])([H])C([H])([H])C([H])([H])C([H])([H])C([H])([H])N([H])C(=O)N4C([H])([H])C([H])([H])C([H])([H])C([H])(n5nc(-c6c([H])c([H])c(Oc7c([H])c([H])c(F)c([H])c7F)c([H])c6[H])c(C(=O)N([H])[H])c5N([H])[H])C4([H])[H])c([H])c3[H])c([H])c([H])c2C1([H])[H]

$$$$
31:0:0
     RDKit          3D

 93102  0  0  1  0  0  0  0  0999 V2000
  -28.1550  -22.4460   18.7310 C   0  0  0  0  0  0  0  0  0  0  0  0
  -29.7070  -23.0110   20.4410 C   0  0  0  0  0  2  0  0  0  0  0  0
  -28.9300  -21.7830   19.8760 C   0  0  0  0  0  3  0  0  0  0  0  0
  -29.1730  -24.3040   19.7400 C   0  0  0  0  0  3  0  0  0  0  0  0
  -28.3350  -23.7650   18.6880 N   0  0  0  0  0  0  0  0  0  0  0  0
  -27.4480  -21.8250   17.9400 O   0  0  0  0  0  0  0  0  0  0  0  0
  -27.9200  -24.3600   17.9830 H   0  0  0  0  0  0  0  0  0  0  0  0
  -29.7590  -20.5420   19.3710 C   0  0  0  0  0  2  0  0  0  0  0  0
  -31.6560  -18.8540   22.2760 C   0  0  0  0  0  3  0  0  0  0  0  0
  -31.2560  -17.5080   22.1590 C   0  0  0  0  0  3  0  0  0  0  0  0
  -31.1510  -19.8300   21.3940 C   0  0  0  0  0  3  0  0  0  0  0  0
  -29.8410  -18.1080   20.2720 C   0  0  0  0  0  3  0  0  0  0  0  0
  -30.3510  -17.1100   21.1550 C   0  0  0  0  0  0  0  0  0  0  0  0
  -30.2330  -19.4760   20.3840 C   0  0  0  0  0  0  0  0  0  0  0  0
  -29.8160  -15.6590   21.1630 C   0  0  0  0  0  2  0  0  0  0  0  0
  -30.5810  -14.5410   20.3810 C   0  0  0  0  0  0  0  0  0  0  0  0
  -30.3370  -12.3910   19.1530 C   0  0  0  0  0  2  0  0  0  0  0  0
  -29.3550  -12.5850   17.9780 C   0  0  0  0  0  2  0  0  0  0  0  0
  -27.8900  -12.4210   18.4360 C   0  0  0  0  0  2  0  0  0  0  0  0
  -27.5720  -13.2370   19.7140 C   0  0  0  0  0  3  0  0  0  0  0  0
  -28.6510  -12.9870   20.7920 C   0  0  0  0  0  2  0  0  0  0  0  0
  -29.9590  -13.3370   20.2140 N   0  0  0  0  0  0  0  0  0  0  0  0
  -31.6790  -14.7800   19.8660 O   0  0  0  0  0  0  0  0  0  0  0  0
  -25.1800  -13.8410   20.4520 C   0  0  0  0  0  0  0  0  0  0  0  0
  -24.1200  -13.0660   20.8410 C   0  0  0  0  0  0  0  0  0  0  0  0
  -24.5880  -11.7170   20.8080 C   0  0  0  0  0  0  0  0  0  0  0  0
  -26.2250  -12.9630   20.2120 N   0  0  0  0  0  0  0  0  0  0  0  0
  -25.8730  -11.6810   20.4810 N   0  0  0  0  0  0  0  0  0  0  0  0
  -23.8700  -10.4520   21.0130 C   0  0  0  0  0  0  0  0  0  0  0  0
  -24.3260   -9.4870   21.9380 C   0  0  0  0  0  3  0  0  0  0  0  0
  -23.6100   -8.2860   22.1310 C   0  0  0  0  0  3  0  0  0  0  0  0
  -22.4240   -8.0420   21.3990 C   0  0  0  0  0  0  0  0  0  0  0  0
  -21.9870   -8.9950   20.4630 C   0  0  0  0  0  3  0  0  0  0  0  0
  -22.7030  -10.1890   20.2680 C   0  0  0  0  0  3  0  0  0  0  0  0
  -21.6760   -6.8940   21.5030 O   0  0  0  0  0  0  0  0  0  0  0  0
  -21.6640   -6.1450   22.6510 C   0  0  0  0  0  0  0  0  0  0  0  0
  -21.2690   -6.6910   23.8930 C   0  0  0  0  0  3  0  0  0  0  0  0
  -21.2040   -5.8670   25.0350 C   0  0  0  0  0  3  0  0  0  0  0  0
  -21.5230   -4.5000   24.9380 C   0  0  0  0  0  0  0  0  0  0  0  0
  -21.9110   -3.9530   23.7020 C   0  0  0  0  0  3  0  0  0  0  0  0
  -21.9790   -4.7740   22.5610 C   0  0  0  0  0  0  0  0  0  0  0  0
  -22.3320   -4.2380   21.3680 F   0  0  0  0  0  0  0  0  0  0  0  0
  -21.4520   -3.7060   26.0320 F   0  0  0  0  0  0  0  0  0  0  0  0
  -22.7240  -13.5380   21.1320 C   0  0  0  0  0  0  0  0  0  0  0  0
  -22.0150  -12.8410   22.0120 N   0  0  0  0  0  0  0  0  0  0  0  0
  -22.2730  -14.5590   20.6140 O   0  0  0  0  0  0  0  0  0  0  0  0
  -22.3950  -12.0150   22.4500 H   0  0  0  0  0  0  0  0  0  0  0  0
  -21.0800  -13.1370   22.2520 H   0  0  0  0  0  0  0  0  0  0  0  0
  -25.3370  -15.2130   20.2660 N   0  0  0  0  0  0  0  0  0  0  0  0
  -24.5720  -15.8660   20.3880 H   0  0  0  0  0  0  0  0  0  0  0  0
  -26.1810  -15.6530   19.9210 H   0  0  0  0  0  0  0  0  0  0  0  0
  -28.3730  -25.3220   20.6210 C   0  0  0  0  0  2  0  0  0  0  0  0
  -28.4050  -26.6830   20.1180 O   0  0  0  0  0  0  0  0  0  0  0  0
  -24.5820  -31.8790   23.2300 C   0  0  0  0  0  0  0  0  0  0  0  0
  -27.2290  -27.4170   20.1530 C   0  0  0  0  0  0  0  0  0  0  0  0
  -23.3740  -30.4790   21.5860 C   0  0  0  0  0  3  0  0  0  0  0  0
  -24.8290  -28.9350   20.1620 C   0  0  0  0  0  0  0  0  0  0  0  0
  -25.9020  -30.8330   21.3870 C   0  0  0  0  0  2  0  0  0  0  0  0
  -25.9900  -29.4590   20.7460 C   0  0  0  0  0  0  0  0  0  0  0  0
  -27.1940  -28.7110   20.7300 C   0  0  0  0  0  3  0  0  0  0  0  0
  -26.0500  -26.9110   19.5650 C   0  0  0  0  0  3  0  0  0  0  0  0
  -24.8560  -27.6600   19.5670 C   0  0  0  0  0  3  0  0  0  0  0  0
  -23.5850  -29.7940   20.2080 C   0  0  0  0  0  2  0  0  0  0  0  0
  -24.6370  -31.0810   22.1250 N   0  0  0  0  0  0  0  0  0  0  0  0
  -23.5010  -32.1500   23.7750 O   0  0  0  0  0  0  0  0  0  0  0  0
  -22.7220  -29.4580   22.5480 C   0  0  0  0  0  0  0  0  0  0  0  0
  -21.3980  -29.2720   22.4210 N   0  0  0  0  0  0  0  0  0  0  0  0
  -23.4050  -28.8360   23.3660 O   0  0  0  0  0  0  0  0  0  0  0  0
  -20.9050  -29.8250   21.7330 H   0  0  0  0  0  0  0  0  0  0  0  0
  -18.0280  -28.0610   22.9100 C   0  0  0  0  0  0  0  0  0  0  0  0
  -20.5830  -28.3300   23.1880 C   0  0  0  0  0  3  0  0  0  0  0  0
  -20.6950  -26.8990   22.6140 C   0  0  0  0  0  2  0  0  0  0  0  0
  -19.6000  -26.5730   21.5950 C   0  0  0  0  0  2  0  0  0  0  0  0
  -18.2140  -26.7110   22.2350 C   0  0  0  0  0  2  0  0  0  0  0  0
  -19.1420  -28.8280   23.3420 C   0  0  0  0  0  0  0  0  0  0  0  0
  -18.9170  -30.0920   23.9300 C   0  0  0  0  0  3  0  0  0  0  0  0
  -17.6100  -30.5890   24.0900 C   0  0  0  0  0  3  0  0  0  0  0  0
  -16.5100  -29.8200   23.6730 C   0  0  0  0  0  3  0  0  0  0  0  0
  -16.7200  -28.5570   23.0900 C   0  0  0  0  0  3  0  0  0  0  0  0
  -25.8680  -32.5100   23.8500 C   0  0  0  0  0  3  0  0  0  0  0  0
  -26.3850  -31.7380   25.1260 C   0  0  1  0  0  0  0  0  0  0  0  0
  -25.2930  -31.5070   26.1940 C   0  0  0  0  0  1  0  0  0  0  0  0
  -26.9630  -30.3600   24.7310 C   0  0  0  0  0  1  0  0  0  0  0  0
  -27.5390  -32.5310   25.7840 C   0  0  0  0  0  1  0  0  0  0  0  0
  -25.5630  -33.9090   24.1770 N   0  0  0  0  0  0  0  0  0  0  0  0
  -25.9040  -34.9590   23.4190 C   0  0  0  0  0  0  0  0  0  0  0  0
  -26.5760  -34.8540   22.3900 O   0  0  0  0  0  0  0  0  0  0  0  0
  -24.9670  -34.0660   24.9780 H   0  0  0  0  0  0  0  0  0  0  0  0
  -24.1820  -36.7530   23.0470 C   0  0  0  0  0  1  0  0  0  0  0  0
  -25.4160  -36.3490   23.8710 C   0  0  0  0  0  3  0  0  0  0  0  0
  -27.5500  -37.2210   24.7130 C   0  0  0  0  0  1  0  0  0  0  0  0
  -26.4510  -37.4010   23.7690 N   0  0  0  0  0  0  0  0  0  0  0  0
  -26.0450  -38.3190   23.9280 H   0  0  0  0  0  0  0  0  0  0  0  0
  1  3  1  0
  3  8  1  0
  3  2  1  0
  4  2  1  0
  4 52  1  0
  5  1  1  0
  5  4  1  0
  6  1  2  0
  7  5  1  0
  8 14  1  0
 10  9  1  0
 11  9  2  0
 12 14  2  0
 12 13  1  0
 13 15  1  0
 13 10  2  0
 14 11  1  0
 16 15  1  0
 17 22  1  0
 18 19  1  0
 18 17  1  0
 20 19  1  0
 20 27  1  0
 20 21  1  0
 22 16  1  0
 22 21  1  0
 23 16  2  0
 24 25  2  0
 25 44  1  0
 26 25  1  0
 26 29  1  0
 27 24  1  0
 27 28  1  0
 28 26  2  0
 29 30  1  0
 30 31  2  0
 32 35  1  0
 32 31  1  0
 33 32  2  0
 34 33  1  0
 34 29  2  0
 35 36  1  0
 36 37  1  0
 37 38  2  0
 39 38  1  0
 39 43  1  0
 40 39  2  0
 41 36  2  0
 41 40  1  0
 42 41  1  0
 44 45  1  0
 45 48  1  0
 45 47  1  0
 46 44  2  0
 49 50  1  0
 49 24  1  0
 51 49  1  0
 53 55  1  0
 53 52  1  0
 54 65  2  0
 55 60  1  0
 56 64  1  0
 56 66  1  0
 57 63  1  0
 57 59  1  0
 58 64  1  0
 59 58  1  0
 60 59  2  0
 61 62  1  0
 61 55  2  0
 62 57  2  0
 63 56  1  0
 64 54  1  0
 66 68  2  0
 67 66  1  0
 69 67  1  0
 70 79  2  0
 70 75  1  0
 71 67  1  0
 71 75  1  0
 72 71  1  0
 73 74  1  0
 73 72  1  0
 74 70  1  0
 75 76  2  0
 76 77  1  0
 78 77  2  0
 79 78  1  0
 80 54  1  0
 80 85  1  0
 80 81  1  0
 81 84  1  1
 81 82  1  0
 83 81  1  0
 85 88  1  0
 86 90  1  0
 86 85  1  0
 87 86  2  0
 90 89  1  0
 92 90  1  0
 92 93  1  0
 92 91  1  0
M  ISO  4  15 100  16 100  52 101  53 101
M  END
>  <TORSDO>  (32) 
F 20

>  <SCORE>  (32) 
-13.931

>  <name>  (32) 
31

>  <ligand_id>  (32) 
31

>  <original_smiles>  (32) 
[H]c1c([H])c([H])c2c(c1[H])C([H])([H])C([H])([H])C([H])([H])C2([H])N([H])C(=O)C1([H])N(C(=O)C([H])(N([H])C(=O)C([H])(N([H])C([H])([H])[H])C([H])([H])[H])C(C([H])([H])[H])(C([H])([H])[H])C([H])([H])[H])C([H])([H])c2c([H])c(OC([H])([H])C3([H])N([H])C(=O)C([H])(C([H])([H])c4c([H])c([H])c([H])c(C([H])([H])C(=O)N5C([H])([H])C([H])([H])C([H])([H])C([H])(n6nc(-c7c([H])c([H])c(Oc8c([H])c([H])c(F)c([H])c8F)c([H])c7[H])c(C(=O)N([H])[H])c6N([H])[H])C5([H])[H])c4[H])C3([H])[H])c([H])c([H])c2C1([H])[H]

>  <smiles>  (32) 
[H]c1c([H])c([H])c2c(c1[H])C([H])([H])C([H])([H])C([H])([H])C2([H])N([H])C(=O)C1([H])N(C(=O)C([H])(N([H])C(=O)C([H])(N([H])C([H])([H])[H])C([H])([H])[H])C(C([H])([H])[H])(C([H])([H])[H])C([H])([H])[H])C([H])([H])c2c([H])c(OC([H])([H])C3([H])N([H])C(=O)C([H])(C([H])([H])c4c([H])c([H])c([H])c(C([H])([H])C(=O)N5C([H])([H])C([H])([H])C([H])([H])C([H])(n6nc(-c7c([H])c([H])c(Oc8c([H])c([H])c(F)c([H])c8F)c([H])c7[H])c(C(=O)N([H])[H])c6N([H])[H])C5([H])[H])c4[H])C3([H])[H])c([H])c([H])c2C1([H])[H]

$$$$
32:0:0
     RDKit          3D

 97101  0  0  1  0  0  0  0  0999 V2000
  -22.6630  -26.1000   19.0770 C   0  0  0  0  0  2  0  0  0  0  0  0
  -24.3150  -26.1910   18.9900 C   0  0  0  0  0  3  0  0  0  0  0  0
  -25.4420  -26.3790   20.2340 C   0  0  0  0  0  2  0  0  0  0  0  0
  -26.9800  -26.7160   20.0840 O   0  0  0  0  0  0  0  0  0  0  0  0
  -24.4880  -32.1240   23.1530 C   0  0  0  0  0  0  0  0  0  0  0  0
  -27.1400  -28.0040   19.6930 C   0  0  0  0  0  0  0  0  0  0  0  0
  -23.4170  -30.8900   21.3410 C   0  0  0  0  0  3  0  0  0  0  0  0
  -24.9930  -29.7340   19.6990 C   0  0  0  0  0  0  0  0  0  0  0  0
  -25.9550  -31.2160   21.3900 C   0  0  0  0  0  2  0  0  0  0  0  0
  -26.0500  -29.9610   20.5740 C   0  0  0  0  0  0  0  0  0  0  0  0
  -27.1430  -29.0590   20.6340 C   0  0  0  0  0  3  0  0  0  0  0  0
  -26.3870  -28.1290   18.5420 C   0  0  0  0  0  3  0  0  0  0  0  0
  -25.2230  -28.9100   18.6140 C   0  0  0  0  0  3  0  0  0  0  0  0
  -23.7290  -30.5350   19.8650 C   0  0  0  0  0  2  0  0  0  0  0  0
  -24.6270  -31.4430   22.0000 N   0  0  0  0  0  0  0  0  0  0  0  0
  -23.3760  -32.3370   23.6490 O   0  0  0  0  0  0  0  0  0  0  0  0
  -22.9100  -29.7090   22.1950 C   0  0  0  0  0  0  0  0  0  0  0  0
  -21.6480  -29.7000   22.5520 N   0  0  0  0  0  0  0  0  0  0  0  0
  -23.6530  -28.8120   22.5720 O   0  0  0  0  0  0  0  0  0  0  0  0
  -21.0380  -30.4710   22.3270 H   0  0  0  0  0  0  0  0  0  0  0  0
  -18.0170  -28.5460   22.9630 C   0  0  0  0  0  0  0  0  0  0  0  0
  -21.0240  -28.5020   23.1120 C   0  0  0  0  0  2  0  0  0  0  0  0
  -21.3060  -26.9310   21.9100 C   0  0  0  0  0  2  0  0  0  0  0  0
  -19.3900  -26.1960   21.0180 C   0  0  0  0  0 15  0  0  0  0  0  0
  -17.7970  -27.1530   21.8020 C   0  0  0  0  0  1  0  0  0  0  0  0
  -19.3750  -29.0850   23.5270 C   0  0  0  0  0  0  0  0  0  0  0  0
  -19.3200  -30.3050   24.2760 C   0  0  0  0  0  3  0  0  0  0  0  0
  -18.1280  -30.9840   24.5980 C   0  0  0  0  0  3  0  0  0  0  0  0
  -16.9050  -30.4640   24.1600 C   0  0  0  0  0  3  0  0  0  0  0  0
  -16.8640  -29.2930   23.3640 C   0  0  0  0  0  3  0  0  0  0  0  0
  -25.7460  -32.6900   23.8720 C   0  0  0  0  0  3  0  0  0  0  0  0
  -26.1310  -31.8880   25.1710 C   0  0  1  0  0  0  0  0  0  0  0  0
  -24.9420  -31.6810   26.1350 C   0  0  0  0  0  1  0  0  0  0  0  0
  -26.6910  -30.4840   24.8330 C   0  0  0  0  0  1  0  0  0  0  0  0
  -27.2520  -32.6420   25.9230 C   0  0  0  0  0  1  0  0  0  0  0  0
  -25.4550  -34.0930   24.1650 N   0  0  0  0  0  0  0  0  0  0  0  0
  -25.8590  -35.1200   23.4080 C   0  0  0  0  0  0  0  0  0  0  0  0
  -26.6020  -34.9900   22.4290 O   0  0  0  0  0  0  0  0  0  0  0  0
  -24.7970  -34.2740   24.9060 H   0  0  0  0  0  0  0  0  0  0  0  0
  -24.2050  -36.9410   22.8860 C   0  0  0  0  0  1  0  0  0  0  0  0
  -25.3570  -36.5150   23.8060 C   0  0  0  0  0  3  0  0  0  0  0  0
  -27.4210  -37.3490   24.8360 C   0  0  0  0  0  1  0  0  0  0  0  0
  -26.4190  -37.5400   23.7880 N   0  0  0  0  0  0  0  0  0  0  0  0
  -26.0180  -38.4650   23.9070 H   0  0  0  0  0  0  0  0  0  0  0  0
  -24.9000  -25.1850   17.9460 C   0  0  0  0  0  2  0  0  0  0  0  0
  -24.7520  -25.6560   16.5450 N   0  0  0  0  0  4  0  0  0  0  0  0
  -25.3400  -25.1200   15.9250 H   0  0  0  0  0  0  0  0  0  0  0  0
  -25.0250  -26.6180   16.4380 H   0  0  0  0  0  0  0  0  0  0  0  0
  -23.8040  -25.5730   16.2240 H   0  0  0  0  0  0  0  0  0  0  0  0
  -21.4830  -27.1550   19.7370 C   0  0  0  0  0  2  0  0  0  0  0  0
  -20.9650  -27.3130   21.4450 C   0  0  0  0  0  3  0  0  0  0  0  0
  -22.5400  -26.3530   23.5880 C   0  0  0  0  0  1  0  0  0  0  0  0
  -23.9300  -25.0170   23.3110 C   0  0  0  0  0  2  0  0  0  0  0  0
  -25.1560  -24.3950   22.0340 C   0  0  0  0  0  2  0  0  0  0  0  0
  -25.5790  -22.8890   21.0530 C   0  0  0  0  0  3  0  0  0  0  0  0
  -27.1170  -21.9900   20.5620 C   0  0  0  0  0  3  0  0  0  0  0  0
  -27.5680  -20.4130   19.7160 C   0  0  0  0  0  2  0  0  0  0  0  0
  -28.5810  -18.9170   20.0670 C   0  0  0  0  0  3  0  0  0  0  0  0
  -29.3480  -17.5690   19.0750 C   0  0  0  0  0  3  0  0  0  0  0  0
  -31.0710  -15.0510   19.1860 C   0  0  0  0  0  0  0  0  0  0  0  0
  -31.4130  -12.4710   18.8070 C   0  0  0  0  0  2  0  0  0  0  0  0
  -30.4290  -11.9930   17.7000 C   0  0  0  0  0  2  0  0  0  0  0  0
  -28.9850  -11.8650   18.2350 C   0  0  0  0  0  2  0  0  0  0  0  0
  -28.6250  -13.0590   19.1580 C   0  0  0  0  0  3  0  0  0  0  0  0
  -29.6920  -13.2740   20.2380 C   0  0  0  0  0  2  0  0  0  0  0  0
  -30.8450  -13.6980   19.4850 N   0  0  0  0  0  0  0  0  0  0  0  0
  -32.1720  -15.2170   18.6080 O   0  0  0  0  0  0  0  0  0  0  0  0
  -29.9830  -16.0560   19.4680 N   0  0  0  0  0  0  0  0  0  0  0  0
  -29.3200  -15.5880   20.0700 H   0  0  0  0  0  0  0  0  0  0  0  0
  -26.5410  -13.9710   20.2710 C   0  0  0  0  0  0  0  0  0  0  0  0
  -25.4100  -13.3560   20.7230 C   0  0  0  0  0  0  0  0  0  0  0  0
  -25.6050  -11.9570   20.5010 C   0  0  0  0  0  0  0  0  0  0  0  0
  -27.3320  -12.9540   19.7770 N   0  0  0  0  0  0  0  0  0  0  0  0
  -26.8010  -11.7290   19.9850 N   0  0  0  0  0  0  0  0  0  0  0  0
  -24.6950  -10.8270   20.6860 C   0  0  0  0  0  0  0  0  0  0  0  0
  -25.0600   -9.7050   21.4580 C   0  0  0  0  0  3  0  0  0  0  0  0
  -24.1560   -8.6360   21.6330 C   0  0  0  0  0  3  0  0  0  0  0  0
  -22.8710   -8.6900   21.0410 C   0  0  0  0  0  0  0  0  0  0  0  0
  -22.5230   -9.8040   20.2560 C   0  0  0  0  0  3  0  0  0  0  0  0
  -23.4260  -10.8630   20.0780 C   0  0  0  0  0  3  0  0  0  0  0  0
  -21.9380   -7.6870   21.1340 O   0  0  0  0  0  0  0  0  0  0  0  0
  -21.7190   -7.0220   22.3120 C   0  0  0  0  0  0  0  0  0  0  0  0
  -21.4680   -7.7060   23.5220 C   0  0  0  0  0  3  0  0  0  0  0  0
  -21.1750   -6.9790   24.6940 C   0  0  0  0  0  3  0  0  0  0  0  0
  -21.1280   -5.5740   24.6570 C   0  0  0  0  0  0  0  0  0  0  0  0
  -21.3740   -4.8910   23.4520 C   0  0  0  0  0  3  0  0  0  0  0  0
  -21.6660   -5.6150   22.2840 C   0  0  0  0  0  0  0  0  0  0  0  0
  -21.8810   -4.9530   21.1200 F   0  0  0  0  0  0  0  0  0  0  0  0
  -20.8420   -4.8740   25.7810 F   0  0  0  0  0  0  0  0  0  0  0  0
  -24.1810  -14.0370   21.2490 C   0  0  0  0  0  0  0  0  0  0  0  0
  -23.4610  -13.3940   22.1620 N   0  0  0  0  0  0  0  0  0  0  0  0
  -23.8770  -15.1690   20.8830 O   0  0  0  0  0  0  0  0  0  0  0  0
  -23.7200  -12.4690   22.4780 H   0  0  0  0  0  0  0  0  0  0  0  0
  -22.6420  -13.8320   22.5560 H   0  0  0  0  0  0  0  0  0  0  0  0
  -26.9580  -15.2980   20.2260 N   0  0  0  0  0  0  0  0  0  0  0  0
  -26.3830  -16.0440   20.5980 H   0  0  0  0  0  0  0  0  0  0  0  0
  -27.8570  -15.6170   19.8920 H   0  0  0  0  0  0  0  0  0  0  0  0
  1 50  1  0
  2 45  1  0
  2  1  1  0
  2  3  1  0
  4  3  1  0
  5 16  2  0
  6  4  1  0
  6 11  1  0
  7 15  1  0
  7 17  1  0
  8 14  1  0
  8 10  1  0
  9 15  1  0
 10 11  2  0
 10  9  1  0
 12 13  1  0
 12  6  2  0
 13  8  2  0
 14  7  1  0
 15  5  1  0
 17 18  1  0
 17 19  2  0
 18 22  1  0
 20 18  1  0
 21 30  2  0
 21 26  1  0
 22 26  1  0
 25 21  1  0
 26 27  2  0
 27 28  1  0
 29 28  2  0
 30 29  1  0
 31  5  1  0
 31 36  1  0
 31 32  1  0
 32 35  1  1
 32 33  1  0
 34 32  1  0
 36 39  1  0
 37 41  1  0
 37 36  1  0
 38 37  2  0
 41 40  1  0
 43 41  1  0
 43 44  1  0
 43 42  1  0
 46 45  1  0
 47 46  1  0
 48 46  1  0
 49 46  1  0
 50 51  1  0
 51 23  2  0
 53 52  1  0
 54 53  1  0
 55 54  1  0
 56 55  2  0
 57 58  1  0
 57 56  1  0
 59 68  1  0
 59 58  2  0
 60 68  1  0
 60 66  1  0
 61 66  1  0
 62 63  1  0
 62 61  1  0
 64 63  1  0
 64 73  1  0
 64 65  1  0
 66 65  1  0
 67 60  2  0
 68 69  1  0
 70 71  2  0
 71 90  1  0
 72 75  1  0
 72 71  1  0
 73 74  1  0
 73 70  1  0
 74 72  2  0
 75 76  1  0
 76 77  2  0
 78 81  1  0
 78 77  1  0
 79 78  2  0
 80 79  1  0
 80 75  2  0
 81 82  1  0
 82 83  1  0
 83 84  2  0
 85 84  1  0
 85 89  1  0
 86 85  2  0
 87 82  2  0
 87 86  1  0
 88 87  1  0
 90 91  1  0
 91 93  1  0
 91 94  1  0
 92 90  2  0
 95 70  1  0
 95 96  1  0
 97 95  1  0
M  ISO  4   3 101   4 101  60 100  68 100
M  END
>  <TORSDO>  (33) 
F 30

>  <SCORE>  (33) 
-12.478

>  <name>  (33) 
32

>  <ligand_id>  (33) 
32

>  <original_smiles>  (33) 
[H]c1c([H])c([H])c2c(c1[H])C([H])([H])C([H])([H])C([H])([H])C2([H])N([H])C(=O)C1([H])N(C(=O)C([H])(N([H])C(=O)C([H])(N([H])C([H])([H])[H])C([H])([H])[H])C(C([H])([H])[H])(C([H])([H])[H])C([H])([H])[H])C([H])([H])c2c([H])c(OC([H])([H])C([H])(C([H])([H])C([H])([H])C([H])([H])C([H])([H])C([H])([H])C([H])([H])C([H])([H])C([H])([H])C([H])([H])C([H])([H])C([H])([H])N([H])C(=O)N3C([H])([H])C([H])([H])C([H])([H])C([H])(n4nc(-c5c([H])c([H])c(Oc6c([H])c([H])c(F)c([H])c6F)c([H])c5[H])c(C(=O)N([H])[H])c4N([H])[H])C3([H])[H])C([H])([H])[N+]([H])([H])[H])c([H])c([H])c2C1([H])[H]

>  <smiles>  (33) 
[H]c1c([H])c([H])c2c(c1[H])C([H])([H])C([H])([H])C([H])([H])C2([H])N([H])C(=O)C1([H])N(C(=O)C([H])(N([H])C(=O)C([H])(N([H])C([H])([H])[H])C([H])([H])[H])C(C([H])([H])[H])(C([H])([H])[H])C([H])([H])[H])C([H])([H])c2c([H])c(OC([H])([H])C([H])(C([H])([H])C([H])([H])C([H])([H])C([H])([H])C([H])([H])C([H])([H])C([H])([H])C([H])([H])C([H])([H])C([H])([H])C([H])([H])N([H])C(=O)N3C([H])([H])C([H])([H])C([H])([H])C([H])(n4nc(-c5c([H])c([H])c(Oc6c([H])c([H])c(F)c([H])c6F)c([H])c5[H])c(C(=O)N([H])[H])c4N([H])[H])C3([H])[H])C([H])([H])[N+]([H])([H])[H])c([H])c([H])c2C1([H])[H]

$$$$
33:0:0
     RDKit          3D

100107  0  0  1  0  0  0  0  0999 V2000
  -25.8780  -20.1150   13.0890 C   0  0  0  0  0  2  0  0  0  0  0  0
  -25.5230  -21.5020   13.6400 C   0  0  0  0  0  2  0  0  0  0  0  0
  -26.7900  -22.1700   14.1940 C   0  0  0  0  0  2  0  0  0  0  0  0
  -26.5920  -23.5750   14.7720 C   0  0  0  0  0  2  0  0  0  0  0  0
  -27.9300  -24.0580   15.3570 C   0  0  0  0  0  2  0  0  0  0  0  0
  -27.9000  -25.4520   15.9970 C   0  0  0  0  0  2  0  0  0  0  0  0
  -29.2810  -25.8440   16.5760 C   0  0  0  0  0  2  0  0  0  0  0  0
  -30.4420  -27.5550   18.1010 C   0  0  0  0  0  1  0  0  0  0  0  0
  -29.1560  -26.7620   17.8060 C   0  0  0  0  0  3  0  0  0  0  0  0
  -28.7640  -25.9320   19.0480 C   0  0  0  0  0  2  0  0  0  0  0  0
  -28.4340  -26.7930   20.1280 O   0  0  0  0  0  0  0  0  0  0  0  0
  -24.6070  -31.8720   23.2170 C   0  0  0  0  0  0  0  0  0  0  0  0
  -27.2400  -27.4750   20.0930 C   0  0  0  0  0  0  0  0  0  0  0  0
  -23.3940  -30.4940   21.5580 C   0  0  0  0  0  3  0  0  0  0  0  0
  -24.8420  -28.9670   20.1180 C   0  0  0  0  0  0  0  0  0  0  0  0
  -25.9180  -30.8490   21.3660 C   0  0  0  0  0  2  0  0  0  0  0  0
  -25.9960  -29.4840   20.7170 C   0  0  0  0  0  0  0  0  0  0  0  0
  -27.1910  -28.7380   20.7160 C   0  0  0  0  0  3  0  0  0  0  0  0
  -26.0660  -26.9600   19.4910 C   0  0  0  0  0  3  0  0  0  0  0  0
  -24.8680  -27.7000   19.5090 C   0  0  0  0  0  3  0  0  0  0  0  0
  -23.6030  -29.8290   20.1710 C   0  0  0  0  0  2  0  0  0  0  0  0
  -24.6580  -31.0860   22.1070 N   0  0  0  0  0  0  0  0  0  0  0  0
  -23.5280  -32.1450   23.7580 O   0  0  0  0  0  0  0  0  0  0  0  0
  -22.7380  -29.4660   22.5040 C   0  0  0  0  0  0  0  0  0  0  0  0
  -21.4120  -29.3010   22.3790 N   0  0  0  0  0  0  0  0  0  0  0  0
  -23.4180  -28.8220   23.3070 O   0  0  0  0  0  0  0  0  0  0  0  0
  -20.9270  -29.8720   21.7010 H   0  0  0  0  0  0  0  0  0  0  0  0
  -18.0250  -28.1360   22.8510 C   0  0  0  0  0  0  0  0  0  0  0  0
  -20.5840  -28.3630   23.1360 C   0  0  0  0  0  3  0  0  0  0  0  0
  -20.6740  -26.9380   22.5440 C   0  0  0  0  0  2  0  0  0  0  0  0
  -19.5720  -26.6380   21.5230 C   0  0  0  0  0  2  0  0  0  0  0  0
  -18.1900  -26.7920   22.1630 C   0  0  0  0  0  2  0  0  0  0  0  0
  -19.1500  -28.8810   23.2930 C   0  0  0  0  0  0  0  0  0  0  0  0
  -18.9430  -30.1420   23.8930 C   0  0  0  0  0  3  0  0  0  0  0  0
  -17.6440  -30.6580   24.0560 C   0  0  0  0  0  3  0  0  0  0  0  0
  -16.5320  -29.9080   23.6320 C   0  0  0  0  0  3  0  0  0  0  0  0
  -16.7240  -28.6480   23.0360 C   0  0  0  0  0  3  0  0  0  0  0  0
  -25.8970  -32.4860   23.8460 C   0  0  0  0  0  3  0  0  0  0  0  0
  -25.5840  -33.8660   24.2390 N   0  0  0  0  0  0  0  0  0  0  0  0
  -25.9010  -34.9510   23.5180 C   0  0  0  0  0  0  0  0  0  0  0  0
  -26.5580  -34.8940   22.4750 O   0  0  0  0  0  0  0  0  0  0  0  0
  -24.9980  -33.9840   25.0530 H   0  0  0  0  0  0  0  0  0  0  0  0
  -24.1480  -36.7330   23.2650 C   0  0  0  0  0  1  0  0  0  0  0  0
  -25.4100  -36.3150   24.0380 C   0  0  0  0  0  3  0  0  0  0  0  0
  -27.5580  -37.1810   24.8470 C   0  0  0  0  0  1  0  0  0  0  0  0
  -26.4290  -37.3820   23.9430 N   0  0  0  0  0  0  0  0  0  0  0  0
  -26.0210  -38.2910   24.1420 H   0  0  0  0  0  0  0  0  0  0  0  0
  -26.4440  -31.6610   25.0750 C   0  0  1  0  0  0  0  0  0  0  0  0
  -25.3740  -31.3660   26.1530 C   0  0  0  0  0  1  0  0  0  0  0  0
  -27.0250  -30.3080   24.6040 C   0  0  0  0  0  1  0  0  0  0  0  0
  -27.6060  -32.4300   25.7450 C   0  0  0  0  0  1  0  0  0  0  0  0
  -24.7080  -19.1120   12.9980 C   0  0  0  0  0  2  0  0  0  0  0  0
  -25.2870  -17.7050   13.2070 C   0  0  0  0  0  2  0  0  0  0  0  0
  -24.3430  -16.5490   13.5320 C   0  0  0  0  0  2  0  0  0  0  0  0
  -25.1500  -15.2570   13.7810 C   0  0  0  0  0  2  0  0  0  0  0  0
  -26.0260  -15.2580   15.0610 C   0  0  0  0  0  2  0  0  0  0  0  0
  -27.5050  -15.7030   14.9060 C   0  0  0  0  0  2  0  0  0  0  0  0
  -28.4090  -15.3540   16.1110 C   0  0  0  0  0  2  0  0  0  0  0  0
  -28.4770  -16.3010   17.3170 C   0  0  0  0  0  0  0  0  0  0  0  0
  -29.4230  -15.9580   18.2030 N   0  0  0  0  0  0  0  0  0  0  0  0
  -27.7650  -17.2990   17.4180 O   0  0  0  0  0  0  0  0  0  0  0  0
  -29.9280  -15.1080   17.9920 H   0  0  0  0  0  0  0  0  0  0  0  0
  -29.9200  -16.6800   19.3710 C   0  0  0  0  0  2  0  0  0  0  0  0
  -29.9320  -15.8070   20.6490 C   0  0  0  0  0  2  0  0  0  0  0  0
  -30.7050  -14.4800   20.4670 C   0  0  0  0  0  0  0  0  0  0  0  0
  -30.4120  -12.3250   19.3380 C   0  0  0  0  0  2  0  0  0  0  0  0
  -29.4320  -12.5090   18.1610 C   0  0  0  0  0  2  0  0  0  0  0  0
  -27.9560  -12.4020   18.6040 C   0  0  0  0  0  2  0  0  0  0  0  0
  -27.6350  -13.2500   19.8560 C   0  0  0  0  0  3  0  0  0  0  0  0
  -28.7010  -13.0790   20.9630 C   0  0  0  0  0  2  0  0  0  0  0  0
  -30.0350  -13.3030   20.3830 N   0  0  0  0  0  0  0  0  0  0  0  0
  -31.8940  -14.5880   20.1600 O   0  0  0  0  0  0  0  0  0  0  0  0
  -25.2450  -13.8240   20.5800 C   0  0  0  0  0  0  0  0  0  0  0  0
  -24.1830  -13.0500   20.9370 C   0  0  0  0  0  0  0  0  0  0  0  0
  -24.6460  -11.6970   20.8920 C   0  0  0  0  0  0  0  0  0  0  0  0
  -26.2940  -12.9550   20.3460 N   0  0  0  0  0  0  0  0  0  0  0  0
  -25.9420  -11.6670   20.6070 N   0  0  0  0  0  0  0  0  0  0  0  0
  -23.9170  -10.4310   21.0420 C   0  0  0  0  0  0  0  0  0  0  0  0
  -24.3730   -9.4160   21.9130 C   0  0  0  0  0  3  0  0  0  0  0  0
  -23.6290   -8.2260   22.0810 C   0  0  0  0  0  3  0  0  0  0  0  0
  -22.4240   -8.0340   21.3580 C   0  0  0  0  0  0  0  0  0  0  0  0
  -21.9940   -9.0350   20.4590 C   0  0  0  0  0  3  0  0  0  0  0  0
  -22.7350  -10.2200   20.3050 C   0  0  0  0  0  3  0  0  0  0  0  0
  -21.6530   -6.8980   21.4340 O   0  0  0  0  0  0  0  0  0  0  0  0
  -21.6760   -6.0870   22.5430 C   0  0  0  0  0  0  0  0  0  0  0  0
  -21.3910   -6.5730   23.8390 C   0  0  0  0  0  3  0  0  0  0  0  0
  -21.3610   -5.6880   24.9360 C   0  0  0  0  0  3  0  0  0  0  0  0
  -21.6040   -4.3140   24.7360 C   0  0  0  0  0  0  0  0  0  0  0  0
  -21.8760   -3.8280   23.4440 C   0  0  0  0  0  3  0  0  0  0  0  0
  -21.9110   -4.7090   22.3530 C   0  0  0  0  0  0  0  0  0  0  0  0
  -22.1600   -4.2340   21.1090 F   0  0  0  0  0  0  0  0  0  0  0  0
  -21.5660   -3.4540   25.7810 F   0  0  0  0  0  0  0  0  0  0  0  0
  -22.7810  -13.5270   21.1980 C   0  0  0  0  0  0  0  0  0  0  0  0
  -22.0380  -12.8380   22.0500 N   0  0  0  0  0  0  0  0  0  0  0  0
  -22.3590  -14.5560   20.6690 O   0  0  0  0  0  0  0  0  0  0  0  0
  -22.3860  -11.9980   22.4820 H   0  0  0  0  0  0  0  0  0  0  0  0
  -21.1020  -13.1530   22.2790 H   0  0  0  0  0  0  0  0  0  0  0  0
  -25.4130  -15.1990   20.4040 N   0  0  0  0  0  0  0  0  0  0  0  0
  -24.6410  -15.8410   20.5280 H   0  0  0  0  0  0  0  0  0  0  0  0
  -26.2570  -15.6350   20.0520 H   0  0  0  0  0  0  0  0  0  0  0  0
  1  2  1  0
  2  3  1  0
  3  4  1  0
  4  5  1  0
  5  6  1  0
  6  7  1  0
  7  9  1  0
  9  8  1  0
  9 10  1  0
 10 11  1  0
 12 23  2  0
 13 11  1  0
 13 18  1  0
 14 22  1  0
 14 24  1  0
 15 21  1  0
 15 17  1  0
 16 22  1  0
 17 16  1  0
 18 17  2  0
 19 20  1  0
 19 13  2  0
 20 15  2  0
 21 14  1  0
 22 12  1  0
 24 26  2  0
 25 24  1  0
 27 25  1  0
 28 37  2  0
 28 33  1  0
 29 25  1  0
 29 33  1  0
 30 29  1  0
 31 32  1  0
 31 30  1  0
 32 28  1  0
 33 34  2  0
 34 35  1  0
 36 35  2  0
 37 36  1  0
 38 12  1  0
 38 39  1  0
 38 48  1  0
 39 42  1  0
 40 44  1  0
 40 39  1  0
 41 40  2  0
 44 43  1  0
 46 44  1  0
 46 47  1  0
 46 45  1  0
 48 51  1  1
 48 49  1  0
 50 48  1  0
 52  1  1  0
 52 53  1  0
 53 54  1  0
 54 55  1  0
 55 56  1  0
 57 56  1  0
 57 58  1  0
 58 59  1  0
 59 61  2  0
 59 60  1  0
 60 63  1  0
 62 60  1  0
 63 64  1  0
 65 64  1  0
 66 71  1  0
 67 68  1  0
 67 66  1  0
 69 68  1  0
 69 76  1  0
 69 70  1  0
 71 65  1  0
 71 70  1  0
 72 65  2  0
 73 74  2  0
 74 93  1  0
 75 74  1  0
 75 78  1  0
 76 73  1  0
 76 77  1  0
 77 75  2  0
 78 79  1  0
 79 80  2  0
 81 84  1  0
 81 80  1  0
 82 81  2  0
 83 82  1  0
 83 78  2  0
 84 85  1  0
 85 86  1  0
 86 87  2  0
 88 87  1  0
 88 92  1  0
 89 88  2  0
 90 85  2  0
 90 89  1  0
 91 90  1  0
 93 94  1  0
 94 97  1  0
 94 96  1  0
 95 93  2  0
 98 99  1  0
 98 73  1  0
100 98  1  0
M  ISO  4  10 101  11 101  64 100  65 100
M  END
>  <TORSDO>  (34) 
F 34

>  <SCORE>  (34) 
56.782

>  <name>  (34) 
33

>  <ligand_id>  (34) 
33

>  <original_smiles>  (34) 
[H]c1c([H])c([H])c2c(c1[H])C([H])([H])C([H])([H])C([H])([H])C2([H])N([H])C(=O)C1([H])N(C(=O)C([H])(N([H])C(=O)C([H])(N([H])C([H])([H])[H])C([H])([H])[H])C(C([H])([H])[H])(C([H])([H])[H])C([H])([H])[H])C([H])([H])c2c([H])c(OC([H])([H])C([H])(C([H])([H])[H])C([H])([H])C([H])([H])C([H])([H])C([H])([H])C([H])([H])C([H])([H])C([H])([H])C([H])([H])C([H])([H])C([H])([H])C([H])([H])C([H])([H])C([H])([H])C([H])([H])C(=O)N([H])C([H])([H])C([H])([H])C(=O)N3C([H])([H])C([H])([H])C([H])([H])C([H])(n4nc(-c5c([H])c([H])c(Oc6c([H])c([H])c(F)c([H])c6F)c([H])c5[H])c(C(=O)N([H])[H])c4N([H])[H])C3([H])[H])c([H])c([H])c2C1([H])[H]

>  <smiles>  (34) 
[H]c1c([H])c([H])c2c(c1[H])C([H])([H])C([H])([H])C([H])([H])C2([H])N([H])C(=O)C1([H])N(C(=O)C([H])(N([H])C(=O)C([H])(N([H])C([H])([H])[H])C([H])([H])[H])C(C([H])([H])[H])(C([H])([H])[H])C([H])([H])[H])C([H])([H])c2c([H])c(OC([H])([H])C([H])(C([H])([H])[H])C([H])([H])C([H])([H])C([H])([H])C([H])([H])C([H])([H])C([H])([H])C([H])([H])C([H])([H])C([H])([H])C([H])([H])C([H])([H])C([H])([H])C([H])([H])C([H])([H])C(=O)N([H])C([H])([H])C([H])([H])C(=O)N3C([H])([H])C([H])([H])C([H])([H])C([H])(n4nc(-c5c([H])c([H])c(Oc6c([H])c([H])c(F)c([H])c6F)c([H])c5[H])c(C(=O)N([H])[H])c4N([H])[H])C3([H])[H])c([H])c([H])c2C1([H])[H]

$$$$
34:0:0
     RDKit          3D

102110  0  0  1  0  0  0  0  0999 V2000
  -22.3190  -23.6400   21.0800 C   0  0  0  0  0  1  0  0  0  0  0  0
  -23.8550  -23.4470   21.1280 C   0  0  0  0  0  3  0  0  0  0  0  0
  -25.3580  -26.0160   18.7200 C   0  0  0  0  0  3  0  0  0  0  0  0
  -24.6900  -25.4260   19.8060 C   0  0  0  0  0  3  0  0  0  0  0  0
  -25.5680  -23.8360   17.6770 C   0  0  0  0  0  3  0  0  0  0  0  0
  -25.8180  -25.2220   17.6470 C   0  0  0  0  0  0  0  0  0  0  0  0
  -24.4830  -24.0310   19.8610 C   0  0  0  0  0  0  0  0  0  0  0  0
  -24.9100  -23.2290   18.7690 C   0  0  0  0  0  0  0  0  0  0  0  0
  -24.7340  -21.7190   18.7540 C   0  0  0  0  0  1  0  0  0  0  0  0
  -26.6510  -25.7760   16.4920 C   0  0  0  0  0  2  0  0  0  0  0  0
  -27.4820  -27.0560   16.7230 C   0  0  0  0  0  2  0  0  0  0  0  0
  -26.7600  -28.2460   16.4370 O   0  0  0  0  0  0  0  0  0  0  0  0
  -25.6530  -30.2350   23.1760 C   0  0  0  0  0  0  0  0  0  0  0  0
  -25.8800  -28.6950   17.3850 C   0  0  0  0  0  0  0  0  0  0  0  0
  -23.6450  -30.1510   21.7330 C   0  0  0  0  0  3  0  0  0  0  0  0
  -24.0890  -29.8280   19.2440 C   0  0  0  0  0  0  0  0  0  0  0  0
  -25.9560  -30.5740   20.7300 C   0  0  0  0  0  2  0  0  0  0  0  0
  -25.4690  -29.8860   19.4760 C   0  0  0  0  0  0  0  0  0  0  0  0
  -26.3690  -29.3210   18.5490 C   0  0  0  0  0  3  0  0  0  0  0  0
  -24.4910  -28.6450   17.1560 C   0  0  0  0  0  3  0  0  0  0  0  0
  -23.5920  -29.2000   18.0860 C   0  0  0  0  0  3  0  0  0  0  0  0
  -23.1950  -30.4670   20.2820 C   0  0  0  0  0  2  0  0  0  0  0  0
  -25.1250  -30.2940   21.9210 N   0  0  0  0  0  0  0  0  0  0  0  0
  -24.9260  -30.1080   24.1720 O   0  0  0  0  0  0  0  0  0  0  0  0
  -23.1150  -28.7500   22.1150 C   0  0  0  0  0  0  0  0  0  0  0  0
  -21.8010  -28.5420   21.9350 N   0  0  0  0  0  0  0  0  0  0  0  0
  -23.8780  -27.8770   22.5320 O   0  0  0  0  0  0  0  0  0  0  0  0
  -21.2400  -29.3080   21.5910 H   0  0  0  0  0  0  0  0  0  0  0  0
  -18.7910  -26.7010   21.1680 C   0  0  0  0  0  0  0  0  0  0  0  0
  -21.0900  -27.2900   22.1890 C   0  0  0  0  0  3  0  0  0  0  0  0
  -21.6590  -26.1400   21.3250 C   0  0  0  0  0  2  0  0  0  0  0  0
  -20.9110  -25.9490   20.0020 C   0  0  0  0  0  2  0  0  0  0  0  0
  -19.4280  -25.6650   20.2550 C   0  0  0  0  0  2  0  0  0  0  0  0
  -19.5730  -27.4720   22.0660 C   0  0  0  0  0  0  0  0  0  0  0  0
  -18.9360  -28.4420   22.8690 C   0  0  0  0  0  3  0  0  0  0  0  0
  -17.5460  -28.6450   22.7870 C   0  0  0  0  0  3  0  0  0  0  0  0
  -16.7730  -27.8700   21.9040 C   0  0  0  0  0  3  0  0  0  0  0  0
  -17.3960  -26.8990   21.1000 C   0  0  0  0  0  3  0  0  0  0  0  0
  -27.1900  -30.3530   23.4220 C   0  0  0  0  0  3  0  0  0  0  0  0
  -27.8750  -28.9690   23.7420 C   0  0  1  0  0  0  0  0  0  0  0  0
  -27.1670  -28.1670   24.8590 C   0  0  0  0  0  1  0  0  0  0  0  0
  -27.9220  -28.0780   22.4780 C   0  0  0  0  0  1  0  0  0  0  0  0
  -29.3420  -29.1950   24.1780 C   0  0  0  0  0  1  0  0  0  0  0  0
  -27.3910  -31.2990   24.5270 N   0  0  0  0  0  0  0  0  0  0  0  0
  -27.8090  -32.5630   24.3790 C   0  0  0  0  0  0  0  0  0  0  0  0
  -28.1380  -33.0350   23.2870 O   0  0  0  0  0  0  0  0  0  0  0  0
  -27.0890  -30.9930   25.4400 H   0  0  0  0  0  0  0  0  0  0  0  0
  -26.6640  -34.4020   25.6560 C   0  0  0  0  0  1  0  0  0  0  0  0
  -27.8680  -33.4470   25.6410 C   0  0  0  0  0  3  0  0  0  0  0  0
  -30.2930  -33.3860   26.0130 C   0  0  0  0  0  1  0  0  0  0  0  0
  -29.1230  -34.2210   25.7580 N   0  0  0  0  0  0  0  0  0  0  0  0
  -29.0530  -34.9060   26.5060 H   0  0  0  0  0  0  0  0  0  0  0  0
  -24.5000  -24.0300   22.4290 C   0  0  0  0  0  3  0  0  0  0  0  0
  -23.8110  -23.4850   23.6140 N   0  0  0  0  0  4  0  0  0  0  0  0
  -24.0320  -22.5150   23.7530 H   0  0  0  0  0  0  0  0  0  0  0  0
  -22.8160  -23.5670   23.4970 H   0  0  0  0  0  0  0  0  0  0  0  0
  -24.0700  -23.9950   24.4410 H   0  0  0  0  0  0  0  0  0  0  0  0
  -26.0380  -23.8010   22.5750 C   0  0  0  0  0  3  0  0  0  0  0  0
  -26.9430  -24.9780   22.1350 C   0  0  0  0  0  3  0  0  0  0  0  0
  -28.4300  -24.8540   22.5460 C   0  0  0  0  0  2  0  0  0  0  0  0
  -29.3050  -23.9940   21.6100 C   0  0  0  0  0  2  0  0  0  0  0  0
  -30.5630  -24.7000   21.0520 C   0  0  0  0  0  2  0  0  0  0  0  0
  -31.4680  -23.7040   20.3080 C   0  0  0  0  0  2  0  0  0  0  0  0
  -32.7450  -24.2700   19.6440 C   0  0  0  0  0  2  0  0  0  0  0  0
  -34.1960  -22.8490   18.1140 C   0  0  0  0  0  0  0  0  0  0  0  0
  -35.0270  -20.9650   16.7370 C   0  0  0  0  0  2  0  0  0  0  0  0
  -33.9190  -20.4450   15.7970 C   0  0  0  0  0  2  0  0  0  0  0  0
  -32.9980  -19.4360   16.5120 C   0  0  0  0  0  2  0  0  0  0  0  0
  -32.5070  -19.9490   17.8890 C   0  0  0  0  0  3  0  0  0  0  0  0
  -33.7080  -20.4570   18.7140 C   0  0  0  0  0  2  0  0  0  0  0  0
  -34.3930  -21.5160   17.9410 N   0  0  0  0  0  0  0  0  0  0  0  0
  -34.5600  -23.7170   17.3140 O   0  0  0  0  0  0  0  0  0  0  0  0
  -33.5520  -23.1210   19.2540 N   0  0  0  0  0  0  0  0  0  0  0  0
  -33.4270  -22.3090   19.8380 H   0  0  0  0  0  0  0  0  0  0  0  0
  -30.4890  -18.9880   19.1760 C   0  0  0  0  0  0  0  0  0  0  0  0
  -30.2310  -17.7360   19.6690 C   0  0  0  0  0  0  0  0  0  0  0  0
  -31.3780  -16.9440   19.3460 C   0  0  0  0  0  0  0  0  0  0  0  0
  -31.7510  -18.9210   18.6070 N   0  0  0  0  0  0  0  0  0  0  0  0
  -32.3020  -17.6900   18.7560 N   0  0  0  0  0  0  0  0  0  0  0  0
  -31.6240  -15.5080   19.5160 C   0  0  0  0  0  0  0  0  0  0  0  0
  -32.7910  -15.0270   20.1490 C   0  0  0  0  0  3  0  0  0  0  0  0
  -32.9980  -13.6400   20.3150 C   0  0  0  0  0  3  0  0  0  0  0  0
  -32.0300  -12.7190   19.8500 C   0  0  0  0  0  0  0  0  0  0  0  0
  -30.8820  -13.2000   19.1960 C   0  0  0  0  0  3  0  0  0  0  0  0
  -30.6820  -14.5800   19.0270 C   0  0  0  0  0  3  0  0  0  0  0  0
  -32.1620  -11.3530   19.9410 O   0  0  0  0  0  0  0  0  0  0  0  0
  -32.9490  -10.7680   20.9030 C   0  0  0  0  0  0  0  0  0  0  0  0
  -32.7150  -10.9680   22.2810 C   0  0  0  0  0  3  0  0  0  0  0  0
  -33.5040  -10.2950   23.2340 C   0  0  0  0  0  3  0  0  0  0  0  0
  -34.5180   -9.4130   22.8130 C   0  0  0  0  0  0  0  0  0  0  0  0
  -34.7470   -9.2070   21.4410 C   0  0  0  0  0  3  0  0  0  0  0  0
  -33.9620   -9.8810   20.4890 C   0  0  0  0  0  0  0  0  0  0  0  0
  -34.1730   -9.6630   19.1680 F   0  0  0  0  0  0  0  0  0  0  0  0
  -35.2710   -8.7580   23.7270 F   0  0  0  0  0  0  0  0  0  0  0  0
  -28.9540  -17.2690   20.3090 C   0  0  0  0  0  0  0  0  0  0  0  0
  -29.0470  -16.3410   21.2560 N   0  0  0  0  0  0  0  0  0  0  0  0
  -27.8690  -17.7590   20.0030 O   0  0  0  0  0  0  0  0  0  0  0  0
  -29.9390  -15.9510   21.5220 H   0  0  0  0  0  0  0  0  0  0  0  0
  -28.2120  -16.0180   21.7250 H   0  0  0  0  0  0  0  0  0  0  0  0
  -29.7510  -20.1680   19.1490 N   0  0  0  0  0  0  0  0  0  0  0  0
  -28.7990  -20.2160   19.4930 H   0  0  0  0  0  0  0  0  0  0  0  0
  -30.0490  -21.0120   18.6780 H   0  0  0  0  0  0  0  0  0  0  0  0
  2  1  1  0
  2 53  1  0
  3  4  1  0
  4  7  2  0
  5  8  2  0
  6  5  1  0
  6  3  2  0
  7  2  1  0
  8  7  1  0
  9  8  1  0
 10 11  1  0
 10  6  1  0
 12 11  1  0
 12 14  1  0
 13 24  2  0
 14 19  1  0
 15 23  1  0
 15 25  1  0
 16 18  1  0
 16 22  1  0
 17 23  1  0
 18 17  1  0
 19 18  2  0
 20 14  2  0
 20 21  1  0
 21 16  2  0
 22 15  1  0
 23 13  1  0
 25 27  2  0
 26 25  1  0
 28 26  1  0
 29 34  1  0
 30 26  1  0
 31 30  1  0
 32 33  1  0
 32 31  1  0
 33 29  1  0
 34 30  1  0
 34 35  2  0
 36 35  1  0
 37 36  2  0
 38 29  2  0
 38 37  1  0
 39 13  1  0
 39 40  1  0
 39 44  1  0
 40 43  1  1
 40 41  1  0
 42 40  1  0
 44 47  1  0
 45 44  1  0
 45 49  1  0
 46 45  2  0
 49 48  1  0
 49 51  1  0
 51 50  1  0
 51 52  1  0
 53 58  1  0
 53 54  1  0
 54 55  1  0
 54 57  1  0
 56 54  1  0
 59 60  1  0
 59 58  2  0
 61 60  1  0
 62 61  1  0
 63 62  1  0
 64 63  1  0
 65 73  1  0
 66 71  1  0
 67 68  1  0
 67 66  1  0
 69 68  1  0
 69 78  1  0
 69 70  1  0
 71 65  1  0
 71 70  1  0
 72 65  2  0
 73 64  1  0
 73 74  1  0
 75 76  2  0
 76 95  1  0
 77 80  1  0
 77 76  1  0
 78 79  1  0
 78 75  1  0
 79 77  2  0
 80 81  1  0
 81 82  2  0
 83 86  1  0
 83 82  1  0
 84 83  2  0
 85 84  1  0
 85 80  2  0
 86 87  1  0
 87 88  1  0
 88 89  2  0
 90 89  1  0
 90 94  1  0
 91 90  2  0
 92 87  2  0
 92 91  1  0
 93 92  1  0
 95 96  1  0
 96 98  1  0
 96 99  1  0
 97 95  2  0
100 75  1  0
100101  1  0
102100  1  0
M  ISO  4  11 101  12 101  65 100  73 100
M  END
>  <TORSDO>  (35) 
F 28

>  <SCORE>  (35) 
-3.577

>  <name>  (35) 
34

>  <ligand_id>  (35) 
34

>  <original_smiles>  (35) 
[H]c1c([H])c([H])c2c(c1[H])C([H])([H])C([H])([H])C([H])([H])C2([H])N([H])C(=O)C1([H])N(C(=O)C([H])(N([H])C(=O)C([H])(N([H])C([H])([H])[H])C([H])([H])[H])C(C([H])([H])[H])(C([H])([H])[H])C([H])([H])[H])C([H])([H])c2c([H])c(OC([H])([H])C([H])([H])c3c([H])c([H])c(C([H])(C([H])([H])[H])C([H])(C([H])([H])C([H])([H])C([H])([H])C([H])([H])C([H])([H])C([H])([H])C([H])([H])N([H])C(=O)N4C([H])([H])C([H])([H])C([H])([H])C([H])(n5nc(-c6c([H])c([H])c(Oc7c([H])c([H])c(F)c([H])c7F)c([H])c6[H])c(C(=O)N([H])[H])c5N([H])[H])C4([H])[H])[N+]([H])([H])[H])c(C([H])([H])[H])c3[H])c([H])c([H])c2C1([H])[H]

>  <smiles>  (35) 
[H]c1c([H])c([H])c2c(c1[H])C([H])([H])C([H])([H])C([H])([H])C2([H])N([H])C(=O)C1([H])N(C(=O)C([H])(N([H])C(=O)C([H])(N([H])C([H])([H])[H])C([H])([H])[H])C(C([H])([H])[H])(C([H])([H])[H])C([H])([H])[H])C([H])([H])c2c([H])c(OC([H])([H])C([H])([H])c3c([H])c([H])c(C([H])(C([H])([H])[H])C([H])(C([H])([H])C([H])([H])C([H])([H])C([H])([H])C([H])([H])C([H])([H])C([H])([H])N([H])C(=O)N4C([H])([H])C([H])([H])C([H])([H])C([H])(n5nc(-c6c([H])c([H])c(Oc7c([H])c([H])c(F)c([H])c7F)c([H])c6[H])c(C(=O)N([H])[H])c5N([H])[H])C4([H])[H])[N+]([H])([H])[H])c(C([H])([H])[H])c3[H])c([H])c([H])c2C1([H])[H]

$$$$
35:0:0
     RDKit          3D

101109  0  0  1  0  0  0  0  0999 V2000
  -26.9460  -19.5020   17.6640 C   0  0  0  0  0  0  0  0  0  0  0  0
  -26.2030  -20.4850   17.6640 O   0  0  0  0  0  0  0  0  0  0  0  0
  -28.9600  -19.7800   16.0060 C   0  0  0  0  0  3  0  0  0  0  0  0
  -30.3060  -20.1790   15.6710 C   0  0  0  0  0  3  0  0  0  0  0  0
  -29.4100  -20.1280   18.3170 C   0  0  0  0  0  3  0  0  0  0  0  0
  -28.4600  -19.7190   17.3390 C   0  0  0  0  0  0  0  0  0  0  0  0
  -31.2750  -20.5430   16.6570 C   0  0  0  0  0  0  0  0  0  0  0  0
  -30.7760  -20.4620   18.0060 C   0  0  0  0  0  0  0  0  0  0  0  0
  -31.7350  -20.6600   19.1870 C   0  0  0  0  0  1  0  0  0  0  0  0
  -32.8310  -20.8920   16.4070 C   0  0  0  0  0  2  0  0  0  0  0  0
  -33.5090  -21.5360   15.2210 O   0  0  0  0  0  0  0  0  0  0  0  0
  -40.0820  -24.8380   15.3680 C   0  0  0  0  0  0  0  0  0  0  0  0
  -34.3700  -22.6120   15.4770 C   0  0  0  0  0  0  0  0  0  0  0  0
  -38.2720  -25.7090   16.7950 C   0  0  0  0  0  3  0  0  0  0  0  0
  -35.9230  -24.8570   16.2890 C   0  0  0  0  0  0  0  0  0  0  0  0
  -37.7060  -24.5060   14.5960 C   0  0  0  0  0  2  0  0  0  0  0  0
  -36.3700  -24.0830   15.2150 C   0  0  0  0  0  0  0  0  0  0  0  0
  -35.5860  -22.9600   14.7800 C   0  0  0  0  0  3  0  0  0  0  0  0
  -33.9780  -23.4310   16.5470 C   0  0  0  0  0  3  0  0  0  0  0  0
  -34.7290  -24.5360   16.9470 C   0  0  0  0  0  3  0  0  0  0  0  0
  -36.7600  -26.0380   16.7190 C   0  0  0  0  0  2  0  0  0  0  0  0
  -38.7360  -24.9850   15.5700 N   0  0  0  0  0  0  0  0  0  0  0  0
  -40.9100  -25.3000   16.1660 O   0  0  0  0  0  0  0  0  0  0  0  0
  -38.5790  -24.9440   18.1080 C   0  0  0  0  0  0  0  0  0  0  0  0
  -38.7860  -25.6830   19.2130 N   0  0  0  0  0  0  0  0  0  0  0  0
  -38.6140  -23.7090   18.1230 O   0  0  0  0  0  0  0  0  0  0  0  0
  -38.7810  -26.6910   19.1190 H   0  0  0  0  0  0  0  0  0  0  0  0
  -39.5740  -26.6250   22.6180 C   0  0  0  0  0  0  0  0  0  0  0  0
  -39.0520  -25.1580   20.5530 C   0  0  0  0  0  3  0  0  0  0  0  0
  -37.7420  -24.7810   21.2820 C   0  0  0  0  0  2  0  0  0  0  0  0
  -37.1870  -25.9150   22.1480 C   0  0  0  0  0  2  0  0  0  0  0  0
  -38.2090  -26.3210   23.2160 C   0  0  0  0  0  2  0  0  0  0  0  0
  -39.9620  -26.0890   21.3600 C   0  0  0  0  0  0  0  0  0  0  0  0
  -41.2280  -26.4230   20.8350 C   0  0  0  0  0  3  0  0  0  0  0  0
  -42.0950  -27.2810   21.5360 C   0  0  0  0  0  3  0  0  0  0  0  0
  -41.7100  -27.8040   22.7830 C   0  0  0  0  0  3  0  0  0  0  0  0
  -40.4560  -27.4670   23.3250 C   0  0  0  0  0  3  0  0  0  0  0  0
  -40.6370  -24.1030   14.1100 C   0  0  0  0  0  3  0  0  0  0  0  0
  -41.7770  -24.8900   13.6110 N   0  0  0  0  0  0  0  0  0  0  0  0
  -41.7280  -25.7510   12.5830 C   0  0  0  0  0  0  0  0  0  0  0  0
  -40.7140  -25.9130   11.9010 O   0  0  0  0  0  0  0  0  0  0  0  0
  -42.6340  -24.8170   14.1370 H   0  0  0  0  0  0  0  0  0  0  0  0
  -42.8630  -27.9980   12.7650 C   0  0  0  0  0  1  0  0  0  0  0  0
  -43.0050  -26.5530   12.2610 C   0  0  0  0  0  3  0  0  0  0  0  0
  -43.7700  -25.2900   10.2920 C   0  0  0  0  0  1  0  0  0  0  0  0
  -43.3440  -26.5820   10.8220 N   0  0  0  0  0  0  0  0  0  0  0  0
  -44.0880  -27.2510   10.6480 H   0  0  0  0  0  0  0  0  0  0  0  0
  -41.0870  -22.6150   14.4010 C   0  0  1  0  0  0  0  0  0  0  0  0
  -42.0630  -22.4670   15.5900 C   0  0  0  0  0  1  0  0  0  0  0  0
  -39.8610  -21.7090   14.6880 C   0  0  0  0  0  1  0  0  0  0  0  0
  -41.8130  -22.0380   13.1650 C   0  0  0  0  0  1  0  0  0  0  0  0
  -26.2500  -18.1280   18.0590 C   0  0  0  0  0  2  0  0  0  0  0  0
  -25.8910  -17.8700   19.6010 C   0  0  0  0  0  2  0  0  0  0  0  0
  -25.7540  -16.3540   19.9720 C   0  0  0  0  0  0  0  0  0  0  0  0
  -25.5220  -15.5730   19.0520 O   0  0  0  0  0  0  0  0  0  0  0  0
  -25.9150  -15.7500   21.4180 C   0  0  0  0  0  2  0  0  0  0  0  0
  -25.7850  -14.1620   21.4980 C   0  0  0  0  0  2  0  0  0  0  0  0
  -27.0900  -13.2810   21.7650 C   0  0  0  0  0  2  0  0  0  0  0  0
  -27.3260  -12.0240   20.8050 C   0  0  0  0  0  2  0  0  0  0  0  0
  -28.8030  -11.5270   20.5000 C   0  0  0  0  0  2  0  0  0  0  0  0
  -29.2020  -11.3250   18.9570 C   0  0  0  0  0  2  0  0  0  0  0  0
  -30.5530  -11.9710   18.3440 C   0  0  0  0  0  3  0  0  0  0  0  0
  -30.4380  -13.4250   17.6860 C   0  0  0  0  0  3  0  0  0  0  0  0
  -32.6840  -14.7800   17.8530 C   0  0  0  0  0  0  0  0  0  0  0  0
  -32.3520  -14.0380   19.8070 C   0  0  0  0  0  2  0  0  0  0  0  0
  -32.1900  -12.8370   20.6270 C   0  0  0  0  0  2  0  0  0  0  0  0
  -33.3630  -11.9300   20.5250 C   0  0  0  0  0  2  0  0  0  0  0  0
  -34.6150  -12.8100   20.4440 C   0  0  0  0  0  3  0  0  0  0  0  0
  -34.6400  -13.4600   19.0160 C   0  0  0  0  0  2  0  0  0  0  0  0
  -33.2430  -13.9130   18.6830 N   0  0  0  0  0  0  0  0  0  0  0  0
  -32.6710  -16.0070   17.9870 O   0  0  0  0  0  0  0  0  0  0  0  0
  -31.6960  -14.1200   17.1490 N   0  0  0  0  0  0  0  0  0  0  0  0
  -31.5300  -14.5880   16.2730 H   0  0  0  0  0  0  0  0  0  0  0  0
  -36.7130  -12.4040   21.8430 C   0  0  0  0  0  0  0  0  0  0  0  0
  -37.5270  -11.3030   21.9860 C   0  0  0  0  0  0  0  0  0  0  0  0
  -37.0170  -10.3300   21.0870 C   0  0  0  0  0  0  0  0  0  0  0  0
  -35.7870  -12.0630   20.8660 N   0  0  0  0  0  0  0  0  0  0  0  0
  -35.9940  -10.8130   20.3890 N   0  0  0  0  0  0  0  0  0  0  0  0
  -37.4280   -8.9430   20.8650 C   0  0  0  0  0  0  0  0  0  0  0  0
  -38.2100   -8.6010   19.7370 C   0  0  0  0  0  3  0  0  0  0  0  0
  -38.5830   -7.2640   19.5210 C   0  0  0  0  0  3  0  0  0  0  0  0
  -38.2040   -6.2590   20.4420 C   0  0  0  0  0  0  0  0  0  0  0  0
  -37.4100   -6.5940   21.5440 C   0  0  0  0  0  3  0  0  0  0  0  0
  -37.0240   -7.9300   21.7620 C   0  0  0  0  0  3  0  0  0  0  0  0
  -38.5380   -4.9300   20.3150 O   0  0  0  0  0  0  0  0  0  0  0  0
  -39.8310   -4.5220   20.1180 C   0  0  0  0  0  0  0  0  0  0  0  0
  -40.8650   -4.8840   21.0040 C   0  0  0  0  0  3  0  0  0  0  0  0
  -42.1690   -4.3920   20.7890 C   0  0  0  0  0  3  0  0  0  0  0  0
  -42.4280   -3.5180   19.7170 C   0  0  0  0  0  0  0  0  0  0  0  0
  -41.3960   -3.1570   18.8370 C   0  0  0  0  0  3  0  0  0  0  0  0
  -40.0990   -3.6660   19.0290 C   0  0  0  0  0  0  0  0  0  0  0  0
  -39.1010   -3.3110   18.1820 F   0  0  0  0  0  0  0  0  0  0  0  0
  -43.6840   -3.0450   19.5260 F   0  0  0  0  0  0  0  0  0  0  0  0
  -38.6610  -11.1720   22.9630 C   0  0  0  0  0  0  0  0  0  0  0  0
  -39.7130  -10.4330   22.5850 N   0  0  0  0  0  0  0  0  0  0  0  0
  -38.6540  -11.7700   24.0310 O   0  0  0  0  0  0  0  0  0  0  0  0
  -39.6970   -9.9610   21.6980 H   0  0  0  0  0  0  0  0  0  0  0  0
  -40.5300  -10.3500   23.1800 H   0  0  0  0  0  0  0  0  0  0  0  0
  -36.6960  -13.6250   22.4790 N   0  0  0  0  0  0  0  0  0  0  0  0
  -37.3750  -13.7990   23.2090 H   0  0  0  0  0  0  0  0  0  0  0  0
  -36.0480  -14.3940   22.3300 H   0  0  0  0  0  0  0  0  0  0  0  0
  1 52  1  0
  2  1  2  0
  3  6  1  0
  4  3  2  0
  4  7  1  0
  6  1  1  0
  6  5  2  0
  7  8  2  0
  8  5  1  0
  8  9  1  0
 10  7  1  0
 11 13  1  0
 11 10  1  0
 12 22  1  0
 12 23  2  0
 13 19  1  0
 14 24  1  0
 15 21  1  0
 15 20  1  0
 16 17  1  0
 16 22  1  0
 17 15  2  0
 18 17  1  0
 18 13  2  0
 19 20  2  0
 21 14  1  0
 22 14  1  0
 24 26  2  0
 24 25  1  0
 27 25  1  0
 28 32  1  0
 28 37  1  0
 29 25  1  0
 29 30  1  0
 29 33  1  0
 30 31  1  0
 31 32  1  0
 33 28  2  0
 34 33  1  0
 34 35  2  0
 35 36  1  0
 36 37  2  0
 38 48  1  0
 38 12  1  0
 39 38  1  0
 39 42  1  0
 40 39  1  0
 41 40  2  0
 44 40  1  0
 44 43  1  0
 45 46  1  0
 46 44  1  0
 47 46  1  0
 48 50  1  1
 48 49  1  0
 51 48  1  0
 52 53  1  0
 53 54  1  0
 54 56  1  0
 55 54  2  0
 56 57  1  0
 57 58  1  0
 59 58  1  0
 60 59  1  0
 61 60  1  0
 62 61  1  0
 63 62  2  0
 64 71  2  0
 64 70  1  0
 65 66  1  0
 67 66  1  0
 68 69  1  0
 68 67  1  0
 68 77  1  0
 70 69  1  0
 70 65  1  0
 72 63  1  0
 72 64  1  0
 73 72  1  0
 74 75  2  0
 74 99  1  0
 75 94  1  0
 76 75  1  0
 77 74  1  0
 78 77  1  0
 78 76  2  0
 79 76  1  0
 79 84  1  0
 80 79  2  0
 81 80  1  0
 81 82  2  0
 82 83  1  0
 83 84  2  0
 85 82  1  0
 86 85  1  0
 86 87  1  0
 88 87  2  0
 89 88  1  0
 90 91  1  0
 90 89  2  0
 91 86  2  0
 92 91  1  0
 93 89  1  0
 94 96  2  0
 95 94  1  0
 95 98  1  0
 97 95  1  0
 99100  1  0
101 99  1  0
M  ISO  4  10 101  11 101  64 100  72 100
M  END
>  <TORSDO>  (36) 
F 29

>  <SCORE>  (36) 
0.469

>  <name>  (36) 
35

>  <ligand_id>  (36) 
35

>  <original_smiles>  (36) 
[H]c1c([H])c([H])c2c(c1[H])C([H])([H])C([H])([H])C([H])([H])C2([H])N([H])C(=O)C1([H])N(C(=O)C([H])(N([H])C(=O)C([H])(N([H])C([H])([H])[H])C([H])([H])[H])C(C([H])([H])[H])(C([H])([H])[H])C([H])([H])[H])C([H])([H])c2c([H])c(OC([H])([H])c3c([H])c([H])c(C(=O)C([H])([H])C([H])([H])C(=O)C([H])([H])C([H])([H])C([H])([H])C([H])([H])C([H])([H])C([H])([H])C([H])([H])C([H])([H])N([H])C(=O)N4C([H])([H])C([H])([H])C([H])([H])C([H])(n5nc(-c6c([H])c([H])c(Oc7c([H])c([H])c(F)c([H])c7F)c([H])c6[H])c(C(=O)N([H])[H])c5N([H])[H])C4([H])[H])c([H])c3C([H])([H])[H])c([H])c([H])c2C1([H])[H]

>  <smiles>  (36) 
[H]c1c([H])c([H])c2c(c1[H])C([H])([H])C([H])([H])C([H])([H])C2([H])N([H])C(=O)C1([H])N(C(=O)C([H])(N([H])C(=O)C([H])(N([H])C([H])([H])[H])C([H])([H])[H])C(C([H])([H])[H])(C([H])([H])[H])C([H])([H])[H])C([H])([H])c2c([H])c(OC([H])([H])c3c([H])c([H])c(C(=O)C([H])([H])C([H])([H])C(=O)C([H])([H])C([H])([H])C([H])([H])C([H])([H])C([H])([H])C([H])([H])C([H])([H])C([H])([H])N([H])C(=O)N4C([H])([H])C([H])([H])C([H])([H])C([H])(n5nc(-c6c([H])c([H])c(Oc7c([H])c([H])c(F)c([H])c7F)c([H])c6[H])c(C(=O)N([H])[H])c5N([H])[H])C4([H])[H])c([H])c3C([H])([H])[H])c([H])c([H])c2C1([H])[H]

$$$$
36:0:0
     RDKit          3D

 95103  0  0  1  0  0  0  0  0999 V2000
  -33.6150  -22.5530   23.7220 C   0  0  0  0  0  3  0  0  0  0  0  0
  -34.1950  -23.5970   22.9780 C   0  0  0  0  0  3  0  0  0  0  0  0
  -31.5130  -23.7660   23.7670 C   0  0  0  0  0  3  0  0  0  0  0  0
  -32.2630  -22.6210   24.1290 C   0  0  0  0  0  0  0  0  0  0  0  0
  -33.4380  -24.7280   22.6170 C   0  0  0  0  0  0  0  0  0  0  0  0
  -32.0810  -24.8160   23.0120 C   0  0  0  0  0  0  0  0  0  0  0  0
  -34.1170  -25.8260   21.8170 C   0  0  0  0  0  1  0  0  0  0  0  0
  -31.5860  -21.5280   24.9020 C   0  0  0  0  0  0  0  0  0  0  0  0
  -30.3780  -21.5610   25.1590 O   0  0  0  0  0  0  0  0  0  0  0  0
  -32.4030  -20.3320   25.4300 C   0  0  0  0  0  2  0  0  0  0  0  0
  -31.7870  -18.9560   25.0880 C   0  0  0  0  0  2  0  0  0  0  0  0
  -31.9190  -18.4970   23.6190 C   0  0  0  0  0  2  0  0  0  0  0  0
  -30.9750  -17.3140   23.3180 C   0  0  0  0  0  2  0  0  0  0  0  0
  -31.2960  -16.5400   22.0260 C   0  0  0  0  0  2  0  0  0  0  0  0
  -30.3050  -15.3750   21.7610 C   0  0  0  0  0  2  0  0  0  0  0  0
  -30.7660  -14.3800   20.6790 C   0  0  0  0  0  0  0  0  0  0  0  0
  -30.4150  -12.2930   19.3970 C   0  0  0  0  0  2  0  0  0  0  0  0
  -29.4860  -12.5360   18.1940 C   0  0  0  0  0  2  0  0  0  0  0  0
  -28.0090  -12.3940   18.6100 C   0  0  0  0  0  2  0  0  0  0  0  0
  -27.6680  -13.2090   19.8860 C   0  0  0  0  0  3  0  0  0  0  0  0
  -28.7110  -12.9610   21.0000 C   0  0  0  0  0  2  0  0  0  0  0  0
  -30.0480  -13.2480   20.4530 N   0  0  0  0  0  0  0  0  0  0  0  0
  -31.7920  -14.6420   20.0420 O   0  0  0  0  0  0  0  0  0  0  0  0
  -25.2600  -13.8180   20.5710 C   0  0  0  0  0  0  0  0  0  0  0  0
  -24.1840  -13.0440   20.9180 C   0  0  0  0  0  0  0  0  0  0  0  0
  -24.6390  -11.6920   20.8720 C   0  0  0  0  0  0  0  0  0  0  0  0
  -26.3060  -12.9350   20.3430 N   0  0  0  0  0  0  0  0  0  0  0  0
  -25.9330  -11.6510   20.5770 N   0  0  0  0  0  0  0  0  0  0  0  0
  -23.9060  -10.4300   21.0390 C   0  0  0  0  0  0  0  0  0  0  0  0
  -24.3600   -9.4220   21.9160 C   0  0  0  0  0  3  0  0  0  0  0  0
  -23.6290   -8.2250   22.0740 C   0  0  0  0  0  3  0  0  0  0  0  0
  -22.4270   -8.0280   21.3540 C   0  0  0  0  0  0  0  0  0  0  0  0
  -21.9900   -9.0250   20.4630 C   0  0  0  0  0  3  0  0  0  0  0  0
  -22.7230  -10.2140   20.3040 C   0  0  0  0  0  3  0  0  0  0  0  0
  -21.6640   -6.8870   21.4240 O   0  0  0  0  0  0  0  0  0  0  0  0
  -21.6850   -6.0730   22.5280 C   0  0  0  0  0  0  0  0  0  0  0  0
  -21.4010   -6.5640   23.8210 C   0  0  0  0  0  3  0  0  0  0  0  0
  -21.3660   -5.6790   24.9180 C   0  0  0  0  0  3  0  0  0  0  0  0
  -21.6050   -4.3050   24.7230 C   0  0  0  0  0  0  0  0  0  0  0  0
  -21.8820   -3.8150   23.4340 C   0  0  0  0  0  3  0  0  0  0  0  0
  -21.9190   -4.6960   22.3400 C   0  0  0  0  0  0  0  0  0  0  0  0
  -22.1660   -4.2150   21.0980 F   0  0  0  0  0  0  0  0  0  0  0  0
  -21.5640   -3.4540   25.7740 F   0  0  0  0  0  0  0  0  0  0  0  0
  -22.7860  -13.5240   21.1860 C   0  0  0  0  0  0  0  0  0  0  0  0
  -22.0490  -12.8220   22.0400 N   0  0  0  0  0  0  0  0  0  0  0  0
  -22.3540  -14.5550   20.6710 O   0  0  0  0  0  0  0  0  0  0  0  0
  -22.4100  -11.9870   22.4780 H   0  0  0  0  0  0  0  0  0  0  0  0
  -21.1110  -13.1240   22.2610 H   0  0  0  0  0  0  0  0  0  0  0  0
  -25.4310  -15.1900   20.4120 N   0  0  0  0  0  0  0  0  0  0  0  0
  -24.6690  -15.8500   20.5250 H   0  0  0  0  0  0  0  0  0  0  0  0
  -26.2950  -15.6300   20.1170 H   0  0  0  0  0  0  0  0  0  0  0  0
  -31.2090  -26.0220   22.6590 C   0  0  0  0  0  2  0  0  0  0  0  0
  -30.3210  -25.7940   21.4160 C   0  0  0  0  0  2  0  0  0  0  0  0
  -29.3600  -26.9710   21.1690 C   0  0  0  0  0  2  0  0  0  0  0  0
  -28.4150  -26.7020   20.1250 O   0  0  0  0  0  0  0  0  0  0  0  0
  -24.6100  -31.8700   23.2090 C   0  0  0  0  0  0  0  0  0  0  0  0
  -27.2700  -27.4800   20.1200 C   0  0  0  0  0  0  0  0  0  0  0  0
  -23.3960  -30.4860   21.5490 C   0  0  0  0  0  3  0  0  0  0  0  0
  -24.8530  -28.9600   20.1130 C   0  0  0  0  0  0  0  0  0  0  0  0
  -25.9130  -30.8630   21.3440 C   0  0  0  0  0  2  0  0  0  0  0  0
  -26.0020  -29.4950   20.7050 C   0  0  0  0  0  0  0  0  0  0  0  0
  -27.2070  -28.7670   20.7060 C   0  0  0  0  0  3  0  0  0  0  0  0
  -26.1080  -26.9600   19.5100 C   0  0  0  0  0  3  0  0  0  0  0  0
  -24.8990  -27.6920   19.5060 C   0  0  0  0  0  3  0  0  0  0  0  0
  -23.6040  -29.8130   20.1650 C   0  0  0  0  0  2  0  0  0  0  0  0
  -24.6590  -31.0860   22.0970 N   0  0  0  0  0  0  0  0  0  0  0  0
  -23.5300  -32.1390   23.7540 O   0  0  0  0  0  0  0  0  0  0  0  0
  -22.7390  -29.4620   22.5030 C   0  0  0  0  0  0  0  0  0  0  0  0
  -21.4120  -29.3000   22.3790 N   0  0  0  0  0  0  0  0  0  0  0  0
  -23.4190  -28.8140   23.3040 O   0  0  0  0  0  0  0  0  0  0  0  0
  -20.9300  -29.8760   21.7050 H   0  0  0  0  0  0  0  0  0  0  0  0
  -18.0230  -28.1340   22.8460 C   0  0  0  0  0  0  0  0  0  0  0  0
  -20.5830  -28.3610   23.1350 C   0  0  0  0  0  3  0  0  0  0  0  0
  -20.6740  -26.9360   22.5430 C   0  0  0  0  0  2  0  0  0  0  0  0
  -19.5730  -26.6360   21.5210 C   0  0  0  0  0  2  0  0  0  0  0  0
  -18.1880  -26.7880   22.1600 C   0  0  0  0  0  2  0  0  0  0  0  0
  -19.1500  -28.8800   23.2880 C   0  0  0  0  0  0  0  0  0  0  0  0
  -18.9450  -30.1410   23.8900 C   0  0  0  0  0  3  0  0  0  0  0  0
  -17.6450  -30.6570   24.0560 C   0  0  0  0  0  3  0  0  0  0  0  0
  -16.5320  -29.9090   23.6310 C   0  0  0  0  0  3  0  0  0  0  0  0
  -16.7220  -28.6500   23.0320 C   0  0  0  0  0  3  0  0  0  0  0  0
  -25.9000  -32.4830   23.8370 C   0  0  0  0  0  3  0  0  0  0  0  0
  -26.4450  -31.6610   25.0670 C   0  0  1  0  0  0  0  0  0  0  0  0
  -25.3730  -31.3730   26.1450 C   0  0  0  0  0  1  0  0  0  0  0  0
  -27.0260  -30.3080   24.5940 C   0  0  0  0  0  1  0  0  0  0  0  0
  -27.6020  -32.4360   25.7440 C   0  0  0  0  0  1  0  0  0  0  0  0
  -25.5880  -33.8620   24.2320 N   0  0  0  0  0  0  0  0  0  0  0  0
  -25.9020  -34.9470   23.5120 C   0  0  0  0  0  0  0  0  0  0  0  0
  -26.5590  -34.8930   22.4670 O   0  0  0  0  0  0  0  0  0  0  0  0
  -25.0060  -33.9770   25.0480 H   0  0  0  0  0  0  0  0  0  0  0  0
  -24.1490  -36.7320   23.2640 C   0  0  0  0  0  1  0  0  0  0  0  0
  -25.4100  -36.3110   24.0350 C   0  0  0  0  0  3  0  0  0  0  0  0
  -27.5570  -37.1800   24.8460 C   0  0  0  0  0  1  0  0  0  0  0  0
  -26.4300  -37.3790   23.9400 N   0  0  0  0  0  0  0  0  0  0  0  0
  -26.0170  -38.2850   24.1440 H   0  0  0  0  0  0  0  0  0  0  0  0
  1  4  1  0
  2  1  2  0
  3  4  2  0
  4  8  1  0
  5  2  1  0
  5  6  2  0
  6  3  1  0
  7  5  1  0
  8  9  2  0
  8 10  1  0
 11 10  1  0
 12 11  1  0
 13 12  1  0
 14 13  1  0
 15 14  1  0
 16 15  1  0
 17 22  1  0
 18 19  1  0
 18 17  1  0
 20 19  1  0
 20 27  1  0
 20 21  1  0
 22 16  1  0
 22 21  1  0
 23 16  2  0
 24 25  2  0
 25 44  1  0
 26 25  1  0
 26 29  1  0
 27 24  1  0
 27 28  1  0
 28 26  2  0
 29 30  1  0
 30 31  2  0
 32 35  1  0
 32 31  1  0
 33 32  2  0
 34 33  1  0
 34 29  2  0
 35 36  1  0
 36 37  1  0
 37 38  2  0
 39 38  1  0
 39 43  1  0
 40 39  2  0
 41 36  2  0
 41 40  1  0
 42 41  1  0
 44 45  1  0
 45 48  1  0
 45 47  1  0
 46 44  2  0
 49 50  1  0
 49 24  1  0
 51 49  1  0
 52  6  1  0
 53 52  1  0
 54 53  1  0
 55 54  1  0
 56 67  2  0
 57 55  1  0
 57 62  1  0
 58 66  1  0
 58 68  1  0
 59 65  1  0
 59 61  1  0
 60 66  1  0
 61 62  2  0
 61 60  1  0
 63 57  2  0
 64 63  1  0
 64 59  2  0
 65 58  1  0
 66 56  1  0
 68 70  2  0
 69 68  1  0
 71 69  1  0
 72 81  2  0
 72 77  1  0
 73 69  1  0
 73 77  1  0
 74 73  1  0
 75 76  1  0
 75 74  1  0
 76 72  1  0
 77 78  2  0
 78 79  1  0
 80 79  2  0
 81 80  1  0
 82 56  1  0
 82 87  1  0
 82 83  1  0
 83 86  1  1
 83 84  1  0
 85 83  1  0
 87 90  1  0
 88 92  1  0
 88 87  1  0
 89 88  2  0
 92 91  1  0
 94 92  1  0
 94 95  1  0
 94 93  1  0
M  ISO  4  15 100  16 100  54 101  55 101
M  END
>  <TORSDO>  (37) 
F 26

>  <SCORE>  (37) 
22.225

>  <name>  (37) 
36

>  <ligand_id>  (37) 
36

>  <original_smiles>  (37) 
[H]c1c([H])c([H])c2c(c1[H])C([H])([H])C([H])([H])C([H])([H])C2([H])N([H])C(=O)C1([H])N(C(=O)C([H])(N([H])C(=O)C([H])(N([H])C([H])([H])[H])C([H])([H])[H])C(C([H])([H])[H])(C([H])([H])[H])C([H])([H])[H])C([H])([H])c2c([H])c(OC([H])([H])C([H])([H])C([H])([H])c3c([H])c(C(=O)C([H])([H])C([H])([H])C([H])([H])C([H])([H])C([H])([H])C([H])([H])C(=O)N4C([H])([H])C([H])([H])C([H])([H])C([H])(n5nc(-c6c([H])c([H])c(Oc7c([H])c([H])c(F)c([H])c7F)c([H])c6[H])c(C(=O)N([H])[H])c5N([H])[H])C4([H])[H])c([H])c([H])c3C([H])([H])[H])c([H])c([H])c2C1([H])[H]

>  <smiles>  (37) 
[H]c1c([H])c([H])c2c(c1[H])C([H])([H])C([H])([H])C([H])([H])C2([H])N([H])C(=O)C1([H])N(C(=O)C([H])(N([H])C(=O)C([H])(N([H])C([H])([H])[H])C([H])([H])[H])C(C([H])([H])[H])(C([H])([H])[H])C([H])([H])[H])C([H])([H])c2c([H])c(OC([H])([H])C([H])([H])C([H])([H])c3c([H])c(C(=O)C([H])([H])C([H])([H])C([H])([H])C([H])([H])C([H])([H])C([H])([H])C(=O)N4C([H])([H])C([H])([H])C([H])([H])C([H])(n5nc(-c6c([H])c([H])c(Oc7c([H])c([H])c(F)c([H])c7F)c([H])c6[H])c(C(=O)N([H])[H])c5N([H])[H])C4([H])[H])c([H])c([H])c3C([H])([H])[H])c([H])c([H])c2C1([H])[H]

$$$$
37:0:0
     RDKit          3D

 96103  0  0  1  0  0  0  0  0999 V2000
  -26.0940  -22.5740   19.8410 C   0  0  0  0  0  2  0  0  0  0  0  0
  -25.7620  -23.5320   20.9980 C   0  0  0  0  0  2  0  0  0  0  0  0
  -26.8130  -23.5470   22.1310 C   0  0  0  0  0  2  0  0  0  0  0  0
  -29.1820  -23.7470   22.7480 C   0  0  0  0  0  1  0  0  0  0  0  0
  -28.1540  -24.0540   21.7260 N   0  0  2  0  0  4  0  0  0  0  0  0
  -28.4350  -23.5210   20.9150 H   0  0  0  0  0  0  0  0  0  0  0  0
  -28.1620  -25.4940   21.3470 C   0  0  0  0  0  2  0  0  0  0  0  0
  -28.4340  -25.7140   19.8420 C   0  0  0  0  0  2  0  0  0  0  0  0
  -28.4400  -27.1060   19.5310 O   0  0  0  0  0  0  0  0  0  0  0  0
  -24.6700  -31.8920   23.1380 C   0  0  0  0  0  0  0  0  0  0  0  0
  -27.2360  -27.7670   19.6190 C   0  0  0  0  0  0  0  0  0  0  0  0
  -23.4070  -30.5950   21.4530 C   0  0  0  0  0  3  0  0  0  0  0  0
  -24.8130  -29.1910   19.8560 C   0  0  0  0  0  0  0  0  0  0  0  0
  -25.9080  -31.0220   21.1620 C   0  0  0  0  0  2  0  0  0  0  0  0
  -25.9860  -29.7030   20.4250 C   0  0  0  0  0  0  0  0  0  0  0  0
  -27.1990  -28.9990   20.3030 C   0  0  0  0  0  3  0  0  0  0  0  0
  -26.0460  -27.2610   19.0420 C   0  0  0  0  0  3  0  0  0  0  0  0
  -24.8370  -27.9700   19.1610 C   0  0  0  0  0  3  0  0  0  0  0  0
  -23.5590  -30.0170   20.0190 C   0  0  0  0  0  2  0  0  0  0  0  0
  -24.6830  -31.1780   21.9780 N   0  0  0  0  0  0  0  0  0  0  0  0
  -23.6120  -32.1060   23.7460 O   0  0  0  0  0  0  0  0  0  0  0  0
  -22.8150  -29.4960   22.3630 C   0  0  0  0  0  0  0  0  0  0  0  0
  -21.4900  -29.3020   22.2780 N   0  0  0  0  0  0  0  0  0  0  0  0
  -23.5440  -28.8230   23.0970 O   0  0  0  0  0  0  0  0  0  0  0  0
  -20.9650  -29.9080   21.6640 H   0  0  0  0  0  0  0  0  0  0  0  0
  -18.1610  -27.9920   22.7750 C   0  0  0  0  0  0  0  0  0  0  0  0
  -20.7170  -28.2960   23.0030 C   0  0  0  0  0  3  0  0  0  0  0  0
  -20.8400  -26.9070   22.3360 C   0  0  0  0  0  2  0  0  0  0  0  0
  -19.7220  -26.6190   21.3300 C   0  0  0  0  0  2  0  0  0  0  0  0
  -18.3540  -26.6900   22.0140 C   0  0  0  0  0  2  0  0  0  0  0  0
  -19.2710  -28.7520   23.2250 C   0  0  0  0  0  0  0  0  0  0  0  0
  -19.0400  -29.9730   23.8960 C   0  0  0  0  0  3  0  0  0  0  0  0
  -17.7300  -30.4340   24.1220 C   0  0  0  0  0  3  0  0  0  0  0  0
  -16.6340  -29.6680   23.6920 C   0  0  0  0  0  3  0  0  0  0  0  0
  -16.8480  -28.4480   23.0230 C   0  0  0  0  0  3  0  0  0  0  0  0
  -25.9760  -32.4940   23.7450 C   0  0  0  0  0  3  0  0  0  0  0  0
  -25.6650  -33.8540   24.1990 N   0  0  0  0  0  0  0  0  0  0  0  0
  -25.9560  -34.9690   23.5160 C   0  0  0  0  0  0  0  0  0  0  0  0
  -26.5880  -34.9600   22.4550 O   0  0  0  0  0  0  0  0  0  0  0  0
  -25.0980  -33.9360   25.0310 H   0  0  0  0  0  0  0  0  0  0  0  0
  -24.1970  -36.7610   23.3690 C   0  0  0  0  0  1  0  0  0  0  0  0
  -25.4710  -36.3090   24.1020 C   0  0  0  0  0  3  0  0  0  0  0  0
  -27.6240  -37.1520   24.9250 C   0  0  0  0  0  1  0  0  0  0  0  0
  -26.4860  -37.3820   24.0400 N   0  0  0  0  0  0  0  0  0  0  0  0
  -26.0760  -38.2810   24.2790 H   0  0  0  0  0  0  0  0  0  0  0  0
  -26.5700  -31.6300   24.9230 C   0  0  1  0  0  0  0  0  0  0  0  0
  -25.5410  -31.2850   26.0230 C   0  0  0  0  0  1  0  0  0  0  0  0
  -27.1430  -30.2990   24.3820 C   0  0  0  0  0  1  0  0  0  0  0  0
  -27.7440  -32.3860   25.5870 C   0  0  0  0  0  1  0  0  0  0  0  0
  -25.0260  -22.5830   18.7330 C   0  0  0  0  0  2  0  0  0  0  0  0
  -25.3810  -21.7520   17.4840 C   0  0  0  0  0  2  0  0  0  0  0  0
  -25.7100  -20.2780   17.7880 C   0  0  0  0  0  2  0  0  0  0  0  0
  -27.2120  -20.0390   18.0140 C   0  0  0  0  0  2  0  0  0  0  0  0
  -27.4860  -18.8210   18.9030 C   0  0  0  0  0  2  0  0  0  0  0  0
  -28.9370  -18.7940   19.4000 C   0  0  0  0  0  2  0  0  0  0  0  0
  -29.1790  -17.6650   20.4050 C   0  0  0  0  0  2  0  0  0  0  0  0
  -30.6430  -17.6070   20.8760 C   0  0  0  0  0  2  0  0  0  0  0  0
  -30.9220  -16.5050   21.9190 C   0  0  0  0  0  2  0  0  0  0  0  0
  -30.8150  -14.4320   20.5330 C   0  0  0  0  0  0  0  0  0  0  0  0
  -30.4610  -12.3210   19.3140 C   0  0  0  0  0  2  0  0  0  0  0  0
  -29.5340  -12.5090   18.1000 C   0  0  0  0  0  2  0  0  0  0  0  0
  -28.0570  -12.3740   18.5170 C   0  0  0  0  0  2  0  0  0  0  0  0
  -27.7070  -13.2510   19.7480 C   0  0  0  0  0  3  0  0  0  0  0  0
  -28.7380  -13.0420   20.8780 C   0  0  0  0  0  2  0  0  0  0  0  0
  -30.0890  -13.3030   20.3410 N   0  0  0  0  0  0  0  0  0  0  0  0
  -31.8220  -14.7170   19.8790 O   0  0  0  0  0  0  0  0  0  0  0  0
  -30.3760  -15.2100   21.5280 N   0  0  0  0  0  0  0  0  0  0  0  0
  -29.5690  -14.8780   22.0360 H   0  0  0  0  0  0  0  0  0  0  0  0
  -25.3010  -13.8900   20.4150 C   0  0  0  0  0  0  0  0  0  0  0  0
  -24.2220  -13.1310   20.7830 C   0  0  0  0  0  0  0  0  0  0  0  0
  -24.6740  -11.7750   20.7740 C   0  0  0  0  0  0  0  0  0  0  0  0
  -26.3430  -12.9980   20.2110 N   0  0  0  0  0  0  0  0  0  0  0  0
  -25.9660  -11.7210   20.4800 N   0  0  0  0  0  0  0  0  0  0  0  0
  -23.9350  -10.5220   20.9730 C   0  0  0  0  0  0  0  0  0  0  0  0
  -24.3490   -9.5640   21.9250 C   0  0  0  0  0  3  0  0  0  0  0  0
  -23.6120   -8.3740   22.1110 C   0  0  0  0  0  3  0  0  0  0  0  0
  -22.4480   -8.1330   21.3440 C   0  0  0  0  0  0  0  0  0  0  0  0
  -22.0540   -9.0790   20.3810 C   0  0  0  0  0  3  0  0  0  0  0  0
  -22.7910  -10.2600   20.1940 C   0  0  0  0  0  3  0  0  0  0  0  0
  -21.6850   -6.9940   21.4360 O   0  0  0  0  0  0  0  0  0  0  0  0
  -21.6150   -6.2670   22.5980 C   0  0  0  0  0  0  0  0  0  0  0  0
  -21.1830   -6.8430   23.8130 C   0  0  0  0  0  3  0  0  0  0  0  0
  -21.0600   -6.0430   24.9670 C   0  0  0  0  0  3  0  0  0  0  0  0
  -21.3580   -4.6690   24.9060 C   0  0  0  0  0  0  0  0  0  0  0  0
  -21.7840   -4.0930   23.6970 C   0  0  0  0  0  3  0  0  0  0  0  0
  -21.9090   -4.8900   22.5450 C   0  0  0  0  0  0  0  0  0  0  0  0
  -22.2990   -4.3250   21.3770 F   0  0  0  0  0  0  0  0  0  0  0  0
  -21.2330   -3.8990   26.0130 F   0  0  0  0  0  0  0  0  0  0  0  0
  -22.8260  -13.6230   21.0380 C   0  0  0  0  0  0  0  0  0  0  0  0
  -22.0860  -12.9420   21.9060 N   0  0  0  0  0  0  0  0  0  0  0  0
  -22.3990  -14.6440   20.5010 O   0  0  0  0  0  0  0  0  0  0  0  0
  -22.4430  -12.1160   22.3610 H   0  0  0  0  0  0  0  0  0  0  0  0
  -21.1490  -13.2540   22.1190 H   0  0  0  0  0  0  0  0  0  0  0  0
  -25.4790  -15.2570   20.2230 N   0  0  0  0  0  0  0  0  0  0  0  0
  -24.7170  -15.9190   20.3180 H   0  0  0  0  0  0  0  0  0  0  0  0
  -26.3440  -15.6870   19.9210 H   0  0  0  0  0  0  0  0  0  0  0  0
  1  2  1  0
  2  3  1  0
  5  3  1  0
  5  4  1  0
  5  6  1  6
  7  5  1  0
  8  7  1  0
  9 11  1  0
  9  8  1  0
 10 21  2  0
 11 16  1  0
 12 20  1  0
 12 22  1  0
 13 19  1  0
 13 15  1  0
 14 20  1  0
 15 14  1  0
 16 15  2  0
 17 18  1  0
 17 11  2  0
 18 13  2  0
 19 12  1  0
 20 10  1  0
 22 24  2  0
 23 22  1  0
 25 23  1  0
 26 35  2  0
 26 31  1  0
 27 23  1  0
 27 31  1  0
 28 27  1  0
 29 30  1  0
 29 28  1  0
 30 26  1  0
 31 32  2  0
 32 33  1  0
 34 33  2  0
 35 34  1  0
 36 10  1  0
 36 37  1  0
 36 46  1  0
 37 40  1  0
 38 42  1  0
 38 37  1  0
 39 38  2  0
 42 41  1  0
 44 42  1  0
 44 45  1  0
 44 43  1  0
 46 49  1  1
 46 47  1  0
 48 46  1  0
 50  1  1  0
 51 52  1  0
 51 50  1  0
 52 53  1  0
 53 54  1  0
 54 55  1  0
 55 56  1  0
 56 57  1  0
 57 58  1  0
 59 67  1  0
 60 65  1  0
 61 62  1  0
 61 60  1  0
 63 62  1  0
 63 72  1  0
 63 64  1  0
 65 59  1  0
 65 64  1  0
 66 59  2  0
 67 58  1  0
 67 68  1  0
 69 70  2  0
 70 89  1  0
 71 70  1  0
 71 74  1  0
 72 69  1  0
 72 73  1  0
 73 71  2  0
 74 75  1  0
 75 76  2  0
 77 80  1  0
 77 76  1  0
 78 77  2  0
 79 78  1  0
 79 74  2  0
 80 81  1  0
 81 82  1  0
 82 83  2  0
 84 83  1  0
 84 88  1  0
 85 84  2  0
 86 81  2  0
 86 85  1  0
 87 86  1  0
 89 90  1  0
 90 93  1  0
 90 92  1  0
 91 89  2  0
 94 95  1  0
 94 69  1  0
 96 94  1  0
M  ISO  4   8 101   9 101  59 100  67 100
M  END
>  <TORSDO>  (38) 
F 30

>  <SCORE>  (38) 
-10.515

>  <name>  (38) 
37

>  <ligand_id>  (38) 
37

>  <original_smiles>  (38) 
[H]c1c([H])c([H])c2c(c1[H])C([H])([H])C([H])([H])C([H])([H])C2([H])N([H])C(=O)C1([H])N(C(=O)C([H])(N([H])C(=O)C([H])(N([H])C([H])([H])[H])C([H])([H])[H])C(C([H])([H])[H])(C([H])([H])[H])C([H])([H])[H])C([H])([H])c2c([H])c(OC([H])([H])C([H])([H])[N+]([H])(C([H])([H])[H])C([H])([H])C([H])([H])C([H])([H])C([H])([H])C([H])([H])C([H])([H])C([H])([H])C([H])([H])C([H])([H])C([H])([H])C([H])([H])C([H])([H])N([H])C(=O)N3C([H])([H])C([H])([H])C([H])([H])C([H])(n4nc(-c5c([H])c([H])c(Oc6c([H])c([H])c(F)c([H])c6F)c([H])c5[H])c(C(=O)N([H])[H])c4N([H])[H])C3([H])[H])c([H])c([H])c2C1([H])[H]

>  <smiles>  (38) 
[H]c1c([H])c([H])c2c(c1[H])C([H])([H])C([H])([H])C([H])([H])C2([H])N([H])C(=O)C1([H])N(C(=O)C([H])(N([H])C(=O)C([H])(N([H])C([H])([H])[H])C([H])([H])[H])C(C([H])([H])[H])(C([H])([H])[H])C([H])([H])[H])C([H])([H])c2c([H])c(OC([H])([H])C([H])([H])[N+]([H])(C([H])([H])[H])C([H])([H])C([H])([H])C([H])([H])C([H])([H])C([H])([H])C([H])([H])C([H])([H])C([H])([H])C([H])([H])C([H])([H])C([H])([H])C([H])([H])N([H])C(=O)N3C([H])([H])C([H])([H])C([H])([H])C([H])(n4nc(-c5c([H])c([H])c(Oc6c([H])c([H])c(F)c([H])c6F)c([H])c5[H])c(C(=O)N([H])[H])c4N([H])[H])C3([H])[H])c([H])c([H])c2C1([H])[H]

$$$$
38:0:0
     RDKit          3D

 94101  0  0  1  0  0  0  0  0999 V2000
  -27.9360  -23.7880   17.0330 C   0  0  0  0  0  0  0  0  0  0  0  0
  -28.9710  -24.3350   17.6790 N   0  0  0  0  0  0  0  0  0  0  0  0
  -27.0440  -24.4610   16.5130 O   0  0  0  0  0  0  0  0  0  0  0  0
  -29.6940  -23.7130   18.0210 H   0  0  0  0  0  0  0  0  0  0  0  0
  -27.8640  -22.2580   17.0330 C   0  0  0  0  0  2  0  0  0  0  0  0
  -26.4270  -21.7230   17.2190 C   0  0  0  0  0  2  0  0  0  0  0  0
  -26.3180  -20.2870   17.7730 C   0  0  0  0  0  2  0  0  0  0  0  0
  -26.5670  -20.1710   19.2970 C   0  0  0  0  0  2  0  0  0  0  0  0
  -27.9850  -19.7420   19.7310 C   0  0  0  0  0  2  0  0  0  0  0  0
  -28.3070  -18.2550   19.5220 C   0  0  0  0  0  2  0  0  0  0  0  0
  -29.6960  -17.9030   20.1160 C   0  0  0  0  0  2  0  0  0  0  0  0
  -30.0780  -16.3960   20.1360 C   0  0  0  0  0  2  0  0  0  0  0  0
  -30.1320  -15.4730   21.3960 C   0  0  0  0  0  2  0  0  0  0  0  0
  -31.6100  -13.7660   20.3300 C   0  0  0  0  0  0  0  0  0  0  0  0
  -31.0480  -11.8330   18.9030 C   0  0  0  0  0  2  0  0  0  0  0  0
  -30.1030  -12.2670   17.7660 C   0  0  0  0  0  2  0  0  0  0  0  0
  -28.6330  -12.2680   18.2310 C   0  0  0  0  0  2  0  0  0  0  0  0
  -28.4310  -12.9890   19.5870 C   0  0  0  0  0  3  0  0  0  0  0  0
  -29.4580  -12.4580   20.6130 C   0  0  0  0  0  2  0  0  0  0  0  0
  -30.7990  -12.7090   20.0600 N   0  0  0  0  0  0  0  0  0  0  0  0
  -32.6850  -13.9550   19.7530 O   0  0  0  0  0  0  0  0  0  0  0  0
  -31.2740  -14.5480   21.3660 N   0  0  0  0  0  0  0  0  0  0  0  0
  -32.0910  -14.9850   21.7680 H   0  0  0  0  0  0  0  0  0  0  0  0
  -26.0940  -13.8380   20.2830 C   0  0  0  0  0  0  0  0  0  0  0  0
  -24.9620  -13.1760   20.6680 C   0  0  0  0  0  0  0  0  0  0  0  0
  -25.2940  -11.7850   20.6450 C   0  0  0  0  0  0  0  0  0  0  0  0
  -27.0530  -12.8590   20.0660 N   0  0  0  0  0  0  0  0  0  0  0  0
  -26.5710  -11.6190   20.3310 N   0  0  0  0  0  0  0  0  0  0  0  0
  -24.4560  -10.6010   20.8540 C   0  0  0  0  0  0  0  0  0  0  0  0
  -24.7700   -9.6440   21.8420 C   0  0  0  0  0  3  0  0  0  0  0  0
  -23.9440   -8.5150   22.0340 C   0  0  0  0  0  3  0  0  0  0  0  0
  -22.7880   -8.3420   21.2390 C   0  0  0  0  0  0  0  0  0  0  0  0
  -22.4900   -9.2870   20.2430 C   0  0  0  0  0  3  0  0  0  0  0  0
  -23.3160  -10.4060   20.0490 C   0  0  0  0  0  3  0  0  0  0  0  0
  -21.9400   -7.2630   21.3360 O   0  0  0  0  0  0  0  0  0  0  0  0
  -21.7260   -6.6240   22.5310 C   0  0  0  0  0  0  0  0  0  0  0  0
  -21.2300   -7.3080   23.6630 C   0  0  0  0  0  3  0  0  0  0  0  0
  -20.9540   -6.5980   24.8490 C   0  0  0  0  0  3  0  0  0  0  0  0
  -21.1640   -5.2070   24.9040 C   0  0  0  0  0  0  0  0  0  0  0  0
  -21.6510   -4.5250   23.7760 C   0  0  0  0  0  3  0  0  0  0  0  0
  -21.9270   -5.2310   22.5920 C   0  0  0  0  0  0  0  0  0  0  0  0
  -22.3720   -4.5640   21.5010 F   0  0  0  0  0  0  0  0  0  0  0  0
  -20.8950   -4.5240   26.0410 F   0  0  0  0  0  0  0  0  0  0  0  0
  -23.6170  -13.7840   20.9450 C   0  0  0  0  0  0  0  0  0  0  0  0
  -22.8460  -13.1820   21.8450 N   0  0  0  0  0  0  0  0  0  0  0  0
  -23.2610  -14.8260   20.3960 O   0  0  0  0  0  0  0  0  0  0  0  0
  -23.1490  -12.3370   22.3090 H   0  0  0  0  0  0  0  0  0  0  0  0
  -21.9390  -13.5660   22.0670 H   0  0  0  0  0  0  0  0  0  0  0  0
  -26.3790  -15.1830   20.0760 N   0  0  0  0  0  0  0  0  0  0  0  0
  -25.6650  -15.8980   20.1650 H   0  0  0  0  0  0  0  0  0  0  0  0
  -27.2250  -15.5170   19.6370 H   0  0  0  0  0  0  0  0  0  0  0  0
  -29.0200  -25.7120   18.1620 C   0  0  0  0  0  2  0  0  0  0  0  0
  -28.7320  -25.7190   19.6730 C   0  0  0  0  0  2  0  0  0  0  0  0
  -28.6180  -27.0450   20.1780 O   0  0  0  0  0  0  0  0  0  0  0  0
  -24.6060  -31.9470   23.3610 C   0  0  0  0  0  0  0  0  0  0  0  0
  -27.3970  -27.6870   20.1580 C   0  0  0  0  0  0  0  0  0  0  0  0
  -23.4600  -30.5990   21.6330 C   0  0  0  0  0  3  0  0  0  0  0  0
  -24.9700  -29.1390   20.1880 C   0  0  0  0  0  0  0  0  0  0  0  0
  -25.9840  -30.9980   21.5170 C   0  0  0  0  0  2  0  0  0  0  0  0
  -26.1020  -29.6560   20.8280 C   0  0  0  0  0  0  0  0  0  0  0  0
  -27.3130  -28.9330   20.8170 C   0  0  0  0  0  3  0  0  0  0  0  0
  -26.2420  -27.1760   19.5190 C   0  0  0  0  0  3  0  0  0  0  0  0
  -25.0320  -27.8940   19.5400 C   0  0  0  0  0  3  0  0  0  0  0  0
  -23.7150  -29.9810   20.2320 C   0  0  0  0  0  2  0  0  0  0  0  0
  -24.6990  -31.1940   22.2280 N   0  0  0  0  0  0  0  0  0  0  0  0
  -23.5090  -32.1840   23.8830 O   0  0  0  0  0  0  0  0  0  0  0  0
  -22.8000  -29.5300   22.5320 C   0  0  0  0  0  0  0  0  0  0  0  0
  -21.4810  -29.3430   22.3670 N   0  0  0  0  0  0  0  0  0  0  0  0
  -23.4710  -28.8750   23.3340 O   0  0  0  0  0  0  0  0  0  0  0  0
  -21.0020  -29.9280   21.6960 H   0  0  0  0  0  0  0  0  0  0  0  0
  -18.1050  -28.1090   22.7340 C   0  0  0  0  0  0  0  0  0  0  0  0
  -20.6540  -28.3700   23.0780 C   0  0  0  0  0  3  0  0  0  0  0  0
  -20.7810  -26.9660   22.4450 C   0  0  0  0  0  2  0  0  0  0  0  0
  -19.7060  -26.6800   21.3910 C   0  0  0  0  0  2  0  0  0  0  0  0
  -18.3070  -26.7900   22.0080 C   0  0  0  0  0  2  0  0  0  0  0  0
  -19.2080  -28.8580   23.2220 C   0  0  0  0  0  0  0  0  0  0  0  0
  -18.9700  -30.0940   23.8590 C   0  0  0  0  0  3  0  0  0  0  0  0
  -17.6580  -30.5820   24.0160 C   0  0  0  0  0  3  0  0  0  0  0  0
  -16.5690  -29.8300   23.5420 C   0  0  0  0  0  3  0  0  0  0  0  0
  -16.7920  -28.5950   22.9070 C   0  0  0  0  0  3  0  0  0  0  0  0
  -25.8700  -32.5650   24.0380 C   0  0  0  0  0  3  0  0  0  0  0  0
  -26.3540  -31.7580   25.3050 C   0  0  1  0  0  0  0  0  0  0  0  0
  -25.2310  -31.4820   26.3310 C   0  0  0  0  0  1  0  0  0  0  0  0
  -26.9580  -30.3980   24.8860 C   0  0  0  0  0  1  0  0  0  0  0  0
  -27.4780  -32.5400   26.0260 C   0  0  0  0  0  1  0  0  0  0  0  0
  -25.5430  -33.9520   24.3970 N   0  0  0  0  0  0  0  0  0  0  0  0
  -25.9010  -35.0260   23.6820 C   0  0  0  0  0  0  0  0  0  0  0  0
  -26.6150  -34.9560   22.6770 O   0  0  0  0  0  0  0  0  0  0  0  0
  -24.9150  -34.0810   25.1770 H   0  0  0  0  0  0  0  0  0  0  0  0
  -24.1840  -36.8240   23.3050 C   0  0  0  0  0  1  0  0  0  0  0  0
  -25.3880  -36.3980   24.1600 C   0  0  0  0  0  3  0  0  0  0  0  0
  -27.4780  -37.2630   25.1150 C   0  0  0  0  0  1  0  0  0  0  0  0
  -26.4200  -37.4570   24.1260 N   0  0  0  0  0  0  0  0  0  0  0  0
  -26.0030  -38.3710   24.2850 H   0  0  0  0  0  0  0  0  0  0  0  0
  1  5  1  0
  1  2  1  0
  2  4  1  0
  2 52  1  0
  3  1  2  0
  5  6  1  0
  6  7  1  0
  7  8  1  0
  8  9  1  0
 10  9  1  0
 10 11  1  0
 11 12  1  0
 12 13  1  0
 14 22  1  0
 15 20  1  0
 16 17  1  0
 16 15  1  0
 18 17  1  0
 18 27  1  0
 18 19  1  0
 20 14  1  0
 20 19  1  0
 21 14  2  0
 22 13  1  0
 22 23  1  0
 24 25  2  0
 25 44  1  0
 26 25  1  0
 26 29  1  0
 27 24  1  0
 27 28  1  0
 28 26  2  0
 29 30  1  0
 30 31  2  0
 32 35  1  0
 32 31  1  0
 33 32  2  0
 34 33  1  0
 34 29  2  0
 35 36  1  0
 36 41  2  0
 36 37  1  0
 37 38  2  0
 38 39  1  0
 39 43  1  0
 40 39  2  0
 41 40  1  0
 42 41  1  0
 44 45  1  0
 45 48  1  0
 45 47  1  0
 46 44  2  0
 49 50  1  0
 49 24  1  0
 51 49  1  0
 52 53  1  0
 53 54  1  0
 55 66  2  0
 56 54  1  0
 56 61  1  0
 57 65  1  0
 57 67  1  0
 58 64  1  0
 58 60  1  0
 59 65  1  0
 60 59  1  0
 61 60  2  0
 62 63  1  0
 62 56  2  0
 63 58  2  0
 64 57  1  0
 65 55  1  0
 67 69  2  0
 68 67  1  0
 70 68  1  0
 71 80  2  0
 71 76  1  0
 72 68  1  0
 72 76  1  0
 73 72  1  0
 74 75  1  0
 74 73  1  0
 75 71  1  0
 76 77  2  0
 77 78  1  0
 79 78  2  0
 80 79  1  0
 81 55  1  0
 81 86  1  0
 81 82  1  0
 82 85  1  1
 82 83  1  0
 84 82  1  0
 86 89  1  0
 87 91  1  0
 87 86  1  0
 88 87  2  0
 91 90  1  0
 93 91  1  0
 93 94  1  0
 93 92  1  0
M  ISO  4  14 100  22 100  53 101  54 101
M  END
>  <TORSDO>  (39) 
F 27

>  <SCORE>  (39) 
-9.783

>  <name>  (39) 
38

>  <ligand_id>  (39) 
38

>  <original_smiles>  (39) 
[H]c1c([H])c([H])c2c(c1[H])C([H])([H])C([H])([H])C([H])([H])C2([H])N([H])C(=O)C1([H])N(C(=O)C([H])(N([H])C(=O)C([H])(N([H])C([H])([H])[H])C([H])([H])[H])C(C([H])([H])[H])(C([H])([H])[H])C([H])([H])[H])C([H])([H])c2c([H])c(OC([H])([H])C([H])([H])N([H])C(=O)C([H])([H])C([H])([H])C([H])([H])C([H])([H])C([H])([H])C([H])([H])C([H])([H])C([H])([H])C([H])([H])N([H])C(=O)N3C([H])([H])C([H])([H])C([H])([H])C([H])(n4nc(-c5c([H])c([H])c(Oc6c([H])c([H])c(F)c([H])c6F)c([H])c5[H])c(C(=O)N([H])[H])c4N([H])[H])C3([H])[H])c([H])c([H])c2C1([H])[H]

>  <smiles>  (39) 
[H]c1c([H])c([H])c2c(c1[H])C([H])([H])C([H])([H])C([H])([H])C2([H])N([H])C(=O)C1([H])N(C(=O)C([H])(N([H])C(=O)C([H])(N([H])C([H])([H])[H])C([H])([H])[H])C(C([H])([H])[H])(C([H])([H])[H])C([H])([H])[H])C([H])([H])c2c([H])c(OC([H])([H])C([H])([H])N([H])C(=O)C([H])([H])C([H])([H])C([H])([H])C([H])([H])C([H])([H])C([H])([H])C([H])([H])C([H])([H])C([H])([H])N([H])C(=O)N3C([H])([H])C([H])([H])C([H])([H])C([H])(n4nc(-c5c([H])c([H])c(Oc6c([H])c([H])c(F)c([H])c6F)c([H])c5[H])c(C(=O)N([H])[H])c4N([H])[H])C3([H])[H])c([H])c([H])c2C1([H])[H]

$$$$
39:0:0
     RDKit          3D

100108  0  0  1  0  0  0  0  0999 V2000
  -34.5770  -24.1390   18.9540 C   0  0  0  0  0  3  0  0  0  0  0  0
  -33.7720  -25.0490   18.2480 C   0  0  0  0  0  3  0  0  0  0  0  0
  -33.6890  -25.0000   21.0540 C   0  0  0  0  0  3  0  0  0  0  0  0
  -34.5070  -24.0880   20.3550 C   0  0  0  0  0  0  0  0  0  0  0  0
  -32.9040  -25.9390   18.9230 C   0  0  0  0  0  0  0  0  0  0  0  0
  -32.8840  -25.9230   20.3540 C   0  0  0  0  0  0  0  0  0  0  0  0
  -31.9690  -26.7780   18.0750 C   0  0  0  0  0  0  0  0  0  0  0  0
  -30.9060  -27.2740   18.7090 N   0  0  0  0  0  0  0  0  0  0  0  0
  -32.0920  -26.8540   16.8500 O   0  0  0  0  0  0  0  0  0  0  0  0
  -31.0130  -27.2120   19.7200 H   0  0  0  0  0  0  0  0  0  0  0  0
  -29.5420  -27.1650   18.2170 C   0  0  0  0  0  2  0  0  0  0  0  0
  -28.8190  -26.1080   19.0820 C   0  0  0  0  0  2  0  0  0  0  0  0
  -28.4300  -26.6750   20.3380 O   0  0  0  0  0  0  0  0  0  0  0  0
  -24.6340  -31.8760   23.3770 C   0  0  0  0  0  0  0  0  0  0  0  0
  -27.2490  -27.3820   20.3510 C   0  0  0  0  0  0  0  0  0  0  0  0
  -23.4300  -30.4680   21.7360 C   0  0  0  0  0  3  0  0  0  0  0  0
  -24.8710  -28.8950   20.3460 C   0  0  0  0  0  0  0  0  0  0  0  0
  -25.9500  -30.8010   21.5520 C   0  0  0  0  0  2  0  0  0  0  0  0
  -26.0310  -29.4190   20.9360 C   0  0  0  0  0  0  0  0  0  0  0  0
  -27.2230  -28.6630   20.9410 C   0  0  0  0  0  3  0  0  0  0  0  0
  -26.0610  -26.8480   19.8070 C   0  0  0  0  0  3  0  0  0  0  0  0
  -24.8750  -27.6030   19.7930 C   0  0  0  0  0  3  0  0  0  0  0  0
  -23.6470  -29.7770   20.3610 C   0  0  0  0  0  2  0  0  0  0  0  0
  -24.6910  -31.0650   22.2830 N   0  0  0  0  0  0  0  0  0  0  0  0
  -23.5510  -32.1600   23.9050 O   0  0  0  0  0  0  0  0  0  0  0  0
  -22.7570  -29.4620   22.6970 C   0  0  0  0  0  0  0  0  0  0  0  0
  -21.4420  -29.2650   22.5200 N   0  0  0  0  0  0  0  0  0  0  0  0
  -23.4130  -28.8680   23.5580 O   0  0  0  0  0  0  0  0  0  0  0  0
  -20.9840  -29.8000   21.7980 H   0  0  0  0  0  0  0  0  0  0  0  0
  -18.0720  -28.0060   22.8910 C   0  0  0  0  0  0  0  0  0  0  0  0
  -20.6020  -28.3470   23.2880 C   0  0  0  0  0  3  0  0  0  0  0  0
  -20.7710  -26.8910   22.7970 C   0  0  0  0  0  2  0  0  0  0  0  0
  -19.7360  -26.4900   21.7400 C   0  0  0  0  0  2  0  0  0  0  0  0
  -18.3200  -26.6280   22.2990 C   0  0  0  0  0  2  0  0  0  0  0  0
  -19.1460  -28.8180   23.3410 C   0  0  0  0  0  0  0  0  0  0  0  0
  -18.8600  -30.1010   23.8570 C   0  0  0  0  0  3  0  0  0  0  0  0
  -17.5360  -30.5690   23.9360 C   0  0  0  0  0  3  0  0  0  0  0  0
  -16.4760  -29.7560   23.4960 C   0  0  0  0  0  3  0  0  0  0  0  0
  -16.7450  -28.4790   22.9780 C   0  0  0  0  0  3  0  0  0  0  0  0
  -25.9210  -32.5030   23.9940 C   0  0  0  0  0  3  0  0  0  0  0  0
  -25.6330  -33.9150   24.2900 N   0  0  0  0  0  0  0  0  0  0  0  0
  -25.9880  -34.9460   23.5100 C   0  0  0  0  0  0  0  0  0  0  0  0
  -26.6670  -34.8120   22.4880 O   0  0  0  0  0  0  0  0  0  0  0  0
  -25.0350  -34.0940   25.0800 H   0  0  0  0  0  0  0  0  0  0  0  0
  -24.2850  -36.7450   23.0850 C   0  0  0  0  0  1  0  0  0  0  0  0
  -25.5090  -36.3500   23.9280 C   0  0  0  0  0  3  0  0  0  0  0  0
  -27.6350  -37.2200   24.7840 C   0  0  0  0  0  1  0  0  0  0  0  0
  -26.5580  -37.3890   23.8160 N   0  0  0  0  0  0  0  0  0  0  0  0
  -26.1630  -38.3160   23.9570 H   0  0  0  0  0  0  0  0  0  0  0  0
  -26.4150  -31.7510   25.2910 C   0  0  1  0  0  0  0  0  0  0  0  0
  -25.3110  -31.5320   26.3470 C   0  0  0  0  0  1  0  0  0  0  0  0
  -26.9900  -30.3650   24.9180 C   0  0  0  0  0  1  0  0  0  0  0  0
  -27.5570  -32.5460   25.9610 C   0  0  0  0  0  1  0  0  0  0  0  0
  -35.2690  -23.0480   21.0740 C   0  0  0  0  0  0  0  0  0  0  0  0
  -36.4970  -22.9440   21.0250 O   0  0  0  0  0  0  0  0  0  0  0  0
  -34.4350  -22.0320   21.8570 C   0  0  0  0  0  2  0  0  0  0  0  0
  -33.4350  -21.2260   20.9940 C   0  0  0  0  0  2  0  0  0  0  0  0
  -32.8380  -20.0350   21.7760 C   0  0  0  0  0  2  0  0  0  0  0  0
  -32.2680  -18.9350   20.8570 C   0  0  0  0  0  2  0  0  0  0  0  0
  -31.5190  -17.7690   21.5480 C   0  0  0  0  0  2  0  0  0  0  0  0
  -30.9670  -16.8150   20.4510 C   0  0  0  0  0  2  0  0  0  0  0  0
  -30.3330  -15.4550   20.9000 C   0  0  0  0  0  2  0  0  0  0  0  0
  -30.8000  -14.2400   20.0570 C   0  0  0  0  0  0  0  0  0  0  0  0
  -30.3480  -12.1130   18.8860 C   0  0  0  0  0  2  0  0  0  0  0  0
  -29.3420  -12.3330   17.7390 C   0  0  0  0  0  2  0  0  0  0  0  0
  -27.9010  -12.1850   18.2650 C   0  0  0  0  0  2  0  0  0  0  0  0
  -27.6480  -13.0450   19.5310 C   0  0  0  0  0  3  0  0  0  0  0  0
  -28.7630  -12.8340   20.5830 C   0  0  0  0  0  2  0  0  0  0  0  0
  -30.0570  -13.1050   19.9390 N   0  0  0  0  0  0  0  0  0  0  0  0
  -31.8560  -14.3620   19.4320 O   0  0  0  0  0  0  0  0  0  0  0  0
  -25.2880  -13.6720   20.3500 C   0  0  0  0  0  0  0  0  0  0  0  0
  -24.2420  -12.9140   20.7940 C   0  0  0  0  0  0  0  0  0  0  0  0
  -24.6990  -11.5610   20.7760 C   0  0  0  0  0  0  0  0  0  0  0  0
  -26.3210  -12.7880   20.0880 N   0  0  0  0  0  0  0  0  0  0  0  0
  -25.9740  -11.5130   20.4020 N   0  0  0  0  0  0  0  0  0  0  0  0
  -23.9890  -10.3020   21.0400 C   0  0  0  0  0  0  0  0  0  0  0  0
  -24.4530   -9.3800   22.0040 C   0  0  0  0  0  3  0  0  0  0  0  0
  -23.7400   -8.1880   22.2520 C   0  0  0  0  0  3  0  0  0  0  0  0
  -22.5530   -7.9090   21.5370 C   0  0  0  0  0  0  0  0  0  0  0  0
  -22.1090   -8.8190   20.5630 C   0  0  0  0  0  3  0  0  0  0  0  0
  -22.8190  -10.0050   20.3140 C   0  0  0  0  0  3  0  0  0  0  0  0
  -21.8110   -6.7620   21.6920 O   0  0  0  0  0  0  0  0  0  0  0  0
  -21.7800   -6.0810   22.8820 C   0  0  0  0  0  0  0  0  0  0  0  0
  -21.3580   -6.6960   24.0820 C   0  0  0  0  0  3  0  0  0  0  0  0
  -21.2720   -5.9430   25.2670 C   0  0  0  0  0  3  0  0  0  0  0  0
  -21.6000   -4.5710   25.2570 C   0  0  0  0  0  0  0  0  0  0  0  0
  -22.0130   -3.9570   24.0630 C   0  0  0  0  0  3  0  0  0  0  0  0
  -22.0990   -4.7080   22.8790 C   0  0  0  0  0  0  0  0  0  0  0  0
  -22.4800   -4.1050   21.7260 F   0  0  0  0  0  0  0  0  0  0  0  0
  -21.5080   -3.8450   26.3950 F   0  0  0  0  0  0  0  0  0  0  0  0
  -22.8610  -13.3990   21.1290 C   0  0  0  0  0  0  0  0  0  0  0  0
  -22.1830  -12.7280   22.0490 N   0  0  0  0  0  0  0  0  0  0  0  0
  -22.3970  -14.4100   20.6050 O   0  0  0  0  0  0  0  0  0  0  0  0
  -22.5740  -11.9090   22.4900 H   0  0  0  0  0  0  0  0  0  0  0  0
  -21.2610  -13.0420   22.3200 H   0  0  0  0  0  0  0  0  0  0  0  0
  -25.4470  -15.0390   20.1280 N   0  0  0  0  0  0  0  0  0  0  0  0
  -24.6940  -15.7020   20.2710 H   0  0  0  0  0  0  0  0  0  0  0  0
  -26.2850  -15.4640   19.7480 H   0  0  0  0  0  0  0  0  0  0  0  0
  -32.0700  -26.7370   21.0990 O   0  0  0  0  0  0  0  0  0  0  0  0
  -31.9560  -26.4500   21.9990 H   0  0  0  0  0  0  0  0  0  0  0  0
  1  4  1  0
  2  5  1  0
  2  1  2  0
  4  3  2  0
  4 54  1  0
  5  6  2  0
  6  3  1  0
  6 99  1  0
  7  8  1  0
  7  5  1  0
  8 10  1  0
  9  7  2  0
 11  8  1  0
 11 12  1  0
 12 13  1  0
 13 15  1  0
 14 25  2  0
 15 20  1  0
 16 24  1  0
 16 26  1  0
 17 23  1  0
 17 19  1  0
 18 24  1  0
 19 20  2  0
 19 18  1  0
 21 15  2  0
 22 21  1  0
 22 17  2  0
 23 16  1  0
 24 14  1  0
 26 28  2  0
 27 26  1  0
 29 27  1  0
 30 39  2  0
 30 35  1  0
 31 27  1  0
 31 35  1  0
 32 31  1  0
 33 34  1  0
 33 32  1  0
 34 30  1  0
 35 36  2  0
 36 37  1  0
 38 37  2  0
 39 38  1  0
 40 14  1  0
 40 41  1  0
 40 50  1  0
 41 44  1  0
 42 46  1  0
 42 41  1  0
 43 42  2  0
 46 45  1  0
 48 46  1  0
 48 49  1  0
 48 47  1  0
 50 53  1  1
 50 51  1  0
 52 50  1  0
 54 56  1  0
 55 54  2  0
 57 58  1  0
 57 56  1  0
 59 60  1  0
 59 58  1  0
 61 62  1  0
 61 60  1  0
 63 62  1  0
 64 69  1  0
 65 66  1  0
 65 64  1  0
 67 66  1  0
 67 74  1  0
 67 68  1  0
 69 63  1  0
 69 68  1  0
 70 63  2  0
 71 72  2  0
 72 91  1  0
 73 72  1  0
 73 76  1  0
 74 71  1  0
 74 75  1  0
 75 73  2  0
 76 77  1  0
 77 78  2  0
 79 82  1  0
 79 78  1  0
 80 79  2  0
 81 80  1  0
 81 76  2  0
 82 83  1  0
 83 84  1  0
 84 85  2  0
 86 85  1  0
 86 90  1  0
 87 86  2  0
 88 83  2  0
 88 87  1  0
 89 88  1  0
 91 92  1  0
 92 95  1  0
 92 94  1  0
 93 91  2  0
 96 97  1  0
 96 71  1  0
 98 96  1  0
 99100  1  0
M  ISO  4  12 101  13 101  62 100  63 100
M  END
>  <TORSDO>  (40) 
F 28

>  <SCORE>  (40) 
-9.424

>  <name>  (40) 
39

>  <ligand_id>  (40) 
39

>  <original_smiles>  (40) 
[H]Oc1c([H])c(C(=O)C([H])([H])C([H])([H])C([H])([H])C([H])([H])C([H])([H])C([H])([H])C([H])([H])C(=O)N2C([H])([H])C([H])([H])C([H])([H])C([H])(n3nc(-c4c([H])c([H])c(Oc5c([H])c([H])c(F)c([H])c5F)c([H])c4[H])c(C(=O)N([H])[H])c3N([H])[H])C2([H])[H])c([H])c([H])c1C(=O)N([H])C([H])([H])C([H])([H])Oc1c([H])c([H])c2c(c1[H])C([H])([H])N(C(=O)C([H])(N([H])C(=O)C([H])(N([H])C([H])([H])[H])C([H])([H])[H])C(C([H])([H])[H])(C([H])([H])[H])C([H])([H])[H])C([H])(C(=O)N([H])C1([H])c3c([H])c([H])c([H])c([H])c3C([H])([H])C([H])([H])C1([H])[H])C2([H])[H]

>  <smiles>  (40) 
[H]Oc1c([H])c(C(=O)C([H])([H])C([H])([H])C([H])([H])C([H])([H])C([H])([H])C([H])([H])C([H])([H])C(=O)N2C([H])([H])C([H])([H])C([H])([H])C([H])(n3nc(-c4c([H])c([H])c(Oc5c([H])c([H])c(F)c([H])c5F)c([H])c4[H])c(C(=O)N([H])[H])c3N([H])[H])C2([H])[H])c([H])c([H])c1C(=O)N([H])C([H])([H])C([H])([H])Oc1c([H])c([H])c2c(c1[H])C([H])([H])N(C(=O)C([H])(N([H])C(=O)C([H])(N([H])C([H])([H])[H])C([H])([H])[H])C(C([H])([H])[H])(C([H])([H])[H])C([H])([H])[H])C([H])(C(=O)N([H])C1([H])c3c([H])c([H])c([H])c([H])c3C([H])([H])C([H])([H])C1([H])[H])C2([H])[H]

$$$$
40:0:0
     RDKit          3D

 95103  0  0  1  0  0  0  0  0999 V2000
  -27.6950  -20.9260   20.6900 C   0  0  0  0  0  3  0  0  0  0  0  0
  -29.1020  -21.8810   18.9410 C   0  0  0  0  0  3  0  0  0  0  0  0
  -27.6940  -22.1580   21.3700 C   0  0  0  0  0  3  0  0  0  0  0  0
  -29.0770  -23.1210   19.6080 C   0  0  0  0  0  3  0  0  0  0  0  0
  -28.4300  -20.7670   19.4900 C   0  0  0  0  0  0  0  0  0  0  0  0
  -28.3850  -23.2560   20.8300 C   0  0  0  0  0  0  0  0  0  0  0  0
  -28.5080  -19.4540   18.7860 C   0  0  0  0  0  0  0  0  0  0  0  0
  -28.3880  -19.3440   17.5620 O   0  0  0  0  0  0  0  0  0  0  0  0
  -28.7950  -18.2000   19.6190 C   0  0  0  0  0  2  0  0  0  0  0  0
  -30.2950  -17.9840   19.9250 C   0  0  0  0  0  2  0  0  0  0  0  0
  -30.7980  -16.5500   19.7050 C   0  0  0  0  0  2  0  0  0  0  0  0
  -30.6530  -15.6800   20.9680 C   0  0  0  0  0  2  0  0  0  0  0  0
  -31.9430  -14.9270   21.3230 C   0  0  0  0  0  2  0  0  0  0  0  0
  -32.7580  -12.7590   20.3830 C   0  0  0  0  0  0  0  0  0  0  0  0
  -32.2730  -10.4060   20.9260 C   0  0  0  0  0  2  0  0  0  0  0  0
  -31.4440   -9.7420   19.8070 C   0  0  0  0  0  2  0  0  0  0  0  0
  -29.9360   -9.9820   20.0090 C   0  0  0  0  0  2  0  0  0  0  0  0
  -29.6050  -11.4690   20.2970 C   0  0  0  0  0  3  0  0  0  0  0  0
  -30.5370  -12.0260   21.3890 C   0  0  0  0  0  2  0  0  0  0  0  0
  -31.9370  -11.8370   20.9630 N   0  0  0  0  0  0  0  0  0  0  0  0
  -33.8270  -12.4680   19.8470 O   0  0  0  0  0  0  0  0  0  0  0  0
  -32.2990  -14.0070   20.2470 N   0  0  0  0  0  0  0  0  0  0  0  0
  -32.7800  -14.4860   19.5000 H   0  0  0  0  0  0  0  0  0  0  0  0
  -27.4800  -12.8120   20.8560 C   0  0  0  0  0  0  0  0  0  0  0  0
  -26.1920  -12.4270   21.1120 C   0  0  0  0  0  0  0  0  0  0  0  0
  -26.1910  -10.9990   21.0510 C   0  0  0  0  0  0  0  0  0  0  0  0
  -28.2000  -11.6430   20.6610 N   0  0  0  0  0  0  0  0  0  0  0  0
  -27.4200  -10.5450   20.8280 N   0  0  0  0  0  0  0  0  0  0  0  0
  -25.0800  -10.0430   21.1340 C   0  0  0  0  0  0  0  0  0  0  0  0
  -25.0890   -8.9840   22.0670 C   0  0  0  0  0  3  0  0  0  0  0  0
  -24.0010   -8.0870   22.1440 C   0  0  0  0  0  3  0  0  0  0  0  0
  -22.8890   -8.2460   21.2830 C   0  0  0  0  0  0  0  0  0  0  0  0
  -22.8960   -9.2900   20.3420 C   0  0  0  0  0  3  0  0  0  0  0  0
  -23.9800  -10.1790   20.2650 C   0  0  0  0  0  3  0  0  0  0  0  0
  -21.8050   -7.4020   21.2640 O   0  0  0  0  0  0  0  0  0  0  0  0
  -21.3970   -6.7290   22.3870 C   0  0  0  0  0  0  0  0  0  0  0  0
  -21.0560   -7.4080   23.5760 C   0  0  0  0  0  3  0  0  0  0  0  0
  -20.5750   -6.6850   24.6850 C   0  0  0  0  0  3  0  0  0  0  0  0
  -20.4200   -5.2880   24.6040 C   0  0  0  0  0  0  0  0  0  0  0  0
  -20.7500   -4.6110   23.4160 C   0  0  0  0  0  3  0  0  0  0  0  0
  -21.2340   -5.3310   22.3090 C   0  0  0  0  0  0  0  0  0  0  0  0
  -21.5320   -4.6770   21.1600 F   0  0  0  0  0  0  0  0  0  0  0  0
  -19.9460   -4.5930   25.6630 F   0  0  0  0  0  0  0  0  0  0  0  0
  -25.0100  -13.3300   21.3050 C   0  0  0  0  0  0  0  0  0  0  0  0
  -24.0600  -12.9270   22.1400 N   0  0  0  0  0  0  0  0  0  0  0  0
  -24.9490  -14.4300   20.7540 O   0  0  0  0  0  0  0  0  0  0  0  0
  -24.1270  -12.0450   22.6250 H   0  0  0  0  0  0  0  0  0  0  0  0
  -23.2630  -13.5200   22.3200 H   0  0  0  0  0  0  0  0  0  0  0  0
  -28.0850  -14.0560   20.7480 N   0  0  0  0  0  0  0  0  0  0  0  0
  -27.5680  -14.9230   20.8320 H   0  0  0  0  0  0  0  0  0  0  0  0
  -29.0610  -14.2130   20.5280 H   0  0  0  0  0  0  0  0  0  0  0  0
  -28.3530  -24.5970   21.5230 C   0  0  0  0  0  2  0  0  0  0  0  0
  -29.7490  -25.1230   21.8940 C   0  0  0  0  0  2  0  0  0  0  0  0
  -29.8670  -26.6530   21.8220 C   0  0  0  0  0  2  0  0  0  0  0  0
  -29.4740  -27.1100   20.5280 O   0  0  0  0  0  0  0  0  0  0  0  0
  -24.9360  -31.8020   23.3880 C   0  0  0  0  0  0  0  0  0  0  0  0
  -28.2520  -27.7360   20.4750 C   0  0  0  0  0  0  0  0  0  0  0  0
  -24.0070  -30.3140   21.6410 C   0  0  0  0  0  3  0  0  0  0  0  0
  -25.7170  -28.9560   20.3230 C   0  0  0  0  0  0  0  0  0  0  0  0
  -26.4890  -30.9280   21.6520 C   0  0  0  0  0  2  0  0  0  0  0  0
  -26.7570  -29.5850   21.0170 C   0  0  0  0  0  0  0  0  0  0  0  0
  -28.0260  -28.9760   21.1070 C   0  0  0  0  0  3  0  0  0  0  0  0
  -27.2090  -27.1300   19.7440 C   0  0  0  0  0  3  0  0  0  0  0  0
  -25.9330  -27.7180   19.6890 C   0  0  0  0  0  3  0  0  0  0  0  0
  -24.3940  -29.6840   20.2760 C   0  0  0  0  0  2  0  0  0  0  0  0
  -25.1560  -31.0300   22.2870 N   0  0  0  0  0  0  0  0  0  0  0  0
  -23.7940  -31.9600   23.8410 O   0  0  0  0  0  0  0  0  0  0  0  0
  -23.3900  -29.2160   22.5360 C   0  0  0  0  0  0  0  0  0  0  0  0
  -22.1170  -28.8820   22.2750 N   0  0  0  0  0  0  0  0  0  0  0  0
  -24.0570  -28.6720   23.4210 O   0  0  0  0  0  0  0  0  0  0  0  0
  -21.6400  -29.3810   21.5370 H   0  0  0  0  0  0  0  0  0  0  0  0
  -18.8520  -27.3470   22.4770 C   0  0  0  0  0  0  0  0  0  0  0  0
  -21.3390  -27.8520   22.9650 C   0  0  0  0  0  3  0  0  0  0  0  0
  -21.6330  -26.4500   22.3840 C   0  0  0  0  0  2  0  0  0  0  0  0
  -20.6580  -26.0400   21.2780 C   0  0  0  0  0  2  0  0  0  0  0  0
  -19.2200  -26.0350   21.8040 C   0  0  0  0  0  2  0  0  0  0  0  0
  -19.8490  -28.2080   23.0080 C   0  0  0  0  0  0  0  0  0  0  0  0
  -19.4560  -29.4320   23.5920 C   0  0  0  0  0  3  0  0  0  0  0  0
  -18.0980  -29.7980   23.6510 C   0  0  0  0  0  3  0  0  0  0  0  0
  -17.1150  -28.9360   23.1380 C   0  0  0  0  0  3  0  0  0  0  0  0
  -17.4920  -27.7110   22.5570 C   0  0  0  0  0  3  0  0  0  0  0  0
  -26.1040  -32.5410   24.1140 C   0  0  0  0  0  3  0  0  0  0  0  0
  -26.5510  -31.8370   25.4540 C   0  0  1  0  0  0  0  0  0  0  0  0
  -25.3700  -31.4540   26.3770 C   0  0  0  0  0  1  0  0  0  0  0  0
  -27.3520  -30.5490   25.1520 C   0  0  0  0  0  1  0  0  0  0  0  0
  -27.4990  -32.7700   26.2460 C   0  0  0  0  0  1  0  0  0  0  0  0
  -25.6640  -33.9200   24.3660 N   0  0  0  0  0  0  0  0  0  0  0  0
  -25.9800  -34.9680   23.5950 C   0  0  0  0  0  0  0  0  0  0  0  0
  -26.7410  -34.8860   22.6280 O   0  0  0  0  0  0  0  0  0  0  0  0
  -24.9980  -34.0570   25.1110 H   0  0  0  0  0  0  0  0  0  0  0  0
  -24.1300  -36.5820   23.0590 C   0  0  0  0  0  1  0  0  0  0  0  0
  -25.3500  -36.3260   23.9580 C   0  0  0  0  0  3  0  0  0  0  0  0
  -27.3580  -37.4190   24.8510 C   0  0  0  0  0  1  0  0  0  0  0  0
  -26.2950  -37.4590   23.8510 N   0  0  0  0  0  0  0  0  0  0  0  0
  -25.8070  -38.3450   23.9410 H   0  0  0  0  0  0  0  0  0  0  0  0
  1  3  1  0
  2  5  1  0
  2  4  2  0
  4  6  1  0
  5  1  2  0
  6  3  2  0
  6 52  1  0
  7  5  1  0
  7  9  1  0
  8  7  2  0
  9 10  1  0
 11 10  1  0
 11 12  1  0
 12 13  1  0
 14 20  1  0
 15 20  1  0
 16 17  1  0
 16 15  1  0
 18 17  1  0
 18 27  1  0
 18 19  1  0
 20 19  1  0
 21 14  2  0
 22 14  1  0
 22 13  1  0
 23 22  1  0
 24 25  2  0
 25 44  1  0
 26 25  1  0
 26 29  1  0
 27 28  1  0
 27 24  1  0
 28 26  2  0
 29 30  1  0
 30 31  2  0
 32 31  1  0
 33 32  2  0
 34 33  1  0
 34 29  2  0
 35 32  1  0
 35 36  1  0
 36 37  1  0
 37 38  2  0
 39 38  1  0
 39 43  1  0
 40 39  2  0
 41 36  2  0
 41 40  1  0
 42 41  1  0
 44 45  1  0
 45 48  1  0
 45 47  1  0
 46 44  2  0
 49 50  1  0
 49 24  1  0
 51 49  1  0
 52 53  1  0
 54 53  1  0
 55 54  1  0
 56 67  2  0
 57 55  1  0
 57 62  1  0
 58 66  1  0
 58 68  1  0
 59 61  1  0
 60 66  1  0
 61 62  2  0
 61 60  1  0
 63 57  2  0
 64 63  1  0
 64 59  2  0
 65 59  1  0
 65 58  1  0
 66 56  1  0
 68 70  2  0
 69 68  1  0
 71 69  1  0
 72 81  2  0
 72 77  1  0
 73 69  1  0
 73 77  1  0
 74 73  1  0
 75 76  1  0
 75 74  1  0
 76 72  1  0
 77 78  2  0
 78 79  1  0
 80 79  2  0
 81 80  1  0
 82 56  1  0
 82 87  1  0
 82 83  1  0
 83 86  1  1
 83 84  1  0
 85 83  1  0
 87 90  1  0
 88 92  1  0
 88 87  1  0
 89 88  2  0
 92 91  1  0
 94 95  1  0
 94 92  1  0
 94 93  1  0
M  ISO  4  14 100  22 100  54 101  55 101
M  END
>  <TORSDO>  (41) 
F 25

>  <SCORE>  (41) 
-9.915

>  <name>  (41) 
40

>  <ligand_id>  (41) 
40

>  <original_smiles>  (41) 
[H]c1c([H])c([H])c2c(c1[H])C([H])([H])C([H])([H])C([H])([H])C2([H])N([H])C(=O)C1([H])N(C(=O)C([H])(N([H])C(=O)C([H])(N([H])C([H])([H])[H])C([H])([H])[H])C(C([H])([H])[H])(C([H])([H])[H])C([H])([H])[H])C([H])([H])c2c([H])c(OC([H])([H])C([H])([H])C([H])([H])c3c([H])c([H])c(C(=O)C([H])([H])C([H])([H])C([H])([H])C([H])([H])C([H])([H])N([H])C(=O)N4C([H])([H])C([H])([H])C([H])([H])C([H])(n5nc(-c6c([H])c([H])c(Oc7c([H])c([H])c(F)c([H])c7F)c([H])c6[H])c(C(=O)N([H])[H])c5N([H])[H])C4([H])[H])c([H])c3[H])c([H])c([H])c2C1([H])[H]

>  <smiles>  (41) 
[H]c1c([H])c([H])c2c(c1[H])C([H])([H])C([H])([H])C([H])([H])C2([H])N([H])C(=O)C1([H])N(C(=O)C([H])(N([H])C(=O)C([H])(N([H])C([H])([H])[H])C([H])([H])[H])C(C([H])([H])[H])(C([H])([H])[H])C([H])([H])[H])C([H])([H])c2c([H])c(OC([H])([H])C([H])([H])C([H])([H])c3c([H])c([H])c(C(=O)C([H])([H])C([H])([H])C([H])([H])C([H])([H])C([H])([H])N([H])C(=O)N4C([H])([H])C([H])([H])C([H])([H])C([H])(n5nc(-c6c([H])c([H])c(Oc7c([H])c([H])c(F)c([H])c7F)c([H])c6[H])c(C(=O)N([H])[H])c5N([H])[H])C4([H])[H])c([H])c3[H])c([H])c([H])c2C1([H])[H]

$$$$
41:0:0
     RDKit          3D

 95103  0  0  1  0  0  0  0  0999 V2000
  -25.9170  -27.1570   12.9570 C   0  0  0  0  0  3  0  0  0  0  0  0
  -26.5450  -28.4000   12.7630 C   0  0  0  0  0  3  0  0  0  0  0  0
  -25.5810  -26.3580   11.8490 C   0  0  0  0  0  3  0  0  0  0  0  0
  -26.5410  -28.0290   10.3520 C   0  0  0  0  0  3  0  0  0  0  0  0
  -26.8910  -28.8300   11.4640 C   0  0  0  0  0  0  0  0  0  0  0  0
  -25.8670  -26.8010   10.5410 C   0  0  0  0  0  0  0  0  0  0  0  0
  -27.6050  -30.1650   11.2800 C   0  0  0  0  0  2  0  0  0  0  0  0
  -29.0450  -30.0250   10.7300 C   0  0  0  0  0  2  0  0  0  0  0  0
  -29.7140  -28.6740   11.0850 C   0  0  0  0  0  2  0  0  0  0  0  0
  -30.9660  -28.4820   10.4080 O   0  0  0  0  0  0  0  0  0  0  0  0
  -37.6270  -30.3700    8.7430 C   0  0  0  0  0  0  0  0  0  0  0  0
  -31.9950  -29.3790   10.6390 C   0  0  0  0  0  0  0  0  0  0  0  0
  -36.6590  -31.4860   10.7210 C   0  0  0  0  0  3  0  0  0  0  0  0
  -34.1550  -31.1620   11.0580 C   0  0  0  0  0  0  0  0  0  0  0  0
  -35.1520  -30.6510    8.8270 C   0  0  0  0  0  2  0  0  0  0  0  0
  -34.0630  -30.4450    9.8600 C   0  0  0  0  0  0  0  0  0  0  0  0
  -32.9820  -29.5580    9.6440 C   0  0  0  0  0  3  0  0  0  0  0  0
  -32.1060  -30.1220   11.8410 C   0  0  0  0  0  3  0  0  0  0  0  0
  -33.1810  -30.9990   12.0550 C   0  0  0  0  0  3  0  0  0  0  0  0
  -35.3250  -32.1030   11.2150 C   0  0  0  0  0  2  0  0  0  0  0  0
  -36.5120  -30.7890    9.4040 N   0  0  0  0  0  0  0  0  0  0  0  0
  -38.7610  -30.5870    9.1950 O   0  0  0  0  0  0  0  0  0  0  0  0
  -37.2180  -30.5730   11.8360 C   0  0  0  0  0  0  0  0  0  0  0  0
  -37.8450  -31.1860   12.8530 N   0  0  0  0  0  0  0  0  0  0  0  0
  -37.0650  -29.3490   11.7870 O   0  0  0  0  0  0  0  0  0  0  0  0
  -37.9340  -32.1910   12.8220 H   0  0  0  0  0  0  0  0  0  0  0  0
  -40.1040  -31.6580   15.6270 C   0  0  0  0  0  0  0  0  0  0  0  0
  -38.4200  -30.5310   14.0250 C   0  0  0  0  0  3  0  0  0  0  0  0
  -37.4290  -30.5520   15.2130 C   0  0  0  0  0  2  0  0  0  0  0  0
  -37.6270  -31.7510   16.1470 C   0  0  0  0  0  2  0  0  0  0  0  0
  -39.0490  -31.7580   16.7150 C   0  0  0  0  0  2  0  0  0  0  0  0
  -39.8060  -31.0950   14.3590 C   0  0  0  0  0  0  0  0  0  0  0  0
  -40.8150  -31.0580   13.3720 C   0  0  0  0  0  3  0  0  0  0  0  0
  -42.1020  -31.5630   13.6380 C   0  0  0  0  0  3  0  0  0  0  0  0
  -42.3950  -32.1050   14.9020 C   0  0  0  0  0  3  0  0  0  0  0  0
  -41.3990  -32.1490   15.8930 C   0  0  0  0  0  3  0  0  0  0  0  0
  -37.5340  -29.6200    7.3790 C   0  0  0  0  0  3  0  0  0  0  0  0
  -38.7740  -28.6840    7.0970 C   0  0  1  0  0  0  0  0  0  0  0  0
  -40.1370  -29.3770    7.3290 C   0  0  0  0  0  1  0  0  0  0  0  0
  -38.7260  -27.4300    7.9990 C   0  0  0  0  0  1  0  0  0  0  0  0
  -38.7290  -28.1800    5.6360 C   0  0  0  0  0  1  0  0  0  0  0  0
  -37.4000  -30.6360    6.3270 N   0  0  0  0  0  0  0  0  0  0  0  0
  -36.2360  -31.0160    5.7820 C   0  0  0  0  0  0  0  0  0  0  0  0
  -35.1570  -30.4890    6.0680 O   0  0  0  0  0  0  0  0  0  0  0  0
  -38.2320  -31.1550    6.0880 H   0  0  0  0  0  0  0  0  0  0  0  0
  -35.8230  -33.4720    5.4280 C   0  0  0  0  0  1  0  0  0  0  0  0
  -36.2760  -32.1650    4.7580 C   0  0  0  0  0  3  0  0  0  0  0  0
  -36.0350  -30.9190    2.6560 C   0  0  0  0  0  1  0  0  0  0  0  0
  -35.4520  -31.9100    3.5560 N   0  0  0  0  0  0  0  0  0  0  0  0
  -35.3040  -32.7670    3.0320 H   0  0  0  0  0  0  0  0  0  0  0  0
  -25.4270  -25.9650    9.3460 C   0  0  0  0  0  2  0  0  0  0  0  0
  -25.2100  -23.7050   10.4870 C   0  0  0  0  0  1  0  0  0  0  0  0
  -25.9390  -24.5060    9.3930 C   0  0  0  0  0  3  0  0  0  0  0  0
  -25.8100  -23.8060    8.0210 C   0  0  0  0  0  2  0  0  0  0  0  0
  -26.2780  -22.3300    8.0520 C   0  0  0  0  0  2  0  0  0  0  0  0
  -27.0120  -21.8500    6.7590 C   0  0  0  0  0  2  0  0  0  0  0  0
  -26.5700  -21.9590    5.2620 C   0  0  0  0  0  2  0  0  0  0  0  0
  -25.7600  -20.1440    3.7040 C   0  0  0  0  0  0  0  0  0  0  0  0
  -26.5050  -17.9470    2.8830 C   0  0  0  0  0  2  0  0  0  0  0  0
  -26.2130  -16.8760    3.9540 C   0  0  0  0  0  2  0  0  0  0  0  0
  -27.3730  -16.7790    4.9640 C   0  0  0  0  0  2  0  0  0  0  0  0
  -27.8140  -18.1650    5.5050 C   0  0  0  0  0  3  0  0  0  0  0  0
  -28.0040  -19.1630    4.3460 C   0  0  0  0  0  2  0  0  0  0  0  0
  -26.7500  -19.2180    3.5820 N   0  0  0  0  0  0  0  0  0  0  0  0
  -24.7360  -20.1290    3.0200 O   0  0  0  0  0  0  0  0  0  0  0  0
  -25.7220  -20.8280    4.8550 N   0  0  0  0  0  0  0  0  0  0  0  0
  -24.7590  -20.9990    5.1030 H   0  0  0  0  0  0  0  0  0  0  0  0
  -29.1510  -17.6330    7.6390 C   0  0  0  0  0  0  0  0  0  0  0  0
  -30.4940  -17.6690    7.9070 C   0  0  0  0  0  0  0  0  0  0  0  0
  -31.1230  -18.1270    6.7120 C   0  0  0  0  0  0  0  0  0  0  0  0
  -29.0160  -18.0650    6.3280 N   0  0  0  0  0  0  0  0  0  0  0  0
  -30.2130  -18.4130    5.7900 N   0  0  0  0  0  0  0  0  0  0  0  0
  -32.5460  -18.2540    6.3690 C   0  0  0  0  0  0  0  0  0  0  0  0
  -33.4460  -18.9460    7.2070 C   0  0  0  0  0  3  0  0  0  0  0  0
  -34.8120  -19.0440    6.8630 C   0  0  0  0  0  3  0  0  0  0  0  0
  -35.2890  -18.4430    5.6740 C   0  0  0  0  0  0  0  0  0  0  0  0
  -34.3830  -17.7750    4.8320 C   0  0  0  0  0  3  0  0  0  0  0  0
  -33.0240  -17.6840    5.1720 C   0  0  0  0  0  3  0  0  0  0  0  0
  -36.5940  -18.5070    5.2470 O   0  0  0  0  0  0  0  0  0  0  0  0
  -37.4340  -17.4260    5.3350 C   0  0  0  0  0  0  0  0  0  0  0  0
  -37.3540  -16.3430    4.4340 C   0  0  0  0  0  3  0  0  0  0  0  0
  -38.2810  -15.2860    4.5200 C   0  0  0  0  0  3  0  0  0  0  0  0
  -39.2960  -15.3140    5.4950 C   0  0  0  0  0  0  0  0  0  0  0  0
  -39.3810  -16.3960    6.3890 C   0  0  0  0  0  3  0  0  0  0  0  0
  -38.4560  -17.4500    6.3070 C   0  0  0  0  0  0  0  0  0  0  0  0
  -38.5550  -18.5000    7.1580 F   0  0  0  0  0  0  0  0  0  0  0  0
  -40.1920  -14.3020    5.5720 F   0  0  0  0  0  0  0  0  0  0  0  0
  -31.1620  -17.2170    9.1740 C   0  0  0  0  0  0  0  0  0  0  0  0
  -32.2870  -17.8340    9.5240 N   0  0  0  0  0  0  0  0  0  0  0  0
  -30.6670  -16.3440    9.8830 O   0  0  0  0  0  0  0  0  0  0  0  0
  -32.6830  -18.5640    8.9500 H   0  0  0  0  0  0  0  0  0  0  0  0
  -32.7550  -17.5760   10.3800 H   0  0  0  0  0  0  0  0  0  0  0  0
  -28.0440  -17.2530    8.3870 N   0  0  0  0  0  0  0  0  0  0  0  0
  -28.1080  -16.9170    9.3400 H   0  0  0  0  0  0  0  0  0  0  0  0
  -27.0900  -17.3650    8.0640 H   0  0  0  0  0  0  0  0  0  0  0  0
  2  1  1  0
  3  1  2  0
  4  6  2  0
  4  5  1  0
  5  2  2  0
  6  3  1  0
  7  5  1  0
  8  9  1  0
  8  7  1  0
 10 12  1  0
 10  9  1  0
 11 22  2  0
 11 21  1  0
 12 18  1  0
 13 20  1  0
 13 23  1  0
 14 20  1  0
 14 19  1  0
 15 21  1  0
 15 16  1  0
 16 14  2  0
 17 16  1  0
 17 12  2  0
 18 19  2  0
 21 13  1  0
 23 24  1  0
 25 23  2  0
 26 24  1  0
 27 36  1  0
 27 31  1  0
 28 24  1  0
 28 32  1  0
 28 29  1  0
 29 30  1  0
 30 31  1  0
 32 27  2  0
 33 34  2  0
 33 32  1  0
 34 35  1  0
 35 36  2  0
 37 11  1  0
 38 39  1  6
 38 37  1  0
 38 40  1  0
 41 38  1  0
 42 37  1  0
 43 44  2  0
 43 42  1  0
 45 42  1  0
 47 46  1  0
 47 43  1  0
 48 49  1  0
 49 47  1  0
 50 49  1  0
 51 53  1  0
 51  6  1  0
 53 52  1  0
 54 55  1  0
 54 53  1  0
 56 55  1  0
 57 56  1  0
 58 66  1  0
 59 64  1  0
 59 60  1  0
 60 61  1  0
 61 62  1  0
 62 63  1  0
 62 71  1  0
 64 58  1  0
 64 63  1  0
 65 58  2  0
 66 67  1  0
 66 57  1  0
 68 69  2  0
 68 93  1  0
 69 88  1  0
 70 69  1  0
 71 68  1  0
 72 71  1  0
 72 70  2  0
 73 70  1  0
 73 74  1  0
 75 74  2  0
 76 75  1  0
 77 78  1  0
 77 76  2  0
 78 73  2  0
 79 80  1  0
 79 76  1  0
 80 85  1  0
 81 82  1  0
 81 80  2  0
 82 83  2  0
 83 87  1  0
 83 84  1  0
 85 84  2  0
 85 86  1  0
 88 89  1  0
 88 90  2  0
 89 92  1  0
 91 89  1  0
 93 94  1  0
 95 93  1  0
M  ISO  4   9 101  10 101  58 100  66 100
M  END
>  <TORSDO>  (42) 
F 25

>  <SCORE>  (42) 
-1.645

>  <name>  (42) 
41

>  <ligand_id>  (42) 
41

>  <original_smiles>  (42) 
[H]c1c([H])c([H])c2c(c1[H])C([H])([H])C([H])([H])C([H])([H])C2([H])N([H])C(=O)C1([H])N(C(=O)C([H])(N([H])C(=O)C([H])(N([H])C([H])([H])[H])C([H])([H])[H])C(C([H])([H])[H])(C([H])([H])[H])C([H])([H])[H])C([H])([H])c2c([H])c(OC([H])([H])C([H])([H])C([H])([H])c3c([H])c([H])c([H])c(C([H])([H])C([H])(C([H])([H])[H])C([H])([H])C([H])([H])C([H])([H])C([H])([H])N([H])C(=O)N4C([H])([H])C([H])([H])C([H])([H])C([H])(n5nc(-c6c([H])c([H])c(Oc7c([H])c([H])c(F)c([H])c7F)c([H])c6[H])c(C(=O)N([H])[H])c5N([H])[H])C4([H])[H])c3[H])c([H])c([H])c2C1([H])[H]

>  <smiles>  (42) 
[H]c1c([H])c([H])c2c(c1[H])C([H])([H])C([H])([H])C([H])([H])C2([H])N([H])C(=O)C1([H])N(C(=O)C([H])(N([H])C(=O)C([H])(N([H])C([H])([H])[H])C([H])([H])[H])C(C([H])([H])[H])(C([H])([H])[H])C([H])([H])[H])C([H])([H])c2c([H])c(OC([H])([H])C([H])([H])C([H])([H])c3c([H])c([H])c([H])c(C([H])([H])C([H])(C([H])([H])[H])C([H])([H])C([H])([H])C([H])([H])C([H])([H])N([H])C(=O)N4C([H])([H])C([H])([H])C([H])([H])C([H])(n5nc(-c6c([H])c([H])c(Oc7c([H])c([H])c(F)c([H])c7F)c([H])c6[H])c(C(=O)N([H])[H])c5N([H])[H])C4([H])[H])c3[H])c([H])c([H])c2C1([H])[H]

$$$$
42:0:0
     RDKit          3D

 92 99  0  0  1  0  0  0  0  0999 V2000
  -29.6360  -21.8940   21.2640 C   0  0  0  0  0  3  0  0  0  0  0  0
  -28.6410  -22.0250   23.5600 C   0  0  0  0  0  1  0  0  0  0  0  0
  -28.6100  -21.4070   22.2190 N   0  0  0  0  0  4  0  0  0  0  0  0
  -27.6920  -21.5150   21.8210 H   0  0  0  0  0  0  0  0  0  0  0  0
  -28.7550  -20.4200   22.3560 H   0  0  0  0  0  0  0  0  0  0  0  0
  -29.9160  -20.7910   20.2180 C   0  0  0  0  0  2  0  0  0  0  0  0
  -30.9140  -19.7360   20.7400 C   0  0  0  0  0  2  0  0  0  0  0  0
  -30.6410  -18.3030   20.2560 C   0  0  0  0  0  2  0  0  0  0  0  0
  -31.4520  -17.2730   21.0620 C   0  0  0  0  0  2  0  0  0  0  0  0
  -31.6570  -14.9850   20.0180 C   0  0  0  0  0  0  0  0  0  0  0  0
  -31.3470  -12.7670   18.9750 C   0  0  0  0  0  2  0  0  0  0  0  0
  -30.3730  -12.8760   17.7840 C   0  0  0  0  0  2  0  0  0  0  0  0
  -28.9040  -12.7860   18.2490 C   0  0  0  0  0  2  0  0  0  0  0  0
  -28.6030  -13.7320   19.4420 C   0  0  0  0  0  3  0  0  0  0  0  0
  -29.6660  -13.5400   20.5450 C   0  0  0  0  0  2  0  0  0  0  0  0
  -30.9900  -13.8070   19.9490 N   0  0  0  0  0  0  0  0  0  0  0  0
  -32.7140  -15.2130   19.4180 O   0  0  0  0  0  0  0  0  0  0  0  0
  -31.0400  -15.9070   20.7720 N   0  0  0  0  0  0  0  0  0  0  0  0
  -30.1760  -15.6000   21.1980 H   0  0  0  0  0  0  0  0  0  0  0  0
  -26.2640  -14.4670   20.2330 C   0  0  0  0  0  0  0  0  0  0  0  0
  -25.1670  -13.7500   20.6320 C   0  0  0  0  0  0  0  0  0  0  0  0
  -25.5520  -12.3750   20.5690 C   0  0  0  0  0  0  0  0  0  0  0  0
  -27.2510  -13.5320   19.9590 N   0  0  0  0  0  0  0  0  0  0  0  0
  -26.8260  -12.2690   20.2140 N   0  0  0  0  0  0  0  0  0  0  0  0
  -24.7650  -11.1530   20.7710 C   0  0  0  0  0  0  0  0  0  0  0  0
  -25.0970  -10.2180   21.7770 C   0  0  0  0  0  3  0  0  0  0  0  0
  -24.3150   -9.0580   21.9630 C   0  0  0  0  0  3  0  0  0  0  0  0
  -23.1850   -8.8270   21.1430 C   0  0  0  0  0  0  0  0  0  0  0  0
  -22.8720   -9.7480   20.1280 C   0  0  0  0  0  3  0  0  0  0  0  0
  -23.6550  -10.8990   19.9410 C   0  0  0  0  0  3  0  0  0  0  0  0
  -22.3830   -7.7150   21.2340 O   0  0  0  0  0  0  0  0  0  0  0  0
  -22.1220   -7.1120   22.4390 C   0  0  0  0  0  0  0  0  0  0  0  0
  -21.4780   -7.7990   23.4920 C   0  0  0  0  0  3  0  0  0  0  0  0
  -21.1680   -7.1200   24.6870 C   0  0  0  0  0  3  0  0  0  0  0  0
  -21.4900   -5.7570   24.8280 C   0  0  0  0  0  0  0  0  0  0  0  0
  -22.1270   -5.0720   23.7790 C   0  0  0  0  0  3  0  0  0  0  0  0
  -22.4390   -5.7470   22.5870 C   0  0  0  0  0  0  0  0  0  0  0  0
  -23.0330   -5.0760   21.5710 F   0  0  0  0  0  0  0  0  0  0  0  0
  -21.1840   -5.1030   25.9730 F   0  0  0  0  0  0  0  0  0  0  0  0
  -23.8090  -14.3000   20.9580 C   0  0  0  0  0  0  0  0  0  0  0  0
  -23.0780  -13.6390   21.8500 N   0  0  0  0  0  0  0  0  0  0  0  0
  -23.4050  -15.3490   20.4580 O   0  0  0  0  0  0  0  0  0  0  0  0
  -23.4170  -12.7900   22.2770 H   0  0  0  0  0  0  0  0  0  0  0  0
  -22.1660  -13.9870   22.1080 H   0  0  0  0  0  0  0  0  0  0  0  0
  -26.4960  -15.8290   20.0660 N   0  0  0  0  0  0  0  0  0  0  0  0
  -25.7640  -16.5180   20.1910 H   0  0  0  0  0  0  0  0  0  0  0  0
  -27.3550  -16.2240   19.7050 H   0  0  0  0  0  0  0  0  0  0  0  0
  -29.2110  -23.2440   20.6370 C   0  0  0  0  0  2  0  0  0  0  0  0
  -30.3250  -23.9430   19.8220 C   0  0  0  0  0  2  0  0  0  0  0  0
  -30.1780  -25.4670   19.7110 C   0  0  0  0  0  2  0  0  0  0  0  0
  -28.8470  -25.9090   19.1020 C   0  0  0  0  0  2  0  0  0  0  0  0
  -28.7960  -27.3290   19.1660 O   0  0  0  0  0  0  0  0  0  0  0  0
  -24.5960  -31.5250   23.0270 C   0  0  0  0  0  0  0  0  0  0  0  0
  -27.5450  -27.8850   19.2780 C   0  0  0  0  0  0  0  0  0  0  0  0
  -23.4730  -30.2320   21.2440 C   0  0  0  0  0  3  0  0  0  0  0  0
  -25.0100  -29.0810   19.5740 C   0  0  0  0  0  0  0  0  0  0  0  0
  -25.9310  -30.9000   21.0210 C   0  0  0  0  0  2  0  0  0  0  0  0
  -26.1290  -29.6490   20.1920 C   0  0  0  0  0  0  0  0  0  0  0  0
  -27.4010  -29.0570   20.0460 C   0  0  0  0  0  3  0  0  0  0  0  0
  -26.4090  -27.3230   18.6550 C   0  0  0  0  0  3  0  0  0  0  0  0
  -25.1430  -27.9110   18.8060 C   0  0  0  0  0  3  0  0  0  0  0  0
  -23.6850  -29.7750   19.7770 C   0  0  0  0  0  2  0  0  0  0  0  0
  -24.6860  -30.8930   21.8240 N   0  0  0  0  0  0  0  0  0  0  0  0
  -23.5190  -31.5980   23.6330 O   0  0  0  0  0  0  0  0  0  0  0  0
  -22.9850  -29.0190   22.0700 C   0  0  0  0  0  0  0  0  0  0  0  0
  -21.6930  -28.6820   21.9280 N   0  0  0  0  0  0  0  0  0  0  0  0
  -23.7630  -28.3900   22.7940 O   0  0  0  0  0  0  0  0  0  0  0  0
  -21.1220  -29.2570   21.3240 H   0  0  0  0  0  0  0  0  0  0  0  0
  -18.5130  -27.0030   22.2580 C   0  0  0  0  0  0  0  0  0  0  0  0
  -21.0180  -27.5610   22.5770 C   0  0  0  0  0  3  0  0  0  0  0  0
  -21.3030  -26.2350   21.8340 C   0  0  0  0  0  2  0  0  0  0  0  0
  -20.2420  -25.8920   20.7830 C   0  0  0  0  0  2  0  0  0  0  0  0
  -18.8590  -25.7770   21.4310 C   0  0  0  0  0  2  0  0  0  0  0  0
  -19.5270  -27.8500   22.7810 C   0  0  0  0  0  0  0  0  0  0  0  0
  -19.1480  -28.9980   23.5120 C   0  0  0  0  0  3  0  0  0  0  0  0
  -17.7900  -29.3000   23.7280 C   0  0  0  0  0  3  0  0  0  0  0  0
  -16.7930  -28.4480   23.2230 C   0  0  0  0  0  3  0  0  0  0  0  0
  -17.1560  -27.3030   22.4910 C   0  0  0  0  0  3  0  0  0  0  0  0
  -25.8350  -32.2030   23.6890 C   0  0  0  0  0  3  0  0  0  0  0  0
  -26.4080  -31.3940   24.9190 C   0  0  1  0  0  0  0  0  0  0  0  0
  -25.3330  -31.0070   25.9620 C   0  0  0  0  0  1  0  0  0  0  0  0
  -27.0920  -30.0940   24.4380 C   0  0  0  0  0  1  0  0  0  0  0  0
  -27.4950  -32.2300   25.6330 C   0  0  0  0  0  1  0  0  0  0  0  0
  -25.4320  -33.5560   24.0950 N   0  0  0  0  0  0  0  0  0  0  0  0
  -25.6920  -34.6680   23.3950 C   0  0  0  0  0  0  0  0  0  0  0  0
  -26.3660  -34.6680   22.3610 O   0  0  0  0  0  0  0  0  0  0  0  0
  -24.8310  -33.6260   24.9030 H   0  0  0  0  0  0  0  0  0  0  0  0
  -23.8330  -36.3450   23.1430 C   0  0  0  0  0  1  0  0  0  0  0  0
  -25.1100  -35.9930   23.9250 C   0  0  0  0  0  3  0  0  0  0  0  0
  -27.1770  -36.9890   24.7950 C   0  0  0  0  0  1  0  0  0  0  0  0
  -26.0630  -37.1210   23.8590 N   0  0  0  0  0  0  0  0  0  0  0  0
  -25.5950  -38.0020   24.0520 H   0  0  0  0  0  0  0  0  0  0  0  0
  1  6  1  0
  1  3  1  0
  3  5  1  0
  3  2  1  0
  4  3  1  0
  6  7  1  0
  8  7  1  0
  8  9  1  0
 10 18  1  0
 11 16  1  0
 12 13  1  0
 12 11  1  0
 14 13  1  0
 14 23  1  0
 14 15  1  0
 16 10  1  0
 16 15  1  0
 17 10  2  0
 18  9  1  0
 18 19  1  0
 20 21  2  0
 21 40  1  0
 22 21  1  0
 22 25  1  0
 23 24  1  0
 23 20  1  0
 24 22  2  0
 25 26  1  0
 26 27  2  0
 28 31  1  0
 28 27  1  0
 29 28  2  0
 30 29  1  0
 30 25  2  0
 31 32  1  0
 32 37  2  0
 32 33  1  0
 33 34  2  0
 34 35  1  0
 35 39  1  0
 36 35  2  0
 37 36  1  0
 38 37  1  0
 40 41  1  0
 41 44  1  0
 41 43  1  0
 42 40  2  0
 45 46  1  0
 45 20  1  0
 47 45  1  0
 48  1  1  0
 49 48  1  0
 50 49  1  0
 51 52  1  0
 51 50  1  0
 52 54  1  0
 53 64  2  0
 54 59  1  0
 55 63  1  0
 55 65  1  0
 56 62  1  0
 56 58  1  0
 57 63  1  0
 58 57  1  0
 59 58  2  0
 60 61  1  0
 60 54  2  0
 61 56  2  0
 62 55  1  0
 63 53  1  0
 65 67  2  0
 66 65  1  0
 68 66  1  0
 69 78  2  0
 69 74  1  0
 70 66  1  0
 70 74  1  0
 71 70  1  0
 72 73  1  0
 72 71  1  0
 73 69  1  0
 74 75  2  0
 75 76  1  0
 77 76  2  0
 78 77  1  0
 79 53  1  0
 79 84  1  0
 79 80  1  0
 80 83  1  1
 80 81  1  0
 82 80  1  0
 84 87  1  0
 85 89  1  0
 85 84  1  0
 86 85  2  0
 89 88  1  0
 91 89  1  0
 91 92  1  0
 91 90  1  0
M  ISO  4  10 100  18 100  51 101  52 101
M  END
>  <TORSDO>  (43) 
F 25

>  <SCORE>  (43) 
-7.935

>  <name>  (43) 
42

>  <ligand_id>  (43) 
42

>  <original_smiles>  (43) 
[H]c1c([H])c([H])c2c(c1[H])C([H])([H])C([H])([H])C([H])([H])C2([H])N([H])C(=O)C1([H])N(C(=O)C([H])(N([H])C(=O)C([H])(N([H])C([H])([H])[H])C([H])([H])[H])C(C([H])([H])[H])(C([H])([H])[H])C([H])([H])[H])C([H])([H])c2c([H])c(OC([H])([H])C([H])([H])C([H])([H])C([H])([H])C([H])(C([H])([H])C([H])([H])C([H])([H])C([H])([H])N([H])C(=O)N3C([H])([H])C([H])([H])C([H])([H])C([H])(n4nc(-c5c([H])c([H])c(Oc6c([H])c([H])c(F)c([H])c6F)c([H])c5[H])c(C(=O)N([H])[H])c4N([H])[H])C3([H])[H])[N+]([H])([H])C([H])([H])[H])c([H])c([H])c2C1([H])[H]

>  <smiles>  (43) 
[H]c1c([H])c([H])c2c(c1[H])C([H])([H])C([H])([H])C([H])([H])C2([H])N([H])C(=O)C1([H])N(C(=O)C([H])(N([H])C(=O)C([H])(N([H])C([H])([H])[H])C([H])([H])[H])C(C([H])([H])[H])(C([H])([H])[H])C([H])([H])[H])C([H])([H])c2c([H])c(OC([H])([H])C([H])([H])C([H])([H])C([H])([H])C([H])(C([H])([H])C([H])([H])C([H])([H])C([H])([H])N([H])C(=O)N3C([H])([H])C([H])([H])C([H])([H])C([H])(n4nc(-c5c([H])c([H])c(Oc6c([H])c([H])c(F)c([H])c6F)c([H])c5[H])c(C(=O)N([H])[H])c4N([H])[H])C3([H])[H])[N+]([H])([H])C([H])([H])[H])c([H])c([H])c2C1([H])[H]

$$$$
43:0:0
     RDKit          3D

 95102  0  0  1  0  0  0  0  0999 V2000
  -28.2130  -24.5840   21.4030 C   0  0  0  0  0  0  0  0  0  0  0  0
  -28.4160  -23.3100   21.7480 N   0  0  0  0  0  0  0  0  0  0  0  0
  -27.2120  -24.8910   20.7680 O   0  0  0  0  0  0  0  0  0  0  0  0
  -29.2620  -23.0860   22.2520 H   0  0  0  0  0  0  0  0  0  0  0  0
  -29.2870  -25.6180   21.8230 C   0  0  0  0  0  3  0  0  0  0  0  0
  -29.3200  -26.9920   21.0650 C   0  0  0  0  0  2  0  0  0  0  0  0
  -28.5000  -27.1450   19.9040 O   0  0  0  0  0  0  0  0  0  0  0  0
  -24.6430  -32.0280   23.4360 C   0  0  0  0  0  0  0  0  0  0  0  0
  -27.3430  -27.8880   20.0280 C   0  0  0  0  0  0  0  0  0  0  0  0
  -23.4260  -30.6900   21.7430 C   0  0  0  0  0  3  0  0  0  0  0  0
  -24.8840  -29.2780   20.2010 C   0  0  0  0  0  0  0  0  0  0  0  0
  -25.9210  -31.1470   21.4910 C   0  0  0  0  0  2  0  0  0  0  0  0
  -26.0350  -29.8090   20.7940 C   0  0  0  0  0  0  0  0  0  0  0  0
  -27.2600  -29.1140   20.7280 C   0  0  0  0  0  3  0  0  0  0  0  0
  -26.1840  -27.3930   19.3900 C   0  0  0  0  0  3  0  0  0  0  0  0
  -24.9470  -28.0570   19.5110 C   0  0  0  0  0  3  0  0  0  0  0  0
  -23.6150  -30.0930   20.3230 C   0  0  0  0  0  2  0  0  0  0  0  0
  -24.6850  -31.3000   22.2860 N   0  0  0  0  0  0  0  0  0  0  0  0
  -23.5720  -32.2390   24.0210 O   0  0  0  0  0  0  0  0  0  0  0  0
  -22.8290  -29.6010   22.6580 C   0  0  0  0  0  0  0  0  0  0  0  0
  -21.5310  -29.3090   22.4730 N   0  0  0  0  0  0  0  0  0  0  0  0
  -23.5290  -29.0220   23.4920 O   0  0  0  0  0  0  0  0  0  0  0  0
  -21.0240  -29.8360   21.7750 H   0  0  0  0  0  0  0  0  0  0  0  0
  -18.2810  -27.7510   22.7140 C   0  0  0  0  0  0  0  0  0  0  0  0
  -20.7660  -28.2880   23.1900 C   0  0  0  0  0  3  0  0  0  0  0  0
  -21.0700  -26.8740   22.6420 C   0  0  0  0  0  2  0  0  0  0  0  0
  -20.0950  -26.4340   21.5450 C   0  0  0  0  0  2  0  0  0  0  0  0
  -18.6580  -26.4240   22.0700 C   0  0  0  0  0  2  0  0  0  0  0  0
  -19.2720  -28.6310   23.2230 C   0  0  0  0  0  0  0  0  0  0  0  0
  -18.8690  -29.8680   23.7740 C   0  0  0  0  0  3  0  0  0  0  0  0
  -17.5070  -30.2290   23.8180 C   0  0  0  0  0  3  0  0  0  0  0  0
  -16.5300  -29.3460   23.3260 C   0  0  0  0  0  3  0  0  0  0  0  0
  -16.9180  -28.1080   22.7810 C   0  0  0  0  0  3  0  0  0  0  0  0
  -25.9280  -32.6500   24.0680 C   0  0  0  0  0  3  0  0  0  0  0  0
  -26.4440  -31.8690   25.3360 C   0  0  1  0  0  0  0  0  0  0  0  0
  -25.3310  -31.5900   26.3790 C   0  0  0  0  0  1  0  0  0  0  0  0
  -27.0640  -30.5110   24.9240 C   0  0  0  0  0  1  0  0  0  0  0  0
  -27.5670  -32.6820   26.0300 C   0  0  0  0  0  1  0  0  0  0  0  0
  -25.6280  -34.0510   24.3940 N   0  0  0  0  0  0  0  0  0  0  0  0
  -26.0340  -35.1020   23.6660 C   0  0  0  0  0  0  0  0  0  0  0  0
  -26.7690  -34.9910   22.6790 O   0  0  0  0  0  0  0  0  0  0  0  0
  -24.9770  -34.2110   25.1520 H   0  0  0  0  0  0  0  0  0  0  0  0
  -24.3840  -36.9330   23.1930 C   0  0  0  0  0  1  0  0  0  0  0  0
  -25.5460  -36.4970   24.0970 C   0  0  0  0  0  3  0  0  0  0  0  0
  -27.6390  -37.3130   25.0860 C   0  0  0  0  0  1  0  0  0  0  0  0
  -26.6090  -37.5240   24.0750 N   0  0  0  0  0  0  0  0  0  0  0  0
  -26.2150  -38.4510   24.2160 H   0  0  0  0  0  0  0  0  0  0  0  0
  -29.2530  -25.8690   23.3590 C   0  0  0  0  0  2  0  0  0  0  0  0
  -27.9090  -26.7060   25.4030 C   0  0  0  0  0  1  0  0  0  0  0  0
  -27.8950  -26.3720   23.9080 C   0  0  0  0  0  2  0  0  0  0  0  0
  -27.4720  -22.2280   21.4790 C   0  0  0  0  0  2  0  0  0  0  0  0
  -28.1140  -21.1720   20.5860 C   0  0  0  0  0  2  0  0  0  0  0  0
  -29.5850  -20.8990   20.9240 C   0  0  0  0  0  2  0  0  0  0  0  0
  -29.8860  -19.3950   20.9280 C   0  0  0  0  0  2  0  0  0  0  0  0
  -31.2790  -19.0060   20.3910 C   0  0  0  0  0  2  0  0  0  0  0  0
  -31.2010  -17.6160   19.7440 C   0  0  0  0  0  2  0  0  0  0  0  0
  -33.6110  -17.3590   18.8820 C   0  0  0  0  0  1  0  0  0  0  0  0
  -32.4740  -16.7390   19.7200 C   0  0  0  0  0  3  0  0  0  0  0  0
  -32.0280  -15.3630   19.1720 C   0  0  0  0  0  2  0  0  0  0  0  0
  -32.7550  -14.0960   19.6620 C   0  0  0  0  0  0  0  0  0  0  0  0
  -32.3430  -11.6840   19.8890 C   0  0  0  0  0  2  0  0  0  0  0  0
  -31.4280  -11.2480   18.7240 C   0  0  0  0  0  2  0  0  0  0  0  0
  -29.9410  -11.4370   19.0890 C   0  0  0  0  0  2  0  0  0  0  0  0
  -29.6410  -12.8440   19.6630 C   0  0  0  0  0  3  0  0  0  0  0  0
  -30.6690  -13.2220   20.7550 C   0  0  0  0  0  2  0  0  0  0  0  0
  -32.0210  -13.0850   20.1930 N   0  0  0  0  0  0  0  0  0  0  0  0
  -33.9280  -13.9550   19.3080 O   0  0  0  0  0  0  0  0  0  0  0  0
  -27.5360  -14.0820   20.4790 C   0  0  0  0  0  0  0  0  0  0  0  0
  -26.2880  -13.6350   20.8100 C   0  0  0  0  0  0  0  0  0  0  0  0
  -26.3290  -12.2120   20.6730 C   0  0  0  0  0  0  0  0  0  0  0  0
  -28.2720  -12.9500   20.1570 N   0  0  0  0  0  0  0  0  0  0  0  0
  -27.5480  -11.8170   20.3330 N   0  0  0  0  0  0  0  0  0  0  0  0
  -25.2660  -11.2070   20.7840 C   0  0  0  0  0  0  0  0  0  0  0  0
  -25.4150  -10.0580   21.5920 C   0  0  0  0  0  3  0  0  0  0  0  0
  -24.3700   -9.1140   21.6940 C   0  0  0  0  0  3  0  0  0  0  0  0
  -23.1610   -9.3160   20.9860 C   0  0  0  0  0  0  0  0  0  0  0  0
  -23.0280  -10.4490   20.1640 C   0  0  0  0  0  3  0  0  0  0  0  0
  -24.0710  -11.3830   20.0590 C   0  0  0  0  0  3  0  0  0  0  0  0
  -22.1010   -8.4440   21.0070 O   0  0  0  0  0  0  0  0  0  0  0  0
  -21.8420   -7.6520   22.0970 C   0  0  0  0  0  0  0  0  0  0  0  0
  -21.6280   -8.1980   23.3810 C   0  0  0  0  0  3  0  0  0  0  0  0
  -21.2960   -7.3520   24.4600 C   0  0  0  0  0  3  0  0  0  0  0  0
  -21.1740   -5.9630   24.2550 C   0  0  0  0  0  0  0  0  0  0  0  0
  -21.3850   -5.4190   22.9760 C   0  0  0  0  0  3  0  0  0  0  0  0
  -21.7200   -6.2610   21.9000 C   0  0  0  0  0  0  0  0  0  0  0  0
  -21.9000   -5.7340   20.6650 F   0  0  0  0  0  0  0  0  0  0  0  0
  -20.8500   -5.1500   25.2890 F   0  0  0  0  0  0  0  0  0  0  0  0
  -25.0890  -14.4750   21.1520 C   0  0  0  0  0  0  0  0  0  0  0  0
  -24.2010  -13.9650   21.9960 N   0  0  0  0  0  0  0  0  0  0  0  0
  -24.9600  -15.6150   20.7050 O   0  0  0  0  0  0  0  0  0  0  0  0
  -24.3150  -13.0340   22.3730 H   0  0  0  0  0  0  0  0  0  0  0  0
  -23.3970  -14.5090   22.2740 H   0  0  0  0  0  0  0  0  0  0  0  0
  -28.1010  -15.3550   20.3980 N   0  0  0  0  0  0  0  0  0  0  0  0
  -27.5740  -16.2000   20.5870 H   0  0  0  0  0  0  0  0  0  0  0  0
  -29.0500  -15.5390   20.1010 H   0  0  0  0  0  0  0  0  0  0  0  0
  1  2  1  0
  1  5  1  0
  2  4  1  0
  3  1  2  0
  5  6  1  0
  5 48  1  0
  7  9  1  0
  7  6  1  0
  8 19  2  0
  9 14  1  0
 10 18  1  0
 10 20  1  0
 11 17  1  0
 11 13  1  0
 12 18  1  0
 13 12  1  0
 14 13  2  0
 15 16  1  0
 15  9  2  0
 16 11  2  0
 17 10  1  0
 18  8  1  0
 20 22  2  0
 21 20  1  0
 23 21  1  0
 24 33  2  0
 24 29  1  0
 25 21  1  0
 25 29  1  0
 26 25  1  0
 27 28  1  0
 27 26  1  0
 28 24  1  0
 29 30  2  0
 30 31  1  0
 32 31  2  0
 33 32  1  0
 34  8  1  0
 34 39  1  0
 34 35  1  0
 35 38  1  1
 35 36  1  0
 37 35  1  0
 39 42  1  0
 40 44  1  0
 40 39  1  0
 41 40  2  0
 44 43  1  0
 46 44  1  0
 46 47  1  0
 46 45  1  0
 48 50  1  0
 50 49  1  0
 51  2  1  0
 52 53  1  0
 52 51  1  0
 53 54  1  0
 55 54  1  0
 56 55  1  0
 58 57  1  0
 58 56  1  0
 59 60  1  0
 59 58  1  0
 60 66  1  0
 61 66  1  0
 62 63  1  0
 62 61  1  0
 64 63  1  0
 64 71  1  0
 64 65  1  0
 66 65  1  0
 67 60  2  0
 68 69  2  0
 69 88  1  0
 70 73  1  0
 70 69  1  0
 71 72  1  0
 71 68  1  0
 72 70  2  0
 73 74  1  0
 74 75  2  0
 76 79  1  0
 76 75  1  0
 77 76  2  0
 78 77  1  0
 78 73  2  0
 79 80  1  0
 80 81  1  0
 81 82  2  0
 83 82  1  0
 83 87  1  0
 84 83  2  0
 85 80  2  0
 85 84  1  0
 86 85  1  0
 88 89  1  0
 89 92  1  0
 89 91  1  0
 90 88  2  0
 93 68  1  0
 93 94  1  0
 95 93  1  0
M  ISO  4   6 101   7 101  59 100  60 100
M  END
>  <TORSDO>  (44) 
F 28

>  <SCORE>  (44) 
-9.993

>  <name>  (44) 
43

>  <ligand_id>  (44) 
43

>  <original_smiles>  (44) 
[H]c1c([H])c([H])c2c(c1[H])C([H])([H])C([H])([H])C([H])([H])C2([H])N([H])C(=O)C1([H])N(C(=O)C([H])(N([H])C(=O)C([H])(N([H])C([H])([H])[H])C([H])([H])[H])C(C([H])([H])[H])(C([H])([H])[H])C([H])([H])[H])C([H])([H])c2c([H])c(OC([H])([H])C([H])(C(=O)N([H])C([H])([H])C([H])([H])C([H])([H])C([H])([H])C([H])([H])C([H])([H])C([H])(C([H])([H])[H])C([H])([H])C(=O)N3C([H])([H])C([H])([H])C([H])([H])C([H])(n4nc(-c5c([H])c([H])c(Oc6c([H])c([H])c(F)c([H])c6F)c([H])c5[H])c(C(=O)N([H])[H])c4N([H])[H])C3([H])[H])C([H])([H])C([H])([H])C([H])([H])[H])c([H])c([H])c2C1([H])[H]

>  <smiles>  (44) 
[H]c1c([H])c([H])c2c(c1[H])C([H])([H])C([H])([H])C([H])([H])C2([H])N([H])C(=O)C1([H])N(C(=O)C([H])(N([H])C(=O)C([H])(N([H])C([H])([H])[H])C([H])([H])[H])C(C([H])([H])[H])(C([H])([H])[H])C([H])([H])[H])C([H])([H])c2c([H])c(OC([H])([H])C([H])(C(=O)N([H])C([H])([H])C([H])([H])C([H])([H])C([H])([H])C([H])([H])C([H])([H])C([H])(C([H])([H])[H])C([H])([H])C(=O)N3C([H])([H])C([H])([H])C([H])([H])C([H])(n4nc(-c5c([H])c([H])c(Oc6c([H])c([H])c(F)c([H])c6F)c([H])c5[H])c(C(=O)N([H])[H])c4N([H])[H])C3([H])[H])C([H])([H])C([H])([H])C([H])([H])[H])c([H])c([H])c2C1([H])[H]

$$$$
44:0:0
     RDKit          3D

 97105  0  0  1  0  0  0  0  0999 V2000
  -26.9730  -20.2510   19.1740 C   0  0  0  0  0  3  0  0  0  0  0  0
  -28.3660  -20.2860   19.3460 C   0  0  0  0  0  3  0  0  0  0  0  0
  -26.1990  -21.3610   19.5300 C   0  0  0  0  0  3  0  0  0  0  0  0
  -28.9940  -21.4270   19.8930 C   0  0  0  0  0  0  0  0  0  0  0  0
  -26.8100  -22.5400   20.0080 C   0  0  0  0  0  0  0  0  0  0  0  0
  -28.2260  -22.6000   20.1470 C   0  0  0  0  0  0  0  0  0  0  0  0
  -25.6500  -23.8380   21.8690 C   0  0  0  0  0  1  0  0  0  0  0  0
  -25.8890  -23.7040   20.3610 C   0  0  0  0  0  2  0  0  0  0  0  0
  -28.8970  -23.9280   20.5090 C   0  0  0  0  0  2  0  0  0  0  0  0
  -28.7010  -24.9630   19.3810 C   0  0  0  0  0  2  0  0  0  0  0  0
  -28.7580  -26.4140   19.8780 C   0  0  0  0  0  2  0  0  0  0  0  0
  -28.2770  -27.2440   18.8320 O   0  0  0  0  0  0  0  0  0  0  0  0
  -24.4890  -31.6780   22.8770 C   0  0  0  0  0  0  0  0  0  0  0  0
  -27.0610  -27.8270   19.0750 C   0  0  0  0  0  0  0  0  0  0  0  0
  -23.2020  -30.4140   21.1790 C   0  0  0  0  0  3  0  0  0  0  0  0
  -24.5960  -29.1330   19.4720 C   0  0  0  0  0  0  0  0  0  0  0  0
  -25.6750  -30.9440   20.8200 C   0  0  0  0  0  2  0  0  0  0  0  0
  -25.7680  -29.6620   20.0260 C   0  0  0  0  0  0  0  0  0  0  0  0
  -27.0040  -29.0130   19.8320 C   0  0  0  0  0  3  0  0  0  0  0  0
  -25.8790  -27.2910   18.5260 C   0  0  0  0  0  3  0  0  0  0  0  0
  -24.6420  -27.9390   18.7280 C   0  0  0  0  0  3  0  0  0  0  0  0
  -23.3200  -29.9080   19.7160 C   0  0  0  0  0  2  0  0  0  0  0  0
  -24.4760  -31.0200   21.6850 N   0  0  0  0  0  0  0  0  0  0  0  0
  -23.4490  -31.8260   23.5350 O   0  0  0  0  0  0  0  0  0  0  0  0
  -22.6860  -29.2520   22.0580 C   0  0  0  0  0  0  0  0  0  0  0  0
  -21.3630  -29.0250   22.0300 N   0  0  0  0  0  0  0  0  0  0  0  0
  -23.4680  -28.5620   22.7180 O   0  0  0  0  0  0  0  0  0  0  0  0
  -20.7940  -29.6470   21.4730 H   0  0  0  0  0  0  0  0  0  0  0  0
  -18.0980  -27.5980   22.6090 C   0  0  0  0  0  0  0  0  0  0  0  0
  -20.6530  -27.9660   22.7430 C   0  0  0  0  0  3  0  0  0  0  0  0
  -20.7820  -26.6140   22.0040 C   0  0  0  0  0  2  0  0  0  0  0  0
  -19.6270  -26.3420   21.0340 C   0  0  0  0  0  2  0  0  0  0  0  0
  -18.2920  -26.3370   21.7820 C   0  0  0  0  0  2  0  0  0  0  0  0
  -19.2080  -28.3700   23.0460 C   0  0  0  0  0  0  0  0  0  0  0  0
  -18.9710  -29.5490   23.7830 C   0  0  0  0  0  3  0  0  0  0  0  0
  -17.6590  -29.9590   24.0880 C   0  0  0  0  0  3  0  0  0  0  0  0
  -16.5650  -29.1810   23.6700 C   0  0  0  0  0  3  0  0  0  0  0  0
  -16.7860  -28.0020   22.9350 C   0  0  0  0  0  3  0  0  0  0  0  0
  -25.7970  -32.2930   23.4660 C   0  0  0  0  0  3  0  0  0  0  0  0
  -26.4700  -31.3870   24.5690 C   0  0  1  0  0  0  0  0  0  0  0  0
  -25.4990  -30.9560   25.6930 C   0  0  0  0  0  1  0  0  0  0  0  0
  -27.0570  -30.1060   23.9290 C   0  0  0  0  0  1  0  0  0  0  0  0
  -27.6560  -32.1390   25.2150 C   0  0  0  0  0  1  0  0  0  0  0  0
  -25.4600  -33.6150   24.0100 N   0  0  0  0  0  0  0  0  0  0  0  0
  -25.7050  -34.7760   23.3890 C   0  0  0  0  0  0  0  0  0  0  0  0
  -26.3130  -34.8460   22.3180 O   0  0  0  0  0  0  0  0  0  0  0  0
  -24.9110  -33.6290   24.8580 H   0  0  0  0  0  0  0  0  0  0  0  0
  -23.8880  -36.5120   23.3820 C   0  0  0  0  0  1  0  0  0  0  0  0
  -25.1900  -36.0640   24.0630 C   0  0  0  0  0  3  0  0  0  0  0  0
  -27.3320  -36.9180   24.9010 C   0  0  0  0  0  1  0  0  0  0  0  0
  -26.1720  -37.1690   24.0470 N   0  0  0  0  0  0  0  0  0  0  0  0
  -25.7390  -38.0400   24.3440 H   0  0  0  0  0  0  0  0  0  0  0  0
  -30.4780  -21.3000   20.2350 C   0  0  0  0  0  2  0  0  0  0  0  0
  -30.7090  -20.4020   21.4680 C   0  0  0  0  0  0  0  0  0  0  0  0
  -31.5140  -20.7210   22.3500 O   0  0  0  0  0  0  0  0  0  0  0  0
  -29.8840  -19.1020   21.5560 C   0  0  0  0  0  2  0  0  0  0  0  0
  -30.3150  -18.0280   22.5810 C   0  0  0  0  0  2  0  0  0  0  0  0
  -31.5700  -17.2010   22.2390 C   0  0  0  0  0  2  0  0  0  0  0  0
  -31.5830  -16.4730   20.8760 C   0  0  0  0  0  2  0  0  0  0  0  0
  -30.9830  -14.3240   19.8480 C   0  0  0  0  0  0  0  0  0  0  0  0
  -30.5160  -12.0800   18.9430 C   0  0  0  0  0  2  0  0  0  0  0  0
  -29.5180  -12.1230   17.7730 C   0  0  0  0  0  2  0  0  0  0  0  0
  -28.0750  -12.0420   18.2960 C   0  0  0  0  0  2  0  0  0  0  0  0
  -27.7970  -13.0550   19.4400 C   0  0  0  0  0  3  0  0  0  0  0  0
  -28.9120  -13.0230   20.5170 C   0  0  0  0  0  2  0  0  0  0  0  0
  -30.2200  -13.1970   19.8600 N   0  0  0  0  0  0  0  0  0  0  0  0
  -31.9290  -14.4670   19.0660 O   0  0  0  0  0  0  0  0  0  0  0  0
  -30.7290  -15.2760   20.7610 N   0  0  0  0  0  0  0  0  0  0  0  0
  -29.9480  -15.1530   21.3900 H   0  0  0  0  0  0  0  0  0  0  0  0
  -25.5220  -13.7810   20.4030 C   0  0  0  0  0  0  0  0  0  0  0  0
  -24.4310  -13.0640   20.8160 C   0  0  0  0  0  0  0  0  0  0  0  0
  -24.7810  -11.6880   20.6540 C   0  0  0  0  0  0  0  0  0  0  0  0
  -26.4710  -12.8450   20.0210 N   0  0  0  0  0  0  0  0  0  0  0  0
  -26.0330  -11.5770   20.2300 N   0  0  0  0  0  0  0  0  0  0  0  0
  -23.9750  -10.4730   20.8290 C   0  0  0  0  0  0  0  0  0  0  0  0
  -24.3610   -9.4510   21.7240 C   0  0  0  0  0  3  0  0  0  0  0  0
  -23.5570   -8.3020   21.8860 C   0  0  0  0  0  3  0  0  0  0  0  0
  -22.3550   -8.1660   21.1550 C   0  0  0  0  0  0  0  0  0  0  0  0
  -21.9880   -9.1760   20.2490 C   0  0  0  0  0  3  0  0  0  0  0  0
  -22.7890  -10.3170   20.0830 C   0  0  0  0  0  3  0  0  0  0  0  0
  -21.5240   -7.0720   21.2310 O   0  0  0  0  0  0  0  0  0  0  0  0
  -21.4000   -6.3410   22.3840 C   0  0  0  0  0  0  0  0  0  0  0  0
  -20.9580   -6.9260   23.5900 C   0  0  0  0  0  3  0  0  0  0  0  0
  -20.7760   -6.1260   24.7360 C   0  0  0  0  0  3  0  0  0  0  0  0
  -21.0260   -4.7410   24.6770 C   0  0  0  0  0  0  0  0  0  0  0  0
  -21.4640   -4.1570   23.4750 C   0  0  0  0  0  3  0  0  0  0  0  0
  -21.6480   -4.9540   22.3320 C   0  0  0  0  0  0  0  0  0  0  0  0
  -22.0460   -4.3810   21.1700 F   0  0  0  0  0  0  0  0  0  0  0  0
  -20.8470   -3.9700   25.7740 F   0  0  0  0  0  0  0  0  0  0  0  0
  -23.1050  -13.6220   21.2450 C   0  0  0  0  0  0  0  0  0  0  0  0
  -22.4140  -12.9290   22.1420 N   0  0  0  0  0  0  0  0  0  0  0  0
  -22.6980  -14.7070   20.8270 O   0  0  0  0  0  0  0  0  0  0  0  0
  -22.7570  -12.0510   22.5040 H   0  0  0  0  0  0  0  0  0  0  0  0
  -21.5250  -13.2800   22.4720 H   0  0  0  0  0  0  0  0  0  0  0  0
  -25.7800  -15.1450   20.3020 N   0  0  0  0  0  0  0  0  0  0  0  0
  -25.0950  -15.8480   20.5610 H   0  0  0  0  0  0  0  0  0  0  0  0
  -26.6410  -15.5470   19.9520 H   0  0  0  0  0  0  0  0  0  0  0  0
  1  2  2  0
  1  3  1  0
  2  4  1  0
  3  5  2  0
  4  6  2  0
  4 53  1  0
  5  6  1  0
  5  8  1  0
  6  9  1  0
  8  7  1  0
 10 11  1  0
 10  9  1  0
 12 14  1  0
 12 11  1  0
 13 24  2  0
 14 19  1  0
 15 23  1  0
 15 25  1  0
 16 22  1  0
 16 18  1  0
 17 23  1  0
 18 17  1  0
 19 18  2  0
 20 21  1  0
 20 14  2  0
 21 16  2  0
 22 15  1  0
 23 13  1  0
 25 27  2  0
 26 25  1  0
 28 26  1  0
 29 38  2  0
 29 34  1  0
 30 26  1  0
 30 34  1  0
 31 30  1  0
 32 33  1  0
 32 31  1  0
 33 29  1  0
 34 35  2  0
 35 36  1  0
 37 36  2  0
 38 37  1  0
 39 13  1  0
 39 44  1  0
 39 40  1  0
 40 43  1  1
 40 41  1  0
 42 40  1  0
 44 47  1  0
 45 44  1  0
 45 49  1  0
 46 45  2  0
 49 48  1  0
 51 49  1  0
 51 52  1  0
 51 50  1  0
 53 54  1  0
 54 56  1  0
 54 55  2  0
 56 57  1  0
 58 57  1  0
 59 58  1  0
 60 66  1  0
 60 68  1  0
 61 66  1  0
 62 63  1  0
 62 61  1  0
 64 63  1  0
 64 73  1  0
 64 65  1  0
 66 65  1  0
 67 60  2  0
 68 59  1  0
 68 69  1  0
 70 71  2  0
 71 90  1  0
 72 71  1  0
 72 75  1  0
 73 74  1  0
 73 70  1  0
 74 72  2  0
 75 76  1  0
 76 77  2  0
 78 81  1  0
 78 77  1  0
 79 78  2  0
 80 79  1  0
 80 75  2  0
 81 82  1  0
 82 83  1  0
 83 84  2  0
 85 84  1  0
 85 89  1  0
 86 85  2  0
 87 82  2  0
 87 86  1  0
 88 87  1  0
 90 91  1  0
 91 94  1  0
 91 93  1  0
 92 90  2  0
 95 70  1  0
 95 96  1  0
 97 95  1  0
M  ISO  4  11 101  12 101  60 100  68 100
M  END
>  <TORSDO>  (45) 
F 26

>  <SCORE>  (45) 
-9.013

>  <name>  (45) 
44

>  <ligand_id>  (45) 
44

>  <original_smiles>  (45) 
[H]c1c([H])c(C([H])([H])C(=O)C([H])([H])C([H])([H])C([H])([H])C([H])([H])N([H])C(=O)N2C([H])([H])C([H])([H])C([H])([H])C([H])(n3nc(-c4c([H])c([H])c(Oc5c([H])c([H])c(F)c([H])c5F)c([H])c4[H])c(C(=O)N([H])[H])c3N([H])[H])C2([H])[H])c(C([H])([H])C([H])([H])C([H])([H])Oc2c([H])c([H])c3c(c2[H])C([H])([H])N(C(=O)C([H])(N([H])C(=O)C([H])(N([H])C([H])([H])[H])C([H])([H])[H])C(C([H])([H])[H])(C([H])([H])[H])C([H])([H])[H])C([H])(C(=O)N([H])C2([H])c4c([H])c([H])c([H])c([H])c4C([H])([H])C([H])([H])C2([H])[H])C3([H])[H])c(C([H])([H])C([H])([H])[H])c1[H]

>  <smiles>  (45) 
[H]c1c([H])c(C([H])([H])C(=O)C([H])([H])C([H])([H])C([H])([H])C([H])([H])N([H])C(=O)N2C([H])([H])C([H])([H])C([H])([H])C([H])(n3nc(-c4c([H])c([H])c(Oc5c([H])c([H])c(F)c([H])c5F)c([H])c4[H])c(C(=O)N([H])[H])c3N([H])[H])C2([H])[H])c(C([H])([H])C([H])([H])C([H])([H])Oc2c([H])c([H])c3c(c2[H])C([H])([H])N(C(=O)C([H])(N([H])C(=O)C([H])(N([H])C([H])([H])[H])C([H])([H])[H])C(C([H])([H])[H])(C([H])([H])[H])C([H])([H])[H])C([H])(C(=O)N([H])C2([H])c4c([H])c([H])c([H])c([H])c4C([H])([H])C([H])([H])C2([H])[H])C3([H])[H])c(C([H])([H])C([H])([H])[H])c1[H]

$$$$
45:0:0
     RDKit          3D

 95104  0  0  1  0  0  0  0  0999 V2000
  -30.5550  -20.4050   17.7980 C   0  0  0  0  0  2  0  0  0  0  0  0
  -30.0060  -21.4070   18.4930 C   0  0  0  0  0  3  0  0  0  0  0  0
  -31.5800  -19.4240   20.5340 C   0  0  0  0  0  2  0  0  0  0  0  0
  -30.5570  -20.5460   20.8420 C   0  0  0  0  0  2  0  0  0  0  0  0
  -29.9370  -19.3520   18.7470 C   0  0  0  0  0  3  0  0  0  0  0  0
  -30.8460  -18.4450   19.5890 C   0  0  0  0  0  3  0  0  0  0  0  0
  -29.5690  -20.5440   19.6660 C   0  0  2  0  0  0  0  0  0  0  0  0
  -32.2900  -15.0260   18.8850 C   0  0  0  0  0  0  0  0  0  0  0  0
  -31.9850  -12.6010   18.4980 C   0  0  0  0  0  2  0  0  0  0  0  0
  -30.8800  -12.4110   17.4360 C   0  0  0  0  0  2  0  0  0  0  0  0
  -29.4910  -12.3720   18.1010 C   0  0  0  0  0  2  0  0  0  0  0  0
  -29.2770  -13.5460   19.0900 C   0  0  0  0  0  3  0  0  0  0  0  0
  -30.4820  -13.6960   20.0510 C   0  0  0  0  0  2  0  0  0  0  0  0
  -31.6980  -13.8450   19.2330 N   0  0  0  0  0  0  0  0  0  0  0  0
  -33.3130  -15.0600   18.1990 O   0  0  0  0  0  0  0  0  0  0  0  0
  -31.7500  -17.4200   18.8650 C   0  0  0  0  0  0  0  0  0  0  0  0
  -31.6020  -16.1300   19.2600 N   0  0  0  0  0  0  0  0  0  0  0  0
  -32.5500  -17.8150   18.0150 O   0  0  0  0  0  0  0  0  0  0  0  0
  -30.8570  -15.9600   19.9130 H   0  0  0  0  0  0  0  0  0  0  0  0
  -27.2190  -14.3870   20.3800 C   0  0  0  0  0  0  0  0  0  0  0  0
  -26.1230  -13.7320   20.8760 C   0  0  0  0  0  0  0  0  0  0  0  0
  -26.3190  -12.3490   20.5760 C   0  0  0  0  0  0  0  0  0  0  0  0
  -28.0200  -13.4070   19.8160 N   0  0  0  0  0  0  0  0  0  0  0  0
  -27.4940  -12.1680   19.9890 N   0  0  0  0  0  0  0  0  0  0  0  0
  -25.4280  -11.1970   20.7590 C   0  0  0  0  0  0  0  0  0  0  0  0
  -25.6950  -10.2050   21.7290 C   0  0  0  0  0  3  0  0  0  0  0  0
  -24.8140   -9.1140   21.8990 C   0  0  0  0  0  3  0  0  0  0  0  0
  -23.6540   -9.0100   21.0960 C   0  0  0  0  0  0  0  0  0  0  0  0
  -23.4050   -9.9870   20.1160 C   0  0  0  0  0  3  0  0  0  0  0  0
  -24.2850  -11.0690   19.9450 C   0  0  0  0  0  3  0  0  0  0  0  0
  -22.7520   -7.9770   21.1750 O   0  0  0  0  0  0  0  0  0  0  0  0
  -22.2660   -7.5380   22.3810 C   0  0  0  0  0  0  0  0  0  0  0  0
  -21.5250   -8.3810   23.2360 C   0  0  0  0  0  3  0  0  0  0  0  0
  -20.9800   -7.8700   24.4320 C   0  0  0  0  0  3  0  0  0  0  0  0
  -21.1680   -6.5160   24.7700 C   0  0  0  0  0  0  0  0  0  0  0  0
  -21.9020   -5.6740   23.9160 C   0  0  0  0  0  3  0  0  0  0  0  0
  -22.4460   -6.1830   22.7230 C   0  0  0  0  0  0  0  0  0  0  0  0
  -23.1340   -5.3610   21.8950 F   0  0  0  0  0  0  0  0  0  0  0  0
  -20.6420   -6.0210   25.9140 F   0  0  0  0  0  0  0  0  0  0  0  0
  -24.9170  -14.3640   21.5060 C   0  0  0  0  0  0  0  0  0  0  0  0
  -24.2700  -13.6580   22.4280 N   0  0  0  0  0  0  0  0  0  0  0  0
  -24.5680  -15.5090   21.2220 O   0  0  0  0  0  0  0  0  0  0  0  0
  -24.5700  -12.7270   22.6710 H   0  0  0  0  0  0  0  0  0  0  0  0
  -23.4670  -14.0540   22.8930 H   0  0  0  0  0  0  0  0  0  0  0  0
  -27.5880  -15.7270   20.3440 N   0  0  0  0  0  0  0  0  0  0  0  0
  -26.9830  -16.4540   20.7120 H   0  0  0  0  0  0  0  0  0  0  0  0
  -28.3890  -16.0930   19.8430 H   0  0  0  0  0  0  0  0  0  0  0  0
  -28.1010  -20.5890   20.0820 C   0  0  0  0  0  0  0  0  0  0  0  0
  -27.4620  -21.9520   20.3290 C   0  0  0  0  0  1  0  0  0  0  0  0
  -27.3990  -19.5910   20.2640 O   0  0  0  0  0  0  0  0  0  0  0  0
  -29.9760  -22.9300   18.4050 C   0  0  0  0  0  2  0  0  0  0  0  0
  -30.3280  -23.6020   17.0690 C   0  0  0  0  0  2  0  0  0  0  0  0
  -29.8650  -25.0750   17.1250 C   0  0  0  0  0  2  0  0  0  0  0  0
  -29.8350  -25.7890   15.7670 C   0  0  0  0  0  2  0  0  0  0  0  0
  -29.2270  -27.0770   15.8780 O   0  0  0  0  0  0  0  0  0  0  0  0
  -25.0220  -27.9180   21.5300 C   0  0  0  0  0  0  0  0  0  0  0  0
  -27.9200  -27.2130   16.3000 C   0  0  0  0  0  0  0  0  0  0  0  0
  -23.8500  -27.4990   19.3920 C   0  0  0  0  0  3  0  0  0  0  0  0
  -25.2970  -27.6140   17.2920 C   0  0  0  0  0  0  0  0  0  0  0  0
  -26.1500  -28.6150   19.4210 C   0  0  0  0  0  2  0  0  0  0  0  0
  -26.4010  -27.9880   18.0640 C   0  0  0  0  0  0  0  0  0  0  0  0
  -27.7080  -27.7840   17.5740 C   0  0  0  0  0  3  0  0  0  0  0  0
  -26.7920  -26.8380   15.5310 C   0  0  0  0  0  3  0  0  0  0  0  0
  -25.4870  -27.0320   16.0250 C   0  0  0  0  0  3  0  0  0  0  0  0
  -23.9310  -27.8700   17.8860 C   0  0  0  0  0  2  0  0  0  0  0  0
  -25.0330  -27.9930   20.1700 N   0  0  0  0  0  0  0  0  0  0  0  0
  -24.0330  -27.4900   22.1410 O   0  0  0  0  0  0  0  0  0  0  0  0
  -23.6280  -25.9730   19.5150 C   0  0  0  0  0  0  0  0  0  0  0  0
  -22.4260  -25.5110   19.1320 N   0  0  0  0  0  0  0  0  0  0  0  0
  -24.5300  -25.2340   19.9150 O   0  0  0  0  0  0  0  0  0  0  0  0
  -21.7460  -26.1830   18.8030 H   0  0  0  0  0  0  0  0  0  0  0  0
  -19.7070  -23.2850   18.2770 C   0  0  0  0  0  0  0  0  0  0  0  0
  -22.0080  -24.1110   19.1140 C   0  0  0  0  0  3  0  0  0  0  0  0
  -22.6060  -23.3670   17.8980 C   0  0  0  0  0  2  0  0  0  0  0  0
  -21.6670  -23.3480   16.6860 C   0  0  0  0  0  2  0  0  0  0  0  0
  -20.3420  -22.6680   17.0430 C   0  0  0  0  0  2  0  0  0  0  0  0
  -20.4870  -23.9750   19.2400 C   0  0  0  0  0  0  0  0  0  0  0  0
  -19.8410  -24.5620   20.3500 C   0  0  0  0  0  3  0  0  0  0  0  0
  -18.4490  -24.4620   20.5100 C   0  0  0  0  0  3  0  0  0  0  0  0
  -17.6820  -23.7590   19.5640 C   0  0  0  0  0  3  0  0  0  0  0  0
  -18.3120  -23.1710   18.4510 C   0  0  0  0  0  3  0  0  0  0  0  0
  -26.2390  -28.3870   22.3870 C   0  0  0  0  0  3  0  0  0  0  0  0
  -25.7090  -29.0350   23.5910 N   0  0  0  0  0  0  0  0  0  0  0  0
  -25.6760  -30.3600   23.7900 C   0  0  0  0  0  0  0  0  0  0  0  0
  -26.1620  -31.1680   22.9940 O   0  0  0  0  0  0  0  0  0  0  0  0
  -25.2450  -28.4370   24.2590 H   0  0  0  0  0  0  0  0  0  0  0  0
  -23.5840  -31.3850   24.7390 C   0  0  0  0  0  1  0  0  0  0  0  0
  -24.9930  -30.8700   25.0730 C   0  0  0  0  0  3  0  0  0  0  0  0
  -26.9930  -31.4440   26.3760 C   0  0  0  0  0  1  0  0  0  0  0  0
  -25.7590  -31.9290   25.7660 N   0  0  0  0  0  0  0  0  0  0  0  0
  -25.1970  -32.3670   26.4910 H   0  0  0  0  0  0  0  0  0  0  0  0
  -27.2180  -27.2110   22.7710 C   0  0  1  0  0  0  0  0  0  0  0  0
  -26.5090  -25.9910   23.4070 C   0  0  0  0  0  1  0  0  0  0  0  0
  -27.9840  -26.7170   21.5220 C   0  0  0  0  0  1  0  0  0  0  0  0
  -28.2820  -27.7240   23.7710 C   0  0  0  0  0  1  0  0  0  0  0  0
  1  2  1  0
  2 51  1  0
  2  7  1  0
  3  4  1  0
  5  1  1  0
  5  6  1  0
  5  7  1  0
  6 16  1  0
  6  3  1  0
  7 48  1  1
  7  4  1  0
  8 14  1  0
  8 17  1  0
  9 14  1  0
 10 11  1  0
 10  9  1  0
 12 11  1  0
 12 23  1  0
 12 13  1  0
 14 13  1  0
 15  8  2  0
 16 17  1  0
 17 19  1  0
 18 16  2  0
 20 21  2  0
 21 40  1  0
 22 25  1  0
 22 21  1  0
 23 24  1  0
 23 20  1  0
 24 22  2  0
 25 26  1  0
 26 27  2  0
 28 31  1  0
 28 27  1  0
 29 28  2  0
 30 29  1  0
 30 25  2  0
 31 32  1  0
 32 37  2  0
 32 33  1  0
 33 34  2  0
 34 35  1  0
 35 39  1  0
 36 35  2  0
 37 36  1  0
 38 37  1  0
 40 41  1  0
 41 43  1  0
 41 44  1  0
 42 40  2  0
 45 20  1  0
 45 46  1  0
 47 45  1  0
 48 50  2  0
 48 49  1  0
 52 53  1  0
 52 51  1  0
 54 55  1  0
 54 53  1  0
 55 57  1  0
 56 67  2  0
 57 62  1  0
 58 68  1  0
 58 66  1  0
 59 65  1  0
 59 61  1  0
 60 66  1  0
 61 60  1  0
 62 61  2  0
 63 64  1  0
 63 57  2  0
 64 59  2  0
 65 58  1  0
 66 56  1  0
 68 70  2  0
 69 68  1  0
 71 69  1  0
 72 81  2  0
 72 77  1  0
 73 69  1  0
 73 77  1  0
 74 73  1  0
 75 76  1  0
 75 74  1  0
 76 72  1  0
 77 78  2  0
 78 79  1  0
 80 79  2  0
 81 80  1  0
 82 56  1  0
 82 92  1  0
 82 83  1  0
 83 84  1  0
 83 86  1  0
 84 88  1  0
 85 84  2  0
 88 87  1  0
 88 90  1  0
 90 89  1  0
 90 91  1  0
 92 93  1  1
 92 95  1  0
 94 92  1  0
M  ISO  4   8 100  17 100  54 101  55 101
M  END
>  <TORSDO>  (46) 
F 21

>  <SCORE>  (46) 
-7.118

>  <name>  (46) 
45

>  <ligand_id>  (46) 
45

>  <original_smiles>  (46) 
[H]C1=C(C([H])([H])C([H])([H])C([H])([H])C([H])([H])Oc2c([H])c([H])c3c(c2[H])C([H])([H])N(C(=O)C([H])(N([H])C(=O)C([H])(N([H])C([H])([H])[H])C([H])([H])[H])C(C([H])([H])[H])(C([H])([H])[H])C([H])([H])[H])C([H])(C(=O)N([H])C2([H])c4c([H])c([H])c([H])c([H])c4C([H])([H])C([H])([H])C2([H])[H])C3([H])[H])C2(C(=O)C([H])([H])[H])C([H])([H])C([H])([H])C([H])(C(=O)N([H])C(=O)N3C([H])([H])C([H])([H])C([H])([H])C([H])(n4nc(-c5c([H])c([H])c(Oc6c([H])c([H])c(F)c([H])c6F)c([H])c5[H])c(C(=O)N([H])[H])c4N([H])[H])C3([H])[H])C12[H]

>  <smiles>  (46) 
[H]C1=C(C([H])([H])C([H])([H])C([H])([H])C([H])([H])Oc2c([H])c([H])c3c(c2[H])C([H])([H])N(C(=O)C([H])(N([H])C(=O)C([H])(N([H])C([H])([H])[H])C([H])([H])[H])C(C([H])([H])[H])(C([H])([H])[H])C([H])([H])[H])C([H])(C(=O)N([H])C2([H])c4c([H])c([H])c([H])c([H])c4C([H])([H])C([H])([H])C2([H])[H])C3([H])[H])C2(C(=O)C([H])([H])[H])C([H])([H])C([H])([H])C([H])(C(=O)N([H])C(=O)N3C([H])([H])C([H])([H])C([H])([H])C([H])(n4nc(-c5c([H])c([H])c(Oc6c([H])c([H])c(F)c([H])c6F)c([H])c5[H])c(C(=O)N([H])[H])c4N([H])[H])C3([H])[H])C12[H]

$$$$
46:0:0
     RDKit          3D

113122  0  0  1  0  0  0  0  0999 V2000
  -23.6780  -22.5740   20.0700 C   0  0  0  0  0  2  0  0  0  0  0  0
  -23.2250  -21.7740   18.8340 C   0  0  0  0  0  2  0  0  0  0  0  0
  -23.8890  -20.3870   18.7400 C   0  0  0  0  0  2  0  0  0  0  0  0
  -25.4110  -20.3610   18.9910 C   0  0  0  0  0  2  0  0  0  0  0  0
  -26.2120  -21.3950   18.1810 C   0  0  0  0  0  2  0  0  0  0  0  0
  -27.6430  -21.5900   18.7050 C   0  0  0  0  0  2  0  0  0  0  0  0
  -28.5040  -22.4080   17.7300 C   0  0  0  0  0  2  0  0  0  0  0  0
  -29.9850  -22.4590   18.1320 C   0  0  0  0  0  2  0  0  0  0  0  0
  -30.9590  -22.5440   16.9420 C   0  0  0  0  0  2  0  0  0  0  0  0
  -31.3990  -23.9670   16.5350 C   0  0  0  0  0  2  0  0  0  0  0  0
  -32.1610  -24.7860   17.5980 C   0  0  0  0  0  2  0  0  0  0  0  0
  -31.9960  -24.3010   19.0510 C   0  0  0  0  0  2  0  0  0  0  0  0
  -32.0470  -25.4340   20.0970 C   0  0  0  0  0  2  0  0  0  0  0  0
  -30.9040  -26.4510   19.9440 C   0  0  0  0  0  2  0  0  0  0  0  0
  -31.1770  -27.7740   20.6810 C   0  0  0  0  0  2  0  0  0  0  0  0
  -31.3580  -28.9530   19.7090 C   0  0  0  0  0  2  0  0  0  0  0  0
  -32.4810  -29.9190   20.1220 C   0  0  0  0  0  2  0  0  0  0  0  0
  -33.1950  -30.4850   18.8890 C   0  0  0  0  0  2  0  0  0  0  0  0
  -34.3830  -31.3920   19.2260 C   0  0  0  0  0  2  0  0  0  0  0  0
  -36.5440  -30.1640   19.3840 C   0  0  0  0  0  0  0  0  0  0  0  0
  -38.8760  -30.8950   19.1910 C   0  0  0  0  0  2  0  0  0  0  0  0
  -39.9710  -29.8640   19.4830 C   0  0  0  0  0  2  0  0  0  0  0  0
  -40.2770  -29.8200   20.9880 C   0  0  0  0  0  2  0  0  0  0  0  0
  -38.9970  -29.6460   21.8450 C   0  0  0  0  0  3  0  0  0  0  0  0
  -37.9040  -30.6570   21.4350 C   0  0  0  0  0  2  0  0  0  0  0  0
  -37.6860  -30.5660   19.9810 N   0  0  0  0  0  0  0  0  0  0  0  0
  -36.4940  -29.6540   18.2590 O   0  0  0  0  0  0  0  0  0  0  0  0
  -35.4740  -30.7360   19.9530 N   0  0  0  0  0  0  0  0  0  0  0  0
  -35.6500  -31.1050   20.8770 H   0  0  0  0  0  0  0  0  0  0  0  0
  -39.0470  -28.8110   24.2820 C   0  0  0  0  0  0  0  0  0  0  0  0
  -39.6070  -29.3310   25.4170 C   0  0  0  0  0  0  0  0  0  0  0  0
  -40.2050  -30.5710   25.0300 C   0  0  0  0  0  0  0  0  0  0  0  0
  -39.3050  -29.7270   23.2740 N   0  0  0  0  0  0  0  0  0  0  0  0
  -39.9620  -30.8170   23.7480 N   0  0  0  0  0  0  0  0  0  0  0  0
  -41.0380  -31.5090   25.7910 C   0  0  0  0  0  0  0  0  0  0  0  0
  -40.7140  -32.8820   25.8800 C   0  0  0  0  0  3  0  0  0  0  0  0
  -41.5190  -33.7600   26.6350 C   0  0  0  0  0  3  0  0  0  0  0  0
  -42.6620  -33.2730   27.3130 C   0  0  0  0  0  0  0  0  0  0  0  0
  -42.9920  -31.9110   27.2060 C   0  0  0  0  0  3  0  0  0  0  0  0
  -42.1920  -31.0370   26.4500 C   0  0  0  0  0  3  0  0  0  0  0  0
  -43.5170  -34.0590   28.0470 O   0  0  0  0  0  0  0  0  0  0  0  0
  -43.0910  -35.2100   28.6610 C   0  0  0  0  0  0  0  0  0  0  0  0
  -42.0290  -35.2090   29.5910 C   0  0  0  0  0  3  0  0  0  0  0  0
  -41.6690  -36.4010   30.2490 C   0  0  0  0  0  3  0  0  0  0  0  0
  -42.3750  -37.5910   29.9870 C   0  0  0  0  0  0  0  0  0  0  0  0
  -43.4360  -37.5920   29.0660 C   0  0  0  0  0  3  0  0  0  0  0  0
  -43.7940  -36.4040   28.4060 C   0  0  0  0  0  0  0  0  0  0  0  0
  -44.8330  -36.4070   27.5360 F   0  0  0  0  0  0  0  0  0  0  0  0
  -42.0340  -38.7350   30.6250 F   0  0  0  0  0  0  0  0  0  0  0  0
  -39.6720  -28.6770   26.7670 C   0  0  0  0  0  0  0  0  0  0  0  0
  -39.6610  -29.4650   27.8350 N   0  0  0  0  0  0  0  0  0  0  0  0
  -39.6820  -27.4510   26.8820 O   0  0  0  0  0  0  0  0  0  0  0  0
  -39.6310  -30.4710   27.7410 H   0  0  0  0  0  0  0  0  0  0  0  0
  -39.6820  -29.0600   28.7590 H   0  0  0  0  0  0  0  0  0  0  0  0
  -38.3570  -27.6310   24.0190 N   0  0  0  0  0  0  0  0  0  0  0  0
  -38.2000  -26.9250   24.7290 H   0  0  0  0  0  0  0  0  0  0  0  0
  -38.0200  -27.3570   23.1060 H   0  0  0  0  0  0  0  0  0  0  0  0
  -23.1260  -24.0040   20.1310 C   0  0  0  0  0  2  0  0  0  0  0  0
  -23.1750  -24.7950   18.8100 C   0  0  0  0  0  2  0  0  0  0  0  0
  -25.3390  -29.8590   18.1280 C   0  0  0  0  0  3  0  0  0  0  0  0
  -25.7180  -28.6010   17.8960 C   0  0  0  0  0  3  0  0  0  0  0  0
  -23.9450  -29.8460   18.5290 C   0  0  0  0  0  0  0  0  0  0  0  0
  -25.1370  -26.5730   19.2070 C   0  0  0  0  0  2  0  0  0  0  0  0
  -23.3950  -28.4180   18.4720 C   0  0  0  0  0  3  0  0  0  0  0  0
  -24.5490  -26.3310   17.1670 C   0  0  0  0  0  3  0  0  0  0  0  0
  -24.5340  -25.4060   18.4140 C   0  0  0  0  0  3  0  0  0  0  0  0
  -24.6430  -27.5550   18.1400 C   0  0  1  0  0  0  0  0  0  0  0  0
  -22.2320  -28.3220   17.4650 C   0  0  0  0  0  1  0  0  0  0  0  0
  -23.2680  -30.8210   18.8640 O   0  0  0  0  0  0  0  0  0  0  0  0
  -25.5910  -26.1400   16.0690 C   0  0  0  0  0  0  0  0  0  0  0  0
  -26.1500  -27.0420   15.4380 O   0  0  0  0  0  0  0  0  0  0  0  0
  -25.9020  -24.6970   15.6480 C   0  0  0  0  0  2  0  0  0  0  0  0
  -25.1080  -24.3420   14.5140 O   0  0  0  0  0  0  0  0  0  0  0  0
  -18.5270  -26.4680   12.9460 C   0  0  0  0  0  0  0  0  0  0  0  0
  -23.7650  -24.1570   14.7380 C   0  0  0  0  0  0  0  0  0  0  0  0
  -18.7230  -24.9070   14.8540 C   0  0  0  0  0  3  0  0  0  0  0  0
  -20.9950  -23.8020   15.1450 C   0  0  0  0  0  0  0  0  0  0  0  0
  -20.4430  -24.8810   12.9610 C   0  0  0  0  0  2  0  0  0  0  0  0
  -21.4590  -24.4180   13.9780 C   0  0  0  0  0  0  0  0  0  0  0  0
  -22.8440  -24.5950   13.7660 C   0  0  0  0  0  3  0  0  0  0  0  0
  -23.2790  -23.5240   15.9050 C   0  0  0  0  0  3  0  0  0  0  0  0
  -21.9020  -23.3570   16.1170 C   0  0  0  0  0  3  0  0  0  0  0  0
  -19.5020  -23.6410   15.2920 C   0  0  0  0  0  2  0  0  0  0  0  0
  -19.2290  -25.4770   13.5630 N   0  0  0  0  0  0  0  0  0  0  0  0
  -17.4550  -26.8780   13.4100 O   0  0  0  0  0  0  0  0  0  0  0  0
  -18.7430  -25.9200   16.0200 C   0  0  0  0  0  0  0  0  0  0  0  0
  -18.3300  -25.4670   17.2140 N   0  0  0  0  0  0  0  0  0  0  0  0
  -19.1460  -27.0730   15.8500 O   0  0  0  0  0  0  0  0  0  0  0  0
  -18.0010  -24.5140   17.2730 H   0  0  0  0  0  0  0  0  0  0  0  0
  -18.0880  -25.1550   20.8030 C   0  0  0  0  0  0  0  0  0  0  0  0
  -18.2930  -26.2290   18.4600 C   0  0  0  0  0  3  0  0  0  0  0  0
  -19.7170  -26.6550   18.8900 C   0  0  0  0  0  2  0  0  0  0  0  0
  -20.3770  -25.6550   19.8470 C   0  0  0  0  0  2  0  0  0  0  0  0
  -19.5340  -25.5010   21.1180 C   0  0  0  0  0  2  0  0  0  0  0  0
  -17.5110  -25.4840   19.5470 C   0  0  0  0  0  0  0  0  0  0  0  0
  -16.1760  -25.1020   19.2860 C   0  0  0  0  0  3  0  0  0  0  0  0
  -15.4200  -24.4130   20.2530 C   0  0  0  0  0  3  0  0  0  0  0  0
  -15.9880  -24.1100   21.5020 C   0  0  0  0  0  3  0  0  0  0  0  0
  -17.3160  -24.4820   21.7750 C   0  0  0  0  0  3  0  0  0  0  0  0
  -19.0220  -27.1160   11.6140 C   0  0  0  0  0  3  0  0  0  0  0  0
  -20.2170  -28.1250   11.8230 C   0  0  1  0  0  0  0  0  0  0  0  0
  -19.9790  -29.1430   12.9630 C   0  0  0  0  0  1  0  0  0  0  0  0
  -21.5270  -27.3640   12.1380 C   0  0  0  0  0  1  0  0  0  0  0  0
  -20.4650  -28.9230   10.5230 C   0  0  0  0  0  1  0  0  0  0  0  0
  -17.8740  -27.7900   10.9950 N   0  0  0  0  0  0  0  0  0  0  0  0
  -17.1060  -27.2550   10.0350 C   0  0  0  0  0  0  0  0  0  0  0  0
  -17.3420  -26.1580    9.5200 O   0  0  0  0  0  0  0  0  0  0  0  0
  -17.5910  -28.6700   11.4040 H   0  0  0  0  0  0  0  0  0  0  0  0
  -14.6220  -27.5520   10.2820 C   0  0  0  0  0  1  0  0  0  0  0  0
  -15.8830  -28.0680    9.5680 C   0  0  0  0  0  3  0  0  0  0  0  0
  -16.7190  -28.7360    7.3590 C   0  0  0  0  0  1  0  0  0  0  0  0
  -15.6760  -28.0340    8.1040 N   0  0  0  0  0  0  0  0  0  0  0  0
  -14.7810  -28.4480    7.8590 H   0  0  0  0  0  0  0  0  0  0  0  0
  1 58  1  0
  2  1  1  0
  3  2  1  0
  3  4  1  0
  5  6  1  0
  5  4  1  0
  7  8  1  0
  7  6  1  0
  9  8  1  0
 10  9  1  0
 10 11  1  0
 11 12  1  0
 12 13  1  0
 14 13  1  0
 14 15  1  0
 16 17  1  0
 16 15  1  0
 18 19  1  0
 18 17  1  0
 19 28  1  0
 20 28  1  0
 20 26  1  0
 21 22  1  0
 21 26  1  0
 22 23  1  0
 24 23  1  0
 24 33  1  0
 25 24  1  0
 26 25  1  0
 27 20  2  0
 28 29  1  0
 30 31  2  0
 31 50  1  0
 32 31  1  0
 32 35  1  0
 33 34  1  0
 33 30  1  0
 34 32  2  0
 35 36  2  0
 35 40  1  0
 36 37  1  0
 37 38  2  0
 38 41  1  0
 39 38  1  0
 40 39  2  0
 41 42  1  0
 42 43  1  0
 43 44  2  0
 45 44  1  0
 45 49  1  0
 46 45  2  0
 47 42  2  0
 47 46  1  0
 48 47  1  0
 50 52  2  0
 50 51  1  0
 51 54  1  0
 53 51  1  0
 55 30  1  0
 55 56  1  0
 57 55  1  0
 59 58  1  0
 60 62  1  0
 61 60  2  0
 62 69  2  0
 64 68  1  0
 64 62  1  0
 65 70  1  0
 65 67  1  0
 65 66  1  0
 66 59  1  0
 66 63  1  0
 67 61  1  0
 67 64  1  0
 67 63  1  1
 71 70  2  0
 72 70  1  0
 73 75  1  0
 73 72  1  0
 74 85  2  0
 74 84  1  0
 75 81  1  0
 76 83  1  0
 76 86  1  0
 77 83  1  0
 77 82  1  0
 78 84  1  0
 78 79  1  0
 79 77  2  0
 80 79  1  0
 80 75  2  0
 81 82  2  0
 84 76  1  0
 86 87  1  0
 87 89  1  0
 88 86  2  0
 90 94  1  0
 90 99  1  0
 91 87  1  0
 91 92  1  0
 91 95  1  0
 92 93  1  0
 93 94  1  0
 95 90  2  0
 96 95  1  0
 96 97  2  0
 97 98  1  0
 98 99  2  0
100101  1  0
100 74  1  0
101103  1  1
101102  1  0
104101  1  0
105108  1  0
105100  1  0
106105  1  0
107106  2  0
110106  1  0
110109  1  0
111112  1  0
112110  1  0
113112  1  0
M  ISO  4  20 100  28 100  72 101  73 101
M  END
>  <TORSDO>  (47) 
F 39

>  <SCORE>  (47) 
-0.138

>  <name>  (47) 
46

>  <ligand_id>  (47) 
46

>  <original_smiles>  (47) 
[H]C1=C([H])C2(C([H])([H])C([H])(C([H])([H])C([H])([H])C([H])([H])C([H])([H])C([H])([H])C([H])([H])C([H])([H])C([H])([H])C([H])([H])C([H])([H])C([H])([H])C([H])([H])C([H])([H])C([H])([H])C([H])([H])C([H])([H])C([H])([H])C([H])([H])C([H])([H])C([H])([H])C([H])([H])N([H])C(=O)N3C([H])([H])C([H])([H])C([H])([H])C([H])(n4nc(-c5c([H])c([H])c(Oc6c([H])c([H])c(F)c([H])c6F)c([H])c5[H])c(C(=O)N([H])[H])c4N([H])[H])C3([H])[H])C2([H])C(=O)C([H])([H])Oc2c([H])c([H])c3c(c2[H])C([H])([H])N(C(=O)C([H])(N([H])C(=O)C([H])(N([H])C([H])([H])[H])C([H])([H])[H])C(C([H])([H])[H])(C([H])([H])[H])C([H])([H])[H])C([H])(C(=O)N([H])C2([H])c4c([H])c([H])c([H])c([H])c4C([H])([H])C([H])([H])C2([H])[H])C3([H])[H])C([H])(C([H])([H])[H])C1=O

>  <smiles>  (47) 
[H]C1=C([H])C2(C([H])([H])C([H])(C([H])([H])C([H])([H])C([H])([H])C([H])([H])C([H])([H])C([H])([H])C([H])([H])C([H])([H])C([H])([H])C([H])([H])C([H])([H])C([H])([H])C([H])([H])C([H])([H])C([H])([H])C([H])([H])C([H])([H])C([H])([H])C([H])([H])C([H])([H])C([H])([H])N([H])C(=O)N3C([H])([H])C([H])([H])C([H])([H])C([H])(n4nc(-c5c([H])c([H])c(Oc6c([H])c([H])c(F)c([H])c6F)c([H])c5[H])c(C(=O)N([H])[H])c4N([H])[H])C3([H])[H])C2([H])C(=O)C([H])([H])Oc2c([H])c([H])c3c(c2[H])C([H])([H])N(C(=O)C([H])(N([H])C(=O)C([H])(N([H])C([H])([H])[H])C([H])([H])[H])C(C([H])([H])[H])(C([H])([H])[H])C([H])([H])[H])C([H])(C(=O)N([H])C2([H])c4c([H])c([H])c([H])c([H])c4C([H])([H])C([H])([H])C2([H])[H])C3([H])[H])C([H])(C([H])([H])[H])C1=O

$$$$
47:0:0
     RDKit          3D

 95102  0  0  1  0  0  0  0  0999 V2000
  -24.4870  -22.7390   20.6020 C   0  0  0  0  0  2  0  0  0  0  0  0
  -24.8590  -21.2530   20.3960 C   0  0  0  0  0  2  0  0  0  0  0  0
  -23.7510  -20.3860   19.7580 C   0  0  0  0  0  2  0  0  0  0  0  0
  -24.1560  -19.7920   18.3970 C   0  0  0  0  0  2  0  0  0  0  0  0
  -23.1410  -18.7710   17.8570 C   0  0  0  0  0  2  0  0  0  0  0  0
  -23.4680  -18.3370   16.4190 C   0  0  0  0  0  2  0  0  0  0  0  0
  -22.6420  -17.1320   15.9400 C   0  0  0  0  0  2  0  0  0  0  0  0
  -23.0020  -15.8340   16.6730 C   0  0  0  0  0  2  0  0  0  0  0  0
  -21.7730  -14.9520   16.9380 C   0  0  0  0  0  2  0  0  0  0  0  0
  -22.1300  -13.5880   17.5460 C   0  0  0  0  0  2  0  0  0  0  0  0
  -23.2670  -14.2310   19.6680 C   0  0  0  0  0  0  0  0  0  0  0  0
  -24.1860  -13.7670   21.9000 C   0  0  0  0  0  2  0  0  0  0  0  0
  -25.0210  -14.9030   22.5070 C   0  0  0  0  0  2  0  0  0  0  0  0
  -26.4850  -14.7980   22.0470 C   0  0  0  0  0  2  0  0  0  0  0  0
  -26.6090  -14.6700   20.5080 C   0  0  0  0  0  3  0  0  0  0  0  0
  -25.6730  -13.5700   19.9620 C   0  0  0  0  0  2  0  0  0  0  0  0
  -24.2990  -13.8200   20.4390 N   0  0  0  0  0  0  0  0  0  0  0  0
  -22.2910  -14.8580   20.0930 O   0  0  0  0  0  0  0  0  0  0  0  0
  -23.2650  -13.6610   18.4600 N   0  0  0  0  0  0  0  0  0  0  0  0
  -24.0730  -13.0990   18.2330 H   0  0  0  0  0  0  0  0  0  0  0  0
  -28.8380  -15.2470   19.3510 C   0  0  0  0  0  0  0  0  0  0  0  0
  -30.0520  -14.6130   19.3360 C   0  0  0  0  0  0  0  0  0  0  0  0
  -29.8860  -13.4250   20.1130 C   0  0  0  0  0  0  0  0  0  0  0  0
  -27.9980  -14.4430   20.1080 N   0  0  0  0  0  0  0  0  0  0  0  0
  -28.6300  -13.3150   20.5220 N   0  0  0  0  0  0  0  0  0  0  0  0
  -30.8650  -12.4160   20.5370 C   0  0  0  0  0  0  0  0  0  0  0  0
  -30.6390  -11.0360   20.3350 C   0  0  0  0  0  3  0  0  0  0  0  0
  -31.6030  -10.0860   20.7350 C   0  0  0  0  0  3  0  0  0  0  0  0
  -32.8080  -10.5100   21.3420 C   0  0  0  0  0  0  0  0  0  0  0  0
  -33.0200  -11.8840   21.5610 C   0  0  0  0  0  3  0  0  0  0  0  0
  -32.0570  -12.8280   21.1660 C   0  0  0  0  0  3  0  0  0  0  0  0
  -33.7900   -9.6580   21.7860 O   0  0  0  0  0  0  0  0  0  0  0  0
  -33.9430   -8.4000   21.2610 C   0  0  0  0  0  0  0  0  0  0  0  0
  -34.1730   -8.1890   19.8850 C   0  0  0  0  0  3  0  0  0  0  0  0
  -34.3930   -6.8840   19.3990 C   0  0  0  0  0  3  0  0  0  0  0  0
  -34.3940   -5.7930   20.2870 C   0  0  0  0  0  0  0  0  0  0  0  0
  -34.1700   -6.0020   21.6600 C   0  0  0  0  0  3  0  0  0  0  0  0
  -33.9490   -7.3010   22.1460 C   0  0  0  0  0  0  0  0  0  0  0  0
  -33.7550   -7.4990   23.4720 F   0  0  0  0  0  0  0  0  0  0  0  0
  -34.6130   -4.5400   19.8220 F   0  0  0  0  0  0  0  0  0  0  0  0
  -31.3210  -15.1220   18.7160 C   0  0  0  0  0  0  0  0  0  0  0  0
  -32.1810  -14.2220   18.2520 N   0  0  0  0  0  0  0  0  0  0  0  0
  -31.5350  -16.3280   18.5950 O   0  0  0  0  0  0  0  0  0  0  0  0
  -31.9960  -13.2330   18.3320 H   0  0  0  0  0  0  0  0  0  0  0  0
  -33.0370  -14.5260   17.8100 H   0  0  0  0  0  0  0  0  0  0  0  0
  -28.3850  -16.4430   18.8040 N   0  0  0  0  0  0  0  0  0  0  0  0
  -28.9920  -17.0690   18.2860 H   0  0  0  0  0  0  0  0  0  0  0  0
  -27.4460  -16.8050   18.9170 H   0  0  0  0  0  0  0  0  0  0  0  0
  -25.6640  -23.7360   20.6100 C   0  0  0  0  0  2  0  0  0  0  0  0
  -26.2010  -24.1020   19.2150 C   0  0  0  0  0  2  0  0  0  0  0  0
  -27.1410  -26.4210   18.7920 C   0  0  0  0  0  3  0  0  0  0  0  0
  -27.2960  -25.1590   19.2380 C   0  0  0  0  0  0  0  0  0  0  0  0
  -28.6300  -24.6860   19.7920 C   0  0  0  0  0  1  0  0  0  0  0  0
  -25.8840  -27.0600   18.2170 C   0  0  0  0  0  2  0  0  0  0  0  0
  -25.8270  -28.4430   18.5410 O   0  0  0  0  0  0  0  0  0  0  0  0
  -28.4270  -31.5400   24.3580 C   0  0  0  0  0  0  0  0  0  0  0  0
  -25.5920  -28.7750   19.8530 C   0  0  0  0  0  0  0  0  0  0  0  0
  -26.2820  -30.3440   24.6570 C   0  0  0  0  0  3  0  0  0  0  0  0
  -25.1300  -29.5880   22.5140 C   0  0  0  0  0  0  0  0  0  0  0  0
  -26.9200  -31.3340   22.3870 C   0  0  0  0  0  2  0  0  0  0  0  0
  -26.1170  -30.2220   21.7490 C   0  0  0  0  0  0  0  0  0  0  0  0
  -26.3440  -29.8250   20.4170 C   0  0  0  0  0  3  0  0  0  0  0  0
  -24.6020  -28.1360   20.6350 C   0  0  0  0  0  3  0  0  0  0  0  0
  -24.3700  -28.5420   21.9630 C   0  0  0  0  0  3  0  0  0  0  0  0
  -24.9370  -30.0910   23.9250 C   0  0  0  0  0  2  0  0  0  0  0  0
  -27.2710  -31.0770   23.8020 N   0  0  0  0  0  0  0  0  0  0  0  0
  -28.6540  -31.4090   25.5690 O   0  0  0  0  0  0  0  0  0  0  0  0
  -26.8120  -28.9930   25.1890 C   0  0  0  0  0  0  0  0  0  0  0  0
  -26.4150  -28.6400   26.4220 N   0  0  0  0  0  0  0  0  0  0  0  0
  -27.5390  -28.2780   24.4930 O   0  0  0  0  0  0  0  0  0  0  0  0
  -25.8270  -29.2830   26.9320 H   0  0  0  0  0  0  0  0  0  0  0  0
  -26.1210  -26.8840   29.5620 C   0  0  0  0  0  0  0  0  0  0  0  0
  -26.7590  -27.3980   27.1110 C   0  0  0  0  0  3  0  0  0  0  0  0
  -25.7890  -26.2580   26.7250 C   0  0  0  0  0  2  0  0  0  0  0  0
  -24.6030  -26.1270   27.6860 C   0  0  0  0  0  2  0  0  0  0  0  0
  -25.0910  -25.8610   29.1120 C   0  0  0  0  0  2  0  0  0  0  0  0
  -26.8940  -27.6170   28.6230 C   0  0  0  0  0  0  0  0  0  0  0  0
  -27.8080  -28.5830   29.0970 C   0  0  0  0  0  3  0  0  0  0  0  0
  -27.9610  -28.8130   30.4780 C   0  0  0  0  0  3  0  0  0  0  0  0
  -27.2050  -28.0740   31.4020 C   0  0  0  0  0  3  0  0  0  0  0  0
  -26.2890  -27.1100   30.9440 C   0  0  0  0  0  3  0  0  0  0  0  0
  -29.5050  -32.2790   23.5030 C   0  0  0  0  0  3  0  0  0  0  0  0
  -29.8870  -33.4940   24.2350 N   0  0  0  0  0  0  0  0  0  0  0  0
  -29.4100  -34.7190   23.9770 C   0  0  0  0  0  0  0  0  0  0  0  0
  -28.6460  -34.9560   23.0380 O   0  0  0  0  0  0  0  0  0  0  0  0
  -30.4660  -33.3680   25.0510 H   0  0  0  0  0  0  0  0  0  0  0  0
  -28.7470  -36.1450   25.9410 C   0  0  0  0  0  1  0  0  0  0  0  0
  -29.8510  -35.8630   24.9110 C   0  0  0  0  0  3  0  0  0  0  0  0
  -31.3990  -37.0020   23.3810 C   0  0  0  0  0  1  0  0  0  0  0  0
  -30.1890  -37.1100   24.1920 N   0  0  0  0  0  0  0  0  0  0  0  0
  -30.3140  -37.8790   24.8450 H   0  0  0  0  0  0  0  0  0  0  0  0
  -30.7710  -31.3900   23.1910 C   0  0  1  0  0  0  0  0  0  0  0  0
  -31.4320  -30.7860   24.4510 C   0  0  0  0  0  1  0  0  0  0  0  0
  -30.4000  -30.2230   22.2460 C   0  0  0  0  0  1  0  0  0  0  0  0
  -31.8350  -32.2360   22.4540 C   0  0  0  0  0  1  0  0  0  0  0  0
  1 49  1  0
  2  1  1  0
  3  2  1  0
  4  3  1  0
  5  4  1  0
  6  5  1  0
  7  6  1  0
  7  8  1  0
  8  9  1  0
  9 10  1  0
 10 19  1  0
 11 18  2  0
 11 17  1  0
 12 13  1  0
 14 13  1  0
 15 16  1  0
 15 14  1  0
 16 17  1  0
 17 12  1  0
 19 11  1  0
 20 19  1  0
 21 24  1  0
 22 21  2  0
 22 23  1  0
 23 25  2  0
 23 26  1  0
 24 15  1  0
 24 25  1  0
 26 31  1  0
 27 26  2  0
 27 28  1  0
 28 29  2  0
 29 30  1  0
 29 32  1  0
 31 30  2  0
 33 32  1  0
 33 38  1  0
 34 33  2  0
 35 34  1  0
 35 36  2  0
 36 37  1  0
 37 38  2  0
 38 39  1  0
 40 36  1  0
 41 22  1  0
 42 44  1  0
 42 41  1  0
 43 41  2  0
 45 42  1  0
 46 48  1  0
 46 21  1  0
 47 46  1  0
 50 52  1  0
 50 49  1  0
 51 52  2  0
 52 53  1  0
 54 55  1  0
 54 51  1  0
 55 57  1  0
 56 67  2  0
 57 62  2  0
 57 63  1  0
 58 68  1  0
 59 65  1  0
 60 66  1  0
 61 60  1  0
 61 59  2  0
 62 61  1  0
 63 64  2  0
 64 59  1  0
 65 58  1  0
 66 56  1  0
 66 58  1  0
 68 69  1  0
 69 71  1  0
 70 68  2  0
 72 81  1  0
 73 69  1  0
 73 77  1  0
 74 73  1  0
 74 75  1  0
 75 76  1  0
 76 72  1  0
 77 78  1  0
 77 72  2  0
 78 79  2  0
 79 80  1  0
 81 80  2  0
 82 83  1  0
 82 56  1  0
 83 86  1  0
 84 83  1  0
 84 88  1  0
 85 84  2  0
 88 87  1  0
 89 90  1  0
 90 91  1  0
 90 88  1  0
 92 82  1  0
 92 93  1  1
 94 92  1  0
 95 92  1  0
M  ISO  4  11 100  19 100  54 101  55 101
M  END
>  <TORSDO>  (48) 
F 29

>  <SCORE>  (48) 
20.713

>  <name>  (48) 
47

>  <ligand_id>  (48) 
47

>  <original_smiles>  (48) 
[H]C(=C(C([H])([H])[H])C([H])([H])C([H])([H])C([H])([H])C([H])([H])C([H])([H])C([H])([H])C([H])([H])C([H])([H])C([H])([H])C([H])([H])C([H])([H])C([H])([H])N([H])C(=O)N1C([H])([H])C([H])([H])C([H])([H])C([H])(n2nc(-c3c([H])c([H])c(Oc4c([H])c([H])c(F)c([H])c4F)c([H])c3[H])c(C(=O)N([H])[H])c2N([H])[H])C1([H])[H])C([H])([H])Oc1c([H])c([H])c2c(c1[H])C([H])([H])N(C(=O)C([H])(N([H])C(=O)C([H])(N([H])C([H])([H])[H])C([H])([H])[H])C(C([H])([H])[H])(C([H])([H])[H])C([H])([H])[H])C([H])(C(=O)N([H])C1([H])c3c([H])c([H])c([H])c([H])c3C([H])([H])C([H])([H])C1([H])[H])C2([H])[H]

>  <smiles>  (48) 
[H]C(=C(C([H])([H])[H])C([H])([H])C([H])([H])C([H])([H])C([H])([H])C([H])([H])C([H])([H])C([H])([H])C([H])([H])C([H])([H])C([H])([H])C([H])([H])C([H])([H])N([H])C(=O)N1C([H])([H])C([H])([H])C([H])([H])C([H])(n2nc(-c3c([H])c([H])c(Oc4c([H])c([H])c(F)c([H])c4F)c([H])c3[H])c(C(=O)N([H])[H])c2N([H])[H])C1([H])[H])C([H])([H])Oc1c([H])c([H])c2c(c1[H])C([H])([H])N(C(=O)C([H])(N([H])C(=O)C([H])(N([H])C([H])([H])[H])C([H])([H])[H])C(C([H])([H])[H])(C([H])([H])[H])C([H])([H])[H])C([H])(C(=O)N([H])C1([H])c3c([H])c([H])c([H])c([H])c3C([H])([H])C([H])([H])C1([H])[H])C2([H])[H]

$$$$
48:0:0
     RDKit          3D

 97104  0  0  1  0  0  0  0  0999 V2000
  -28.6120  -25.6020   25.7650 C   0  0  0  0  0  2  0  0  0  0  0  0
  -28.3160  -24.3740   24.8850 C   0  0  0  0  0  2  0  0  0  0  0  0
  -29.5210  -23.8920   24.1770 N   0  0  0  0  0  4  0  0  0  0  0  0
  -30.1640  -23.5140   24.8530 H   0  0  0  0  0  0  0  0  0  0  0  0
  -29.9650  -24.6770   23.7310 H   0  0  0  0  0  0  0  0  0  0  0  0
  -29.2440  -22.8680   23.1510 C   0  0  0  0  0  2  0  0  0  0  0  0
  -30.5340  -22.2140   22.6230 C   0  0  0  0  0  2  0  0  0  0  0  0
  -30.2430  -20.9770   21.7580 C   0  0  0  0  0  2  0  0  0  0  0  0
  -31.4700  -20.0710   21.5680 C   0  0  0  0  0  2  0  0  0  0  0  0
  -31.0690  -18.6770   21.0670 C   0  0  0  0  0  2  0  0  0  0  0  0
  -32.2110  -17.6560   21.1480 C   0  0  0  0  0  2  0  0  0  0  0  0
  -32.1290  -15.3100   20.2720 C   0  0  0  0  0  0  0  0  0  0  0  0
  -31.8410  -12.9280   19.6950 C   0  0  0  0  0  2  0  0  0  0  0  0
  -30.9620  -12.7340   18.4470 C   0  0  0  0  0  2  0  0  0  0  0  0
  -29.4680  -12.7130   18.8210 C   0  0  0  0  0  2  0  0  0  0  0  0
  -29.0660  -13.9050   19.7280 C   0  0  0  0  0  3  0  0  0  0  0  0
  -30.0480  -14.0410   20.9120 C   0  0  0  0  0  2  0  0  0  0  0  0
  -31.4200  -14.1590   20.3770 N   0  0  0  0  0  0  0  0  0  0  0  0
  -33.1510  -15.4260   19.5890 O   0  0  0  0  0  0  0  0  0  0  0  0
  -31.6700  -16.3070   21.0340 N   0  0  0  0  0  0  0  0  0  0  0  0
  -30.8600  -16.0890   21.5970 H   0  0  0  0  0  0  0  0  0  0  0  0
  -26.7540  -14.7770   20.4630 C   0  0  0  0  0  0  0  0  0  0  0  0
  -25.5920  -14.1270   20.7850 C   0  0  0  0  0  0  0  0  0  0  0  0
  -25.8770  -12.7330   20.6760 C   0  0  0  0  0  0  0  0  0  0  0  0
  -27.6820  -13.7840   20.1860 N   0  0  0  0  0  0  0  0  0  0  0  0
  -27.1540  -12.5460   20.3670 N   0  0  0  0  0  0  0  0  0  0  0  0
  -24.9950  -11.5650   20.7930 C   0  0  0  0  0  0  0  0  0  0  0  0
  -25.2860  -10.5060   21.6790 C   0  0  0  0  0  3  0  0  0  0  0  0
  -24.4130   -9.4010   21.7860 C   0  0  0  0  0  3  0  0  0  0  0  0
  -23.2350   -9.3490   21.0040 C   0  0  0  0  0  0  0  0  0  0  0  0
  -22.9620  -10.3960   20.1070 C   0  0  0  0  0  3  0  0  0  0  0  0
  -23.8330  -11.4920   19.9980 C   0  0  0  0  0  3  0  0  0  0  0  0
  -22.3420   -8.3050   21.0230 O   0  0  0  0  0  0  0  0  0  0  0  0
  -22.0920   -7.5920   22.1680 C   0  0  0  0  0  0  0  0  0  0  0  0
  -21.6460   -8.2170   23.3530 C   0  0  0  0  0  3  0  0  0  0  0  0
  -21.3350   -7.4380   24.4850 C   0  0  0  0  0  3  0  0  0  0  0  0
  -21.4570   -6.0370   24.4320 C   0  0  0  0  0  0  0  0  0  0  0  0
  -21.8970   -5.4130   23.2530 C   0  0  0  0  0  3  0  0  0  0  0  0
  -22.2090   -6.1870   22.1220 C   0  0  0  0  0  0  0  0  0  0  0  0
  -22.6110   -5.5790   20.9800 F   0  0  0  0  0  0  0  0  0  0  0  0
  -21.1510   -5.2870   25.5170 F   0  0  0  0  0  0  0  0  0  0  0  0
  -24.2650  -14.7630   21.0850 C   0  0  0  0  0  0  0  0  0  0  0  0
  -23.4590  -14.1320   21.9310 N   0  0  0  0  0  0  0  0  0  0  0  0
  -23.9530  -15.8520   20.6020 O   0  0  0  0  0  0  0  0  0  0  0  0
  -23.7230  -13.2510   22.3450 H   0  0  0  0  0  0  0  0  0  0  0  0
  -22.5650  -14.5390   22.1690 H   0  0  0  0  0  0  0  0  0  0  0  0
  -27.0950  -16.1230   20.3660 N   0  0  0  0  0  0  0  0  0  0  0  0
  -26.4220  -16.8670   20.5170 H   0  0  0  0  0  0  0  0  0  0  0  0
  -28.0070  -16.4640   20.0840 H   0  0  0  0  0  0  0  0  0  0  0  0
  -29.3050  -26.7400   24.9980 C   0  0  0  0  0  2  0  0  0  0  0  0
  -29.2370  -28.0890   25.7320 C   0  0  0  0  0  2  0  0  0  0  0  0
  -30.1200  -29.1940   25.1210 C   0  0  0  0  0  2  0  0  0  0  0  0
  -29.9500  -29.3760   23.5990 C   0  0  0  0  0  2  0  0  0  0  0  0
  -30.9190  -28.5120   22.7660 C   0  0  0  0  0  2  0  0  0  0  0  0
  -30.4170  -28.2230   21.3380 C   0  0  0  0  0  2  0  0  0  0  0  0
  -29.3240  -27.1410   21.3110 C   0  0  0  0  0  2  0  0  0  0  0  0
  -28.5830  -27.1430   20.0900 O   0  0  0  0  0  0  0  0  0  0  0  0
  -24.5460  -32.0470   23.3020 C   0  0  0  0  0  0  0  0  0  0  0  0
  -27.4020  -27.8440   20.1220 C   0  0  0  0  0  0  0  0  0  0  0  0
  -23.4040  -30.6410   21.6110 C   0  0  0  0  0  3  0  0  0  0  0  0
  -24.9300  -29.2060   20.1550 C   0  0  0  0  0  0  0  0  0  0  0  0
  -25.9040  -31.1260   21.4310 C   0  0  0  0  0  2  0  0  0  0  0  0
  -26.0520  -29.7760   20.7660 C   0  0  0  0  0  0  0  0  0  0  0  0
  -27.2880  -29.1020   20.7560 C   0  0  0  0  0  3  0  0  0  0  0  0
  -26.2710  -27.2840   19.4970 C   0  0  0  0  0  3  0  0  0  0  0  0
  -25.0300  -27.9540   19.5210 C   0  0  0  0  0  3  0  0  0  0  0  0
  -23.6460  -30.0030   20.2160 C   0  0  0  0  0  2  0  0  0  0  0  0
  -24.6350  -31.2840   22.1760 N   0  0  0  0  0  0  0  0  0  0  0  0
  -23.4550  -32.2580   23.8470 O   0  0  0  0  0  0  0  0  0  0  0  0
  -22.7950  -29.5680   22.5420 C   0  0  0  0  0  0  0  0  0  0  0  0
  -21.4750  -29.3510   22.4190 N   0  0  0  0  0  0  0  0  0  0  0  0
  -23.5040  -28.9340   23.3280 O   0  0  0  0  0  0  0  0  0  0  0  0
  -20.9640  -29.9190   21.7580 H   0  0  0  0  0  0  0  0  0  0  0  0
  -18.1430  -28.0510   22.8990 C   0  0  0  0  0  0  0  0  0  0  0  0
  -20.6940  -28.3650   23.1620 C   0  0  0  0  0  3  0  0  0  0  0  0
  -20.8280  -26.9590   22.5320 C   0  0  0  0  0  2  0  0  0  0  0  0
  -19.7260  -26.6460   21.5150 C   0  0  0  0  0  2  0  0  0  0  0  0
  -18.3470  -26.7310   22.1750 C   0  0  0  0  0  2  0  0  0  0  0  0
  -19.2440  -28.8250   23.3490 C   0  0  0  0  0  0  0  0  0  0  0  0
  -18.9990  -30.0600   23.9860 C   0  0  0  0  0  3  0  0  0  0  0  0
  -17.6830  -30.5230   24.1780 C   0  0  0  0  0  3  0  0  0  0  0  0
  -16.5960  -29.7460   23.7440 C   0  0  0  0  0  3  0  0  0  0  0  0
  -16.8250  -28.5120   23.1110 C   0  0  0  0  0  3  0  0  0  0  0  0
  -25.8050  -32.7120   23.9440 C   0  0  0  0  0  3  0  0  0  0  0  0
  -26.2920  -31.9820   25.2540 C   0  0  1  0  0  0  0  0  0  0  0  0
  -25.1700  -31.7500   26.2920 C   0  0  0  0  0  1  0  0  0  0  0  0
  -26.9120  -30.6070   24.9110 C   0  0  0  0  0  1  0  0  0  0  0  0
  -27.4060  -32.8130   25.9350 C   0  0  0  0  0  1  0  0  0  0  0  0
  -25.4710  -34.1140   24.2200 N   0  0  0  0  0  0  0  0  0  0  0  0
  -25.8540  -35.1480   23.4610 C   0  0  0  0  0  0  0  0  0  0  0  0
  -26.5950  -35.0240   22.4810 O   0  0  0  0  0  0  0  0  0  0  0  0
  -24.8160  -34.2830   24.9700 H   0  0  0  0  0  0  0  0  0  0  0  0
  -24.1540  -36.9260   22.9380 C   0  0  0  0  0  1  0  0  0  0  0  0
  -25.3310  -36.5440   23.8490 C   0  0  0  0  0  3  0  0  0  0  0  0
  -27.4080  -37.4390   24.8040 C   0  0  0  0  0  1  0  0  0  0  0  0
  -26.3690  -37.5980   23.7910 N   0  0  0  0  0  0  0  0  0  0  0  0
  -25.9540  -38.5190   23.9060 H   0  0  0  0  0  0  0  0  0  0  0  0
  2  1  1  0
  3  4  1  0
  3  2  1  0
  5  3  1  0
  6  3  1  0
  7  6  1  0
  8  7  1  0
  9  8  1  0
 10 11  1  0
 10  9  1  0
 12 18  1  0
 12 20  1  0
 13 18  1  0
 14 15  1  0
 14 13  1  0
 16 15  1  0
 16 25  1  0
 16 17  1  0
 18 17  1  0
 19 12  2  0
 20 11  1  0
 20 21  1  0
 22 23  2  0
 23 42  1  0
 24 23  1  0
 24 27  1  0
 25 26  1  0
 25 22  1  0
 26 24  2  0
 27 28  1  0
 28 29  2  0
 30 33  1  0
 30 29  1  0
 31 30  2  0
 32 31  1  0
 32 27  2  0
 33 34  1  0
 34 35  1  0
 35 36  2  0
 37 36  1  0
 37 41  1  0
 38 37  2  0
 39 34  2  0
 39 38  1  0
 40 39  1  0
 42 43  1  0
 43 46  1  0
 43 45  1  0
 44 42  2  0
 47 22  1  0
 47 48  1  0
 49 47  1  0
 50 51  1  0
 50  1  1  0
 52 51  1  0
 53 52  1  0
 54 53  1  0
 55 54  1  0
 56 55  1  0
 57 59  1  0
 57 56  1  0
 58 69  2  0
 59 64  1  0
 60 68  1  0
 60 70  1  0
 61 67  1  0
 61 63  1  0
 62 68  1  0
 63 62  1  0
 64 63  2  0
 65 66  1  0
 65 59  2  0
 66 61  2  0
 67 60  1  0
 68 58  1  0
 70 72  2  0
 71 70  1  0
 73 71  1  0
 74 83  2  0
 74 79  1  0
 75 71  1  0
 75 79  1  0
 76 75  1  0
 77 78  1  0
 77 76  1  0
 78 74  1  0
 79 80  2  0
 80 81  1  0
 82 81  2  0
 83 82  1  0
 84 58  1  0
 84 89  1  0
 84 85  1  0
 85 88  1  1
 85 86  1  0
 87 85  1  0
 89 92  1  0
 90 94  1  0
 90 89  1  0
 91 90  2  0
 94 93  1  0
 96 94  1  0
 96 97  1  0
 96 95  1  0
M  ISO  4  12 100  20 100  56 101  57 101
M  END
>  <TORSDO>  (49) 
F 31

>  <SCORE>  (49) 
-5.923

>  <name>  (49) 
48

>  <ligand_id>  (49) 
48

>  <original_smiles>  (49) 
[H]c1c([H])c([H])c2c(c1[H])C([H])([H])C([H])([H])C([H])([H])C2([H])N([H])C(=O)C1([H])N(C(=O)C([H])(N([H])C(=O)C([H])(N([H])C([H])([H])[H])C([H])([H])[H])C(C([H])([H])[H])(C([H])([H])[H])C([H])([H])[H])C([H])([H])c2c([H])c(OC([H])([H])C([H])([H])C([H])([H])C([H])([H])C([H])([H])C([H])([H])C([H])([H])C([H])([H])C([H])([H])[N+]([H])([H])C([H])([H])C([H])([H])C([H])([H])C([H])([H])C([H])([H])C([H])([H])N([H])C(=O)N3C([H])([H])C([H])([H])C([H])([H])C([H])(n4nc(-c5c([H])c([H])c(Oc6c([H])c([H])c(F)c([H])c6F)c([H])c5[H])c(C(=O)N([H])[H])c4N([H])[H])C3([H])[H])c([H])c([H])c2C1([H])[H]

>  <smiles>  (49) 
[H]c1c([H])c([H])c2c(c1[H])C([H])([H])C([H])([H])C([H])([H])C2([H])N([H])C(=O)C1([H])N(C(=O)C([H])(N([H])C(=O)C([H])(N([H])C([H])([H])[H])C([H])([H])[H])C(C([H])([H])[H])(C([H])([H])[H])C([H])([H])[H])C([H])([H])c2c([H])c(OC([H])([H])C([H])([H])C([H])([H])C([H])([H])C([H])([H])C([H])([H])C([H])([H])C([H])([H])C([H])([H])[N+]([H])([H])C([H])([H])C([H])([H])C([H])([H])C([H])([H])C([H])([H])C([H])([H])N([H])C(=O)N3C([H])([H])C([H])([H])C([H])([H])C([H])(n4nc(-c5c([H])c([H])c(Oc6c([H])c([H])c(F)c([H])c6F)c([H])c5[H])c(C(=O)N([H])[H])c4N([H])[H])C3([H])[H])c([H])c([H])c2C1([H])[H]

$$$$
49:0:0
     RDKit          3D

 97106  0  0  1  0  0  0  0  0999 V2000
  -28.2370  -23.3230   24.9890 C   0  0  0  0  0  3  0  0  0  0  0  0
  -29.3110  -22.4130   24.9070 C   0  0  0  0  0  3  0  0  0  0  0  0
  -28.7790  -24.1460   22.7660 C   0  0  0  0  0  3  0  0  0  0  0  0
  -27.9800  -24.2120   23.9250 C   0  0  0  0  0  0  0  0  0  0  0  0
  -30.1570  -22.3870   23.7740 C   0  0  0  0  0  0  0  0  0  0  0  0
  -29.8790  -23.2690   22.6990 C   0  0  0  0  0  0  0  0  0  0  0  0
  -30.6910  -23.3330   21.6050 O   0  0  0  0  0  0  0  0  0  0  0  0
  -30.4440  -24.0340   21.0120 H   0  0  0  0  0  0  0  0  0  0  0  0
  -26.8930  -25.2730   24.0350 C   0  0  0  0  0  2  0  0  0  0  0  0
  -27.3480  -26.5820   24.7170 C   0  0  0  0  0  2  0  0  0  0  0  0
  -28.7800  -27.0360   24.3750 C   0  0  0  0  0  2  0  0  0  0  0  0
  -29.1250  -28.4320   24.9190 C   0  0  0  0  0  2  0  0  0  0  0  0
  -29.3800  -29.3070   23.8330 O   0  0  0  0  0  0  0  0  0  0  0  0
  -22.4690  -28.7900   22.0250 C   0  0  0  0  0  0  0  0  0  0  0  0
  -28.3510  -29.5610   22.9610 C   0  0  0  0  0  0  0  0  0  0  0  0
  -23.9840  -29.7480   20.3160 C   0  0  0  0  0  3  0  0  0  0  0  0
  -26.3450  -30.2740   21.1150 C   0  0  0  0  0  0  0  0  0  0  0  0
  -24.5370  -29.9270   22.8090 C   0  0  0  0  0  2  0  0  0  0  0  0
  -25.9970  -29.9090   22.4230 C   0  0  0  0  0  0  0  0  0  0  0  0
  -26.9940  -29.5480   23.3520 C   0  0  0  0  0  3  0  0  0  0  0  0
  -28.6890  -29.9120   21.6390 C   0  0  0  0  0  3  0  0  0  0  0  0
  -27.6900  -30.2610   20.7100 C   0  0  0  0  0  3  0  0  0  0  0  0
  -25.2180  -30.6790   20.1940 C   0  0  0  0  0  2  0  0  0  0  0  0
  -23.6330  -29.4390   21.7420 N   0  0  0  0  0  0  0  0  0  0  0  0
  -21.6740  -28.4880   21.1230 O   0  0  0  0  0  0  0  0  0  0  0  0
  -24.2450  -28.4850   19.4650 C   0  0  0  0  0  0  0  0  0  0  0  0
  -24.0710  -28.6020   18.1390 N   0  0  0  0  0  0  0  0  0  0  0  0
  -24.6290  -27.4400   19.9950 O   0  0  0  0  0  0  0  0  0  0  0  0
  -23.7310  -29.4820   17.7730 H   0  0  0  0  0  0  0  0  0  0  0  0
  -23.9330  -27.8850   14.6130 C   0  0  0  0  0  0  0  0  0  0  0  0
  -24.3030  -27.5510   17.1490 C   0  0  0  0  0  3  0  0  0  0  0  0
  -25.8060  -27.4190   16.8080 C   0  0  0  0  0  2  0  0  0  0  0  0
  -26.2310  -28.2730   15.6110 C   0  0  0  0  0  2  0  0  0  0  0  0
  -25.4320  -27.8820   14.3620 C   0  0  0  0  0  2  0  0  0  0  0  0
  -23.4020  -27.7480   15.9220 C   0  0  0  0  0  0  0  0  0  0  0  0
  -22.0030  -27.8050   16.1040 C   0  0  0  0  0  3  0  0  0  0  0  0
  -21.1410  -27.9910   15.0080 C   0  0  0  0  0  3  0  0  0  0  0  0
  -21.6690  -28.1060   13.7120 C   0  0  0  0  0  3  0  0  0  0  0  0
  -23.0610  -28.0490   13.5160 C   0  0  0  0  0  3  0  0  0  0  0  0
  -22.0740  -28.4220   23.4910 C   0  0  0  0  0  3  0  0  0  0  0  0
  -20.6260  -28.6400   23.6230 N   0  0  0  0  0  0  0  0  0  0  0  0
  -20.0700  -29.6290   24.3330 C   0  0  0  0  0  0  0  0  0  0  0  0
  -20.7300  -30.4230   25.0090 O   0  0  0  0  0  0  0  0  0  0  0  0
  -20.0260  -28.0610   23.0560 H   0  0  0  0  0  0  0  0  0  0  0  0
  -18.1590  -31.0690   23.5600 C   0  0  0  0  0  1  0  0  0  0  0  0
  -18.5340  -29.7640   24.2790 C   0  0  0  0  0  3  0  0  0  0  0  0
  -18.1340  -28.4720   26.3240 C   0  0  0  0  0  1  0  0  0  0  0  0
  -17.8930  -29.7230   25.6110 N   0  0  0  0  0  0  0  0  0  0  0  0
  -16.8880  -29.8540   25.5300 H   0  0  0  0  0  0  0  0  0  0  0  0
  -22.4530  -26.9420   23.8880 C   0  0  1  0  0  0  0  0  0  0  0  0
  -21.9470  -25.8870   22.8790 C   0  0  0  0  0  1  0  0  0  0  0  0
  -23.9860  -26.7780   24.0110 C   0  0  0  0  0  1  0  0  0  0  0  0
  -21.8620  -26.6010   25.2770 C   0  0  0  0  0  1  0  0  0  0  0  0
  -31.4120  -21.5070   23.7990 C   0  0  0  0  0  2  0  0  0  0  0  0
  -31.6770  -20.6040   22.5620 C   0  0  0  0  0  2  0  0  0  0  0  0
  -36.3380  -22.1170   19.4740 C   0  0  0  0  0  0  0  0  0  0  0  0
  -37.3830  -22.5010   17.2660 C   0  0  0  0  0  2  0  0  0  0  0  0
  -36.8420  -23.7720   16.5860 C   0  0  0  0  0  2  0  0  0  0  0  0
  -35.5660  -23.4580   15.7820 C   0  0  0  0  0  2  0  0  0  0  0  0
  -34.5320  -22.6500   16.6050 C   0  0  0  0  0  3  0  0  0  0  0  0
  -35.1910  -21.4480   17.3110 C   0  0  0  0  0  2  0  0  0  0  0  0
  -36.3230  -21.9330   18.1210 N   0  0  0  0  0  0  0  0  0  0  0  0
  -37.2470  -22.7440   20.0320 O   0  0  0  0  0  0  0  0  0  0  0  0
  -33.4410  -22.2660   21.7950 C   0  0  0  0  0  2  0  0  0  0  0  0
  -33.5040  -19.9970   20.7700 C   0  0  0  0  0  2  0  0  0  0  0  0
  -34.9080  -22.4650   21.3940 C   0  0  0  0  0  2  0  0  0  0  0  0
  -34.9850  -20.2610   20.3770 C   0  0  0  0  0  2  0  0  0  0  0  0
  -33.1290  -20.7830   22.0430 C   0  0  0  0  0  3  0  0  0  0  0  0
  -35.2540  -21.7010   20.1830 N   0  0  0  0  0  0  0  0  0  0  0  0
  -32.0440  -22.3190   16.0340 C   0  0  0  0  0  0  0  0  0  0  0  0
  -31.4180  -21.8380   14.9140 C   0  0  0  0  0  0  0  0  0  0  0  0
  -32.4610  -21.4700   14.0070 C   0  0  0  0  0  0  0  0  0  0  0  0
  -33.4030  -22.2260   15.7780 N   0  0  0  0  0  0  0  0  0  0  0  0
  -33.6490  -21.6620   14.5670 N   0  0  0  0  0  0  0  0  0  0  0  0
  -32.3960  -21.0070   12.6150 C   0  0  0  0  0  0  0  0  0  0  0  0
  -33.0540  -19.8280   12.1980 C   0  0  0  0  0  3  0  0  0  0  0  0
  -32.9610  -19.3930   10.8590 C   0  0  0  0  0  3  0  0  0  0  0  0
  -32.2010  -20.1340    9.9230 C   0  0  0  0  0  0  0  0  0  0  0  0
  -31.5690  -21.3190   10.3370 C   0  0  0  0  0  3  0  0  0  0  0  0
  -31.6660  -21.7540   11.6690 C   0  0  0  0  0  3  0  0  0  0  0  0
  -32.0740  -19.8010    8.5960 O   0  0  0  0  0  0  0  0  0  0  0  0
  -32.1230  -18.4970    8.1730 C   0  0  0  0  0  0  0  0  0  0  0  0
  -31.2540  -17.5120    8.6900 C   0  0  0  0  0  3  0  0  0  0  0  0
  -31.2930  -16.1980    8.1790 C   0  0  0  0  0  3  0  0  0  0  0  0
  -32.1920  -15.8730    7.1440 C   0  0  0  0  0  0  0  0  0  0  0  0
  -33.0540  -16.8540    6.6240 C   0  0  0  0  0  3  0  0  0  0  0  0
  -33.0170  -18.1620    7.1360 C   0  0  0  0  0  0  0  0  0  0  0  0
  -33.8340  -19.1110    6.6170 F   0  0  0  0  0  0  0  0  0  0  0  0
  -32.2250  -14.6150    6.6470 F   0  0  0  0  0  0  0  0  0  0  0  0
  -29.9400  -21.8050   14.6610 C   0  0  0  0  0  0  0  0  0  0  0  0
  -29.4730  -20.8430   13.8710 N   0  0  0  0  0  0  0  0  0  0  0  0
  -29.1790  -22.6100   15.1980 O   0  0  0  0  0  0  0  0  0  0  0  0
  -30.0920  -20.1700   13.4410 H   0  0  0  0  0  0  0  0  0  0  0  0
  -28.4810  -20.7730   13.6940 H   0  0  0  0  0  0  0  0  0  0  0  0
  -31.5740  -22.8450   17.2340 N   0  0  0  0  0  0  0  0  0  0  0  0
  -30.5870  -22.9580   17.4330 H   0  0  0  0  0  0  0  0  0  0  0  0
  -32.1690  -23.2030   17.9710 H   0  0  0  0  0  0  0  0  0  0  0  0
  2  1  1  0
  3  4  1  0
  4  9  1  0
  4  1  2  0
  5 54  1  0
  5  2  2  0
  6  3  2  0
  6  5  1  0
  7  6  1  0
  8  7  1  0
  9 10  1  0
 11 10  1  0
 11 12  1  0
 13 12  1  0
 15 20  1  0
 15 13  1  0
 16 26  1  0
 16 24  1  0
 17 19  1  0
 19 18  1  0
 19 20  2  0
 21 15  2  0
 22 17  2  0
 22 21  1  0
 23 16  1  0
 23 17  1  0
 24 14  1  0
 24 18  1  0
 25 14  2  0
 26 28  2  0
 27 26  1  0
 29 27  1  0
 30 35  1  0
 31 27  1  0
 32 31  1  0
 33 32  1  0
 34 30  1  0
 34 33  1  0
 35 36  2  0
 35 31  1  0
 37 36  1  0
 38 37  2  0
 39 38  1  0
 39 30  2  0
 40 14  1  0
 40 41  1  0
 40 50  1  0
 41 42  1  0
 42 43  2  0
 44 41  1  0
 46 45  1  0
 46 42  1  0
 46 48  1  0
 48 47  1  0
 49 48  1  0
 50 52  1  1
 50 53  1  0
 51 50  1  0
 55 54  1  0
 56 63  2  0
 56 69  1  0
 57 62  1  0
 58 57  1  0
 59 58  1  0
 59 60  1  0
 60 73  1  0
 60 61  1  0
 61 62  1  0
 62 56  1  0
 64 68  1  0
 65 68  1  0
 66 64  1  0
 67 65  1  0
 68 55  1  0
 69 67  1  0
 69 66  1  0
 70 95  1  0
 71 70  2  0
 72 74  2  0
 72 71  1  0
 73 70  1  0
 74 73  1  0
 75 72  1  0
 76 75  1  0
 77 76  2  0
 78 79  2  0
 78 77  1  0
 79 80  1  0
 80 75  2  0
 81 78  1  0
 82 81  1  0
 82 83  1  0
 84 83  2  0
 85 84  1  0
 86 87  1  0
 86 85  2  0
 87 82  2  0
 88 87  1  0
 89 85  1  0
 90 71  1  0
 90 92  2  0
 91 90  1  0
 93 91  1  0
 94 91  1  0
 95 96  1  0
 95 97  1  0
M  ISO  4  12 101  13 101  56 100  69 100
M  END
>  <TORSDO>  (50) 
F 23

>  <SCORE>  (50) 
21.072

>  <name>  (50) 
49

>  <ligand_id>  (50) 
49

>  <original_smiles>  (50) 
[H]Oc1c([H])c(C([H])([H])C([H])([H])C([H])([H])C([H])([H])Oc2c([H])c([H])c3c(c2[H])C([H])([H])N(C(=O)C([H])(N([H])C(=O)C([H])(N([H])C([H])([H])[H])C([H])([H])[H])C(C([H])([H])[H])(C([H])([H])[H])C([H])([H])[H])C([H])(C(=O)N([H])C2([H])c4c([H])c([H])c([H])c([H])c4C([H])([H])C([H])([H])C2([H])[H])C3([H])[H])c([H])c([H])c1C([H])([H])C([H])([H])C1([H])C([H])([H])C([H])([H])N(C(=O)N2C([H])([H])C([H])([H])C([H])([H])C([H])(n3nc(-c4c([H])c([H])c(Oc5c([H])c([H])c(F)c([H])c5F)c([H])c4[H])c(C(=O)N([H])[H])c3N([H])[H])C2([H])[H])C([H])([H])C1([H])[H]

>  <smiles>  (50) 
[H]Oc1c([H])c(C([H])([H])C([H])([H])C([H])([H])C([H])([H])Oc2c([H])c([H])c3c(c2[H])C([H])([H])N(C(=O)C([H])(N([H])C(=O)C([H])(N([H])C([H])([H])[H])C([H])([H])[H])C(C([H])([H])[H])(C([H])([H])[H])C([H])([H])[H])C([H])(C(=O)N([H])C2([H])c4c([H])c([H])c([H])c([H])c4C([H])([H])C([H])([H])C2([H])[H])C3([H])[H])c([H])c([H])c1C([H])([H])C([H])([H])C1([H])C([H])([H])C([H])([H])N(C(=O)N2C([H])([H])C([H])([H])C([H])([H])C([H])(n3nc(-c4c([H])c([H])c(Oc5c([H])c([H])c(F)c([H])c5F)c([H])c4[H])c(C(=O)N([H])[H])c3N([H])[H])C2([H])[H])C([H])([H])C1([H])[H]

$$$$
50:0:0
     RDKit          3D

 93102  0  0  1  0  0  0  0  0999 V2000
  -28.9350  -21.9890   23.2640 C   0  0  0  0  0  3  0  0  0  0  0  0
  -28.7060  -20.9150   22.3880 C   0  0  0  0  0  3  0  0  0  0  0  0
  -29.7540  -23.0610   22.8670 C   0  0  0  0  0  3  0  0  0  0  0  0
  -30.0790  -22.0100   20.6930 C   0  0  0  0  0  3  0  0  0  0  0  0
  -29.2880  -20.9140   21.1040 C   0  0  0  0  0  0  0  0  0  0  0  0
  -30.3250  -23.0880   21.5740 C   0  0  0  0  0  0  0  0  0  0  0  0
  -29.1100  -19.7090   20.1970 C   0  0  0  0  0  2  0  0  0  0  0  0
  -32.5450  -15.1770   19.6410 C   0  0  0  0  0  0  0  0  0  0  0  0
  -32.1960  -12.7960   19.1070 C   0  0  0  0  0  2  0  0  0  0  0  0
  -31.2610  -12.6820   17.8860 C   0  0  0  0  0  2  0  0  0  0  0  0
  -29.7800  -12.7120   18.3170 C   0  0  0  0  0  2  0  0  0  0  0  0
  -29.4640  -13.8750   19.2960 C   0  0  0  0  0  3  0  0  0  0  0  0
  -30.5040  -13.9140   20.4330 C   0  0  0  0  0  2  0  0  0  0  0  0
  -31.8410  -14.0280   19.8280 N   0  0  0  0  0  0  0  0  0  0  0  0
  -33.6460  -15.2000   19.0750 O   0  0  0  0  0  0  0  0  0  0  0  0
  -30.6150  -18.1960   18.7790 C   0  0  0  0  0  2  0  0  0  0  0  0
  -30.3860  -17.7220   21.2360 C   0  0  0  0  0  2  0  0  0  0  0  0
  -31.9000  -17.3520   18.7710 C   0  0  0  0  0  2  0  0  0  0  0  0
  -31.6940  -16.9040   21.1590 C   0  0  0  0  0  2  0  0  0  0  0  0
  -30.3780  -18.8270   20.1620 C   0  0  0  0  0  3  0  0  0  0  0  0
  -31.8460  -16.3210   19.8180 N   0  0  0  0  0  0  0  0  0  0  0  0
  -27.2090  -14.8020   20.1270 C   0  0  0  0  0  0  0  0  0  0  0  0
  -26.0530  -14.1780   20.5140 C   0  0  0  0  0  0  0  0  0  0  0  0
  -26.3090  -12.7760   20.4130 C   0  0  0  0  0  0  0  0  0  0  0  0
  -28.1030  -13.7870   19.8180 N   0  0  0  0  0  0  0  0  0  0  0  0
  -27.5640  -12.5610   20.0440 N   0  0  0  0  0  0  0  0  0  0  0  0
  -25.4120  -11.6260   20.5880 C   0  0  0  0  0  0  0  0  0  0  0  0
  -25.6830  -10.6170   21.5390 C   0  0  0  0  0  3  0  0  0  0  0  0
  -24.7980   -9.5300   21.6990 C   0  0  0  0  0  3  0  0  0  0  0  0
  -23.6270   -9.4450   20.9080 C   0  0  0  0  0  0  0  0  0  0  0  0
  -23.3740  -10.4400   19.9480 C   0  0  0  0  0  3  0  0  0  0  0  0
  -24.2600  -11.5190   19.7860 C   0  0  0  0  0  3  0  0  0  0  0  0
  -22.7220   -8.4130   20.9770 O   0  0  0  0  0  0  0  0  0  0  0  0
  -22.3780   -7.8360   22.1740 C   0  0  0  0  0  0  0  0  0  0  0  0
  -21.8940   -8.6000   23.2570 C   0  0  0  0  0  3  0  0  0  0  0  0
  -21.4860   -7.9590   24.4450 C   0  0  0  0  0  3  0  0  0  0  0  0
  -21.5540   -6.5560   24.5470 C   0  0  0  0  0  0  0  0  0  0  0  0
  -22.0320   -5.7930   23.4680 C   0  0  0  0  0  3  0  0  0  0  0  0
  -22.4420   -6.4320   22.2830 C   0  0  0  0  0  0  0  0  0  0  0  0
  -22.8810   -5.6900   21.2380 F   0  0  0  0  0  0  0  0  0  0  0  0
  -21.1560   -5.9400   25.6840 F   0  0  0  0  0  0  0  0  0  0  0  0
  -24.7520  -14.8410   20.8660 C   0  0  0  0  0  0  0  0  0  0  0  0
  -23.9770  -14.2370   21.7600 N   0  0  0  0  0  0  0  0  0  0  0  0
  -24.4370  -15.9270   20.3810 O   0  0  0  0  0  0  0  0  0  0  0  0
  -24.2450  -13.3570   22.1740 H   0  0  0  0  0  0  0  0  0  0  0  0
  -23.1050  -14.6650   22.0360 H   0  0  0  0  0  0  0  0  0  0  0  0
  -27.5680  -16.1380   19.9930 N   0  0  0  0  0  0  0  0  0  0  0  0
  -26.9150  -16.8950   20.1630 H   0  0  0  0  0  0  0  0  0  0  0  0
  -28.4740  -16.4550   19.6720 H   0  0  0  0  0  0  0  0  0  0  0  0
  -31.2410  -24.2290   21.1400 C   0  0  0  0  0  2  0  0  0  0  0  0
  -30.6940  -25.6370   21.4530 C   0  0  0  0  0  2  0  0  0  0  0  0
  -31.4620  -26.7550   20.7320 C   0  0  0  0  0  2  0  0  0  0  0  0
  -30.9980  -28.0330   21.1660 O   0  0  0  0  0  0  0  0  0  0  0  0
  -25.6300  -31.7310   23.9870 C   0  0  0  0  0  0  0  0  0  0  0  0
  -29.6660  -28.3690   21.0490 C   0  0  0  0  0  0  0  0  0  0  0  0
  -25.0250  -30.2380   22.1070 C   0  0  0  0  0  3  0  0  0  0  0  0
  -26.9790  -29.2270   20.8230 C   0  0  0  0  0  0  0  0  0  0  0  0
  -27.3820  -31.2070   22.2970 C   0  0  0  0  0  2  0  0  0  0  0  0
  -27.8850  -29.9610   21.5990 C   0  0  0  0  0  0  0  0  0  0  0  0
  -29.2260  -29.5370   21.7100 C   0  0  0  0  0  3  0  0  0  0  0  0
  -28.7350  -27.6280   20.2820 C   0  0  0  0  0  3  0  0  0  0  0  0
  -27.3990  -28.0560   20.1650 C   0  0  0  0  0  3  0  0  0  0  0  0
  -25.5670  -29.7560   20.7350 C   0  0  0  0  0  2  0  0  0  0  0  0
  -26.0180  -31.0710   22.8600 N   0  0  0  0  0  0  0  0  0  0  0  0
  -24.4560  -31.6880   24.3830 O   0  0  0  0  0  0  0  0  0  0  0  0
  -24.5350  -29.0070   22.9020 C   0  0  0  0  0  0  0  0  0  0  0  0
  -23.3780  -28.4570   22.4960 N   0  0  0  0  0  0  0  0  0  0  0  0
  -25.1990  -28.5510   23.8370 O   0  0  0  0  0  0  0  0  0  0  0  0
  -22.8880  -28.8970   21.7300 H   0  0  0  0  0  0  0  0  0  0  0  0
  -20.5290  -26.2580   22.2050 C   0  0  0  0  0  0  0  0  0  0  0  0
  -22.7440  -27.2710   23.0670 C   0  0  0  0  0  3  0  0  0  0  0  0
  -23.4170  -25.9770   22.5560 C   0  0  0  0  0  2  0  0  0  0  0  0
  -22.7330  -25.3920   21.3150 C   0  0  0  0  0  2  0  0  0  0  0  0
  -21.2660  -25.0700   21.6140 C   0  0  0  0  0  2  0  0  0  0  0  0
  -21.2240  -27.2990   22.8750 C   0  0  0  0  0  0  0  0  0  0  0  0
  -20.4940  -28.4000   23.3760 C   0  0  0  0  0  3  0  0  0  0  0  0
  -19.0980  -28.4690   23.2170 C   0  0  0  0  0  3  0  0  0  0  0  0
  -18.4120  -27.4260   22.5700 C   0  0  0  0  0  3  0  0  0  0  0  0
  -19.1260  -26.3240   22.0690 C   0  0  0  0  0  3  0  0  0  0  0  0
  -26.6330  -32.5880   24.8200 C   0  0  0  0  0  3  0  0  0  0  0  0
  -26.9990  -31.9410   26.2110 C   0  0  1  0  0  0  0  0  0  0  0  0
  -25.7660  -31.4930   27.0310 C   0  0  0  0  0  1  0  0  0  0  0  0
  -27.9110  -30.7070   26.0140 C   0  0  0  0  0  1  0  0  0  0  0  0
  -27.7990  -32.9500   27.0690 C   0  0  0  0  0  1  0  0  0  0  0  0
  -26.0290  -33.9130   25.0080 N   0  0  0  0  0  0  0  0  0  0  0  0
  -26.3240  -34.9930   24.2710 C   0  0  0  0  0  0  0  0  0  0  0  0
  -27.1980  -34.9940   23.4000 O   0  0  0  0  0  0  0  0  0  0  0  0
  -25.2660  -33.9730   25.6650 H   0  0  0  0  0  0  0  0  0  0  0  0
  -24.4220  -36.4380   23.4880 C   0  0  0  0  0  1  0  0  0  0  0  0
  -25.5240  -36.2790   24.5470 C   0  0  0  0  0  3  0  0  0  0  0  0
  -27.2830  -37.5360   25.7120 C   0  0  0  0  0  1  0  0  0  0  0  0
  -26.3610  -37.4980   24.5800 N   0  0  0  0  0  0  0  0  0  0  0  0
  -25.7810  -38.3320   24.6180 H   0  0  0  0  0  0  0  0  0  0  0  0
  2  1  2  0
  3  1  1  0
  4  5  2  0
  4  6  1  0
  5  2  1  0
  6  3  2  0
  7  5  1  0
  8 21  1  0
  8 14  1  0
  9 14  1  0
 10 11  1  0
 10  9  1  0
 12 11  1  0
 12 25  1  0
 12 13  1  0
 14 13  1  0
 15  8  2  0
 16 20  1  0
 18 16  1  0
 18 21  1  0
 19 17  1  0
 20  7  1  0
 20 17  1  0
 21 19  1  0
 22 23  2  0
 23 42  1  0
 24 23  1  0
 24 27  1  0
 25 26  1  0
 25 22  1  0
 26 24  2  0
 27 28  1  0
 28 29  2  0
 30 33  1  0
 30 29  1  0
 31 30  2  0
 32 31  1  0
 32 27  2  0
 33 34  1  0
 34 39  2  0
 34 35  1  0
 35 36  2  0
 36 37  1  0
 37 41  1  0
 38 37  2  0
 39 38  1  0
 40 39  1  0
 42 43  1  0
 43 46  1  0
 43 45  1  0
 44 42  2  0
 47 22  1  0
 47 48  1  0
 49 47  1  0
 50 51  1  0
 50  6  1  0
 52 53  1  0
 52 51  1  0
 54 65  2  0
 55 53  1  0
 55 60  1  0
 56 64  1  0
 56 66  1  0
 57 59  1  0
 58 64  1  0
 59 60  2  0
 59 58  1  0
 61 55  2  0
 62 61  1  0
 62 57  2  0
 63 57  1  0
 63 56  1  0
 64 54  1  0
 66 68  2  0
 67 66  1  0
 69 67  1  0
 70 75  1  0
 71 67  1  0
 72 71  1  0
 73 74  1  0
 73 72  1  0
 74 70  1  0
 75 71  1  0
 75 76  2  0
 77 76  1  0
 78 77  2  0
 79 70  2  0
 79 78  1  0
 80 54  1  0
 80 85  1  0
 80 81  1  0
 81 82  1  1
 81 84  1  0
 83 81  1  0
 85 88  1  0
 86 90  1  0
 86 85  1  0
 87 86  2  0
 90 89  1  0
 90 92  1  0
 92 93  1  0
 92 91  1  0
M  ISO  4   8 100  21 100  52 101  53 101
M  END
>  <TORSDO>  (51) 
F 20

>  <SCORE>  (51) 
-6.962

>  <name>  (51) 
50

>  <ligand_id>  (51) 
50

>  <original_smiles>  (51) 
[H]c1c([H])c([H])c2c(c1[H])C([H])([H])C([H])([H])C([H])([H])C2([H])N([H])C(=O)C1([H])N(C(=O)C([H])(N([H])C(=O)C([H])(N([H])C([H])([H])[H])C([H])([H])[H])C(C([H])([H])[H])(C([H])([H])[H])C([H])([H])[H])C([H])([H])c2c([H])c(OC([H])([H])C([H])([H])C([H])([H])c3c([H])c([H])c([H])c(C([H])([H])C4([H])C([H])([H])C([H])([H])N(C(=O)N5C([H])([H])C([H])([H])C([H])([H])C([H])(n6nc(-c7c([H])c([H])c(Oc8c([H])c([H])c(F)c([H])c8F)c([H])c7[H])c(C(=O)N([H])[H])c6N([H])[H])C5([H])[H])C([H])([H])C4([H])[H])c3[H])c([H])c([H])c2C1([H])[H]

>  <smiles>  (51) 
[H]c1c([H])c([H])c2c(c1[H])C([H])([H])C([H])([H])C([H])([H])C2([H])N([H])C(=O)C1([H])N(C(=O)C([H])(N([H])C(=O)C([H])(N([H])C([H])([H])[H])C([H])([H])[H])C(C([H])([H])[H])(C([H])([H])[H])C([H])([H])[H])C([H])([H])c2c([H])c(OC([H])([H])C([H])([H])C([H])([H])c3c([H])c([H])c([H])c(C([H])([H])C4([H])C([H])([H])C([H])([H])N(C(=O)N5C([H])([H])C([H])([H])C([H])([H])C([H])(n6nc(-c7c([H])c([H])c(Oc8c([H])c([H])c(F)c([H])c8F)c([H])c7[H])c(C(=O)N([H])[H])c6N([H])[H])C5([H])[H])C([H])([H])C4([H])[H])c3[H])c([H])c([H])c2C1([H])[H]

$$$$
51:0:0
     RDKit          3D

 95104  0  0  1  0  0  0  0  0999 V2000
  -29.2230  -17.2480   22.0070 C   0  0  0  0  0  3  0  0  0  0  0  0
  -28.8050  -18.4700   21.4470 C   0  0  0  0  0  3  0  0  0  0  0  0
  -30.5320  -16.7780   21.7910 C   0  0  0  0  0  3  0  0  0  0  0  0
  -31.0110  -18.7660   20.4750 C   0  0  0  0  0  3  0  0  0  0  0  0
  -29.6950  -19.2460   20.6760 C   0  0  0  0  0  0  0  0  0  0  0  0
  -31.4360  -17.5280   21.0060 C   0  0  0  0  0  0  0  0  0  0  0  0
  -31.9250  -13.8090   17.9830 C   0  0  0  0  0  0  0  0  0  0  0  0
  -31.0540  -11.5700   17.4280 C   0  0  0  0  0  2  0  0  0  0  0  0
  -29.7750  -11.6090   16.5730 C   0  0  0  0  0  2  0  0  0  0  0  0
  -28.5330  -11.6740   17.4750 C   0  0  0  0  0  2  0  0  0  0  0  0
  -28.6350  -12.8070   18.5240 C   0  0  0  0  0  3  0  0  0  0  0  0
  -29.9890  -12.7820   19.2610 C   0  0  0  0  0  2  0  0  0  0  0  0
  -31.1010  -12.7670   18.2870 N   0  0  0  0  0  0  0  0  0  0  0  0
  -32.5280  -13.8720   16.9050 O   0  0  0  0  0  0  0  0  0  0  0  0
  -33.2140  -15.6060   21.0890 C   0  0  0  0  0  2  0  0  0  0  0  0
  -33.1110  -17.0900   19.1520 C   0  0  0  0  0  2  0  0  0  0  0  0
  -32.5590  -14.4660   20.2700 C   0  0  0  0  0  2  0  0  0  0  0  0
  -32.1230  -16.1880   18.4030 C   0  0  0  0  0  2  0  0  0  0  0  0
  -32.8500  -17.0360   20.6570 C   0  0  0  0  0  3  0  0  0  0  0  0
  -32.0600  -14.7950   18.9050 N   0  0  0  0  0  0  0  0  0  0  0  0
  -26.9870  -13.7790   20.2470 C   0  0  0  0  0  0  0  0  0  0  0  0
  -25.9170  -13.2300   20.9020 C   0  0  0  0  0  0  0  0  0  0  0  0
  -25.8530  -11.8680   20.4770 C   0  0  0  0  0  0  0  0  0  0  0  0
  -27.5210  -12.7630   19.4710 N   0  0  0  0  0  0  0  0  0  0  0  0
  -26.8620  -11.5910   19.6620 N   0  0  0  0  0  0  0  0  0  0  0  0
  -24.8550  -10.8260   20.7550 C   0  0  0  0  0  0  0  0  0  0  0  0
  -25.1410   -9.7350   21.6040 C   0  0  0  0  0  3  0  0  0  0  0  0
  -24.1580   -8.7560   21.8670 C   0  0  0  0  0  3  0  0  0  0  0  0
  -22.8730   -8.8660   21.2860 C   0  0  0  0  0  0  0  0  0  0  0  0
  -22.6010   -9.9440   20.4240 C   0  0  0  0  0  3  0  0  0  0  0  0
  -23.5820  -10.9130   20.1560 C   0  0  0  0  0  3  0  0  0  0  0  0
  -21.8660   -7.9490   21.4640 O   0  0  0  0  0  0  0  0  0  0  0  0
  -21.6110   -7.3870   22.6900 C   0  0  0  0  0  0  0  0  0  0  0  0
  -21.2210   -8.1680   23.8010 C   0  0  0  0  0  3  0  0  0  0  0  0
  -20.8980   -7.5440   25.0210 C   0  0  0  0  0  3  0  0  0  0  0  0
  -20.9590   -6.1420   25.1340 C   0  0  0  0  0  0  0  0  0  0  0  0
  -21.3440   -5.3630   24.0290 C   0  0  0  0  0  3  0  0  0  0  0  0
  -21.6660   -5.9840   22.8080 C   0  0  0  0  0  0  0  0  0  0  0  0
  -22.0150   -5.2260   21.7410 F   0  0  0  0  0  0  0  0  0  0  0  0
  -20.6440   -5.5420   26.3050 F   0  0  0  0  0  0  0  0  0  0  0  0
  -24.9480  -13.9510   21.7940 C   0  0  0  0  0  0  0  0  0  0  0  0
  -24.4100  -13.2640   22.7960 N   0  0  0  0  0  0  0  0  0  0  0  0
  -24.6990  -15.1450   21.6380 O   0  0  0  0  0  0  0  0  0  0  0  0
  -24.6290  -12.2890   22.9370 H   0  0  0  0  0  0  0  0  0  0  0  0
  -23.7690  -13.7200   23.4300 H   0  0  0  0  0  0  0  0  0  0  0  0
  -27.5350  -15.0580   20.2320 N   0  0  0  0  0  0  0  0  0  0  0  0
  -27.1410  -15.8230   20.7670 H   0  0  0  0  0  0  0  0  0  0  0  0
  -28.3490  -15.3280   19.6940 H   0  0  0  0  0  0  0  0  0  0  0  0
  -29.2160  -20.5020   20.0660 C   0  0  0  0  0  3  0  0  0  0  0  0
  -29.9740  -21.4100   19.4200 C   0  0  0  0  0  3  0  0  0  0  0  0
  -29.4580  -22.6990   18.8130 C   0  0  0  0  0  2  0  0  0  0  0  0
  -30.2510  -23.1060   17.5600 C   0  0  0  0  0  2  0  0  0  0  0  0
  -29.7350  -24.4110   16.9320 C   0  0  0  0  0  2  0  0  0  0  0  0
  -30.5260  -24.8260   15.6760 C   0  0  0  0  0  2  0  0  0  0  0  0
  -30.1290  -26.1170   15.2140 O   0  0  0  0  0  0  0  0  0  0  0  0
  -24.6890  -26.9800   19.6760 C   0  0  0  0  0  0  0  0  0  0  0  0
  -28.8080  -26.4880   15.3340 C   0  0  0  0  0  0  0  0  0  0  0  0
  -24.1370  -27.1780   17.2730 C   0  0  0  0  0  3  0  0  0  0  0  0
  -26.1260  -27.3040   15.6870 C   0  0  0  0  0  0  0  0  0  0  0  0
  -26.4810  -27.7450   18.1240 C   0  0  0  0  0  2  0  0  0  0  0  0
  -27.0080  -27.3100   16.7740 C   0  0  0  0  0  0  0  0  0  0  0  0
  -28.3500  -26.9120   16.5980 C   0  0  0  0  0  3  0  0  0  0  0  0
  -27.9050  -26.4840   14.2450 C   0  0  0  0  0  3  0  0  0  0  0  0
  -26.5690  -26.8910   14.4180 C   0  0  0  0  0  3  0  0  0  0  0  0
  -24.7110  -27.7590   15.9520 C   0  0  0  0  0  2  0  0  0  0  0  0
  -25.1070  -27.2680   18.4120 N   0  0  0  0  0  0  0  0  0  0  0  0
  -23.5090  -26.6850   19.9090 O   0  0  0  0  0  0  0  0  0  0  0  0
  -23.6410  -25.7390   17.0020 C   0  0  0  0  0  0  0  0  0  0  0  0
  -22.4990  -25.6210   16.3050 N   0  0  0  0  0  0  0  0  0  0  0  0
  -24.2900  -24.7640   17.3900 O   0  0  0  0  0  0  0  0  0  0  0  0
  -22.0230  -26.4680   16.0290 H   0  0  0  0  0  0  0  0  0  0  0  0
  -19.6770  -24.2340   14.5310 C   0  0  0  0  0  0  0  0  0  0  0  0
  -21.8640  -24.3680   15.9010 C   0  0  0  0  0  3  0  0  0  0  0  0
  -22.5610  -23.7680   14.6580 C   0  0  0  0  0  2  0  0  0  0  0  0
  -21.9090  -24.1910   13.3390 C   0  0  0  0  0  2  0  0  0  0  0  0
  -20.4390  -23.7630   13.3040 C   0  0  0  0  0  2  0  0  0  0  0  0
  -20.3490  -24.5340   15.7450 C   0  0  0  0  0  0  0  0  0  0  0  0
  -19.5970  -25.0030   16.8460 C   0  0  0  0  0  3  0  0  0  0  0  0
  -18.2030  -25.1670   16.7470 C   0  0  0  0  0  3  0  0  0  0  0  0
  -17.5410  -24.8530   15.5470 C   0  0  0  0  0  3  0  0  0  0  0  0
  -18.2770  -24.3850   14.4440 C   0  0  0  0  0  3  0  0  0  0  0  0
  -25.6660  -27.0290   20.8930 C   0  0  0  0  0  3  0  0  0  0  0  0
  -24.8720  -27.3540   22.0850 N   0  0  0  0  0  0  0  0  0  0  0  0
  -24.8850  -28.5390   22.7080 C   0  0  0  0  0  0  0  0  0  0  0  0
  -25.6330  -29.4620   22.3750 O   0  0  0  0  0  0  0  0  0  0  0  0
  -24.1960  -26.6630   22.3790 H   0  0  0  0  0  0  0  0  0  0  0  0
  -22.7080  -29.5700   23.4320 C   0  0  0  0  0  1  0  0  0  0  0  0
  -23.9120  -28.7310   23.8880 C   0  0  0  0  0  3  0  0  0  0  0  0
  -25.5090  -28.4990   25.7380 C   0  0  0  0  0  1  0  0  0  0  0  0
  -24.5400  -29.3620   25.0690 N   0  0  0  0  0  0  0  0  0  0  0  0
  -23.8330  -29.6330   25.7490 H   0  0  0  0  0  0  0  0  0  0  0  0
  -26.4670  -25.6860   21.1030 C   0  0  1  0  0  0  0  0  0  0  0  0
  -25.5690  -24.4280   21.1430 C   0  0  0  0  0  1  0  0  0  0  0  0
  -27.5070  -25.4890   19.9760 C   0  0  0  0  0  1  0  0  0  0  0  0
  -27.2580  -25.7490   22.4310 C   0  0  0  0  0  1  0  0  0  0  0  0
  2  1  2  0
  3  1  1  0
  4  5  2  0
  4  6  1  0
  5  2  1  0
  6  3  2  0
  7 13  1  0
  7 20  1  0
  8 13  1  0
  9  8  1  0
  9 10  1  0
 11 10  1  0
 11 12  1  0
 11 24  1  0
 13 12  1  0
 14  7  2  0
 16 19  1  0
 17 15  1  0
 18 20  1  0
 18 16  1  0
 19  6  1  0
 19 15  1  0
 20 17  1  0
 21 22  2  0
 22 41  1  0
 23 26  1  0
 23 22  1  0
 24 25  1  0
 24 21  1  0
 25 23  2  0
 26 27  1  0
 27 28  2  0
 29 32  1  0
 29 28  1  0
 30 29  2  0
 31 30  1  0
 31 26  2  0
 32 33  1  0
 33 38  2  0
 33 34  1  0
 34 35  2  0
 35 36  1  0
 36 40  1  0
 37 36  2  0
 38 37  1  0
 39 38  1  0
 41 42  1  0
 42 44  1  0
 42 45  1  0
 43 41  2  0
 46 21  1  0
 46 47  1  0
 48 46  1  0
 49  5  1  0
 50 49  2  0
 51 50  1  0
 52 51  1  0
 53 52  1  0
 54 53  1  0
 55 57  1  0
 55 54  1  0
 56 67  2  0
 57 62  1  0
 58 68  1  0
 58 66  1  0
 59 65  1  0
 59 61  1  0
 60 66  1  0
 61 60  1  0
 62 61  2  0
 63 64  1  0
 63 57  2  0
 64 59  2  0
 65 58  1  0
 66 56  1  0
 68 70  2  0
 69 68  1  0
 71 69  1  0
 72 77  1  0
 73 69  1  0
 74 73  1  0
 75 74  1  0
 76 75  1  0
 76 72  1  0
 77 73  1  0
 77 78  2  0
 79 78  1  0
 80 79  2  0
 81 72  2  0
 81 80  1  0
 82 56  1  0
 82 92  1  0
 82 83  1  0
 83 86  1  0
 83 84  1  0
 84 88  1  0
 85 84  2  0
 88 87  1  0
 88 90  1  0
 90 89  1  0
 90 91  1  0
 92 93  1  1
 92 95  1  0
 94 92  1  0
M  ISO  4   7 100  20 100  54 101  55 101
M  END
>  <TORSDO>  (52) 
F 21

>  <SCORE>  (52) 
0.570

>  <name>  (52) 
51

>  <ligand_id>  (52) 
51

>  <original_smiles>  (52) 
[H]C(=C([H])C([H])([H])C([H])([H])C([H])([H])C([H])([H])Oc1c([H])c([H])c2c(c1[H])C([H])([H])N(C(=O)C([H])(N([H])C(=O)C([H])(N([H])C([H])([H])[H])C([H])([H])[H])C(C([H])([H])[H])(C([H])([H])[H])C([H])([H])[H])C([H])(C(=O)N([H])C1([H])c3c([H])c([H])c([H])c([H])c3C([H])([H])C([H])([H])C1([H])[H])C2([H])[H])c1c([H])c([H])c([H])c(C2([H])C([H])([H])C([H])([H])N(C(=O)N3C([H])([H])C([H])([H])C([H])([H])C([H])(n4nc(-c5c([H])c([H])c(Oc6c([H])c([H])c(F)c([H])c6F)c([H])c5[H])c(C(=O)N([H])[H])c4N([H])[H])C3([H])[H])C([H])([H])C2([H])[H])c1[H]

>  <smiles>  (52) 
[H]C(=C([H])C([H])([H])C([H])([H])C([H])([H])C([H])([H])Oc1c([H])c([H])c2c(c1[H])C([H])([H])N(C(=O)C([H])(N([H])C(=O)C([H])(N([H])C([H])([H])[H])C([H])([H])[H])C(C([H])([H])[H])(C([H])([H])[H])C([H])([H])[H])C([H])(C(=O)N([H])C1([H])c3c([H])c([H])c([H])c([H])c3C([H])([H])C([H])([H])C1([H])[H])C2([H])[H])c1c([H])c([H])c([H])c(C2([H])C([H])([H])C([H])([H])N(C(=O)N3C([H])([H])C([H])([H])C([H])([H])C([H])(n4nc(-c5c([H])c([H])c(Oc6c([H])c([H])c(F)c([H])c6F)c([H])c5[H])c(C(=O)N([H])[H])c4N([H])[H])C3([H])[H])C([H])([H])C2([H])[H])c1[H]

$$$$
52:0:0
     RDKit          3D

101110  0  0  1  0  0  0  0  0999 V2000
  -25.5260  -23.6420   23.5630 C   0  0  0  0  0  2  0  0  0  0  0  0
  -28.3810  -21.2160   22.8330 C   0  0  0  0  0  3  0  0  0  0  0  0
  -28.6140  -22.0300   25.1160 C   0  0  0  0  0  3  0  0  0  0  0  0
  -27.1430  -21.8770   22.7240 C   0  0  0  0  0  3  0  0  0  0  0  0
  -27.3710  -22.6830   25.0140 C   0  0  0  0  0  3  0  0  0  0  0  0
  -29.1480  -21.3340   24.0110 C   0  0  0  0  0  0  0  0  0  0  0  0
  -26.6630  -22.6640   23.7950 C   0  0  0  0  0  0  0  0  0  0  0  0
  -30.5890  -20.8400   24.0590 C   0  0  0  0  0  2  0  0  0  0  0  0
  -30.8880  -19.5320   23.2960 C   0  0  0  0  0  2  0  0  0  0  0  0
  -33.1560  -18.3710   18.2630 C   0  0  0  0  0  0  0  0  0  0  0  0
  -33.3770  -16.3500   16.8530 C   0  0  0  0  0  2  0  0  0  0  0  0
  -32.0680  -15.9930   16.1270 C   0  0  0  0  0  2  0  0  0  0  0  0
  -31.1730  -15.1120   17.0180 C   0  0  0  0  0  2  0  0  0  0  0  0
  -30.9860  -15.7150   18.4310 C   0  0  0  0  0  3  0  0  0  0  0  0
  -32.3450  -16.1050   19.0380 C   0  0  0  0  0  2  0  0  0  0  0  0
  -33.0500  -17.0200   18.1200 N   0  0  0  0  0  0  0  0  0  0  0  0
  -33.4450  -19.1190   17.3190 O   0  0  0  0  0  0  0  0  0  0  0  0
  -31.1810  -20.0830   20.8040 C   0  0  0  0  0  2  0  0  0  0  0  0
  -32.7500  -18.4460   21.9290 C   0  0  0  0  0  2  0  0  0  0  0  0
  -32.1800  -20.1670   19.6360 C   0  0  0  0  0  2  0  0  0  0  0  0
  -33.6570  -18.5500   20.6810 C   0  0  0  0  0  2  0  0  0  0  0  0
  -31.8860  -19.7060   22.1250 C   0  0  0  0  0  3  0  0  0  0  0  0
  -32.8560  -18.8720   19.4890 N   0  0  0  0  0  0  0  0  0  0  0  0
  -29.0370  -14.9900   19.9500 C   0  0  0  0  0  0  0  0  0  0  0  0
  -28.7730  -13.8150   20.5980 C   0  0  0  0  0  0  0  0  0  0  0  0
  -29.8710  -12.9470   20.3080 C   0  0  0  0  0  0  0  0  0  0  0  0
  -30.2540  -14.8070   19.3110 N   0  0  0  0  0  0  0  0  0  0  0  0
  -30.7770  -13.5820   19.5780 N   0  0  0  0  0  0  0  0  0  0  0  0
  -30.0860  -11.5320   20.6340 C   0  0  0  0  0  0  0  0  0  0  0  0
  -31.2800  -11.0850   21.2440 C   0  0  0  0  0  3  0  0  0  0  0  0
  -31.4530   -9.7220   21.5630 C   0  0  0  0  0  3  0  0  0  0  0  0
  -30.4290   -8.7880   21.2760 C   0  0  0  0  0  0  0  0  0  0  0  0
  -29.2530   -9.2340   20.6480 C   0  0  0  0  0  3  0  0  0  0  0  0
  -29.0820  -10.5920   20.3260 C   0  0  0  0  0  3  0  0  0  0  0  0
  -30.5200   -7.4410   21.5270 O   0  0  0  0  0  0  0  0  0  0  0  0
  -31.3370   -6.9460   22.5110 C   0  0  0  0  0  0  0  0  0  0  0  0
  -31.2120   -7.3520   23.8570 C   0  0  0  0  0  3  0  0  0  0  0  0
  -32.0250   -6.7650   24.8470 C   0  0  0  0  0  3  0  0  0  0  0  0
  -32.9560   -5.7680   24.4970 C   0  0  0  0  0  0  0  0  0  0  0  0
  -33.0760   -5.3570   23.1570 C   0  0  0  0  0  3  0  0  0  0  0  0
  -32.2660   -5.9420   22.1680 C   0  0  0  0  0  0  0  0  0  0  0  0
  -32.3710   -5.5280   20.8810 F   0  0  0  0  0  0  0  0  0  0  0  0
  -33.7310   -5.1980   25.4480 F   0  0  0  0  0  0  0  0  0  0  0  0
  -27.5290  -13.4720   21.3660 C   0  0  0  0  0  0  0  0  0  0  0  0
  -27.6450  -12.6150   22.3740 N   0  0  0  0  0  0  0  0  0  0  0  0
  -26.4500  -14.0050   21.1050 O   0  0  0  0  0  0  0  0  0  0  0  0
  -28.5340  -12.1890   22.5950 H   0  0  0  0  0  0  0  0  0  0  0  0
  -26.8360  -12.3800   22.9330 H   0  0  0  0  0  0  0  0  0  0  0  0
  -28.3410  -16.1900   19.8370 N   0  0  0  0  0  0  0  0  0  0  0  0
  -27.4330  -16.3360   20.2630 H   0  0  0  0  0  0  0  0  0  0  0  0
  -28.6550  -16.9810   19.2900 H   0  0  0  0  0  0  0  0  0  0  0  0
  -26.0950  -24.7910   22.7130 C   0  0  0  0  0  2  0  0  0  0  0  0
  -25.1460  -25.9210   22.2450 C   0  0  0  0  0  3  0  0  0  0  0  0
  -25.7110  -26.5230   20.9260 C   0  0  0  0  0  2  0  0  0  0  0  0
  -25.9590  -25.5040   19.7720 C   0  0  0  0  0  2  0  0  0  0  0  0
  -24.9960  -25.5300   18.7190 O   0  0  0  0  0  0  0  0  0  0  0  0
  -19.2750  -26.2690   22.8080 C   0  0  0  0  0  0  0  0  0  0  0  0
  -23.7630  -25.0320   19.0390 C   0  0  0  0  0  0  0  0  0  0  0  0
  -19.4140  -24.1520   21.5310 C   0  0  0  0  0  3  0  0  0  0  0  0
  -21.2190  -24.0560   19.7310 C   0  0  0  0  0  0  0  0  0  0  0  0
  -20.5140  -26.2810   20.6460 C   0  0  0  0  0  2  0  0  0  0  0  0
  -21.5450  -25.3920   19.9850 C   0  0  0  0  0  0  0  0  0  0  0  0
  -22.8110  -25.8890   19.6240 C   0  0  0  0  0  3  0  0  0  0  0  0
  -23.4370  -23.6840   18.7940 C   0  0  0  0  0  3  0  0  0  0  0  0
  -22.1600  -23.1910   19.1340 C   0  0  0  0  0  3  0  0  0  0  0  0
  -19.8300  -23.6140   20.1350 C   0  0  0  0  0  2  0  0  0  0  0  0
  -19.7430  -25.6030   21.7140 N   0  0  0  0  0  0  0  0  0  0  0  0
  -18.5440  -25.7050   23.6330 O   0  0  0  0  0  0  0  0  0  0  0  0
  -20.0380  -23.2380   22.6090 C   0  0  0  0  0  0  0  0  0  0  0  0
  -19.2790  -22.2140   23.0290 N   0  0  0  0  0  0  0  0  0  0  0  0
  -21.1900  -23.4350   23.0160 O   0  0  0  0  0  0  0  0  0  0  0  0
  -18.3480  -22.1370   22.6460 H   0  0  0  0  0  0  0  0  0  0  0  0
  -18.0050  -19.5420   25.1060 C   0  0  0  0  0  0  0  0  0  0  0  0
  -19.6610  -21.1940   24.0040 C   0  0  0  0  0  3  0  0  0  0  0  0
  -20.2700  -19.9550   23.3040 C   0  0  0  0  0  2  0  0  0  0  0  0
  -19.2420  -18.8590   23.0070 C   0  0  0  0  0  2  0  0  0  0  0  0
  -18.5690  -18.3860   24.2990 C   0  0  0  0  0  2  0  0  0  0  0  0
  -18.5060  -20.8620   24.9570 C   0  0  0  0  0  0  0  0  0  0  0  0
  -17.9160  -21.9050   25.7040 C   0  0  0  0  0  3  0  0  0  0  0  0
  -16.8510  -21.6460   26.5870 C   0  0  0  0  0  3  0  0  0  0  0  0
  -16.3720  -20.3330   26.7440 C   0  0  0  0  0  3  0  0  0  0  0  0
  -16.9510  -19.2840   26.0070 C   0  0  0  0  0  3  0  0  0  0  0  0
  -19.6230  -27.7710   23.0670 C   0  0  0  0  0  3  0  0  0  0  0  0
  -20.7170  -27.9800   24.1860 C   0  0  1  0  0  0  0  0  0  0  0  0
  -20.4120  -27.2430   25.5120 C   0  0  0  0  0  1  0  0  0  0  0  0
  -22.0990  -27.5010   23.6880 C   0  0  0  0  0  1  0  0  0  0  0  0
  -20.8640  -29.4860   24.5170 C   0  0  0  0  0  1  0  0  0  0  0  0
  -18.3790  -28.4600   23.4320 N   0  0  0  0  0  0  0  0  0  0  0  0
  -17.6190  -29.1540   22.5770 C   0  0  0  0  0  0  0  0  0  0  0  0
  -17.9360  -29.3460   21.3990 O   0  0  0  0  0  0  0  0  0  0  0  0
  -18.0430  -28.3180   24.3730 H   0  0  0  0  0  0  0  0  0  0  0  0
  -15.1290  -28.8050   22.7100 C   0  0  0  0  0  1  0  0  0  0  0  0
  -16.2920  -29.7260   23.1130 C   0  0  0  0  0  3  0  0  0  0  0  0
  -16.9320  -32.0950   23.2090 C   0  0  0  0  0  1  0  0  0  0  0  0
  -16.0150  -31.1040   22.6510 N   0  0  0  0  0  0  0  0  0  0  0  0
  -15.0650  -31.3800   22.8910 H   0  0  0  0  0  0  0  0  0  0  0  0
  -25.0390  -27.0280   23.3280 C   0  0  0  0  0  2  0  0  0  0  0  0
  -23.9310  -26.8260   24.2820 N   0  0  0  0  0  4  0  0  0  0  0  0
  -23.9830  -25.9200   24.7110 H   0  0  0  0  0  0  0  0  0  0  0  0
  -23.0190  -26.9250   23.8490 H   0  0  0  0  0  0  0  0  0  0  0  0
  -23.9900  -27.5160   25.0130 H   0  0  0  0  0  0  0  0  0  0  0  0
  1  7  1  0
  2  6  1  0
  4  2  2  0
  4  7  1  0
  5  3  1  0
  6  8  1  0
  6  3  2  0
  7  5  2  0
  9  8  1  0
 10 23  1  0
 11 16  1  0
 12 11  1  0
 12 13  1  0
 14 13  1  0
 14 15  1  0
 14 27  1  0
 16 10  1  0
 16 15  1  0
 17 10  2  0
 18 22  1  0
 19 22  1  0
 20 18  1  0
 21 19  1  0
 22  9  1  0
 23 20  1  0
 23 21  1  0
 24 25  2  0
 25 44  1  0
 26 25  1  0
 26 29  1  0
 27 28  1  0
 27 24  1  0
 28 26  2  0
 29 30  1  0
 30 31  2  0
 32 35  1  0
 32 31  1  0
 33 32  2  0
 34 29  2  0
 34 33  1  0
 35 36  1  0
 36 37  1  0
 37 38  2  0
 39 38  1  0
 39 43  1  0
 40 39  2  0
 41 36  2  0
 41 40  1  0
 42 41  1  0
 44 45  1  0
 45 47  1  0
 45 48  1  0
 46 44  2  0
 49 24  1  0
 49 50  1  0
 51 49  1  0
 52  1  1  0
 53 54  1  0
 53 52  1  0
 53 97  1  0
 55 54  1  0
 56 58  1  0
 56 55  1  0
 57 68  2  0
 58 63  1  0
 59 67  1  0
 59 69  1  0
 60 62  1  0
 60 66  1  0
 61 67  1  0
 62 61  1  0
 63 62  2  0
 64 58  2  0
 64 65  1  0
 65 60  2  0
 66 59  1  0
 67 57  1  0
 69 71  2  0
 69 70  1  0
 72 70  1  0
 73 82  1  0
 74 70  1  0
 74 78  1  0
 75 74  1  0
 76 75  1  0
 76 77  1  0
 77 73  1  0
 78 73  2  0
 78 79  1  0
 79 80  2  0
 80 81  1  0
 82 81  2  0
 83 57  1  0
 83 88  1  0
 83 84  1  0
 84 87  1  1
 84 85  1  0
 86 84  1  0
 88 91  1  0
 89 93  1  0
 89 88  1  0
 90 89  2  0
 93 92  1  0
 95 96  1  0
 95 93  1  0
 95 94  1  0
 97 98  1  0
 98 99  1  0
 98101  1  0
100 98  1  0
M  ISO  4  10 100  23 100  55 101  56 101
M  END
>  <TORSDO>  (53) 
F 25

>  <SCORE>  (53) 
43.282

>  <name>  (53) 
52

>  <ligand_id>  (53) 
52

>  <original_smiles>  (53) 
[H]c1c([H])c([H])c2c(c1[H])C([H])([H])C([H])([H])C([H])([H])C2([H])N([H])C(=O)C1([H])N(C(=O)C([H])(N([H])C(=O)C([H])(N([H])C([H])([H])[H])C([H])([H])[H])C(C([H])([H])[H])(C([H])([H])[H])C([H])([H])[H])C([H])([H])c2c([H])c(OC([H])([H])C([H])([H])C([H])(C([H])([H])C([H])([H])c3c([H])c([H])c(C([H])([H])C([H])([H])C4([H])C([H])([H])C([H])([H])N(C(=O)N5C([H])([H])C([H])([H])C([H])([H])C([H])(n6nc(-c7c([H])c([H])c(Oc8c([H])c([H])c(F)c([H])c8F)c([H])c7[H])c(C(=O)N([H])[H])c6N([H])[H])C5([H])[H])C([H])([H])C4([H])[H])c([H])c3[H])C([H])([H])[N+]([H])([H])[H])c([H])c([H])c2C1([H])[H]

>  <smiles>  (53) 
[H]c1c([H])c([H])c2c(c1[H])C([H])([H])C([H])([H])C([H])([H])C2([H])N([H])C(=O)C1([H])N(C(=O)C([H])(N([H])C(=O)C([H])(N([H])C([H])([H])[H])C([H])([H])[H])C(C([H])([H])[H])(C([H])([H])[H])C([H])([H])[H])C([H])([H])c2c([H])c(OC([H])([H])C([H])([H])C([H])(C([H])([H])C([H])([H])c3c([H])c([H])c(C([H])([H])C([H])([H])C4([H])C([H])([H])C([H])([H])N(C(=O)N5C([H])([H])C([H])([H])C([H])([H])C([H])(n6nc(-c7c([H])c([H])c(Oc8c([H])c([H])c(F)c([H])c8F)c([H])c7[H])c(C(=O)N([H])[H])c6N([H])[H])C5([H])[H])C([H])([H])C4([H])[H])c([H])c3[H])C([H])([H])[N+]([H])([H])[H])c([H])c([H])c2C1([H])[H]

$$$$
53:0:0
     RDKit          3D

 91 98  0  0  1  0  0  0  0  0999 V2000
  -27.6300  -23.6610   20.8460 C   0  0  0  0  0  3  0  0  0  0  0  0
  -28.0270  -22.2630   20.3550 C   0  0  0  0  0  0  0  0  0  0  0  0
  -27.9090  -21.9400   19.1690 O   0  0  0  0  0  0  0  0  0  0  0  0
  -28.5240  -21.2860   21.4260 C   0  0  0  0  0  2  0  0  0  0  0  0
  -28.3910  -19.7970   21.0630 C   0  0  0  0  0  2  0  0  0  0  0  0
  -29.6350  -19.1790   20.3950 C   0  0  0  0  0  2  0  0  0  0  0  0
  -29.5170  -17.6500   20.3180 C   0  0  0  0  0  2  0  0  0  0  0  0
  -30.8560  -16.9070   20.1790 C   0  0  0  0  0  2  0  0  0  0  0  0
  -31.2990  -14.4580   19.8410 C   0  0  0  0  0  0  0  0  0  0  0  0
  -31.0380  -12.1110   19.1220 C   0  0  0  0  0  2  0  0  0  0  0  0
  -30.0760  -12.0470   17.9160 C   0  0  0  0  0  2  0  0  0  0  0  0
  -28.6060  -11.9960   18.3830 C   0  0  0  0  0  2  0  0  0  0  0  0
  -28.2720  -13.0800   19.4430 C   0  0  0  0  0  3  0  0  0  0  0  0
  -29.3320  -13.0580   20.5650 C   0  0  0  0  0  2  0  0  0  0  0  0
  -30.6570  -13.2660   19.9470 N   0  0  0  0  0  0  0  0  0  0  0  0
  -32.3690  -14.6180   19.2400 O   0  0  0  0  0  0  0  0  0  0  0  0
  -30.6170  -15.4810   20.3660 N   0  0  0  0  0  0  0  0  0  0  0  0
  -29.7690  -15.2230   20.8490 H   0  0  0  0  0  0  0  0  0  0  0  0
  -25.9450  -13.8660   20.2250 C   0  0  0  0  0  0  0  0  0  0  0  0
  -24.8380  -13.1740   20.6390 C   0  0  0  0  0  0  0  0  0  0  0  0
  -25.2040  -11.7930   20.6150 C   0  0  0  0  0  0  0  0  0  0  0  0
  -26.9190  -12.9120   19.9690 N   0  0  0  0  0  0  0  0  0  0  0  0
  -26.4780  -11.6620   20.2600 N   0  0  0  0  0  0  0  0  0  0  0  0
  -24.4050  -10.5870   20.8590 C   0  0  0  0  0  0  0  0  0  0  0  0
  -24.7680   -9.6470   21.8490 C   0  0  0  0  0  3  0  0  0  0  0  0
  -23.9740   -8.5020   22.0730 C   0  0  0  0  0  3  0  0  0  0  0  0
  -22.8030   -8.2910   21.3080 C   0  0  0  0  0  0  0  0  0  0  0  0
  -22.4580   -9.2170   20.3090 C   0  0  0  0  0  3  0  0  0  0  0  0
  -23.2520  -10.3550   20.0820 C   0  0  0  0  0  3  0  0  0  0  0  0
  -21.9860   -7.1930   21.4370 O   0  0  0  0  0  0  0  0  0  0  0  0
  -21.8230   -6.5540   22.6390 C   0  0  0  0  0  0  0  0  0  0  0  0
  -21.3490   -7.2330   23.7830 C   0  0  0  0  0  3  0  0  0  0  0  0
  -21.1300   -6.5250   24.9810 C   0  0  0  0  0  3  0  0  0  0  0  0
  -21.3750   -5.1400   25.0360 C   0  0  0  0  0  0  0  0  0  0  0  0
  -21.8420   -4.4610   23.8980 C   0  0  0  0  0  3  0  0  0  0  0  0
  -22.0630   -5.1670   22.7020 C   0  0  0  0  0  0  0  0  0  0  0  0
  -22.4950   -4.5050   21.6010 F   0  0  0  0  0  0  0  0  0  0  0  0
  -21.1570   -4.4590   26.1860 F   0  0  0  0  0  0  0  0  0  0  0  0
  -23.4870  -13.7510   20.9540 C   0  0  0  0  0  0  0  0  0  0  0  0
  -22.7540  -13.1330   21.8720 N   0  0  0  0  0  0  0  0  0  0  0  0
  -23.0920  -14.7860   20.4190 O   0  0  0  0  0  0  0  0  0  0  0  0
  -23.0880  -12.2980   22.3300 H   0  0  0  0  0  0  0  0  0  0  0  0
  -21.8490  -13.5040   22.1260 H   0  0  0  0  0  0  0  0  0  0  0  0
  -26.1970  -15.2200   20.0300 N   0  0  0  0  0  0  0  0  0  0  0  0
  -25.4940  -15.9300   20.1970 H   0  0  0  0  0  0  0  0  0  0  0  0
  -27.0740  -15.6020   19.7030 H   0  0  0  0  0  0  0  0  0  0  0  0
  -25.2690  -23.0190   21.7560 C   0  0  0  0  0  1  0  0  0  0  0  0
  -26.0950  -23.8740   20.7800 C   0  0  0  0  0  2  0  0  0  0  0  0
  -28.4000  -24.7720   20.0880 C   0  0  0  0  0  2  0  0  0  0  0  0
  -28.5880  -26.0560   20.9160 C   0  0  0  0  0  2  0  0  0  0  0  0
  -28.5940  -27.2120   20.0830 O   0  0  0  0  0  0  0  0  0  0  0  0
  -24.7350  -32.0310   23.5650 C   0  0  0  0  0  0  0  0  0  0  0  0
  -27.4190  -27.9150   20.1310 C   0  0  0  0  0  0  0  0  0  0  0  0
  -23.5310  -30.7530   21.8190 C   0  0  0  0  0  3  0  0  0  0  0  0
  -24.9980  -29.3490   20.2700 C   0  0  0  0  0  0  0  0  0  0  0  0
  -26.0470  -31.1640   21.6380 C   0  0  0  0  0  2  0  0  0  0  0  0
  -26.1470  -29.8510   20.8940 C   0  0  0  0  0  0  0  0  0  0  0  0
  -27.3610  -29.1400   20.8230 C   0  0  0  0  0  3  0  0  0  0  0  0
  -26.2600  -27.4150   19.5000 C   0  0  0  0  0  3  0  0  0  0  0  0
  -25.0470  -28.1270   19.5720 C   0  0  0  0  0  3  0  0  0  0  0  0
  -23.7410  -30.1820   20.3910 C   0  0  0  0  0  2  0  0  0  0  0  0
  -24.7880  -31.3260   22.4000 N   0  0  0  0  0  0  0  0  0  0  0  0
  -23.6550  -32.2510   24.1300 O   0  0  0  0  0  0  0  0  0  0  0  0
  -22.8960  -29.6530   22.6980 C   0  0  0  0  0  0  0  0  0  0  0  0
  -21.5820  -29.4410   22.5270 N   0  0  0  0  0  0  0  0  0  0  0  0
  -23.5840  -28.9910   23.4800 O   0  0  0  0  0  0  0  0  0  0  0  0
  -21.0910  -30.0230   21.8620 H   0  0  0  0  0  0  0  0  0  0  0  0
  -18.2460  -28.0950   22.8310 C   0  0  0  0  0  0  0  0  0  0  0  0
  -20.7780  -28.4360   23.2210 C   0  0  0  0  0  3  0  0  0  0  0  0
  -20.9600  -27.0380   22.5860 C   0  0  0  0  0  2  0  0  0  0  0  0
  -19.9210  -26.7310   21.5050 C   0  0  0  0  0  2  0  0  0  0  0  0
  -18.5060  -26.7940   22.0870 C   0  0  0  0  0  2  0  0  0  0  0  0
  -19.3150  -28.8750   23.3480 C   0  0  0  0  0  0  0  0  0  0  0  0
  -19.0220  -30.0960   23.9960 C   0  0  0  0  0  3  0  0  0  0  0  0
  -17.6930  -30.5380   24.1340 C   0  0  0  0  0  3  0  0  0  0  0  0
  -16.6380  -29.7510   23.6390 C   0  0  0  0  0  3  0  0  0  0  0  0
  -16.9160  -28.5330   22.9920 C   0  0  0  0  0  3  0  0  0  0  0  0
  -26.0200  -32.6190   24.2280 C   0  0  0  0  0  3  0  0  0  0  0  0
  -26.5110  -31.7910   25.4760 C   0  0  1  0  0  0  0  0  0  0  0  0
  -25.3990  -31.5140   26.5150 C   0  0  0  0  0  1  0  0  0  0  0  0
  -27.0960  -30.4280   25.0330 C   0  0  0  0  0  1  0  0  0  0  0  0
  -27.6530  -32.5500   26.1920 C   0  0  0  0  0  1  0  0  0  0  0  0
  -25.7240  -34.0060   24.6080 N   0  0  0  0  0  0  0  0  0  0  0  0
  -26.0790  -35.0830   23.8930 C   0  0  0  0  0  0  0  0  0  0  0  0
  -26.7650  -35.0110   22.8710 O   0  0  0  0  0  0  0  0  0  0  0  0
  -25.1190  -34.1340   25.4060 H   0  0  0  0  0  0  0  0  0  0  0  0
  -24.3770  -36.9080   23.5750 C   0  0  0  0  0  1  0  0  0  0  0  0
  -25.5970  -36.4590   24.3940 C   0  0  0  0  0  3  0  0  0  0  0  0
  -27.7240  -37.2830   25.3000 C   0  0  0  0  0  1  0  0  0  0  0  0
  -26.6430  -37.5030   24.3430 N   0  0  0  0  0  0  0  0  0  0  0  0
  -26.2440  -38.4210   24.5210 H   0  0  0  0  0  0  0  0  0  0  0  0
  1 49  1  0
  2  1  1  0
  2  4  1  0
  3  2  2  0
  5  4  1  0
  6  5  1  0
  7  6  1  0
  8  7  1  0
  8 17  1  0
  9 15  1  0
  9 17  1  0
 10 15  1  0
 11 12  1  0
 11 10  1  0
 13 12  1  0
 13 22  1  0
 13 14  1  0
 15 14  1  0
 16  9  2  0
 17 18  1  0
 19 20  2  0
 20 39  1  0
 21 20  1  0
 21 24  1  0
 22 19  1  0
 22 23  1  0
 23 21  2  0
 24 25  1  0
 25 26  2  0
 27 30  1  0
 27 26  1  0
 28 27  2  0
 29 28  1  0
 29 24  2  0
 30 31  1  0
 31 36  2  0
 31 32  1  0
 32 33  2  0
 33 34  1  0
 34 38  1  0
 35 34  2  0
 36 35  1  0
 37 36  1  0
 39 40  1  0
 40 43  1  0
 40 42  1  0
 41 39  2  0
 44 45  1  0
 44 19  1  0
 46 44  1  0
 48  1  1  0
 48 47  1  0
 49 50  1  0
 51 53  1  0
 51 50  1  0
 52 63  2  0
 53 58  1  0
 54 62  1  0
 54 64  1  0
 55 61  1  0
 55 57  1  0
 56 62  1  0
 57 56  1  0
 58 57  2  0
 59 60  1  0
 59 53  2  0
 60 55  2  0
 61 54  1  0
 62 52  1  0
 64 66  2  0
 65 64  1  0
 67 65  1  0
 68 77  2  0
 68 73  1  0
 69 65  1  0
 69 73  1  0
 70 69  1  0
 71 72  1  0
 71 70  1  0
 72 68  1  0
 73 74  2  0
 74 75  1  0
 76 75  2  0
 77 76  1  0
 78 52  1  0
 78 83  1  0
 78 79  1  0
 79 82  1  1
 79 80  1  0
 81 79  1  0
 83 86  1  0
 84 88  1  0
 84 83  1  0
 85 84  2  0
 88 87  1  0
 90 88  1  0
 90 91  1  0
 90 89  1  0
M  ISO  4   9 100  17 100  50 101  51 101
M  END
>  <TORSDO>  (54) 
F 25

>  <SCORE>  (54) 
-10.666

>  <name>  (54) 
53

>  <ligand_id>  (54) 
53

>  <original_smiles>  (54) 
[H]c1c([H])c([H])c2c(c1[H])C([H])([H])C([H])([H])C([H])([H])C2([H])N([H])C(=O)C1([H])N(C(=O)C([H])(N([H])C(=O)C([H])(N([H])C([H])([H])[H])C([H])([H])[H])C(C([H])([H])[H])(C([H])([H])[H])C([H])([H])[H])C([H])([H])c2c([H])c(OC([H])([H])C([H])([H])C([H])(C(=O)C([H])([H])C([H])([H])C([H])([H])C([H])([H])C([H])([H])N([H])C(=O)N3C([H])([H])C([H])([H])C([H])([H])C([H])(n4nc(-c5c([H])c([H])c(Oc6c([H])c([H])c(F)c([H])c6F)c([H])c5[H])c(C(=O)N([H])[H])c4N([H])[H])C3([H])[H])C([H])([H])C([H])([H])[H])c([H])c([H])c2C1([H])[H]

>  <smiles>  (54) 
[H]c1c([H])c([H])c2c(c1[H])C([H])([H])C([H])([H])C([H])([H])C2([H])N([H])C(=O)C1([H])N(C(=O)C([H])(N([H])C(=O)C([H])(N([H])C([H])([H])[H])C([H])([H])[H])C(C([H])([H])[H])(C([H])([H])[H])C([H])([H])[H])C([H])([H])c2c([H])c(OC([H])([H])C([H])([H])C([H])(C(=O)C([H])([H])C([H])([H])C([H])([H])C([H])([H])C([H])([H])N([H])C(=O)N3C([H])([H])C([H])([H])C([H])([H])C([H])(n4nc(-c5c([H])c([H])c(Oc6c([H])c([H])c(F)c([H])c6F)c([H])c5[H])c(C(=O)N([H])[H])c4N([H])[H])C3([H])[H])C([H])([H])C([H])([H])[H])c([H])c([H])c2C1([H])[H]

$$$$
54:0:0
     RDKit          3D

 93102  0  0  1  0  0  0  0  0999 V2000
  -35.0570  -23.1240   18.2620 C   0  0  0  0  0  3  0  0  0  0  0  0
  -34.6120  -25.2250   19.3980 C   0  0  0  0  0  3  0  0  0  0  0  0
  -33.6780  -22.8390   18.2440 C   0  0  0  0  0  3  0  0  0  0  0  0
  -33.2290  -24.9510   19.3630 C   0  0  0  0  0  3  0  0  0  0  0  0
  -35.5380  -24.3150   18.8450 C   0  0  0  0  0  0  0  0  0  0  0  0
  -32.7490  -23.7510   18.7890 C   0  0  0  0  0  0  0  0  0  0  0  0
  -37.0330  -24.6210   18.8450 C   0  0  0  0  0  2  0  0  0  0  0  0
  -37.9030  -26.3390   13.4020 C   0  0  0  0  0  0  0  0  0  0  0  0
  -37.0340  -26.4610   11.0970 C   0  0  0  0  0  2  0  0  0  0  0  0
  -35.6850  -27.2090   11.0990 C   0  0  0  0  0  2  0  0  0  0  0  0
  -34.5230  -26.2390   11.3900 C   0  0  0  0  0  2  0  0  0  0  0  0
  -34.7900  -25.3430   12.6280 C   0  0  0  0  0  3  0  0  0  0  0  0
  -36.1910  -24.7020   12.5460 C   0  0  0  0  0  2  0  0  0  0  0  0
  -37.1760  -25.7870   12.3950 N   0  0  0  0  0  0  0  0  0  0  0  0
  -38.6490  -27.3120   13.2360 O   0  0  0  0  0  0  0  0  0  0  0  0
  -36.5280  -26.1960   16.8830 C   0  0  0  0  0  2  0  0  0  0  0  0
  -37.9020  -24.1690   16.4590 C   0  0  0  0  0  2  0  0  0  0  0  0
  -37.1280  -26.8580   15.6280 C   0  0  0  0  0  2  0  0  0  0  0  0
  -38.4930  -24.8370   15.1980 C   0  0  0  0  0  2  0  0  0  0  0  0
  -37.5340  -25.2260   17.5120 C   0  0  0  0  0  3  0  0  0  0  0  0
  -37.6130  -25.8770   14.6410 N   0  0  0  0  0  0  0  0  0  0  0  0
  -32.9810  -24.0330   13.9100 C   0  0  0  0  0  0  0  0  0  0  0  0
  -32.1110  -23.0530   13.5150 C   0  0  0  0  0  0  0  0  0  0  0  0
  -32.3960  -22.8050   12.1370 C   0  0  0  0  0  0  0  0  0  0  0  0
  -33.7490  -24.3320   12.7940 N   0  0  0  0  0  0  0  0  0  0  0  0
  -33.4200  -23.5470   11.7380 N   0  0  0  0  0  0  0  0  0  0  0  0
  -31.7160  -21.9440   11.1600 C   0  0  0  0  0  0  0  0  0  0  0  0
  -32.4310  -21.0190   10.3680 C   0  0  0  0  0  3  0  0  0  0  0  0
  -31.7530  -20.1920    9.4460 C   0  0  0  0  0  3  0  0  0  0  0  0
  -30.3470  -20.2830    9.3130 C   0  0  0  0  0  0  0  0  0  0  0  0
  -29.6430  -21.2220   10.0870 C   0  0  0  0  0  3  0  0  0  0  0  0
  -30.3200  -22.0480   11.0000 C   0  0  0  0  0  3  0  0  0  0  0  0
  -29.6070  -19.5380    8.4270 O   0  0  0  0  0  0  0  0  0  0  0  0
  -29.9160  -18.2300    8.1530 C   0  0  0  0  0  0  0  0  0  0  0  0
  -29.7720  -17.2110    9.1200 C   0  0  0  0  0  3  0  0  0  0  0  0
  -30.0350  -15.8710    8.7740 C   0  0  0  0  0  3  0  0  0  0  0  0
  -30.4320  -15.5450    7.4650 C   0  0  0  0  0  0  0  0  0  0  0  0
  -30.5710  -16.5570    6.4990 C   0  0  0  0  0  3  0  0  0  0  0  0
  -30.3100  -17.8960    6.8420 C   0  0  0  0  0  0  0  0  0  0  0  0
  -30.4250  -18.8640    5.9010 F   0  0  0  0  0  0  0  0  0  0  0  0
  -30.6770  -14.2560    7.1300 F   0  0  0  0  0  0  0  0  0  0  0  0
  -31.0130  -22.4450   14.3390 C   0  0  0  0  0  0  0  0  0  0  0  0
  -31.0450  -21.1290   14.5270 N   0  0  0  0  0  0  0  0  0  0  0  0
  -30.1450  -23.1410   14.8620 O   0  0  0  0  0  0  0  0  0  0  0  0
  -31.7680  -20.5610   14.1120 H   0  0  0  0  0  0  0  0  0  0  0  0
  -30.3370  -20.6850   15.0930 H   0  0  0  0  0  0  0  0  0  0  0  0
  -33.1710  -24.7060   15.1120 N   0  0  0  0  0  0  0  0  0  0  0  0
  -32.5820  -24.5470   15.9220 H   0  0  0  0  0  0  0  0  0  0  0  0
  -33.8540  -25.4400   15.2530 H   0  0  0  0  0  0  0  0  0  0  0  0
  -31.2560  -23.4510   18.6790 C   0  0  0  0  0  2  0  0  0  0  0  0
  -30.3070  -24.6700   18.7360 C   0  0  0  0  0  2  0  0  0  0  0  0
  -30.1690  -25.4010   17.3920 C   0  0  0  0  0  2  0  0  0  0  0  0
  -28.9790  -26.1870   17.3230 O   0  0  0  0  0  0  0  0  0  0  0  0
  -29.0790  -28.2160   10.5360 C   0  0  0  0  0  0  0  0  0  0  0  0
  -29.1480  -27.2310   16.4510 C   0  0  0  0  0  0  0  0  0  0  0  0
  -30.0810  -29.8000   12.1500 C   0  0  0  0  0  3  0  0  0  0  0  0
  -29.6260  -29.3120   14.6130 C   0  0  0  0  0  0  0  0  0  0  0  0
  -28.2000  -28.2240   12.8660 C   0  0  0  0  0  2  0  0  0  0  0  0
  -28.8020  -28.2380   14.2550 C   0  0  0  0  0  0  0  0  0  0  0  0
  -28.5560  -27.1950   15.1720 C   0  0  0  0  0  3  0  0  0  0  0  0
  -29.9750  -28.3160   16.8070 C   0  0  0  0  0  3  0  0  0  0  0  0
  -30.2180  -29.3580   15.8900 C   0  0  0  0  0  3  0  0  0  0  0  0
  -29.8370  -30.3850   13.5680 C   0  0  0  0  0  2  0  0  0  0  0  0
  -29.1240  -28.7000   11.8090 N   0  0  0  0  0  0  0  0  0  0  0  0
  -29.7840  -28.7000    9.6410 O   0  0  0  0  0  0  0  0  0  0  0  0
  -31.5650  -29.3800   12.0340 C   0  0  0  0  0  0  0  0  0  0  0  0
  -32.3890  -30.2620   11.4460 N   0  0  0  0  0  0  0  0  0  0  0  0
  -31.9540  -28.3020   12.4870 O   0  0  0  0  0  0  0  0  0  0  0  0
  -31.9880  -31.1190   11.0930 H   0  0  0  0  0  0  0  0  0  0  0  0
  -35.2560  -31.5370    9.6540 C   0  0  0  0  0  0  0  0  0  0  0  0
  -33.8320  -30.1020   11.2630 C   0  0  0  0  0  3  0  0  0  0  0  0
  -34.6190  -30.7830   12.4060 C   0  0  0  0  0  2  0  0  0  0  0  0
  -35.0310  -32.2220   12.0790 C   0  0  0  0  0  2  0  0  0  0  0  0
  -35.9050  -32.2590   10.8220 C   0  0  0  0  0  2  0  0  0  0  0  0
  -34.2710  -30.5350    9.8600 C   0  0  0  0  0  0  0  0  0  0  0  0
  -33.6740  -29.9190    8.7400 C   0  0  0  0  0  3  0  0  0  0  0  0
  -34.0480  -30.2850    7.4330 C   0  0  0  0  0  3  0  0  0  0  0  0
  -35.0340  -31.2670    7.2340 C   0  0  0  0  0  3  0  0  0  0  0  0
  -35.6380  -31.8880    8.3420 C   0  0  0  0  0  3  0  0  0  0  0  0
  -28.1210  -27.0480   10.1370 C   0  0  0  0  0  3  0  0  0  0  0  0
  -28.7970  -25.6270   10.2440 C   0  0  1  0  0  0  0  0  0  0  0  0
  -29.1800  -25.0170    8.8760 C   0  0  0  0  0  1  0  0  0  0  0  0
  -30.0780  -25.6970   11.1070 C   0  0  0  0  0  1  0  0  0  0  0  0
  -27.8360  -24.6420   10.9500 C   0  0  0  0  0  1  0  0  0  0  0  0
  -27.6590  -27.3040    8.7660 N   0  0  0  0  0  0  0  0  0  0  0  0
  -26.5650  -28.0090    8.4510 C   0  0  0  0  0  0  0  0  0  0  0  0
  -25.7880  -28.4550    9.3020 O   0  0  0  0  0  0  0  0  0  0  0  0
  -28.2770  -27.0180    8.0210 H   0  0  0  0  0  0  0  0  0  0  0  0
  -26.6520  -29.7060    6.5980 C   0  0  0  0  0  1  0  0  0  0  0  0
  -26.2840  -28.2590    6.9580 C   0  0  0  0  0  3  0  0  0  0  0  0
  -24.5770  -26.5690    6.4460 C   0  0  0  0  0  1  0  0  0  0  0  0
  -24.8820  -27.9910    6.5710 N   0  0  0  0  0  0  0  0  0  0  0  0
  -24.6600  -28.4400    5.6850 H   0  0  0  0  0  0  0  0  0  0  0  0
  1  5  1  0
  3  1  2  0
  3  6  1  0
  4  2  1  0
  5  2  2  0
  6  4  2  0
  7  5  1  0
  8 21  1  0
  9 10  1  0
  9 14  1  0
 10 11  1  0
 12 11  1  0
 12 25  1  0
 13 12  1  0
 14 13  1  0
 14  8  1  0
 15  8  2  0
 16 20  1  0
 17 20  1  0
 18 16  1  0
 19 17  1  0
 20  7  1  0
 21 19  1  0
 21 18  1  0
 22 47  1  0
 23 22  2  0
 23 42  1  0
 24 23  1  0
 25 22  1  0
 26 24  2  0
 26 25  1  0
 27 24  1  0
 28 27  2  0
 29 28  1  0
 30 29  2  0
 30 31  1  0
 31 32  2  0
 32 27  1  0
 33 30  1  0
 34 33  1  0
 34 35  1  0
 36 35  2  0
 37 36  1  0
 38 39  1  0
 38 37  2  0
 39 34  2  0
 40 39  1  0
 41 37  1  0
 42 43  1  0
 42 44  2  0
 43 46  1  0
 45 43  1  0
 47 49  1  0
 47 48  1  0
 50 51  1  0
 50  6  1  0
 52 51  1  0
 53 52  1  0
 54 64  1  0
 55 61  1  0
 55 53  1  0
 56 66  1  0
 56 63  1  0
 57 62  1  0
 58 59  1  0
 59 57  2  0
 59 60  1  0
 60 55  2  0
 62 61  2  0
 63 57  1  0
 64 56  1  0
 64 58  1  0
 65 54  2  0
 66 68  2  0
 67 66  1  0
 69 67  1  0
 70 75  1  0
 70 74  1  0
 71 67  1  0
 71 72  1  0
 73 72  1  0
 74 73  1  0
 75 71  1  0
 76 75  2  0
 77 76  1  0
 78 77  2  0
 78 79  1  0
 79 70  2  0
 80 81  1  0
 80 54  1  0
 81 84  1  1
 81 83  1  0
 82 81  1  0
 85 80  1  0
 86 85  1  0
 86 87  2  0
 88 85  1  0
 90 89  1  0
 90 86  1  0
 91 92  1  0
 92 90  1  0
 93 92  1  0
M  ISO  4   8 100  21 100  52 101  53 101
M  END
>  <TORSDO>  (55) 
F 20

>  <SCORE>  (55) 
-3.038

>  <name>  (55) 
54

>  <ligand_id>  (55) 
54

>  <original_smiles>  (55) 
[H]c1c([H])c([H])c2c(c1[H])C([H])([H])C([H])([H])C([H])([H])C2([H])N([H])C(=O)C1([H])N(C(=O)C([H])(N([H])C(=O)C([H])(N([H])C([H])([H])[H])C([H])([H])[H])C(C([H])([H])[H])(C([H])([H])[H])C([H])([H])[H])C([H])([H])c2c([H])c(OC([H])([H])C([H])([H])C([H])([H])c3c([H])c([H])c(C([H])([H])C4([H])C([H])([H])C([H])([H])N(C(=O)N5C([H])([H])C([H])([H])C([H])([H])C([H])(n6nc(-c7c([H])c([H])c(Oc8c([H])c([H])c(F)c([H])c8F)c([H])c7[H])c(C(=O)N([H])[H])c6N([H])[H])C5([H])[H])C([H])([H])C4([H])[H])c([H])c3[H])c([H])c([H])c2C1([H])[H]

>  <smiles>  (55) 
[H]c1c([H])c([H])c2c(c1[H])C([H])([H])C([H])([H])C([H])([H])C2([H])N([H])C(=O)C1([H])N(C(=O)C([H])(N([H])C(=O)C([H])(N([H])C([H])([H])[H])C([H])([H])[H])C(C([H])([H])[H])(C([H])([H])[H])C([H])([H])[H])C([H])([H])c2c([H])c(OC([H])([H])C([H])([H])C([H])([H])c3c([H])c([H])c(C([H])([H])C4([H])C([H])([H])C([H])([H])N(C(=O)N5C([H])([H])C([H])([H])C([H])([H])C([H])(n6nc(-c7c([H])c([H])c(Oc8c([H])c([H])c(F)c([H])c8F)c([H])c7[H])c(C(=O)N([H])[H])c6N([H])[H])C5([H])[H])C([H])([H])C4([H])[H])c([H])c3[H])c([H])c([H])c2C1([H])[H]

$$$$
55:0:0
     RDKit          3D

 94103  0  0  1  0  0  0  0  0999 V2000
  -30.3040  -21.5550   18.9730 C   0  0  0  0  0  3  0  0  0  0  0  0
  -30.3080  -20.4910   19.8830 C   0  0  0  0  0  3  0  0  0  0  0  0
  -28.4690  -22.5770   20.2110 C   0  0  0  0  0  3  0  0  0  0  0  0
  -29.4110  -22.6200   19.1530 C   0  0  0  0  0  0  0  0  0  0  0  0
  -29.4450  -20.4860   21.0090 C   0  0  0  0  0  0  0  0  0  0  0  0
  -28.5170  -21.5410   21.1600 C   0  0  0  0  0  0  0  0  0  0  0  0
  -27.6740  -21.5710   22.2220 F   0  0  0  0  0  0  0  0  0  0  0  0
  -29.4960  -19.3630   22.0510 C   0  0  0  0  0  2  0  0  0  0  0  0
  -31.4820  -14.5470   19.7240 C   0  0  0  0  0  0  0  0  0  0  0  0
  -30.9280  -12.5090   18.4630 C   0  0  0  0  0  2  0  0  0  0  0  0
  -29.8660  -12.8670   17.4020 C   0  0  0  0  0  2  0  0  0  0  0  0
  -28.4440  -12.7850   17.9980 C   0  0  0  0  0  2  0  0  0  0  0  0
  -28.3230  -13.5240   19.3610 C   0  0  0  0  0  3  0  0  0  0  0  0
  -29.4810  -13.1350   20.3020 C   0  0  0  0  0  2  0  0  0  0  0  0
  -30.7450  -13.4170   19.5970 N   0  0  0  0  0  0  0  0  0  0  0  0
  -32.5150  -14.7770   19.0800 O   0  0  0  0  0  0  0  0  0  0  0  0
  -29.3530  -17.5280   20.2500 C   0  0  0  0  0  2  0  0  0  0  0  0
  -30.1850  -16.8420   22.4520 C   0  0  0  0  0  2  0  0  0  0  0  0
  -30.3250  -16.6080   19.5230 C   0  0  0  0  0  2  0  0  0  0  0  0
  -31.1540  -15.8210   21.8040 C   0  0  0  0  0  2  0  0  0  0  0  0
  -30.0640  -18.0400   21.5020 C   0  0  0  0  0  3  0  0  0  0  0  0
  -30.8340  -15.5240   20.3850 N   0  0  0  0  0  0  0  0  0  0  0  0
  -26.1180  -14.2280   20.4990 C   0  0  0  0  0  0  0  0  0  0  0  0
  -25.0420  -13.4920   20.9250 C   0  0  0  0  0  0  0  0  0  0  0  0
  -25.3600  -12.1330   20.6330 C   0  0  0  0  0  0  0  0  0  0  0  0
  -27.0260  -13.3080   19.9910 N   0  0  0  0  0  0  0  0  0  0  0  0
  -26.5790  -12.0390   20.1230 N   0  0  0  0  0  0  0  0  0  0  0  0
  -24.5590  -10.9170   20.7570 C   0  0  0  0  0  0  0  0  0  0  0  0
  -24.9850   -9.8390   21.5650 C   0  0  0  0  0  3  0  0  0  0  0  0
  -24.1860   -8.6810   21.6860 C   0  0  0  0  0  3  0  0  0  0  0  0
  -22.9540   -8.5960   20.9930 C   0  0  0  0  0  0  0  0  0  0  0  0
  -22.5550   -9.6590   20.1660 C   0  0  0  0  0  3  0  0  0  0  0  0
  -23.3530  -10.8070   20.0420 C   0  0  0  0  0  3  0  0  0  0  0  0
  -22.1290   -7.4950   21.0240 O   0  0  0  0  0  0  0  0  0  0  0  0
  -22.0150   -6.7080   22.1390 C   0  0  0  0  0  0  0  0  0  0  0  0
  -21.6210   -7.2310   23.3890 C   0  0  0  0  0  3  0  0  0  0  0  0
  -21.4400   -6.3690   24.4870 C   0  0  0  0  0  3  0  0  0  0  0  0
  -21.6600   -4.9850   24.3410 C   0  0  0  0  0  0  0  0  0  0  0  0
  -22.0560   -4.4630   23.0980 C   0  0  0  0  0  3  0  0  0  0  0  0
  -22.2270   -5.3220   21.9970 C   0  0  0  0  0  0  0  0  0  0  0  0
  -22.5810   -4.8100   20.7930 F   0  0  0  0  0  0  0  0  0  0  0  0
  -21.4910   -4.1500   25.3940 F   0  0  0  0  0  0  0  0  0  0  0  0
  -23.7590  -14.0290   21.4840 C   0  0  0  0  0  0  0  0  0  0  0  0
  -23.1230  -13.2730   22.3710 N   0  0  0  0  0  0  0  0  0  0  0  0
  -23.3310  -15.1380   21.1720 O   0  0  0  0  0  0  0  0  0  0  0  0
  -23.4650  -12.3540   22.6070 H   0  0  0  0  0  0  0  0  0  0  0  0
  -22.2770  -13.6230   22.7950 H   0  0  0  0  0  0  0  0  0  0  0  0
  -26.3830  -15.5860   20.4920 N   0  0  0  0  0  0  0  0  0  0  0  0
  -25.7370  -16.2960   20.8210 H   0  0  0  0  0  0  0  0  0  0  0  0
  -27.2310  -15.9700   20.0980 H   0  0  0  0  0  0  0  0  0  0  0  0
  -29.5250  -23.7660   18.1710 C   0  0  0  0  0  2  0  0  0  0  0  0
  -28.6260  -24.9620   18.4390 C   0  0  0  0  0  2  0  0  0  0  0  0
  -28.7700  -25.6090   19.8320 C   0  0  0  0  0  2  0  0  0  0  0  0
  -28.7200  -27.0050   19.6550 O   0  0  0  0  0  0  0  0  0  0  0  0
  -24.7310  -31.6970   23.0380 C   0  0  0  0  0  0  0  0  0  0  0  0
  -27.4830  -27.5940   19.6860 C   0  0  0  0  0  0  0  0  0  0  0  0
  -23.5350  -30.3200   21.3730 C   0  0  0  0  0  3  0  0  0  0  0  0
  -25.0070  -28.9290   19.8440 C   0  0  0  0  0  0  0  0  0  0  0  0
  -26.0280  -30.8420   21.0930 C   0  0  0  0  0  2  0  0  0  0  0  0
  -26.1580  -29.5140   20.3850 C   0  0  0  0  0  0  0  0  0  0  0  0
  -27.3990  -28.8640   20.2860 C   0  0  0  0  0  3  0  0  0  0  0  0
  -26.3070  -27.0010   19.1590 C   0  0  0  0  0  3  0  0  0  0  0  0
  -25.0730  -27.6680   19.2320 C   0  0  0  0  0  3  0  0  0  0  0  0
  -23.7220  -29.7130   19.9600 C   0  0  0  0  0  2  0  0  0  0  0  0
  -24.7880  -30.9590   21.8950 N   0  0  0  0  0  0  0  0  0  0  0  0
  -23.6570  -31.8850   23.6250 O   0  0  0  0  0  0  0  0  0  0  0  0
  -22.9710  -29.2240   22.2990 C   0  0  0  0  0  0  0  0  0  0  0  0
  -21.6560  -28.9780   22.1990 N   0  0  0  0  0  0  0  0  0  0  0  0
  -23.7090  -28.6000   23.0650 O   0  0  0  0  0  0  0  0  0  0  0  0
  -21.1120  -29.5590   21.5750 H   0  0  0  0  0  0  0  0  0  0  0  0
  -18.3710  -27.5490   22.6830 C   0  0  0  0  0  0  0  0  0  0  0  0
  -20.9110  -27.9540   22.9330 C   0  0  0  0  0  3  0  0  0  0  0  0
  -21.0900  -26.5650   22.2820 C   0  0  0  0  0  2  0  0  0  0  0  0
  -19.9910  -26.2300   21.2680 C   0  0  0  0  0  2  0  0  0  0  0  0
  -18.6260  -26.2370   21.9580 C   0  0  0  0  0  2  0  0  0  0  0  0
  -19.4460  -28.3650   23.1270 C   0  0  0  0  0  0  0  0  0  0  0  0
  -19.1630  -29.5940   23.7630 C   0  0  0  0  0  3  0  0  0  0  0  0
  -17.8320  -30.0170   23.9470 C   0  0  0  0  0  3  0  0  0  0  0  0
  -16.7710  -29.2000   23.5220 C   0  0  0  0  0  3  0  0  0  0  0  0
  -17.0390  -27.9640   22.9030 C   0  0  0  0  0  3  0  0  0  0  0  0
  -26.0030  -32.3570   23.6480 C   0  0  0  0  0  3  0  0  0  0  0  0
  -26.6430  -31.5110   24.8140 C   0  0  1  0  0  0  0  0  0  0  0  0
  -25.6320  -31.0810   25.9030 C   0  0  0  0  0  1  0  0  0  0  0  0
  -27.3110  -30.2340   24.2480 C   0  0  0  0  0  1  0  0  0  0  0  0
  -27.7590  -32.3360   25.4970 C   0  0  0  0  0  1  0  0  0  0  0  0
  -25.6180  -33.6910   24.1170 N   0  0  0  0  0  0  0  0  0  0  0  0
  -25.8430  -34.8290   23.4420 C   0  0  0  0  0  0  0  0  0  0  0  0
  -26.4700  -34.8650   22.3780 O   0  0  0  0  0  0  0  0  0  0  0  0
  -25.0430  -33.7310   24.9480 H   0  0  0  0  0  0  0  0  0  0  0  0
  -23.9920  -36.5300   23.3190 C   0  0  0  0  0  1  0  0  0  0  0  0
  -25.2890  -36.1350   24.0430 C   0  0  0  0  0  3  0  0  0  0  0  0
  -27.4010  -37.0830   24.8650 C   0  0  0  0  0  1  0  0  0  0  0  0
  -26.2460  -37.2610   23.9870 N   0  0  0  0  0  0  0  0  0  0  0  0
  -25.7930  -38.1380   24.2270 H   0  0  0  0  0  0  0  0  0  0  0  0
  1  4  2  0
  1  2  1  0
  2  5  2  0
  3  6  2  0
  4  3  1  0
  5  6  1  0
  5  8  1  0
  6  7  1  0
  9 22  1  0
 10 15  1  0
 11 12  1  0
 11 10  1  0
 13 12  1  0
 13 26  1  0
 13 14  1  0
 15  9  1  0
 15 14  1  0
 16  9  2  0
 17 21  1  0
 19 17  1  0
 19 22  1  0
 20 18  1  0
 21  8  1  0
 21 18  1  0
 22 20  1  0
 23 24  2  0
 24 43  1  0
 25 28  1  0
 25 24  1  0
 26 27  1  0
 26 23  1  0
 27 25  2  0
 28 29  1  0
 29 30  2  0
 31 34  1  0
 31 30  1  0
 32 31  2  0
 33 32  1  0
 33 28  2  0
 34 35  1  0
 35 36  1  0
 36 37  2  0
 38 37  1  0
 38 42  1  0
 39 38  2  0
 40 35  2  0
 40 39  1  0
 41 40  1  0
 43 44  1  0
 44 46  1  0
 44 47  1  0
 45 43  2  0
 48 23  1  0
 48 49  1  0
 50 48  1  0
 51 52  1  0
 51  4  1  0
 52 53  1  0
 54 56  1  0
 54 53  1  0
 55 66  2  0
 56 61  1  0
 57 65  1  0
 57 67  1  0
 58 64  1  0
 58 60  1  0
 59 65  1  0
 60 59  1  0
 61 60  2  0
 62 63  1  0
 62 56  2  0
 63 58  2  0
 64 57  1  0
 65 55  1  0
 67 69  2  0
 68 67  1  0
 70 68  1  0
 71 80  2  0
 71 76  1  0
 72 68  1  0
 72 76  1  0
 73 72  1  0
 74 75  1  0
 74 73  1  0
 75 71  1  0
 76 77  2  0
 77 78  1  0
 79 78  2  0
 80 79  1  0
 81 55  1  0
 81 86  1  0
 81 82  1  0
 82 85  1  1
 82 83  1  0
 84 82  1  0
 86 89  1  0
 87 91  1  0
 87 86  1  0
 88 87  2  0
 91 90  1  0
 93 91  1  0
 93 94  1  0
 93 92  1  0
M  ISO  4   9 100  22 100  53 101  54 101
M  END
>  <TORSDO>  (56) 
F 20

>  <SCORE>  (56) 
-9.738

>  <name>  (56) 
55

>  <ligand_id>  (56) 
55

>  <original_smiles>  (56) 
[H]c1c([H])c([H])c2c(c1[H])C([H])([H])C([H])([H])C([H])([H])C2([H])N([H])C(=O)C1([H])N(C(=O)C([H])(N([H])C(=O)C([H])(N([H])C([H])([H])[H])C([H])([H])[H])C(C([H])([H])[H])(C([H])([H])[H])C([H])([H])[H])C([H])([H])c2c([H])c(OC([H])([H])C([H])([H])C([H])([H])c3c([H])c([H])c(C([H])([H])C4([H])C([H])([H])C([H])([H])N(C(=O)N5C([H])([H])C([H])([H])C([H])([H])C([H])(n6nc(-c7c([H])c([H])c(Oc8c([H])c([H])c(F)c([H])c8F)c([H])c7[H])c(C(=O)N([H])[H])c6N([H])[H])C5([H])[H])C([H])([H])C4([H])[H])c(F)c3[H])c([H])c([H])c2C1([H])[H]

>  <smiles>  (56) 
[H]c1c([H])c([H])c2c(c1[H])C([H])([H])C([H])([H])C([H])([H])C2([H])N([H])C(=O)C1([H])N(C(=O)C([H])(N([H])C(=O)C([H])(N([H])C([H])([H])[H])C([H])([H])[H])C(C([H])([H])[H])(C([H])([H])[H])C([H])([H])[H])C([H])([H])c2c([H])c(OC([H])([H])C([H])([H])C([H])([H])c3c([H])c([H])c(C([H])([H])C4([H])C([H])([H])C([H])([H])N(C(=O)N5C([H])([H])C([H])([H])C([H])([H])C([H])(n6nc(-c7c([H])c([H])c(Oc8c([H])c([H])c(F)c([H])c8F)c([H])c7[H])c(C(=O)N([H])[H])c6N([H])[H])C5([H])[H])C([H])([H])C4([H])[H])c(F)c3[H])c([H])c([H])c2C1([H])[H]

$$$$
56:0:0
     RDKit          3D

104111  0  0  1  0  0  0  0  0999 V2000
  -26.5810  -31.7870   21.6390 C   0  0  0  0  0  3  0  0  0  0  0  0
  -28.0110  -30.9680   22.1370 C   0  0  0  0  0  3  0  0  0  0  0  0
  -25.1060  -30.8710   21.4890 C   0  0  0  0  0  2  0  0  0  0  0  0
  -28.1990  -29.3410   22.5120 C   0  0  0  0  0  3  0  0  0  0  0  0
  -25.4380  -28.6830   22.2260 C   0  0  0  0  0  2  0  0  0  0  0  0
  -26.9730  -28.3240   22.6670 C   0  0  0  0  0  3  0  0  0  0  0  0
  -27.3240  -26.9150   23.2250 C   0  0  0  0  0  2  0  0  0  0  0  0
  -27.0330  -25.5770   22.4410 C   0  0  0  0  0  2  0  0  0  0  0  0
  -26.0740  -25.3110   21.1890 C   0  0  0  0  0  2  0  0  0  0  0  0
  -26.4640  -25.6190   19.8270 O   0  0  0  0  0  0  0  0  0  0  0  0
  -23.9390  -31.3130   23.3550 C   0  0  0  0  0  0  0  0  0  0  0  0
  -25.5660  -26.4520   19.2300 C   0  0  0  0  0  3  0  0  0  0  0  0
  -22.3860  -30.0210   21.8310 C   0  0  0  0  0  3  0  0  0  0  0  0
  -23.4810  -28.5060   18.9940 C   0  0  0  0  0  3  0  0  0  0  0  0
  -25.9060  -29.2840   20.3570 C   0  0  0  0  0  1  0  0  0  0  0  0
  -25.0580  -28.6570   19.1000 C   0  0  0  0  0  3  0  0  0  0  0  0
  -26.0000  -27.6790   18.9140 C   0  0  0  0  0  2  0  0  0  0  0  0
  -24.2410  -26.1610   18.8540 C   0  0  0  0  0  2  0  0  0  0  0  0
  -23.2610  -27.1780   18.5850 C   0  0  0  0  0  2  0  0  0  0  0  0
  -22.1460  -29.2920   20.0270 C   0  0  0  0  0  2  0  0  0  0  0  0
  -24.1430  -30.2490   22.5030 N   0  0  0  0  0  0  0  0  0  0  0  0
  -22.8250  -31.6840   23.7600 O   0  0  0  0  0  0  0  0  0  0  0  0
  -21.5860  -29.1550   22.7900 C   0  0  0  0  0  0  0  0  0  0  0  0
  -20.3320  -28.8020   22.4860 N   0  0  0  0  0  0  0  0  0  0  0  0
  -22.1760  -28.6810   23.7560 O   0  0  0  0  0  0  0  0  0  0  0  0
  -19.8510  -29.2730   21.7300 H   0  0  0  0  0  0  0  0  0  0  0  0
  -17.0330  -27.4770   22.9750 C   0  0  0  0  0  0  0  0  0  0  0  0
  -19.5320  -27.9190   23.3390 C   0  0  0  0  0  3  0  0  0  0  0  0
  -19.7030  -26.4190   23.0080 C   0  0  0  0  0  2  0  0  0  0  0  0
  -18.7500  -25.9450   21.9090 C   0  0  0  0  0  2  0  0  0  0  0  0
  -17.3140  -26.0880   22.4210 C   0  0  0  0  0  2  0  0  0  0  0  0
  -18.0780  -28.3500   23.3710 C   0  0  0  0  0  0  0  0  0  0  0  0
  -17.7690  -29.6500   23.8240 C   0  0  0  0  0  3  0  0  0  0  0  0
  -16.4310  -30.0760   23.9000 C   0  0  0  0  0  3  0  0  0  0  0  0
  -15.3950  -29.1940   23.5420 C   0  0  0  0  0  3  0  0  0  0  0  0
  -15.6950  -27.9000   23.0830 C   0  0  0  0  0  3  0  0  0  0  0  0
  -25.1240  -32.0920   23.9140 C   0  0  0  0  0  3  0  0  0  0  0  0
  -24.7640  -33.4950   24.0820 N   0  0  0  0  0  0  0  0  0  0  0  0
  -25.2670  -34.5130   23.3570 C   0  0  0  0  0  0  0  0  0  0  0  0
  -26.0610  -34.3880   22.4170 O   0  0  0  0  0  0  0  0  0  0  0  0
  -24.0730  -33.7030   24.7880 H   0  0  0  0  0  0  0  0  0  0  0  0
  -23.8250  -36.4700   22.7850 C   0  0  0  0  0  1  0  0  0  0  0  0
  -24.8470  -35.9190   23.7870 C   0  0  0  0  0  3  0  0  0  0  0  0
  -26.8990  -36.4900   25.0160 C   0  0  0  0  0  1  0  0  0  0  0  0
  -25.9900  -36.8480   23.9290 N   0  0  0  0  0  0  0  0  0  0  0  0
  -25.6630  -37.7970   24.0840 H   0  0  0  0  0  0  0  0  0  0  0  0
  -25.6380  -31.3680   25.1950 C   0  0  1  0  0  0  0  0  0  0  0  0
  -24.5280  -31.2470   26.2440 C   0  0  0  0  0  1  0  0  0  0  0  0
  -26.1380  -29.9270   25.1390 C   0  0  0  0  0  1  0  0  0  0  0  0
  -26.8670  -32.1510   25.6730 C   0  0  0  0  0  1  0  0  0  0  0  0
  -24.6440  -27.2870   22.5910 C   0  0  0  0  0  2  0  0  0  0  0  0
  -23.2290  -26.8920   22.4630 N   0  0  0  0  0  4  0  0  0  0  0  0
  -22.6410  -27.5070   22.9980 H   0  0  0  0  0  0  0  0  0  0  0  0
  -23.1060  -25.9420   22.7730 H   0  0  0  0  0  0  0  0  0  0  0  0
  -22.9880  -26.9360   21.4830 H   0  0  0  0  0  0  0  0  0  0  0  0
  -29.5820  -28.4740   22.1310 C   0  0  0  0  0  2  0  0  0  0  0  0
  -29.6630  -27.4450   20.7750 C   0  0  0  0  0  2  0  0  0  0  0  0
  -32.0190  -26.1180   20.1430 C   0  0  0  0  0  1  0  0  0  0  0  0
  -30.4880  -25.9970   20.2560 C   0  0  0  0  0  3  0  0  0  0  0  0
  -30.0960  -24.4920   20.5830 N   0  0  0  0  0  4  0  0  0  0  0  0
  -30.1820  -24.3860   21.5840 H   0  0  0  0  0  0  0  0  0  0  0  0
  -29.1180  -24.4050   20.3590 H   0  0  0  0  0  0  0  0  0  0  0  0
  -30.7600  -23.2020   19.9600 C   0  0  0  0  0  3  0  0  0  0  0  0
  -30.0570  -21.6920   20.0520 C   0  0  0  0  0  3  0  0  0  0  0  0
  -30.8600  -20.2790   19.7310 C   0  0  0  0  0  3  0  0  0  0  0  0
  -30.1340  -18.7990   19.7010 C   0  0  0  0  0  3  0  0  0  0  0  0
  -30.9530  -17.3750   19.8310 C   0  0  0  0  0  3  0  0  0  0  0  0
  -30.1720  -15.9340   19.9470 C   0  0  0  0  0  3  0  0  0  0  0  0
  -30.9150  -14.5000   19.8290 C   0  0  0  0  0  0  0  0  0  0  0  0
  -30.7110  -12.0480   19.2790 C   0  0  0  0  0  2  0  0  0  0  0  0
  -29.7540  -11.8370   18.0810 C   0  0  0  0  0  2  0  0  0  0  0  0
  -28.2920  -11.7310   18.5580 C   0  0  0  0  0  2  0  0  0  0  0  0
  -27.9120  -12.8490   19.5650 C   0  0  0  0  0  3  0  0  0  0  0  0
  -28.9900  -13.0320   20.6580 C   0  0  0  0  0  2  0  0  0  0  0  0
  -30.2830  -13.2750   20.0000 N   0  0  0  0  0  0  0  0  0  0  0  0
  -32.0680  -14.5100   19.3950 O   0  0  0  0  0  0  0  0  0  0  0  0
  -25.6170  -13.5880   20.4530 C   0  0  0  0  0  0  0  0  0  0  0  0
  -24.5180  -12.8860   20.8660 C   0  0  0  0  0  0  0  0  0  0  0  0
  -24.8730  -11.5040   20.7720 C   0  0  0  0  0  0  0  0  0  0  0  0
  -26.5780  -12.6420   20.1310 N   0  0  0  0  0  0  0  0  0  0  0  0
  -26.1370  -11.3810   20.3820 N   0  0  0  0  0  0  0  0  0  0  0  0
  -24.0600  -10.2940   20.9750 C   0  0  0  0  0  0  0  0  0  0  0  0
  -24.4420   -9.2890   21.8900 C   0  0  0  0  0  3  0  0  0  0  0  0
  -23.6320   -8.1480   22.0820 C   0  0  0  0  0  3  0  0  0  0  0  0
  -22.4250   -8.0050   21.3580 C   0  0  0  0  0  0  0  0  0  0  0  0
  -22.0590   -8.9990   20.4330 C   0  0  0  0  0  3  0  0  0  0  0  0
  -22.8690  -10.1300   20.2390 C   0  0  0  0  0  3  0  0  0  0  0  0
  -21.5910   -6.9180   21.4600 O   0  0  0  0  0  0  0  0  0  0  0  0
  -21.4870   -6.1940   22.6210 C   0  0  0  0  0  0  0  0  0  0  0  0
  -21.0560   -6.7820   23.8300 C   0  0  0  0  0  3  0  0  0  0  0  0
  -20.8970   -5.9880   24.9820 C   0  0  0  0  0  3  0  0  0  0  0  0
  -21.1620   -4.6070   24.9280 C   0  0  0  0  0  0  0  0  0  0  0  0
  -21.5870   -4.0180   23.7250 C   0  0  0  0  0  3  0  0  0  0  0  0
  -21.7460   -4.8090   22.5740 C   0  0  0  0  0  0  0  0  0  0  0  0
  -22.1360   -4.2320   21.4110 F   0  0  0  0  0  0  0  0  0  0  0  0
  -21.0030   -3.8430   26.0340 F   0  0  0  0  0  0  0  0  0  0  0  0
  -23.1800  -13.4590   21.2360 C   0  0  0  0  0  0  0  0  0  0  0  0
  -22.4540  -12.7990   22.1330 N   0  0  0  0  0  0  0  0  0  0  0  0
  -22.7920  -14.5280   20.7680 O   0  0  0  0  0  0  0  0  0  0  0  0
  -22.7790  -11.9320   22.5350 H   0  0  0  0  0  0  0  0  0  0  0  0
  -21.5600  -13.1700   22.4220 H   0  0  0  0  0  0  0  0  0  0  0  0
  -25.8720  -14.9470   20.3030 N   0  0  0  0  0  0  0  0  0  0  0  0
  -25.1690  -15.6540   20.4860 H   0  0  0  0  0  0  0  0  0  0  0  0
  -26.7360  -15.3350   19.9500 H   0  0  0  0  0  0  0  0  0  0  0  0
  1  2  2  0
  2  4  1  0
  3  1  1  0
  3 21  1  0
  4 56  1  0
  4  6  1  0
  5 51  1  0
  6  5  1  0
  6  7  1  0
  8  7  1  0
  9  8  1  0
 10  9  1  0
 11 22  2  0
 12 18  1  0
 12 10  1  0
 13 21  1  0
 13 23  1  0
 14 19  1  0
 14 16  1  0
 14 20  1  0
 16 15  1  0
 17 16  1  0
 17 12  1  0
 19 18  1  0
 20 13  1  0
 21 11  1  0
 23 25  2  0
 24 23  1  0
 26 24  1  0
 27 36  2  0
 27 32  1  0
 28 24  1  0
 28 32  1  0
 29 28  1  0
 30 31  1  0
 30 29  1  0
 31 27  1  0
 32 33  2  0
 33 34  1  0
 35 34  2  0
 36 35  1  0
 37 11  1  0
 37 38  1  0
 37 47  1  0
 38 41  1  0
 39 43  1  0
 39 38  1  0
 40 39  2  0
 43 42  1  0
 43 45  1  0
 45 46  1  0
 45 44  1  0
 47 50  1  1
 47 48  1  0
 49 47  1  0
 52 51  1  0
 52 54  1  0
 52 53  1  0
 55 52  1  0
 57 56  1  0
 59 58  1  0
 59 60  1  0
 59 57  1  0
 60 61  1  0
 62 60  1  0
 63 64  2  0
 63 60  1  0
 65 64  1  0
 66 65  2  0
 66 67  1  0
 67 68  2  0
 69 68  1  0
 69 75  1  0
 70 75  1  0
 71 72  1  0
 71 70  1  0
 73 72  1  0
 73 80  1  0
 73 74  1  0
 75 74  1  0
 76 69  2  0
 77 78  2  0
 78 97  1  0
 79 78  1  0
 79 82  1  0
 80 81  1  0
 80 77  1  0
 81 79  2  0
 82 83  1  0
 83 84  2  0
 85 88  1  0
 85 84  1  0
 86 85  2  0
 87 86  1  0
 87 82  2  0
 88 89  1  0
 89 90  1  0
 90 91  2  0
 92 91  1  0
 92 96  1  0
 93 92  2  0
 94 89  2  0
 94 93  1  0
 95 94  1  0
 97 98  1  0
 98101  1  0
 98100  1  0
 99 97  2  0
102 77  1  0
102103  1  0
104102  1  0
M  ISO  4   9 101  10 101  68 100  69 100
M  END
>  <TORSDO>  (57) 
F 31

>  <SCORE>  (57) 
-8.964

>  <name>  (57) 
56

>  <ligand_id>  (57) 
56

>  <original_smiles>  (57) 
[H]c1c([H])c([H])c2c(c1[H])C([H])([H])C([H])([H])C([H])([H])C2([H])N([H])C(=O)C1([H])N(C(=O)C([H])(N([H])C(=O)C([H])(N([H])C([H])([H])[H])C([H])([H])[H])C(C([H])([H])[H])(C([H])([H])[H])C([H])([H])[H])C([H])([H])c2c([H])c(OC([H])([H])C([H])([H])C([H])([H])c3c(C([H])([H])C([H])([H])C([H])(C([H])([H])[H])[N+]([H])([H])C([H])([H])C([H])([H])C([H])([H])C([H])([H])C([H])([H])C([H])([H])C(=O)N4C([H])([H])C([H])([H])C([H])([H])C([H])(n5nc(-c6c([H])c([H])c(Oc7c([H])c([H])c(F)c([H])c7F)c([H])c6[H])c(C(=O)N([H])[H])c5N([H])[H])C4([H])[H])c([H])c([H])c([H])c3C([H])([H])[N+]([H])([H])[H])c([H])c([H])c2C1([H])[H]

>  <smiles>  (57) 
[H]c1c([H])c([H])c2c(c1[H])C([H])([H])C([H])([H])C([H])([H])C2([H])N([H])C(=O)C1([H])N(C(=O)C([H])(N([H])C(=O)C([H])(N([H])C([H])([H])[H])C([H])([H])[H])C(C([H])([H])[H])(C([H])([H])[H])C([H])([H])[H])C([H])([H])c2c([H])c(OC([H])([H])C([H])([H])C([H])([H])c3c(C([H])([H])C([H])([H])C([H])(C([H])([H])[H])[N+]([H])([H])C([H])([H])C([H])([H])C([H])([H])C([H])([H])C([H])([H])C([H])([H])C(=O)N4C([H])([H])C([H])([H])C([H])([H])C([H])(n5nc(-c6c([H])c([H])c(Oc7c([H])c([H])c(F)c([H])c7F)c([H])c6[H])c(C(=O)N([H])[H])c5N([H])[H])C4([H])[H])c([H])c([H])c([H])c3C([H])([H])[N+]([H])([H])[H])c([H])c([H])c2C1([H])[H]

$$$$
57:0:0
     RDKit          3D

 91 98  0  0  1  0  0  0  0  0999 V2000
  -28.2840  -23.6910   17.9810 N   0  0  0  0  0  4  0  0  0  0  0  0
  -27.4210  -23.4270   18.4330 H   0  0  0  0  0  0  0  0  0  0  0  0
  -28.0890  -23.7030   16.9910 H   0  0  0  0  0  0  0  0  0  0  0  0
  -28.6640  -25.0760   18.3710 C   0  0  0  0  0  2  0  0  0  0  0  0
  -28.3730  -25.3970   19.8540 C   0  0  0  0  0  2  0  0  0  0  0  0
  -28.3950  -26.8010   20.0810 O   0  0  0  0  0  0  0  0  0  0  0  0
  -24.5960  -31.8860   23.2330 C   0  0  0  0  0  0  0  0  0  0  0  0
  -27.1980  -27.4760   20.0900 C   0  0  0  0  0  0  0  0  0  0  0  0
  -23.3680  -30.4870   21.6040 C   0  0  0  0  0  3  0  0  0  0  0  0
  -24.7990  -28.9610   20.1550 C   0  0  0  0  0  0  0  0  0  0  0  0
  -25.8900  -30.8530   21.3730 C   0  0  0  0  0  2  0  0  0  0  0  0
  -25.9640  -29.4870   20.7270 C   0  0  0  0  0  0  0  0  0  0  0  0
  -27.1640  -28.7500   20.6950 C   0  0  0  0  0  3  0  0  0  0  0  0
  -26.0130  -26.9610   19.5100 C   0  0  0  0  0  3  0  0  0  0  0  0
  -24.8160  -27.6960   19.5470 C   0  0  0  0  0  3  0  0  0  0  0  0
  -23.5570  -29.8170   20.2180 C   0  0  0  0  0  2  0  0  0  0  0  0
  -24.6380  -31.0890   22.1280 N   0  0  0  0  0  0  0  0  0  0  0  0
  -23.5230  -32.1560   23.7870 O   0  0  0  0  0  0  0  0  0  0  0  0
  -22.7350  -29.4580   22.5660 C   0  0  0  0  0  0  0  0  0  0  0  0
  -21.4100  -29.2730   22.4540 N   0  0  0  0  0  0  0  0  0  0  0  0
  -23.4300  -28.8310   23.3700 O   0  0  0  0  0  0  0  0  0  0  0  0
  -20.9120  -29.8350   21.7780 H   0  0  0  0  0  0  0  0  0  0  0  0
  -18.0420  -28.0720   22.9670 C   0  0  0  0  0  0  0  0  0  0  0  0
  -20.6000  -28.3330   23.2270 C   0  0  0  0  0  3  0  0  0  0  0  0
  -20.7020  -26.9010   22.6500 C   0  0  0  0  0  2  0  0  0  0  0  0
  -19.5950  -26.5770   21.6420 C   0  0  0  0  0  2  0  0  0  0  0  0
  -18.2170  -26.7220   22.2940 C   0  0  0  0  0  2  0  0  0  0  0  0
  -19.1620  -28.8370   23.3900 C   0  0  0  0  0  0  0  0  0  0  0  0
  -18.9450  -30.1030   23.9770 C   0  0  0  0  0  3  0  0  0  0  0  0
  -17.6400  -30.6040   24.1460 C   0  0  0  0  0  3  0  0  0  0  0  0
  -16.5350  -29.8360   23.7410 C   0  0  0  0  0  3  0  0  0  0  0  0
  -16.7370  -28.5720   23.1570 C   0  0  0  0  0  3  0  0  0  0  0  0
  -25.8920  -32.5130   23.8370 C   0  0  0  0  0  3  0  0  0  0  0  0
  -26.4300  -31.7340   25.0990 C   0  0  1  0  0  0  0  0  0  0  0  0
  -25.3580  -31.4870   26.1860 C   0  0  0  0  0  1  0  0  0  0  0  0
  -27.0060  -30.3600   24.6840 C   0  0  0  0  0  1  0  0  0  0  0  0
  -27.5920  -32.5230   25.7480 C   0  0  0  0  0  1  0  0  0  0  0  0
  -25.5900  -33.9090   24.1770 N   0  0  0  0  0  0  0  0  0  0  0  0
  -25.9160  -34.9620   23.4160 C   0  0  0  0  0  0  0  0  0  0  0  0
  -26.5760  -34.8610   22.3780 O   0  0  0  0  0  0  0  0  0  0  0  0
  -25.0030  -34.0620   24.9840 H   0  0  0  0  0  0  0  0  0  0  0  0
  -24.1850  -36.7550   23.0790 C   0  0  0  0  0  1  0  0  0  0  0  0
  -25.4310  -36.3480   23.8810 C   0  0  0  0  0  3  0  0  0  0  0  0
  -27.5740  -37.2240   24.7000 C   0  0  0  0  0  1  0  0  0  0  0  0
  -26.4630  -37.4000   23.7670 N   0  0  0  0  0  0  0  0  0  0  0  0
  -26.0600  -38.3200   23.9240 H   0  0  0  0  0  0  0  0  0  0  0  0
  -29.3040  -22.6350   18.1860 C   0  0  0  0  0  2  0  0  0  0  0  0
  -29.7560  -22.5010   19.6520 C   0  0  0  0  0  2  0  0  0  0  0  0
  -30.6600  -21.3080   19.9680 C   0  0  0  0  0  2  0  0  0  0  0  0
  -29.9660  -19.9410   19.9210 C   0  0  0  0  0  2  0  0  0  0  0  0
  -30.7430  -18.9090   20.7440 C   0  0  0  0  0  2  0  0  0  0  0  0
  -30.1150  -17.5160   20.6840 C   0  0  0  0  0  2  0  0  0  0  0  0
  -30.7320  -16.5610   21.7200 C   0  0  0  0  0  2  0  0  0  0  0  0
  -30.7240  -14.3540   20.6090 C   0  0  0  0  0  0  0  0  0  0  0  0
  -30.3330  -12.2760   19.3490 C   0  0  0  0  0  2  0  0  0  0  0  0
  -29.3990  -12.5510   18.1580 C   0  0  0  0  0  2  0  0  0  0  0  0
  -27.9250  -12.4170   18.5850 C   0  0  0  0  0  2  0  0  0  0  0  0
  -27.6030  -13.2320   19.8650 C   0  0  0  0  0  3  0  0  0  0  0  0
  -28.6530  -12.9580   20.9680 C   0  0  0  0  0  2  0  0  0  0  0  0
  -29.9950  -13.2250   20.4190 N   0  0  0  0  0  0  0  0  0  0  0  0
  -31.7520  -14.6140   19.9760 O   0  0  0  0  0  0  0  0  0  0  0  0
  -30.2400  -15.2030   21.5200 N   0  0  0  0  0  0  0  0  0  0  0  0
  -29.4200  -14.9160   22.0330 H   0  0  0  0  0  0  0  0  0  0  0  0
  -25.1980  -13.8560   20.5550 C   0  0  0  0  0  0  0  0  0  0  0  0
  -24.1240  -13.0870   20.9260 C   0  0  0  0  0  0  0  0  0  0  0  0
  -24.5810  -11.7340   20.9010 C   0  0  0  0  0  0  0  0  0  0  0  0
  -26.2420  -12.9700   20.3350 N   0  0  0  0  0  0  0  0  0  0  0  0
  -25.8720  -11.6890   20.5970 N   0  0  0  0  0  0  0  0  0  0  0  0
  -23.8500  -10.4750   21.0930 C   0  0  0  0  0  0  0  0  0  0  0  0
  -24.2940   -9.4960   22.0100 C   0  0  0  0  0  3  0  0  0  0  0  0
  -23.5630   -8.3030   22.1910 C   0  0  0  0  0  3  0  0  0  0  0  0
  -22.3750   -8.0780   21.4560 C   0  0  0  0  0  0  0  0  0  0  0  0
  -21.9510   -9.0450   20.5290 C   0  0  0  0  0  3  0  0  0  0  0  0
  -22.6820  -10.2300   20.3450 C   0  0  0  0  0  3  0  0  0  0  0  0
  -21.6150   -6.9360   21.5470 O   0  0  0  0  0  0  0  0  0  0  0  0
  -21.6020   -6.1690   22.6840 C   0  0  0  0  0  0  0  0  0  0  0  0
  -21.2380   -6.7030   23.9390 C   0  0  0  0  0  3  0  0  0  0  0  0
  -21.1710   -5.8620   25.0670 C   0  0  0  0  0  3  0  0  0  0  0  0
  -21.4580   -4.4900   24.9420 C   0  0  0  0  0  0  0  0  0  0  0  0
  -21.8160   -3.9570   23.6920 C   0  0  0  0  0  3  0  0  0  0  0  0
  -21.8840   -4.7930   22.5650 C   0  0  0  0  0  0  0  0  0  0  0  0
  -22.2080   -4.2720   21.3580 F   0  0  0  0  0  0  0  0  0  0  0  0
  -21.3860   -3.6800   26.0250 F   0  0  0  0  0  0  0  0  0  0  0  0
  -22.7280  -13.5710   21.1920 C   0  0  0  0  0  0  0  0  0  0  0  0
  -21.9960  -12.8790   22.0600 N   0  0  0  0  0  0  0  0  0  0  0  0
  -22.2940  -14.5940   20.6660 O   0  0  0  0  0  0  0  0  0  0  0  0
  -22.3580  -12.0510   22.5090 H   0  0  0  0  0  0  0  0  0  0  0  0
  -21.0600  -13.1880   22.2790 H   0  0  0  0  0  0  0  0  0  0  0  0
  -25.3690  -15.2240   20.3730 N   0  0  0  0  0  0  0  0  0  0  0  0
  -24.6080  -15.8870   20.4730 H   0  0  0  0  0  0  0  0  0  0  0  0
  -26.2330  -15.6590   20.0700 H   0  0  0  0  0  0  0  0  0  0  0  0
  1 47  1  0
  1  4  1  0
  1  2  1  0
  3  1  1  0
  4  5  1  0
  5  6  1  0
  6  8  1  0
  7 18  2  0
  8 13  1  0
  9 17  1  0
  9 19  1  0
 10 16  1  0
 10 12  1  0
 11 17  1  0
 12 11  1  0
 13 12  2  0
 14 15  1  0
 14  8  2  0
 15 10  2  0
 16  9  1  0
 17  7  1  0
 19 21  2  0
 20 19  1  0
 22 20  1  0
 23 32  2  0
 23 28  1  0
 24 20  1  0
 24 28  1  0
 25 24  1  0
 26 27  1  0
 26 25  1  0
 27 23  1  0
 28 29  2  0
 29 30  1  0
 31 30  2  0
 32 31  1  0
 33  7  1  0
 33 38  1  0
 33 34  1  0
 34 37  1  1
 34 35  1  0
 36 34  1  0
 38 41  1  0
 39 43  1  0
 39 38  1  0
 40 39  2  0
 43 42  1  0
 45 43  1  0
 45 46  1  0
 45 44  1  0
 47 48  1  0
 48 49  1  0
 50 49  1  0
 50 51  1  0
 52 51  1  0
 52 53  1  0
 54 62  1  0
 55 60  1  0
 56 57  1  0
 56 55  1  0
 58 57  1  0
 58 67  1  0
 58 59  1  0
 60 54  1  0
 60 59  1  0
 61 54  2  0
 62 53  1  0
 62 63  1  0
 64 65  2  0
 65 84  1  0
 66 65  1  0
 66 69  1  0
 67 64  1  0
 67 68  1  0
 68 66  2  0
 69 70  1  0
 70 71  2  0
 72 75  1  0
 72 71  1  0
 73 72  2  0
 74 73  1  0
 74 69  2  0
 75 76  1  0
 76 77  1  0
 77 78  2  0
 79 78  1  0
 79 83  1  0
 80 79  2  0
 81 76  2  0
 81 80  1  0
 82 81  1  0
 84 85  1  0
 85 88  1  0
 85 87  1  0
 86 84  2  0
 89 90  1  0
 89 64  1  0
 91 89  1  0
M  ISO  4   5 101   6 101  54 100  62 100
M  END
>  <TORSDO>  (58) 
F 25

>  <SCORE>  (58) 
-12.038

>  <name>  (58) 
57

>  <ligand_id>  (58) 
57

>  <original_smiles>  (58) 
[H]c1c([H])c([H])c2c(c1[H])C([H])([H])C([H])([H])C([H])([H])C2([H])N([H])C(=O)C1([H])N(C(=O)C([H])(N([H])C(=O)C([H])(N([H])C([H])([H])[H])C([H])([H])[H])C(C([H])([H])[H])(C([H])([H])[H])C([H])([H])[H])C([H])([H])c2c([H])c(OC([H])([H])C([H])([H])[N+]([H])([H])C([H])([H])C([H])([H])C([H])([H])C([H])([H])C([H])([H])C([H])([H])C([H])([H])N([H])C(=O)N3C([H])([H])C([H])([H])C([H])([H])C([H])(n4nc(-c5c([H])c([H])c(Oc6c([H])c([H])c(F)c([H])c6F)c([H])c5[H])c(C(=O)N([H])[H])c4N([H])[H])C3([H])[H])c([H])c([H])c2C1([H])[H]

>  <smiles>  (58) 
[H]c1c([H])c([H])c2c(c1[H])C([H])([H])C([H])([H])C([H])([H])C2([H])N([H])C(=O)C1([H])N(C(=O)C([H])(N([H])C(=O)C([H])(N([H])C([H])([H])[H])C([H])([H])[H])C(C([H])([H])[H])(C([H])([H])[H])C([H])([H])[H])C([H])([H])c2c([H])c(OC([H])([H])C([H])([H])[N+]([H])([H])C([H])([H])C([H])([H])C([H])([H])C([H])([H])C([H])([H])C([H])([H])C([H])([H])N([H])C(=O)N3C([H])([H])C([H])([H])C([H])([H])C([H])(n4nc(-c5c([H])c([H])c(Oc6c([H])c([H])c(F)c([H])c6F)c([H])c5[H])c(C(=O)N([H])[H])c4N([H])[H])C3([H])[H])c([H])c([H])c2C1([H])[H]

$$$$
58:0:0
     RDKit          3D

 92 99  0  0  1  0  0  0  0  0999 V2000
  -25.7110  -23.3370   20.4510 C   0  0  0  0  0  2  0  0  0  0  0  0
  -27.0840  -23.6880   20.0190 N   0  0  0  0  0  4  0  0  0  0  0  0
  -27.0250  -24.0820   19.0950 H   0  0  0  0  0  0  0  0  0  0  0  0
  -27.6330  -22.8460   19.9470 H   0  0  0  0  0  0  0  0  0  0  0  0
  -27.7890  -24.6480   20.8980 C   0  0  0  0  0  2  0  0  0  0  0  0
  -28.6960  -25.5930   20.0790 C   0  0  0  0  0  2  0  0  0  0  0  0
  -28.6180  -26.9290   20.5700 O   0  0  0  0  0  0  0  0  0  0  0  0
  -24.6720  -32.0700   23.4260 C   0  0  0  0  0  0  0  0  0  0  0  0
  -27.4140  -27.6020   20.4960 C   0  0  0  0  0  0  0  0  0  0  0  0
  -23.5160  -30.6500   21.7610 C   0  0  0  0  0  3  0  0  0  0  0  0
  -25.0090  -29.0840   20.4200 C   0  0  0  0  0  0  0  0  0  0  0  0
  -26.0470  -30.9980   21.6500 C   0  0  0  0  0  2  0  0  0  0  0  0
  -26.1460  -29.6200   21.0360 C   0  0  0  0  0  0  0  0  0  0  0  0
  -27.3460  -28.8820   21.0780 C   0  0  0  0  0  3  0  0  0  0  0  0
  -26.2550  -27.0730   19.8740 C   0  0  0  0  0  3  0  0  0  0  0  0
  -25.0550  -27.8050   19.8420 C   0  0  0  0  0  3  0  0  0  0  0  0
  -23.7670  -29.9430   20.4030 C   0  0  0  0  0  2  0  0  0  0  0  0
  -24.7620  -31.2530   22.3380 N   0  0  0  0  0  0  0  0  0  0  0  0
  -23.5730  -32.3600   23.9180 O   0  0  0  0  0  0  0  0  0  0  0  0
  -22.8260  -29.6460   22.7140 C   0  0  0  0  0  0  0  0  0  0  0  0
  -21.5060  -29.4750   22.5440 N   0  0  0  0  0  0  0  0  0  0  0  0
  -23.4770  -29.0260   23.5590 O   0  0  0  0  0  0  0  0  0  0  0  0
  -21.0510  -30.0170   21.8230 H   0  0  0  0  0  0  0  0  0  0  0  0
  -18.1010  -28.3440   22.9580 C   0  0  0  0  0  0  0  0  0  0  0  0
  -20.6520  -28.5590   23.3010 C   0  0  0  0  0  3  0  0  0  0  0  0
  -20.7500  -27.1200   22.7410 C   0  0  0  0  0  2  0  0  0  0  0  0
  -19.6740  -26.8110   21.6960 C   0  0  0  0  0  2  0  0  0  0  0  0
  -18.2750  -26.9860   22.2960 C   0  0  0  0  0  2  0  0  0  0  0  0
  -19.2190  -29.0900   23.4160 C   0  0  0  0  0  0  0  0  0  0  0  0
  -19.0060  -30.3620   23.9930 C   0  0  0  0  0  3  0  0  0  0  0  0
  -17.7070  -30.8890   24.1160 C   0  0  0  0  0  3  0  0  0  0  0  0
  -16.6010  -30.1390   23.6800 C   0  0  0  0  0  3  0  0  0  0  0  0
  -16.7980  -28.8700   23.1070 C   0  0  0  0  0  3  0  0  0  0  0  0
  -25.9400  -32.7020   24.0820 C   0  0  0  0  0  3  0  0  0  0  0  0
  -26.3800  -31.9770   25.4130 C   0  0  1  0  0  0  0  0  0  0  0  0
  -25.2360  -31.7970   26.4360 C   0  0  0  0  0  1  0  0  0  0  0  0
  -26.9630  -30.5780   25.1010 C   0  0  0  0  0  1  0  0  0  0  0  0
  -27.5080  -32.7830   26.1000 C   0  0  0  0  0  1  0  0  0  0  0  0
  -25.6480  -34.1200   24.3360 N   0  0  0  0  0  0  0  0  0  0  0  0
  -26.0360  -35.1270   23.5430 C   0  0  0  0  0  0  0  0  0  0  0  0
  -26.7500  -34.9630   22.5500 O   0  0  0  0  0  0  0  0  0  0  0  0
  -25.0300  -34.3260   25.1070 H   0  0  0  0  0  0  0  0  0  0  0  0
  -24.3590  -36.9290   23.0260 C   0  0  0  0  0  1  0  0  0  0  0  0
  -25.5550  -36.5450   23.9120 C   0  0  0  0  0  3  0  0  0  0  0  0
  -27.6680  -37.4300   24.7940 C   0  0  0  0  0  1  0  0  0  0  0  0
  -26.6120  -37.5720   23.7950 N   0  0  0  0  0  0  0  0  0  0  0  0
  -26.2160  -38.5050   23.8800 H   0  0  0  0  0  0  0  0  0  0  0  0
  -24.9990  -22.4430   19.4190 C   0  0  0  0  0  2  0  0  0  0  0  0
  -25.4460  -20.9720   19.4290 C   0  0  0  0  0  2  0  0  0  0  0  0
  -26.9580  -20.7540   19.2460 C   0  0  0  0  0  2  0  0  0  0  0  0
  -27.3350  -19.2730   19.3100 C   0  0  0  0  0  2  0  0  0  0  0  0
  -28.7990  -19.0520   19.7200 C   0  0  0  0  0  2  0  0  0  0  0  0
  -29.0590  -17.5720   20.0020 C   0  0  0  0  0  2  0  0  0  0  0  0
  -30.4230  -17.2580   20.6400 C   0  0  0  0  0  2  0  0  0  0  0  0
  -31.1150  -14.8750   20.4170 C   0  0  0  0  0  0  0  0  0  0  0  0
  -30.8750  -12.6310   19.4260 C   0  0  0  0  0  2  0  0  0  0  0  0
  -29.9690  -12.7280   18.1790 C   0  0  0  0  0  2  0  0  0  0  0  0
  -28.4770  -12.6360   18.5610 C   0  0  0  0  0  2  0  0  0  0  0  0
  -28.1030  -13.5780   19.7340 C   0  0  0  0  0  3  0  0  0  0  0  0
  -29.1120  -13.4200   20.8960 C   0  0  0  0  0  2  0  0  0  0  0  0
  -30.4670  -13.6810   20.3700 N   0  0  0  0  0  0  0  0  0  0  0  0
  -32.1940  -15.0940   19.8580 O   0  0  0  0  0  0  0  0  0  0  0  0
  -30.4110  -15.8480   21.0070 N   0  0  0  0  0  0  0  0  0  0  0  0
  -29.5890  -15.5350   21.5010 H   0  0  0  0  0  0  0  0  0  0  0  0
  -25.7050  -14.2800   20.3670 C   0  0  0  0  0  0  0  0  0  0  0  0
  -24.6030  -13.5460   20.7190 C   0  0  0  0  0  0  0  0  0  0  0  0
  -25.0190  -12.1780   20.7080 C   0  0  0  0  0  0  0  0  0  0  0  0
  -26.7260  -13.3620   20.1750 N   0  0  0  0  0  0  0  0  0  0  0  0
  -26.3140  -12.0950   20.4300 N   0  0  0  0  0  0  0  0  0  0  0  0
  -24.2510  -10.9400   20.8910 C   0  0  0  0  0  0  0  0  0  0  0  0
  -24.6220   -9.9750   21.8550 C   0  0  0  0  0  3  0  0  0  0  0  0
  -23.8570   -8.8010   22.0240 C   0  0  0  0  0  3  0  0  0  0  0  0
  -22.7070   -8.5840   21.2300 C   0  0  0  0  0  0  0  0  0  0  0  0
  -22.3560   -9.5360   20.2560 C   0  0  0  0  0  3  0  0  0  0  0  0
  -23.1200  -10.7020   20.0850 C   0  0  0  0  0  3  0  0  0  0  0  0
  -21.9220   -7.4590   21.3030 O   0  0  0  0  0  0  0  0  0  0  0  0
  -21.7900   -6.7490   22.4700 C   0  0  0  0  0  0  0  0  0  0  0  0
  -21.3220   -7.3500   23.6570 C   0  0  0  0  0  3  0  0  0  0  0  0
  -21.1350   -6.5700   24.8150 C   0  0  0  0  0  3  0  0  0  0  0  0
  -21.4050   -5.1890   24.7870 C   0  0  0  0  0  0  0  0  0  0  0  0
  -21.8640   -4.5860   23.6020 C   0  0  0  0  0  3  0  0  0  0  0  0
  -22.0530   -5.3640   22.4460 C   0  0  0  0  0  0  0  0  0  0  0  0
  -22.4770   -4.7750   21.3020 F   0  0  0  0  0  0  0  0  0  0  0  0
  -21.2190   -4.4360   25.8960 F   0  0  0  0  0  0  0  0  0  0  0  0
  -23.2180  -14.0700   20.9580 C   0  0  0  0  0  0  0  0  0  0  0  0
  -22.4550  -13.4130   21.8230 N   0  0  0  0  0  0  0  0  0  0  0  0
  -22.8200  -15.0980   20.4100 O   0  0  0  0  0  0  0  0  0  0  0  0
  -22.7850  -12.5730   22.2770 H   0  0  0  0  0  0  0  0  0  0  0  0
  -21.5250  -13.7520   22.0260 H   0  0  0  0  0  0  0  0  0  0  0  0
  -25.9210  -15.6390   20.1770 N   0  0  0  0  0  0  0  0  0  0  0  0
  -25.1660  -16.3140   20.2110 H   0  0  0  0  0  0  0  0  0  0  0  0
  -26.7860  -16.0360   19.8310 H   0  0  0  0  0  0  0  0  0  0  0  0
  2  1  1  0
  2  5  1  0
  3  2  1  0
  4  2  1  0
  6  7  1  0
  6  5  1  0
  8 19  2  0
  9  7  1  0
  9 14  1  0
 10 18  1  0
 10 20  1  0
 11 13  1  0
 12 18  1  0
 13 14  2  0
 13 12  1  0
 15  9  2  0
 16 15  1  0
 16 11  2  0
 17 11  1  0
 17 10  1  0
 18  8  1  0
 20 22  2  0
 21 20  1  0
 23 21  1  0
 24 33  2  0
 24 29  1  0
 25 21  1  0
 25 29  1  0
 26 25  1  0
 27 28  1  0
 27 26  1  0
 28 24  1  0
 29 30  2  0
 30 31  1  0
 32 31  2  0
 33 32  1  0
 34  8  1  0
 34 39  1  0
 34 35  1  0
 35 38  1  1
 35 36  1  0
 37 35  1  0
 39 42  1  0
 40 44  1  0
 40 39  1  0
 41 40  2  0
 44 43  1  0
 46 47  1  0
 46 44  1  0
 46 45  1  0
 48 49  1  0
 48  1  1  0
 50 51  1  0
 50 49  1  0
 51 52  1  0
 52 53  1  0
 53 54  1  0
 54 63  1  0
 55 63  1  0
 56 61  1  0
 57 58  1  0
 57 56  1  0
 59 58  1  0
 59 68  1  0
 59 60  1  0
 61 55  1  0
 61 60  1  0
 62 55  2  0
 63 64  1  0
 65 66  2  0
 66 85  1  0
 67 66  1  0
 67 70  1  0
 68 65  1  0
 68 69  1  0
 69 67  2  0
 70 71  1  0
 71 72  2  0
 73 76  1  0
 73 72  1  0
 74 73  2  0
 75 74  1  0
 75 70  2  0
 76 77  1  0
 77 78  1  0
 78 79  2  0
 80 79  1  0
 80 84  1  0
 81 80  2  0
 82 77  2  0
 82 81  1  0
 83 82  1  0
 85 86  1  0
 86 89  1  0
 86 88  1  0
 87 85  2  0
 90 91  1  0
 90 65  1  0
 92 90  1  0
M  ISO  4   6 101   7 101  55 100  63 100
M  END
>  <TORSDO>  (59) 
F 26

>  <SCORE>  (59) 
-10.190

>  <name>  (59) 
58

>  <ligand_id>  (59) 
58

>  <original_smiles>  (59) 
[H]c1c([H])c([H])c2c(c1[H])C([H])([H])C([H])([H])C([H])([H])C2([H])N([H])C(=O)C1([H])N(C(=O)C([H])(N([H])C(=O)C([H])(N([H])C([H])([H])[H])C([H])([H])[H])C(C([H])([H])[H])(C([H])([H])[H])C([H])([H])[H])C([H])([H])c2c([H])c(OC([H])([H])C([H])([H])[N+]([H])([H])C([H])([H])C([H])([H])C([H])([H])C([H])([H])C([H])([H])C([H])([H])C([H])([H])C([H])([H])N([H])C(=O)N3C([H])([H])C([H])([H])C([H])([H])C([H])(n4nc(-c5c([H])c([H])c(Oc6c([H])c([H])c(F)c([H])c6F)c([H])c5[H])c(C(=O)N([H])[H])c4N([H])[H])C3([H])[H])c([H])c([H])c2C1([H])[H]

>  <smiles>  (59) 
[H]c1c([H])c([H])c2c(c1[H])C([H])([H])C([H])([H])C([H])([H])C2([H])N([H])C(=O)C1([H])N(C(=O)C([H])(N([H])C(=O)C([H])(N([H])C([H])([H])[H])C([H])([H])[H])C(C([H])([H])[H])(C([H])([H])[H])C([H])([H])[H])C([H])([H])c2c([H])c(OC([H])([H])C([H])([H])[N+]([H])([H])C([H])([H])C([H])([H])C([H])([H])C([H])([H])C([H])([H])C([H])([H])C([H])([H])C([H])([H])N([H])C(=O)N3C([H])([H])C([H])([H])C([H])([H])C([H])(n4nc(-c5c([H])c([H])c(Oc6c([H])c([H])c(F)c([H])c6F)c([H])c5[H])c(C(=O)N([H])[H])c4N([H])[H])C3([H])[H])c([H])c([H])c2C1([H])[H]

$$$$
59:0:0
     RDKit          3D

 94101  0  0  1  0  0  0  0  0999 V2000
  -26.3930  -24.5200   20.7250 N   0  0  0  0  0  4  0  0  0  0  0  0
  -26.1680  -24.5970   21.7030 H   0  0  0  0  0  0  0  0  0  0  0  0
  -26.0450  -25.3600   20.2870 H   0  0  0  0  0  0  0  0  0  0  0  0
  -25.5860  -23.3930   20.1740 C   0  0  0  0  0  2  0  0  0  0  0  0
  -25.9810  -21.9860   20.6670 C   0  0  0  0  0  2  0  0  0  0  0  0
  -27.0250  -21.2960   19.7750 C   0  0  0  0  0  2  0  0  0  0  0  0
  -27.3800  -19.8740   20.2280 C   0  0  0  0  0  2  0  0  0  0  0  0
  -28.7070  -19.4010   19.6160 C   0  0  0  0  0  2  0  0  0  0  0  0
  -29.2800  -18.1550   20.3120 C   0  0  0  0  0  2  0  0  0  0  0  0
  -30.7890  -17.9950   20.0620 C   0  0  0  0  0  2  0  0  0  0  0  0
  -31.4690  -17.0390   21.0560 C   0  0  0  0  0  2  0  0  0  0  0  0
  -31.5110  -14.6920   20.2420 C   0  0  0  0  0  0  0  0  0  0  0  0
  -31.1460  -12.4560   19.2780 C   0  0  0  0  0  2  0  0  0  0  0  0
  -30.2380  -12.5650   18.0380 C   0  0  0  0  0  2  0  0  0  0  0  0
  -28.7500  -12.5350   18.4380 C   0  0  0  0  0  2  0  0  0  0  0  0
  -28.4200  -13.5230   19.5890 C   0  0  0  0  0  3  0  0  0  0  0  0
  -29.4310  -13.3620   20.7450 C   0  0  0  0  0  2  0  0  0  0  0  0
  -30.7870  -13.5460   20.1950 N   0  0  0  0  0  0  0  0  0  0  0  0
  -32.5890  -14.8440   19.6570 O   0  0  0  0  0  0  0  0  0  0  0  0
  -30.9460  -15.6840   20.9390 N   0  0  0  0  0  0  0  0  0  0  0  0
  -30.0630  -15.4820   21.3850 H   0  0  0  0  0  0  0  0  0  0  0  0
  -26.0650  -14.3250   20.2600 C   0  0  0  0  0  0  0  0  0  0  0  0
  -24.9360  -13.6420   20.6220 C   0  0  0  0  0  0  0  0  0  0  0  0
  -25.2890  -12.2580   20.6020 C   0  0  0  0  0  0  0  0  0  0  0  0
  -27.0430  -13.3630   20.0490 N   0  0  0  0  0  0  0  0  0  0  0  0
  -26.5750  -12.1150   20.3070 N   0  0  0  0  0  0  0  0  0  0  0  0
  -24.4650  -11.0580   20.7920 C   0  0  0  0  0  0  0  0  0  0  0  0
  -24.8000  -10.0770   21.7520 C   0  0  0  0  0  3  0  0  0  0  0  0
  -23.9820   -8.9410   21.9290 C   0  0  0  0  0  3  0  0  0  0  0  0
  -22.8150   -8.7770   21.1450 C   0  0  0  0  0  0  0  0  0  0  0  0
  -22.4990   -9.7450   20.1750 C   0  0  0  0  0  3  0  0  0  0  0  0
  -23.3170  -10.8730   19.9960 C   0  0  0  0  0  3  0  0  0  0  0  0
  -21.9750   -7.6940   21.2290 O   0  0  0  0  0  0  0  0  0  0  0  0
  -21.8150   -6.9960   22.3990 C   0  0  0  0  0  0  0  0  0  0  0  0
  -21.3870   -7.6240   23.5890 C   0  0  0  0  0  3  0  0  0  0  0  0
  -21.1690   -6.8560   24.7500 C   0  0  0  0  0  3  0  0  0  0  0  0
  -21.3690   -5.4640   24.7230 C   0  0  0  0  0  0  0  0  0  0  0  0
  -21.7900   -4.8350   23.5380 C   0  0  0  0  0  3  0  0  0  0  0  0
  -22.0100   -5.5990   22.3790 C   0  0  0  0  0  0  0  0  0  0  0  0
  -22.3950   -4.9870   21.2330 F   0  0  0  0  0  0  0  0  0  0  0  0
  -21.1520   -4.7250   25.8360 F   0  0  0  0  0  0  0  0  0  0  0  0
  -23.5770  -14.2280   20.8790 C   0  0  0  0  0  0  0  0  0  0  0  0
  -22.7960  -13.6030   21.7510 N   0  0  0  0  0  0  0  0  0  0  0  0
  -23.2220  -15.2780   20.3430 O   0  0  0  0  0  0  0  0  0  0  0  0
  -23.0980  -12.7540   22.2070 H   0  0  0  0  0  0  0  0  0  0  0  0
  -21.8810  -13.9740   21.9640 H   0  0  0  0  0  0  0  0  0  0  0  0
  -26.3400  -15.6780   20.0800 N   0  0  0  0  0  0  0  0  0  0  0  0
  -25.6270  -16.3920   20.1870 H   0  0  0  0  0  0  0  0  0  0  0  0
  -27.2330  -16.0490   19.7800 H   0  0  0  0  0  0  0  0  0  0  0  0
  -27.8850  -24.5430   20.5940 C   0  0  0  0  0  3  0  0  0  0  0  0
  -28.3710  -24.3870   19.1380 C   0  0  0  0  0  3  0  0  0  0  0  0
  -27.6420  -24.2780   18.1490 O   0  0  0  0  0  0  0  0  0  0  0  0
  -28.5040  -25.8330   21.2050 C   0  0  0  0  0  2  0  0  0  0  0  0
  -28.5050  -26.9910   20.3510 O   0  0  0  0  0  0  0  0  0  0  0  0
  -24.7020  -32.0460   23.6100 C   0  0  0  0  0  0  0  0  0  0  0  0
  -27.3630  -27.7520   20.3700 C   0  0  0  0  0  0  0  0  0  0  0  0
  -23.5270  -30.7570   21.8570 C   0  0  0  0  0  3  0  0  0  0  0  0
  -25.0000  -29.2870   20.3940 C   0  0  0  0  0  0  0  0  0  0  0  0
  -26.0590  -31.0850   21.7590 C   0  0  0  0  0  2  0  0  0  0  0  0
  -26.1410  -29.7470   21.0620 C   0  0  0  0  0  0  0  0  0  0  0  0
  -27.3260  -28.9800   21.0600 C   0  0  0  0  0  3  0  0  0  0  0  0
  -26.2240  -27.3360   19.6450 C   0  0  0  0  0  3  0  0  0  0  0  0
  -25.0360  -28.0800   19.6810 C   0  0  0  0  0  3  0  0  0  0  0  0
  -23.7680  -30.1580   20.4460 C   0  0  0  0  0  2  0  0  0  0  0  0
  -24.7790  -31.3080   22.4690 N   0  0  0  0  0  0  0  0  0  0  0  0
  -23.6100  -32.3070   24.1310 O   0  0  0  0  0  0  0  0  0  0  0  0
  -22.8340  -29.6930   22.7370 C   0  0  0  0  0  0  0  0  0  0  0  0
  -21.5130  -29.5390   22.5540 N   0  0  0  0  0  0  0  0  0  0  0  0
  -23.4810  -29.0110   23.5370 O   0  0  0  0  0  0  0  0  0  0  0  0
  -21.0560  -30.1410   21.8820 H   0  0  0  0  0  0  0  0  0  0  0  0
  -18.1080  -28.3630   22.8560 C   0  0  0  0  0  0  0  0  0  0  0  0
  -20.6530  -28.5760   23.2410 C   0  0  0  0  0  3  0  0  0  0  0  0
  -20.7680  -27.1740   22.6020 C   0  0  0  0  0  2  0  0  0  0  0  0
  -19.6990  -26.9000   21.5370 C   0  0  0  0  0  2  0  0  0  0  0  0
  -18.2940  -27.0400   22.1320 C   0  0  0  0  0  2  0  0  0  0  0  0
  -19.2160  -29.0910   23.3630 C   0  0  0  0  0  0  0  0  0  0  0  0
  -18.9870  -30.3310   23.9980 C   0  0  0  0  0  3  0  0  0  0  0  0
  -17.6820  -30.8420   24.1330 C   0  0  0  0  0  3  0  0  0  0  0  0
  -16.5860  -30.1090   23.6440 C   0  0  0  0  0  3  0  0  0  0  0  0
  -16.8010  -28.8710   23.0120 C   0  0  0  0  0  3  0  0  0  0  0  0
  -25.9790  -32.6160   24.3010 C   0  0  0  0  0  3  0  0  0  0  0  0
  -26.4040  -31.8090   25.5880 C   0  0  1  0  0  0  0  0  0  0  0  0
  -25.2490  -31.5800   26.5900 C   0  0  0  0  0  1  0  0  0  0  0  0
  -26.9710  -30.4240   25.1950 C   0  0  0  0  0  1  0  0  0  0  0  0
  -27.5380  -32.5580   26.3260 C   0  0  0  0  0  1  0  0  0  0  0  0
  -25.7120  -34.0220   24.6320 N   0  0  0  0  0  0  0  0  0  0  0  0
  -26.1200  -35.0660   23.8980 C   0  0  0  0  0  0  0  0  0  0  0  0
  -26.8360  -34.9450   22.9000 O   0  0  0  0  0  0  0  0  0  0  0  0
  -25.0850  -34.1930   25.4040 H   0  0  0  0  0  0  0  0  0  0  0  0
  -24.4740  -36.9200   23.4760 C   0  0  0  0  0  1  0  0  0  0  0  0
  -25.6610  -36.4680   24.3420 C   0  0  0  0  0  3  0  0  0  0  0  0
  -27.7860  -37.2670   25.2770 C   0  0  0  0  0  1  0  0  0  0  0  0
  -26.7360  -37.4830   24.2860 N   0  0  0  0  0  0  0  0  0  0  0  0
  -26.3560  -38.4160   24.4240 H   0  0  0  0  0  0  0  0  0  0  0  0
  1  2  1  0
  3  1  1  0
  4  5  1  0
  4  1  1  0
  6  7  1  0
  6  5  1  0
  8  7  1  0
  8  9  1  0
 10  9  1  0
 10 11  1  0
 12 20  1  0
 13 18  1  0
 14 15  1  0
 14 13  1  0
 16 15  1  0
 16 25  1  0
 16 17  1  0
 18 12  1  0
 18 17  1  0
 19 12  2  0
 20 11  1  0
 20 21  1  0
 22 23  2  0
 23 42  1  0
 24 23  1  0
 24 27  1  0
 25 22  1  0
 25 26  1  0
 26 24  2  0
 27 28  1  0
 28 29  2  0
 30 33  1  0
 30 29  1  0
 31 30  2  0
 32 31  1  0
 32 27  2  0
 33 34  1  0
 34 35  1  0
 35 36  2  0
 37 36  1  0
 37 41  1  0
 38 37  2  0
 39 34  2  0
 39 38  1  0
 40 39  1  0
 42 43  1  0
 43 46  1  0
 43 45  1  0
 44 42  2  0
 47 48  1  0
 47 22  1  0
 49 47  1  0
 50 51  1  0
 50  1  1  0
 50 53  1  0
 52 51  2  0
 54 56  1  0
 54 53  1  0
 55 66  2  0
 56 61  1  0
 57 65  1  0
 57 67  1  0
 58 64  1  0
 58 60  1  0
 59 65  1  0
 60 59  1  0
 61 60  2  0
 62 63  1  0
 62 56  2  0
 63 58  2  0
 64 57  1  0
 65 55  1  0
 67 69  2  0
 68 67  1  0
 70 68  1  0
 71 80  2  0
 71 76  1  0
 72 68  1  0
 72 76  1  0
 73 72  1  0
 74 75  1  0
 74 73  1  0
 75 71  1  0
 76 77  2  0
 77 78  1  0
 79 78  2  0
 80 79  1  0
 81 55  1  0
 81 86  1  0
 81 82  1  0
 82 85  1  1
 82 83  1  0
 84 82  1  0
 86 89  1  0
 87 91  1  0
 87 86  1  0
 88 87  2  0
 91 90  1  0
 93 91  1  0
 93 94  1  0
 93 92  1  0
M  ISO  4  12 100  20 100  53 101  54 101
M  END
>  <TORSDO>  (60) 
F 27

>  <SCORE>  (60) 
-9.166

>  <name>  (60) 
59

>  <ligand_id>  (60) 
59

>  <original_smiles>  (60) 
[H]C(=O)C([H])(C([H])([H])Oc1c([H])c([H])c2c(c1[H])C([H])([H])N(C(=O)C([H])(N([H])C(=O)C([H])(N([H])C([H])([H])[H])C([H])([H])[H])C(C([H])([H])[H])(C([H])([H])[H])C([H])([H])[H])C([H])(C(=O)N([H])C1([H])c3c([H])c([H])c([H])c([H])c3C([H])([H])C([H])([H])C1([H])[H])C2([H])[H])[N+]([H])([H])C([H])([H])C([H])([H])C([H])([H])C([H])([H])C([H])([H])C([H])([H])C([H])([H])C([H])([H])N([H])C(=O)N1C([H])([H])C([H])([H])C([H])([H])C([H])(n2nc(-c3c([H])c([H])c(Oc4c([H])c([H])c(F)c([H])c4F)c([H])c3[H])c(C(=O)N([H])[H])c2N([H])[H])C1([H])[H]

>  <smiles>  (60) 
[H]C(=O)C([H])(C([H])([H])Oc1c([H])c([H])c2c(c1[H])C([H])([H])N(C(=O)C([H])(N([H])C(=O)C([H])(N([H])C([H])([H])[H])C([H])([H])[H])C(C([H])([H])[H])(C([H])([H])[H])C([H])([H])[H])C([H])(C(=O)N([H])C1([H])c3c([H])c([H])c([H])c([H])c3C([H])([H])C([H])([H])C1([H])[H])C2([H])[H])[N+]([H])([H])C([H])([H])C([H])([H])C([H])([H])C([H])([H])C([H])([H])C([H])([H])C([H])([H])C([H])([H])N([H])C(=O)N1C([H])([H])C([H])([H])C([H])([H])C([H])(n2nc(-c3c([H])c([H])c(Oc4c([H])c([H])c(F)c([H])c4F)c([H])c3[H])c(C(=O)N([H])[H])c2N([H])[H])C1([H])[H]

$$$$
60:0:0
     RDKit          3D

 94 95  0  0  1  0  0  0  0  0999 V2000
  -24.8220  -16.1980   22.5110 C   0  0  0  0  0 15  0  0  0  0  0  0
  -26.7230  -15.3820   22.2240 C   0  0  0  0  0 15  0  0  0  0  0  0
  -24.3140  -17.7820   21.3370 C   0  0  0  0  0 15  0  0  0  0  0  0
  -26.7640  -17.7730   19.6530 C   0  0  0  0  0  2  0  0  0  0  0  0
  -27.5850  -16.2510   20.4950 C   0  0  0  0  0  2  0  0  0  0  0  0
  -25.5220  -19.0180   20.3380 C   0  0  0  0  0  1  0  0  0  0  0  0
  -29.0890  -16.5710   20.4020 C   0  0  0  0  0  2  0  0  0  0  0  0
  -29.9400  -17.2100   19.1890 C   0  0  0  0  0  2  0  0  0  0  0  0
  -30.0410  -16.6520   17.7340 C   0  0  0  0  0  2  0  0  0  0  0  0
  -31.5470  -17.5510   15.9430 C   0  0  0  0  0  1  0  0  0  0  0  0
  -31.4420  -16.7400   17.1920 N   0  0  2  0  0  4  0  0  0  0  0  0
  -31.9660  -17.2810   17.8670 H   0  0  0  0  0  0  0  0  0  0  0  0
  -32.1810  -15.4450   17.0290 C   0  0  0  0  0  2  0  0  0  0  0  0
  -32.6380  -14.7420   18.3390 C   0  0  0  0  0  2  0  0  0  0  0  0
  -31.0410  -13.9880   20.1250 C   0  0  0  0  0  0  0  0  0  0  0  0
  -30.0540  -11.8710   19.5030 C   0  0  0  0  0  2  0  0  0  0  0  0
  -29.2350  -12.2000   18.2350 C   0  0  0  0  0  2  0  0  0  0  0  0
  -27.7930  -12.4170   18.7010 C   0  0  0  0  0  2  0  0  0  0  0  0
  -27.6580  -13.6110   19.7300 C   0  0  0  0  0  3  0  0  0  0  0  0
  -28.6880  -13.3020   20.9110 C   0  0  0  0  0  2  0  0  0  0  0  0
  -30.0290  -13.0960   20.3070 N   0  0  0  0  0  0  0  0  0  0  0  0
  -31.4590  -14.8640   20.8430 O   0  0  0  0  0  0  0  0  0  0  0  0
  -31.6220  -13.8780   18.9270 N   0  0  0  0  0  0  0  0  0  0  0  0
  -31.2890  -13.0870   18.3980 H   0  0  0  0  0  0  0  0  0  0  0  0
  -25.3920  -15.4300   20.4460 C   0  0  0  0  0  3  0  0  0  0  0  0
  -24.3720  -14.1390   20.7690 C   0  0  0  0  0  0  0  0  0  0  0  0
  -24.6420  -12.5810   20.7540 C   0  0  0  0  0  0  0  0  0  0  0  0
  -26.2150  -13.9900   20.1240 N   0  0  0  0  0  0  0  0  0  0  0  0
  -25.8440  -12.6440   20.4270 N   0  0  0  0  0  0  0  0  0  0  0  0
  -23.9480  -11.0380   20.9710 C   0  0  0  0  0  0  0  0  0  0  0  0
  -24.4090   -9.9290   21.8220 C   0  0  0  0  0  3  0  0  0  0  0  0
  -23.7560   -8.6330   22.0190 C   0  0  0  0  0  3  0  0  0  0  0  0
  -22.5510   -8.2830   21.3530 C   0  0  0  0  0  0  0  0  0  0  0  0
  -22.1070   -9.2880   20.4610 C   0  0  0  0  0  3  0  0  0  0  0  0
  -22.7640  -10.5670   20.2890 C   0  0  0  0  0  3  0  0  0  0  0  0
  -21.8530   -7.0560   21.4190 O   0  0  0  0  0  0  0  0  0  0  0  0
  -21.8020   -6.1860   22.5070 C   0  0  0  0  0  0  0  0  0  0  0  0
  -21.4890   -6.6350   23.8120 C   0  0  0  0  0  3  0  0  0  0  0  0
  -21.3940   -5.7270   24.8930 C   0  0  0  0  0  3  0  0  0  0  0  0
  -21.6020   -4.3510   24.6870 C   0  0  0  0  0  0  0  0  0  0  0  0
  -21.8710   -3.8790   23.3930 C   0  0  0  0  0  3  0  0  0  0  0  0
  -21.9550   -4.7810   22.3110 C   0  0  0  0  0  0  0  0  0  0  0  0
  -22.1790   -4.2840   21.0710 F   0  0  0  0  0  0  0  0  0  0  0  0
  -21.5380   -3.4870   25.7300 F   0  0  0  0  0  0  0  0  0  0  0  0
  -22.8880  -14.1540   21.1100 C   0  0  0  0  0  0  0  0  0  0  0  0
  -22.3300  -13.2810   21.9820 N   0  0  0  0  0  0  0  0  0  0  0  0
  -22.1700  -14.9300   20.5230 O   0  0  0  0  0  0  0  0  0  0  0  0
  -22.8870  -12.6160   22.5040 H   0  0  0  0  0  0  0  0  0  0  0  0
  -21.3350  -13.3160   22.1300 H   0  0  0  0  0  0  0  0  0  0  0  0
  -26.4460  -17.4960   21.8730 N   0  0  0  0  0  2  0  0  0  0  0  0
  -25.6080  -18.0610   21.9980 H   0  0  0  0  0  0  0  0  0  0  0  0
  -26.6410  -17.0740   22.7690 H   0  0  0  0  0  0  0  0  0  0  0  0
  -25.6660  -21.4730   20.2720 C   0  0  0  0  0 15  0  0  0  0  0  0
  -26.5490  -23.6450   20.3890 O   0  0  0  0  0  1  0  0  0  0  0  0
  -24.7600  -31.6770   23.0890 C   0  0  0  0  0  0  0  0  0  0  0  0
  -26.3220  -25.4790   20.3240 C   0  0  0  0  0  0  0  0  0  0  0  0
  -23.5690  -30.3030   21.4660 C   0  0  0  0  0  3  0  0  0  0  0  0
  -24.8620  -28.4330   20.0790 C   0  0  0  0  0  0  0  0  0  0  0  0
  -26.1250  -29.9420   21.5470 C   0  0  0  0  0  2  0  0  0  0  0  0
  -25.9910  -28.4100   20.8850 C   0  0  0  0  0  0  0  0  0  0  0  0
  -26.7090  -26.9850   20.9550 C   0  0  0  0  0  3  0  0  0  0  0  0
  -25.4160  -26.0330   19.3570 C   0  0  0  0  0  3  0  0  0  0  0  0
  -24.7200  -27.3020   19.2620 C   0  0  0  0  0  3  0  0  0  0  0  0
  -23.8270  -29.5980   20.0970 C   0  0  0  0  0  2  0  0  0  0  0  0
  -24.8720  -30.7120   22.0760 N   0  0  0  0  0  0  0  0  0  0  0  0
  -23.6540  -32.0480   23.5320 O   0  0  0  0  0  0  0  0  0  0  0  0
  -22.7830  -29.3830   22.4390 C   0  0  0  0  0  0  0  0  0  0  0  0
  -21.4450  -29.2950   22.3210 N   0  0  0  0  0  0  0  0  0  0  0  0
  -23.4040  -28.7560   23.3000 O   0  0  0  0  0  0  0  0  0  0  0  0
  -20.9870  -29.8620   21.6210 H   0  0  0  0  0  0  0  0  0  0  0  0
  -18.0280  -28.1470   22.8360 C   0  0  0  0  0  0  0  0  0  0  0  0
  -20.5910  -28.3840   23.0980 C   0  0  0  0  0  3  0  0  0  0  0  0
  -20.6710  -26.9430   22.5410 C   0  0  0  0  0  2  0  0  0  0  0  0
  -19.5730  -26.6330   21.5180 C   0  0  0  0  0  2  0  0  0  0  0  0
  -18.1920  -26.7980   22.1560 C   0  0  0  0  0  2  0  0  0  0  0  0
  -19.1570  -28.8980   23.2630 C   0  0  0  0  0  0  0  0  0  0  0  0
  -18.9480  -30.1540   23.8720 C   0  0  0  0  0  3  0  0  0  0  0  0
  -17.6490  -30.6630   24.0530 C   0  0  0  0  0  3  0  0  0  0  0  0
  -16.5360  -29.9110   23.6390 C   0  0  0  0  0  3  0  0  0  0  0  0
  -16.7260  -28.6550   23.0350 C   0  0  0  0  0  3  0  0  0  0  0  0
  -25.9860  -32.3830   23.7570 C   0  0  0  0  0  3  0  0  0  0  0  0
  -25.6100  -33.7760   24.1320 N   0  0  0  0  0  0  0  0  0  0  0  0
  -25.9240  -34.8960   23.4640 C   0  0  0  0  0  0  0  0  0  0  0  0
  -26.6000  -34.8770   22.4360 O   0  0  0  0  0  0  0  0  0  0  0  0
  -24.9910  -33.8650   24.9250 H   0  0  0  0  0  0  0  0  0  0  0  0
  -24.1480  -36.6950   23.2650 C   0  0  0  0  0  1  0  0  0  0  0  0
  -25.4170  -36.2530   24.0150 C   0  0  0  0  0  3  0  0  0  0  0  0
  -27.5560  -37.1560   24.8400 C   0  0  0  0  0  1  0  0  0  0  0  0
  -26.4170  -37.3460   23.9480 N   0  0  0  0  0  0  0  0  0  0  0  0
  -25.9820  -38.2380   24.1720 H   0  0  0  0  0  0  0  0  0  0  0  0
  -26.4810  -31.6410   25.0610 C   0  0  1  0  0  0  0  0  0  0  0  0
  -25.3630  -31.4080   26.1050 C   0  0  0  0  0  1  0  0  0  0  0  0
  -27.0970  -30.2690   24.7310 C   0  0  0  0  0  1  0  0  0  0  0  0
  -27.6010  -32.4650   25.7490 C   0  0  0  0  0  1  0  0  0  0  0  0
  4  6  1  0
  4  5  1  0
  7  5  1  0
  8  7  1  0
  9  8  1  0
 10 11  1  0
 11  9  1  0
 11 12  1  1
 13 11  1  0
 13 14  1  0
 14 23  1  0
 15 21  1  0
 15 22  2  0
 16 21  1  0
 17 18  1  0
 17 16  1  0
 19 18  1  0
 19 28  1  0
 19 20  1  0
 21 20  1  0
 23 15  1  0
 24 23  1  0
 25 26  2  0
 26 45  1  0
 27 26  1  0
 27 30  1  0
 28 29  1  0
 28 25  1  0
 29 27  2  0
 30 31  1  0
 31 32  2  0
 33 36  1  0
 33 32  1  0
 34 33  2  0
 35 34  1  0
 35 30  2  0
 36 37  1  0
 37 38  1  0
 38 39  2  0
 40 39  1  0
 40 44  1  0
 41 40  2  0
 42 37  2  0
 42 41  1  0
 43 42  1  0
 45 46  1  0
 46 49  1  0
 46 48  1  0
 47 45  2  0
 50 51  1  0
 50 52  1  0
 55 66  2  0
 56 54  1  0
 56 61  1  0
 57 65  1  0
 57 67  1  0
 58 64  1  0
 58 60  1  0
 59 65  1  0
 60 61  2  0
 60 59  1  0
 62 56  2  0
 63 62  1  0
 63 58  2  0
 64 57  1  0
 65 55  1  0
 67 69  2  0
 68 67  1  0
 70 68  1  0
 71 80  2  0
 71 76  1  0
 72 68  1  0
 72 76  1  0
 73 72  1  0
 74 75  1  0
 74 73  1  0
 75 71  1  0
 76 77  2  0
 77 78  1  0
 79 78  2  0
 80 79  1  0
 81 55  1  0
 81 82  1  0
 81 91  1  0
 82 85  1  0
 83 87  1  0
 83 82  1  0
 84 83  2  0
 87 86  1  0
 89 87  1  0
 89 90  1  0
 89 88  1  0
 91 94  1  1
 91 92  1  0
 93 91  1  0
M  ISO  4  15 100  23 100  53 101  54 101
M  END
>  <TORSDO>  (61) 
F 23

>  <SCORE>  (61) 
5.398

>  <name>  (61) 
60

>  <ligand_id>  (61) 
60

>  <original_smiles>  (61) 
[H]c1c([H])c([H])c2c(c1[H])C([H])([H])C([H])([H])C([H])([H])C2([H])N([H])C(=O)C1([H])N(C(=O)C([H])(N([H])C(=O)C([H])(N([H])C([H])([H])[H])C([H])([H])[H])C(C([H])([H])[H])(C([H])([H])[H])C([H])([H])[H])C([H])([H])c2c([H])c(OC([H])([H])c3c([H])c([H])c([H])c(C([H])([H])C([H])([H])C([H])([H])[N+]([H])(C([H])([H])[H])C([H])([H])C([H])([H])N([H])C(=O)N4C([H])([H])C([H])([H])C([H])([H])C([H])(n5nc(-c6c([H])c([H])c(Oc7c([H])c([H])c(F)c([H])c7F)c([H])c6[H])c(C(=O)N([H])[H])c5N([H])[H])C4([H])[H])c3[H])c([H])c([H])c2C1([H])[H]

>  <smiles>  (61) 
[H]c1c([H])c([H])c2c(c1[H])C([H])([H])C([H])([H])C([H])([H])C2([H])N([H])C(=O)C1([H])N(C(=O)C([H])(N([H])C(=O)C([H])(N([H])C([H])([H])[H])C([H])([H])[H])C(C([H])([H])[H])(C([H])([H])[H])C([H])([H])[H])C([H])([H])c2c([H])c(OC([H])([H])c3c([H])c([H])c([H])c(C([H])([H])C([H])([H])C([H])([H])[N+]([H])(C([H])([H])[H])C([H])([H])C([H])([H])N([H])C(=O)N4C([H])([H])C([H])([H])C([H])([H])C([H])(n5nc(-c6c([H])c([H])c(Oc7c([H])c([H])c(F)c([H])c7F)c([H])c6[H])c(C(=O)N([H])[H])c5N([H])[H])C4([H])[H])c3[H])c([H])c([H])c2C1([H])[H]

$$$$
61:0:0
     RDKit          3D

108116  0  0  1  0  0  0  0  0999 V2000
  -35.2390  -19.8450   18.4480 C   0  0  0  0  0  2  0  0  0  0  0  0
  -34.6480  -19.6010   17.0480 C   0  0  0  0  0  2  0  0  0  0  0  0
  -34.9230  -20.7360   16.0480 C   0  0  0  0  0  2  0  0  0  0  0  0
  -34.7080  -20.2750   14.6000 C   0  0  0  0  0  2  0  0  0  0  0  0
  -35.0750  -21.3460   13.5570 C   0  0  0  0  0  2  0  0  0  0  0  0
  -33.3150  -21.1360   11.7610 C   0  0  0  0  0  3  0  0  0  0  0  0
  -34.5820  -20.9400   12.1810 C   0  0  0  0  0  0  0  0  0  0  0  0
  -32.7560  -20.6900   10.4760 C   0  0  0  0  0  0  0  0  0  0  0  0
  -33.4420  -20.2200    9.5630 O   0  0  0  0  0  0  0  0  0  0  0  0
  -31.2340  -20.7630   10.3120 C   0  0  0  0  0  2  0  0  0  0  0  0
  -30.4820  -19.7070   11.1560 C   0  0  0  0  0  2  0  0  0  0  0  0
  -30.5510  -19.8920   12.6890 C   0  0  0  0  0  2  0  0  0  0  0  0
  -29.7080  -21.0630   13.2280 C   0  0  0  0  0  2  0  0  0  0  0  0
  -30.1250  -21.5360   14.6350 C   0  0  0  0  0  2  0  0  0  0  0  0
  -29.0380  -22.3970   15.2960 C   0  0  0  0  0  2  0  0  0  0  0  0
  -29.4590  -23.0270   16.6440 C   0  0  0  0  0  2  0  0  0  0  0  0
  -28.3910  -22.9910   17.7660 C   0  0  0  0  0  2  0  0  0  0  0  0
  -28.0370  -21.5530   18.1830 C   0  0  0  0  0  0  0  0  0  0  0  0
  -26.2540  -19.8760   18.0430 C   0  0  0  0  0  2  0  0  0  0  0  0
  -25.5810  -19.9820   16.6600 C   0  0  0  0  0  2  0  0  0  0  0  0
  -24.4840  -21.0680   16.6490 C   0  0  0  0  0  2  0  0  0  0  0  0
  -24.9280  -22.4070   17.2970 C   0  0  0  0  0  3  0  0  0  0  0  0
  -25.6360  -22.1510   18.6480 C   0  0  0  0  0  2  0  0  0  0  0  0
  -26.7410  -21.2110   18.4110 N   0  0  0  0  0  0  0  0  0  0  0  0
  -28.9410  -20.7170   18.1120 O   0  0  0  0  0  0  0  0  0  0  0  0
  -23.5960  -24.5610   16.8220 C   0  0  0  0  0  0  0  0  0  0  0  0
  -22.3590  -24.9770   17.2300 C   0  0  0  0  0  0  0  0  0  0  0  0
  -21.8580  -23.9480   18.0860 C   0  0  0  0  0  0  0  0  0  0  0  0
  -23.8070  -23.3340   17.4340 N   0  0  0  0  0  0  0  0  0  0  0  0
  -22.7710  -23.0000   18.2440 N   0  0  0  0  0  0  0  0  0  0  0  0
  -20.5450  -23.7870   18.7220 C   0  0  0  0  0  0  0  0  0  0  0  0
  -20.4260  -23.4190   20.0810 C   0  0  0  0  0  3  0  0  0  0  0  0
  -19.1530  -23.2840   20.6760 C   0  0  0  0  0  3  0  0  0  0  0  0
  -17.9840  -23.5270   19.9160 C   0  0  0  0  0  0  0  0  0  0  0  0
  -18.1080  -23.8670   18.5580 C   0  0  0  0  0  3  0  0  0  0  0  0
  -19.3750  -23.9920   17.9640 C   0  0  0  0  0  3  0  0  0  0  0  0
  -16.7050  -23.3970   20.4030 O   0  0  0  0  0  0  0  0  0  0  0  0
  -16.4450  -23.4130   21.7500 C   0  0  0  0  0  0  0  0  0  0  0  0
  -16.8210  -24.5030   22.5650 C   0  0  0  0  0  3  0  0  0  0  0  0
  -16.4730  -24.5140   23.9290 C   0  0  0  0  0  3  0  0  0  0  0  0
  -15.7390  -23.4440   24.4790 C   0  0  0  0  0  0  0  0  0  0  0  0
  -15.3590  -22.3620   23.6660 C   0  0  0  0  0  3  0  0  0  0  0  0
  -15.7100  -22.3480   22.3050 C   0  0  0  0  0  0  0  0  0  0  0  0
  -15.3240  -21.3120   21.5210 F   0  0  0  0  0  0  0  0  0  0  0  0
  -15.3940  -23.4580   25.7880 F   0  0  0  0  0  0  0  0  0  0  0  0
  -21.6340  -26.2110   16.7770 C   0  0  0  0  0  0  0  0  0  0  0  0
  -20.8290  -26.8100   17.6470 N   0  0  0  0  0  0  0  0  0  0  0  0
  -21.8150  -26.6800   15.6530 O   0  0  0  0  0  0  0  0  0  0  0  0
  -20.6990  -26.4440   18.5790 H   0  0  0  0  0  0  0  0  0  0  0  0
  -20.3350  -27.6480   17.3760 H   0  0  0  0  0  0  0  0  0  0  0  0
  -24.5530  -25.1130   15.9680 N   0  0  0  0  0  0  0  0  0  0  0  0
  -24.3910  -25.9870   15.4770 H   0  0  0  0  0  0  0  0  0  0  0  0
  -25.4200  -24.6630   15.7000 H   0  0  0  0  0  0  0  0  0  0  0  0
  -35.5610  -20.3550   11.4740 O   0  0  0  0  0  0  0  0  0  0  0  0
  -35.2000  -20.1310   10.6220 H   0  0  0  0  0  0  0  0  0  0  0  0
  -34.3280  -20.6110   19.4260 C   0  0  0  0  0  2  0  0  0  0  0  0
  -33.3080  -19.7190   20.1620 C   0  0  0  0  0  2  0  0  0  0  0  0
  -32.7820  -20.3180   21.4810 C   0  0  0  0  0  2  0  0  0  0  0  0
  -29.1650  -21.5270   21.8800 C   0  0  0  0  0  3  0  0  0  0  0  0
  -29.1430  -22.6420   21.0270 C   0  0  0  0  0  3  0  0  0  0  0  0
  -30.3560  -20.7990   22.0510 C   0  0  0  0  0  3  0  0  0  0  0  0
  -31.4850  -22.2600   20.4660 C   0  0  0  0  0  3  0  0  0  0  0  0
  -30.3210  -23.0450   20.3590 C   0  0  0  0  0  0  0  0  0  0  0  0
  -31.5110  -21.1350   21.3140 C   0  0  0  0  0  0  0  0  0  0  0  0
  -30.4580  -24.3740   19.7680 C   0  0  0  0  0  3  0  0  0  0  0  0
  -29.4920  -25.3000   19.8210 C   0  0  0  0  0  3  0  0  0  0  0  0
  -29.6820  -26.7450   19.4750 C   0  0  0  0  0  2  0  0  0  0  0  0
  -29.3570  -27.4870   20.6470 O   0  0  0  0  0  0  0  0  0  0  0  0
  -24.9190  -32.0990   23.7320 C   0  0  0  0  0  0  0  0  0  0  0  0
  -28.0790  -27.9790   20.7090 C   0  0  0  0  0  0  0  0  0  0  0  0
  -23.9120  -30.6270   22.0150 C   0  0  0  0  0  3  0  0  0  0  0  0
  -25.5570  -29.2210   20.6750 C   0  0  0  0  0  0  0  0  0  0  0  0
  -26.4060  -31.1880   21.9600 C   0  0  0  0  0  2  0  0  0  0  0  0
  -26.6300  -29.8350   21.3270 C   0  0  0  0  0  0  0  0  0  0  0  0
  -27.8920  -29.2110   21.3630 C   0  0  0  0  0  3  0  0  0  0  0  0
  -26.9770  -27.3360   20.1000 C   0  0  0  0  0  3  0  0  0  0  0  0
  -25.7160  -27.9590   20.0780 C   0  0  0  0  0  3  0  0  0  0  0  0
  -24.2500  -29.9790   20.6480 C   0  0  0  0  0  2  0  0  0  0  0  0
  -25.0920  -31.3200   22.6290 N   0  0  0  0  0  0  0  0  0  0  0  0
  -23.7940  -32.2810   24.2150 O   0  0  0  0  0  0  0  0  0  0  0  0
  -23.2970  -29.5450   22.9280 C   0  0  0  0  0  0  0  0  0  0  0  0
  -22.0290  -29.1910   22.6600 N   0  0  0  0  0  0  0  0  0  0  0  0
  -23.9580  -29.0260   23.8300 O   0  0  0  0  0  0  0  0  0  0  0  0
  -21.5550  -29.6690   21.9060 H   0  0  0  0  0  0  0  0  0  0  0  0
  -18.8300  -27.5230   22.7520 C   0  0  0  0  0  0  0  0  0  0  0  0
  -21.2560  -28.1720   23.3640 C   0  0  0  0  0  3  0  0  0  0  0  0
  -21.6450  -26.7500   22.8930 C   0  0  0  0  0  2  0  0  0  0  0  0
  -20.7630  -26.2280   21.7550 C   0  0  0  0  0  2  0  0  0  0  0  0
  -19.2950  -26.1900   22.1870 C   0  0  0  0  0  2  0  0  0  0  0  0
  -19.7520  -28.4590   23.2900 C   0  0  0  0  0  0  0  0  0  0  0  0
  -19.2710  -29.6980   23.7670 C   0  0  0  0  0  3  0  0  0  0  0  0
  -17.8980  -30.0060   23.7170 C   0  0  0  0  0  3  0  0  0  0  0  0
  -16.9900  -29.0690   23.1970 C   0  0  0  0  0  3  0  0  0  0  0  0
  -17.4540  -27.8300   22.7220 C   0  0  0  0  0  3  0  0  0  0  0  0
  -26.1190  -32.8170   24.4250 C   0  0  0  0  0  3  0  0  0  0  0  0
  -25.7280  -34.2140   24.6490 N   0  0  0  0  0  0  0  0  0  0  0  0
  -26.0890  -35.2390   23.8650 C   0  0  0  0  0  0  0  0  0  0  0  0
  -26.8540  -35.1110   22.9050 O   0  0  0  0  0  0  0  0  0  0  0  0
  -25.0560  -34.3860   25.3840 H   0  0  0  0  0  0  0  0  0  0  0  0
  -24.3320  -36.9290   23.2460 C   0  0  0  0  0  1  0  0  0  0  0  0
  -25.5030  -36.6240   24.1960 C   0  0  0  0  0  3  0  0  0  0  0  0
  -27.5300  -37.6190   25.1580 C   0  0  0  0  0  1  0  0  0  0  0  0
  -26.5000  -37.7150   24.1290 N   0  0  0  0  0  0  0  0  0  0  0  0
  -26.0480  -38.6220   24.2170 H   0  0  0  0  0  0  0  0  0  0  0  0
  -26.5580  -32.1310   25.7770 C   0  0  1  0  0  0  0  0  0  0  0  0
  -25.3780  -31.8280   26.7300 C   0  0  0  0  0  1  0  0  0  0  0  0
  -27.2970  -30.8010   25.5010 C   0  0  0  0  0  1  0  0  0  0  0  0
  -27.5570  -33.0430   26.5290 C   0  0  0  0  0  1  0  0  0  0  0  0
  1 56  1  0
  2  1  1  0
  3  2  1  0
  4  3  1  0
  5  4  1  0
  6  7  2  0
  7  5  1  0
  8  6  1  0
  9  8  2  0
 10  8  1  0
 10 11  1  0
 11 12  1  0
 12 13  1  0
 13 14  1  0
 14 15  1  0
 15 16  1  0
 16 17  1  0
 17 18  1  0
 18 24  1  0
 19 24  1  0
 20 19  1  0
 21 20  1  0
 22 21  1  0
 22 29  1  0
 22 23  1  0
 24 23  1  0
 25 18  2  0
 26 27  2  0
 26 29  1  0
 27 28  1  0
 28 30  2  0
 28 31  1  0
 29 30  1  0
 31 32  1  0
 32 33  2  0
 34 37  1  0
 34 33  1  0
 35 34  2  0
 36 35  1  0
 36 31  2  0
 37 38  1  0
 38 43  2  0
 38 39  1  0
 39 40  2  0
 40 41  1  0
 41 45  1  0
 42 41  2  0
 43 42  1  0
 44 43  1  0
 46 27  1  0
 46 47  1  0
 47 49  1  0
 48 46  2  0
 50 47  1  0
 51 26  1  0
 52 51  1  0
 53 51  1  0
 54  7  1  0
 55 54  1  0
 56 57  1  0
 57 58  1  0
 59 61  1  0
 60 59  2  0
 62 64  1  0
 63 62  2  0
 63 60  1  0
 64 58  1  0
 64 61  2  0
 65 66  2  0
 65 63  1  0
 67 66  1  0
 67 68  1  0
 68 70  1  0
 69 80  2  0
 70 75  1  0
 71 79  1  0
 71 81  1  0
 72 74  1  0
 73 79  1  0
 74 75  2  0
 74 73  1  0
 76 70  2  0
 77 76  1  0
 77 72  2  0
 78 72  1  0
 78 71  1  0
 79 69  1  0
 81 83  2  0
 82 81  1  0
 84 82  1  0
 85 90  1  0
 86 82  1  0
 87 86  1  0
 88 89  1  0
 88 87  1  0
 89 85  1  0
 90 86  1  0
 90 91  2  0
 92 91  1  0
 93 92  2  0
 94 85  2  0
 94 93  1  0
 95 69  1  0
 95 96  1  0
 95105  1  0
 96 99  1  0
 97101  1  0
 97 96  1  0
 98 97  2  0
101100  1  0
103101  1  0
103104  1  0
103102  1  0
105108  1  1
105106  1  0
107105  1  0
M  ISO  4  17 100  18 100  67 101  68 101
M  END
>  <TORSDO>  (62) 
F 37

>  <SCORE>  (62) 
-4.763

>  <name>  (62) 
61

>  <ligand_id>  (62) 
61

>  <original_smiles>  (62) 
[H]OC(=C([H])C(=O)C([H])([H])C([H])([H])C([H])([H])C([H])([H])C([H])([H])C([H])([H])C([H])([H])C([H])([H])C(=O)N1C([H])([H])C([H])([H])C([H])([H])C([H])(n2nc(-c3c([H])c([H])c(Oc4c([H])c([H])c(F)c([H])c4F)c([H])c3[H])c(C(=O)N([H])[H])c2N([H])[H])C1([H])[H])C([H])([H])C([H])([H])C([H])([H])C([H])([H])C([H])([H])C([H])([H])C([H])([H])C([H])([H])c1c([H])c([H])c([H])c(C([H])=C([H])C([H])([H])Oc2c([H])c([H])c3c(c2[H])C([H])([H])N(C(=O)C([H])(N([H])C(=O)C([H])(N([H])C([H])([H])[H])C([H])([H])[H])C(C([H])([H])[H])(C([H])([H])[H])C([H])([H])[H])C([H])(C(=O)N([H])C2([H])c4c([H])c([H])c([H])c([H])c4C([H])([H])C([H])([H])C2([H])[H])C3([H])[H])c1[H]

>  <smiles>  (62) 
[H]OC(=C([H])C(=O)C([H])([H])C([H])([H])C([H])([H])C([H])([H])C([H])([H])C([H])([H])C([H])([H])C([H])([H])C(=O)N1C([H])([H])C([H])([H])C([H])([H])C([H])(n2nc(-c3c([H])c([H])c(Oc4c([H])c([H])c(F)c([H])c4F)c([H])c3[H])c(C(=O)N([H])[H])c2N([H])[H])C1([H])[H])C([H])([H])C([H])([H])C([H])([H])C([H])([H])C([H])([H])C([H])([H])C([H])([H])C([H])([H])c1c([H])c([H])c([H])c(C([H])=C([H])C([H])([H])Oc2c([H])c([H])c3c(c2[H])C([H])([H])N(C(=O)C([H])(N([H])C(=O)C([H])(N([H])C([H])([H])[H])C([H])([H])[H])C(C([H])([H])[H])(C([H])([H])[H])C([H])([H])[H])C([H])(C(=O)N([H])C2([H])c4c([H])c([H])c([H])c([H])c4C([H])([H])C([H])([H])C2([H])[H])C3([H])[H])c1[H]

$$$$
62:0:0
     RDKit          3D

101109  0  0  1  0  0  0  0  0999 V2000
  -29.0240  -23.6850   26.2910 C   0  0  0  0  0  3  0  0  0  0  0  0
  -29.7320  -23.7610   23.9570 C   0  0  0  0  0  3  0  0  0  0  0  0
  -28.5860  -25.0210   26.2020 C   0  0  0  0  0  3  0  0  0  0  0  0
  -29.2910  -25.0950   23.8680 C   0  0  0  0  0  3  0  0  0  0  0  0
  -29.6340  -23.0670   25.1790 C   0  0  0  0  0  0  0  0  0  0  0  0
  -28.7470  -25.7390   24.9970 C   0  0  0  0  0  0  0  0  0  0  0  0
  -28.4420  -27.2230   24.9300 C   0  0  0  0  0  2  0  0  0  0  0  0
  -29.6170  -27.9740   24.2630 C   0  0  0  0  0  2  0  0  0  0  0  0
  -29.3540  -28.5670   22.8590 C   0  0  0  0  0  3  0  0  0  0  0  0
  -28.7100  -27.5220   21.9260 C   0  0  0  0  0  2  0  0  0  0  0  0
  -29.2070  -27.6030   20.4680 C   0  0  0  0  0  2  0  0  0  0  0  0
  -28.1190  -27.3980   19.5700 O   0  0  0  0  0  0  0  0  0  0  0  0
  -24.3340  -31.9420   23.5950 C   0  0  0  0  0  0  0  0  0  0  0  0
  -26.9680  -28.1170   19.7900 C   0  0  0  0  0  0  0  0  0  0  0  0
  -23.0980  -30.7880   21.7850 C   0  0  0  0  0  3  0  0  0  0  0  0
  -24.5350  -29.5200   20.1010 C   0  0  0  0  0  0  0  0  0  0  0  0
  -25.6110  -31.2250   21.5890 C   0  0  0  0  0  2  0  0  0  0  0  0
  -25.6920  -29.9750   20.7430 C   0  0  0  0  0  0  0  0  0  0  0  0
  -26.9080  -29.2790   20.5940 C   0  0  0  0  0  3  0  0  0  0  0  0
  -25.7940  -27.6710   19.1470 C   0  0  0  0  0  3  0  0  0  0  0  0
  -24.5760  -28.3600   19.3060 C   0  0  0  0  0  3  0  0  0  0  0  0
  -23.2800  -30.3320   20.3100 C   0  0  0  0  0  2  0  0  0  0  0  0
  -24.3660  -31.3250   22.3820 N   0  0  0  0  0  0  0  0  0  0  0  0
  -23.2660  -32.1080   24.2000 O   0  0  0  0  0  0  0  0  0  0  0  0
  -22.4940  -29.6200   22.5940 C   0  0  0  0  0  0  0  0  0  0  0  0
  -21.2010  -29.3440   22.3640 N   0  0  0  0  0  0  0  0  0  0  0  0
  -23.1890  -28.9700   23.3800 O   0  0  0  0  0  0  0  0  0  0  0  0
  -20.7010  -29.9340   21.7140 H   0  0  0  0  0  0  0  0  0  0  0  0
  -17.9330  -27.8130   22.4890 C   0  0  0  0  0  0  0  0  0  0  0  0
  -20.4310  -28.2630   22.9780 C   0  0  0  0  0  3  0  0  0  0  0  0
  -20.7060  -26.9140   22.2760 C   0  0  0  0  0  2  0  0  0  0  0  0
  -19.7100  -26.6020   21.1550 C   0  0  0  0  0  2  0  0  0  0  0  0
  -18.2780  -26.5610   21.7000 C   0  0  0  0  0  2  0  0  0  0  0  0
  -18.9440  -28.6190   23.0740 C   0  0  0  0  0  0  0  0  0  0  0  0
  -18.5710  -29.7900   23.7670 C   0  0  0  0  0  3  0  0  0  0  0  0
  -17.2180  -30.1590   23.8830 C   0  0  0  0  0  3  0  0  0  0  0  0
  -16.2190  -29.3470   23.3190 C   0  0  0  0  0  3  0  0  0  0  0  0
  -16.5750  -28.1780   22.6240 C   0  0  0  0  0  3  0  0  0  0  0  0
  -25.6320  -32.4870   24.2730 C   0  0  0  0  0  3  0  0  0  0  0  0
  -25.4340  -33.9230   24.5140 N   0  0  0  0  0  0  0  0  0  0  0  0
  -26.0430  -34.9010   23.8290 C   0  0  0  0  0  0  0  0  0  0  0  0
  -26.9000  -34.6800   22.9670 O   0  0  0  0  0  0  0  0  0  0  0  0
  -24.6960  -34.1780   25.1540 H   0  0  0  0  0  0  0  0  0  0  0  0
  -24.6950  -36.8810   23.0640 C   0  0  0  0  0  1  0  0  0  0  0  0
  -25.6410  -36.3520   24.1530 C   0  0  0  0  0  3  0  0  0  0  0  0
  -27.6370  -36.9550   25.4510 C   0  0  0  0  0  1  0  0  0  0  0  0
  -26.7990  -37.2640   24.2960 N   0  0  0  0  0  0  0  0  0  0  0  0
  -26.4910  -38.2310   24.3760 H   0  0  0  0  0  0  0  0  0  0  0  0
  -25.9960  -31.7400   25.6150 C   0  0  1  0  0  0  0  0  0  0  0  0
  -24.8170  -31.6460   26.6100 C   0  0  0  0  0  1  0  0  0  0  0  0
  -26.4900  -30.3020   25.3330 C   0  0  0  0  0  1  0  0  0  0  0  0
  -27.1510  -32.4810   26.3270 C   0  0  0  0  0  1  0  0  0  0  0  0
  -28.5600  -29.8950   22.8850 C   0  0  0  0  0  2  0  0  0  0  0  0
  -29.4070  -31.1160   23.2810 C   0  0  0  0  0  2  0  0  0  0  0  0
  -28.6460  -32.3010   23.1380 O   0  0  0  0  0  0  0  0  0  0  0  0
  -27.9360  -32.2720   23.7690 H   0  0  0  0  0  0  0  0  0  0  0  0
  -30.3040  -21.7120   25.3270 C   0  0  0  0  0  2  0  0  0  0  0  0
  -31.1480  -21.4100   24.0690 C   0  0  0  0  0  2  0  0  0  0  0  0
  -30.9720  -19.9850   23.5070 C   0  0  0  0  0  2  0  0  0  0  0  0
  -30.7260  -20.0110   21.9920 C   0  0  0  0  0  2  0  0  0  0  0  0
  -30.6790  -18.6290   21.3240 C   0  0  0  0  0  2  0  0  0  0  0  0
  -30.5880  -18.7690   19.7940 C   0  0  0  0  0  2  0  0  0  0  0  0
  -31.2150  -17.6180   18.9920 C   0  0  0  0  0  2  0  0  0  0  0  0
  -31.0980  -15.1180   18.9470 C   0  0  0  0  0  0  0  0  0  0  0  0
  -31.5360  -12.9840   20.0910 C   0  0  0  0  0  2  0  0  0  0  0  0
  -30.9870  -11.7290   19.3990 C   0  0  0  0  0  2  0  0  0  0  0  0
  -29.5300  -11.4780   19.8170 C   0  0  0  0  0  2  0  0  0  0  0  0
  -28.6450  -12.7400   19.6440 C   0  0  0  0  0  3  0  0  0  0  0  0
  -29.3030  -13.9830   20.2850 C   0  0  0  0  0  2  0  0  0  0  0  0
  -30.6750  -14.1280   19.7680 N   0  0  0  0  0  0  0  0  0  0  0  0
  -32.0340  -14.9970   18.1500 O   0  0  0  0  0  0  0  0  0  0  0  0
  -30.6130  -16.3190   19.2970 N   0  0  0  0  0  0  0  0  0  0  0  0
  -29.9120  -16.3130   20.0230 H   0  0  0  0  0  0  0  0  0  0  0  0
  -26.2570  -13.4110   20.3450 C   0  0  0  0  0  0  0  0  0  0  0  0
  -25.1950  -12.6730   20.7920 C   0  0  0  0  0  0  0  0  0  0  0  0
  -25.6500  -11.3200   20.8520 C   0  0  0  0  0  0  0  0  0  0  0  0
  -27.2970  -12.5090   20.1640 N   0  0  0  0  0  0  0  0  0  0  0  0
  -26.9340  -11.2520   20.5230 N   0  0  0  0  0  0  0  0  0  0  0  0
  -24.9220  -10.0800   21.1490 C   0  0  0  0  0  0  0  0  0  0  0  0
  -25.0320   -9.4410   22.4030 C   0  0  0  0  0  3  0  0  0  0  0  0
  -24.3080   -8.2590   22.6720 C   0  0  0  0  0  3  0  0  0  0  0  0
  -23.4600   -7.7080   21.6830 C   0  0  0  0  0  0  0  0  0  0  0  0
  -23.3710   -8.3340   20.4280 C   0  0  0  0  0  3  0  0  0  0  0  0
  -24.0960   -9.5070   20.1610 C   0  0  0  0  0  3  0  0  0  0  0  0
  -22.7380   -6.5490   21.8460 O   0  0  0  0  0  0  0  0  0  0  0  0
  -21.8920   -6.3710   22.9090 C   0  0  0  0  0  0  0  0  0  0  0  0
  -20.8350   -7.2680   23.1780 C   0  0  0  0  0  3  0  0  0  0  0  0
  -19.9450   -7.0110   24.2390 C   0  0  0  0  0  3  0  0  0  0  0  0
  -20.1040   -5.8540   25.0280 C   0  0  0  0  0  0  0  0  0  0  0  0
  -21.1530   -4.9570   24.7590 C   0  0  0  0  0  3  0  0  0  0  0  0
  -22.0420   -5.2140   23.7010 C   0  0  0  0  0  0  0  0  0  0  0  0
  -23.0370   -4.3360   23.4310 F   0  0  0  0  0  0  0  0  0  0  0  0
  -19.2450   -5.6020   26.0430 F   0  0  0  0  0  0  0  0  0  0  0  0
  -23.8040  -13.1770   21.0550 C   0  0  0  0  0  0  0  0  0  0  0  0
  -23.1090  -12.5850   22.0200 N   0  0  0  0  0  0  0  0  0  0  0  0
  -23.3450  -14.1380   20.4380 O   0  0  0  0  0  0  0  0  0  0  0  0
  -23.4930  -11.8070   22.5390 H   0  0  0  0  0  0  0  0  0  0  0  0
  -22.1790  -12.9110   22.2410 H   0  0  0  0  0  0  0  0  0  0  0  0
  -26.4260  -14.7630   20.0620 N   0  0  0  0  0  0  0  0  0  0  0  0
  -25.6680  -15.4300   20.1360 H   0  0  0  0  0  0  0  0  0  0  0  0
  -27.2800  -15.1710   19.7020 H   0  0  0  0  0  0  0  0  0  0  0  0
  2  5  1  0
  3  1  1  0
  4  2  2  0
  4  6  1  0
  5 57  1  0
  5  1  2  0
  6  3  2  0
  7  6  1  0
  8  7  1  0
  9 10  1  0
  9 53  1  0
  9  8  1  0
 11 10  1  0
 12 14  1  0
 12 11  1  0
 13 24  2  0
 14 19  1  0
 15 23  1  0
 15 25  1  0
 16 22  1  0
 16 18  1  0
 17 23  1  0
 18 17  1  0
 19 18  2  0
 20 21  1  0
 20 14  2  0
 21 16  2  0
 22 15  1  0
 23 13  1  0
 25 27  2  0
 26 25  1  0
 28 26  1  0
 29 38  2  0
 29 34  1  0
 30 26  1  0
 30 34  1  0
 31 30  1  0
 32 33  1  0
 32 31  1  0
 33 29  1  0
 34 35  2  0
 35 36  1  0
 37 36  2  0
 38 37  1  0
 39 13  1  0
 39 40  1  0
 39 49  1  0
 40 43  1  0
 41 45  1  0
 41 40  1  0
 42 41  2  0
 45 44  1  0
 45 47  1  0
 47 48  1  0
 47 46  1  0
 49 52  1  1
 49 50  1  0
 51 49  1  0
 53 54  1  0
 55 54  1  0
 55 56  1  0
 58 57  1  0
 59 58  1  0
 60 59  1  0
 61 60  1  0
 62 61  1  0
 63 72  1  0
 63 62  1  0
 64 72  1  0
 64 70  1  0
 66 67  1  0
 66 65  1  0
 68 67  1  0
 68 77  1  0
 68 69  1  0
 70 65  1  0
 70 69  1  0
 71 64  2  0
 72 73  1  0
 74 75  2  0
 75 76  1  0
 75 94  1  0
 76 79  1  0
 77 74  1  0
 77 78  1  0
 78 76  2  0
 79 80  1  0
 80 81  2  0
 82 85  1  0
 82 81  1  0
 83 82  2  0
 84 83  1  0
 84 79  2  0
 85 86  1  0
 86 87  2  0
 86 91  1  0
 87 88  1  0
 88 89  2  0
 89 93  1  0
 90 89  1  0
 91 90  2  0
 92 91  1  0
 94 95  1  0
 95 98  1  0
 95 97  1  0
 96 94  2  0
 99100  1  0
 99 74  1  0
101 99  1  0
M  ISO  4  11 101  12 101  64 100  72 100
M  END
>  <TORSDO>  (63) 
F 31

>  <SCORE>  (63) 
-2.013

>  <name>  (63) 
62

>  <ligand_id>  (63) 
62

>  <original_smiles>  (63) 
[H]OC([H])([H])C([H])([H])C([H])(C([H])([H])C([H])([H])Oc1c([H])c([H])c2c(c1[H])C([H])([H])N(C(=O)C([H])(N([H])C(=O)C([H])(N([H])C([H])([H])[H])C([H])([H])[H])C(C([H])([H])[H])(C([H])([H])[H])C([H])([H])[H])C([H])(C(=O)N([H])C1([H])c3c([H])c([H])c([H])c([H])c3C([H])([H])C([H])([H])C1([H])[H])C2([H])[H])C([H])([H])C([H])([H])c1c([H])c([H])c(C([H])([H])C([H])([H])C([H])([H])C([H])([H])C([H])([H])C([H])([H])C([H])([H])N([H])C(=O)N2C([H])([H])C([H])([H])C([H])([H])C([H])(n3nc(-c4c([H])c([H])c(Oc5c([H])c([H])c(F)c([H])c5F)c([H])c4[H])c(C(=O)N([H])[H])c3N([H])[H])C2([H])[H])c([H])c1[H]

>  <smiles>  (63) 
[H]OC([H])([H])C([H])([H])C([H])(C([H])([H])C([H])([H])Oc1c([H])c([H])c2c(c1[H])C([H])([H])N(C(=O)C([H])(N([H])C(=O)C([H])(N([H])C([H])([H])[H])C([H])([H])[H])C(C([H])([H])[H])(C([H])([H])[H])C([H])([H])[H])C([H])(C(=O)N([H])C1([H])c3c([H])c([H])c([H])c([H])c3C([H])([H])C([H])([H])C1([H])[H])C2([H])[H])C([H])([H])C([H])([H])c1c([H])c([H])c(C([H])([H])C([H])([H])C([H])([H])C([H])([H])C([H])([H])C([H])([H])C([H])([H])N([H])C(=O)N2C([H])([H])C([H])([H])C([H])([H])C([H])(n3nc(-c4c([H])c([H])c(Oc5c([H])c([H])c(F)c([H])c5F)c([H])c4[H])c(C(=O)N([H])[H])c3N([H])[H])C2([H])[H])c([H])c1[H]

$$$$
63:0:0
     RDKit          3D

 97105  0  0  1  0  0  0  0  0999 V2000
  -27.6200  -25.5710   16.4880 C   0  0  0  0  0  3  0  0  0  0  0  0
  -29.5360  -24.8880   17.8300 C   0  0  0  0  0  3  0  0  0  0  0  0
  -27.3330  -24.2190   16.2120 C   0  0  0  0  0  3  0  0  0  0  0  0
  -29.2630  -23.5410   17.5320 C   0  0  0  0  0  3  0  0  0  0  0  0
  -28.7080  -25.9130   17.3240 C   0  0  0  0  0  0  0  0  0  0  0  0
  -28.1500  -23.1980   16.7370 C   0  0  0  0  0  0  0  0  0  0  0  0
  -28.9790  -27.3440   17.6350 C   0  0  0  0  0  0  0  0  0  0  0  0
  -28.7600  -28.2600   16.8360 O   0  0  0  0  0  0  0  0  0  0  0  0
  -29.4670  -27.6650   19.0610 C   0  0  0  0  0  2  0  0  0  0  0  0
  -28.5770  -27.1010   20.0350 O   0  0  0  0  0  0  0  0  0  0  0  0
  -24.7110  -31.9700   23.5200 C   0  0  0  0  0  0  0  0  0  0  0  0
  -27.4010  -27.7910   20.1690 C   0  0  0  0  0  0  0  0  0  0  0  0
  -23.5160  -30.6700   21.7840 C   0  0  0  0  0  3  0  0  0  0  0  0
  -24.9850  -29.2320   20.2790 C   0  0  0  0  0  0  0  0  0  0  0  0
  -26.0350  -31.0690   21.6160 C   0  0  0  0  0  2  0  0  0  0  0  0
  -26.1340  -29.7410   20.8980 C   0  0  0  0  0  0  0  0  0  0  0  0
  -27.3480  -29.0280   20.8440 C   0  0  0  0  0  3  0  0  0  0  0  0
  -26.2360  -27.2670   19.5790 C   0  0  0  0  0  3  0  0  0  0  0  0
  -25.0270  -27.9890   19.6190 C   0  0  0  0  0  3  0  0  0  0  0  0
  -23.7340  -30.0740   20.3660 C   0  0  0  0  0  2  0  0  0  0  0  0
  -24.7710  -31.2480   22.3650 N   0  0  0  0  0  0  0  0  0  0  0  0
  -23.6290  -32.1980   24.0750 O   0  0  0  0  0  0  0  0  0  0  0  0
  -22.8710  -29.5850   22.6750 C   0  0  0  0  0  0  0  0  0  0  0  0
  -21.5550  -29.3790   22.5080 N   0  0  0  0  0  0  0  0  0  0  0  0
  -23.5540  -28.9320   23.4690 O   0  0  0  0  0  0  0  0  0  0  0  0
  -21.0700  -29.9600   21.8400 H   0  0  0  0  0  0  0  0  0  0  0  0
  -18.2080  -28.0550   22.8150 C   0  0  0  0  0  0  0  0  0  0  0  0
  -20.7420  -28.3830   23.2060 C   0  0  0  0  0  3  0  0  0  0  0  0
  -20.9190  -26.9820   22.5790 C   0  0  0  0  0  2  0  0  0  0  0  0
  -19.8700  -26.6640   21.5090 C   0  0  0  0  0  2  0  0  0  0  0  0
  -18.4580  -26.7400   22.0960 C   0  0  0  0  0  2  0  0  0  0  0  0
  -19.2820  -28.8340   23.3220 C   0  0  0  0  0  0  0  0  0  0  0  0
  -18.9960  -30.0660   23.9490 C   0  0  0  0  0  3  0  0  0  0  0  0
  -17.6690  -30.5200   24.0750 C   0  0  0  0  0  3  0  0  0  0  0  0
  -16.6090  -29.7330   23.5890 C   0  0  0  0  0  3  0  0  0  0  0  0
  -16.8800  -28.5040   22.9630 C   0  0  0  0  0  3  0  0  0  0  0  0
  -25.9940  -32.5630   24.1840 C   0  0  0  0  0  3  0  0  0  0  0  0
  -26.4970  -31.7230   25.4210 C   0  0  1  0  0  0  0  0  0  0  0  0
  -25.3920  -31.4310   26.4650 C   0  0  0  0  0  1  0  0  0  0  0  0
  -27.0810  -30.3670   24.9640 C   0  0  0  0  0  1  0  0  0  0  0  0
  -27.6420  -32.4790   26.1350 C   0  0  0  0  0  1  0  0  0  0  0  0
  -25.6870  -33.9450   24.5780 N   0  0  0  0  0  0  0  0  0  0  0  0
  -26.0470  -35.0320   23.8820 C   0  0  0  0  0  0  0  0  0  0  0  0
  -26.7450  -34.9770   22.8660 O   0  0  0  0  0  0  0  0  0  0  0  0
  -25.0660  -34.0630   25.3670 H   0  0  0  0  0  0  0  0  0  0  0  0
  -24.3380  -36.8500   23.5730 C   0  0  0  0  0  1  0  0  0  0  0  0
  -25.5550  -36.3980   24.3960 C   0  0  0  0  0  3  0  0  0  0  0  0
  -27.6780  -37.2210   25.3170 C   0  0  0  0  0  1  0  0  0  0  0  0
  -26.5970  -37.4480   24.3610 N   0  0  0  0  0  0  0  0  0  0  0  0
  -26.1950  -38.3640   24.5420 H   0  0  0  0  0  0  0  0  0  0  0  0
  -27.8230  -21.7370   16.4600 C   0  0  0  0  0  2  0  0  0  0  0  0
  -26.1540  -20.2770   17.7150 C   0  0  0  0  0  1  0  0  0  0  0  0
  -27.5480  -20.9260   17.7510 C   0  0  0  0  0  3  0  0  0  0  0  0
  -28.6660  -19.8910   18.0020 C   0  0  0  0  0  2  0  0  0  0  0  0
  -28.6060  -19.2000   19.3760 C   0  0  0  0  0  2  0  0  0  0  0  0
  -29.9590  -18.5680   19.7410 C   0  0  0  0  0  2  0  0  0  0  0  0
  -29.8930  -17.5890   20.9220 C   0  0  0  0  0  2  0  0  0  0  0  0
  -31.2970  -17.0950   21.3170 C   0  0  0  0  0  2  0  0  0  0  0  0
  -31.3140  -15.8360   22.2050 C   0  0  0  0  0  2  0  0  0  0  0  0
  -31.0340  -14.0060   20.5030 C   0  0  0  0  0  0  0  0  0  0  0  0
  -30.4930  -12.1220   19.0010 C   0  0  0  0  0  2  0  0  0  0  0  0
  -29.5580  -12.5570   17.8590 C   0  0  0  0  0  2  0  0  0  0  0  0
  -28.0820  -12.4880   18.2980 C   0  0  0  0  0  2  0  0  0  0  0  0
  -27.8340  -13.1940   19.6570 C   0  0  0  0  0  3  0  0  0  0  0  0
  -28.8650  -12.7300   20.7070 C   0  0  0  0  0  2  0  0  0  0  0  0
  -30.2200  -12.9690   20.1710 N   0  0  0  0  0  0  0  0  0  0  0  0
  -32.0610  -14.2900   19.8790 O   0  0  0  0  0  0  0  0  0  0  0  0
  -30.6510  -14.6850   21.5940 N   0  0  0  0  0  0  0  0  0  0  0  0
  -29.8230  -14.3420   22.0570 H   0  0  0  0  0  0  0  0  0  0  0  0
  -25.4530  -13.9160   20.3300 C   0  0  0  0  0  0  0  0  0  0  0  0
  -24.3510  -13.1960   20.7040 C   0  0  0  0  0  0  0  0  0  0  0  0
  -24.7530  -11.8260   20.6950 C   0  0  0  0  0  0  0  0  0  0  0  0
  -26.4630  -12.9890   20.1230 N   0  0  0  0  0  0  0  0  0  0  0  0
  -26.0420  -11.7270   20.3950 N   0  0  0  0  0  0  0  0  0  0  0  0
  -23.9710  -10.6000   20.8990 C   0  0  0  0  0  0  0  0  0  0  0  0
  -24.3580   -9.6260   21.8470 C   0  0  0  0  0  3  0  0  0  0  0  0
  -23.5800   -8.4620   22.0370 C   0  0  0  0  0  3  0  0  0  0  0  0
  -22.4010   -8.2650   21.2800 C   0  0  0  0  0  0  0  0  0  0  0  0
  -22.0340   -9.2260   20.3200 C   0  0  0  0  0  3  0  0  0  0  0  0
  -22.8120  -10.3800   20.1280 C   0  0  0  0  0  3  0  0  0  0  0  0
  -21.5980   -7.1550   21.3780 O   0  0  0  0  0  0  0  0  0  0  0  0
  -21.5060   -6.4350   22.5420 C   0  0  0  0  0  0  0  0  0  0  0  0
  -21.1080   -7.0320   23.7580 C   0  0  0  0  0  3  0  0  0  0  0  0
  -20.9590   -6.2410   24.9150 C   0  0  0  0  0  3  0  0  0  0  0  0
  -21.1950   -4.8560   24.8570 C   0  0  0  0  0  0  0  0  0  0  0  0
  -21.5860   -4.2580   23.6450 C   0  0  0  0  0  3  0  0  0  0  0  0
  -21.7370   -5.0460   22.4900 C   0  0  0  0  0  0  0  0  0  0  0  0
  -22.0920   -4.4620   21.3210 F   0  0  0  0  0  0  0  0  0  0  0  0
  -21.0440   -4.0940   25.9650 F   0  0  0  0  0  0  0  0  0  0  0  0
  -22.9730  -13.7380   20.9630 C   0  0  0  0  0  0  0  0  0  0  0  0
  -22.2150  -13.0920   21.8420 N   0  0  0  0  0  0  0  0  0  0  0  0
  -22.5790  -14.7680   20.4190 O   0  0  0  0  0  0  0  0  0  0  0  0
  -22.5470  -12.2570   22.3040 H   0  0  0  0  0  0  0  0  0  0  0  0
  -21.2910  -13.4380   22.0580 H   0  0  0  0  0  0  0  0  0  0  0  0
  -25.6790  -15.2760   20.1350 N   0  0  0  0  0  0  0  0  0  0  0  0
  -24.9430  -15.9680   20.2270 H   0  0  0  0  0  0  0  0  0  0  0  0
  -26.5580  -15.6720   19.8220 H   0  0  0  0  0  0  0  0  0  0  0  0
  1  5  1  0
  3  1  2  0
  3  6  1  0
  4  2  1  0
  5  7  1  0
  5  2  2  0
  6  4  2  0
  7  9  1  0
  8  7  2  0
  9 10  1  0
 10 12  1  0
 11 22  2  0
 12 17  1  0
 13 21  1  0
 13 23  1  0
 14 20  1  0
 14 16  1  0
 15 21  1  0
 16 15  1  0
 17 16  2  0
 18 19  1  0
 18 12  2  0
 19 14  2  0
 20 13  1  0
 21 11  1  0
 23 25  2  0
 24 23  1  0
 26 24  1  0
 27 36  2  0
 27 32  1  0
 28 24  1  0
 28 32  1  0
 29 28  1  0
 30 31  1  0
 30 29  1  0
 31 27  1  0
 32 33  2  0
 33 34  1  0
 35 34  2  0
 36 35  1  0
 37 11  1  0
 37 42  1  0
 37 38  1  0
 38 41  1  1
 38 39  1  0
 40 38  1  0
 42 45  1  0
 43 47  1  0
 43 42  1  0
 44 43  2  0
 47 46  1  0
 49 47  1  0
 49 50  1  0
 49 48  1  0
 51  6  1  0
 51 53  1  0
 53 52  1  0
 53 54  1  0
 54 55  1  0
 55 56  1  0
 56 57  1  0
 57 58  1  0
 58 59  1  0
 60 68  1  0
 61 66  1  0
 62 63  1  0
 62 61  1  0
 64 63  1  0
 64 73  1  0
 64 65  1  0
 66 60  1  0
 66 65  1  0
 67 60  2  0
 68 69  1  0
 68 59  1  0
 70 71  2  0
 71 90  1  0
 72 71  1  0
 72 75  1  0
 73 70  1  0
 73 74  1  0
 74 72  2  0
 75 76  1  0
 76 77  2  0
 78 81  1  0
 78 77  1  0
 79 78  2  0
 80 79  1  0
 80 75  2  0
 81 82  1  0
 82 83  1  0
 83 84  2  0
 85 84  1  0
 85 89  1  0
 86 85  2  0
 87 82  2  0
 87 86  1  0
 88 87  1  0
 90 91  1  0
 91 94  1  0
 91 93  1  0
 92 90  2  0
 95 96  1  0
 95 70  1  0
 97 95  1  0
M  ISO  4   9 101  10 101  60 100  68 100
M  END
>  <TORSDO>  (64) 
F 26

>  <SCORE>  (64) 
-9.270

>  <name>  (64) 
63

>  <ligand_id>  (64) 
63

>  <original_smiles>  (64) 
[H]c1c([H])c([H])c2c(c1[H])C([H])([H])C([H])([H])C([H])([H])C2([H])N([H])C(=O)C1([H])N(C(=O)C([H])(N([H])C(=O)C([H])(N([H])C([H])([H])[H])C([H])([H])[H])C(C([H])([H])[H])(C([H])([H])[H])C([H])([H])[H])C([H])([H])c2c([H])c(OC([H])([H])C(=O)c3c([H])c([H])c(C([H])([H])C([H])(C([H])([H])[H])C([H])([H])C([H])([H])C([H])([H])C([H])([H])C([H])([H])C([H])([H])N([H])C(=O)N4C([H])([H])C([H])([H])C([H])([H])C([H])(n5nc(-c6c([H])c([H])c(Oc7c([H])c([H])c(F)c([H])c7F)c([H])c6[H])c(C(=O)N([H])[H])c5N([H])[H])C4([H])[H])c([H])c3[H])c([H])c([H])c2C1([H])[H]

>  <smiles>  (64) 
[H]c1c([H])c([H])c2c(c1[H])C([H])([H])C([H])([H])C([H])([H])C2([H])N([H])C(=O)C1([H])N(C(=O)C([H])(N([H])C(=O)C([H])(N([H])C([H])([H])[H])C([H])([H])[H])C(C([H])([H])[H])(C([H])([H])[H])C([H])([H])[H])C([H])([H])c2c([H])c(OC([H])([H])C(=O)c3c([H])c([H])c(C([H])([H])C([H])(C([H])([H])[H])C([H])([H])C([H])([H])C([H])([H])C([H])([H])C([H])([H])C([H])([H])N([H])C(=O)N4C([H])([H])C([H])([H])C([H])([H])C([H])(n5nc(-c6c([H])c([H])c(Oc7c([H])c([H])c(F)c([H])c7F)c([H])c6[H])c(C(=O)N([H])[H])c5N([H])[H])C4([H])[H])c([H])c3[H])c([H])c([H])c2C1([H])[H]

$$$$
64:0:0
     RDKit          3D

 93101  0  0  1  0  0  0  0  0999 V2000
  -27.8810  -20.2630   20.3160 C   0  0  0  0  0  3  0  0  0  0  0  0
  -27.8510  -21.6500   20.0750 C   0  0  0  0  0  3  0  0  0  0  0  0
  -30.2890  -20.3790   20.6360 C   0  0  0  0  0  3  0  0  0  0  0  0
  -29.0980  -19.6150   20.6280 C   0  0  0  0  0  0  0  0  0  0  0  0
  -29.0310  -22.4190   20.1400 C   0  0  0  0  0  0  0  0  0  0  0  0
  -30.2630  -21.7740   20.4090 C   0  0  0  0  0  0  0  0  0  0  0  0
  -31.5670  -22.5530   20.4690 C   0  0  0  0  0  1  0  0  0  0  0  0
  -29.1060  -18.1460   20.8990 C   0  0  0  0  0  0  0  0  0  0  0  0
  -28.2490  -17.3750   20.4520 O   0  0  0  0  0  0  0  0  0  0  0  0
  -30.1860  -17.5880   21.8390 C   0  0  0  0  0  2  0  0  0  0  0  0
  -31.1780  -16.6100   21.1720 C   0  0  0  0  0  2  0  0  0  0  0  0
  -31.0740  -14.3830   20.0640 C   0  0  0  0  0  0  0  0  0  0  0  0
  -30.6660  -12.2430   18.9170 C   0  0  0  0  0  2  0  0  0  0  0  0
  -29.6900  -12.4330   17.7400 C   0  0  0  0  0  2  0  0  0  0  0  0
  -28.2300  -12.3200   18.2200 C   0  0  0  0  0  2  0  0  0  0  0  0
  -27.9420  -13.2020   19.4660 C   0  0  0  0  0  3  0  0  0  0  0  0
  -29.0240  -12.9880   20.5520 C   0  0  0  0  0  2  0  0  0  0  0  0
  -30.3450  -13.2430   19.9450 N   0  0  0  0  0  0  0  0  0  0  0  0
  -32.0980  -14.6070   19.4130 O   0  0  0  0  0  0  0  0  0  0  0  0
  -30.6010  -15.2820   20.9340 N   0  0  0  0  0  0  0  0  0  0  0  0
  -29.7670  -15.0290   21.4450 H   0  0  0  0  0  0  0  0  0  0  0  0
  -25.5810  -13.8740   20.2470 C   0  0  0  0  0  0  0  0  0  0  0  0
  -24.5070  -13.1280   20.6540 C   0  0  0  0  0  0  0  0  0  0  0  0
  -24.9360  -11.7670   20.6170 C   0  0  0  0  0  0  0  0  0  0  0  0
  -26.5980  -12.9670   19.9890 N   0  0  0  0  0  0  0  0  0  0  0  0
  -26.2140  -11.6940   20.2670 N   0  0  0  0  0  0  0  0  0  0  0  0
  -24.1860  -10.5230   20.8380 C   0  0  0  0  0  0  0  0  0  0  0  0
  -24.6070   -9.5660   21.7870 C   0  0  0  0  0  3  0  0  0  0  0  0
  -23.8620   -8.3850   21.9950 C   0  0  0  0  0  3  0  0  0  0  0  0
  -22.6790   -8.1550   21.2540 C   0  0  0  0  0  0  0  0  0  0  0  0
  -22.2740   -9.1020   20.2960 C   0  0  0  0  0  3  0  0  0  0  0  0
  -23.0210  -10.2730   20.0860 C   0  0  0  0  0  3  0  0  0  0  0  0
  -21.9030   -7.0270   21.3720 O   0  0  0  0  0  0  0  0  0  0  0  0
  -21.8240   -6.3280   22.5480 C   0  0  0  0  0  0  0  0  0  0  0  0
  -21.3950   -6.9350   23.7490 C   0  0  0  0  0  3  0  0  0  0  0  0
  -21.2600   -6.1610   24.9190 C   0  0  0  0  0  3  0  0  0  0  0  0
  -21.5450   -4.7830   24.8900 C   0  0  0  0  0  0  0  0  0  0  0  0
  -21.9660   -4.1770   23.6920 C   0  0  0  0  0  3  0  0  0  0  0  0
  -22.1020   -4.9460   22.5260 C   0  0  0  0  0  0  0  0  0  0  0  0
  -22.4880   -4.3530   21.3710 F   0  0  0  0  0  0  0  0  0  0  0  0
  -21.4090   -4.0370   26.0110 F   0  0  0  0  0  0  0  0  0  0  0  0
  -23.1350  -13.6440   20.9760 C   0  0  0  0  0  0  0  0  0  0  0  0
  -22.4290  -12.9780   21.8830 N   0  0  0  0  0  0  0  0  0  0  0  0
  -22.6970  -14.6710   20.4590 O   0  0  0  0  0  0  0  0  0  0  0  0
  -22.7950  -12.1470   22.3210 H   0  0  0  0  0  0  0  0  0  0  0  0
  -21.5090  -13.3070   22.1400 H   0  0  0  0  0  0  0  0  0  0  0  0
  -25.7730  -15.2380   20.0600 N   0  0  0  0  0  0  0  0  0  0  0  0
  -25.0280  -15.9110   20.1990 H   0  0  0  0  0  0  0  0  0  0  0  0
  -26.6530  -15.6780   19.8080 H   0  0  0  0  0  0  0  0  0  0  0  0
  -28.9420  -23.9310   19.9480 C   0  0  0  0  0  2  0  0  0  0  0  0
  -28.4390  -24.6450   21.2200 C   0  0  0  0  0  2  0  0  0  0  0  0
  -28.7790  -26.1450   21.2580 C   0  0  0  0  0  2  0  0  0  0  0  0
  -28.3650  -26.7720   20.0500 O   0  0  0  0  0  0  0  0  0  0  0  0
  -24.5960  -31.9080   23.2490 C   0  0  0  0  0  0  0  0  0  0  0  0
  -27.2030  -27.4940   20.1340 C   0  0  0  0  0  0  0  0  0  0  0  0
  -23.3710  -30.5230   21.6020 C   0  0  0  0  0  3  0  0  0  0  0  0
  -24.8080  -28.9780   20.1710 C   0  0  0  0  0  0  0  0  0  0  0  0
  -25.8920  -30.8740   21.3930 C   0  0  0  0  0  2  0  0  0  0  0  0
  -25.9690  -29.5020   20.7580 C   0  0  0  0  0  0  0  0  0  0  0  0
  -27.1690  -28.7630   20.7480 C   0  0  0  0  0  3  0  0  0  0  0  0
  -26.0350  -26.9720   19.5450 C   0  0  0  0  0  3  0  0  0  0  0  0
  -24.8330  -27.7060   19.5700 C   0  0  0  0  0  3  0  0  0  0  0  0
  -23.5700  -29.8450   20.2190 C   0  0  0  0  0  2  0  0  0  0  0  0
  -24.6380  -31.1150   22.1410 N   0  0  0  0  0  0  0  0  0  0  0  0
  -23.5200  -32.1850   23.7980 O   0  0  0  0  0  0  0  0  0  0  0  0
  -22.7210  -29.5010   22.5640 C   0  0  0  0  0  0  0  0  0  0  0  0
  -21.3940  -29.3320   22.4430 N   0  0  0  0  0  0  0  0  0  0  0  0
  -23.4050  -28.8660   23.3700 O   0  0  0  0  0  0  0  0  0  0  0  0
  -20.9040  -29.9050   21.7710 H   0  0  0  0  0  0  0  0  0  0  0  0
  -18.0130  -28.1600   22.9430 C   0  0  0  0  0  0  0  0  0  0  0  0
  -20.5730  -28.3950   23.2110 C   0  0  0  0  0  3  0  0  0  0  0  0
  -20.6630  -26.9660   22.6290 C   0  0  0  0  0  2  0  0  0  0  0  0
  -19.5560  -26.6570   21.6160 C   0  0  0  0  0  2  0  0  0  0  0  0
  -18.1770  -26.8110   22.2630 C   0  0  0  0  0  2  0  0  0  0  0  0
  -19.1390  -28.9110   23.3740 C   0  0  0  0  0  0  0  0  0  0  0  0
  -18.9340  -30.1740   23.9700 C   0  0  0  0  0  3  0  0  0  0  0  0
  -17.6340  -30.6880   24.1390 C   0  0  0  0  0  3  0  0  0  0  0  0
  -16.5220  -29.9350   23.7240 C   0  0  0  0  0  3  0  0  0  0  0  0
  -16.7120  -28.6730   23.1320 C   0  0  0  0  0  3  0  0  0  0  0  0
  -25.8910  -32.5240   23.8630 C   0  0  0  0  0  3  0  0  0  0  0  0
  -25.5950  -33.9230   24.2020 N   0  0  0  0  0  0  0  0  0  0  0  0
  -25.9330  -34.9760   23.4460 C   0  0  0  0  0  0  0  0  0  0  0  0
  -26.5990  -34.8720   22.4110 O   0  0  0  0  0  0  0  0  0  0  0  0
  -25.0020  -34.0760   25.0040 H   0  0  0  0  0  0  0  0  0  0  0  0
  -24.2170  -36.7810   23.1070 C   0  0  0  0  0  1  0  0  0  0  0  0
  -25.4580  -36.3650   23.9120 C   0  0  0  0  0  3  0  0  0  0  0  0
  -27.6040  -37.2320   24.7330 C   0  0  0  0  0  1  0  0  0  0  0  0
  -26.4970  -37.4110   23.7970 N   0  0  0  0  0  0  0  0  0  0  0  0
  -26.0990  -38.3340   23.9470 H   0  0  0  0  0  0  0  0  0  0  0  0
  -26.4140  -31.7400   25.1290 C   0  0  1  0  0  0  0  0  0  0  0  0
  -25.3310  -31.5010   26.2050 C   0  0  0  0  0  1  0  0  0  0  0  0
  -26.9840  -30.3610   24.7190 C   0  0  0  0  0  1  0  0  0  0  0  0
  -27.5760  -32.5200   25.7860 C   0  0  0  0  0  1  0  0  0  0  0  0
  1  4  1  0
  2  5  1  0
  2  1  2  0
  4  3  2  0
  4  8  1  0
  5  6  2  0
  6  7  1  0
  6  3  1  0
  8 10  1  0
  9  8  2  0
 11 10  1  0
 12 20  1  0
 13 18  1  0
 14 15  1  0
 14 13  1  0
 16 15  1  0
 16 25  1  0
 16 17  1  0
 18 12  1  0
 18 17  1  0
 19 12  2  0
 20 11  1  0
 20 21  1  0
 22 23  2  0
 23 42  1  0
 24 23  1  0
 24 27  1  0
 25 22  1  0
 25 26  1  0
 26 24  2  0
 27 28  1  0
 28 29  2  0
 30 33  1  0
 30 29  1  0
 31 30  2  0
 32 31  1  0
 32 27  2  0
 33 34  1  0
 34 35  1  0
 35 36  2  0
 37 36  1  0
 37 41  1  0
 38 37  2  0
 39 34  2  0
 39 38  1  0
 40 39  1  0
 42 43  1  0
 43 46  1  0
 43 45  1  0
 44 42  2  0
 47 48  1  0
 47 22  1  0
 49 47  1  0
 50  5  1  0
 50 51  1  0
 51 52  1  0
 53 55  1  0
 53 52  1  0
 54 65  2  0
 55 60  1  0
 56 64  1  0
 56 66  1  0
 57 63  1  0
 57 59  1  0
 58 64  1  0
 59 58  1  0
 60 59  2  0
 61 62  1  0
 61 55  2  0
 62 57  2  0
 63 56  1  0
 64 54  1  0
 66 68  2  0
 67 66  1  0
 69 67  1  0
 70 79  2  0
 70 75  1  0
 71 67  1  0
 71 75  1  0
 72 71  1  0
 73 74  1  0
 73 72  1  0
 74 70  1  0
 75 76  2  0
 76 77  1  0
 78 77  2  0
 79 78  1  0
 80 54  1  0
 80 81  1  0
 80 90  1  0
 81 84  1  0
 82 86  1  0
 82 81  1  0
 83 82  2  0
 86 85  1  0
 88 86  1  0
 88 89  1  0
 88 87  1  0
 90 93  1  1
 90 91  1  0
 92 90  1  0
M  ISO  4  12 100  20 100  52 101  53 101
M  END
>  <TORSDO>  (65) 
F 22

>  <SCORE>  (65) 
-12.965

>  <name>  (65) 
64

>  <ligand_id>  (65) 
64

>  <original_smiles>  (65) 
[H]c1c([H])c([H])c2c(c1[H])C([H])([H])C([H])([H])C([H])([H])C2([H])N([H])C(=O)C1([H])N(C(=O)C([H])(N([H])C(=O)C([H])(N([H])C([H])([H])[H])C([H])([H])[H])C(C([H])([H])[H])(C([H])([H])[H])C([H])([H])[H])C([H])([H])c2c([H])c(OC([H])([H])C([H])([H])C([H])([H])c3c([H])c([H])c(C(=O)C([H])([H])C([H])([H])N([H])C(=O)N4C([H])([H])C([H])([H])C([H])([H])C([H])(n5nc(-c6c([H])c([H])c(Oc7c([H])c([H])c(F)c([H])c7F)c([H])c6[H])c(C(=O)N([H])[H])c5N([H])[H])C4([H])[H])c([H])c3C([H])([H])[H])c([H])c([H])c2C1([H])[H]

>  <smiles>  (65) 
[H]c1c([H])c([H])c2c(c1[H])C([H])([H])C([H])([H])C([H])([H])C2([H])N([H])C(=O)C1([H])N(C(=O)C([H])(N([H])C(=O)C([H])(N([H])C([H])([H])[H])C([H])([H])[H])C(C([H])([H])[H])(C([H])([H])[H])C([H])([H])[H])C([H])([H])c2c([H])c(OC([H])([H])C([H])([H])C([H])([H])c3c([H])c([H])c(C(=O)C([H])([H])C([H])([H])N([H])C(=O)N4C([H])([H])C([H])([H])C([H])([H])C([H])(n5nc(-c6c([H])c([H])c(Oc7c([H])c([H])c(F)c([H])c7F)c([H])c6[H])c(C(=O)N([H])[H])c5N([H])[H])C4([H])[H])c([H])c3C([H])([H])[H])c([H])c([H])c2C1([H])[H]

$$$$
65:0:0
     RDKit          3D

101109  0  0  1  0  0  0  0  0999 V2000
  -26.4620  -21.8460   18.8620 C   0  0  0  0  0  3  0  0  0  0  0  0
  -28.1860  -21.3690   20.5180 C   0  0  0  0  0  3  0  0  0  0  0  0
  -26.5930  -23.2190   19.1420 C   0  0  0  0  0  3  0  0  0  0  0  0
  -28.3370  -22.7490   20.7740 C   0  0  0  0  0  3  0  0  0  0  0  0
  -27.2590  -20.9150   19.5540 C   0  0  0  0  0  0  0  0  0  0  0  0
  -27.5250  -23.6840   20.0950 C   0  0  0  0  0  0  0  0  0  0  0  0
  -27.0740  -19.4710   19.3170 C   0  0  0  0  0  0  0  0  0  0  0  0
  -26.5060  -18.7210   20.1180 O   0  0  0  0  0  0  0  0  0  0  0  0
  -27.6740  -18.9300   18.0120 C   0  0  0  0  0  2  0  0  0  0  0  0
  -28.3090  -17.5190   18.1570 C   0  0  0  0  0  3  0  0  0  0  0  0
  -28.2720  -16.7630   16.8830 N   0  0  0  0  0  4  0  0  0  0  0  0
  -28.7580  -17.2350   16.1420 H   0  0  0  0  0  0  0  0  0  0  0  0
  -27.3280  -16.5950   16.5810 H   0  0  0  0  0  0  0  0  0  0  0  0
  -28.6930  -15.8590   17.0070 H   0  0  0  0  0  0  0  0  0  0  0  0
  -29.7500  -17.5070   18.7480 C   0  0  0  0  0  2  0  0  0  0  0  0
  -29.9250  -18.0370   20.1910 C   0  0  0  0  0  2  0  0  0  0  0  0
  -31.0000  -17.2970   21.0040 C   0  0  0  0  0  2  0  0  0  0  0  0
  -31.3830  -14.8370   21.0630 C   0  0  0  0  0  0  0  0  0  0  0  0
  -31.0500  -12.8750   19.6640 C   0  0  0  0  0  2  0  0  0  0  0  0
  -30.1920  -13.3290   18.4660 C   0  0  0  0  0  2  0  0  0  0  0  0
  -28.6850  -13.2340   18.7910 C   0  0  0  0  0  2  0  0  0  0  0  0
  -28.3210  -13.8800   20.1560 C   0  0  0  0  0  3  0  0  0  0  0  0
  -29.3040  -13.4420   21.2670 C   0  0  0  0  0  2  0  0  0  0  0  0
  -30.6750  -13.7100   20.8060 N   0  0  0  0  0  0  0  0  0  0  0  0
  -32.5890  -14.9630   20.8330 O   0  0  0  0  0  0  0  0  0  0  0  0
  -30.6040  -15.9090   21.2500 N   0  0  0  0  0  0  0  0  0  0  0  0
  -29.6160  -15.7210   21.3230 H   0  0  0  0  0  0  0  0  0  0  0  0
  -25.9070  -14.5100   20.7840 C   0  0  0  0  0  0  0  0  0  0  0  0
  -24.7920  -13.7530   21.0000 C   0  0  0  0  0  0  0  0  0  0  0  0
  -25.2100  -12.3940   20.8810 C   0  0  0  0  0  0  0  0  0  0  0  0
  -26.9360  -13.6170   20.5290 N   0  0  0  0  0  0  0  0  0  0  0  0
  -26.5160  -12.3320   20.6480 N   0  0  0  0  0  0  0  0  0  0  0  0
  -24.4340  -11.1500   20.9140 C   0  0  0  0  0  0  0  0  0  0  0  0
  -24.7970  -10.0810   21.7620 C   0  0  0  0  0  3  0  0  0  0  0  0
  -24.0290   -8.8980   21.7880 C   0  0  0  0  0  3  0  0  0  0  0  0
  -22.8830   -8.7770   20.9660 C   0  0  0  0  0  0  0  0  0  0  0  0
  -22.5390   -9.8350   20.1070 C   0  0  0  0  0  3  0  0  0  0  0  0
  -23.3050  -11.0130   20.0800 C   0  0  0  0  0  3  0  0  0  0  0  0
  -22.0920   -7.6550   20.9090 O   0  0  0  0  0  0  0  0  0  0  0  0
  -21.9520   -6.8190   21.9880 C   0  0  0  0  0  0  0  0  0  0  0  0
  -21.4940   -7.2860   23.2390 C   0  0  0  0  0  3  0  0  0  0  0  0
  -21.3020   -6.3790   24.3020 C   0  0  0  0  0  3  0  0  0  0  0  0
  -21.5490   -5.0070   24.1100 C   0  0  0  0  0  0  0  0  0  0  0  0
  -21.9960   -4.5400   22.8610 C   0  0  0  0  0  3  0  0  0  0  0  0
  -22.1970   -5.4440   21.8030 C   0  0  0  0  0  0  0  0  0  0  0  0
  -22.6110   -4.9850   20.5970 F   0  0  0  0  0  0  0  0  0  0  0  0
  -21.3530   -4.1340   25.1270 F   0  0  0  0  0  0  0  0  0  0  0  0
  -23.3920  -14.2580   21.2180 C   0  0  0  0  0  0  0  0  0  0  0  0
  -22.5880  -13.5360   21.9900 N   0  0  0  0  0  0  0  0  0  0  0  0
  -23.0220  -15.3270   20.7360 O   0  0  0  0  0  0  0  0  0  0  0  0
  -22.8960  -12.6690   22.4050 H   0  0  0  0  0  0  0  0  0  0  0  0
  -21.6470  -13.8550   22.1770 H   0  0  0  0  0  0  0  0  0  0  0  0
  -26.1330  -15.8840   20.7740 N   0  0  0  0  0  0  0  0  0  0  0  0
  -25.3990  -16.5460   21.0030 H   0  0  0  0  0  0  0  0  0  0  0  0
  -27.0550  -16.2820   20.8620 H   0  0  0  0  0  0  0  0  0  0  0  0
  -27.5530  -25.1700   20.4660 C   0  0  0  0  0  3  0  0  0  0  0  0
  -26.1740  -25.5690   21.0530 C   0  0  0  0  0  2  0  0  0  0  0  0
  -24.4590  -25.3020   22.9120 C   0  0  0  0  0  1  0  0  0  0  0  0
  -25.8290  -24.8630   22.3740 C   0  0  0  0  0  2  0  0  0  0  0  0
  -28.0820  -26.0570   19.2970 C   0  0  0  0  0  2  0  0  0  0  0  0
  -28.1150  -27.4650   19.5710 O   0  0  0  0  0  0  0  0  0  0  0  0
  -24.4860  -32.1360   23.5080 C   0  0  0  0  0  0  0  0  0  0  0  0
  -26.9190  -28.1510   19.7070 C   0  0  0  0  0  0  0  0  0  0  0  0
  -23.1590  -30.8880   21.8380 C   0  0  0  0  0  3  0  0  0  0  0  0
  -24.5020  -29.5640   20.1240 C   0  0  0  0  0  0  0  0  0  0  0  0
  -25.6510  -31.3390   21.4570 C   0  0  0  0  0  2  0  0  0  0  0  0
  -25.6980  -30.0520   20.6610 C   0  0  0  0  0  0  0  0  0  0  0  0
  -26.9060  -29.3460   20.4620 C   0  0  0  0  0  3  0  0  0  0  0  0
  -25.6960  -27.6910   19.1560 C   0  0  0  0  0  3  0  0  0  0  0  0
  -24.4950  -28.3800   19.3760 C   0  0  0  0  0  3  0  0  0  0  0  0
  -23.2450  -30.3570   20.3810 C   0  0  0  0  0  2  0  0  0  0  0  0
  -24.4580  -31.4600   22.3260 N   0  0  0  0  0  0  0  0  0  0  0  0
  -23.4550  -32.3220   24.1680 O   0  0  0  0  0  0  0  0  0  0  0  0
  -22.6170  -29.7530   22.7360 C   0  0  0  0  0  0  0  0  0  0  0  0
  -21.3250  -29.4280   22.5720 N   0  0  0  0  0  0  0  0  0  0  0  0
  -23.3530  -29.1670   23.5320 O   0  0  0  0  0  0  0  0  0  0  0  0
  -20.7900  -29.9520   21.8950 H   0  0  0  0  0  0  0  0  0  0  0  0
  -18.1580  -27.7120   22.7750 C   0  0  0  0  0  0  0  0  0  0  0  0
  -20.6060  -28.3680   23.2750 C   0  0  0  0  0  3  0  0  0  0  0  0
  -20.9900  -26.9760   22.7180 C   0  0  0  0  0  2  0  0  0  0  0  0
  -20.0440  -26.4920   21.6140 C   0  0  0  0  0  2  0  0  0  0  0  0
  -18.6050  -26.4120   22.1310 C   0  0  0  0  0  2  0  0  0  0  0  0
  -19.0970  -28.6380   23.2970 C   0  0  0  0  0  0  0  0  0  0  0  0
  -18.6280  -29.8520   23.8470 C   0  0  0  0  0  3  0  0  0  0  0  0
  -17.2510  -30.1380   23.8900 C   0  0  0  0  0  3  0  0  0  0  0  0
  -16.3230  -29.2070   23.3920 C   0  0  0  0  0  3  0  0  0  0  0  0
  -16.7770  -27.9980   22.8360 C   0  0  0  0  0  3  0  0  0  0  0  0
  -25.8150  -32.7250   24.0780 C   0  0  0  0  0  3  0  0  0  0  0  0
  -26.3850  -31.9090   25.3010 C   0  0  1  0  0  0  0  0  0  0  0  0
  -25.3410  -31.6350   26.4060 C   0  0  0  0  0  1  0  0  0  0  0  0
  -26.9480  -30.5490   24.8300 C   0  0  0  0  0  1  0  0  0  0  0  0
  -27.5610  -32.6790   25.9440 C   0  0  0  0  0  1  0  0  0  0  0  0
  -25.5520  -34.1190   24.4580 N   0  0  0  0  0  0  0  0  0  0  0  0
  -25.9050  -35.1870   23.7320 C   0  0  0  0  0  0  0  0  0  0  0  0
  -26.5570  -35.1020   22.6870 O   0  0  0  0  0  0  0  0  0  0  0  0
  -24.9670  -34.2650   25.2680 H   0  0  0  0  0  0  0  0  0  0  0  0
  -24.2280  -37.0380   23.4590 C   0  0  0  0  0  1  0  0  0  0  0  0
  -25.4600  -36.5680   24.2470 C   0  0  0  0  0  3  0  0  0  0  0  0
  -27.6260  -37.3550   25.0930 C   0  0  0  0  0  1  0  0  0  0  0  0
  -26.5220  -37.5940   24.1670 N   0  0  0  0  0  0  0  0  0  0  0  0
  -26.1430  -38.5180   24.3550 H   0  0  0  0  0  0  0  0  0  0  0  0
  1  3  2  0
  1  5  1  0
  2  4  1  0
  3  6  1  0
  5  2  2  0
  6 56  1  0
  6  4  2  0
  7  5  1  0
  7  8  2  0
  9  7  1  0
 10  9  1  0
 10 15  1  0
 11 14  1  0
 11 10  1  0
 12 11  1  0
 13 11  1  0
 15 16  1  0
 16 17  1  0
 17 26  1  0
 18 26  1  0
 19 24  1  0
 20 21  1  0
 20 19  1  0
 22 21  1  0
 22 31  1  0
 22 23  1  0
 24 18  1  0
 24 23  1  0
 25 18  2  0
 26 27  1  0
 28 29  2  0
 29 48  1  0
 30 33  1  0
 30 29  1  0
 31 32  1  0
 31 28  1  0
 32 30  2  0
 33 34  1  0
 34 35  2  0
 36 35  1  0
 37 36  2  0
 38 37  1  0
 38 33  2  0
 39 36  1  0
 39 40  1  0
 40 41  1  0
 41 42  2  0
 43 42  1  0
 43 47  1  0
 44 43  2  0
 45 40  2  0
 45 44  1  0
 46 45  1  0
 48 49  1  0
 49 52  1  0
 49 51  1  0
 50 48  2  0
 53 28  1  0
 53 55  1  0
 53 54  1  0
 56 60  1  0
 56 57  1  0
 57 59  1  0
 59 58  1  0
 60 61  1  0
 61 63  1  0
 62 73  2  0
 63 68  1  0
 64 72  1  0
 64 74  1  0
 65 71  1  0
 65 67  1  0
 66 72  1  0
 67 66  1  0
 68 67  2  0
 69 70  1  0
 69 63  2  0
 70 65  2  0
 71 64  1  0
 72 62  1  0
 74 76  2  0
 75 74  1  0
 77 75  1  0
 78 87  2  0
 78 83  1  0
 79 75  1  0
 79 83  1  0
 80 79  1  0
 81 82  1  0
 81 80  1  0
 82 78  1  0
 83 84  2  0
 84 85  1  0
 86 85  2  0
 87 86  1  0
 88 62  1  0
 88 93  1  0
 88 89  1  0
 89 92  1  1
 89 90  1  0
 91 89  1  0
 93 96  1  0
 94 98  1  0
 94 93  1  0
 95 94  2  0
 98 97  1  0
100 98  1  0
100101  1  0
100 99  1  0
M  ISO  4  18 100  26 100  60 101  61 101
M  END
>  <TORSDO>  (66) 
F 27

>  <SCORE>  (66) 
-7.228

>  <name>  (66) 
65

>  <ligand_id>  (66) 
65

>  <original_smiles>  (66) 
[H]c1c([H])c([H])c2c(c1[H])C([H])([H])C([H])([H])C([H])([H])C2([H])N([H])C(=O)C1([H])N(C(=O)C([H])(N([H])C(=O)C([H])(N([H])C([H])([H])[H])C([H])([H])[H])C(C([H])([H])[H])(C([H])([H])[H])C([H])([H])[H])C([H])([H])c2c([H])c(OC([H])([H])C([H])(c3c([H])c([H])c(C(=O)C([H])([H])C([H])(C([H])([H])C([H])([H])C([H])([H])N([H])C(=O)N4C([H])([H])C([H])([H])C([H])([H])C([H])(n5nc(-c6c([H])c([H])c(Oc7c([H])c([H])c(F)c([H])c7F)c([H])c6[H])c(C(=O)N([H])[H])c5N([H])[H])C4([H])[H])[N+]([H])([H])[H])c([H])c3[H])C([H])([H])C([H])([H])C([H])([H])[H])c([H])c([H])c2C1([H])[H]

>  <smiles>  (66) 
[H]c1c([H])c([H])c2c(c1[H])C([H])([H])C([H])([H])C([H])([H])C2([H])N([H])C(=O)C1([H])N(C(=O)C([H])(N([H])C(=O)C([H])(N([H])C([H])([H])[H])C([H])([H])[H])C(C([H])([H])[H])(C([H])([H])[H])C([H])([H])[H])C([H])([H])c2c([H])c(OC([H])([H])C([H])(c3c([H])c([H])c(C(=O)C([H])([H])C([H])(C([H])([H])C([H])([H])C([H])([H])N([H])C(=O)N4C([H])([H])C([H])([H])C([H])([H])C([H])(n5nc(-c6c([H])c([H])c(Oc7c([H])c([H])c(F)c([H])c7F)c([H])c6[H])c(C(=O)N([H])[H])c5N([H])[H])C4([H])[H])[N+]([H])([H])[H])c([H])c3[H])C([H])([H])C([H])([H])C([H])([H])[H])c([H])c([H])c2C1([H])[H]

$$$$
66:0:0
     RDKit          3D

 92 99  0  0  1  0  0  0  0  0999 V2000
  -27.6760  -22.9170   22.0810 C   0  0  0  0  0  0  0  0  0  0  0  0
  -27.3530  -21.8450   21.5610 O   0  0  0  0  0  0  0  0  0  0  0  0
  -27.0490  -24.2470   21.6670 C   0  0  0  0  0  2  0  0  0  0  0  0
  -26.5610  -24.3000   20.2070 C   0  0  0  0  0  2  0  0  0  0  0  0
  -26.4570  -25.7450   19.7020 C   0  0  0  0  0  2  0  0  0  0  0  0
  -26.0870  -25.8430   18.2070 C   0  0  0  0  0  2  0  0  0  0  0  0
  -26.0240  -27.2080   17.7910 O   0  0  0  0  0  0  0  0  0  0  0  0
  -24.4940  -31.7180   23.0510 C   0  0  0  0  0  0  0  0  0  0  0  0
  -25.0560  -28.0110   18.3570 C   0  0  0  0  0  0  0  0  0  0  0  0
  -22.5680  -30.9750   21.6890 C   0  0  0  0  0  3  0  0  0  0  0  0
  -23.1450  -29.7190   19.5500 C   0  0  0  0  0  0  0  0  0  0  0  0
  -24.9180  -31.0700   20.6850 C   0  0  0  0  0  2  0  0  0  0  0  0
  -24.5110  -29.9270   19.7800 C   0  0  0  0  0  0  0  0  0  0  0  0
  -25.4670  -29.0810   19.1800 C   0  0  0  0  0  3  0  0  0  0  0  0
  -23.6720  -27.8140   18.1360 C   0  0  0  0  0  3  0  0  0  0  0  0
  -22.7200  -28.6620   18.7300 C   0  0  0  0  0  3  0  0  0  0  0  0
  -22.1840  -30.6760   20.2170 C   0  0  0  0  0  2  0  0  0  0  0  0
  -24.0320  -31.2500   21.8590 N   0  0  0  0  0  0  0  0  0  0  0  0
  -23.7190  -31.9610   23.9860 O   0  0  0  0  0  0  0  0  0  0  0  0
  -22.0560  -29.8160   22.5750 C   0  0  0  0  0  0  0  0  0  0  0  0
  -20.7310  -29.6010   22.5720 N   0  0  0  0  0  0  0  0  0  0  0  0
  -22.8430  -29.1190   23.2220 O   0  0  0  0  0  0  0  0  0  0  0  0
  -20.1520  -30.2210   22.0230 H   0  0  0  0  0  0  0  0  0  0  0  0
  -17.5400  -27.9480   22.9380 C   0  0  0  0  0  0  0  0  0  0  0  0
  -20.0280  -28.5450   23.3000 C   0  0  0  0  0  3  0  0  0  0  0  0
  -20.3440  -27.1530   22.7050 C   0  0  0  0  0  2  0  0  0  0  0  0
  -19.3280  -26.7040   21.6500 C   0  0  0  0  0  2  0  0  0  0  0  0
  -17.9200  -26.6490   22.2480 C   0  0  0  0  0  2  0  0  0  0  0  0
  -18.5300  -28.8460   23.4180 C   0  0  0  0  0  0  0  0  0  0  0  0
  -18.1220  -30.0570   24.0180 C   0  0  0  0  0  3  0  0  0  0  0  0
  -16.7570  -30.3740   24.1450 C   0  0  0  0  0  3  0  0  0  0  0  0
  -15.7810  -29.4730   23.6840 C   0  0  0  0  0  3  0  0  0  0  0  0
  -16.1730  -28.2620   23.0860 C   0  0  0  0  0  3  0  0  0  0  0  0
  -26.0110  -31.9960   23.2890 C   0  0  0  0  0  3  0  0  0  0  0  0
  -26.7040  -30.9210   24.2150 C   0  0  1  0  0  0  0  0  0  0  0  0
  -25.9460  -30.6590   25.5370 C   0  0  0  0  0  1  0  0  0  0  0  0
  -26.8430  -29.5720   23.4740 C   0  0  0  0  0  1  0  0  0  0  0  0
  -28.1380  -31.3800   24.5690 C   0  0  0  0  0  1  0  0  0  0  0  0
  -26.1300  -33.3380   23.8730 N   0  0  0  0  0  0  0  0  0  0  0  0
  -26.5530  -34.4210   23.2080 C   0  0  0  0  0  0  0  0  0  0  0  0
  -26.9570  -34.3760   22.0430 O   0  0  0  0  0  0  0  0  0  0  0  0
  -25.7680  -33.4580   24.8070 H   0  0  0  0  0  0  0  0  0  0  0  0
  -25.3110  -36.5890   23.4830 C   0  0  0  0  0  1  0  0  0  0  0  0
  -26.5220  -35.7690   23.9540 C   0  0  0  0  0  3  0  0  0  0  0  0
  -28.9170  -35.9740   24.4480 C   0  0  0  0  0  1  0  0  0  0  0  0
  -27.7570  -36.5640   23.7850 N   0  0  0  0  0  0  0  0  0  0  0  0
  -27.6320  -37.5060   24.1430 H   0  0  0  0  0  0  0  0  0  0  0  0
  -28.7140  -22.9770   23.2000 C   0  0  0  0  0  2  0  0  0  0  0  0
  -29.7470  -24.1100   23.0420 C   0  0  0  0  0  2  0  0  0  0  0  0
  -29.1680  -25.5350   23.1700 C   0  0  0  0  0  2  0  0  0  0  0  0
  -29.0880  -26.2770   21.8270 C   0  0  0  0  0  2  0  0  0  0  0  0
  -29.6530  -27.7020   21.9050 C   0  0  0  0  0  2  0  0  0  0  0  0
  -30.6960  -27.9730   20.8130 C   0  0  0  0  0  2  0  0  0  0  0  0
  -32.1160  -28.1920   21.3730 C   0  0  0  0  0  2  0  0  0  0  0  0
  -34.1130  -26.7300   20.9420 C   0  0  0  0  0  0  0  0  0  0  0  0
  -35.7360  -24.9950   20.2790 C   0  0  0  0  0  2  0  0  0  0  0  0
  -35.6530  -24.6990   18.7680 C   0  0  0  0  0  2  0  0  0  0  0  0
  -34.5430  -23.6760   18.4550 C   0  0  0  0  0  2  0  0  0  0  0  0
  -33.1940  -24.0240   19.1390 C   0  0  0  0  0  3  0  0  0  0  0  0
  -33.4270  -24.3220   20.6360 C   0  0  0  0  0  2  0  0  0  0  0  0
  -34.4100  -25.4210   20.7430 N   0  0  0  0  0  0  0  0  0  0  0  0
  -34.9250  -27.6520   20.8170 O   0  0  0  0  0  0  0  0  0  0  0  0
  -32.8450  -26.9360   21.2990 N   0  0  0  0  0  0  0  0  0  0  0  0
  -32.3000  -26.0970   21.4330 H   0  0  0  0  0  0  0  0  0  0  0  0
  -30.8350  -23.0470   18.7720 C   0  0  0  0  0  0  0  0  0  0  0  0
  -30.4000  -21.7650   18.5580 C   0  0  0  0  0  0  0  0  0  0  0  0
  -31.5670  -20.9420   18.5940 C   0  0  0  0  0  0  0  0  0  0  0  0
  -32.2090  -22.9600   18.9430 N   0  0  0  0  0  0  0  0  0  0  0  0
  -32.6370  -21.6720   18.8810 N   0  0  0  0  0  0  0  0  0  0  0  0
  -31.7370  -19.5100   18.3170 C   0  0  0  0  0  0  0  0  0  0  0  0
  -32.0990  -18.5990   19.3340 C   0  0  0  0  0  3  0  0  0  0  0  0
  -32.2390  -17.2250   19.0480 C   0  0  0  0  0  3  0  0  0  0  0  0
  -32.0110  -16.7470   17.7350 C   0  0  0  0  0  0  0  0  0  0  0  0
  -31.6730  -17.6590   16.7220 C   0  0  0  0  0  3  0  0  0  0  0  0
  -31.5410  -19.0280   17.0080 C   0  0  0  0  0  3  0  0  0  0  0  0
  -32.1490  -15.4320   17.3600 O   0  0  0  0  0  0  0  0  0  0  0  0
  -31.6480  -14.4100   18.1250 C   0  0  0  0  0  0  0  0  0  0  0  0
  -30.2740  -14.3170   18.4380 C   0  0  0  0  0  3  0  0  0  0  0  0
  -29.7920  -13.2120   19.1680 C   0  0  0  0  0  3  0  0  0  0  0  0
  -30.6790  -12.1980   19.5790 C   0  0  0  0  0  0  0  0  0  0  0  0
  -32.0470  -12.2870   19.2650 C   0  0  0  0  0  3  0  0  0  0  0  0
  -32.5280  -13.3890   18.5370 C   0  0  0  0  0  0  0  0  0  0  0  0
  -33.8440  -13.4610   18.2170 F   0  0  0  0  0  0  0  0  0  0  0  0
  -30.2160  -11.1320   20.2730 F   0  0  0  0  0  0  0  0  0  0  0  0
  -28.9960  -21.3380   18.2380 C   0  0  0  0  0  0  0  0  0  0  0  0
  -28.6130  -20.1300   18.6400 N   0  0  0  0  0  0  0  0  0  0  0  0
  -28.2130  -22.0930   17.6660 O   0  0  0  0  0  0  0  0  0  0  0  0
  -29.2460  -19.5120   19.1270 H   0  0  0  0  0  0  0  0  0  0  0  0
  -27.6690  -19.8210   18.4590 H   0  0  0  0  0  0  0  0  0  0  0  0
  -30.1840  -24.2750   18.8180 N   0  0  0  0  0  0  0  0  0  0  0  0
  -29.1900  -24.3670   18.6360 H   0  0  0  0  0  0  0  0  0  0  0  0
  -30.6520  -25.1650   18.9290 H   0  0  0  0  0  0  0  0  0  0  0  0
  1 48  1  0
  2  1  2  0
  3  1  1  0
  4  3  1  0
  5  4  1  0
  6  5  1  0
  7  6  1  0
  7  9  1  0
  8 19  2  0
  9 14  1  0
 10 18  1  0
 10 20  1  0
 11 13  1  0
 11 17  1  0
 12 18  1  0
 13 12  1  0
 14 13  2  0
 15  9  2  0
 15 16  1  0
 16 11  2  0
 17 10  1  0
 18  8  1  0
 20 22  2  0
 21 20  1  0
 23 21  1  0
 24 33  2  0
 24 29  1  0
 25 21  1  0
 25 29  1  0
 26 25  1  0
 27 28  1  0
 27 26  1  0
 28 24  1  0
 29 30  2  0
 30 31  1  0
 32 31  2  0
 33 32  1  0
 34  8  1  0
 34 39  1  0
 34 35  1  0
 35 38  1  1
 35 36  1  0
 37 35  1  0
 39 42  1  0
 40 39  1  0
 40 44  1  0
 41 40  2  0
 44 43  1  0
 46 44  1  0
 46 47  1  0
 46 45  1  0
 49 50  1  0
 49 48  1  0
 51 52  1  0
 51 50  1  0
 53 54  1  0
 53 52  1  0
 55 63  1  0
 56 61  1  0
 57 56  1  0
 58 57  1  0
 59 58  1  0
 59 60  1  0
 60 61  1  0
 61 55  1  0
 62 55  2  0
 63 54  1  0
 63 64  1  0
 65 90  1  0
 65 68  1  0
 66 67  1  0
 66 65  2  0
 67 69  2  0
 68 59  1  0
 69 68  1  0
 70 67  1  0
 70 71  1  0
 72 71  2  0
 73 72  1  0
 74 75  1  0
 74 73  2  0
 75 70  2  0
 76 73  1  0
 76 77  1  0
 77 78  2  0
 77 82  1  0
 78 79  1  0
 79 80  2  0
 80 84  1  0
 81 80  1  0
 82 81  2  0
 83 82  1  0
 85 66  1  0
 85 86  1  0
 86 88  1  0
 87 85  2  0
 89 86  1  0
 90 92  1  0
 91 90  1  0
M  ISO  4   6 101   7 101  55 100  63 100
M  END
>  <TORSDO>  (67) 
F 27

>  <SCORE>  (67) 
-2.555

>  <name>  (67) 
66

>  <ligand_id>  (67) 
66

>  <original_smiles>  (67) 
[H]c1c([H])c([H])c2c(c1[H])C([H])([H])C([H])([H])C([H])([H])C2([H])N([H])C(=O)C1([H])N(C(=O)C([H])(N([H])C(=O)C([H])(N([H])C([H])([H])[H])C([H])([H])[H])C(C([H])([H])[H])(C([H])([H])[H])C([H])([H])[H])C([H])([H])c2c([H])c(OC([H])([H])C([H])([H])C([H])([H])C([H])([H])C(=O)C([H])([H])C([H])([H])C([H])([H])C([H])([H])C([H])([H])C([H])([H])C([H])([H])N([H])C(=O)N3C([H])([H])C([H])([H])C([H])([H])C([H])(n4nc(-c5c([H])c([H])c(Oc6c([H])c([H])c(F)c([H])c6F)c([H])c5[H])c(C(=O)N([H])[H])c4N([H])[H])C3([H])[H])c([H])c([H])c2C1([H])[H]

>  <smiles>  (67) 
[H]c1c([H])c([H])c2c(c1[H])C([H])([H])C([H])([H])C([H])([H])C2([H])N([H])C(=O)C1([H])N(C(=O)C([H])(N([H])C(=O)C([H])(N([H])C([H])([H])[H])C([H])([H])[H])C(C([H])([H])[H])(C([H])([H])[H])C([H])([H])[H])C([H])([H])c2c([H])c(OC([H])([H])C([H])([H])C([H])([H])C([H])([H])C(=O)C([H])([H])C([H])([H])C([H])([H])C([H])([H])C([H])([H])C([H])([H])C([H])([H])N([H])C(=O)N3C([H])([H])C([H])([H])C([H])([H])C([H])(n4nc(-c5c([H])c([H])c(Oc6c([H])c([H])c(F)c([H])c6F)c([H])c5[H])c(C(=O)N([H])[H])c4N([H])[H])C3([H])[H])c([H])c([H])c2C1([H])[H]

$$$$
67:0:0
     RDKit          3D

103112  0  0  1  0  0  0  0  0999 V2000
  -29.9170  -23.4640   25.4790 C   0  0  0  0  0  2  0  0  0  0  0  0
  -31.1560  -23.0690   24.6860 C   0  0  0  0  0  2  0  0  0  0  0  0
  -28.7180  -22.9250   24.6810 C   0  0  0  0  0  2  0  0  0  0  0  0
  -30.7610  -21.7870   23.9610 C   0  0  0  0  0  3  0  0  0  0  0  0
  -29.2350  -21.8910   23.6380 C   0  0  1  0  0  0  0  0  0  0  0  0
  -28.5760  -20.5160   23.8850 C   0  0  0  0  0  1  0  0  0  0  0  0
  -32.8440  -19.6500   21.6220 C   0  0  0  0  0  3  0  0  0  0  0  0
  -32.7950  -21.8830   20.6620 C   0  0  0  0  0  3  0  0  0  0  0  0
  -32.1420  -20.1040   22.7420 C   0  0  0  0  0  3  0  0  0  0  0  0
  -32.0390  -22.3320   21.7680 C   0  0  0  0  0  3  0  0  0  0  0  0
  -33.1600  -20.5220   20.5540 C   0  0  0  0  0  0  0  0  0  0  0  0
  -31.6810  -21.4270   22.7980 C   0  0  0  0  0  0  0  0  0  0  0  0
  -33.8600  -20.0180   19.3380 C   0  0  0  0  0  0  0  0  0  0  0  0
  -34.3080  -20.7560   18.4550 O   0  0  0  0  0  0  0  0  0  0  0  0
  -33.9680  -18.4960   19.1620 C   0  0  0  0  0  2  0  0  0  0  0  0
  -32.5770  -17.8170   19.1070 C   0  0  0  0  0  2  0  0  0  0  0  0
  -32.3440  -16.6870   20.1360 C   0  0  0  0  0  2  0  0  0  0  0  0
  -33.1140  -15.3780   19.8780 C   0  0  0  0  0  0  0  0  0  0  0  0
  -33.0510  -12.9100   19.8110 C   0  0  0  0  0  2  0  0  0  0  0  0
  -32.1050  -12.4700   18.6720 C   0  0  0  0  0  2  0  0  0  0  0  0
  -30.6360  -12.4190   19.1470 C   0  0  0  0  0  2  0  0  0  0  0  0
  -30.2030  -13.6990   19.9110 C   0  0  0  0  0  3  0  0  0  0  0  0
  -31.2610  -14.0800   20.9740 C   0  0  0  0  0  2  0  0  0  0  0  0
  -32.5640  -14.2090   20.2980 N   0  0  0  0  0  0  0  0  0  0  0  0
  -34.1680  -15.4250   19.2350 O   0  0  0  0  0  0  0  0  0  0  0  0
  -28.0400  -14.5380   21.0380 C   0  0  0  0  0  0  0  0  0  0  0  0
  -26.8820  -13.8960   21.3970 C   0  0  0  0  0  0  0  0  0  0  0  0
  -27.0700  -12.5250   21.0440 C   0  0  0  0  0  0  0  0  0  0  0  0
  -28.8670  -13.5640   20.4990 N   0  0  0  0  0  0  0  0  0  0  0  0
  -28.2880  -12.3360   20.5500 N   0  0  0  0  0  0  0  0  0  0  0  0
  -26.1370  -11.3900   21.0930 C   0  0  0  0  0  0  0  0  0  0  0  0
  -26.4030  -10.2490   21.8820 C   0  0  0  0  0  3  0  0  0  0  0  0
  -25.4820   -9.1800   21.9230 C   0  0  0  0  0  3  0  0  0  0  0  0
  -24.2810   -9.2460   21.1760 C   0  0  0  0  0  0  0  0  0  0  0  0
  -24.0320  -10.3760   20.3760 C   0  0  0  0  0  3  0  0  0  0  0  0
  -24.9510  -11.4380   20.3330 C   0  0  0  0  0  3  0  0  0  0  0  0
  -23.3440   -8.2430   21.1350 O   0  0  0  0  0  0  0  0  0  0  0  0
  -22.9690   -7.5600   22.2660 C   0  0  0  0  0  0  0  0  0  0  0  0
  -22.3830   -8.2150   23.3710 C   0  0  0  0  0  3  0  0  0  0  0  0
  -21.9500   -7.4670   24.4820 C   0  0  0  0  0  3  0  0  0  0  0  0
  -22.0920   -6.0660   24.4880 C   0  0  0  0  0  0  0  0  0  0  0  0
  -22.6680   -5.4110   23.3870 C   0  0  0  0  0  3  0  0  0  0  0  0
  -23.1020   -6.1560   22.2760 C   0  0  0  0  0  0  0  0  0  0  0  0
  -23.6420   -5.5200   21.2080 F   0  0  0  0  0  0  0  0  0  0  0  0
  -21.6670   -5.3470   25.5530 F   0  0  0  0  0  0  0  0  0  0  0  0
  -25.6390  -14.5370   21.9500 C   0  0  0  0  0  0  0  0  0  0  0  0
  -24.8750  -13.8000   22.7560 N   0  0  0  0  0  0  0  0  0  0  0  0
  -25.3600  -15.7090   21.7060 O   0  0  0  0  0  0  0  0  0  0  0  0
  -25.1180  -12.8490   22.9780 H   0  0  0  0  0  0  0  0  0  0  0  0
  -24.0370  -14.1990   23.1510 H   0  0  0  0  0  0  0  0  0  0  0  0
  -28.4480  -15.8640   21.1120 N   0  0  0  0  0  0  0  0  0  0  0  0
  -27.8390  -16.5950   21.4690 H   0  0  0  0  0  0  0  0  0  0  0  0
  -29.3260  -16.2170   20.7450 H   0  0  0  0  0  0  0  0  0  0  0  0
  -28.9580  -22.3390   22.1660 C   0  0  0  0  0  2  0  0  0  0  0  0
  -27.4910  -22.3220   21.6910 C   0  0  0  0  0  2  0  0  0  0  0  0
  -25.7760  -22.7950   19.8870 C   0  0  0  0  0  1  0  0  0  0  0  0
  -27.2730  -22.8220   20.2400 C   0  0  0  0  0  3  0  0  0  0  0  0
  -28.0710  -22.0860   19.2130 N   0  0  0  0  0  4  0  0  0  0  0  0
  -28.9470  -21.7860   19.6140 H   0  0  0  0  0  0  0  0  0  0  0  0
  -27.5660  -21.2430   18.9870 H   0  0  0  0  0  0  0  0  0  0  0  0
  -28.3440  -22.8100   17.9330 C   0  0  0  0  0  2  0  0  0  0  0  0
  -29.2190  -24.1020   18.0520 C   0  0  0  0  0  2  0  0  0  0  0  0
  -28.7820  -25.2170   17.2450 O   0  0  0  0  0  0  0  0  0  0  0  0
  -25.5740  -28.0090   22.9790 C   0  0  0  0  0  0  0  0  0  0  0  0
  -27.6850  -25.8750   17.7560 C   0  0  0  0  0  0  0  0  0  0  0  0
  -24.1490  -27.6290   20.9980 C   0  0  0  0  0  3  0  0  0  0  0  0
  -25.3770  -27.1010   18.8310 C   0  0  0  0  0  0  0  0  0  0  0  0
  -26.6540  -28.0960   20.7330 C   0  0  0  0  0  2  0  0  0  0  0  0
  -26.6170  -27.2620   19.4670 C   0  0  0  0  0  0  0  0  0  0  0  0
  -27.7750  -26.6510   18.9350 C   0  0  0  0  0  3  0  0  0  0  0  0
  -26.4390  -25.7580   17.1080 C   0  0  0  0  0  3  0  0  0  0  0  0
  -25.2810  -26.3460   17.6520 C   0  0  0  0  0  3  0  0  0  0  0  0
  -24.1820  -27.7810   19.4560 C   0  0  0  0  0  2  0  0  0  0  0  0
  -25.4830  -27.8960   21.6240 N   0  0  0  0  0  0  0  0  0  0  0  0
  -24.5690  -27.9350   23.6980 O   0  0  0  0  0  0  0  0  0  0  0  0
  -23.5730  -26.2390   21.3460 C   0  0  0  0  0  0  0  0  0  0  0  0
  -22.3160  -25.9930   20.9430 N   0  0  0  0  0  0  0  0  0  0  0  0
  -24.2600  -25.4010   21.9370 O   0  0  0  0  0  0  0  0  0  0  0  0
  -21.8240  -26.7330   20.4630 H   0  0  0  0  0  0  0  0  0  0  0  0
  -19.2870  -24.2310   20.0620 C   0  0  0  0  0  0  0  0  0  0  0  0
  -21.5780  -24.7460   21.1380 C   0  0  0  0  0  3  0  0  0  0  0  0
  -22.1370  -23.6220   20.2330 C   0  0  0  0  0  2  0  0  0  0  0  0
  -21.4100  -23.5130   18.8900 C   0  0  0  0  0  2  0  0  0  0  0  0
  -19.9220  -23.2300   19.1100 C   0  0  0  0  0  2  0  0  0  0  0  0
  -20.0660  -24.9550   21.0030 C   0  0  0  0  0  0  0  0  0  0  0  0
  -19.4300  -25.8960   21.8410 C   0  0  0  0  0  3  0  0  0  0  0  0
  -18.0440  -26.1240   21.7460 C   0  0  0  0  0  3  0  0  0  0  0  0
  -17.2730  -25.3950   20.8230 C   0  0  0  0  0  3  0  0  0  0  0  0
  -17.8940  -24.4450   19.9900 C   0  0  0  0  0  3  0  0  0  0  0  0
  -26.9430  -28.2600   23.6880 C   0  0  0  0  0  3  0  0  0  0  0  0
  -26.8120  -29.4880   24.4820 N   0  0  0  0  0  0  0  0  0  0  0  0
  -27.3120  -30.6790   24.1230 C   0  0  0  0  0  0  0  0  0  0  0  0
  -28.0040  -30.8400   23.1130 O   0  0  0  0  0  0  0  0  0  0  0  0
  -26.2220  -29.4420   25.2970 H   0  0  0  0  0  0  0  0  0  0  0  0
  -25.8770  -32.7240   24.3900 C   0  0  0  0  0  1  0  0  0  0  0  0
  -26.9910  -31.8810   25.0300 C   0  0  0  0  0  3  0  0  0  0  0  0
  -29.1580  -32.0810   26.1650 C   0  0  0  0  0  1  0  0  0  0  0  0
  -28.1670  -32.7320   25.3120 N   0  0  0  0  0  0  0  0  0  0  0  0
  -27.8840  -33.5980   25.7630 H   0  0  0  0  0  0  0  0  0  0  0  0
  -27.4060  -27.0570   24.5970 C   0  0  1  0  0  0  0  0  0  0  0  0
  -26.3120  -26.5670   25.5740 C   0  0  0  0  0  1  0  0  0  0  0  0
  -27.8420  -25.8540   23.7280 C   0  0  0  0  0  1  0  0  0  0  0  0
  -28.6450  -27.4730   25.4270 C   0  0  0  0  0  1  0  0  0  0  0  0
  2  1  1  0
  3  1  1  0
  4 12  1  0
  4  2  1  0
  5  6  1  1
  5  4  1  0
  5  3  1  0
  7  9  1  0
  8 10  2  0
  9 12  2  0
 10 12  1  0
 11  8  1  0
 11  7  2  0
 13 11  1  0
 14 13  2  0
 15 13  1  0
 16 15  1  0
 16 17  1  0
 18 17  1  0
 18 24  1  0
 19 24  1  0
 20 21  1  0
 20 19  1  0
 22 21  1  0
 22 29  1  0
 22 23  1  0
 24 23  1  0
 25 18  2  0
 26 51  1  0
 26 27  2  0
 27 46  1  0
 28 31  1  0
 28 27  1  0
 29 30  1  0
 29 26  1  0
 30 28  2  0
 31 32  1  0
 32 33  2  0
 34 33  1  0
 35 34  2  0
 36 35  1  0
 36 31  2  0
 37 34  1  0
 37 38  1  0
 38 43  2  0
 38 39  1  0
 39 40  2  0
 40 41  1  0
 41 45  1  0
 42 41  2  0
 43 42  1  0
 44 43  1  0
 46 47  1  0
 47 49  1  0
 47 50  1  0
 48 46  2  0
 51 52  1  0
 53 51  1  0
 54  5  1  0
 55 54  1  0
 57 56  1  0
 57 55  1  0
 58 59  1  0
 58 57  1  0
 60 58  1  0
 61 62  1  0
 61 58  1  0
 63 65  1  0
 63 62  1  0
 64 75  2  0
 65 70  1  0
 66 76  1  0
 66 74  1  0
 67 73  1  0
 67 69  1  0
 68 74  1  0
 69 68  1  0
 70 69  2  0
 71 72  1  0
 71 65  2  0
 72 67  2  0
 73 66  1  0
 74 64  1  0
 76 78  2  0
 77 76  1  0
 79 77  1  0
 80 85  1  0
 81 77  1  0
 82 81  1  0
 83 84  1  0
 83 82  1  0
 84 80  1  0
 85 81  1  0
 85 86  2  0
 87 86  1  0
 88 87  2  0
 89 80  2  0
 89 88  1  0
 90 64  1  0
 90 91  1  0
 90100  1  0
 91 94  1  0
 92 91  1  0
 92 96  1  0
 93 92  2  0
 96 95  1  0
 96 98  1  0
 98 99  1  0
 98 97  1  0
100103  1  1
100101  1  0
102100  1  0
M  ISO  4  17 100  18 100  62 101  63 101
M  END
>  <TORSDO>  (68) 
F 27

>  <SCORE>  (68) 
3.536

>  <name>  (68) 
67

>  <ligand_id>  (68) 
67

>  <original_smiles>  (68) 
[H]c1c([H])c([H])c2c(c1[H])C([H])([H])C([H])([H])C([H])([H])C2([H])N([H])C(=O)C1([H])N(C(=O)C([H])(N([H])C(=O)C([H])(N([H])C([H])([H])[H])C([H])([H])[H])C(C([H])([H])[H])(C([H])([H])[H])C([H])([H])[H])C([H])([H])c2c([H])c(OC([H])([H])C([H])([H])[N+]([H])([H])C([H])(C([H])([H])[H])C([H])([H])C([H])([H])C3(C([H])([H])[H])C([H])([H])C([H])([H])C([H])([H])C3([H])c3c([H])c([H])c(C(=O)C([H])([H])C([H])([H])C([H])([H])C(=O)N4C([H])([H])C([H])([H])C([H])([H])C([H])(n5nc(-c6c([H])c([H])c(Oc7c([H])c([H])c(F)c([H])c7F)c([H])c6[H])c(C(=O)N([H])[H])c5N([H])[H])C4([H])[H])c([H])c3[H])c([H])c([H])c2C1([H])[H]

>  <smiles>  (68) 
[H]c1c([H])c([H])c2c(c1[H])C([H])([H])C([H])([H])C([H])([H])C2([H])N([H])C(=O)C1([H])N(C(=O)C([H])(N([H])C(=O)C([H])(N([H])C([H])([H])[H])C([H])([H])[H])C(C([H])([H])[H])(C([H])([H])[H])C([H])([H])[H])C([H])([H])c2c([H])c(OC([H])([H])C([H])([H])[N+]([H])([H])C([H])(C([H])([H])[H])C([H])([H])C([H])([H])C3(C([H])([H])[H])C([H])([H])C([H])([H])C([H])([H])C3([H])c3c([H])c([H])c(C(=O)C([H])([H])C([H])([H])C([H])([H])C(=O)N4C([H])([H])C([H])([H])C([H])([H])C([H])(n5nc(-c6c([H])c([H])c(Oc7c([H])c([H])c(F)c([H])c7F)c([H])c6[H])c(C(=O)N([H])[H])c5N([H])[H])C4([H])[H])c([H])c3[H])c([H])c([H])c2C1([H])[H]

$$$$
68:0:0
     RDKit          3D

 95102  0  0  1  0  0  0  0  0999 V2000
  -22.5300  -23.2750   18.9680 C   0  0  0  0  0  2  0  0  0  0  0  0
  -23.4810  -23.5800   20.1400 C   0  0  0  0  0  2  0  0  0  0  0  0
  -24.9630  -23.4060   19.7960 C   0  0  0  0  0  2  0  0  0  0  0  0
  -25.9030  -23.8380   20.9230 C   0  0  0  0  0  2  0  0  0  0  0  0
  -27.3480  -23.3800   20.6580 C   0  0  0  0  0  2  0  0  0  0  0  0
  -28.3980  -24.2640   21.3610 C   0  0  0  0  0  2  0  0  0  0  0  0
  -29.3190  -25.0460   20.3960 C   0  0  0  0  0  2  0  0  0  0  0  0
  -29.2220  -26.4500   20.6330 O   0  0  0  0  0  0  0  0  0  0  0  0
  -24.7470  -31.2840   23.3020 C   0  0  0  0  0  0  0  0  0  0  0  0
  -27.9850  -27.0540   20.5070 C   0  0  0  0  0  0  0  0  0  0  0  0
  -23.8080  -29.8040   21.5610 C   0  0  0  0  0  3  0  0  0  0  0  0
  -25.4920  -28.3750   20.2950 C   0  0  0  0  0  0  0  0  0  0  0  0
  -26.3100  -30.3360   21.6120 C   0  0  0  0  0  2  0  0  0  0  0  0
  -26.5480  -28.9750   20.9930 C   0  0  0  0  0  0  0  0  0  0  0  0
  -27.7910  -28.3170   21.1070 C   0  0  0  0  0  3  0  0  0  0  0  0
  -26.9080  -26.4710   19.7950 C   0  0  0  0  0  3  0  0  0  0  0  0
  -25.6650  -27.1150   19.7010 C   0  0  0  0  0  3  0  0  0  0  0  0
  -24.1950  -29.1440   20.2100 C   0  0  0  0  0  2  0  0  0  0  0  0
  -24.9670  -30.4910   22.2170 N   0  0  0  0  0  0  0  0  0  0  0  0
  -23.6010  -31.4780   23.7320 O   0  0  0  0  0  0  0  0  0  0  0  0
  -23.1390  -28.7360   22.4570 C   0  0  0  0  0  0  0  0  0  0  0  0
  -21.9070  -28.3420   22.0960 N   0  0  0  0  0  0  0  0  0  0  0  0
  -23.7320  -28.2670   23.4320 O   0  0  0  0  0  0  0  0  0  0  0  0
  -21.4850  -28.7830   21.2910 H   0  0  0  0  0  0  0  0  0  0  0  0
  -18.7380  -26.6090   22.0210 C   0  0  0  0  0  0  0  0  0  0  0  0
  -21.1010  -27.3290   22.7790 C   0  0  0  0  0  3  0  0  0  0  0  0
  -21.5480  -25.9020   22.3830 C   0  0  0  0  0  2  0  0  0  0  0  0
  -20.7640  -25.3500   21.1900 C   0  0  0  0  0  2  0  0  0  0  0  0
  -19.2740  -25.2710   21.5360 C   0  0  0  0  0  2  0  0  0  0  0  0
  -19.6020  -27.5830   22.5880 C   0  0  0  0  0  0  0  0  0  0  0  0
  -19.0650  -28.8290   22.9830 C   0  0  0  0  0  3  0  0  0  0  0  0
  -17.6930  -29.1040   22.8240 C   0  0  0  0  0  3  0  0  0  0  0  0
  -16.8400  -28.1270   22.2850 C   0  0  0  0  0  3  0  0  0  0  0  0
  -17.3610  -26.8820   21.8900 C   0  0  0  0  0  3  0  0  0  0  0  0
  -25.9200  -31.9980   24.0410 C   0  0  0  0  0  3  0  0  0  0  0  0
  -25.5080  -33.3870   24.2780 N   0  0  0  0  0  0  0  0  0  0  0  0
  -25.8470  -34.4230   23.4960 C   0  0  0  0  0  0  0  0  0  0  0  0
  -26.6120  -34.3140   22.5340 O   0  0  0  0  0  0  0  0  0  0  0  0
  -24.8390  -33.5410   25.0170 H   0  0  0  0  0  0  0  0  0  0  0  0
  -24.0400  -36.0770   22.9300 C   0  0  0  0  0  1  0  0  0  0  0  0
  -25.2460  -35.7990   23.8400 C   0  0  0  0  0  3  0  0  0  0  0  0
  -27.2580  -36.8690   24.7540 C   0  0  0  0  0  1  0  0  0  0  0  0
  -26.2160  -36.9090   23.7310 N   0  0  0  0  0  0  0  0  0  0  0  0
  -25.7450  -37.8080   23.7930 H   0  0  0  0  0  0  0  0  0  0  0  0
  -26.3260  -31.2980   25.3960 C   0  0  1  0  0  0  0  0  0  0  0  0
  -25.1210  -30.9610   26.3080 C   0  0  0  0  0  1  0  0  0  0  0  0
  -27.0910  -29.9820   25.1210 C   0  0  0  0  0  1  0  0  0  0  0  0
  -27.2880  -32.2140   26.1900 C   0  0  0  0  0  1  0  0  0  0  0  0
  -22.8600  -22.0140   18.1410 C   0  0  0  0  0  2  0  0  0  0  0  0
  -24.3250  -21.8570   17.6660 C   0  0  0  0  0  2  0  0  0  0  0  0
  -24.9620  -20.5400   18.1550 C   0  0  0  0  0  2  0  0  0  0  0  0
  -26.4960  -20.5700   18.2970 C   0  0  0  0  0  2  0  0  0  0  0  0
  -27.0440  -19.2390   18.8490 C   0  0  0  0  0  2  0  0  0  0  0  0
  -28.5220  -19.2830   19.2860 C   0  0  0  0  0  2  0  0  0  0  0  0
  -28.9180  -18.0260   20.0790 C   0  0  0  0  0  2  0  0  0  0  0  0
  -30.4060  -17.9440   20.4640 C   0  0  0  0  0  2  0  0  0  0  0  0
  -30.6610  -17.1600   21.7730 C   0  0  0  0  0  2  0  0  0  0  0  0
  -31.0450  -14.8120   21.0260 C   0  0  0  0  0  0  0  0  0  0  0  0
  -30.7360  -12.9410   19.4680 C   0  0  0  0  0  2  0  0  0  0  0  0
  -29.8710  -13.4480   18.2980 C   0  0  0  0  0  2  0  0  0  0  0  0
  -28.3740  -13.2880   18.6190 C   0  0  0  0  0  2  0  0  0  0  0  0
  -27.9980  -13.8500   20.0160 C   0  0  0  0  0  3  0  0  0  0  0  0
  -28.9850  -13.3670   21.1030 C   0  0  0  0  0  2  0  0  0  0  0  0
  -30.3500  -13.7050   20.6600 N   0  0  0  0  0  0  0  0  0  0  0  0
  -32.1990  -15.0470   20.6600 O   0  0  0  0  0  0  0  0  0  0  0  0
  -30.3110  -15.7460   21.6410 N   0  0  0  0  0  0  0  0  0  0  0  0
  -29.3700  -15.4810   21.8880 H   0  0  0  0  0  0  0  0  0  0  0  0
  -25.5290  -14.4170   20.4860 C   0  0  0  0  0  0  0  0  0  0  0  0
  -24.4490  -13.6250   20.7610 C   0  0  0  0  0  0  0  0  0  0  0  0
  -24.9410  -12.2840   20.7890 C   0  0  0  0  0  0  0  0  0  0  0  0
  -26.6100  -13.5590   20.3630 N   0  0  0  0  0  0  0  0  0  0  0  0
  -26.2550  -12.2720   20.6030 N   0  0  0  0  0  0  0  0  0  0  0  0
  -24.2330  -11.0080   20.9250 C   0  0  0  0  0  0  0  0  0  0  0  0
  -24.5990  -10.0610   21.9090 C   0  0  0  0  0  3  0  0  0  0  0  0
  -23.8920   -8.8480   22.0280 C   0  0  0  0  0  3  0  0  0  0  0  0
  -22.8030   -8.5720   21.1640 C   0  0  0  0  0  0  0  0  0  0  0  0
  -22.4610   -9.5100   20.1730 C   0  0  0  0  0  3  0  0  0  0  0  0
  -23.1690  -10.7150   20.0480 C   0  0  0  0  0  3  0  0  0  0  0  0
  -22.0720   -7.4090   21.1920 O   0  0  0  0  0  0  0  0  0  0  0  0
  -21.8180   -6.7480   22.3680 C   0  0  0  0  0  0  0  0  0  0  0  0
  -21.1810   -7.3840   23.4560 C   0  0  0  0  0  3  0  0  0  0  0  0
  -20.8740   -6.6480   24.6190 C   0  0  0  0  0  3  0  0  0  0  0  0
  -21.1970   -5.2800   24.6930 C   0  0  0  0  0  0  0  0  0  0  0  0
  -21.8270   -4.6450   23.6090 C   0  0  0  0  0  3  0  0  0  0  0  0
  -22.1330   -5.3770   22.4490 C   0  0  0  0  0  0  0  0  0  0  0  0
  -22.7210   -4.7560   21.3970 F   0  0  0  0  0  0  0  0  0  0  0  0
  -20.8990   -4.5700   25.8080 F   0  0  0  0  0  0  0  0  0  0  0  0
  -23.0210  -14.0720   20.8990 C   0  0  0  0  0  0  0  0  0  0  0  0
  -22.2400  -13.3770   21.7200 N   0  0  0  0  0  0  0  0  0  0  0  0
  -22.6010  -15.0700   20.3160 O   0  0  0  0  0  0  0  0  0  0  0  0
  -22.5940  -12.5700   22.2140 H   0  0  0  0  0  0  0  0  0  0  0  0
  -21.2780  -13.6530   21.8540 H   0  0  0  0  0  0  0  0  0  0  0  0
  -25.6670  -15.7910   20.3120 N   0  0  0  0  0  0  0  0  0  0  0  0
  -24.8650  -16.4100   20.3260 H   0  0  0  0  0  0  0  0  0  0  0  0
  -26.5240  -16.2620   20.0600 H   0  0  0  0  0  0  0  0  0  0  0  0
  1  2  1  0
  3  2  1  0
  3  4  1  0
  5  4  1  0
  5  6  1  0
  7  8  1  0
  7  6  1  0
  9 20  2  0
 10  8  1  0
 10 15  1  0
 11 19  1  0
 11 21  1  0
 12 14  1  0
 13 19  1  0
 14 15  2  0
 14 13  1  0
 16 10  2  0
 17 16  1  0
 17 12  2  0
 18 12  1  0
 18 11  1  0
 19  9  1  0
 21 23  2  0
 22 21  1  0
 24 22  1  0
 25 30  1  0
 26 22  1  0
 27 26  1  0
 28 29  1  0
 28 27  1  0
 29 25  1  0
 30 26  1  0
 30 31  2  0
 32 31  1  0
 33 32  2  0
 34 25  2  0
 34 33  1  0
 35  9  1  0
 35 36  1  0
 35 45  1  0
 36 39  1  0
 37 41  1  0
 37 36  1  0
 38 37  2  0
 41 40  1  0
 43 44  1  0
 43 41  1  0
 43 42  1  0
 45 48  1  1
 45 46  1  0
 47 45  1  0
 49  1  1  0
 50 49  1  0
 50 51  1  0
 51 52  1  0
 52 53  1  0
 53 54  1  0
 54 55  1  0
 55 56  1  0
 56 57  1  0
 58 66  1  0
 59 64  1  0
 60 61  1  0
 60 59  1  0
 62 61  1  0
 62 71  1  0
 62 63  1  0
 64 58  1  0
 64 63  1  0
 65 58  2  0
 66 57  1  0
 66 67  1  0
 68 69  2  0
 69 70  1  0
 69 88  1  0
 70 73  1  0
 71 68  1  0
 71 72  1  0
 72 70  2  0
 73 74  1  0
 74 75  2  0
 76 79  1  0
 76 75  1  0
 77 76  2  0
 78 77  1  0
 78 73  2  0
 79 80  1  0
 80 85  2  0
 80 81  1  0
 81 82  2  0
 82 83  1  0
 83 87  1  0
 84 83  2  0
 85 84  1  0
 86 85  1  0
 88 89  1  0
 89 92  1  0
 89 91  1  0
 90 88  2  0
 93 94  1  0
 93 68  1  0
 95 93  1  0
M  ISO  4   7 101   8 101  58 100  66 100
M  END
>  <TORSDO>  (69) 
F 31

>  <SCORE>  (69) 
-8.426

>  <name>  (69) 
68

>  <ligand_id>  (69) 
68

>  <original_smiles>  (69) 
[H]c1c([H])c([H])c2c(c1[H])C([H])([H])C([H])([H])C([H])([H])C2([H])N([H])C(=O)C1([H])N(C(=O)C([H])(N([H])C(=O)C([H])(N([H])C([H])([H])[H])C([H])([H])[H])C(C([H])([H])[H])(C([H])([H])[H])C([H])([H])[H])C([H])([H])c2c([H])c(OC([H])([H])C([H])([H])C([H])([H])C([H])([H])C([H])([H])C([H])([H])C([H])([H])C([H])([H])C([H])([H])C([H])([H])C([H])([H])C([H])([H])C([H])([H])C([H])([H])C([H])([H])C([H])([H])N([H])C(=O)N3C([H])([H])C([H])([H])C([H])([H])C([H])(n4nc(-c5c([H])c([H])c(Oc6c([H])c([H])c(F)c([H])c6F)c([H])c5[H])c(C(=O)N([H])[H])c4N([H])[H])C3([H])[H])c([H])c([H])c2C1([H])[H]

>  <smiles>  (69) 
[H]c1c([H])c([H])c2c(c1[H])C([H])([H])C([H])([H])C([H])([H])C2([H])N([H])C(=O)C1([H])N(C(=O)C([H])(N([H])C(=O)C([H])(N([H])C([H])([H])[H])C([H])([H])[H])C(C([H])([H])[H])(C([H])([H])[H])C([H])([H])[H])C([H])([H])c2c([H])c(OC([H])([H])C([H])([H])C([H])([H])C([H])([H])C([H])([H])C([H])([H])C([H])([H])C([H])([H])C([H])([H])C([H])([H])C([H])([H])C([H])([H])C([H])([H])C([H])([H])C([H])([H])C([H])([H])N([H])C(=O)N3C([H])([H])C([H])([H])C([H])([H])C([H])(n4nc(-c5c([H])c([H])c(Oc6c([H])c([H])c(F)c([H])c6F)c([H])c5[H])c(C(=O)N([H])[H])c4N([H])[H])C3([H])[H])c([H])c([H])c2C1([H])[H]

$$$$
69:0:0
     RDKit          3D

101109  0  0  1  0  0  0  0  0999 V2000
  -29.6380  -33.1420   21.7850 C   0  0  0  0  0  2  0  0  0  0  0  0
  -29.7440  -33.0630   20.2510 C   0  0  0  0  0  2  0  0  0  0  0  0
  -29.4980  -31.6990   22.2930 C   0  0  0  0  0  3  0  0  0  0  0  0
  -29.3730  -30.7290   20.8520 C   0  0  0  0  0  3  0  0  0  0  0  0
  -30.1670  -31.6240   19.8760 C   0  0  0  0  0  3  0  0  0  0  0  0
  -28.2780  -29.9660   23.3410 C   0  0  0  0  0  3  0  0  0  0  0  0
  -28.4150  -32.0970   25.3530 C   0  0  0  0  0  3  0  0  0  0  0  0
  -28.0190  -28.8370   24.3770 C   0  0  0  0  0  3  0  0  0  0  0  0
  -28.0580  -30.7300   26.5760 C   0  0  0  0  0  3  0  0  0  0  0  0
  -28.5600  -31.5240   23.6230 C   0  0  0  0  0  0  0  0  0  0  0  0
  -27.9000  -29.0500   25.9260 C   0  0  0  0  0  0  0  0  0  0  0  0
  -28.2000  -27.3850   26.3500 C   0  0  0  0  0  2  0  0  0  0  0  0
  -27.9640  -25.8160   25.4090 C   0  0  0  0  0  3  0  0  0  0  0  0
  -28.9510  -24.4240   24.7700 C   0  0  0  0  0  3  0  0  0  0  0  0
  -28.5780  -22.7250   24.2160 C   0  0  0  0  0  3  0  0  0  0  0  0
  -29.4990  -21.3660   23.4190 C   0  0  0  0  0  3  0  0  0  0  0  0
  -29.1650  -19.6160   23.0170 C   0  0  0  0  0  2  0  0  0  0  0  0
  -30.0240  -18.2830   22.1110 C   0  0  0  0  0  3  0  0  0  0  0  0
  -29.6890  -16.5190   21.7850 C   0  0  0  0  0  3  0  0  0  0  0  0
  -30.4450  -15.1750   20.8960 C   0  0  0  0  0  0  0  0  0  0  0  0
  -30.4640  -12.8300   19.6510 C   0  0  0  0  0  2  0  0  0  0  0  0
  -29.5740  -12.6650   18.3790 C   0  0  0  0  0  2  0  0  0  0  0  0
  -28.1160  -12.3510   18.7480 C   0  0  0  0  0  2  0  0  0  0  0  0
  -27.6390  -13.2720   19.8950 C   0  0  0  0  0  3  0  0  0  0  0  0
  -28.6300  -13.3330   21.0840 C   0  0  0  0  0  2  0  0  0  0  0  0
  -29.9070  -13.8780   20.6080 N   0  0  0  0  0  0  0  0  0  0  0  0
  -31.5790  -15.3030   20.4040 O   0  0  0  0  0  0  0  0  0  0  0  0
  -25.2430  -13.8230   20.5740 C   0  0  0  0  0  0  0  0  0  0  0  0
  -24.1750  -13.0430   20.9170 C   0  0  0  0  0  0  0  0  0  0  0  0
  -24.6390  -11.6920   20.8700 C   0  0  0  0  0  0  0  0  0  0  0  0
  -26.2880  -12.9500   20.3340 N   0  0  0  0  0  0  0  0  0  0  0  0
  -25.9340  -11.6600   20.5740 N   0  0  0  0  0  0  0  0  0  0  0  0
  -23.9080  -10.4290   21.0370 C   0  0  0  0  0  0  0  0  0  0  0  0
  -24.3630   -9.4210   21.9150 C   0  0  0  0  0  3  0  0  0  0  0  0
  -23.6310   -8.2250   22.0740 C   0  0  0  0  0  3  0  0  0  0  0  0
  -22.4280   -8.0280   21.3540 C   0  0  0  0  0  0  0  0  0  0  0  0
  -21.9910   -9.0240   20.4640 C   0  0  0  0  0  3  0  0  0  0  0  0
  -22.7240  -10.2120   20.3030 C   0  0  0  0  0  3  0  0  0  0  0  0
  -21.6650   -6.8870   21.4240 O   0  0  0  0  0  0  0  0  0  0  0  0
  -21.6870   -6.0730   22.5270 C   0  0  0  0  0  0  0  0  0  0  0  0
  -21.4020   -6.5640   23.8200 C   0  0  0  0  0  3  0  0  0  0  0  0
  -21.3660   -5.6790   24.9160 C   0  0  0  0  0  3  0  0  0  0  0  0
  -21.6050   -4.3050   24.7220 C   0  0  0  0  0  0  0  0  0  0  0  0
  -21.8820   -3.8140   23.4340 C   0  0  0  0  0  3  0  0  0  0  0  0
  -21.9200   -4.6960   22.3400 C   0  0  0  0  0  0  0  0  0  0  0  0
  -22.1670   -4.2150   21.0980 F   0  0  0  0  0  0  0  0  0  0  0  0
  -21.5620   -3.4540   25.7730 F   0  0  0  0  0  0  0  0  0  0  0  0
  -22.7770  -13.5190   21.1840 C   0  0  0  0  0  0  0  0  0  0  0  0
  -22.0460  -12.8170   22.0430 N   0  0  0  0  0  0  0  0  0  0  0  0
  -22.3440  -14.5490   20.6710 O   0  0  0  0  0  0  0  0  0  0  0  0
  -22.4140  -11.9830   22.4790 H   0  0  0  0  0  0  0  0  0  0  0  0
  -21.1070  -13.1150   22.2680 H   0  0  0  0  0  0  0  0  0  0  0  0
  -25.4100  -15.1960   20.4230 N   0  0  0  0  0  0  0  0  0  0  0  0
  -24.6440  -15.8500   20.5390 H   0  0  0  0  0  0  0  0  0  0  0  0
  -26.2680  -15.6390   20.1180 H   0  0  0  0  0  0  0  0  0  0  0  0
  -29.8980  -31.3360   18.4500 N   0  0  0  0  0  4  0  0  0  0  0  0
  -28.9180  -31.3970   18.2430 H   0  0  0  0  0  0  0  0  0  0  0  0
  -30.2150  -30.4130   18.2020 H   0  0  0  0  0  0  0  0  0  0  0  0
  -30.3810  -31.9950   17.8650 H   0  0  0  0  0  0  0  0  0  0  0  0
  -29.6680  -29.0200   20.5500 C   0  0  0  0  0  2  0  0  0  0  0  0
  -28.7750  -27.7480   20.1470 O   0  0  0  0  0  0  0  0  0  0  0  0
  -24.5690  -31.8720   23.1300 C   0  0  0  0  0  0  0  0  0  0  0  0
  -27.3780  -27.8160   20.1170 C   0  0  0  0  0  0  0  0  0  0  0  0
  -23.2710  -30.4730   21.4780 C   0  0  0  0  0  3  0  0  0  0  0  0
  -24.7390  -28.9010   20.0350 C   0  0  0  0  0  0  0  0  0  0  0  0
  -25.6830  -30.9480   21.1620 C   0  0  0  0  0  2  0  0  0  0  0  0
  -25.7760  -29.5480   20.6460 C   0  0  0  0  0  0  0  0  0  0  0  0
  -26.9550  -28.9170   20.7610 C   0  0  0  0  0  3  0  0  0  0  0  0
  -26.3350  -27.0640   19.4840 C   0  0  0  0  0  3  0  0  0  0  0  0
  -24.9950  -27.6120   19.4690 C   0  0  0  0  0  3  0  0  0  0  0  0
  -23.4640  -29.7240   20.0960 C   0  0  0  0  0  2  0  0  0  0  0  0
  -24.5130  -31.1310   21.9920 N   0  0  0  0  0  0  0  0  0  0  0  0
  -23.5300  -32.2190   23.7010 O   0  0  0  0  0  0  0  0  0  0  0  0
  -22.6580  -29.4480   22.4510 C   0  0  0  0  0  0  0  0  0  0  0  0
  -21.3360  -29.3100   22.3870 N   0  0  0  0  0  0  0  0  0  0  0  0
  -23.3400  -28.7170   23.1630 O   0  0  0  0  0  0  0  0  0  0  0  0
  -20.8200  -29.9160   21.7680 H   0  0  0  0  0  0  0  0  0  0  0  0
  -18.0040  -28.1350   22.8540 C   0  0  0  0  0  0  0  0  0  0  0  0
  -20.5520  -28.3520   23.1520 C   0  0  0  0  0  3  0  0  0  0  0  0
  -20.6530  -26.9310   22.5490 C   0  0  0  0  0  2  0  0  0  0  0  0
  -19.5570  -26.6350   21.5230 C   0  0  0  0  0  2  0  0  0  0  0  0
  -18.1720  -26.7930   22.1590 C   0  0  0  0  0  2  0  0  0  0  0  0
  -19.1270  -28.8710   23.3110 C   0  0  0  0  0  0  0  0  0  0  0  0
  -18.9310  -30.1370   23.9050 C   0  0  0  0  0  3  0  0  0  0  0  0
  -17.6350  -30.6620   24.0610 C   0  0  0  0  0  3  0  0  0  0  0  0
  -16.5230  -29.9170   23.6330 C   0  0  0  0  0  3  0  0  0  0  0  0
  -16.7070  -28.6590   23.0320 C   0  0  0  0  0  3  0  0  0  0  0  0
  -25.9580  -32.2100   23.8060 C   0  0  0  0  0  3  0  0  0  0  0  0
  -26.6050  -30.8750   24.8010 C   0  0  0  0  0  3  0  0  0  0  0  0
  -25.6330  -31.3460   26.0670 C   0  0  0  0  0  1  0  0  0  0  0  0
  -25.6560  -29.7130   24.4850 C   0  0  0  0  0  1  0  0  0  0  0  0
  -29.7390  -30.2990   25.1550 C   0  0  0  0  0 15  0  0  0  0  0  0
  -25.7710  -33.6400   24.3200 N   0  0  0  0  0  0  0  0  0  0  0  0
  -25.9350  -34.7910   23.5810 C   0  0  0  0  0  0  0  0  0  0  0  0
  -26.5000  -34.7900   22.4830 O   0  0  0  0  0  0  0  0  0  0  0  0
  -25.2840  -33.7340   25.1990 H   0  0  0  0  0  0  0  0  0  0  0  0
  -24.1590  -36.5990   23.2930 C   0  0  0  0  0  1  0  0  0  0  0  0
  -25.4150  -36.1730   24.0830 C   0  0  0  0  0  3  0  0  0  0  0  0
  -27.5450  -37.1550   24.8620 C   0  0  0  0  0  1  0  0  0  0  0  0
  -26.4050  -37.2730   23.9570 N   0  0  0  0  0  0  0  0  0  0  0  0
  -25.9630  -38.1720   24.1160 H   0  0  0  0  0  0  0  0  0  0  0  0
  1  3  1  0
  2  1  1  0
  3 10  1  0
  4 60  1  0
  4  3  1  0
  5 56  1  0
  5  2  1  0
  5  4  1  0
  6 10  2  0
  6  8  1  0
  7  9  2  0
  8 11  2  0
 10  7  1  0
 11 12  1  0
 11  9  1  0
 13 12  1  0
 14 13  2  0
 15 14  1  0
 16 15  2  0
 17 16  1  0
 18 17  1  0
 19 18  2  0
 20 19  1  0
 21 26  1  0
 22 23  1  0
 22 21  1  0
 24 23  1  0
 24 31  1  0
 24 25  1  0
 26 20  1  0
 26 25  1  0
 27 20  2  0
 28 29  2  0
 29 48  1  0
 30 29  1  0
 30 33  1  0
 31 28  1  0
 31 32  1  0
 32 30  2  0
 33 34  1  0
 34 35  2  0
 36 39  1  0
 36 35  1  0
 37 36  2  0
 38 37  1  0
 38 33  2  0
 39 40  1  0
 40 41  1  0
 41 42  2  0
 43 42  1  0
 43 47  1  0
 44 43  2  0
 45 40  2  0
 45 44  1  0
 46 45  1  0
 48 49  1  0
 49 52  1  0
 49 51  1  0
 50 48  2  0
 53 54  1  0
 53 28  1  0
 55 53  1  0
 57 56  1  0
 58 56  1  0
 59 56  1  0
 61 60  1  0
 62 73  2  0
 63 61  1  0
 63 68  1  0
 64 72  1  0
 64 74  1  0
 65 71  1  0
 65 67  1  0
 66 72  1  0
 67 68  2  0
 67 66  1  0
 69 63  2  0
 70 69  1  0
 70 65  2  0
 71 64  1  0
 72 62  1  0
 74 76  2  0
 75 74  1  0
 77 75  1  0
 78 87  2  0
 78 83  1  0
 79 75  1  0
 79 83  1  0
 80 79  1  0
 81 82  1  0
 81 80  1  0
 82 78  1  0
 83 84  2  0
 84 85  1  0
 86 85  2  0
 87 86  1  0
 88 62  1  0
 88 93  1  0
 88 89  1  0
 89 90  1  0
 91 89  1  0
 93 96  1  0
 94 98  1  0
 94 93  1  0
 95 94  2  0
 98 97  1  0
100 98  1  0
100101  1  0
100 99  1  0
M  ISO  4  19 100  20 100  60 101  61 101
M  END
>  <TORSDO>  (70) 
F 27

>  <SCORE>  (70) 
26.901

>  <name>  (70) 
69

>  <ligand_id>  (70) 
69

>  <original_smiles>  (70) 
[H]c1c([H])c([H])c2c(c1[H])C([H])([H])C([H])([H])C([H])([H])C2([H])N([H])C(=O)C1([H])N(C(=O)C([H])(N([H])C(=O)C([H])(N([H])C([H])([H])[H])C([H])([H])[H])C(C([H])([H])[H])(C([H])([H])[H])C([H])([H])[H])C([H])([H])c2c([H])c(OC([H])([H])C3([H])C([H])(c4c([H])c([H])c(C([H])([H])C([H])([H])C([H])([H])C([H])([H])C([H])([H])C([H])([H])C([H])([H])C([H])([H])C(=O)N5C([H])([H])C([H])([H])C([H])([H])C([H])(n6nc(-c7c([H])c([H])c(Oc8c([H])c([H])c(F)c([H])c8F)c([H])c7[H])c(C(=O)N([H])[H])c6N([H])[H])C5([H])[H])c([H])c4[H])C([H])([H])C([H])([H])C3([H])[N+]([H])([H])[H])c([H])c([H])c2C1([H])[H]

>  <smiles>  (70) 
[H]c1c([H])c([H])c2c(c1[H])C([H])([H])C([H])([H])C([H])([H])C2([H])N([H])C(=O)C1([H])N(C(=O)C([H])(N([H])C(=O)C([H])(N([H])C([H])([H])[H])C([H])([H])[H])C(C([H])([H])[H])(C([H])([H])[H])C([H])([H])[H])C([H])([H])c2c([H])c(OC([H])([H])C3([H])C([H])(c4c([H])c([H])c(C([H])([H])C([H])([H])C([H])([H])C([H])([H])C([H])([H])C([H])([H])C([H])([H])C([H])([H])C(=O)N5C([H])([H])C([H])([H])C([H])([H])C([H])(n6nc(-c7c([H])c([H])c(Oc8c([H])c([H])c(F)c([H])c8F)c([H])c7[H])c(C(=O)N([H])[H])c6N([H])[H])C5([H])[H])c([H])c4[H])C([H])([H])C([H])([H])C3([H])[N+]([H])([H])[H])c([H])c([H])c2C1([H])[H]

$$$$
70:0:0
     RDKit          3D

 91 92  0  0  1  0  0  0  0  0999 V2000
  -20.1860  -26.6390   20.6510 C   0  0  0  0  0  1  0  0  0  0  0  0
  -20.6250  -26.2870   23.5080 C   0  0  0  0  0  2  0  0  0  0  0  0
  -22.3890  -26.6360   24.2050 C   0  0  0  0  0  2  0  0  0  0  0  0
  -24.1720  -26.4320   23.6300 C   0  0  0  0  0  3  0  0  0  0  0  0
  -25.2120  -26.9550   22.2350 C   0  0  0  0  0  3  0  0  0  0  0  0
  -26.6560  -26.6550   21.4740 O   0  0  0  0  0  0  0  0  0  0  0  0
  -24.7770  -31.8650   23.2950 C   0  0  0  0  0  0  0  0  0  0  0  0
  -26.9520  -27.4590   20.3750 C   0  0  0  0  0  3  0  0  0  0  0  0
  -23.6400  -30.8080   21.3910 C   0  0  0  0  0  3  0  0  0  0  0  0
  -25.0260  -29.3180   19.8650 C   0  0  0  0  0  0  0  0  0  0  0  0
  -26.1380  -31.0070   21.3660 C   0  0  0  0  0  2  0  0  0  0  0  0
  -26.1610  -29.6960   20.5990 C   0  0  0  0  0  0  0  0  0  0  0  0
  -27.2230  -28.7900   20.7410 C   0  0  0  0  0  2  0  0  0  0  0  0
  -26.0570  -27.1920   19.3260 C   0  0  0  0  0  3  0  0  0  0  0  0
  -24.9920  -28.0960   19.1620 C   0  0  0  0  0  3  0  0  0  0  0  0
  -23.8650  -30.2700   19.9380 C   0  0  0  0  0  2  0  0  0  0  0  0
  -24.8710  -31.2490   22.0810 N   0  0  0  0  0  0  0  0  0  0  0  0
  -23.6800  -32.0730   23.8430 O   0  0  0  0  0  0  0  0  0  0  0  0
  -23.0400  -29.6870   22.1620 C   0  0  0  0  0  0  0  0  0  0  0  0
  -21.8000  -29.4850   21.8070 N   0  0  0  0  0  0  0  0  0  0  0  0
  -23.6480  -29.0270   23.0030 O   0  0  0  0  0  0  0  0  0  0  0  0
  -21.3680  -30.0590   21.0950 H   0  0  0  0  0  0  0  0  0  0  0  0
  -18.3220  -27.9870   22.9090 C   0  0  0  0  0  0  0  0  0  0  0  0
  -21.1480  -28.4100   22.3350 C   0  0  0  0  0  2  0  0  0  0  0  0
  -21.6950  -26.3730   21.8180 C   0  0  0  0  0  1  0  0  0  0  0  0
  -19.9010  -25.1750   22.0960 C   0  0  0  0  0  1  0  0  0  0  0  0
  -18.3290  -26.2620   22.5970 C   0  0  0  0  0  1  0  0  0  0  0  0
  -19.5360  -28.8900   22.8810 C   0  0  0  0  0  0  0  0  0  0  0  0
  -19.3990  -30.1000   23.6850 C   0  0  0  0  0  3  0  0  0  0  0  0
  -18.1920  -30.5730   24.2730 C   0  0  0  0  0  3  0  0  0  0  0  0
  -17.0080  -29.8570   24.0480 C   0  0  0  0  0  3  0  0  0  0  0  0
  -17.0910  -28.6010   23.3860 C   0  0  0  0  0  3  0  0  0  0  0  0
  -26.0470  -32.3700   24.0290 C   0  0  0  0  0  3  0  0  0  0  0  0
  -26.4380  -31.5180   25.2940 C   0  0  1  0  0  0  0  0  0  0  0  0
  -25.2840  -31.3370   26.3080 C   0  0  0  0  0  1  0  0  0  0  0  0
  -26.9270  -30.1130   24.8720 C   0  0  0  0  0  1  0  0  0  0  0  0
  -27.6200  -32.1990   26.0230 C   0  0  0  0  0  1  0  0  0  0  0  0
  -25.7890  -33.7680   24.3880 N   0  0  0  0  0  0  0  0  0  0  0  0
  -26.1560  -34.8110   23.6350 C   0  0  0  0  0  0  0  0  0  0  0  0
  -26.8280  -34.6910   22.6070 O   0  0  0  0  0  0  0  0  0  0  0  0
  -25.2000  -33.9340   25.1920 H   0  0  0  0  0  0  0  0  0  0  0  0
  -24.5200  -36.6830   23.2680 C   0  0  0  0  0  1  0  0  0  0  0  0
  -25.7190  -36.2090   24.1050 C   0  0  0  0  0  3  0  0  0  0  0  0
  -27.8710  -36.9640   25.0130 C   0  0  0  0  0  1  0  0  0  0  0  0
  -26.8040  -37.2130   24.0470 N   0  0  0  0  0  0  0  0  0  0  0  0
  -26.4370  -38.1470   24.2140 H   0  0  0  0  0  0  0  0  0  0  0  0
  -21.4010  -25.4080   19.4530 C   0  0  0  0  0 15  0  0  0  0  0  0
  -22.6640  -23.8230   19.4630 C   0  0  0  0  0  1  0  0  0  0  0  0
  -24.3610  -22.9240   19.2610 C   0  0  0  0  0  0  0  0  0  0  0  0
  -25.2830  -23.7380   19.3040 O   0  0  0  0  0  0  0  0  0  0  0  0
  -25.1180  -21.1820   19.0630 C   0  0  0  0  0  1  0  0  0  0  0  0
  -26.8670  -20.2140   19.1440 C   0  0  0  0  0 15  0  0  0  0  0  0
  -27.7610  -18.4230   19.0940 C   0  0  0  0  0  1  0  0  0  0  0  0
  -30.3540  -16.3570   19.5680 C   0  0  0  0  0  0  0  0  0  0  0  0
  -31.0010  -13.7810   19.2540 C   0  0  0  0  0  2  0  0  0  0  0  0
  -30.2240  -13.1630   18.0650 C   0  0  0  0  0  2  0  0  0  0  0  0
  -28.7790  -12.8320   18.4850 C   0  0  0  0  0  2  0  0  0  0  0  0
  -28.1860  -13.9430   19.3840 C   0  0  0  0  0  3  0  0  0  0  0  0
  -29.0960  -14.3500   20.5270 C   0  0  0  0  0  2  0  0  0  0  0  0
  -30.1730  -14.9530   19.7980 N   0  0  0  0  0  0  0  0  0  0  0  0
  -31.6040  -16.4750   19.4470 O   0  0  0  0  0  0  0  0  0  0  0  0
  -29.3500  -17.5940   19.3980 N   0  0  0  0  0  0  0  0  0  0  0  0
  -30.0170  -18.3540   19.3830 H   0  0  0  0  0  0  0  0  0  0  0  0
  -25.9120  -14.5930   20.2060 C   0  0  0  0  0  0  0  0  0  0  0  0
  -24.8400  -13.8630   20.6110 C   0  0  0  0  0  0  0  0  0  0  0  0
  -25.2560  -12.4950   20.5580 C   0  0  0  0  0  0  0  0  0  0  0  0
  -26.8860  -13.6690   19.9050 N   0  0  0  0  0  0  0  0  0  0  0  0
  -26.5250  -12.4020   20.1980 N   0  0  0  0  0  0  0  0  0  0  0  0
  -24.4940  -11.2640   20.7470 C   0  0  0  0  0  0  0  0  0  0  0  0
  -24.8880  -10.2870   21.6870 C   0  0  0  0  0  3  0  0  0  0  0  0
  -24.1170   -9.1190   21.8570 C   0  0  0  0  0  3  0  0  0  0  0  0
  -22.9450   -8.9240   21.0870 C   0  0  0  0  0  0  0  0  0  0  0  0
  -22.5810   -9.8880   20.1320 C   0  0  0  0  0  3  0  0  0  0  0  0
  -23.3500  -11.0450   19.9570 C   0  0  0  0  0  3  0  0  0  0  0  0
  -22.1480   -7.8110   21.1690 O   0  0  0  0  0  0  0  0  0  0  0  0
  -22.0010   -7.1230   22.3470 C   0  0  0  0  0  0  0  0  0  0  0  0
  -21.5450   -7.7510   23.5260 C   0  0  0  0  0  3  0  0  0  0  0  0
  -21.3390   -6.9890   24.6940 C   0  0  0  0  0  3  0  0  0  0  0  0
  -21.5830   -5.6020   24.6830 C   0  0  0  0  0  0  0  0  0  0  0  0
  -22.0340   -4.9760   23.5080 C   0  0  0  0  0  3  0  0  0  0  0  0
  -22.2410   -5.7350   22.3430 C   0  0  0  0  0  0  0  0  0  0  0  0
  -22.6560   -5.1250   21.2070 F   0  0  0  0  0  0  0  0  0  0  0  0
  -21.3810   -4.8670   25.8020 F   0  0  0  0  0  0  0  0  0  0  0  0
  -23.4790  -14.4020   20.9120 C   0  0  0  0  0  0  0  0  0  0  0  0
  -22.7470  -13.7390   21.7970 N   0  0  0  0  0  0  0  0  0  0  0  0
  -23.0790  -15.4460   20.3970 O   0  0  0  0  0  0  0  0  0  0  0  0
  -23.0920  -12.8910   22.2270 H   0  0  0  0  0  0  0  0  0  0  0  0
  -21.8300  -14.0750   22.0500 H   0  0  0  0  0  0  0  0  0  0  0  0
  -26.1240  -15.9510   20.0340 N   0  0  0  0  0  0  0  0  0  0  0  0
  -25.3750  -16.6280   20.1380 H   0  0  0  0  0  0  0  0  0  0  0  0
  -26.9670  -16.3410   19.6330 H   0  0  0  0  0  0  0  0  0  0  0  0
  1 25  1  0
  2  3  1  0
  4  3  1  0
  5  4  2  0
  6  5  1  0
  7 18  2  0
  8 13  1  0
  8  6  1  0
  9 17  1  0
  9 19  1  0
 10 16  1  0
 10 12  2  0
 11 17  1  0
 12 13  1  0
 12 11  1  0
 14  8  1  0
 15 14  2  0
 15 10  1  0
 16  9  1  0
 17  7  1  0
 19 21  2  0
 20 19  1  0
 20 24  1  0
 22 20  1  0
 23 32  1  0
 24 28  1  0
 26  2  1  0
 27 23  1  0
 28 23  2  0
 28 29  1  0
 29 30  2  0
 31 30  1  0
 32 31  2  0
 33  7  1  0
 33 38  1  0
 33 34  1  0
 34 37  1  1
 34 35  1  0
 36 34  1  0
 38 41  1  0
 39 43  1  0
 39 38  1  0
 40 39  2  0
 43 42  1  0
 45 43  1  0
 45 46  1  0
 45 44  1  0
 49 50  2  0
 49 48  1  0
 51 49  1  0
 53 62  1  0
 54 60  1  0
 55 60  1  0
 56 57  1  0
 56 55  1  0
 58 57  1  0
 58 67  1  0
 58 59  1  0
 60 59  1  0
 61 54  2  0
 62 54  1  0
 63 62  1  0
 64 65  2  0
 65 84  1  0
 66 65  1  0
 66 69  1  0
 67 68  1  0
 67 64  1  0
 68 66  2  0
 69 70  1  0
 70 71  2  0
 72 75  1  0
 72 71  1  0
 73 72  2  0
 74 73  1  0
 74 69  2  0
 75 76  1  0
 76 77  1  0
 77 78  2  0
 79 78  1  0
 79 83  1  0
 80 79  2  0
 81 76  2  0
 81 80  1  0
 82 81  1  0
 84 85  1  0
 85 88  1  0
 85 87  1  0
 86 84  2  0
 89 90  1  0
 89 64  1  0
 91 89  1  0
M  ISO  4   5 101   6 101  54 100  62 100
M  END
>  <TORSDO>  (71) 
F 26

>  <SCORE>  (71) 
-13.473

>  <name>  (71) 
70

>  <ligand_id>  (71) 
70

>  <original_smiles>  (71) 
[H]c1c([H])c([H])c2c(c1[H])C([H])([H])C([H])([H])C([H])([H])C2([H])N([H])C(=O)C1([H])N(C(=O)C([H])(N([H])C(=O)C([H])(N([H])C([H])([H])[H])C([H])([H])[H])C(C([H])([H])[H])(C([H])([H])[H])C([H])([H])[H])C([H])([H])c2c([H])c(OC([H])([H])C([H])([H])C([H])([H])C([H])([H])C([H])([H])C([H])([H])C([H])([H])C(=O)C([H])([H])C([H])([H])C([H])([H])N([H])C(=O)N3C([H])([H])C([H])([H])C([H])([H])C([H])(n4nc(-c5c([H])c([H])c(Oc6c([H])c([H])c(F)c([H])c6F)c([H])c5[H])c(C(=O)N([H])[H])c4N([H])[H])C3([H])[H])c([H])c([H])c2C1([H])[H]

>  <smiles>  (71) 
[H]c1c([H])c([H])c2c(c1[H])C([H])([H])C([H])([H])C([H])([H])C2([H])N([H])C(=O)C1([H])N(C(=O)C([H])(N([H])C(=O)C([H])(N([H])C([H])([H])[H])C([H])([H])[H])C(C([H])([H])[H])(C([H])([H])[H])C([H])([H])[H])C([H])([H])c2c([H])c(OC([H])([H])C([H])([H])C([H])([H])C([H])([H])C([H])([H])C([H])([H])C([H])([H])C(=O)C([H])([H])C([H])([H])C([H])([H])N([H])C(=O)N3C([H])([H])C([H])([H])C([H])([H])C([H])(n4nc(-c5c([H])c([H])c(Oc6c([H])c([H])c(F)c([H])c6F)c([H])c5[H])c(C(=O)N([H])[H])c4N([H])[H])C3([H])[H])c([H])c([H])c2C1([H])[H]

$$$$
71:0:0
     RDKit          3D

104113  0  0  1  0  0  0  0  0999 V2000
  -29.5270  -21.0140   15.3010 C   0  0  0  0  0  3  0  0  0  0  0  0
  -30.1950  -19.2670   16.8690 C   0  0  0  0  0  3  0  0  0  0  0  0
  -30.3910  -21.9180   15.9450 C   0  0  0  0  0  3  0  0  0  0  0  0
  -31.0520  -20.1750   17.5210 C   0  0  0  0  0  3  0  0  0  0  0  0
  -29.3940  -19.6970   15.7890 C   0  0  0  0  0  0  0  0  0  0  0  0
  -31.1240  -21.5130   17.0810 C   0  0  0  0  0  0  0  0  0  0  0  0
  -28.2970  -18.7950   15.2500 C   0  0  0  0  0  2  0  0  0  0  0  0
  -27.2430  -18.4630   16.3290 C   0  0  0  0  0  2  0  0  0  0  0  0
  -26.8990  -19.6410   17.2780 C   0  0  0  0  0  2  0  0  0  0  0  0
  -26.1970  -19.2450   18.5910 C   0  0  0  0  0  2  0  0  0  0  0  0
  -26.8920  -18.1450   19.4180 C   0  0  0  0  0  2  0  0  0  0  0  0
  -28.2830  -18.4860   19.9960 C   0  0  0  0  0  2  0  0  0  0  0  0
  -29.1500  -17.2290   20.1990 C   0  0  0  0  0  2  0  0  0  0  0  0
  -30.2120  -17.3610   21.3060 C   0  0  0  0  0  2  0  0  0  0  0  0
  -31.3390  -16.3110   21.2170 C   0  0  0  0  0  2  0  0  0  0  0  0
  -31.3600  -13.9910   20.3140 C   0  0  0  0  0  0  0  0  0  0  0  0
  -30.8460  -11.9810   18.9920 C   0  0  0  0  0  2  0  0  0  0  0  0
  -29.8990  -12.3550   17.8340 C   0  0  0  0  0  2  0  0  0  0  0  0
  -28.4280  -12.3060   18.2950 C   0  0  0  0  0  2  0  0  0  0  0  0
  -28.1870  -13.0700   19.6240 C   0  0  0  0  0  3  0  0  0  0  0  0
  -29.2410  -12.6730   20.6840 C   0  0  0  0  0  2  0  0  0  0  0  0
  -30.5790  -12.9010   20.1090 N   0  0  0  0  0  0  0  0  0  0  0  0
  -32.4450  -14.1600   19.7510 O   0  0  0  0  0  0  0  0  0  0  0  0
  -30.8260  -14.9430   21.0930 N   0  0  0  0  0  0  0  0  0  0  0  0
  -29.9490  -14.7260   21.5450 H   0  0  0  0  0  0  0  0  0  0  0  0
  -25.8320  -13.8080   20.3580 C   0  0  0  0  0  0  0  0  0  0  0  0
  -24.7220  -13.1000   20.7280 C   0  0  0  0  0  0  0  0  0  0  0  0
  -25.1040  -11.7260   20.6840 C   0  0  0  0  0  0  0  0  0  0  0  0
  -26.8240  -12.8720   20.1110 N   0  0  0  0  0  0  0  0  0  0  0  0
  -26.3880  -11.6110   20.3650 N   0  0  0  0  0  0  0  0  0  0  0  0
  -24.3080  -10.5100   20.8770 C   0  0  0  0  0  0  0  0  0  0  0  0
  -24.6650   -9.5430   21.8430 C   0  0  0  0  0  3  0  0  0  0  0  0
  -23.8720   -8.3900   22.0260 C   0  0  0  0  0  3  0  0  0  0  0  0
  -22.7080   -8.1980   21.2440 C   0  0  0  0  0  0  0  0  0  0  0  0
  -22.3730   -9.1510   20.2660 C   0  0  0  0  0  3  0  0  0  0  0  0
  -23.1650  -10.2960   20.0810 C   0  0  0  0  0  3  0  0  0  0  0  0
  -21.8890   -7.1000   21.3370 O   0  0  0  0  0  0  0  0  0  0  0  0
  -21.7240   -6.4230   22.5190 C   0  0  0  0  0  0  0  0  0  0  0  0
  -21.2440   -7.0620   23.6830 C   0  0  0  0  0  3  0  0  0  0  0  0
  -21.0220   -6.3130   24.8550 C   0  0  0  0  0  3  0  0  0  0  0  0
  -21.2680   -4.9270   24.8640 C   0  0  0  0  0  0  0  0  0  0  0  0
  -21.7440   -4.2900   23.7050 C   0  0  0  0  0  3  0  0  0  0  0  0
  -21.9690   -5.0360   22.5350 C   0  0  0  0  0  0  0  0  0  0  0  0
  -22.4060   -4.4120   21.4150 F   0  0  0  0  0  0  0  0  0  0  0  0
  -21.0480   -4.2070   25.9880 F   0  0  0  0  0  0  0  0  0  0  0  0
  -23.3580  -13.6590   21.0140 C   0  0  0  0  0  0  0  0  0  0  0  0
  -22.6060  -13.0150   21.9000 N   0  0  0  0  0  0  0  0  0  0  0  0
  -22.9690  -14.7010   20.4880 O   0  0  0  0  0  0  0  0  0  0  0  0
  -22.9350  -12.1730   22.3500 H   0  0  0  0  0  0  0  0  0  0  0  0
  -21.6880  -13.3670   22.1310 H   0  0  0  0  0  0  0  0  0  0  0  0
  -26.0690  -15.1650   20.1970 N   0  0  0  0  0  0  0  0  0  0  0  0
  -25.3400  -15.8550   20.3340 H   0  0  0  0  0  0  0  0  0  0  0  0
  -26.9410  -15.5660   19.8790 H   0  0  0  0  0  0  0  0  0  0  0  0
  -31.9120  -22.5410   17.8700 C   0  0  0  0  0  2  0  0  0  0  0  0
  -31.0340  -23.0860   18.9220 N   0  0  0  0  0  4  0  0  0  0  0  0
  -30.1410  -23.2800   18.5010 H   0  0  0  0  0  0  0  0  0  0  0  0
  -30.8910  -22.3600   19.6040 H   0  0  0  0  0  0  0  0  0  0  0  0
  -31.5890  -26.7410   19.5820 C   0  0  0  0  0  2  0  0  0  0  0  0
  -31.6820  -25.5100   18.6760 C   0  0  0  0  0  2  0  0  0  0  0  0
  -30.5080  -24.8060   20.6570 C   0  0  0  0  0  2  0  0  0  0  0  0
  -30.8190  -26.3020   20.8420 C   0  0  0  0  0  3  0  0  0  0  0  0
  -31.5130  -24.3040   19.6100 C   0  0  0  0  0  3  0  0  0  0  0  0
  -29.5880  -27.1780   21.1400 C   0  0  0  0  0  2  0  0  0  0  0  0
  -28.6260  -27.0180   20.0990 O   0  0  0  0  0  0  0  0  0  0  0  0
  -24.7120  -31.9830   23.4260 C   0  0  0  0  0  0  0  0  0  0  0  0
  -27.4660  -27.7530   20.1880 C   0  0  0  0  0  0  0  0  0  0  0  0
  -23.5380  -30.6420   21.7050 C   0  0  0  0  0  3  0  0  0  0  0  0
  -25.0300  -29.1850   20.2350 C   0  0  0  0  0  0  0  0  0  0  0  0
  -26.0530  -31.0520   21.5500 C   0  0  0  0  0  2  0  0  0  0  0  0
  -26.1650  -29.7100   20.8650 C   0  0  0  0  0  0  0  0  0  0  0  0
  -27.3810  -28.9980   20.8520 C   0  0  0  0  0  3  0  0  0  0  0  0
  -26.3180  -27.2400   19.5500 C   0  0  0  0  0  3  0  0  0  0  0  0
  -25.0970  -27.9430   19.5790 C   0  0  0  0  0  3  0  0  0  0  0  0
  -23.7700  -30.0190   20.3010 C   0  0  0  0  0  2  0  0  0  0  0  0
  -24.7840  -31.2370   22.2880 N   0  0  0  0  0  0  0  0  0  0  0  0
  -23.6230  -32.2170   23.9680 O   0  0  0  0  0  0  0  0  0  0  0  0
  -22.8910  -29.5720   22.6130 C   0  0  0  0  0  0  0  0  0  0  0  0
  -21.5750  -29.3640   22.4440 N   0  0  0  0  0  0  0  0  0  0  0  0
  -23.5690  -28.9340   23.4220 O   0  0  0  0  0  0  0  0  0  0  0  0
  -21.0900  -29.9320   21.7640 H   0  0  0  0  0  0  0  0  0  0  0  0
  -18.2350  -28.0280   22.7500 C   0  0  0  0  0  0  0  0  0  0  0  0
  -20.7620  -28.3810   23.1580 C   0  0  0  0  0  3  0  0  0  0  0  0
  -20.9520  -26.9660   22.5640 C   0  0  0  0  0  2  0  0  0  0  0  0
  -19.9170  -26.6180   21.4900 C   0  0  0  0  0  2  0  0  0  0  0  0
  -18.4990  -26.6990   22.0640 C   0  0  0  0  0  2  0  0  0  0  0  0
  -19.2980  -28.8260   23.2490 C   0  0  0  0  0  0  0  0  0  0  0  0
  -19.0010  -30.0700   23.8460 C   0  0  0  0  0  3  0  0  0  0  0  0
  -17.6700  -30.5180   23.9520 C   0  0  0  0  0  3  0  0  0  0  0  0
  -16.6200  -29.7180   23.4700 C   0  0  0  0  0  3  0  0  0  0  0  0
  -16.9020  -28.4740   22.8750 C   0  0  0  0  0  3  0  0  0  0  0  0
  -25.9870  -32.5950   24.0870 C   0  0  0  0  0  3  0  0  0  0  0  0
  -25.7040  -34.0080   24.3680 N   0  0  0  0  0  0  0  0  0  0  0  0
  -26.1020  -35.0300   23.5990 C   0  0  0  0  0  0  0  0  0  0  0  0
  -26.8190  -34.8820   22.6060 O   0  0  0  0  0  0  0  0  0  0  0  0
  -25.0750  -34.2000   25.1350 H   0  0  0  0  0  0  0  0  0  0  0  0
  -24.4430  -36.8550   23.1130 C   0  0  0  0  0  1  0  0  0  0  0  0
  -25.6310  -36.4420   23.9960 C   0  0  0  0  0  3  0  0  0  0  0  0
  -27.7460  -37.2920   24.9090 C   0  0  0  0  0  1  0  0  0  0  0  0
  -26.6950  -37.4650   23.9080 N   0  0  0  0  0  0  0  0  0  0  0  0
  -26.3080  -38.3990   24.0140 H   0  0  0  0  0  0  0  0  0  0  0  0
  -26.4330  -31.8410   25.4000 C   0  0  1  0  0  0  0  0  0  0  0  0
  -25.2920  -31.6580   26.4270 C   0  0  0  0  0  1  0  0  0  0  0  0
  -26.9930  -30.4400   25.0590 C   0  0  0  0  0  1  0  0  0  0  0  0
  -27.5770  -32.6200   26.0900 C   0  0  0  0  0  1  0  0  0  0  0  0
  1  5  2  0
  1  3  1  0
  2  4  2  0
  3  6  2  0
  5  2  1  0
  6  4  1  0
  6 54  1  0
  7  5  1  0
  7  8  1  0
  8  9  1  0
  9 10  1  0
 10 11  1  0
 11 12  1  0
 12 13  1  0
 13 14  1  0
 15 14  1  0
 16 24  1  0
 17 22  1  0
 18 19  1  0
 18 17  1  0
 20 19  1  0
 20 29  1  0
 20 21  1  0
 22 16  1  0
 22 21  1  0
 23 16  2  0
 24 15  1  0
 24 25  1  0
 26 27  2  0
 27 46  1  0
 28 27  1  0
 28 31  1  0
 29 26  1  0
 29 30  1  0
 30 28  2  0
 31 32  1  0
 32 33  2  0
 34 37  1  0
 34 33  1  0
 35 34  2  0
 36 35  1  0
 36 31  2  0
 37 38  1  0
 38 43  2  0
 38 39  1  0
 39 40  2  0
 40 41  1  0
 41 45  1  0
 42 41  2  0
 43 42  1  0
 44 43  1  0
 46 47  1  0
 47 50  1  0
 47 49  1  0
 48 46  2  0
 51 52  1  0
 51 26  1  0
 53 51  1  0
 54 55  1  0
 55 57  1  0
 56 55  1  0
 58 61  1  0
 59 58  1  0
 59 62  1  0
 60 61  1  0
 61 63  1  0
 62 55  1  0
 62 60  1  0
 64 66  1  0
 64 63  1  0
 65 76  2  0
 66 71  1  0
 67 75  1  0
 67 77  1  0
 68 74  1  0
 68 70  1  0
 69 75  1  0
 70 69  1  0
 71 70  2  0
 72 73  1  0
 72 66  2  0
 73 68  2  0
 74 67  1  0
 75 65  1  0
 77 79  2  0
 78 77  1  0
 80 78  1  0
 81 90  2  0
 81 86  1  0
 82 78  1  0
 82 86  1  0
 83 82  1  0
 84 85  1  0
 84 83  1  0
 85 81  1  0
 86 87  2  0
 87 88  1  0
 89 88  2  0
 90 89  1  0
 91 65  1  0
 91 92  1  0
 91101  1  0
 92 95  1  0
 93 97  1  0
 93 92  1  0
 94 93  2  0
 97 96  1  0
 99 97  1  0
 99100  1  0
 99 98  1  0
101104  1  1
101102  1  0
103101  1  0
M  ISO  4  16 100  24 100  63 101  64 101
M  END
>  <TORSDO>  (72) 
F 29

>  <SCORE>  (72) 
-10.071

>  <name>  (72) 
71

>  <ligand_id>  (72) 
71

>  <original_smiles>  (72) 
[H]c1c([H])c([H])c2c(c1[H])C([H])([H])C([H])([H])C([H])([H])C2([H])N([H])C(=O)C1([H])N(C(=O)C([H])(N([H])C(=O)C([H])(N([H])C([H])([H])[H])C([H])([H])[H])C(C([H])([H])[H])(C([H])([H])[H])C([H])([H])[H])C([H])([H])c2c([H])c(OC([H])([H])C3([H])C([H])([H])C([H])([H])C([H])([N+]([H])([H])C([H])([H])c4c([H])c([H])c(C([H])([H])C([H])([H])C([H])([H])C([H])([H])C([H])([H])C([H])([H])C([H])([H])C([H])([H])C([H])([H])N([H])C(=O)N5C([H])([H])C([H])([H])C([H])([H])C([H])(n6nc(-c7c([H])c([H])c(Oc8c([H])c([H])c(F)c([H])c8F)c([H])c7[H])c(C(=O)N([H])[H])c6N([H])[H])C5([H])[H])c([H])c4[H])C3([H])[H])c([H])c([H])c2C1([H])[H]

>  <smiles>  (72) 
[H]c1c([H])c([H])c2c(c1[H])C([H])([H])C([H])([H])C([H])([H])C2([H])N([H])C(=O)C1([H])N(C(=O)C([H])(N([H])C(=O)C([H])(N([H])C([H])([H])[H])C([H])([H])[H])C(C([H])([H])[H])(C([H])([H])[H])C([H])([H])[H])C([H])([H])c2c([H])c(OC([H])([H])C3([H])C([H])([H])C([H])([H])C([H])([N+]([H])([H])C([H])([H])c4c([H])c([H])c(C([H])([H])C([H])([H])C([H])([H])C([H])([H])C([H])([H])C([H])([H])C([H])([H])C([H])([H])C([H])([H])N([H])C(=O)N5C([H])([H])C([H])([H])C([H])([H])C([H])(n6nc(-c7c([H])c([H])c(Oc8c([H])c([H])c(F)c([H])c8F)c([H])c7[H])c(C(=O)N([H])[H])c6N([H])[H])C5([H])[H])c([H])c4[H])C3([H])[H])c([H])c([H])c2C1([H])[H]

$$$$
72:0:0
     RDKit          3D

 99107  0  0  1  0  0  0  0  0999 V2000
  -21.8010  -23.9390   20.5510 C   0  0  0  0  0  3  0  0  0  0  0  0
  -22.0830  -24.3930   19.2490 C   0  0  0  0  0  3  0  0  0  0  0  0
  -22.8460  -23.7400   21.4770 C   0  0  0  0  0  3  0  0  0  0  0  0
  -24.4450  -24.5060   19.8230 C   0  0  0  0  0  3  0  0  0  0  0  0
  -23.4140  -24.6700   18.8780 C   0  0  0  0  0  0  0  0  0  0  0  0
  -24.1880  -24.0210   21.1240 C   0  0  0  0  0  0  0  0  0  0  0  0
  -24.9660  -24.0040   23.5870 C   0  0  0  0  0  1  0  0  0  0  0  0
  -25.3560  -23.8240   22.1040 C   0  0  0  0  0  3  0  0  0  0  0  0
  -26.0800  -22.4620   21.9040 C   0  0  0  0  0  2  0  0  0  0  0  0
  -26.7510  -22.2790   20.5230 C   0  0  0  0  0  2  0  0  0  0  0  0
  -26.4930  -20.9080   19.8670 C   0  0  0  0  0  2  0  0  0  0  0  0
  -26.9550  -20.8900   18.4010 C   0  0  0  0  0  2  0  0  0  0  0  0
  -27.4690  -19.5270   17.9180 C   0  0  0  0  0  2  0  0  0  0  0  0
  -28.6010  -18.9670   18.7960 C   0  0  0  0  0  2  0  0  0  0  0  0
  -29.7220  -18.3140   17.9740 C   0  0  0  0  0  2  0  0  0  0  0  0
  -30.8410  -17.7130   18.8440 C   0  0  0  0  0  2  0  0  0  0  0  0
  -31.1670  -15.2670   19.1530 C   0  0  0  0  0  0  0  0  0  0  0  0
  -31.2680  -12.8330   19.5190 C   0  0  0  0  0  2  0  0  0  0  0  0
  -30.4460  -12.0960   18.4450 C   0  0  0  0  0  2  0  0  0  0  0  0
  -28.9710  -11.9780   18.8740 C   0  0  0  0  0  2  0  0  0  0  0  0
  -28.3790  -13.3330   19.3430 C   0  0  0  0  0  3  0  0  0  0  0  0
  -29.3210  -14.0270   20.3520 C   0  0  0  0  0  2  0  0  0  0  0  0
  -30.6540  -14.1510   19.7360 N   0  0  0  0  0  0  0  0  0  0  0  0
  -32.2000  -15.2650   18.4790 O   0  0  0  0  0  0  0  0  0  0  0  0
  -30.4830  -16.3970   19.3720 N   0  0  0  0  0  0  0  0  0  0  0  0
  -29.6670  -16.3360   19.9600 H   0  0  0  0  0  0  0  0  0  0  0  0
  -26.0930  -14.1310   20.2170 C   0  0  0  0  0  0  0  0  0  0  0  0
  -24.9790  -13.4440   20.6210 C   0  0  0  0  0  0  0  0  0  0  0  0
  -25.3070  -12.0580   20.5110 C   0  0  0  0  0  0  0  0  0  0  0  0
  -27.0350  -13.1670   19.8910 N   0  0  0  0  0  0  0  0  0  0  0  0
  -26.5660  -11.9130   20.1190 N   0  0  0  0  0  0  0  0  0  0  0  0
  -24.4760  -10.8620   20.7000 C   0  0  0  0  0  0  0  0  0  0  0  0
  -24.7750   -9.9050   21.6940 C   0  0  0  0  0  3  0  0  0  0  0  0
  -23.9520   -8.7710   21.8680 C   0  0  0  0  0  3  0  0  0  0  0  0
  -22.8150   -8.5880   21.0450 C   0  0  0  0  0  0  0  0  0  0  0  0
  -22.5340   -9.5320   20.0420 C   0  0  0  0  0  3  0  0  0  0  0  0
  -23.3570  -10.6570   19.8670 C   0  0  0  0  0  3  0  0  0  0  0  0
  -21.9720   -7.5050   21.1250 O   0  0  0  0  0  0  0  0  0  0  0  0
  -21.6760   -6.9090   22.3240 C   0  0  0  0  0  0  0  0  0  0  0  0
  -21.0690   -7.6230   23.3820 C   0  0  0  0  0  3  0  0  0  0  0  0
  -20.7180   -6.9550   24.5710 C   0  0  0  0  0  3  0  0  0  0  0  0
  -20.9650   -5.5760   24.7050 C   0  0  0  0  0  0  0  0  0  0  0  0
  -21.5650   -4.8630   23.6520 C   0  0  0  0  0  3  0  0  0  0  0  0
  -21.9160   -5.5280   22.4640 C   0  0  0  0  0  0  0  0  0  0  0  0
  -22.4740   -4.8310   21.4440 F   0  0  0  0  0  0  0  0  0  0  0  0
  -20.6220   -4.9320   25.8450 F   0  0  0  0  0  0  0  0  0  0  0  0
  -23.6500  -14.0360   21.0010 C   0  0  0  0  0  0  0  0  0  0  0  0
  -22.9160  -13.3730   21.8870 N   0  0  0  0  0  0  0  0  0  0  0  0
  -23.2790  -15.1180   20.5490 O   0  0  0  0  0  0  0  0  0  0  0  0
  -23.2300  -12.4960   22.2750 H   0  0  0  0  0  0  0  0  0  0  0  0
  -22.0260  -13.7490   22.1830 H   0  0  0  0  0  0  0  0  0  0  0  0
  -26.3750  -15.4860   20.0800 N   0  0  0  0  0  0  0  0  0  0  0  0
  -25.6840  -16.2030   20.2690 H   0  0  0  0  0  0  0  0  0  0  0  0
  -27.2530  -15.8590   19.7420 H   0  0  0  0  0  0  0  0  0  0  0  0
  -23.7580  -25.1100   17.4670 C   0  0  0  0  0  2  0  0  0  0  0  0
  -24.8830  -26.1560   17.4200 C   0  0  0  0  0  2  0  0  0  0  0  0
  -25.2940  -26.4990   15.9720 C   0  0  0  0  0  2  0  0  0  0  0  0
  -26.5390  -27.4060   15.8420 C   0  0  0  0  0  2  0  0  0  0  0  0
  -26.2290  -28.8050   15.8250 O   0  0  0  0  0  0  0  0  0  0  0  0
  -25.9020  -28.8560   22.9160 C   0  0  0  0  0  0  0  0  0  0  0  0
  -25.5780  -29.2530   16.9430 C   0  0  0  0  0  0  0  0  0  0  0  0
  -23.9150  -29.7340   21.7350 C   0  0  0  0  0  3  0  0  0  0  0  0
  -24.2060  -30.1430   19.2350 C   0  0  0  0  0  0  0  0  0  0  0  0
  -26.2320  -29.8870   20.6730 C   0  0  0  0  0  2  0  0  0  0  0  0
  -25.5560  -29.7830   19.3250 C   0  0  0  0  0  0  0  0  0  0  0  0
  -26.2490  -29.3330   18.1820 C   0  0  0  0  0  3  0  0  0  0  0  0
  -24.2330  -29.6610   16.8550 C   0  0  0  0  0  3  0  0  0  0  0  0
  -23.5340  -30.0760   18.0020 C   0  0  0  0  0  3  0  0  0  0  0  0
  -23.5340  -30.6040   20.5070 C   0  0  0  0  0  2  0  0  0  0  0  0
  -25.3840  -29.4440   21.8020 N   0  0  0  0  0  0  0  0  0  0  0  0
  -25.1890  -28.5910   23.8950 O   0  0  0  0  0  0  0  0  0  0  0  0
  -23.0410  -28.4600   21.7210 C   0  0  0  0  0  0  0  0  0  0  0  0
  -21.7110  -28.6470   21.7720 N   0  0  0  0  0  0  0  0  0  0  0  0
  -23.5540  -27.3410   21.6360 O   0  0  0  0  0  0  0  0  0  0  0  0
  -21.3700  -29.5960   21.8480 H   0  0  0  0  0  0  0  0  0  0  0  0
  -18.1790  -28.0340   21.3380 C   0  0  0  0  0  0  0  0  0  0  0  0
  -20.6950  -27.5970   21.7320 C   0  0  0  0  0  3  0  0  0  0  0  0
  -20.6830  -26.8860   20.3580 C   0  0  0  0  0  2  0  0  0  0  0  0
  -19.6770  -27.4900   19.3710 C   0  0  0  0  0  2  0  0  0  0  0  0
  -18.2590  -27.4290   19.9460 C   0  0  0  0  0  2  0  0  0  0  0  0
  -19.3250  -28.1250   22.1700 C   0  0  0  0  0  0  0  0  0  0  0  0
  -19.2030  -28.7240   23.4430 C   0  0  0  0  0  3  0  0  0  0  0  0
  -17.9660  -29.2270   23.8860 C   0  0  0  0  0  3  0  0  0  0  0  0
  -16.8300  -29.1220   23.0630 C   0  0  0  0  0  3  0  0  0  0  0  0
  -16.9370  -28.5230   21.7960 C   0  0  0  0  0  3  0  0  0  0  0  0
  -27.4200  -28.5080   23.0280 C   0  0  0  0  0  3  0  0  0  0  0  0
  -27.9080  -29.0570   24.2990 N   0  0  0  0  0  0  0  0  0  0  0  0
  -28.6680  -30.1560   24.4110 C   0  0  0  0  0  0  0  0  0  0  0  0
  -29.0950  -30.7770   23.4330 O   0  0  0  0  0  0  0  0  0  0  0  0
  -27.5510  -28.6280   25.1420 H   0  0  0  0  0  0  0  0  0  0  0  0
  -28.1300  -31.8550   26.1850 C   0  0  0  0  0  1  0  0  0  0  0  0
  -29.0080  -30.6420   25.8340 C   0  0  0  0  0  3  0  0  0  0  0  0
  -31.3230  -29.8340   25.9470 C   0  0  0  0  0  1  0  0  0  0  0  0
  -30.4340  -30.9920   26.0080 N   0  0  0  0  0  0  0  0  0  0  0  0
  -30.5850  -31.4600   26.8990 H   0  0  0  0  0  0  0  0  0  0  0  0
  -27.7110  -26.9600   22.9350 C   0  0  1  0  0  0  0  0  0  0  0  0
  -26.8710  -26.1100   23.9150 C   0  0  0  0  0  1  0  0  0  0  0  0
  -27.4360  -26.4400   21.5050 C   0  0  0  0  0  1  0  0  0  0  0  0
  -29.2060  -26.6890   23.2240 C   0  0  0  0  0  1  0  0  0  0  0  0
  1  3  1  0
  2  1  2  0
  4  6  1  0
  5  2  1  0
  5  4  2  0
  6  3  2  0
  6  8  1  0
  8  7  1  0
  9  8  1  0
 10  9  1  0
 11 10  1  0
 12 11  1  0
 13 12  1  0
 13 14  1  0
 15 14  1  0
 15 16  1  0
 16 25  1  0
 17 25  1  0
 17 23  1  0
 18 23  1  0
 19 20  1  0
 19 18  1  0
 21 20  1  0
 21 30  1  0
 21 22  1  0
 23 22  1  0
 24 17  2  0
 25 26  1  0
 27 28  2  0
 28 47  1  0
 29 28  1  0
 29 32  1  0
 30 31  1  0
 30 27  1  0
 31 29  2  0
 32 33  1  0
 33 34  2  0
 35 38  1  0
 35 34  1  0
 36 35  2  0
 37 36  1  0
 37 32  2  0
 38 39  1  0
 39 44  2  0
 39 40  1  0
 40 41  2  0
 41 42  1  0
 42 46  1  0
 43 42  2  0
 44 43  1  0
 45 44  1  0
 47 48  1  0
 48 51  1  0
 48 50  1  0
 49 47  2  0
 52 27  1  0
 52 53  1  0
 54 52  1  0
 55  5  1  0
 56 55  1  0
 57 56  1  0
 58 57  1  0
 59 58  1  0
 59 61  1  0
 60 71  2  0
 61 66  1  0
 62 72  1  0
 62 70  1  0
 63 65  1  0
 63 69  1  0
 64 70  1  0
 65 64  1  0
 66 65  2  0
 67 61  2  0
 67 68  1  0
 68 63  2  0
 69 62  1  0
 70 60  1  0
 72 73  1  0
 73 75  1  0
 74 72  2  0
 76 85  2  0
 76 81  1  0
 77 73  1  0
 77 81  1  0
 78 77  1  0
 79 80  1  0
 79 78  1  0
 80 76  1  0
 81 82  2  0
 82 83  1  0
 84 83  2  0
 85 84  1  0
 86 60  1  0
 86 87  1  0
 87 88  1  0
 87 90  1  0
 88 92  1  0
 89 88  2  0
 92 94  1  0
 92 91  1  0
 93 94  1  0
 94 95  1  0
 96 86  1  0
 96 99  1  1
 96 97  1  0
 98 96  1  0
M  ISO  4  17 100  25 100  58 101  59 101
M  END
>  <TORSDO>  (73) 
F 29

>  <SCORE>  (73) 
-3.476

>  <name>  (73) 
72

>  <ligand_id>  (73) 
72

>  <original_smiles>  (73) 
[H]c1c([H])c([H])c2c(c1[H])C([H])([H])C([H])([H])C([H])([H])C2([H])N([H])C(=O)C1([H])N(C(=O)C([H])(N([H])C(=O)C([H])(N([H])C([H])([H])[H])C([H])([H])[H])C(C([H])([H])[H])(C([H])([H])[H])C([H])([H])[H])C([H])([H])c2c([H])c(OC([H])([H])C([H])([H])C([H])([H])C([H])([H])c3c([H])c([H])c([H])c(C([H])(C([H])([H])[H])C([H])([H])C([H])([H])C([H])([H])C([H])([H])C([H])([H])C([H])([H])C([H])([H])C([H])([H])N([H])C(=O)N4C([H])([H])C([H])([H])C([H])([H])C([H])(n5nc(-c6c([H])c([H])c(Oc7c([H])c([H])c(F)c([H])c7F)c([H])c6[H])c(C(=O)N([H])[H])c5N([H])[H])C4([H])[H])c3[H])c([H])c([H])c2C1([H])[H]

>  <smiles>  (73) 
[H]c1c([H])c([H])c2c(c1[H])C([H])([H])C([H])([H])C([H])([H])C2([H])N([H])C(=O)C1([H])N(C(=O)C([H])(N([H])C(=O)C([H])(N([H])C([H])([H])[H])C([H])([H])[H])C(C([H])([H])[H])(C([H])([H])[H])C([H])([H])[H])C([H])([H])c2c([H])c(OC([H])([H])C([H])([H])C([H])([H])C([H])([H])c3c([H])c([H])c([H])c(C([H])(C([H])([H])[H])C([H])([H])C([H])([H])C([H])([H])C([H])([H])C([H])([H])C([H])([H])C([H])([H])C([H])([H])N([H])C(=O)N4C([H])([H])C([H])([H])C([H])([H])C([H])(n5nc(-c6c([H])c([H])c(Oc7c([H])c([H])c(F)c([H])c7F)c([H])c6[H])c(C(=O)N([H])[H])c5N([H])[H])C4([H])[H])c3[H])c([H])c([H])c2C1([H])[H]

$$$$
73:0:0
     RDKit          3D

101109  0  0  1  0  0  0  0  0999 V2000
  -26.1610  -18.9380   17.5710 C   0  0  0  0  0  2  0  0  0  0  0  0
  -26.8910  -18.9590   18.9250 C   0  0  0  0  0  2  0  0  0  0  0  0
  -27.9080  -17.8270   19.0670 C   0  0  0  0  0  2  0  0  0  0  0  0
  -28.5140  -17.7620   20.4810 C   0  0  0  0  0  2  0  0  0  0  0  0
  -29.9440  -17.1800   20.4630 C   0  0  0  0  0  3  0  0  0  0  0  0
  -30.8320  -14.9710   20.9540 C   0  0  0  0  0  0  0  0  0  0  0  0
  -30.6430  -12.8380   19.7710 C   0  0  0  0  0  2  0  0  0  0  0  0
  -29.7880  -13.0850   18.5100 C   0  0  0  0  0  2  0  0  0  0  0  0
  -28.2900  -12.9190   18.8300 C   0  0  0  0  0  2  0  0  0  0  0  0
  -27.8520  -13.7180   20.0860 C   0  0  0  0  0  3  0  0  0  0  0  0
  -28.8300  -13.4760   21.2630 C   0  0  0  0  0  2  0  0  0  0  0  0
  -30.1980  -13.7830   20.8050 N   0  0  0  0  0  0  0  0  0  0  0  0
  -31.9780  -15.1870   20.5510 O   0  0  0  0  0  0  0  0  0  0  0  0
  -30.0220  -15.9780   21.2950 N   0  0  0  0  0  0  0  0  0  0  0  0
  -29.1550  -15.6870   21.7210 H   0  0  0  0  0  0  0  0  0  0  0  0
  -25.3870  -14.2650   20.6020 C   0  0  0  0  0  0  0  0  0  0  0  0
  -24.3170  -13.4650   20.8960 C   0  0  0  0  0  0  0  0  0  0  0  0
  -24.8150  -12.1260   20.9060 C   0  0  0  0  0  0  0  0  0  0  0  0
  -26.4710  -13.4130   20.4570 N   0  0  0  0  0  0  0  0  0  0  0  0
  -26.1250  -12.1210   20.6950 N   0  0  0  0  0  0  0  0  0  0  0  0
  -24.1120  -10.8460   21.0480 C   0  0  0  0  0  0  0  0  0  0  0  0
  -24.4830   -9.9070   22.0340 C   0  0  0  0  0  3  0  0  0  0  0  0
  -23.7810   -8.6890   22.1640 C   0  0  0  0  0  3  0  0  0  0  0  0
  -22.6940   -8.4020   21.3050 C   0  0  0  0  0  0  0  0  0  0  0  0
  -22.3440   -9.3290   20.3080 C   0  0  0  0  0  3  0  0  0  0  0  0
  -23.0470  -10.5390   20.1770 C   0  0  0  0  0  3  0  0  0  0  0  0
  -21.9720   -7.2330   21.3380 O   0  0  0  0  0  0  0  0  0  0  0  0
  -21.8060   -6.5240   22.5000 C   0  0  0  0  0  0  0  0  0  0  0  0
  -21.2080   -7.0970   23.6440 C   0  0  0  0  0  3  0  0  0  0  0  0
  -20.9940   -6.3110   24.7940 C   0  0  0  0  0  3  0  0  0  0  0  0
  -21.3650   -4.9540   24.8000 C   0  0  0  0  0  0  0  0  0  0  0  0
  -21.9560   -4.3800   23.6610 C   0  0  0  0  0  3  0  0  0  0  0  0
  -22.1720   -5.1620   22.5120 C   0  0  0  0  0  0  0  0  0  0  0  0
  -22.7210   -4.6000   21.4100 F   0  0  0  0  0  0  0  0  0  0  0  0
  -21.1530   -4.1960   25.9020 F   0  0  0  0  0  0  0  0  0  0  0  0
  -22.8900  -13.9040   21.0630 C   0  0  0  0  0  0  0  0  0  0  0  0
  -22.1240  -13.1970   21.8860 N   0  0  0  0  0  0  0  0  0  0  0  0
  -22.4590  -14.9100   20.5000 O   0  0  0  0  0  0  0  0  0  0  0  0
  -22.4840  -12.3850   22.3660 H   0  0  0  0  0  0  0  0  0  0  0  0
  -21.1650  -13.4730   22.0420 H   0  0  0  0  0  0  0  0  0  0  0  0
  -25.5230  -15.6390   20.4320 N   0  0  0  0  0  0  0  0  0  0  0  0
  -24.7220  -16.2600   20.4610 H   0  0  0  0  0  0  0  0  0  0  0  0
  -26.3720  -16.1050   20.1440 H   0  0  0  0  0  0  0  0  0  0  0  0
  -31.0270  -18.2440   20.7710 C   0  0  0  0  0  2  0  0  0  0  0  0
  -30.9360  -21.4560   17.8290 C   0  0  0  0  0  3  0  0  0  0  0  0
  -30.4280  -21.6550   19.1250 C   0  0  0  0  0  3  0  0  0  0  0  0
  -31.5050  -20.2170   17.4820 C   0  0  0  0  0  3  0  0  0  0  0  0
  -30.4840  -20.6130   20.0690 C   0  0  0  0  0  3  0  0  0  0  0  0
  -31.5700  -19.1670   18.4220 C   0  0  0  0  0  0  0  0  0  0  0  0
  -31.0440  -19.3610   19.7300 C   0  0  0  0  0  0  0  0  0  0  0  0
  -32.1870  -17.8480   17.9780 C   0  0  0  0  0  1  0  0  0  0  0  0
  -25.5940  -20.3080   17.1570 C   0  0  0  0  0  2  0  0  0  0  0  0
  -24.5850  -20.9120   18.1580 C   0  0  0  0  0  2  0  0  0  0  0  0
  -25.0080  -22.2760   18.7390 C   0  0  0  0  0  2  0  0  0  0  0  0
  -26.2970  -22.2350   19.5840 C   0  0  0  0  0  2  0  0  0  0  0  0
  -26.2570  -23.2140   20.7680 C   0  0  0  0  0  2  0  0  0  0  0  0
  -27.5040  -23.1530   21.6790 C   0  0  0  0  0  2  0  0  0  0  0  0
  -28.7640  -23.8560   21.1440 C   0  0  0  0  0  2  0  0  0  0  0  0
  -28.4980  -25.2760   20.6150 C   0  0  0  0  0  3  0  0  0  0  0  0
  -29.6160  -26.2980   20.9000 C   0  0  0  0  0  3  0  0  0  0  0  0
  -29.4650  -27.5780   20.2670 O   0  0  0  0  0  0  0  0  0  0  0  0
  -24.9940  -31.5780   24.1330 C   0  0  0  0  0  0  0  0  0  0  0  0
  -28.2430  -28.1930   20.3810 C   0  0  0  0  0  0  0  0  0  0  0  0
  -24.0500  -30.5370   22.0960 C   0  0  0  0  0  3  0  0  0  0  0  0
  -25.7390  -29.4890   20.5060 C   0  0  0  0  0  0  0  0  0  0  0  0
  -26.5410  -31.0920   22.2450 C   0  0  0  0  0  2  0  0  0  0  0  0
  -26.7940  -29.9220   21.3200 C   0  0  0  0  0  0  0  0  0  0  0  0
  -28.0520  -29.2780   21.2620 C   0  0  0  0  0  3  0  0  0  0  0  0
  -27.1830  -27.7960   19.5410 C   0  0  0  0  0  3  0  0  0  0  0  0
  -25.9270  -28.4170   19.6170 C   0  0  0  0  0  3  0  0  0  0  0  0
  -24.4270  -30.2290   20.6230 C   0  0  0  0  0  2  0  0  0  0  0  0
  -25.2060  -31.0700   22.8860 N   0  0  0  0  0  0  0  0  0  0  0  0
  -23.8520  -31.6440   24.6080 O   0  0  0  0  0  0  0  0  0  0  0  0
  -23.4150  -29.2730   22.7190 C   0  0  0  0  0  0  0  0  0  0  0  0
  -22.1540  -28.9940   22.3480 N   0  0  0  0  0  0  0  0  0  0  0  0
  -24.0590  -28.5570   23.4910 O   0  0  0  0  0  0  0  0  0  0  0  0
  -21.7010  -29.6260   21.7030 H   0  0  0  0  0  0  0  0  0  0  0  0
  -18.9660  -27.3410   21.9570 C   0  0  0  0  0  0  0  0  0  0  0  0
  -21.3620  -27.8440   22.7840 C   0  0  0  0  0  3  0  0  0  0  0  0
  -21.7830  -26.5590   22.0380 C   0  0  0  0  0  2  0  0  0  0  0  0
  -20.9540  -26.3020   20.7760 C   0  0  0  0  0  2  0  0  0  0  0  0
  -19.4680  -26.1690   21.1310 C   0  0  0  0  0  2  0  0  0  0  0  0
  -19.8570  -28.1380   22.7230 C   0  0  0  0  0  0  0  0  0  0  0  0
  -19.3430  -29.2360   23.4460 C   0  0  0  0  0  3  0  0  0  0  0  0
  -17.9690  -29.5410   23.4150 C   0  0  0  0  0  3  0  0  0  0  0  0
  -17.0880  -28.7390   22.6700 C   0  0  0  0  0  3  0  0  0  0  0  0
  -17.5860  -27.6390   21.9470 C   0  0  0  0  0  3  0  0  0  0  0  0
  -26.1680  -32.1180   25.0070 C   0  0  0  0  0  3  0  0  0  0  0  0
  -25.9250  -33.5490   25.2360 N   0  0  0  0  0  0  0  0  0  0  0  0
  -26.5380  -34.5390   24.5750 C   0  0  0  0  0  0  0  0  0  0  0  0
  -27.4310  -34.3430   23.7470 O   0  0  0  0  0  0  0  0  0  0  0  0
  -25.1630  -33.7830   25.8560 H   0  0  0  0  0  0  0  0  0  0  0  0
  -25.1550  -36.4740   23.7570 C   0  0  0  0  0  1  0  0  0  0  0  0
  -26.0850  -35.9810   24.8770 C   0  0  0  0  0  3  0  0  0  0  0  0
  -28.0020  -36.6700   26.2460 C   0  0  0  0  0  1  0  0  0  0  0  0
  -27.2100  -36.9260   25.0460 N   0  0  0  0  0  0  0  0  0  0  0  0
  -26.8750  -37.8850   25.0850 H   0  0  0  0  0  0  0  0  0  0  0  0
  -26.3290  -31.3510   26.3750 C   0  0  1  0  0  0  0  0  0  0  0  0
  -25.0190  -31.2530   27.1900 C   0  0  0  0  0  1  0  0  0  0  0  0
  -26.8450  -29.9140   26.1370 C   0  0  0  0  0  1  0  0  0  0  0  0
  -27.3920  -32.0580   27.2480 C   0  0  0  0  0  1  0  0  0  0  0  0
  1  2  1  0
  2  3  1  0
  3  4  1  0
  5  4  1  0
  5 44  1  0
  5 14  1  0
  6 14  1  0
  7 12  1  0
  8  9  1  0
  8  7  1  0
 10  9  1  0
 10 19  1  0
 10 11  1  0
 12  6  1  0
 12 11  1  0
 13  6  2  0
 14 15  1  0
 16 17  2  0
 17 18  1  0
 17 36  1  0
 18 21  1  0
 19 16  1  0
 19 20  1  0
 20 18  2  0
 21 22  1  0
 22 23  2  0
 24 27  1  0
 24 23  1  0
 25 24  2  0
 26 25  1  0
 26 21  2  0
 27 28  1  0
 28 33  2  0
 28 29  1  0
 29 30  2  0
 30 31  1  0
 31 35  1  0
 32 31  2  0
 33 32  1  0
 34 33  1  0
 36 37  1  0
 37 40  1  0
 37 39  1  0
 38 36  2  0
 41 42  1  0
 41 16  1  0
 43 41  1  0
 45 46  1  0
 46 48  2  0
 47 45  2  0
 47 49  1  0
 49 50  2  0
 50 48  1  0
 50 44  1  0
 51 49  1  0
 52  1  1  0
 52 53  1  0
 53 54  1  0
 54 55  1  0
 55 56  1  0
 56 57  1  0
 58 57  1  0
 59 60  2  0
 59 58  1  0
 61 63  1  0
 61 60  1  0
 62 73  2  0
 63 68  1  0
 64 74  1  0
 64 72  1  0
 65 71  1  0
 65 67  1  0
 66 72  1  0
 67 66  1  0
 68 67  2  0
 69 70  1  0
 69 63  2  0
 70 65  2  0
 71 64  1  0
 72 62  1  0
 74 76  2  0
 75 74  1  0
 77 75  1  0
 78 83  1  0
 79 75  1  0
 80 79  1  0
 81 82  1  0
 81 80  1  0
 82 78  1  0
 83 79  1  0
 83 84  2  0
 85 84  1  0
 86 85  2  0
 87 78  2  0
 87 86  1  0
 88 62  1  0
 88 89  1  0
 88 98  1  0
 89 92  1  0
 90 94  1  0
 90 89  1  0
 91 90  2  0
 94 93  1  0
 94 96  1  0
 96 97  1  0
 96 95  1  0
 98 99  1  1
 98101  1  0
100 98  1  0
M  ISO  4   6 100  14 100  60 101  61 101
M  END
>  <TORSDO>  (74) 
F 31

>  <SCORE>  (74) 
-8.106

>  <name>  (74) 
73

>  <ligand_id>  (74) 
73

>  <original_smiles>  (74) 
[H]c1c([H])c([H])c(C([H])([H])C([H])(N([H])C(=O)N2C([H])([H])C([H])([H])C([H])([H])C([H])(n3nc(-c4c([H])c([H])c(Oc5c([H])c([H])c(F)c([H])c5F)c([H])c4[H])c(C(=O)N([H])[H])c3N([H])[H])C2([H])[H])C([H])([H])C([H])([H])C([H])([H])C([H])([H])C([H])([H])C([H])([H])C([H])([H])C([H])([H])C([H])([H])C([H])([H])C([H])([H])C([H])([H])C([H])([H])Oc2c([H])c([H])c3c(c2[H])C([H])([H])N(C(=O)C([H])(N([H])C(=O)C([H])(N([H])C([H])([H])[H])C([H])([H])[H])C(C([H])([H])[H])(C([H])([H])[H])C([H])([H])[H])C([H])(C(=O)N([H])C2([H])c4c([H])c([H])c([H])c([H])c4C([H])([H])C([H])([H])C2([H])[H])C3([H])[H])c(C([H])([H])[H])c1[H]

>  <smiles>  (74) 
[H]c1c([H])c([H])c(C([H])([H])C([H])(N([H])C(=O)N2C([H])([H])C([H])([H])C([H])([H])C([H])(n3nc(-c4c([H])c([H])c(Oc5c([H])c([H])c(F)c([H])c5F)c([H])c4[H])c(C(=O)N([H])[H])c3N([H])[H])C2([H])[H])C([H])([H])C([H])([H])C([H])([H])C([H])([H])C([H])([H])C([H])([H])C([H])([H])C([H])([H])C([H])([H])C([H])([H])C([H])([H])C([H])([H])C([H])([H])Oc2c([H])c([H])c3c(c2[H])C([H])([H])N(C(=O)C([H])(N([H])C(=O)C([H])(N([H])C([H])([H])[H])C([H])([H])[H])C(C([H])([H])[H])(C([H])([H])[H])C([H])([H])[H])C([H])(C(=O)N([H])C2([H])c4c([H])c([H])c([H])c([H])c4C([H])([H])C([H])([H])C2([H])[H])C3([H])[H])c(C([H])([H])[H])c1[H]

$$$$
74:0:0
     RDKit          3D

 95104  0  0  1  0  0  0  0  0999 V2000
  -30.7980  -21.8950   19.1100 C   0  0  0  0  0  3  0  0  0  0  0  0
  -33.0330  -21.2430   19.8110 C   0  0  0  0  0  3  0  0  0  0  0  0
  -30.3020  -20.6540   19.5380 C   0  0  0  0  0  3  0  0  0  0  0  0
  -32.5370  -19.9910   20.2320 C   0  0  0  0  0  3  0  0  0  0  0  0
  -32.1620  -22.2200   19.2790 C   0  0  0  0  0  0  0  0  0  0  0  0
  -31.1580  -19.7000   20.1240 C   0  0  0  0  0  0  0  0  0  0  0  0
  -30.6860  -14.4580   20.3740 C   0  0  0  0  0  0  0  0  0  0  0  0
  -30.3000  -12.3440   19.1860 C   0  0  0  0  0  2  0  0  0  0  0  0
  -29.3400  -12.5820   18.0060 C   0  0  0  0  0  2  0  0  0  0  0  0
  -27.8730  -12.4370   18.4590 C   0  0  0  0  0  2  0  0  0  0  0  0
  -27.5570  -13.2520   19.7420 C   0  0  0  0  0  3  0  0  0  0  0  0
  -28.6410  -13.0380   20.8260 C   0  0  0  0  0  2  0  0  0  0  0  0
  -29.9580  -13.3190   20.2280 N   0  0  0  0  0  0  0  0  0  0  0  0
  -31.8320  -14.5910   19.9340 O   0  0  0  0  0  0  0  0  0  0  0  0
  -29.9680  -17.5690   19.4820 C   0  0  0  0  0  2  0  0  0  0  0  0
  -31.4340  -17.5160   21.5070 C   0  0  0  0  0  2  0  0  0  0  0  0
  -29.2120  -16.3480   20.0210 C   0  0  0  0  0  2  0  0  0  0  0  0
  -30.6490  -16.2830   22.0120 C   0  0  0  0  0  2  0  0  0  0  0  0
  -30.5330  -18.4070   20.6310 C   0  0  0  0  0  3  0  0  0  0  0  0
  -30.0440  -15.5170   20.9100 N   0  0  0  0  0  0  0  0  0  0  0  0
  -25.1720  -13.8780   20.4700 C   0  0  0  0  0  0  0  0  0  0  0  0
  -24.1060  -13.1110   20.8490 C   0  0  0  0  0  0  0  0  0  0  0  0
  -24.5640  -11.7580   20.8220 C   0  0  0  0  0  0  0  0  0  0  0  0
  -26.2140  -12.9880   20.2400 N   0  0  0  0  0  0  0  0  0  0  0  0
  -25.8520  -11.7100   20.5080 N   0  0  0  0  0  0  0  0  0  0  0  0
  -23.8410  -10.4990   21.0200 C   0  0  0  0  0  0  0  0  0  0  0  0
  -24.2870   -9.5320   21.9480 C   0  0  0  0  0  3  0  0  0  0  0  0
  -23.5640   -8.3360   22.1350 C   0  0  0  0  0  3  0  0  0  0  0  0
  -22.3820   -8.0980   21.3940 C   0  0  0  0  0  0  0  0  0  0  0  0
  -21.9570   -9.0540   20.4550 C   0  0  0  0  0  3  0  0  0  0  0  0
  -22.6790  -10.2420   20.2660 C   0  0  0  0  0  3  0  0  0  0  0  0
  -21.6280   -6.9530   21.4920 O   0  0  0  0  0  0  0  0  0  0  0  0
  -21.6030   -6.2050   22.6420 C   0  0  0  0  0  0  0  0  0  0  0  0
  -21.2120   -6.7550   23.8810 C   0  0  0  0  0  3  0  0  0  0  0  0
  -21.1340   -5.9330   25.0240 C   0  0  0  0  0  3  0  0  0  0  0  0
  -21.4380   -4.5620   24.9270 C   0  0  0  0  0  0  0  0  0  0  0  0
  -21.8220   -4.0110   23.6920 C   0  0  0  0  0  3  0  0  0  0  0  0
  -21.9020   -4.8310   22.5510 C   0  0  0  0  0  0  0  0  0  0  0  0
  -22.2520   -4.2910   21.3590 F   0  0  0  0  0  0  0  0  0  0  0  0
  -21.3560   -3.7700   26.0210 F   0  0  0  0  0  0  0  0  0  0  0  0
  -22.7110  -13.5910   21.1270 C   0  0  0  0  0  0  0  0  0  0  0  0
  -21.9860  -12.8980   21.9970 N   0  0  0  0  0  0  0  0  0  0  0  0
  -22.2720  -14.6170   20.6080 O   0  0  0  0  0  0  0  0  0  0  0  0
  -22.3520  -12.0690   22.4420 H   0  0  0  0  0  0  0  0  0  0  0  0
  -21.0480  -13.2000   22.2240 H   0  0  0  0  0  0  0  0  0  0  0  0
  -25.3360  -15.2480   20.2810 N   0  0  0  0  0  0  0  0  0  0  0  0
  -24.5720  -15.9040   20.3960 H   0  0  0  0  0  0  0  0  0  0  0  0
  -26.1880  -15.6870   19.9600 H   0  0  0  0  0  0  0  0  0  0  0  0
  -32.6590  -23.5700   18.9730 C   0  0  0  0  0  3  0  0  0  0  0  0
  -31.9800  -24.5000   18.2780 C   0  0  0  0  0  3  0  0  0  0  0  0
  -32.3860  -25.9490   18.1410 C   0  0  0  0  0  2  0  0  0  0  0  0
  -31.2600  -26.8610   18.6620 C   0  0  0  0  0  2  0  0  0  0  0  0
  -30.9060  -26.6320   20.1500 C   0  0  0  0  0  2  0  0  0  0  0  0
  -29.6500  -27.3930   20.5940 C   0  0  0  0  0  2  0  0  0  0  0  0
  -28.4600  -26.7720   20.0970 O   0  0  0  0  0  0  0  0  0  0  0  0
  -24.5740  -31.8870   23.2300 C   0  0  0  0  0  0  0  0  0  0  0  0
  -27.2850  -27.4930   20.1790 C   0  0  0  0  0  0  0  0  0  0  0  0
  -23.3740  -30.4710   21.5870 C   0  0  0  0  0  3  0  0  0  0  0  0
  -24.8420  -28.9280   20.1830 C   0  0  0  0  0  0  0  0  0  0  0  0
  -25.8910  -30.8490   21.4040 C   0  0  0  0  0  2  0  0  0  0  0  0
  -25.9830  -29.4770   20.7780 C   0  0  0  0  0  0  0  0  0  0  0  0
  -27.1930  -28.7640   20.7920 C   0  0  0  0  0  3  0  0  0  0  0  0
  -26.1220  -26.9400   19.5980 C   0  0  0  0  0  3  0  0  0  0  0  0
  -24.9020  -27.6490   19.5970 C   0  0  0  0  0  3  0  0  0  0  0  0
  -23.5900  -29.7750   20.2150 C   0  0  0  0  0  2  0  0  0  0  0  0
  -24.6280  -31.0860   22.1310 N   0  0  0  0  0  0  0  0  0  0  0  0
  -23.4920  -32.1600   23.7670 O   0  0  0  0  0  0  0  0  0  0  0  0
  -22.7250  -29.4560   22.5540 C   0  0  0  0  0  0  0  0  0  0  0  0
  -21.4000  -29.2780   22.4280 N   0  0  0  0  0  0  0  0  0  0  0  0
  -23.4100  -28.8320   23.3690 O   0  0  0  0  0  0  0  0  0  0  0  0
  -20.9090  -29.8310   21.7400 H   0  0  0  0  0  0  0  0  0  0  0  0
  -18.0200  -28.1230   22.9480 C   0  0  0  0  0  0  0  0  0  0  0  0
  -20.5820  -28.3490   23.2040 C   0  0  0  0  0  3  0  0  0  0  0  0
  -20.6640  -26.9180   22.6230 C   0  0  0  0  0  2  0  0  0  0  0  0
  -19.5520  -26.6130   21.6130 C   0  0  0  0  0  2  0  0  0  0  0  0
  -18.1760  -26.7760   22.2630 C   0  0  0  0  0  2  0  0  0  0  0  0
  -19.1510  -28.8690   23.3750 C   0  0  0  0  0  0  0  0  0  0  0  0
  -18.9510  -30.1340   23.9700 C   0  0  0  0  0  3  0  0  0  0  0  0
  -17.6530  -30.6510   24.1450 C   0  0  0  0  0  3  0  0  0  0  0  0
  -16.5370  -29.9010   23.7350 C   0  0  0  0  0  3  0  0  0  0  0  0
  -16.7220  -28.6380   23.1430 C   0  0  0  0  0  3  0  0  0  0  0  0
  -25.8620  -32.5190   23.8490 C   0  0  0  0  0  3  0  0  0  0  0  0
  -25.5520  -33.9160   24.1790 N   0  0  0  0  0  0  0  0  0  0  0  0
  -25.8920  -34.9680   23.4200 C   0  0  0  0  0  0  0  0  0  0  0  0
  -26.5690  -34.8650   22.3940 O   0  0  0  0  0  0  0  0  0  0  0  0
  -24.9460  -34.0730   24.9710 H   0  0  0  0  0  0  0  0  0  0  0  0
  -24.1660  -36.7580   23.0510 C   0  0  0  0  0  1  0  0  0  0  0  0
  -25.4000  -36.3550   23.8730 C   0  0  0  0  0  3  0  0  0  0  0  0
  -27.5300  -37.2360   24.7200 C   0  0  0  0  0  1  0  0  0  0  0  0
  -26.4330  -37.4080   23.7720 N   0  0  0  0  0  0  0  0  0  0  0  0
  -26.0260  -38.3290   23.9200 H   0  0  0  0  0  0  0  0  0  0  0  0
  -26.3830  -31.7480   25.1240 C   0  0  1  0  0  0  0  0  0  0  0  0
  -25.2900  -31.5160   26.1930 C   0  0  0  0  0  1  0  0  0  0  0  0
  -26.9640  -30.3690   24.7350 C   0  0  0  0  0  1  0  0  0  0  0  0
  -27.5340  -32.5430   25.7850 C   0  0  0  0  0  1  0  0  0  0  0  0
  1  5  2  0
  1  3  1  0
  2  4  2  0
  3  6  2  0
  5  2  1  0
  6  4  1  0
  7 20  1  0
  8 13  1  0
  9 10  1  0
  9  8  1  0
 11 10  1  0
 11 24  1  0
 11 12  1  0
 13  7  1  0
 13 12  1  0
 14  7  2  0
 15 17  1  0
 15 19  1  0
 16 18  1  0
 17 20  1  0
 19  6  1  0
 19 16  1  0
 20 18  1  0
 21 22  2  0
 22 41  1  0
 23 22  1  0
 23 26  1  0
 24 21  1  0
 24 25  1  0
 25 23  2  0
 26 27  1  0
 27 28  2  0
 29 32  1  0
 29 28  1  0
 30 29  2  0
 31 30  1  0
 31 26  2  0
 32 33  1  0
 33 34  1  0
 34 35  2  0
 36 35  1  0
 36 40  1  0
 37 36  2  0
 38 33  2  0
 38 37  1  0
 39 38  1  0
 41 42  1  0
 42 45  1  0
 42 44  1  0
 43 41  2  0
 46 47  1  0
 46 21  1  0
 48 46  1  0
 49  5  1  0
 50 49  2  0
 51 50  1  0
 51 52  1  0
 52 53  1  0
 53 54  1  0
 55 57  1  0
 55 54  1  0
 56 67  2  0
 57 62  1  0
 58 66  1  0
 58 68  1  0
 59 65  1  0
 59 61  1  0
 60 66  1  0
 61 62  2  0
 61 60  1  0
 63 57  2  0
 64 63  1  0
 64 59  2  0
 65 58  1  0
 66 56  1  0
 68 70  2  0
 69 68  1  0
 71 69  1  0
 72 81  2  0
 72 77  1  0
 73 69  1  0
 73 77  1  0
 74 73  1  0
 75 76  1  0
 75 74  1  0
 76 72  1  0
 77 78  2  0
 78 79  1  0
 80 79  2  0
 81 80  1  0
 82 56  1  0
 82 83  1  0
 82 92  1  0
 83 86  1  0
 84 88  1  0
 84 83  1  0
 85 84  2  0
 88 87  1  0
 90 88  1  0
 90 91  1  0
 90 89  1  0
 92 95  1  1
 92 93  1  0
 94 92  1  0
M  ISO  4   7 100  20 100  54 101  55 101
M  END
>  <TORSDO>  (75) 
F 21

>  <SCORE>  (75) 
-13.717

>  <name>  (75) 
74

>  <ligand_id>  (75) 
74

>  <original_smiles>  (75) 
[H]C(=C([H])C([H])([H])C([H])([H])C([H])([H])C([H])([H])Oc1c([H])c([H])c2c(c1[H])C([H])([H])N(C(=O)C([H])(N([H])C(=O)C([H])(N([H])C([H])([H])[H])C([H])([H])[H])C(C([H])([H])[H])(C([H])([H])[H])C([H])([H])[H])C([H])(C(=O)N([H])C1([H])c3c([H])c([H])c([H])c([H])c3C([H])([H])C([H])([H])C1([H])[H])C2([H])[H])c1c([H])c([H])c(C2([H])C([H])([H])C([H])([H])N(C(=O)N3C([H])([H])C([H])([H])C([H])([H])C([H])(n4nc(-c5c([H])c([H])c(Oc6c([H])c([H])c(F)c([H])c6F)c([H])c5[H])c(C(=O)N([H])[H])c4N([H])[H])C3([H])[H])C([H])([H])C2([H])[H])c([H])c1[H]

>  <smiles>  (75) 
[H]C(=C([H])C([H])([H])C([H])([H])C([H])([H])C([H])([H])Oc1c([H])c([H])c2c(c1[H])C([H])([H])N(C(=O)C([H])(N([H])C(=O)C([H])(N([H])C([H])([H])[H])C([H])([H])[H])C(C([H])([H])[H])(C([H])([H])[H])C([H])([H])[H])C([H])(C(=O)N([H])C1([H])c3c([H])c([H])c([H])c([H])c3C([H])([H])C([H])([H])C1([H])[H])C2([H])[H])c1c([H])c([H])c(C2([H])C([H])([H])C([H])([H])N(C(=O)N3C([H])([H])C([H])([H])C([H])([H])C([H])(n4nc(-c5c([H])c([H])c(Oc6c([H])c([H])c(F)c([H])c6F)c([H])c5[H])c(C(=O)N([H])[H])c4N([H])[H])C3([H])[H])C([H])([H])C2([H])[H])c([H])c1[H]

$$$$
75:0:0
     RDKit          3D

 98105  0  0  1  0  0  0  0  0999 V2000
  -25.2110  -24.5400   24.6380 C   0  0  0  0  0  2  0  0  0  0  0  0
  -25.1510  -26.9260   25.4540 C   0  0  0  0  0  1  0  0  0  0  0  0
  -25.7270  -25.9850   24.3820 C   0  0  0  0  0  3  0  0  0  0  0  0
  -27.2100  -26.0690   24.4060 N   0  0  0  0  0  4  0  0  0  0  0  0
  -27.4640  -26.8070   25.0430 H   0  0  0  0  0  0  0  0  0  0  0  0
  -27.5750  -25.2100   24.7870 H   0  0  0  0  0  0  0  0  0  0  0  0
  -27.8950  -26.3640   23.1230 C   0  0  0  0  0  2  0  0  0  0  0  0
  -29.4060  -26.5920   23.3360 C   0  0  0  0  0  2  0  0  0  0  0  0
  -30.3070  -25.9970   22.2390 C   0  0  0  0  0  2  0  0  0  0  0  0
  -30.6070  -26.9000   21.0280 C   0  0  0  0  0  2  0  0  0  0  0  0
  -31.3020  -26.0520   19.9510 C   0  0  0  0  0  2  0  0  0  0  0  0
  -31.7570  -26.7780   18.6720 C   0  0  0  0  0  2  0  0  0  0  0  0
  -32.8310  -25.7900   16.6040 C   0  0  0  0  0  0  0  0  0  0  0  0
  -33.7320  -24.3420   14.8110 C   0  0  0  0  0  2  0  0  0  0  0  0
  -32.6310  -23.4190   14.2530 C   0  0  0  0  0  2  0  0  0  0  0  0
  -32.4800  -22.1440   15.1040 C   0  0  0  0  0  2  0  0  0  0  0  0
  -32.3810  -22.4470   16.6210 C   0  0  0  0  0  3  0  0  0  0  0  0
  -33.5170  -23.4050   17.0420 C   0  0  0  0  0  2  0  0  0  0  0  0
  -33.4190  -24.6290   16.2170 N   0  0  0  0  0  0  0  0  0  0  0  0
  -32.5960  -26.7370   15.8460 O   0  0  0  0  0  0  0  0  0  0  0  0
  -32.5170  -25.8050   17.9010 N   0  0  0  0  0  0  0  0  0  0  0  0
  -32.7970  -24.9750   18.4010 H   0  0  0  0  0  0  0  0  0  0  0  0
  -31.3580  -20.6260   18.1340 C   0  0  0  0  0  0  0  0  0  0  0  0
  -31.8710  -19.4610   18.6370 C   0  0  0  0  0  0  0  0  0  0  0  0
  -33.2230  -19.3960   18.1780 C   0  0  0  0  0  0  0  0  0  0  0  0
  -32.3850  -21.2200   17.4170 N   0  0  0  0  0  0  0  0  0  0  0  0
  -33.5280  -20.4910   17.4920 N   0  0  0  0  0  0  0  0  0  0  0  0
  -34.2280  -18.3340   18.3070 C   0  0  0  0  0  0  0  0  0  0  0  0
  -35.4720  -18.5660   18.9320 C   0  0  0  0  0  3  0  0  0  0  0  0
  -36.4160  -17.5220   19.0580 C   0  0  0  0  0  3  0  0  0  0  0  0
  -36.1160  -16.2320   18.5610 C   0  0  0  0  0  0  0  0  0  0  0  0
  -34.8850  -16.0120   17.9190 C   0  0  0  0  0  3  0  0  0  0  0  0
  -33.9490  -17.0530   17.7900 C   0  0  0  0  0  3  0  0  0  0  0  0
  -36.9810  -15.1670   18.6160 O   0  0  0  0  0  0  0  0  0  0  0  0
  -37.8550  -15.0010   19.6600 C   0  0  0  0  0  0  0  0  0  0  0  0
  -37.4070  -14.8750   20.9940 C   0  0  0  0  0  3  0  0  0  0  0  0
  -38.3340  -14.6360   22.0270 C   0  0  0  0  0  3  0  0  0  0  0  0
  -39.7060  -14.5160   21.7310 C   0  0  0  0  0  0  0  0  0  0  0  0
  -40.1510  -14.6340   20.4030 C   0  0  0  0  0  3  0  0  0  0  0  0
  -39.2280  -14.8720   19.3710 C   0  0  0  0  0  0  0  0  0  0  0  0
  -39.6610  -14.9650   18.0890 F   0  0  0  0  0  0  0  0  0  0  0  0
  -40.5960  -14.2780   22.7220 F   0  0  0  0  0  0  0  0  0  0  0  0
  -31.1270  -18.4150   19.4180 C   0  0  0  0  0  0  0  0  0  0  0  0
  -31.8140  -17.7120   20.3120 N   0  0  0  0  0  0  0  0  0  0  0  0
  -29.9170  -18.2460   19.2720 O   0  0  0  0  0  0  0  0  0  0  0  0
  -32.8010  -17.8660   20.4500 H   0  0  0  0  0  0  0  0  0  0  0  0
  -31.3450  -17.0120   20.8670 H   0  0  0  0  0  0  0  0  0  0  0  0
  -30.1000  -21.2180   18.2110 N   0  0  0  0  0  0  0  0  0  0  0  0
  -29.3240  -20.7780   18.6930 H   0  0  0  0  0  0  0  0  0  0  0  0
  -29.8390  -22.0760   17.7400 H   0  0  0  0  0  0  0  0  0  0  0  0
  -25.3460  -23.5050   23.4980 C   0  0  0  0  0  2  0  0  0  0  0  0
  -24.9270  -24.0350   22.1270 C   0  0  0  0  0  0  0  0  0  0  0  0
  -23.8250  -24.5710   21.9820 O   0  0  0  0  0  0  0  0  0  0  0  0
  -25.9000  -23.8620   20.9540 C   0  0  0  0  0  2  0  0  0  0  0  0
  -25.7020  -24.9310   19.8660 C   0  0  0  0  0  2  0  0  0  0  0  0
  -26.6950  -24.8310   18.6910 C   0  0  0  0  0  2  0  0  0  0  0  0
  -26.6060  -25.9620   17.6380 C   0  0  0  0  0  2  0  0  0  0  0  0
  -26.9400  -27.2610   18.1450 O   0  0  0  0  0  0  0  0  0  0  0  0
  -25.0760  -31.5970   23.4610 C   0  0  0  0  0  0  0  0  0  0  0  0
  -25.9520  -28.0890   18.6440 C   0  0  0  0  0  0  0  0  0  0  0  0
  -23.2670  -30.9780   21.8990 C   0  0  0  0  0  3  0  0  0  0  0  0
  -24.0010  -29.8150   19.7560 C   0  0  0  0  0  0  0  0  0  0  0  0
  -25.7030  -31.0340   21.1160 C   0  0  0  0  0  2  0  0  0  0  0  0
  -25.3430  -29.9450   20.1280 C   0  0  0  0  0  0  0  0  0  0  0  0
  -26.3200  -29.0800   19.5830 C   0  0  0  0  0  3  0  0  0  0  0  0
  -24.5930  -28.0060   18.2560 C   0  0  0  0  0  3  0  0  0  0  0  0
  -23.6180  -28.8420   18.8230 C   0  0  0  0  0  3  0  0  0  0  0  0
  -23.0090  -30.7670   20.3840 C   0  0  0  0  0  2  0  0  0  0  0  0
  -24.7150  -31.1950   22.2110 N   0  0  0  0  0  0  0  0  0  0  0  0
  -24.2240  -31.8240   24.3320 O   0  0  0  0  0  0  0  0  0  0  0  0
  -22.6430  -29.7940   22.6740 C   0  0  0  0  0  0  0  0  0  0  0  0
  -21.3060  -29.6810   22.6110 N   0  0  0  0  0  0  0  0  0  0  0  0
  -23.3540  -28.9910   23.2850 O   0  0  0  0  0  0  0  0  0  0  0  0
  -20.7940  -30.3820   22.0950 H   0  0  0  0  0  0  0  0  0  0  0  0
  -17.9700  -28.3160   22.8320 C   0  0  0  0  0  0  0  0  0  0  0  0
  -20.5020  -28.6330   23.2370 C   0  0  0  0  0  3  0  0  0  0  0  0
  -20.6850  -27.2810   22.5080 C   0  0  0  0  0  2  0  0  0  0  0  0
  -19.6360  -27.0400   21.4180 C   0  0  0  0  0  2  0  0  0  0  0  0
  -18.2280  -27.0590   22.0180 C   0  0  0  0  0  2  0  0  0  0  0  0
  -19.0390  -29.0650   23.3910 C   0  0  0  0  0  0  0  0  0  0  0  0
  -18.7430  -30.2460   24.1070 C   0  0  0  0  0  3  0  0  0  0  0  0
  -17.4140  -30.6740   24.2720 C   0  0  0  0  0  3  0  0  0  0  0  0
  -16.3580  -29.9180   23.7330 C   0  0  0  0  0  3  0  0  0  0  0  0
  -16.6390  -28.7420   23.0140 C   0  0  0  0  0  3  0  0  0  0  0  0
  -26.5730  -31.8130   23.8500 C   0  0  0  0  0  3  0  0  0  0  0  0
  -27.1310  -30.7020   24.8200 C   0  0  1  0  0  0  0  0  0  0  0  0
  -26.2460  -30.4670   26.0670 C   0  0  0  0  0  1  0  0  0  0  0  0
  -27.2710  -29.3520   24.0790 C   0  0  0  0  0  1  0  0  0  0  0  0
  -28.5530  -31.0880   25.2980 C   0  0  0  0  0  1  0  0  0  0  0  0
  -26.6830  -33.1440   24.4610 N   0  0  0  0  0  0  0  0  0  0  0  0
  -27.1290  -34.2360   23.8280 C   0  0  0  0  0  0  0  0  0  0  0  0
  -27.5640  -34.2110   22.6730 O   0  0  0  0  0  0  0  0  0  0  0  0
  -26.2960  -33.2500   25.3890 H   0  0  0  0  0  0  0  0  0  0  0  0
  -25.8540  -36.3790   24.1580 C   0  0  0  0  0  1  0  0  0  0  0  0
  -27.0830  -35.5690   24.5990 C   0  0  0  0  0  3  0  0  0  0  0  0
  -29.4820  -35.7970   25.0670 C   0  0  0  0  0  1  0  0  0  0  0  0
  -28.3050  -36.3860   24.4360 N   0  0  0  0  0  0  0  0  0  0  0  0
  -28.1690  -37.3170   24.8200 H   0  0  0  0  0  0  0  0  0  0  0  0
  3  4  1  0
  3  1  1  0
  3  2  1  0
  4  6  1  0
  4  5  1  0
  7  8  1  0
  7  4  1  0
  9  8  1  0
 10  9  1  0
 11 10  1  0
 12 11  1  0
 13 21  1  0
 14 19  1  0
 15 14  1  0
 15 16  1  0
 17 16  1  0
 17 18  1  0
 17 26  1  0
 19 13  1  0
 19 18  1  0
 20 13  2  0
 21 22  1  0
 21 12  1  0
 23 48  1  0
 23 24  2  0
 24 43  1  0
 25 28  1  0
 25 24  1  0
 26 27  1  0
 26 23  1  0
 27 25  2  0
 28 29  1  0
 29 30  2  0
 31 34  1  0
 31 30  1  0
 32 31  2  0
 33 32  1  0
 33 28  2  0
 34 35  1  0
 35 36  1  0
 36 37  2  0
 38 37  1  0
 38 42  1  0
 39 38  2  0
 40 35  2  0
 40 39  1  0
 41 40  1  0
 43 44  1  0
 44 46  1  0
 44 47  1  0
 45 43  2  0
 48 49  1  0
 50 48  1  0
 51  1  1  0
 52 51  1  0
 53 52  2  0
 54 52  1  0
 55 54  1  0
 56 55  1  0
 57 58  1  0
 57 56  1  0
 58 60  1  0
 59 70  2  0
 60 65  1  0
 61 69  1  0
 61 71  1  0
 62 64  1  0
 62 68  1  0
 63 69  1  0
 64 63  1  0
 65 64  2  0
 66 60  2  0
 66 67  1  0
 67 62  2  0
 68 61  1  0
 69 59  1  0
 71 73  2  0
 72 71  1  0
 74 72  1  0
 75 84  2  0
 75 80  1  0
 76 72  1  0
 76 80  1  0
 77 76  1  0
 78 79  1  0
 78 77  1  0
 79 75  1  0
 80 81  2  0
 81 82  1  0
 83 82  2  0
 84 83  1  0
 85 59  1  0
 85 90  1  0
 85 86  1  0
 86 89  1  1
 86 87  1  0
 88 86  1  0
 90 93  1  0
 91 90  1  0
 91 95  1  0
 92 91  2  0
 95 94  1  0
 97 95  1  0
 97 98  1  0
 97 96  1  0
M  ISO  4  13 100  21 100  57 101  58 101
M  END
>  <TORSDO>  (76) 
F 30

>  <SCORE>  (76) 
-2.767

>  <name>  (76) 
75

>  <ligand_id>  (76) 
75

>  <original_smiles>  (76) 
[H]c1c([H])c([H])c2c(c1[H])C([H])([H])C([H])([H])C([H])([H])C2([H])N([H])C(=O)C1([H])N(C(=O)C([H])(N([H])C(=O)C([H])(N([H])C([H])([H])[H])C([H])([H])[H])C(C([H])([H])[H])(C([H])([H])[H])C([H])([H])[H])C([H])([H])c2c([H])c(OC([H])([H])C([H])([H])C([H])([H])C([H])([H])C(=O)C([H])([H])C([H])([H])C([H])(C([H])([H])[H])[N+]([H])([H])C([H])([H])C([H])([H])C([H])([H])C([H])([H])C([H])([H])C([H])([H])N([H])C(=O)N3C([H])([H])C([H])([H])C([H])([H])C([H])(n4nc(-c5c([H])c([H])c(Oc6c([H])c([H])c(F)c([H])c6F)c([H])c5[H])c(C(=O)N([H])[H])c4N([H])[H])C3([H])[H])c([H])c([H])c2C1([H])[H]

>  <smiles>  (76) 
[H]c1c([H])c([H])c2c(c1[H])C([H])([H])C([H])([H])C([H])([H])C2([H])N([H])C(=O)C1([H])N(C(=O)C([H])(N([H])C(=O)C([H])(N([H])C([H])([H])[H])C([H])([H])[H])C(C([H])([H])[H])(C([H])([H])[H])C([H])([H])[H])C([H])([H])c2c([H])c(OC([H])([H])C([H])([H])C([H])([H])C([H])([H])C(=O)C([H])([H])C([H])([H])C([H])(C([H])([H])[H])[N+]([H])([H])C([H])([H])C([H])([H])C([H])([H])C([H])([H])C([H])([H])C([H])([H])N([H])C(=O)N3C([H])([H])C([H])([H])C([H])([H])C([H])(n4nc(-c5c([H])c([H])c(Oc6c([H])c([H])c(F)c([H])c6F)c([H])c5[H])c(C(=O)N([H])[H])c4N([H])[H])C3([H])[H])c([H])c([H])c2C1([H])[H]

$$$$
76:0:0
     RDKit          3D

 99107  0  0  1  0  0  0  0  0999 V2000
  -27.5240  -19.5820   19.8790 C   0  0  0  0  0  3  0  0  0  0  0  0
  -26.5170  -19.7630   18.9120 C   0  0  0  0  0  3  0  0  0  0  0  0
  -28.5680  -20.5140   20.0060 C   0  0  0  0  0  3  0  0  0  0  0  0
  -27.5450  -21.8690   18.2660 C   0  0  0  0  0  3  0  0  0  0  0  0
  -26.5600  -20.8870   18.0600 C   0  0  0  0  0  0  0  0  0  0  0  0
  -28.5590  -21.6860   19.2240 C   0  0  0  0  0  0  0  0  0  0  0  0
  -25.5960  -21.0900   16.9490 C   0  0  0  0  0  0  0  0  0  0  0  0
  -24.7270  -21.9670   16.9690 O   0  0  0  0  0  0  0  0  0  0  0  0
  -25.8100  -20.2600   15.6750 C   0  0  0  0  0  2  0  0  0  0  0  0
  -27.3130  -20.1350   15.3000 C   0  0  0  0  0  2  0  0  0  0  0  0
  -27.8790  -18.6980   15.2750 C   0  0  0  0  0  2  0  0  0  0  0  0
  -28.2940  -18.1260   16.6480 C   0  0  0  0  0  2  0  0  0  0  0  0
  -29.8130  -18.1230   16.9330 C   0  0  0  0  0  2  0  0  0  0  0  0
  -30.1520  -17.3010   18.1950 C   0  0  0  0  0  2  0  0  0  0  0  0
  -31.6540  -17.1940   18.5390 C   0  0  0  0  0  2  0  0  0  0  0  0
  -31.9820  -16.9040   20.0300 C   0  0  0  0  0  2  0  0  0  0  0  0
  -32.3160  -14.4550   20.2140 C   0  0  0  0  0  0  0  0  0  0  0  0
  -31.8800  -12.3300   19.0830 C   0  0  0  0  0  2  0  0  0  0  0  0
  -30.9690  -12.5990   17.8670 C   0  0  0  0  0  2  0  0  0  0  0  0
  -29.4770  -12.6650   18.2670 C   0  0  0  0  0  2  0  0  0  0  0  0
  -29.1900  -13.4560   19.5740 C   0  0  0  0  0  3  0  0  0  0  0  0
  -30.2270  -13.1320   20.6770 C   0  0  0  0  0  2  0  0  0  0  0  0
  -31.5710  -13.3290   20.1140 N   0  0  0  0  0  0  0  0  0  0  0  0
  -33.4840  -14.5430   19.8370 O   0  0  0  0  0  0  0  0  0  0  0  0
  -31.6080  -15.5600   20.4740 N   0  0  0  0  0  0  0  0  0  0  0  0
  -30.6720  -15.4330   20.8280 H   0  0  0  0  0  0  0  0  0  0  0  0
  -26.7830  -14.1720   20.1360 C   0  0  0  0  0  0  0  0  0  0  0  0
  -25.6900  -13.4630   20.5430 C   0  0  0  0  0  0  0  0  0  0  0  0
  -26.1210  -12.1070   20.6530 C   0  0  0  0  0  0  0  0  0  0  0  0
  -27.8180  -13.2560   20.0320 N   0  0  0  0  0  0  0  0  0  0  0  0
  -27.4190  -12.0130   20.4010 N   0  0  0  0  0  0  0  0  0  0  0  0
  -25.3620  -10.8820   20.9280 C   0  0  0  0  0  0  0  0  0  0  0  0
  -25.6140  -10.1090   22.0860 C   0  0  0  0  0  3  0  0  0  0  0  0
  -24.8620   -8.9440   22.3400 C   0  0  0  0  0  3  0  0  0  0  0  0
  -23.8470   -8.5440   21.4360 C   0  0  0  0  0  0  0  0  0  0  0  0
  -23.6210   -9.3010   20.2750 C   0  0  0  0  0  3  0  0  0  0  0  0
  -24.3740  -10.4580   20.0190 C   0  0  0  0  0  3  0  0  0  0  0  0
  -23.0870   -7.4110   21.5840 O   0  0  0  0  0  0  0  0  0  0  0  0
  -22.4550   -7.1200   22.7660 C   0  0  0  0  0  0  0  0  0  0  0  0
  -21.6510   -8.0670   23.4360 C   0  0  0  0  0  3  0  0  0  0  0  0
  -20.9700   -7.7070   24.6180 C   0  0  0  0  0  3  0  0  0  0  0  0
  -21.0790   -6.3920   25.1200 C   0  0  0  0  0  0  0  0  0  0  0  0
  -21.8710   -5.4470   24.4480 C   0  0  0  0  0  3  0  0  0  0  0  0
  -22.5560   -5.8100   23.2740 C   0  0  0  0  0  0  0  0  0  0  0  0
  -23.3040   -4.8890   22.6210 F   0  0  0  0  0  0  0  0  0  0  0  0
  -20.4190   -6.0380   26.2480 F   0  0  0  0  0  0  0  0  0  0  0  0
  -24.2970  -13.9910   20.7190 C   0  0  0  0  0  0  0  0  0  0  0  0
  -23.5190  -13.3730   21.5950 N   0  0  0  0  0  0  0  0  0  0  0  0
  -23.9050  -14.9920   20.1170 O   0  0  0  0  0  0  0  0  0  0  0  0
  -23.8470  -12.5640   22.1000 H   0  0  0  0  0  0  0  0  0  0  0  0
  -22.5880  -13.7220   21.7700 H   0  0  0  0  0  0  0  0  0  0  0  0
  -26.9760  -15.5130   19.8270 N   0  0  0  0  0  0  0  0  0  0  0  0
  -26.2000  -16.1660   19.8420 H   0  0  0  0  0  0  0  0  0  0  0  0
  -27.8300  -15.8960   19.4510 H   0  0  0  0  0  0  0  0  0  0  0  0
  -29.6200  -22.7580   19.3990 C   0  0  0  0  0  2  0  0  0  0  0  0
  -29.6570  -23.3390   20.8240 C   0  0  0  0  0  2  0  0  0  0  0  0
  -30.1760  -24.7850   20.8670 C   0  0  0  0  0  2  0  0  0  0  0  0
  -29.7740  -25.5030   22.1640 C   0  0  0  0  0  2  0  0  0  0  0  0
  -29.6730  -26.9130   21.9800 O   0  0  0  0  0  0  0  0  0  0  0  0
  -24.9490  -32.0030   23.4170 C   0  0  0  0  0  0  0  0  0  0  0  0
  -28.4410  -27.4430   21.6640 C   0  0  0  0  0  0  0  0  0  0  0  0
  -24.1690  -30.2370   21.8700 C   0  0  0  0  0  3  0  0  0  0  0  0
  -25.9670  -28.6450   21.0150 C   0  0  0  0  0  0  0  0  0  0  0  0
  -26.6520  -30.8270   22.0320 C   0  0  0  0  0  2  0  0  0  0  0  0
  -26.9560  -29.3880   21.6710 C   0  0  0  0  0  0  0  0  0  0  0  0
  -28.1970  -28.7960   21.9840 C   0  0  0  0  0  3  0  0  0  0  0  0
  -27.4280  -26.7020   21.0140 C   0  0  0  0  0  3  0  0  0  0  0  0
  -26.1970  -27.3000   20.6840 C   0  0  0  0  0  3  0  0  0  0  0  0
  -24.6750  -29.3600   20.6940 C   0  0  0  0  0  2  0  0  0  0  0  0
  -25.2630  -31.0460   22.4990 N   0  0  0  0  0  0  0  0  0  0  0  0
  -23.7710  -32.2480   23.7100 O   0  0  0  0  0  0  0  0  0  0  0  0
  -23.4280  -29.3250   22.8750 C   0  0  0  0  0  0  0  0  0  0  0  0
  -22.1510  -29.0310   22.5810 N   0  0  0  0  0  0  0  0  0  0  0  0
  -24.0060  -28.8780   23.8690 O   0  0  0  0  0  0  0  0  0  0  0  0
  -21.7510  -29.4410   21.7480 H   0  0  0  0  0  0  0  0  0  0  0  0
  -18.7340  -27.9170   22.9240 C   0  0  0  0  0  0  0  0  0  0  0  0
  -21.2680  -28.1610   23.3570 C   0  0  0  0  0  3  0  0  0  0  0  0
  -21.3870  -26.6910   22.8910 C   0  0  0  0  0  2  0  0  0  0  0  0
  -20.3530  -26.3110   21.8280 C   0  0  0  0  0  2  0  0  0  0  0  0
  -18.9320  -26.5200   22.3600 C   0  0  0  0  0  2  0  0  0  0  0  0
  -19.8320  -28.6950   23.3760 C   0  0  0  0  0  0  0  0  0  0  0  0
  -19.5960  -30.0010   23.8560 C   0  0  0  0  0  3  0  0  0  0  0  0
  -18.2910  -30.5290   23.8920 C   0  0  0  0  0  3  0  0  0  0  0  0
  -17.2060  -29.7490   23.4570 C   0  0  0  0  0  3  0  0  0  0  0  0
  -17.4260  -28.4460   22.9790 C   0  0  0  0  0  3  0  0  0  0  0  0
  -26.0510  -32.8520   24.1260 C   0  0  0  0  0  3  0  0  0  0  0  0
  -25.5020  -34.1950   24.3460 N   0  0  0  0  0  0  0  0  0  0  0  0
  -25.7270  -35.2490   23.5490 C   0  0  0  0  0  0  0  0  0  0  0  0
  -26.4890  -35.2030   22.5780 O   0  0  0  0  0  0  0  0  0  0  0  0
  -24.8260  -34.2920   25.0910 H   0  0  0  0  0  0  0  0  0  0  0  0
  -23.7690  -36.7090   22.9580 C   0  0  0  0  0  1  0  0  0  0  0  0
  -24.9890  -36.5590   23.8800 C   0  0  0  0  0  3  0  0  0  0  0  0
  -26.8880  -37.8180   24.7940 C   0  0  0  0  0  1  0  0  0  0  0  0
  -25.8470  -37.7600   23.7710 N   0  0  0  0  0  0  0  0  0  0  0  0
  -25.2890  -38.6070   23.8380 H   0  0  0  0  0  0  0  0  0  0  0  0
  -26.5460  -32.2210   25.4840 C   0  0  1  0  0  0  0  0  0  0  0  0
  -25.3980  -31.7090   26.3850 C   0  0  0  0  0  1  0  0  0  0  0  0
  -27.5020  -31.0350   25.2160 C   0  0  0  0  0  1  0  0  0  0  0  0
  -27.3560  -33.2670   26.2860 C   0  0  0  0  0  1  0  0  0  0  0  0
  1  3  1  0
  2  1  2  0
  4  6  1  0
  5  4  2  0
  5  2  1  0
  6 55  1  0
  6  3  2  0
  7  8  2  0
  7  5  1  0
  9  7  1  0
 10  9  1  0
 11 10  1  0
 11 12  1  0
 12 13  1  0
 13 14  1  0
 14 15  1  0
 15 16  1  0
 16 25  1  0
 17 25  1  0
 18 23  1  0
 19 20  1  0
 19 18  1  0
 21 20  1  0
 21 30  1  0
 21 22  1  0
 23 17  1  0
 23 22  1  0
 24 17  2  0
 25 26  1  0
 27 28  2  0
 28 29  1  0
 28 47  1  0
 29 32  1  0
 30 27  1  0
 30 31  1  0
 31 29  2  0
 32 33  1  0
 33 34  2  0
 35 38  1  0
 35 34  1  0
 36 35  2  0
 37 36  1  0
 37 32  2  0
 38 39  1  0
 39 44  2  0
 39 40  1  0
 40 41  2  0
 41 42  1  0
 42 46  1  0
 43 42  2  0
 44 43  1  0
 45 44  1  0
 47 48  1  0
 48 51  1  0
 48 50  1  0
 49 47  2  0
 52 53  1  0
 52 27  1  0
 54 52  1  0
 55 56  1  0
 56 57  1  0
 57 58  1  0
 59 58  1  0
 60 71  2  0
 61 59  1  0
 61 66  1  0
 62 70  1  0
 62 72  1  0
 63 65  1  0
 64 70  1  0
 65 66  2  0
 65 64  1  0
 67 61  2  0
 68 67  1  0
 68 63  2  0
 69 63  1  0
 69 62  1  0
 70 60  1  0
 72 74  2  0
 73 72  1  0
 75 73  1  0
 76 85  2  0
 76 81  1  0
 77 73  1  0
 77 81  1  0
 78 77  1  0
 79 80  1  0
 79 78  1  0
 80 76  1  0
 81 82  2  0
 82 83  1  0
 84 83  2  0
 85 84  1  0
 86 60  1  0
 86 87  1  0
 86 96  1  0
 87 90  1  0
 88 92  1  0
 88 87  1  0
 89 88  2  0
 92 91  1  0
 94 95  1  0
 94 92  1  0
 94 93  1  0
 96 99  1  1
 96 97  1  0
 98 96  1  0
M  ISO  4  17 100  25 100  58 101  59 101
M  END
>  <TORSDO>  (77) 
F 29

>  <SCORE>  (77) 
-4.183

>  <name>  (77) 
76

>  <ligand_id>  (77) 
76

>  <original_smiles>  (77) 
[H]c1c([H])c(C(=O)C([H])([H])C([H])([H])C([H])([H])C([H])([H])C([H])([H])C([H])([H])C([H])([H])C([H])([H])N([H])C(=O)N2C([H])([H])C([H])([H])C([H])([H])C([H])(n3nc(-c4c([H])c([H])c(Oc5c([H])c([H])c(F)c([H])c5F)c([H])c4[H])c(C(=O)N([H])[H])c3N([H])[H])C2([H])[H])c([H])c(C([H])([H])C([H])([H])C([H])([H])C([H])([H])Oc2c([H])c([H])c3c(c2[H])C([H])([H])N(C(=O)C([H])(N([H])C(=O)C([H])(N([H])C([H])([H])[H])C([H])([H])[H])C(C([H])([H])[H])(C([H])([H])[H])C([H])([H])[H])C([H])(C(=O)N([H])C2([H])c4c([H])c([H])c([H])c([H])c4C([H])([H])C([H])([H])C2([H])[H])C3([H])[H])c1[H]

>  <smiles>  (77) 
[H]c1c([H])c(C(=O)C([H])([H])C([H])([H])C([H])([H])C([H])([H])C([H])([H])C([H])([H])C([H])([H])C([H])([H])N([H])C(=O)N2C([H])([H])C([H])([H])C([H])([H])C([H])(n3nc(-c4c([H])c([H])c(Oc5c([H])c([H])c(F)c([H])c5F)c([H])c4[H])c(C(=O)N([H])[H])c3N([H])[H])C2([H])[H])c([H])c(C([H])([H])C([H])([H])C([H])([H])C([H])([H])Oc2c([H])c([H])c3c(c2[H])C([H])([H])N(C(=O)C([H])(N([H])C(=O)C([H])(N([H])C([H])([H])[H])C([H])([H])[H])C(C([H])([H])[H])(C([H])([H])[H])C([H])([H])[H])C([H])(C(=O)N([H])C2([H])c4c([H])c([H])c([H])c([H])c4C([H])([H])C([H])([H])C2([H])[H])C3([H])[H])c1[H]

$$$$
77:0:0
     RDKit          3D

 97105  0  0  1  0  0  0  0  0999 V2000
  -32.4800  -21.6220   23.3960 C   0  0  0  0  0  3  0  0  0  0  0  0
  -33.1290  -22.0770   22.2300 C   0  0  0  0  0  3  0  0  0  0  0  0
  -30.3410  -22.2980   22.4500 C   0  0  0  0  0  3  0  0  0  0  0  0
  -31.0770  -21.7140   23.5010 C   0  0  0  0  0  0  0  0  0  0  0  0
  -30.9840  -22.7710   21.2880 C   0  0  0  0  0  0  0  0  0  0  0  0
  -32.3880  -22.6460   21.1750 C   0  0  0  0  0  0  0  0  0  0  0  0
  -33.0390  -23.0750   20.0530 O   0  0  0  0  0  0  0  0  0  0  0  0
  -33.9690  -22.8700   20.0680 H   0  0  0  0  0  0  0  0  0  0  0  0
  -30.3500  -21.1560   24.7160 C   0  0  0  0  0  2  0  0  0  0  0  0
  -30.5960  -19.6510   24.9760 C   0  0  0  0  0  2  0  0  0  0  0  0
  -30.9400  -18.7920   23.7400 C   0  0  0  0  0  2  0  0  0  0  0  0
  -29.9660  -18.9580   22.5630 C   0  0  0  0  0  2  0  0  0  0  0  0
  -30.5590  -18.5320   21.2080 C   0  0  0  0  0  2  0  0  0  0  0  0
  -30.4290  -17.0400   20.8680 C   0  0  0  0  0  2  0  0  0  0  0  0
  -31.6750  -16.1790   21.1390 C   0  0  0  0  0  2  0  0  0  0  0  0
  -31.6910  -13.9270   20.0100 C   0  0  0  0  0  0  0  0  0  0  0  0
  -31.0790  -11.8330   18.8470 C   0  0  0  0  0  2  0  0  0  0  0  0
  -30.1050  -12.1120   17.6850 C   0  0  0  0  0  2  0  0  0  0  0  0
  -28.6450  -12.1740   18.1780 C   0  0  0  0  0  2  0  0  0  0  0  0
  -28.4770  -13.0940   19.4150 C   0  0  0  0  0  3  0  0  0  0  0  0
  -29.5250  -12.7330   20.4890 C   0  0  0  0  0  2  0  0  0  0  0  0
  -30.8710  -12.8520   19.8850 N   0  0  0  0  0  0  0  0  0  0  0  0
  -32.6940  -14.1140   19.3150 O   0  0  0  0  0  0  0  0  0  0  0  0
  -31.3020  -14.7820   20.9650 N   0  0  0  0  0  0  0  0  0  0  0  0
  -30.5290  -14.4580   21.5290 H   0  0  0  0  0  0  0  0  0  0  0  0
  -26.2320  -14.0570   20.2410 C   0  0  0  0  0  0  0  0  0  0  0  0
  -25.0730  -13.4510   20.6500 C   0  0  0  0  0  0  0  0  0  0  0  0
  -25.3150  -12.0440   20.5730 C   0  0  0  0  0  0  0  0  0  0  0  0
  -27.1170  -13.0290   19.9470 N   0  0  0  0  0  0  0  0  0  0  0  0
  -26.5670  -11.8140   20.1990 N   0  0  0  0  0  0  0  0  0  0  0  0
  -24.4130  -10.9050   20.7790 C   0  0  0  0  0  0  0  0  0  0  0  0
  -24.7630   -9.8290   21.6240 C   0  0  0  0  0  3  0  0  0  0  0  0
  -23.8720   -8.7510   21.8190 C   0  0  0  0  0  3  0  0  0  0  0  0
  -22.6150   -8.7430   21.1690 C   0  0  0  0  0  0  0  0  0  0  0  0
  -22.2810   -9.8060   20.3100 C   0  0  0  0  0  3  0  0  0  0  0  0
  -23.1720  -10.8740   20.1130 C   0  0  0  0  0  3  0  0  0  0  0  0
  -21.6960   -7.7280   21.2780 O   0  0  0  0  0  0  0  0  0  0  0  0
  -21.6500   -6.9170   22.3830 C   0  0  0  0  0  0  0  0  0  0  0  0
  -21.4880   -7.4400   23.6850 C   0  0  0  0  0  3  0  0  0  0  0  0
  -21.3750   -6.5660   24.7840 C   0  0  0  0  0  3  0  0  0  0  0  0
  -21.4140   -5.1730   24.5850 C   0  0  0  0  0  0  0  0  0  0  0  0
  -21.5710   -4.6510   23.2880 C   0  0  0  0  0  3  0  0  0  0  0  0
  -21.6850   -5.5210   22.1900 C   0  0  0  0  0  0  0  0  0  0  0  0
  -21.8160   -5.0140   20.9410 F   0  0  0  0  0  0  0  0  0  0  0  0
  -21.2950   -4.3330   25.6390 F   0  0  0  0  0  0  0  0  0  0  0  0
  -23.7830  -14.1310   21.0040 C   0  0  0  0  0  0  0  0  0  0  0  0
  -23.0060  -13.5410   21.9060 N   0  0  0  0  0  0  0  0  0  0  0  0
  -23.4780  -15.2190   20.5160 O   0  0  0  0  0  0  0  0  0  0  0  0
  -23.2640  -12.6590   22.3230 H   0  0  0  0  0  0  0  0  0  0  0  0
  -22.1360  -13.9790   22.1810 H   0  0  0  0  0  0  0  0  0  0  0  0
  -26.6000  -15.3890   20.0830 N   0  0  0  0  0  0  0  0  0  0  0  0
  -25.9600  -16.1540   20.2680 H   0  0  0  0  0  0  0  0  0  0  0  0
  -27.5070  -15.7010   19.7590 H   0  0  0  0  0  0  0  0  0  0  0  0
  -30.1330  -23.4050   20.1960 C   0  0  0  0  0  2  0  0  0  0  0  0
  -29.9310  -24.9120   20.4180 C   0  0  0  0  0  2  0  0  0  0  0  0
  -28.6760  -25.4690   19.7380 C   0  0  0  0  0  2  0  0  0  0  0  0
  -28.6410  -26.8710   19.9780 O   0  0  0  0  0  0  0  0  0  0  0  0
  -24.6820  -31.8180   23.1390 C   0  0  0  0  0  0  0  0  0  0  0  0
  -27.4220  -27.5110   19.9780 C   0  0  0  0  0  0  0  0  0  0  0  0
  -23.4970  -30.4130   21.4820 C   0  0  0  0  0  3  0  0  0  0  0  0
  -24.9780  -28.9340   20.0270 C   0  0  0  0  0  0  0  0  0  0  0  0
  -26.0090  -30.8440   21.2700 C   0  0  0  0  0  2  0  0  0  0  0  0
  -26.1230  -29.4860   20.6140 C   0  0  0  0  0  0  0  0  0  0  0  0
  -27.3450  -28.7820   20.5820 C   0  0  0  0  0  3  0  0  0  0  0  0
  -26.2570  -26.9620   19.3890 C   0  0  0  0  0  3  0  0  0  0  0  0
  -25.0400  -27.6700   19.4130 C   0  0  0  0  0  3  0  0  0  0  0  0
  -23.7110  -29.7590   20.0910 C   0  0  0  0  0  2  0  0  0  0  0  0
  -24.7470  -31.0400   22.0230 N   0  0  0  0  0  0  0  0  0  0  0  0
  -23.5970  -32.0540   23.6900 O   0  0  0  0  0  0  0  0  0  0  0  0
  -22.8790  -29.3620   22.4300 C   0  0  0  0  0  0  0  0  0  0  0  0
  -21.5540  -29.1700   22.3230 N   0  0  0  0  0  0  0  0  0  0  0  0
  -23.5840  -28.7230   23.2140 O   0  0  0  0  0  0  0  0  0  0  0  0
  -21.0460  -29.7340   21.6570 H   0  0  0  0  0  0  0  0  0  0  0  0
  -18.1970  -27.9510   22.8550 C   0  0  0  0  0  0  0  0  0  0  0  0
  -20.7590  -28.2090   23.0850 C   0  0  0  0  0  3  0  0  0  0  0  0
  -20.8570  -26.7950   22.4660 C   0  0  0  0  0  2  0  0  0  0  0  0
  -19.7330  -26.4980   21.4670 C   0  0  0  0  0  2  0  0  0  0  0  0
  -18.3640  -26.6210   22.1410 C   0  0  0  0  0  2  0  0  0  0  0  0
  -19.3210  -28.7050   23.2850 C   0  0  0  0  0  0  0  0  0  0  0  0
  -19.1100  -29.9530   23.9100 C   0  0  0  0  0  3  0  0  0  0  0  0
  -17.8070  -30.4440   24.1170 C   0  0  0  0  0  3  0  0  0  0  0  0
  -16.6970  -29.6850   23.7060 C   0  0  0  0  0  3  0  0  0  0  0  0
  -16.8930  -28.4430   23.0780 C   0  0  0  0  0  3  0  0  0  0  0  0
  -25.9590  -32.4650   23.7610 C   0  0  0  0  0  3  0  0  0  0  0  0
  -26.5010  -31.6850   25.0200 C   0  0  1  0  0  0  0  0  0  0  0  0
  -25.4220  -31.4100   26.0940 C   0  0  0  0  0  1  0  0  0  0  0  0
  -27.1060  -30.3260   24.5980 C   0  0  0  0  0  1  0  0  0  0  0  0
  -27.6400  -32.4910   25.6870 C   0  0  0  0  0  1  0  0  0  0  0  0
  -25.6230  -33.8510   24.1130 N   0  0  0  0  0  0  0  0  0  0  0  0
  -25.9320  -34.9200   23.3680 C   0  0  0  0  0  0  0  0  0  0  0  0
  -26.6020  -34.8470   22.3340 O   0  0  0  0  0  0  0  0  0  0  0  0
  -25.0310  -33.9830   24.9210 H   0  0  0  0  0  0  0  0  0  0  0  0
  -24.1590  -36.6740   23.0480 C   0  0  0  0  0  1  0  0  0  0  0  0
  -25.4160  -36.2910   23.8460 C   0  0  0  0  0  3  0  0  0  0  0  0
  -27.5370  -37.2120   24.6690 C   0  0  0  0  0  1  0  0  0  0  0  0
  -26.4220  -37.3690   23.7380 N   0  0  0  0  0  0  0  0  0  0  0  0
  -25.9950  -38.2770   23.9050 H   0  0  0  0  0  0  0  0  0  0  0  0
  1  4  1  0
  2  1  2  0
  3  4  2  0
  4  9  1  0
  5  3  1  0
  6  5  2  0
  6  2  1  0
  7  8  1  0
  7  6  1  0
  9 10  1  0
 11 10  1  0
 12 11  1  0
 13 12  1  0
 14 15  1  0
 14 13  1  0
 16 24  1  0
 17 22  1  0
 18 19  1  0
 18 17  1  0
 20 19  1  0
 20 29  1  0
 20 21  1  0
 22 16  1  0
 22 21  1  0
 23 16  2  0
 24 15  1  0
 24 25  1  0
 26 27  2  0
 27 46  1  0
 28 27  1  0
 28 31  1  0
 29 30  1  0
 29 26  1  0
 30 28  2  0
 31 32  1  0
 32 33  2  0
 34 37  1  0
 34 33  1  0
 35 34  2  0
 36 35  1  0
 36 31  2  0
 37 38  1  0
 38 39  1  0
 39 40  2  0
 41 40  1  0
 41 45  1  0
 42 41  2  0
 43 38  2  0
 43 42  1  0
 44 43  1  0
 46 47  1  0
 47 50  1  0
 47 49  1  0
 48 46  2  0
 51 26  1  0
 51 52  1  0
 53 51  1  0
 54 55  1  0
 54  5  1  0
 56 57  1  0
 56 55  1  0
 58 69  2  0
 59 57  1  0
 59 64  1  0
 60 68  1  0
 60 70  1  0
 61 67  1  0
 61 63  1  0
 62 68  1  0
 63 62  1  0
 64 63  2  0
 65 66  1  0
 65 59  2  0
 66 61  2  0
 67 60  1  0
 68 58  1  0
 70 72  2  0
 71 70  1  0
 73 71  1  0
 74 83  2  0
 74 79  1  0
 75 71  1  0
 75 79  1  0
 76 75  1  0
 77 78  1  0
 77 76  1  0
 78 74  1  0
 79 80  2  0
 80 81  1  0
 82 81  2  0
 83 82  1  0
 84 58  1  0
 84 89  1  0
 84 85  1  0
 85 88  1  1
 85 86  1  0
 87 85  1  0
 89 92  1  0
 90 94  1  0
 90 89  1  0
 91 90  2  0
 94 93  1  0
 96 94  1  0
 96 97  1  0
 96 95  1  0
M  ISO  4  16 100  24 100  56 101  57 101
M  END
>  <TORSDO>  (78) 
F 27

>  <SCORE>  (78) 
-7.786

>  <name>  (78) 
77

>  <ligand_id>  (78) 
77

>  <original_smiles>  (78) 
[H]Oc1c([H])c([H])c(C([H])([H])C([H])([H])C([H])([H])C([H])([H])C([H])([H])C([H])([H])C([H])([H])N([H])C(=O)N2C([H])([H])C([H])([H])C([H])([H])C([H])(n3nc(-c4c([H])c([H])c(Oc5c([H])c([H])c(F)c([H])c5F)c([H])c4[H])c(C(=O)N([H])[H])c3N([H])[H])C2([H])[H])c([H])c1C([H])([H])C([H])([H])C([H])([H])Oc1c([H])c([H])c2c(c1[H])C([H])([H])N(C(=O)C([H])(N([H])C(=O)C([H])(N([H])C([H])([H])[H])C([H])([H])[H])C(C([H])([H])[H])(C([H])([H])[H])C([H])([H])[H])C([H])(C(=O)N([H])C1([H])c3c([H])c([H])c([H])c([H])c3C([H])([H])C([H])([H])C1([H])[H])C2([H])[H]

>  <smiles>  (78) 
[H]Oc1c([H])c([H])c(C([H])([H])C([H])([H])C([H])([H])C([H])([H])C([H])([H])C([H])([H])C([H])([H])N([H])C(=O)N2C([H])([H])C([H])([H])C([H])([H])C([H])(n3nc(-c4c([H])c([H])c(Oc5c([H])c([H])c(F)c([H])c5F)c([H])c4[H])c(C(=O)N([H])[H])c3N([H])[H])C2([H])[H])c([H])c1C([H])([H])C([H])([H])C([H])([H])Oc1c([H])c([H])c2c(c1[H])C([H])([H])N(C(=O)C([H])(N([H])C(=O)C([H])(N([H])C([H])([H])[H])C([H])([H])[H])C(C([H])([H])[H])(C([H])([H])[H])C([H])([H])[H])C([H])(C(=O)N([H])C1([H])c3c([H])c([H])c([H])c([H])c3C([H])([H])C([H])([H])C1([H])[H])C2([H])[H]

$$$$
78:0:0
     RDKit          3D

 97105  0  0  1  0  0  0  0  0999 V2000
  -27.5100  -23.0820   22.3120 C   0  0  0  0  0  3  0  0  0  0  0  0
  -26.6930  -24.1700   22.6330 C   0  0  0  0  0  3  0  0  0  0  0  0
  -28.8450  -24.5080   20.8680 C   0  0  0  0  0  3  0  0  0  0  0  0
  -28.6450  -23.2630   21.4980 C   0  0  0  0  0  0  0  0  0  0  0  0
  -26.9840  -25.4610   22.1460 C   0  0  0  0  0  0  0  0  0  0  0  0
  -28.0330  -25.6240   21.1880 C   0  0  0  0  0  0  0  0  0  0  0  0
  -29.6380  -22.1700   21.3540 C   0  0  0  0  0  0  0  0  0  0  0  0
  -30.3220  -21.9810   20.3440 O   0  0  0  0  0  0  0  0  0  0  0  0
  -29.8410  -21.3300   22.6220 C   0  0  0  0  0  2  0  0  0  0  0  0
  -31.1270  -20.5010   22.6940 C   0  0  0  0  0  2  0  0  0  0  0  0
  -30.9950  -19.1530   21.9820 C   0  0  0  0  0  2  0  0  0  0  0  0
  -31.9760  -18.1220   22.5470 C   0  0  0  0  0  2  0  0  0  0  0  0
  -31.6710  -16.7020   22.0660 C   0  0  0  0  0  2  0  0  0  0  0  0
  -32.2440  -16.3810   20.6790 C   0  0  0  0  0  2  0  0  0  0  0  0
  -32.3860  -14.8710   20.4530 C   0  0  0  0  0  2  0  0  0  0  0  0
  -30.7550  -13.6730   19.0150 C   0  0  0  0  0  0  0  0  0  0  0  0
  -30.2570  -11.3680   18.3590 C   0  0  0  0  0  2  0  0  0  0  0  0
  -29.1100  -11.1910   17.3590 C   0  0  0  0  0  2  0  0  0  0  0  0
  -27.7780  -11.0670   18.1100 C   0  0  0  0  0  2  0  0  0  0  0  0
  -27.5580  -12.2350   19.1070 C   0  0  0  0  0  3  0  0  0  0  0  0
  -28.7970  -12.4530   20.0110 C   0  0  0  0  0  2  0  0  0  0  0  0
  -30.0030  -12.5610   19.1720 N   0  0  0  0  0  0  0  0  0  0  0  0
  -31.3630  -13.9530   17.9790 O   0  0  0  0  0  0  0  0  0  0  0  0
  -31.1030  -14.2130   20.1900 N   0  0  0  0  0  0  0  0  0  0  0  0
  -30.5960  -13.8790   20.9960 H   0  0  0  0  0  0  0  0  0  0  0  0
  -25.4880  -12.9790   20.4510 C   0  0  0  0  0  0  0  0  0  0  0  0
  -24.4570  -12.2720   21.0130 C   0  0  0  0  0  0  0  0  0  0  0  0
  -24.7360  -10.8960   20.7530 C   0  0  0  0  0  0  0  0  0  0  0  0
  -26.3380  -12.0370   19.8910 N   0  0  0  0  0  0  0  0  0  0  0  0
  -25.8980  -10.7720   20.1230 N   0  0  0  0  0  0  0  0  0  0  0  0
  -23.9350   -9.6930   21.0180 C   0  0  0  0  0  0  0  0  0  0  0  0
  -24.3670   -8.7030   21.9290 C   0  0  0  0  0  3  0  0  0  0  0  0
  -23.5700   -7.5650   22.1810 C   0  0  0  0  0  3  0  0  0  0  0  0
  -22.3290   -7.4090   21.5210 C   0  0  0  0  0  0  0  0  0  0  0  0
  -21.9140   -8.3840   20.5970 C   0  0  0  0  0  3  0  0  0  0  0  0
  -22.7090   -9.5130   20.3440 C   0  0  0  0  0  3  0  0  0  0  0  0
  -21.5010   -6.3220   21.6830 O   0  0  0  0  0  0  0  0  0  0  0  0
  -21.3950   -5.6700   22.8850 C   0  0  0  0  0  0  0  0  0  0  0  0
  -20.9400   -6.3250   24.0520 C   0  0  0  0  0  3  0  0  0  0  0  0
  -20.7800   -5.6000   25.2490 C   0  0  0  0  0  3  0  0  0  0  0  0
  -21.0670   -4.2220   25.2820 C   0  0  0  0  0  0  0  0  0  0  0  0
  -21.5150   -3.5670   24.1220 C   0  0  0  0  0  3  0  0  0  0  0  0
  -21.6780   -4.2890   22.9270 C   0  0  0  0  0  0  0  0  0  0  0  0
  -22.0900   -3.6490   21.8050 F   0  0  0  0  0  0  0  0  0  0  0  0
  -20.9070   -3.5240   26.4300 F   0  0  0  0  0  0  0  0  0  0  0  0
  -23.2360  -12.8440   21.6740 C   0  0  0  0  0  0  0  0  0  0  0  0
  -22.6770  -12.1330   22.6500 N   0  0  0  0  0  0  0  0  0  0  0  0
  -22.7960  -13.9480   21.3620 O   0  0  0  0  0  0  0  0  0  0  0  0
  -23.0510  -11.2360   22.9220 H   0  0  0  0  0  0  0  0  0  0  0  0
  -21.8620  -12.4900   23.1290 H   0  0  0  0  0  0  0  0  0  0  0  0
  -25.7640  -14.3390   20.3520 N   0  0  0  0  0  0  0  0  0  0  0  0
  -25.1310  -15.0500   20.7010 H   0  0  0  0  0  0  0  0  0  0  0  0
  -26.5730  -14.7240   19.8810 H   0  0  0  0  0  0  0  0  0  0  0  0
  -26.1450  -26.6020   24.2720 C   0  0  0  0  0  1  0  0  0  0  0  0
  -26.1550  -26.6030   22.7310 C   0  0  0  0  0  2  0  0  0  0  0  0
  -28.3900  -26.9470   20.5080 C   0  0  0  0  0  2  0  0  0  0  0  0
  -27.6890  -27.1600   19.2750 O   0  0  0  0  0  0  0  0  0  0  0  0
  -24.3750  -31.9890   23.2310 C   0  0  0  0  0  0  0  0  0  0  0  0
  -26.5730  -27.9380   19.4180 C   0  0  0  0  0  0  0  0  0  0  0  0
  -22.9600  -30.8030   21.5750 C   0  0  0  0  0  3  0  0  0  0  0  0
  -24.2210  -29.4230   19.8360 C   0  0  0  0  0  0  0  0  0  0  0  0
  -25.4540  -31.1710   21.1450 C   0  0  0  0  0  2  0  0  0  0  0  0
  -25.4400  -29.8890   20.3440 C   0  0  0  0  0  0  0  0  0  0  0  0
  -26.6210  -29.1600   20.1220 C   0  0  0  0  0  3  0  0  0  0  0  0
  -25.3500  -27.4840   18.8900 C   0  0  0  0  0  3  0  0  0  0  0  0
  -24.1690  -28.2210   19.1050 C   0  0  0  0  0  3  0  0  0  0  0  0
  -23.0020  -30.2760   20.1130 C   0  0  0  0  0  2  0  0  0  0  0  0
  -24.2870  -31.3280   22.0410 N   0  0  0  0  0  0  0  0  0  0  0  0
  -23.3670  -32.2050   23.9180 O   0  0  0  0  0  0  0  0  0  0  0  0
  -22.3930  -29.6910   22.4800 C   0  0  0  0  0  0  0  0  0  0  0  0
  -21.0810  -29.4320   22.3680 N   0  0  0  0  0  0  0  0  0  0  0  0
  -23.1260  -29.0660   23.2430 O   0  0  0  0  0  0  0  0  0  0  0  0
  -20.5430  -29.9860   21.7190 H   0  0  0  0  0  0  0  0  0  0  0  0
  -17.8340  -27.9040   22.7390 C   0  0  0  0  0  0  0  0  0  0  0  0
  -20.3440  -28.4030   23.1030 C   0  0  0  0  0  3  0  0  0  0  0  0
  -20.6060  -27.0000   22.5090 C   0  0  0  0  0  2  0  0  0  0  0  0
  -19.5750  -26.5950   21.4510 C   0  0  0  0  0  2  0  0  0  0  0  0
  -18.1630  -26.5930   22.0470 C   0  0  0  0  0  2  0  0  0  0  0  0
  -18.8590  -28.7620   23.2190 C   0  0  0  0  0  0  0  0  0  0  0  0
  -18.5020  -29.9870   23.8220 C   0  0  0  0  0  3  0  0  0  0  0  0
  -17.1510  -30.3560   23.9540 C   0  0  0  0  0  3  0  0  0  0  0  0
  -16.1380  -29.4970   23.4930 C   0  0  0  0  0  3  0  0  0  0  0  0
  -16.4810  -28.2730   22.8930 C   0  0  0  0  0  3  0  0  0  0  0  0
  -25.7360  -32.5250   23.7720 C   0  0  0  0  0  3  0  0  0  0  0  0
  -26.3420  -31.6400   24.9300 C   0  0  1  0  0  0  0  0  0  0  0  0
  -25.3460  -31.3500   26.0770 C   0  0  0  0  0  1  0  0  0  0  0  0
  -26.8310  -30.2830   24.3740 C   0  0  0  0  0  1  0  0  0  0  0  0
  -27.5750  -32.3470   25.5410 C   0  0  0  0  0  1  0  0  0  0  0  0
  -25.5170  -33.9010   24.2320 N   0  0  0  0  0  0  0  0  0  0  0  0
  -25.8530  -34.9980   23.5390 C   0  0  0  0  0  0  0  0  0  0  0  0
  -26.4550  -34.9500   22.4610 O   0  0  0  0  0  0  0  0  0  0  0  0
  -24.9820  -34.0130   25.0820 H   0  0  0  0  0  0  0  0  0  0  0  0
  -24.1940  -36.8810   23.4290 C   0  0  0  0  0  1  0  0  0  0  0  0
  -25.4600  -36.3640   24.1320 C   0  0  0  0  0  3  0  0  0  0  0  0
  -27.6760  -37.0830   24.8970 C   0  0  0  0  0  1  0  0  0  0  0  0
  -26.5310  -37.3800   24.0400 N   0  0  0  0  0  0  0  0  0  0  0  0
  -26.1810  -38.3010   24.2890 H   0  0  0  0  0  0  0  0  0  0  0  0
  1  2  1  0
  3  6  2  0
  3  4  1  0
  4  1  2  0
  5  2  2  0
  5 55  1  0
  6  5  1  0
  7  4  1  0
  7  9  1  0
  8  7  2  0
  9 10  1  0
 11 12  1  0
 11 10  1  0
 13 12  1  0
 14 13  1  0
 15 14  1  0
 16 22  1  0
 16 24  1  0
 17 22  1  0
 18 19  1  0
 18 17  1  0
 20 19  1  0
 20 29  1  0
 20 21  1  0
 22 21  1  0
 23 16  2  0
 24 15  1  0
 24 25  1  0
 26 27  2  0
 27 46  1  0
 28 27  1  0
 28 31  1  0
 29 30  1  0
 29 26  1  0
 30 28  2  0
 31 32  1  0
 32 33  2  0
 34 37  1  0
 34 33  1  0
 35 34  2  0
 36 35  1  0
 36 31  2  0
 37 38  1  0
 38 43  2  0
 38 39  1  0
 39 40  2  0
 40 41  1  0
 41 45  1  0
 42 41  2  0
 43 42  1  0
 44 43  1  0
 46 47  1  0
 47 49  1  0
 47 50  1  0
 48 46  2  0
 51 26  1  0
 51 52  1  0
 53 51  1  0
 55 54  1  0
 56  6  1  0
 57 59  1  0
 57 56  1  0
 58 69  2  0
 59 64  1  0
 60 68  1  0
 60 70  1  0
 61 67  1  0
 61 63  1  0
 62 68  1  0
 63 62  1  0
 64 63  2  0
 65 66  1  0
 65 59  2  0
 66 61  2  0
 67 60  1  0
 68 58  1  0
 70 72  2  0
 71 70  1  0
 73 71  1  0
 74 83  2  0
 74 79  1  0
 75 71  1  0
 75 79  1  0
 76 75  1  0
 77 78  1  0
 77 76  1  0
 78 74  1  0
 79 80  2  0
 80 81  1  0
 82 81  2  0
 83 82  1  0
 84 58  1  0
 84 89  1  0
 84 85  1  0
 85 88  1  1
 85 86  1  0
 87 85  1  0
 89 92  1  0
 90 94  1  0
 90 89  1  0
 91 90  2  0
 94 93  1  0
 96 94  1  0
 96 97  1  0
 96 95  1  0
M  ISO  4  16 100  24 100  56 101  57 101
M  END
>  <TORSDO>  (79) 
F 26

>  <SCORE>  (79) 
-6.532

>  <name>  (79) 
78

>  <ligand_id>  (79) 
78

>  <original_smiles>  (79) 
[H]c1c([H])c([H])c2c(c1[H])C([H])([H])C([H])([H])C([H])([H])C2([H])N([H])C(=O)C1([H])N(C(=O)C([H])(N([H])C(=O)C([H])(N([H])C([H])([H])[H])C([H])([H])[H])C(C([H])([H])[H])(C([H])([H])[H])C([H])([H])[H])C([H])([H])c2c([H])c(OC([H])([H])c3c([H])c(C(=O)C([H])([H])C([H])([H])C([H])([H])C([H])([H])C([H])([H])C([H])([H])C([H])([H])N([H])C(=O)N4C([H])([H])C([H])([H])C([H])([H])C([H])(n5nc(-c6c([H])c([H])c(Oc7c([H])c([H])c(F)c([H])c7F)c([H])c6[H])c(C(=O)N([H])[H])c5N([H])[H])C4([H])[H])c([H])c([H])c3C([H])([H])C([H])([H])[H])c([H])c([H])c2C1([H])[H]

>  <smiles>  (79) 
[H]c1c([H])c([H])c2c(c1[H])C([H])([H])C([H])([H])C([H])([H])C2([H])N([H])C(=O)C1([H])N(C(=O)C([H])(N([H])C(=O)C([H])(N([H])C([H])([H])[H])C([H])([H])[H])C(C([H])([H])[H])(C([H])([H])[H])C([H])([H])[H])C([H])([H])c2c([H])c(OC([H])([H])c3c([H])c(C(=O)C([H])([H])C([H])([H])C([H])([H])C([H])([H])C([H])([H])C([H])([H])C([H])([H])N([H])C(=O)N4C([H])([H])C([H])([H])C([H])([H])C([H])(n5nc(-c6c([H])c([H])c(Oc7c([H])c([H])c(F)c([H])c7F)c([H])c6[H])c(C(=O)N([H])[H])c5N([H])[H])C4([H])[H])c([H])c([H])c3C([H])([H])C([H])([H])[H])c([H])c([H])c2C1([H])[H]

$$$$
79:0:0
     RDKit          3D

 95102  0  0  1  0  0  0  0  0999 V2000
  -28.0610  -22.4100   22.6350 C   0  0  0  0  0  2  0  0  0  0  0  0
  -29.3600  -23.0260   22.0780 C   0  0  0  0  0  2  0  0  0  0  0  0
  -30.6390  -22.2080   22.3780 C   0  0  0  0  0  2  0  0  0  0  0  0
  -31.3490  -21.7650   21.0820 C   0  0  0  0  0  2  0  0  0  0  0  0
  -32.5820  -20.8480   21.2550 C   0  0  0  0  0  2  0  0  0  0  0  0
  -33.2290  -20.4220   19.9120 C   0  0  0  0  0  2  0  0  0  0  0  0
  -33.1320  -18.9390   19.5530 C   0  0  0  0  0  0  0  0  0  0  0  0
  -34.1210  -18.2100   19.6560 O   0  0  0  0  0  0  0  0  0  0  0  0
  -31.8120  -18.4070   18.9860 C   0  0  0  0  0  2  0  0  0  0  0  0
  -31.9190  -17.0720   18.2310 C   0  0  0  0  0  2  0  0  0  0  0  0
  -31.7320  -14.7750   19.1040 C   0  0  0  0  0  0  0  0  0  0  0  0
  -31.9260  -13.0720   20.8520 C   0  0  0  0  0  2  0  0  0  0  0  0
  -31.4640  -11.6780   20.4040 C   0  0  0  0  0  2  0  0  0  0  0  0
  -29.9550  -11.5170   20.6470 C   0  0  0  0  0  2  0  0  0  0  0  0
  -29.1300  -12.6870   20.0530 C   0  0  0  0  0  3  0  0  0  0  0  0
  -29.7230  -14.0600   20.4550 C   0  0  0  0  0  2  0  0  0  0  0  0
  -31.1600  -14.0850   20.1180 N   0  0  0  0  0  0  0  0  0  0  0  0
  -32.8000  -14.4590   18.5740 O   0  0  0  0  0  0  0  0  0  0  0  0
  -31.2030  -15.9800   18.8910 N   0  0  0  0  0  0  0  0  0  0  0  0
  -30.3800  -16.2100   19.4260 H   0  0  0  0  0  0  0  0  0  0  0  0
  -26.7560  -13.5640   20.5400 C   0  0  0  0  0  0  0  0  0  0  0  0
  -25.5810  -12.9180   20.8270 C   0  0  0  0  0  0  0  0  0  0  0  0
  -25.8950  -11.5260   20.8590 C   0  0  0  0  0  0  0  0  0  0  0  0
  -27.7180  -12.5710   20.4200 N   0  0  0  0  0  0  0  0  0  0  0  0
  -27.1940  -11.3420   20.6640 N   0  0  0  0  0  0  0  0  0  0  0  0
  -25.0230  -10.3530   21.0070 C   0  0  0  0  0  0  0  0  0  0  0  0
  -25.1460   -9.4730   22.1040 C   0  0  0  0  0  3  0  0  0  0  0  0
  -24.2830   -8.3620   22.2320 C   0  0  0  0  0  3  0  0  0  0  0  0
  -23.2800   -8.1280   21.2620 C   0  0  0  0  0  0  0  0  0  0  0  0
  -23.1760   -8.9930   20.1600 C   0  0  0  0  0  3  0  0  0  0  0  0
  -24.0400  -10.0940   20.0300 C   0  0  0  0  0  3  0  0  0  0  0  0
  -22.4140   -7.0590   21.2930 O   0  0  0  0  0  0  0  0  0  0  0  0
  -21.8740   -6.6040   22.4680 C   0  0  0  0  0  0  0  0  0  0  0  0
  -21.1230   -7.4450   23.3200 C   0  0  0  0  0  3  0  0  0  0  0  0
  -20.5290   -6.9180   24.4840 C   0  0  0  0  0  3  0  0  0  0  0  0
  -20.6750   -5.5520   24.7920 C   0  0  0  0  0  0  0  0  0  0  0  0
  -21.4160   -4.7120   23.9420 C   0  0  0  0  0  3  0  0  0  0  0  0
  -22.0110   -5.2370   22.7820 C   0  0  0  0  0  0  0  0  0  0  0  0
  -22.7070   -4.4190   21.9560 F   0  0  0  0  0  0  0  0  0  0  0  0
  -20.0960   -5.0430   25.9060 F   0  0  0  0  0  0  0  0  0  0  0  0
  -24.2280  -13.5510   20.9730 C   0  0  0  0  0  0  0  0  0  0  0  0
  -23.3770  -12.9860   21.8250 N   0  0  0  0  0  0  0  0  0  0  0  0
  -23.9340  -14.5790   20.3700 O   0  0  0  0  0  0  0  0  0  0  0  0
  -23.6270  -12.1520   22.3360 H   0  0  0  0  0  0  0  0  0  0  0  0
  -22.4620  -13.3940   21.9650 H   0  0  0  0  0  0  0  0  0  0  0  0
  -27.0830  -14.9010   20.3510 N   0  0  0  0  0  0  0  0  0  0  0  0
  -26.3920  -15.6430   20.3900 H   0  0  0  0  0  0  0  0  0  0  0  0
  -28.0090  -15.2340   20.1090 H   0  0  0  0  0  0  0  0  0  0  0  0
  -26.7830  -22.7530   21.8310 C   0  0  0  0  0  3  0  0  0  0  0  0
  -26.8770  -24.0270   20.9610 C   0  0  0  0  0  3  0  0  0  0  0  0
  -25.6860  -24.3020   20.0050 C   0  0  0  0  0  2  0  0  0  0  0  0
  -25.7260  -23.6150   18.6300 C   0  0  0  0  0  0  0  0  0  0  0  0
  -25.6000  -22.3910   18.5060 O   0  0  0  0  0  0  0  0  0  0  0  0
  -25.9380  -24.5060   17.3950 C   0  0  0  0  0  2  0  0  0  0  0  0
  -24.6850  -24.7660   16.7580 O   0  0  0  0  0  0  0  0  0  0  0  0
  -23.8670  -29.0550   22.3810 C   0  0  0  0  0  0  0  0  0  0  0  0
  -23.8970  -25.6700   17.4230 C   0  0  0  0  0  0  0  0  0  0  0  0
  -21.8410  -28.6560   21.0160 C   0  0  0  0  0  3  0  0  0  0  0  0
  -22.2280  -27.5020   18.7710 C   0  0  0  0  0  0  0  0  0  0  0  0
  -24.1730  -28.5250   19.9730 C   0  0  0  0  0  2  0  0  0  0  0  0
  -23.6090  -27.5170   18.9970 C   0  0  0  0  0  0  0  0  0  0  0  0
  -24.4490  -26.6020   18.3290 C   0  0  0  0  0  3  0  0  0  0  0  0
  -22.5090  -25.6820   17.1790 C   0  0  0  0  0  3  0  0  0  0  0  0
  -21.6700  -26.5890   17.8560 C   0  0  0  0  0  3  0  0  0  0  0  0
  -21.4040  -28.5170   19.5330 C   0  0  0  0  0  2  0  0  0  0  0  0
  -23.3300  -28.7370   21.1710 N   0  0  0  0  0  0  0  0  0  0  0  0
  -23.1430  -29.3210   23.3490 O   0  0  0  0  0  0  0  0  0  0  0  0
  -21.2040  -27.5080   21.8290 C   0  0  0  0  0  0  0  0  0  0  0  0
  -19.8640  -27.4980   21.9050 N   0  0  0  0  0  0  0  0  0  0  0  0
  -21.9060  -26.6360   22.3490 O   0  0  0  0  0  0  0  0  0  0  0  0
  -19.3600  -28.2570   21.4680 H   0  0  0  0  0  0  0  0  0  0  0  0
  -16.4650  -26.3930   22.4960 C   0  0  0  0  0  0  0  0  0  0  0  0
  -19.0450  -26.4760   22.5560 C   0  0  0  0  0  3  0  0  0  0  0  0
  -19.0190  -25.1820   21.7090 C   0  0  0  0  0  2  0  0  0  0  0  0
  -17.7830  -25.0490   20.8140 C   0  0  0  0  0  2  0  0  0  0  0  0
  -16.5030  -25.1340   21.6460 C   0  0  0  0  0  2  0  0  0  0  0  0
  -17.6610  -27.0220   22.9280 C   0  0  0  0  0  0  0  0  0  0  0  0
  -17.5740  -28.1900   23.7170 C   0  0  0  0  0  3  0  0  0  0  0  0
  -16.3210  -28.7290   24.0690 C   0  0  0  0  0  3  0  0  0  0  0  0
  -15.1400  -28.1020   23.6370 C   0  0  0  0  0  3  0  0  0  0  0  0
  -15.2140  -26.9380   22.8520 C   0  0  0  0  0  3  0  0  0  0  0  0
  -25.4100  -29.1200   22.6010 C   0  0  0  0  0  3  0  0  0  0  0  0
  -25.6870  -30.3070   23.4200 N   0  0  0  0  0  0  0  0  0  0  0  0
  -26.2500  -31.4340   22.9610 C   0  0  0  0  0  0  0  0  0  0  0  0
  -26.6580  -31.5550   21.8030 O   0  0  0  0  0  0  0  0  0  0  0  0
  -25.3270  -30.2970   24.3630 H   0  0  0  0  0  0  0  0  0  0  0  0
  -25.3010  -33.6670   23.6240 C   0  0  0  0  0  1  0  0  0  0  0  0
  -26.3760  -32.6140   23.9420 C   0  0  0  0  0  3  0  0  0  0  0  0
  -28.7660  -32.3940   24.4730 C   0  0  0  0  0  1  0  0  0  0  0  0
  -27.7130  -33.2490   23.9300 N   0  0  0  0  0  0  0  0  0  0  0  0
  -27.7020  -34.1150   24.4620 H   0  0  0  0  0  0  0  0  0  0  0  0
  -25.9990  -27.8220   23.2770 C   0  0  1  0  0  0  0  0  0  0  0  0
  -25.2730  -27.4190   24.5800 C   0  0  0  0  0  1  0  0  0  0  0  0
  -25.9290  -26.6190   22.3080 C   0  0  0  0  0  1  0  0  0  0  0  0
  -27.4920  -28.0390   23.6130 C   0  0  0  0  0  1  0  0  0  0  0  0
  2  3  1  0
  2  1  1  0
  4  5  1  0
  4  3  1  0
  6  5  1  0
  7  8  2  0
  7  6  1  0
  9  7  1  0
 10 19  1  0
 10  9  1  0
 11 17  1  0
 13 14  1  0
 13 12  1  0
 15 24  1  0
 15 16  1  0
 15 14  1  0
 17 16  1  0
 17 12  1  0
 18 11  2  0
 19 11  1  0
 19 20  1  0
 21 22  2  0
 22 23  1  0
 22 41  1  0
 23 26  1  0
 24 21  1  0
 24 25  1  0
 25 23  2  0
 26 27  1  0
 27 28  2  0
 29 32  1  0
 29 28  1  0
 30 29  2  0
 31 30  1  0
 31 26  2  0
 32 33  1  0
 33 38  2  0
 33 34  1  0
 34 35  2  0
 35 36  1  0
 36 40  1  0
 37 36  2  0
 38 37  1  0
 39 38  1  0
 41 42  1  0
 42 45  1  0
 42 44  1  0
 43 41  2  0
 46 47  1  0
 46 21  1  0
 48 46  1  0
 49  1  1  0
 50 49  2  0
 51 50  1  0
 52 51  1  0
 53 52  2  0
 54 52  1  0
 55 54  1  0
 55 57  1  0
 56 67  2  0
 57 62  1  0
 58 66  1  0
 58 68  1  0
 59 61  1  0
 59 65  1  0
 60 66  1  0
 61 60  1  0
 62 61  2  0
 63 57  2  0
 63 64  1  0
 64 59  2  0
 65 58  1  0
 66 56  1  0
 68 69  1  0
 68 70  2  0
 71 69  1  0
 72 81  2  0
 72 77  1  0
 73 69  1  0
 73 77  1  0
 74 73  1  0
 75 76  1  0
 75 74  1  0
 76 72  1  0
 77 78  2  0
 78 79  1  0
 80 79  2  0
 81 80  1  0
 82 56  1  0
 82 92  1  0
 82 83  1  0
 83 86  1  0
 84 83  1  0
 84 88  1  0
 85 84  2  0
 88 87  1  0
 90 88  1  0
 90 91  1  0
 90 89  1  0
 92 95  1  1
 92 93  1  0
 94 92  1  0
M  ISO  4  11 100  19 100  54 101  55 101
M  END
>  <TORSDO>  (80) 
F 29

>  <SCORE>  (80) 
-6.321

>  <name>  (80) 
79

>  <ligand_id>  (80) 
79

>  <original_smiles>  (80) 
[H]c1c([H])c([H])c2c(c1[H])C([H])([H])C([H])([H])C([H])([H])C2([H])N([H])C(=O)C1([H])N(C(=O)C([H])(N([H])C(=O)C([H])(N([H])C([H])([H])[H])C([H])([H])[H])C(C([H])([H])[H])(C([H])([H])[H])C([H])([H])[H])C([H])([H])c2c([H])c(OC([H])([H])C(=O)C([H])([H])C([H])([H])C([H])([H])C([H])([H])C([H])([H])C([H])([H])C([H])([H])C([H])([H])C([H])([H])C(=O)C([H])([H])C([H])([H])N([H])C(=O)N3C([H])([H])C([H])([H])C([H])([H])C([H])(n4nc(-c5c([H])c([H])c(Oc6c([H])c([H])c(F)c([H])c6F)c([H])c5[H])c(C(=O)N([H])[H])c4N([H])[H])C3([H])[H])c([H])c([H])c2C1([H])[H]

>  <smiles>  (80) 
[H]c1c([H])c([H])c2c(c1[H])C([H])([H])C([H])([H])C([H])([H])C2([H])N([H])C(=O)C1([H])N(C(=O)C([H])(N([H])C(=O)C([H])(N([H])C([H])([H])[H])C([H])([H])[H])C(C([H])([H])[H])(C([H])([H])[H])C([H])([H])[H])C([H])([H])c2c([H])c(OC([H])([H])C(=O)C([H])([H])C([H])([H])C([H])([H])C([H])([H])C([H])([H])C([H])([H])C([H])([H])C([H])([H])C([H])([H])C(=O)C([H])([H])C([H])([H])N([H])C(=O)N3C([H])([H])C([H])([H])C([H])([H])C([H])(n4nc(-c5c([H])c([H])c(Oc6c([H])c([H])c(F)c([H])c6F)c([H])c5[H])c(C(=O)N([H])[H])c4N([H])[H])C3([H])[H])c([H])c([H])c2C1([H])[H]

$$$$
80:0:0
     RDKit          3D

 98106  0  0  1  0  0  0  0  0999 V2000
  -27.5100  -20.7330   19.6900 C   0  0  0  0  0  3  0  0  0  0  0  0
  -27.9700  -22.0110   20.0400 C   0  0  0  0  0  3  0  0  0  0  0  0
  -25.8390  -21.7250   18.2440 C   0  0  0  0  0  3  0  0  0  0  0  0
  -26.4230  -20.5820   18.8050 C   0  0  0  0  0  0  0  0  0  0  0  0
  -27.3170  -23.1680   19.5650 C   0  0  0  0  0  0  0  0  0  0  0  0
  -26.2720  -23.0220   18.5990 C   0  0  0  0  0  0  0  0  0  0  0  0
  -25.7720  -19.2700   18.5660 C   0  0  0  0  0  0  0  0  0  0  0  0
  -24.7650  -18.9140   19.1820 O   0  0  0  0  0  0  0  0  0  0  0  0
  -26.3640  -18.3510   17.4910 C   0  0  0  0  0  2  0  0  0  0  0  0
  -27.8800  -18.1440   17.6360 C   0  0  0  0  0  2  0  0  0  0  0  0
  -28.2640  -17.4780   18.9680 C   0  0  0  0  0  2  0  0  0  0  0  0
  -29.6740  -17.8360   19.4380 C   0  0  0  0  0  2  0  0  0  0  0  0
  -29.7890  -17.8410   20.9710 C   0  0  0  0  0  2  0  0  0  0  0  0
  -31.2100  -17.5190   21.4480 C   0  0  0  0  0  2  0  0  0  0  0  0
  -31.3030  -16.1800   22.2040 C   0  0  0  0  0  2  0  0  0  0  0  0
  -30.9250  -14.4400   20.4200 C   0  0  0  0  0  0  0  0  0  0  0  0
  -30.5080  -12.4220   19.0590 C   0  0  0  0  0  2  0  0  0  0  0  0
  -29.5440  -12.6600   17.8840 C   0  0  0  0  0  2  0  0  0  0  0  0
  -28.0810  -12.5030   18.3340 C   0  0  0  0  0  2  0  0  0  0  0  0
  -27.7700  -13.3200   19.6120 C   0  0  0  0  0  3  0  0  0  0  0  0
  -28.8280  -13.0600   20.7050 C   0  0  0  0  0  2  0  0  0  0  0  0
  -30.1650  -13.3480   20.1470 N   0  0  0  0  0  0  0  0  0  0  0  0
  -31.9070  -14.7700   19.7470 O   0  0  0  0  0  0  0  0  0  0  0  0
  -30.5910  -15.0800   21.5480 N   0  0  0  0  0  0  0  0  0  0  0  0
  -29.7710  -14.7320   22.0220 H   0  0  0  0  0  0  0  0  0  0  0  0
  -25.3740  -13.9690   20.3030 C   0  0  0  0  0  0  0  0  0  0  0  0
  -24.2990  -13.2110   20.6890 C   0  0  0  0  0  0  0  0  0  0  0  0
  -24.7510  -11.8570   20.6800 C   0  0  0  0  0  0  0  0  0  0  0  0
  -26.4130  -13.0740   20.0920 N   0  0  0  0  0  0  0  0  0  0  0  0
  -26.0400  -11.8010   20.3720 N   0  0  0  0  0  0  0  0  0  0  0  0
  -24.0180  -10.6040   20.8940 C   0  0  0  0  0  0  0  0  0  0  0  0
  -24.4370   -9.6620   21.8590 C   0  0  0  0  0  3  0  0  0  0  0  0
  -23.7070   -8.4700   22.0590 C   0  0  0  0  0  3  0  0  0  0  0  0
  -22.5460   -8.2130   21.2930 C   0  0  0  0  0  0  0  0  0  0  0  0
  -22.1470   -9.1440   20.3170 C   0  0  0  0  0  3  0  0  0  0  0  0
  -22.8770  -10.3270   20.1170 C   0  0  0  0  0  3  0  0  0  0  0  0
  -21.7900   -7.0720   21.3980 O   0  0  0  0  0  0  0  0  0  0  0  0
  -21.7000   -6.3750   22.5770 C   0  0  0  0  0  0  0  0  0  0  0  0
  -21.2410   -6.9800   23.7670 C   0  0  0  0  0  3  0  0  0  0  0  0
  -21.0990   -6.2120   24.9380 C   0  0  0  0  0  3  0  0  0  0  0  0
  -21.4050   -4.8380   24.9210 C   0  0  0  0  0  0  0  0  0  0  0  0
  -21.8580   -4.2320   23.7360 C   0  0  0  0  0  3  0  0  0  0  0  0
  -22.0020   -4.9980   22.5660 C   0  0  0  0  0  0  0  0  0  0  0  0
  -22.4190   -4.4050   21.4210 F   0  0  0  0  0  0  0  0  0  0  0  0
  -21.2620   -4.0960   26.0440 F   0  0  0  0  0  0  0  0  0  0  0  0
  -22.9070  -13.7040   20.9560 C   0  0  0  0  0  0  0  0  0  0  0  0
  -22.1840  -13.0370   21.8500 N   0  0  0  0  0  0  0  0  0  0  0  0
  -22.4670  -14.7150   20.4090 O   0  0  0  0  0  0  0  0  0  0  0  0
  -22.5530  -12.2210   22.3150 H   0  0  0  0  0  0  0  0  0  0  0  0
  -21.2490  -13.3490   22.0720 H   0  0  0  0  0  0  0  0  0  0  0  0
  -25.5470  -15.3340   20.1040 N   0  0  0  0  0  0  0  0  0  0  0  0
  -24.7850  -15.9970   20.1940 H   0  0  0  0  0  0  0  0  0  0  0  0
  -26.4120  -15.7630   19.8020 H   0  0  0  0  0  0  0  0  0  0  0  0
  -24.6660  -23.9520   16.7580 C   0  0  0  0  0  1  0  0  0  0  0  0
  -25.5440  -24.2180   17.9920 C   0  0  0  0  0  2  0  0  0  0  0  0
  -27.6300  -24.4750   20.3120 C   0  0  0  0  0  2  0  0  0  0  0  0
  -28.4970  -25.5620   19.6180 C   0  0  0  0  0  2  0  0  0  0  0  0
  -28.4800  -26.8200   20.3380 O   0  0  0  0  0  0  0  0  0  0  0  0
  -24.6260  -32.0330   23.3780 C   0  0  0  0  0  0  0  0  0  0  0  0
  -27.3140  -27.5680   20.3400 C   0  0  0  0  0  0  0  0  0  0  0  0
  -23.4470  -30.6180   21.7370 C   0  0  0  0  0  3  0  0  0  0  0  0
  -24.9170  -29.0820   20.3510 C   0  0  0  0  0  0  0  0  0  0  0  0
  -25.9810  -30.9660   21.5820 C   0  0  0  0  0  2  0  0  0  0  0  0
  -26.0710  -29.5900   20.9570 C   0  0  0  0  0  0  0  0  0  0  0  0
  -27.2690  -28.8350   20.9680 C   0  0  0  0  0  3  0  0  0  0  0  0
  -26.1380  -27.1130   19.7110 C   0  0  0  0  0  3  0  0  0  0  0  0
  -24.9400  -27.8290   19.7330 C   0  0  0  0  0  3  0  0  0  0  0  0
  -23.6800  -29.9410   20.3640 C   0  0  0  0  0  2  0  0  0  0  0  0
  -24.7030  -31.2180   22.2910 N   0  0  0  0  0  0  0  0  0  0  0  0
  -23.5350  -32.3110   23.8960 O   0  0  0  0  0  0  0  0  0  0  0  0
  -22.7810  -29.5980   22.6900 C   0  0  0  0  0  0  0  0  0  0  0  0
  -21.4580  -29.4090   22.5400 N   0  0  0  0  0  0  0  0  0  0  0  0
  -23.4470  -28.9820   23.5270 O   0  0  0  0  0  0  0  0  0  0  0  0
  -20.9780  -29.9630   21.8440 H   0  0  0  0  0  0  0  0  0  0  0  0
  -18.0810  -28.2000   22.9860 C   0  0  0  0  0  0  0  0  0  0  0  0
  -20.6310  -28.4770   23.3060 C   0  0  0  0  0  3  0  0  0  0  0  0
  -20.7530  -27.0380   22.7530 C   0  0  0  0  0  2  0  0  0  0  0  0
  -19.6760  -26.6920   21.7200 C   0  0  0  0  0  2  0  0  0  0  0  0
  -18.2790  -26.8420   22.3320 C   0  0  0  0  0  2  0  0  0  0  0  0
  -19.1870  -28.9730   23.4270 C   0  0  0  0  0  0  0  0  0  0  0  0
  -18.9500  -30.2420   23.9970 C   0  0  0  0  0  3  0  0  0  0  0  0
  -17.6400  -30.7430   24.1230 C   0  0  0  0  0  3  0  0  0  0  0  0
  -16.5480  -29.9680   23.6970 C   0  0  0  0  0  3  0  0  0  0  0  0
  -16.7690  -28.6960   23.1400 C   0  0  0  0  0  3  0  0  0  0  0  0
  -25.9010  -32.6730   24.0100 C   0  0  0  0  0  3  0  0  0  0  0  0
  -26.3900  -31.9300   25.3140 C   0  0  1  0  0  0  0  0  0  0  0  0
  -25.2740  -31.7080   26.3620 C   0  0  0  0  0  1  0  0  0  0  0  0
  -26.9780  -30.5460   24.9620 C   0  0  0  0  0  1  0  0  0  0  0  0
  -27.5290  -32.7350   25.9810 C   0  0  0  0  0  1  0  0  0  0  0  0
  -25.5940  -34.0790   24.2990 N   0  0  0  0  0  0  0  0  0  0  0  0
  -25.9370  -35.1100   23.5140 C   0  0  0  0  0  0  0  0  0  0  0  0
  -26.6200  -34.9760   22.4940 O   0  0  0  0  0  0  0  0  0  0  0  0
  -24.9960  -34.2600   25.0930 H   0  0  0  0  0  0  0  0  0  0  0  0
  -24.2170  -36.8950   23.0810 C   0  0  0  0  0  1  0  0  0  0  0  0
  -25.4450  -36.5110   23.9220 C   0  0  0  0  0  3  0  0  0  0  0  0
  -27.5710  -37.4130   24.7560 C   0  0  0  0  0  1  0  0  0  0  0  0
  -26.4820  -37.5590   23.7950 N   0  0  0  0  0  0  0  0  0  0  0  0
  -26.0750  -38.4830   23.9170 H   0  0  0  0  0  0  0  0  0  0  0  0
  1  2  1  0
  3  6  2  0
  3  4  1  0
  4  1  2  0
  5  2  2  0
  5 56  1  0
  6  5  1  0
  7  4  1  0
  7  8  2  0
  9 10  1  0
  9  7  1  0
 10 11  1  0
 11 12  1  0
 12 13  1  0
 13 14  1  0
 14 15  1  0
 16 24  1  0
 17 22  1  0
 18 19  1  0
 18 17  1  0
 20 19  1  0
 20 29  1  0
 20 21  1  0
 22 16  1  0
 22 21  1  0
 23 16  2  0
 24 25  1  0
 24 15  1  0
 26 27  2  0
 27 46  1  0
 28 27  1  0
 28 31  1  0
 29 26  1  0
 29 30  1  0
 30 28  2  0
 31 32  1  0
 32 33  2  0
 34 37  1  0
 34 33  1  0
 35 34  2  0
 36 35  1  0
 36 31  2  0
 37 38  1  0
 38 39  1  0
 39 40  2  0
 41 40  1  0
 41 45  1  0
 42 41  2  0
 43 38  2  0
 43 42  1  0
 44 43  1  0
 46 47  1  0
 47 50  1  0
 47 49  1  0
 48 46  2  0
 51 52  1  0
 51 26  1  0
 53 51  1  0
 54 55  1  0
 55  6  1  0
 57 56  1  0
 57 58  1  0
 58 60  1  0
 59 70  2  0
 60 65  1  0
 61 69  1  0
 61 71  1  0
 62 68  1  0
 62 64  1  0
 63 69  1  0
 64 65  2  0
 64 63  1  0
 66 67  1  0
 66 60  2  0
 67 62  2  0
 68 61  1  0
 69 59  1  0
 71 73  2  0
 72 71  1  0
 74 72  1  0
 75 84  2  0
 75 80  1  0
 76 72  1  0
 76 80  1  0
 77 76  1  0
 78 79  1  0
 78 77  1  0
 79 75  1  0
 80 81  2  0
 81 82  1  0
 83 82  2  0
 84 83  1  0
 85 59  1  0
 85 90  1  0
 85 86  1  0
 86 89  1  1
 86 87  1  0
 88 86  1  0
 90 93  1  0
 91 95  1  0
 91 90  1  0
 92 91  2  0
 95 94  1  0
 97 98  1  0
 97 95  1  0
 97 96  1  0
M  ISO  4  16 100  24 100  57 101  58 101
M  END
>  <TORSDO>  (81) 
F 27

>  <SCORE>  (81) 
-9.349

>  <name>  (81) 
80

>  <ligand_id>  (81) 
80

>  <original_smiles>  (81) 
[H]c1c([H])c([H])c2c(c1[H])C([H])([H])C([H])([H])C([H])([H])C2([H])N([H])C(=O)C1([H])N(C(=O)C([H])(N([H])C(=O)C([H])(N([H])C([H])([H])[H])C([H])([H])[H])C(C([H])([H])[H])(C([H])([H])[H])C([H])([H])[H])C([H])([H])c2c([H])c(OC([H])([H])C([H])([H])c3c([H])c([H])c(C(=O)C([H])([H])C([H])([H])C([H])([H])C([H])([H])C([H])([H])C([H])([H])C([H])([H])N([H])C(=O)N4C([H])([H])C([H])([H])C([H])([H])C([H])(n5nc(-c6c([H])c([H])c(Oc7c([H])c([H])c(F)c([H])c7F)c([H])c6[H])c(C(=O)N([H])[H])c5N([H])[H])C4([H])[H])c([H])c3C([H])([H])C([H])([H])[H])c([H])c([H])c2C1([H])[H]

>  <smiles>  (81) 
[H]c1c([H])c([H])c2c(c1[H])C([H])([H])C([H])([H])C([H])([H])C2([H])N([H])C(=O)C1([H])N(C(=O)C([H])(N([H])C(=O)C([H])(N([H])C([H])([H])[H])C([H])([H])[H])C(C([H])([H])[H])(C([H])([H])[H])C([H])([H])[H])C([H])([H])c2c([H])c(OC([H])([H])C([H])([H])c3c([H])c([H])c(C(=O)C([H])([H])C([H])([H])C([H])([H])C([H])([H])C([H])([H])C([H])([H])C([H])([H])N([H])C(=O)N4C([H])([H])C([H])([H])C([H])([H])C([H])(n5nc(-c6c([H])c([H])c(Oc7c([H])c([H])c(F)c([H])c7F)c([H])c6[H])c(C(=O)N([H])[H])c5N([H])[H])C4([H])[H])c([H])c3C([H])([H])C([H])([H])[H])c([H])c([H])c2C1([H])[H]

$$$$
81:0:0
     RDKit          3D

 92 99  0  0  1  0  0  0  0  0999 V2000
  -29.4410  -21.9090   20.8240 C   0  0  0  0  0  3  0  0  0  0  0  0
  -29.3450  -22.9860   19.7900 N   0  0  0  0  0  4  0  0  0  0  0  0
  -30.0640  -22.8060   19.1060 H   0  0  0  0  0  0  0  0  0  0  0  0
  -28.4640  -22.8880   19.3140 H   0  0  0  0  0  0  0  0  0  0  0  0
  -29.5140  -24.4120   20.2210 C   0  0  0  0  0  2  0  0  0  0  0  0
  -28.2780  -25.2740   19.8620 C   0  0  0  0  0  2  0  0  0  0  0  0
  -28.4070  -26.6850   20.1490 O   0  0  0  0  0  0  0  0  0  0  0  0
  -24.6040  -31.8870   23.2230 C   0  0  0  0  0  0  0  0  0  0  0  0
  -27.2400  -27.4390   20.1170 C   0  0  0  0  0  0  0  0  0  0  0  0
  -23.3980  -30.4990   21.5720 C   0  0  0  0  0  3  0  0  0  0  0  0
  -24.8490  -28.9740   20.1370 C   0  0  0  0  0  0  0  0  0  0  0  0
  -25.9280  -30.8490   21.3830 C   0  0  0  0  0  2  0  0  0  0  0  0
  -26.0120  -29.4820   20.7300 C   0  0  0  0  0  0  0  0  0  0  0  0
  -27.2080  -28.7230   20.7170 C   0  0  0  0  0  3  0  0  0  0  0  0
  -26.0540  -26.9610   19.5080 C   0  0  0  0  0  3  0  0  0  0  0  0
  -24.8670  -27.7150   19.5220 C   0  0  0  0  0  3  0  0  0  0  0  0
  -23.6060  -29.8340   20.1880 C   0  0  0  0  0  2  0  0  0  0  0  0
  -24.6620  -31.0930   22.1170 N   0  0  0  0  0  0  0  0  0  0  0  0
  -23.5220  -32.1590   23.7640 O   0  0  0  0  0  0  0  0  0  0  0  0
  -22.7440  -29.4710   22.5240 C   0  0  0  0  0  0  0  0  0  0  0  0
  -21.4200  -29.2870   22.3900 N   0  0  0  0  0  0  0  0  0  0  0  0
  -23.4240  -28.8420   23.3390 O   0  0  0  0  0  0  0  0  0  0  0  0
  -20.9320  -29.8470   21.7040 H   0  0  0  0  0  0  0  0  0  0  0  0
  -18.0460  -28.0790   22.8570 C   0  0  0  0  0  0  0  0  0  0  0  0
  -20.6000  -28.3450   23.1520 C   0  0  0  0  0  3  0  0  0  0  0  0
  -20.7130  -26.9150   22.5740 C   0  0  0  0  0  2  0  0  0  0  0  0
  -19.6210  -26.5910   21.5500 C   0  0  0  0  0  2  0  0  0  0  0  0
  -18.2330  -26.7300   22.1820 C   0  0  0  0  0  2  0  0  0  0  0  0
  -19.1590  -28.8430   23.2980 C   0  0  0  0  0  0  0  0  0  0  0  0
  -18.9320  -30.1050   23.8890 C   0  0  0  0  0  3  0  0  0  0  0  0
  -17.6260  -30.6040   24.0440 C   0  0  0  0  0  3  0  0  0  0  0  0
  -16.5270  -29.8370   23.6210 C   0  0  0  0  0  3  0  0  0  0  0  0
  -16.7380  -28.5760   23.0340 C   0  0  0  0  0  3  0  0  0  0  0  0
  -25.8890  -32.5130   23.8480 C   0  0  0  0  0  3  0  0  0  0  0  0
  -26.4050  -31.7330   25.1190 C   0  0  1  0  0  0  0  0  0  0  0  0
  -25.3120  -31.4930   26.1850 C   0  0  0  0  0  1  0  0  0  0  0  0
  -26.9850  -30.3570   24.7170 C   0  0  0  0  0  1  0  0  0  0  0  0
  -27.5570  -32.5220   25.7850 C   0  0  0  0  0  1  0  0  0  0  0  0
  -25.5820  -33.9090   24.1840 N   0  0  0  0  0  0  0  0  0  0  0  0
  -25.9160  -34.9640   23.4270 C   0  0  0  0  0  0  0  0  0  0  0  0
  -26.5850  -34.8640   22.3950 O   0  0  0  0  0  0  0  0  0  0  0  0
  -24.9890  -34.0620   24.9850 H   0  0  0  0  0  0  0  0  0  0  0  0
  -24.1860  -36.7580   23.0810 C   0  0  0  0  0  1  0  0  0  0  0  0
  -25.4280  -36.3510   23.8900 C   0  0  0  0  0  3  0  0  0  0  0  0
  -27.5640  -37.2310   24.7190 C   0  0  0  0  0  1  0  0  0  0  0  0
  -26.4600  -37.4050   23.7800 N   0  0  0  0  0  0  0  0  0  0  0  0
  -26.0550  -38.3240   23.9340 H   0  0  0  0  0  0  0  0  0  0  0  0
  -28.1510  -21.8610   21.6850 C   0  0  0  0  0  2  0  0  0  0  0  0
  -27.9470  -23.0410   22.4430 O   0  0  0  0  0  0  0  0  0  0  0  0
  -27.1790  -22.9070   22.9890 H   0  0  0  0  0  0  0  0  0  0  0  0
  -29.6700  -20.5140   20.1480 C   0  0  0  0  0  2  0  0  0  0  0  0
  -30.1910  -19.3720   21.0720 C   0  0  0  0  0  2  0  0  0  0  0  0
  -29.9500  -17.9360   20.5260 C   0  0  0  0  0  2  0  0  0  0  0  0
  -30.5790  -16.8180   21.4020 C   0  0  0  0  0  2  0  0  0  0  0  0
  -30.7070  -14.4930   20.4130 C   0  0  0  0  0  0  0  0  0  0  0  0
  -30.3600  -12.3590   19.2140 C   0  0  0  0  0  2  0  0  0  0  0  0
  -29.4050  -12.5800   18.0230 C   0  0  0  0  0  2  0  0  0  0  0  0
  -27.9360  -12.4500   18.4690 C   0  0  0  0  0  2  0  0  0  0  0  0
  -27.6210  -13.2810   19.7420 C   0  0  0  0  0  3  0  0  0  0  0  0
  -28.6860  -13.0370   20.8360 C   0  0  0  0  0  2  0  0  0  0  0  0
  -30.0080  -13.3340   20.2580 N   0  0  0  0  0  0  0  0  0  0  0  0
  -31.8100  -14.6860   19.8940 O   0  0  0  0  0  0  0  0  0  0  0  0
  -30.0760  -15.4680   21.0920 N   0  0  0  0  0  0  0  0  0  0  0  0
  -29.1670  -15.2260   21.4590 H   0  0  0  0  0  0  0  0  0  0  0  0
  -25.2290  -13.9040   20.4620 C   0  0  0  0  0  0  0  0  0  0  0  0
  -24.1590  -13.1380   20.8410 C   0  0  0  0  0  0  0  0  0  0  0  0
  -24.6140  -11.7850   20.8170 C   0  0  0  0  0  0  0  0  0  0  0  0
  -26.2690  -13.0170   20.2320 N   0  0  0  0  0  0  0  0  0  0  0  0
  -25.9020  -11.7380   20.5020 N   0  0  0  0  0  0  0  0  0  0  0  0
  -23.8830  -10.5270   21.0190 C   0  0  0  0  0  0  0  0  0  0  0  0
  -24.3240   -9.5570   21.9470 C   0  0  0  0  0  3  0  0  0  0  0  0
  -23.5940   -8.3640   22.1360 C   0  0  0  0  0  3  0  0  0  0  0  0
  -22.4090   -8.1330   21.3990 C   0  0  0  0  0  0  0  0  0  0  0  0
  -21.9870   -9.0910   20.4600 C   0  0  0  0  0  3  0  0  0  0  0  0
  -22.7190  -10.2750   20.2680 C   0  0  0  0  0  3  0  0  0  0  0  0
  -21.6480   -6.9920   21.4970 O   0  0  0  0  0  0  0  0  0  0  0  0
  -21.6190   -6.2440   22.6480 C   0  0  0  0  0  0  0  0  0  0  0  0
  -21.2280   -6.7990   23.8870 C   0  0  0  0  0  3  0  0  0  0  0  0
  -21.1450   -5.9790   25.0300 C   0  0  0  0  0  3  0  0  0  0  0  0
  -21.4420   -4.6060   24.9350 C   0  0  0  0  0  0  0  0  0  0  0  0
  -21.8260   -4.0520   23.7020 C   0  0  0  0  0  3  0  0  0  0  0  0
  -21.9110   -4.8680   22.5600 C   0  0  0  0  0  0  0  0  0  0  0  0
  -22.2610   -4.3250   21.3700 F   0  0  0  0  0  0  0  0  0  0  0  0
  -21.3550   -3.8160   26.0310 F   0  0  0  0  0  0  0  0  0  0  0  0
  -22.7660  -13.6240   21.1210 C   0  0  0  0  0  0  0  0  0  0  0  0
  -22.0420  -12.9360   21.9970 N   0  0  0  0  0  0  0  0  0  0  0  0
  -22.3280  -14.6470   20.5970 O   0  0  0  0  0  0  0  0  0  0  0  0
  -22.4100  -12.1070   22.4410 H   0  0  0  0  0  0  0  0  0  0  0  0
  -21.1080  -13.2430   22.2300 H   0  0  0  0  0  0  0  0  0  0  0  0
  -25.3990  -15.2720   20.2750 N   0  0  0  0  0  0  0  0  0  0  0  0
  -24.6370  -15.9330   20.3820 H   0  0  0  0  0  0  0  0  0  0  0  0
  -26.2530  -15.7040   19.9430 H   0  0  0  0  0  0  0  0  0  0  0  0
  1 51  1  0
  1 48  1  0
  2  5  1  0
  2  1  1  0
  3  2  1  0
  4  2  1  0
  6  7  1  0
  6  5  1  0
  8 19  2  0
  9  7  1  0
  9 14  1  0
 10 18  1  0
 10 20  1  0
 11 17  1  0
 11 13  1  0
 12 18  1  0
 13 12  1  0
 14 13  2  0
 15 16  1  0
 15  9  2  0
 16 11  2  0
 17 10  1  0
 18  8  1  0
 20 22  2  0
 21 20  1  0
 23 21  1  0
 24 33  2  0
 24 29  1  0
 25 21  1  0
 25 29  1  0
 26 25  1  0
 27 28  1  0
 27 26  1  0
 28 24  1  0
 29 30  2  0
 30 31  1  0
 32 31  2  0
 33 32  1  0
 34  8  1  0
 34 39  1  0
 34 35  1  0
 35 38  1  1
 35 36  1  0
 37 35  1  0
 39 42  1  0
 40 44  1  0
 40 39  1  0
 41 40  2  0
 44 43  1  0
 46 44  1  0
 46 47  1  0
 46 45  1  0
 48 49  1  0
 49 50  1  0
 51 52  1  0
 53 52  1  0
 53 54  1  0
 55 63  1  0
 56 61  1  0
 57 58  1  0
 57 56  1  0
 59 58  1  0
 59 68  1  0
 59 60  1  0
 61 55  1  0
 61 60  1  0
 62 55  2  0
 63 54  1  0
 63 64  1  0
 65 66  2  0
 66 85  1  0
 67 66  1  0
 67 70  1  0
 68 65  1  0
 68 69  1  0
 69 67  2  0
 70 71  1  0
 71 72  2  0
 73 76  1  0
 73 72  1  0
 74 73  2  0
 75 74  1  0
 75 70  2  0
 76 77  1  0
 77 78  1  0
 78 79  2  0
 80 79  1  0
 80 84  1  0
 81 80  2  0
 82 77  2  0
 82 81  1  0
 83 82  1  0
 85 86  1  0
 86 89  1  0
 86 88  1  0
 87 85  2  0
 90 91  1  0
 90 65  1  0
 92 90  1  0
M  ISO  4   6 101   7 101  55 100  63 100
M  END
>  <TORSDO>  (82) 
F 25

>  <SCORE>  (82) 
-12.360

>  <name>  (82) 
81

>  <ligand_id>  (82) 
81

>  <original_smiles>  (82) 
[H]OC([H])([H])C([H])(C([H])([H])C([H])([H])C([H])([H])C([H])([H])N([H])C(=O)N1C([H])([H])C([H])([H])C([H])([H])C([H])(n2nc(-c3c([H])c([H])c(Oc4c([H])c([H])c(F)c([H])c4F)c([H])c3[H])c(C(=O)N([H])[H])c2N([H])[H])C1([H])[H])[N+]([H])([H])C([H])([H])C([H])([H])Oc1c([H])c([H])c2c(c1[H])C([H])([H])N(C(=O)C([H])(N([H])C(=O)C([H])(N([H])C([H])([H])[H])C([H])([H])[H])C(C([H])([H])[H])(C([H])([H])[H])C([H])([H])[H])C([H])(C(=O)N([H])C1([H])c3c([H])c([H])c([H])c([H])c3C([H])([H])C([H])([H])C1([H])[H])C2([H])[H]

>  <smiles>  (82) 
[H]OC([H])([H])C([H])(C([H])([H])C([H])([H])C([H])([H])C([H])([H])N([H])C(=O)N1C([H])([H])C([H])([H])C([H])([H])C([H])(n2nc(-c3c([H])c([H])c(Oc4c([H])c([H])c(F)c([H])c4F)c([H])c3[H])c(C(=O)N([H])[H])c2N([H])[H])C1([H])[H])[N+]([H])([H])C([H])([H])C([H])([H])Oc1c([H])c([H])c2c(c1[H])C([H])([H])N(C(=O)C([H])(N([H])C(=O)C([H])(N([H])C([H])([H])[H])C([H])([H])[H])C(C([H])([H])[H])(C([H])([H])[H])C([H])([H])[H])C([H])(C(=O)N([H])C1([H])c3c([H])c([H])c([H])c([H])c3C([H])([H])C([H])([H])C1([H])[H])C2([H])[H]

$$$$
82:0:0
     RDKit          3D

 96105  0  0  1  0  0  0  0  0999 V2000
  -28.0370  -23.5260   25.0630 C   0  0  0  0  0  3  0  0  0  0  0  0
  -28.6670  -22.2650   25.0270 C   0  0  0  0  0  3  0  0  0  0  0  0
  -26.8710  -22.9840   22.9980 C   0  0  0  0  0  3  0  0  0  0  0  0
  -27.1640  -23.9000   24.0250 C   0  0  0  0  0  0  0  0  0  0  0  0
  -28.4590  -21.3810   23.9430 C   0  0  0  0  0  0  0  0  0  0  0  0
  -27.5320  -21.7430   22.9270 C   0  0  0  0  0  0  0  0  0  0  0  0
  -27.2660  -20.8820   21.7020 C   0  0  0  0  0  1  0  0  0  0  0  0
  -26.6300  -25.3190   23.9270 C   0  0  0  0  0  2  0  0  0  0  0  0
  -27.5840  -26.2850   23.1820 C   0  0  0  0  0  3  0  0  0  0  0  0
  -28.4700  -25.6270   22.0960 C   0  0  0  0  0  3  0  0  0  0  0  0
  -29.1820  -26.6010   21.1480 C   0  0  0  0  0  2  0  0  0  0  0  0
  -28.4030  -26.7650   19.9690 O   0  0  0  0  0  0  0  0  0  0  0  0
  -24.6100  -31.8710   23.2140 C   0  0  0  0  0  0  0  0  0  0  0  0
  -27.2500  -27.5040   20.0670 C   0  0  0  0  0  0  0  0  0  0  0  0
  -23.3920  -30.4970   21.5540 C   0  0  0  0  0  3  0  0  0  0  0  0
  -24.8380  -28.9610   20.1290 C   0  0  0  0  0  0  0  0  0  0  0  0
  -25.9160  -30.8580   21.3580 C   0  0  0  0  0  2  0  0  0  0  0  0
  -25.9980  -29.4980   20.7050 C   0  0  0  0  0  0  0  0  0  0  0  0
  -27.2090  -28.7790   20.6710 C   0  0  0  0  0  3  0  0  0  0  0  0
  -26.0760  -26.9630   19.5060 C   0  0  0  0  0  3  0  0  0  0  0  0
  -24.8640  -27.6820   19.5430 C   0  0  0  0  0  3  0  0  0  0  0  0
  -23.5950  -29.8190   20.1750 C   0  0  0  0  0  2  0  0  0  0  0  0
  -24.6570  -31.0890   22.1000 N   0  0  0  0  0  0  0  0  0  0  0  0
  -23.5300  -32.1420   23.7590 O   0  0  0  0  0  0  0  0  0  0  0  0
  -22.7340  -29.4710   22.5030 C   0  0  0  0  0  0  0  0  0  0  0  0
  -21.4070  -29.3050   22.3820 N   0  0  0  0  0  0  0  0  0  0  0  0
  -23.4150  -28.8230   23.3020 O   0  0  0  0  0  0  0  0  0  0  0  0
  -20.9130  -29.8800   21.7140 H   0  0  0  0  0  0  0  0  0  0  0  0
  -18.0290  -28.1370   22.8540 C   0  0  0  0  0  0  0  0  0  0  0  0
  -20.5870  -28.3640   23.1420 C   0  0  0  0  0  3  0  0  0  0  0  0
  -20.6780  -26.9380   22.5490 C   0  0  0  0  0  2  0  0  0  0  0  0
  -19.5800  -26.6390   21.5240 C   0  0  0  0  0  2  0  0  0  0  0  0
  -18.1940  -26.7940   22.1580 C   0  0  0  0  0  2  0  0  0  0  0  0
  -19.1520  -28.8810   23.3020 C   0  0  0  0  0  0  0  0  0  0  0  0
  -18.9450  -30.1410   23.9050 C   0  0  0  0  0  3  0  0  0  0  0  0
  -17.6440  -30.6570   24.0620 C   0  0  0  0  0  3  0  0  0  0  0  0
  -16.5350  -29.9080   23.6350 C   0  0  0  0  0  3  0  0  0  0  0  0
  -16.7280  -28.6500   23.0360 C   0  0  0  0  0  3  0  0  0  0  0  0
  -25.9020  -32.4850   23.8410 C   0  0  0  0  0  3  0  0  0  0  0  0
  -25.5930  -33.8640   24.2390 N   0  0  0  0  0  0  0  0  0  0  0  0
  -25.9050  -34.9500   23.5170 C   0  0  0  0  0  0  0  0  0  0  0  0
  -26.5550  -34.8910   22.4690 O   0  0  0  0  0  0  0  0  0  0  0  0
  -25.0180  -33.9830   25.0590 H   0  0  0  0  0  0  0  0  0  0  0  0
  -24.1510  -36.7290   23.2640 C   0  0  0  0  0  1  0  0  0  0  0  0
  -25.4130  -36.3150   24.0370 C   0  0  0  0  0  3  0  0  0  0  0  0
  -27.5590  -37.1790   24.8460 C   0  0  0  0  0  1  0  0  0  0  0  0
  -26.4310  -37.3830   23.9420 N   0  0  0  0  0  0  0  0  0  0  0  0
  -26.0230  -38.2910   24.1430 H   0  0  0  0  0  0  0  0  0  0  0  0
  -26.4470  -31.6620   25.0740 C   0  0  1  0  0  0  0  0  0  0  0  0
  -25.3740  -31.3730   26.1490 C   0  0  0  0  0  1  0  0  0  0  0  0
  -27.0310  -30.3050   24.6140 C   0  0  0  0  0  1  0  0  0  0  0  0
  -27.6090  -32.4310   25.7470 C   0  0  0  0  0  1  0  0  0  0  0  0
  -29.3480  -20.1460   23.8330 C   0  0  0  0  0  2  0  0  0  0  0  0
  -28.6480  -18.7680   23.8750 C   0  0  0  0  0  2  0  0  0  0  0  0
  -30.7610  -14.3980   20.7050 C   0  0  0  0  0  0  0  0  0  0  0  0
  -30.4160  -12.3020   19.4450 C   0  0  0  0  0  2  0  0  0  0  0  0
  -29.5000  -12.5280   18.2280 C   0  0  0  0  0  2  0  0  0  0  0  0
  -28.0200  -12.3810   18.6260 C   0  0  0  0  0  2  0  0  0  0  0  0
  -27.6630  -13.2100   19.8870 C   0  0  0  0  0  3  0  0  0  0  0  0
  -28.6870  -12.9750   21.0160 C   0  0  0  0  0  2  0  0  0  0  0  0
  -30.0350  -13.2640   20.4950 N   0  0  0  0  0  0  0  0  0  0  0  0
  -31.8070  -14.6240   20.0820 O   0  0  0  0  0  0  0  0  0  0  0  0
  -29.4430  -17.7300   21.6750 C   0  0  0  0  0  2  0  0  0  0  0  0
  -29.2520  -16.2370   23.6550 C   0  0  0  0  0  2  0  0  0  0  0  0
  -30.4460  -16.7550   21.0540 C   0  0  0  0  0  2  0  0  0  0  0  0
  -30.2190  -15.2390   22.9560 C   0  0  0  0  0  2  0  0  0  0  0  0
  -29.5320  -17.6840   23.2080 C   0  0  0  0  0  3  0  0  0  0  0  0
  -30.2070  -15.3660   21.4820 N   0  0  0  0  0  0  0  0  0  0  0  0
  -25.2570  -13.8190   20.5690 C   0  0  0  0  0  0  0  0  0  0  0  0
  -24.1820  -13.0450   20.9190 C   0  0  0  0  0  0  0  0  0  0  0  0
  -24.6380  -11.6930   20.8750 C   0  0  0  0  0  0  0  0  0  0  0  0
  -26.3000  -12.9360   20.3390 N   0  0  0  0  0  0  0  0  0  0  0  0
  -25.9300  -11.6510   20.5770 N   0  0  0  0  0  0  0  0  0  0  0  0
  -23.9060  -10.4310   21.0420 C   0  0  0  0  0  0  0  0  0  0  0  0
  -24.3620   -9.4220   21.9190 C   0  0  0  0  0  3  0  0  0  0  0  0
  -23.6300   -8.2250   22.0750 C   0  0  0  0  0  3  0  0  0  0  0  0
  -22.4280   -8.0290   21.3550 C   0  0  0  0  0  0  0  0  0  0  0  0
  -21.9920   -9.0260   20.4650 C   0  0  0  0  0  3  0  0  0  0  0  0
  -22.7240  -10.2150   20.3070 C   0  0  0  0  0  3  0  0  0  0  0  0
  -21.6640   -6.8880   21.4240 O   0  0  0  0  0  0  0  0  0  0  0  0
  -21.6850   -6.0750   22.5280 C   0  0  0  0  0  0  0  0  0  0  0  0
  -21.4010   -6.5650   23.8220 C   0  0  0  0  0  3  0  0  0  0  0  0
  -21.3660   -5.6800   24.9180 C   0  0  0  0  0  3  0  0  0  0  0  0
  -21.6050   -4.3060   24.7230 C   0  0  0  0  0  0  0  0  0  0  0  0
  -21.8820   -3.8160   23.4350 C   0  0  0  0  0  3  0  0  0  0  0  0
  -21.9190   -4.6980   22.3400 C   0  0  0  0  0  0  0  0  0  0  0  0
  -22.1650   -4.2160   21.0980 F   0  0  0  0  0  0  0  0  0  0  0  0
  -21.5640   -3.4540   25.7740 F   0  0  0  0  0  0  0  0  0  0  0  0
  -22.7840  -13.5250   21.1870 C   0  0  0  0  0  0  0  0  0  0  0  0
  -22.0470  -12.8220   22.0420 N   0  0  0  0  0  0  0  0  0  0  0  0
  -22.3520  -14.5560   20.6740 O   0  0  0  0  0  0  0  0  0  0  0  0
  -22.4050  -11.9850   22.4780 H   0  0  0  0  0  0  0  0  0  0  0  0
  -21.1100  -13.1250   22.2650 H   0  0  0  0  0  0  0  0  0  0  0  0
  -25.4310  -15.1900   20.4100 N   0  0  0  0  0  0  0  0  0  0  0  0
  -24.6790  -15.8580   20.5380 H   0  0  0  0  0  0  0  0  0  0  0  0
  -26.2980  -15.6230   20.1160 H   0  0  0  0  0  0  0  0  0  0  0  0
  2  1  1  0
  3  4  1  0
  4  1  2  0
  5  2  2  0
  6  3  2  0
  6  5  1  0
  7  6  1  0
  8  4  1  0
  9  8  1  0
 10  9  2  0
 11 10  1  0
 12 14  1  0
 12 11  1  0
 13 24  2  0
 14 19  1  0
 15 23  1  0
 15 25  1  0
 16 22  1  0
 16 18  1  0
 17 23  1  0
 18 17  1  0
 19 18  2  0
 20 21  1  0
 20 14  2  0
 21 16  2  0
 22 15  1  0
 23 13  1  0
 25 27  2  0
 26 25  1  0
 28 26  1  0
 29 38  2  0
 29 34  1  0
 30 26  1  0
 30 34  1  0
 31 30  1  0
 32 33  1  0
 32 31  1  0
 33 29  1  0
 34 35  2  0
 35 36  1  0
 37 36  2  0
 38 37  1  0
 39 13  1  0
 39 40  1  0
 39 49  1  0
 40 43  1  0
 41 45  1  0
 41 40  1  0
 42 41  2  0
 45 44  1  0
 47 45  1  0
 47 48  1  0
 47 46  1  0
 49 52  1  1
 49 50  1  0
 51 49  1  0
 53 54  1  0
 53  5  1  0
 55 68  1  0
 56 61  1  0
 57 58  1  0
 57 56  1  0
 59 58  1  0
 59 72  1  0
 59 60  1  0
 61 55  1  0
 61 60  1  0
 62 55  2  0
 63 67  1  0
 65 68  1  0
 65 63  1  0
 66 64  1  0
 67 64  1  0
 67 54  1  0
 68 66  1  0
 69 70  2  0
 70 89  1  0
 71 70  1  0
 71 74  1  0
 72 69  1  0
 72 73  1  0
 73 71  2  0
 74 75  1  0
 75 76  2  0
 77 80  1  0
 77 76  1  0
 78 77  2  0
 79 78  1  0
 79 74  2  0
 80 81  1  0
 81 82  1  0
 82 83  2  0
 84 83  1  0
 84 88  1  0
 85 84  2  0
 86 81  2  0
 86 85  1  0
 87 86  1  0
 89 90  1  0
 90 93  1  0
 90 92  1  0
 91 89  2  0
 94 95  1  0
 94 69  1  0
 96 94  1  0
M  ISO  4  11 101  12 101  55 100  68 100
M  END
>  <TORSDO>  (83) 
F 22

>  <SCORE>  (83) 
25.461

>  <name>  (83) 
82

>  <ligand_id>  (83) 
82

>  <original_smiles>  (83) 
[H]c1c([H])c([H])c2c(c1[H])C([H])([H])C([H])([H])C([H])([H])C2([H])N([H])C(=O)C1([H])N(C(=O)C([H])(N([H])C(=O)C([H])(N([H])C([H])([H])[H])C([H])([H])[H])C(C([H])([H])[H])(C([H])([H])[H])C([H])([H])[H])C([H])([H])c2c([H])c(OC([H])([H])C([H])([H])C([H])([H])C([H])([H])c3c([H])c([H])c(C([H])([H])C([H])([H])C4([H])C([H])([H])C([H])([H])N(C(=O)N5C([H])([H])C([H])([H])C([H])([H])C([H])(n6nc(-c7c([H])c([H])c(Oc8c([H])c([H])c(F)c([H])c8F)c([H])c7[H])c(C(=O)N([H])[H])c6N([H])[H])C5([H])[H])C([H])([H])C4([H])[H])c(C([H])([H])[H])c3[H])c([H])c([H])c2C1([H])[H]

>  <smiles>  (83) 
[H]c1c([H])c([H])c2c(c1[H])C([H])([H])C([H])([H])C([H])([H])C2([H])N([H])C(=O)C1([H])N(C(=O)C([H])(N([H])C(=O)C([H])(N([H])C([H])([H])[H])C([H])([H])[H])C(C([H])([H])[H])(C([H])([H])[H])C([H])([H])[H])C([H])([H])c2c([H])c(OC([H])([H])C([H])([H])C([H])([H])C([H])([H])c3c([H])c([H])c(C([H])([H])C([H])([H])C4([H])C([H])([H])C([H])([H])N(C(=O)N5C([H])([H])C([H])([H])C([H])([H])C([H])(n6nc(-c7c([H])c([H])c(Oc8c([H])c([H])c(F)c([H])c8F)c([H])c7[H])c(C(=O)N([H])[H])c6N([H])[H])C5([H])[H])C([H])([H])C4([H])[H])c(C([H])([H])[H])c3[H])c([H])c([H])c2C1([H])[H]

$$$$
84:0:0
     RDKit          3D

105113  0  0  1  0  0  0  0  0999 V2000
  -23.8560  -24.1650   21.6400 C   0  0  0  0  0  3  0  0  0  0  0  0
  -23.2000  -23.6360   20.5130 C   0  0  0  0  0  3  0  0  0  0  0  0
  -25.8390  -24.5610   20.2810 C   0  0  0  0  0  3  0  0  0  0  0  0
  -25.1890  -24.6070   21.5290 C   0  0  0  0  0  0  0  0  0  0  0  0
  -25.1880  -24.0470   19.1390 C   0  0  0  0  0  0  0  0  0  0  0  0
  -23.8670  -23.5480   19.2760 C   0  0  0  0  0  0  0  0  0  0  0  0
  -23.2030  -22.9470   18.2080 N   0  0  0  0  0  0  0  0  0  0  0  0
  -22.4120  -22.3470   18.4130 H   0  0  0  0  0  0  0  0  0  0  0  0
  -23.7580  -22.6080   17.4320 H   0  0  0  0  0  0  0  0  0  0  0  0
  -25.9160  -23.9950   17.7910 C   0  0  0  0  0  2  0  0  0  0  0  0
  -27.3560  -24.5570   17.7430 C   0  0  0  0  0  2  0  0  0  0  0  0
  -27.5280  -25.9860   18.2970 C   0  0  0  0  0  2  0  0  0  0  0  0
  -26.9150  -26.9330   17.4280 O   0  0  0  0  0  0  0  0  0  0  0  0
  -25.1320  -30.6120   23.2500 C   0  0  0  0  0  0  0  0  0  0  0  0
  -26.0040  -27.7360   18.0610 C   0  0  0  0  0  0  0  0  0  0  0  0
  -23.3360  -30.2900   21.5790 C   0  0  0  0  0  3  0  0  0  0  0  0
  -24.0830  -29.3680   19.3200 C   0  0  0  0  0  0  0  0  0  0  0  0
  -25.7890  -30.3390   20.8660 C   0  0  0  0  0  2  0  0  0  0  0  0
  -25.4180  -29.4000   19.7440 C   0  0  0  0  0  0  0  0  0  0  0  0
  -26.3850  -28.5770   19.1260 C   0  0  0  0  0  3  0  0  0  0  0  0
  -24.6660  -27.7270   17.6270 C   0  0  0  0  0  3  0  0  0  0  0  0
  -23.6980  -28.5250   18.2650 C   0  0  0  0  0  3  0  0  0  0  0  0
  -23.1140  -30.2780   20.0420 C   0  0  0  0  0  2  0  0  0  0  0  0
  -24.7830  -30.3960   21.9510 N   0  0  0  0  0  0  0  0  0  0  0  0
  -24.2690  -30.7670   24.1270 O   0  0  0  0  0  0  0  0  0  0  0  0
  -22.6390  -29.0520   22.1840 C   0  0  0  0  0  0  0  0  0  0  0  0
  -21.2960  -29.0510   22.1500 N   0  0  0  0  0  0  0  0  0  0  0  0
  -23.2970  -28.1160   22.6460 O   0  0  0  0  0  0  0  0  0  0  0  0
  -20.8340  -29.8620   21.7660 H   0  0  0  0  0  0  0  0  0  0  0  0
  -17.8640  -27.9280   22.2800 C   0  0  0  0  0  0  0  0  0  0  0  0
  -20.4260  -27.9760   22.6250 C   0  0  0  0  0  3  0  0  0  0  0  0
  -20.4750  -26.7580   21.6750 C   0  0  0  0  0  2  0  0  0  0  0  0
  -19.3760  -26.7850   20.6060 C   0  0  0  0  0  2  0  0  0  0  0  0
  -17.9910  -26.8090   21.2570 C   0  0  0  0  0  2  0  0  0  0  0  0
  -19.0090  -28.4860   22.9080 C   0  0  0  0  0  0  0  0  0  0  0  0
  -18.8380  -29.5500   23.8210 C   0  0  0  0  0  3  0  0  0  0  0  0
  -17.5560  -30.0480   24.1150 C   0  0  0  0  0  3  0  0  0  0  0  0
  -16.4250  -29.4820   23.5010 C   0  0  0  0  0  3  0  0  0  0  0  0
  -16.5790  -28.4230   22.5880 C   0  0  0  0  0  3  0  0  0  0  0  0
  -26.6270  -30.7020   23.6960 C   0  0  0  0  0  3  0  0  0  0  0  0
  -26.7550  -31.8580   24.5920 N   0  0  0  0  0  0  0  0  0  0  0  0
  -27.2580  -33.0460   24.2320 C   0  0  0  0  0  0  0  0  0  0  0  0
  -27.7400  -33.2600   23.1170 O   0  0  0  0  0  0  0  0  0  0  0  0
  -26.3440  -31.7650   25.5090 H   0  0  0  0  0  0  0  0  0  0  0  0
  -26.0530  -35.1230   24.9710 C   0  0  0  0  0  1  0  0  0  0  0  0
  -27.2240  -34.1760   25.2780 C   0  0  0  0  0  3  0  0  0  0  0  0
  -29.5990  -34.1720   25.8980 C   0  0  0  0  0  1  0  0  0  0  0  0
  -28.4850  -34.9470   25.3570 N   0  0  0  0  0  0  0  0  0  0  0  0
  -28.3650  -35.7750   25.9350 H   0  0  0  0  0  0  0  0  0  0  0  0
  -27.1420  -29.3890   24.4040 C   0  0  1  0  0  0  0  0  0  0  0  0
  -26.2370  -28.9160   25.5650 C   0  0  0  0  0  1  0  0  0  0  0  0
  -27.2570  -28.2310   23.3840 C   0  0  0  0  0  1  0  0  0  0  0  0
  -28.5600  -29.6240   24.9750 C   0  0  0  0  0  1  0  0  0  0  0  0
  -25.9330  -25.0840   22.7590 C   0  0  0  0  0  2  0  0  0  0  0  0
  -26.9260  -24.0210   23.2760 C   0  0  0  0  0  2  0  0  0  0  0  0
  -28.3130  -24.0480   22.6020 C   0  0  0  0  0  2  0  0  0  0  0  0
  -28.3630  -23.4170   21.1960 C   0  0  0  0  0  2  0  0  0  0  0  0
  -29.5980  -23.8680   20.3970 C   0  0  0  0  0  2  0  0  0  0  0  0
  -29.7900  -23.1110   19.0710 C   0  0  0  0  0  2  0  0  0  0  0  0
  -30.8760  -23.7640   18.1940 C   0  0  0  0  0  2  0  0  0  0  0  0
  -31.3050  -22.9030   16.9940 C   0  0  0  0  0  2  0  0  0  0  0  0
  -32.1570  -21.6890   17.4040 C   0  0  0  0  0  2  0  0  0  0  0  0
  -32.3580  -20.6570   16.2800 C   0  0  0  0  0  2  0  0  0  0  0  0
  -31.0670  -19.9580   15.8120 C   0  0  0  0  0  2  0  0  0  0  0  0
  -30.2620  -19.3000   16.9480 C   0  0  0  0  0  2  0  0  0  0  0  0
  -29.3010  -18.2270   16.4160 C   0  0  0  0  0  2  0  0  0  0  0  0
  -28.0970  -17.9330   17.3320 C   0  0  0  0  0  2  0  0  0  0  0  0
  -29.5330  -16.9700   19.1440 C   0  0  0  0  0  0  0  0  0  0  0  0
  -30.3680  -14.9420   20.2660 C   0  0  0  0  0  2  0  0  0  0  0  0
  -29.9850  -13.7160   19.4110 C   0  0  0  0  0  2  0  0  0  0  0  0
  -28.5620  -13.2260   19.7450 C   0  0  0  0  0  2  0  0  0  0  0  0
  -27.5200  -14.3760   19.7670 C   0  0  0  0  0  3  0  0  0  0  0  0
  -28.0470  -15.5610   20.6120 C   0  0  0  0  0  2  0  0  0  0  0  0
  -29.3470  -15.9790   20.0560 N   0  0  0  0  0  0  0  0  0  0  0  0
  -30.6270  -17.2240   18.6340 O   0  0  0  0  0  0  0  0  0  0  0  0
  -28.3960  -17.5430   18.7140 N   0  0  0  0  0  0  0  0  0  0  0  0
  -27.5870  -17.3280   19.2790 H   0  0  0  0  0  0  0  0  0  0  0  0
  -25.0740  -14.6320   20.5530 C   0  0  0  0  0  0  0  0  0  0  0  0
  -24.1160  -13.7090   20.8760 C   0  0  0  0  0  0  0  0  0  0  0  0
  -24.7340  -12.4310   20.7290 C   0  0  0  0  0  0  0  0  0  0  0  0
  -26.2160  -13.9070   20.2400 N   0  0  0  0  0  0  0  0  0  0  0  0
  -26.0130  -12.5730   20.3980 N   0  0  0  0  0  0  0  0  0  0  0  0
  -24.1730  -11.0770   20.8290 C   0  0  0  0  0  0  0  0  0  0  0  0
  -24.5950  -10.1750   21.8310 C   0  0  0  0  0  3  0  0  0  0  0  0
  -24.0280   -8.8860   21.9200 C   0  0  0  0  0  3  0  0  0  0  0  0
  -23.0240   -8.4880   21.0050 C   0  0  0  0  0  0  0  0  0  0  0  0
  -22.6230   -9.3820   19.9960 C   0  0  0  0  0  3  0  0  0  0  0  0
  -23.1930  -10.6640   19.9050 C   0  0  0  0  0  3  0  0  0  0  0  0
  -22.4330   -7.2480   21.0000 O   0  0  0  0  0  0  0  0  0  0  0  0
  -22.1370   -6.5870   22.1650 C   0  0  0  0  0  0  0  0  0  0  0  0
  -21.2870   -7.1460   23.1440 C   0  0  0  0  0  3  0  0  0  0  0  0
  -20.9520   -6.4020   24.2940 C   0  0  0  0  0  3  0  0  0  0  0  0
  -21.4560   -5.0990   24.4630 C   0  0  0  0  0  0  0  0  0  0  0  0
  -22.2980   -4.5380   23.4850 C   0  0  0  0  0  3  0  0  0  0  0  0
  -22.6350   -5.2790   22.3390 C   0  0  0  0  0  0  0  0  0  0  0  0
  -23.4290   -4.7260   21.3920 F   0  0  0  0  0  0  0  0  0  0  0  0
  -21.1310   -4.3820   25.5630 F   0  0  0  0  0  0  0  0  0  0  0  0
  -22.6760  -13.9880   21.2050 C   0  0  0  0  0  0  0  0  0  0  0  0
  -22.0580  -13.1480   22.0280 N   0  0  0  0  0  0  0  0  0  0  0  0
  -22.1030  -14.9840   20.7660 O   0  0  0  0  0  0  0  0  0  0  0  0
  -22.5320  -12.3440   22.4130 H   0  0  0  0  0  0  0  0  0  0  0  0
  -21.0940  -13.3140   22.2820 H   0  0  0  0  0  0  0  0  0  0  0  0
  -25.0660  -16.0220   20.4830 N   0  0  0  0  0  0  0  0  0  0  0  0
  -24.2290  -16.5650   20.6630 H   0  0  0  0  0  0  0  0  0  0  0  0
  -25.8480  -16.5850   20.1700 H   0  0  0  0  0  0  0  0  0  0  0  0
  2  1  2  0
  3  4  2  0
  4  1  1  0
  4 54  1  0
  5  6  2  0
  5  3  1  0
  6  2  1  0
  7  8  1  0
  7  6  1  0
  9  7  1  0
 10  5  1  0
 11 10  1  0
 11 12  1  0
 13 15  1  0
 13 12  1  0
 14 25  2  0
 15 20  1  0
 16 24  1  0
 16 26  1  0
 17 19  1  0
 17 23  1  0
 18 24  1  0
 19 18  1  0
 20 19  2  0
 21 15  2  0
 21 22  1  0
 22 17  2  0
 23 16  1  0
 24 14  1  0
 26 28  2  0
 27 26  1  0
 29 27  1  0
 30 39  2  0
 30 35  1  0
 31 27  1  0
 31 35  1  0
 32 31  1  0
 33 34  1  0
 33 32  1  0
 34 30  1  0
 35 36  2  0
 36 37  1  0
 38 37  2  0
 39 38  1  0
 40 14  1  0
 40 50  1  0
 40 41  1  0
 41 44  1  0
 42 41  1  0
 42 46  1  0
 43 42  2  0
 46 45  1  0
 46 48  1  0
 48 47  1  0
 48 49  1  0
 50 53  1  1
 50 51  1  0
 52 50  1  0
 54 55  1  0
 56 55  1  0
 57 56  1  0
 58 57  1  0
 59 58  1  0
 60 59  1  0
 61 62  1  0
 61 60  1  0
 63 62  1  0
 64 63  1  0
 64 65  1  0
 66 65  1  0
 66 67  1  0
 67 76  1  0
 68 74  1  0
 70 71  1  0
 70 69  1  0
 72 71  1  0
 72 81  1  0
 72 73  1  0
 74 69  1  0
 74 73  1  0
 75 68  2  0
 76 68  1  0
 76 77  1  0
 78 79  2  0
 79 98  1  0
 80 83  1  0
 80 79  1  0
 81 82  1  0
 81 78  1  0
 82 80  2  0
 83 84  1  0
 84 85  2  0
 86 85  1  0
 87 86  2  0
 88 87  1  0
 88 83  2  0
 89 86  1  0
 89 90  1  0
 90 95  2  0
 90 91  1  0
 91 92  2  0
 92 93  1  0
 93 97  1  0
 94 93  2  0
 95 94  1  0
 96 95  1  0
 98 99  1  0
 99102  1  0
 99101  1  0
100 98  2  0
103 78  1  0
103104  1  0
105103  1  0
M  ISO  4  12 101  13 101  68 100  76 100
M  END
>  <TORSDO>  (84) 
F 34

>  <SCORE>  (84) 
-6.238

>  <name>  (84) 
84

>  <ligand_id>  (84) 
84

>  <original_smiles>  (84) 
[H]c1c([H])c([H])c2c(c1[H])C([H])([H])C([H])([H])C([H])([H])C2([H])N([H])C(=O)C1([H])N(C(=O)C([H])(N([H])C(=O)C([H])(N([H])C([H])([H])[H])C([H])([H])[H])C(C([H])([H])[H])(C([H])([H])[H])C([H])([H])[H])C([H])([H])c2c([H])c(OC([H])([H])C([H])([H])C([H])([H])c3c([H])c(C([H])([H])C([H])([H])C([H])([H])C([H])([H])C([H])([H])C([H])([H])C([H])([H])C([H])([H])C([H])([H])C([H])([H])C([H])([H])C([H])([H])C([H])([H])C([H])([H])N([H])C(=O)N4C([H])([H])C([H])([H])C([H])([H])C([H])(n5nc(-c6c([H])c([H])c(Oc7c([H])c([H])c(F)c([H])c7F)c([H])c6[H])c(C(=O)N([H])[H])c5N([H])[H])C4([H])[H])c([H])c([H])c3N([H])[H])c([H])c([H])c2C1([H])[H]

>  <smiles>  (84) 
[H]c1c([H])c([H])c2c(c1[H])C([H])([H])C([H])([H])C([H])([H])C2([H])N([H])C(=O)C1([H])N(C(=O)C([H])(N([H])C(=O)C([H])(N([H])C([H])([H])[H])C([H])([H])[H])C(C([H])([H])[H])(C([H])([H])[H])C([H])([H])[H])C([H])([H])c2c([H])c(OC([H])([H])C([H])([H])C([H])([H])c3c([H])c(C([H])([H])C([H])([H])C([H])([H])C([H])([H])C([H])([H])C([H])([H])C([H])([H])C([H])([H])C([H])([H])C([H])([H])C([H])([H])C([H])([H])C([H])([H])C([H])([H])N([H])C(=O)N4C([H])([H])C([H])([H])C([H])([H])C([H])(n5nc(-c6c([H])c([H])c(Oc7c([H])c([H])c(F)c([H])c7F)c([H])c6[H])c(C(=O)N([H])[H])c5N([H])[H])C4([H])[H])c([H])c([H])c3N([H])[H])c([H])c([H])c2C1([H])[H]

$$$$
85:0:0
     RDKit          3D

 97105  0  0  1  0  0  0  0  0999 V2000
  -31.0830  -20.8080   18.9360 C   0  0  0  0  0  3  0  0  0  0  0  0
  -30.6250  -20.8620   21.3330 C   0  0  0  0  0  3  0  0  0  0  0  0
  -30.8350  -22.1890   18.8570 C   0  0  0  0  0  3  0  0  0  0  0  0
  -30.3670  -22.2420   21.2520 C   0  0  0  0  0  3  0  0  0  0  0  0
  -30.9750  -20.1410   20.1730 C   0  0  0  0  0  0  0  0  0  0  0  0
  -30.4680  -22.9070   20.0130 C   0  0  0  0  0  0  0  0  0  0  0  0
  -31.2490  -18.6570   20.2510 C   0  0  0  0  0  2  0  0  0  0  0  0
  -30.0050  -17.8240   20.6140 C   0  0  0  0  0  2  0  0  0  0  0  0
  -30.3980  -13.7450   22.3980 C   0  0  0  0  0  2  0  0  0  0  0  0
  -30.2260  -15.4430   21.8890 C   0  0  0  0  0  2  0  0  0  0  0  0
  -29.5230  -15.9350   18.7440 C   0  0  0  0  0  2  0  0  0  0  0  0
  -29.9280  -12.2200   21.5890 C   0  0  0  0  0  2  0  0  0  0  0  0
  -29.2440  -14.2950   18.0710 C   0  0  0  0  0  2  0  0  0  0  0  0
  -30.2200  -16.3210   20.3430 C   0  0  0  0  0  3  0  0  0  0  0  0
  -29.9790  -12.0700   19.8090 C   0  0  0  0  0  2  0  0  0  0  0  0
  -31.9590  -13.4200   19.8310 C   0  0  0  0  0  0  0  0  0  0  0  0
  -31.3790  -12.5870   17.9240 C   0  0  0  0  0  2  0  0  0  0  0  0
  -30.0180  -11.5210   17.3990 C   0  0  0  0  0  3  0  0  0  0  0  0
  -28.3330  -11.7040   17.9960 C   0  0  0  0  0  3  0  0  0  0  0  0
  -27.8430  -13.0050   19.1100 C   0  0  0  0  0  3  0  0  0  0  0  0
  -29.0170  -14.1380   19.7980 C   0  0  0  0  0  2  0  0  0  0  0  0
  -30.9850  -13.8330   19.2100 N   0  0  0  0  0  2  0  0  0  0  0  0
  -33.0650  -13.9020   19.6160 O   0  0  0  0  0  0  0  0  0  0  0  0
  -31.4650  -12.2290   20.2620 N   0  0  0  0  0  0  0  0  0  0  0  0
  -32.0250  -11.4810   20.6440 H   0  0  0  0  0  0  0  0  0  0  0  0
  -25.8900  -13.8760   20.2750 C   0  0  0  0  0  0  0  0  0  0  0  0
  -24.7970  -13.2210   20.7200 C   0  0  0  0  0  0  0  0  0  0  0  0
  -25.0970  -11.8270   20.6120 C   0  0  0  0  0  0  0  0  0  0  0  0
  -26.7320  -12.8530   19.9030 N   0  0  0  0  0  0  0  0  0  0  0  0
  -26.3170  -11.6200   20.1700 N   0  0  0  0  0  0  0  0  0  0  0  0
  -24.2750  -10.6570   20.8210 C   0  0  0  0  0  0  0  0  0  0  0  0
  -24.6730   -9.6470   21.7180 C   0  0  0  0  0  3  0  0  0  0  0  0
  -23.8410   -8.5320   21.9300 C   0  0  0  0  0  3  0  0  0  0  0  0
  -22.6080   -8.4350   21.2440 C   0  0  0  0  0  0  0  0  0  0  0  0
  -22.2410   -9.4300   20.3210 C   0  0  0  0  0  3  0  0  0  0  0  0
  -23.0730  -10.5350   20.1040 C   0  0  0  0  0  3  0  0  0  0  0  0
  -21.7370   -7.3870   21.3850 O   0  0  0  0  0  0  0  0  0  0  0  0
  -21.6470   -6.6930   22.5620 C   0  0  0  0  0  0  0  0  0  0  0  0
  -21.3320   -7.3290   23.7830 C   0  0  0  0  0  3  0  0  0  0  0  0
  -21.1820   -6.5620   24.9550 C   0  0  0  0  0  3  0  0  0  0  0  0
  -21.3380   -5.1630   24.9050 C   0  0  0  0  0  0  0  0  0  0  0  0
  -21.6500   -4.5300   23.6900 C   0  0  0  0  0  3  0  0  0  0  0  0
  -21.8030   -5.2950   22.5200 C   0  0  0  0  0  0  0  0  0  0  0  0
  -22.0850   -4.6810   21.3450 F   0  0  0  0  0  0  0  0  0  0  0  0
  -21.1810   -4.4240   26.0280 F   0  0  0  0  0  0  0  0  0  0  0  0
  -23.5080  -13.8650   21.0940 C   0  0  0  0  0  0  0  0  0  0  0  0
  -22.7910  -13.2590   22.0260 N   0  0  0  0  0  0  0  0  0  0  0  0
  -23.1650  -14.9370   20.6000 O   0  0  0  0  0  0  0  0  0  0  0  0
  -23.0980  -12.3920   22.4420 H   0  0  0  0  0  0  0  0  0  0  0  0
  -21.9190  -13.6660   22.3340 H   0  0  0  0  0  0  0  0  0  0  0  0
  -26.1960  -15.2260   20.0750 N   0  0  0  0  0  0  0  0  0  0  0  0
  -25.5330  -15.9650   20.2810 H   0  0  0  0  0  0  0  0  0  0  0  0
  -27.0530  -15.5670   19.6580 H   0  0  0  0  0  0  0  0  0  0  0  0
  -30.1650  -24.3850   19.9130 C   0  0  0  0  0  2  0  0  0  0  0  0
  -28.9100  -24.6510   19.0690 C   0  0  0  0  0  2  0  0  0  0  0  0
  -28.6330  -26.1440   18.9120 C   0  0  0  0  0  2  0  0  0  0  0  0
  -28.2470  -26.6760   20.1760 O   0  0  0  0  0  0  0  0  0  0  0  0
  -24.5120  -31.8780   23.2300 C   0  0  0  0  0  0  0  0  0  0  0  0
  -27.0610  -27.3630   20.2060 C   0  0  0  0  0  0  0  0  0  0  0  0
  -23.2680  -30.4740   21.6140 C   0  0  0  0  0  3  0  0  0  0  0  0
  -24.6840  -28.8760   20.2220 C   0  0  0  0  0  0  0  0  0  0  0  0
  -25.7970  -30.7790   21.4040 C   0  0  0  0  0  2  0  0  0  0  0  0
  -25.8480  -29.3950   20.8000 C   0  0  0  0  0  0  0  0  0  0  0  0
  -27.0360  -28.6370   20.8060 C   0  0  0  0  0  3  0  0  0  0  0  0
  -25.8750  -26.8340   19.6510 C   0  0  0  0  0  3  0  0  0  0  0  0
  -24.6870  -27.5890   19.6540 C   0  0  0  0  0  3  0  0  0  0  0  0
  -23.4590  -29.7600   20.2480 C   0  0  0  0  0  2  0  0  0  0  0  0
  -24.5440  -31.0590   22.1410 N   0  0  0  0  0  0  0  0  0  0  0  0
  -23.4400  -32.1850   23.7670 O   0  0  0  0  0  0  0  0  0  0  0  0
  -22.5990  -29.4850   22.5930 C   0  0  0  0  0  0  0  0  0  0  0  0
  -21.2710  -29.3290   22.4680 N   0  0  0  0  0  0  0  0  0  0  0  0
  -23.2690  -28.8610   23.4200 O   0  0  0  0  0  0  0  0  0  0  0  0
  -20.7940  -29.8840   21.7710 H   0  0  0  0  0  0  0  0  0  0  0  0
  -17.8700  -28.2300   22.9830 C   0  0  0  0  0  0  0  0  0  0  0  0
  -20.4330  -28.4260   23.2540 C   0  0  0  0  0  3  0  0  0  0  0  0
  -20.4990  -26.9830   22.7010 C   0  0  0  0  0  2  0  0  0  0  0  0
  -19.3910  -26.6720   21.6920 C   0  0  0  0  0  2  0  0  0  0  0  0
  -18.0120  -26.8640   22.3320 C   0  0  0  0  0  2  0  0  0  0  0  0
  -19.0080  -28.9700   23.4010 C   0  0  0  0  0  0  0  0  0  0  0  0
  -18.8220  -30.2490   23.9670 C   0  0  0  0  0  3  0  0  0  0  0  0
  -17.5310  -30.7890   24.1210 C   0  0  0  0  0  3  0  0  0  0  0  0
  -16.4080  -30.0450   23.7200 C   0  0  0  0  0  3  0  0  0  0  0  0
  -16.5780  -28.7670   23.1560 C   0  0  0  0  0  3  0  0  0  0  0  0
  -25.8160  -32.4870   23.8360 C   0  0  0  0  0  3  0  0  0  0  0  0
  -25.5340  -33.8900   24.1670 N   0  0  0  0  0  0  0  0  0  0  0  0
  -25.8850  -34.9350   23.4050 C   0  0  0  0  0  0  0  0  0  0  0  0
  -26.5500  -34.8190   22.3720 O   0  0  0  0  0  0  0  0  0  0  0  0
  -24.9450  -34.0550   24.9700 H   0  0  0  0  0  0  0  0  0  0  0  0
  -24.1920  -36.7590   23.0460 C   0  0  0  0  0  1  0  0  0  0  0  0
  -25.4210  -36.3320   23.8620 C   0  0  0  0  0  3  0  0  0  0  0  0
  -27.5710  -37.1730   24.6990 C   0  0  0  0  0  1  0  0  0  0  0  0
  -26.4750  -37.3640   23.7540 N   0  0  0  0  0  0  0  0  0  0  0  0
  -26.0870  -38.2920   23.9010 H   0  0  0  0  0  0  0  0  0  0  0  0
  -26.3380  -31.7060   25.1040 C   0  0  1  0  0  0  0  0  0  0  0  0
  -25.2540  -31.4810   26.1840 C   0  0  0  0  0  1  0  0  0  0  0  0
  -26.8960  -30.3220   24.6970 C   0  0  0  0  0  1  0  0  0  0  0  0
  -27.5080  -32.4820   25.7530 C   0  0  0  0  0  1  0  0  0  0  0  0
  1  5  1  0
  3  1  2  0
  3  6  1  0
  4  2  1  0
  5  7  1  0
  5  2  2  0
  6  4  2  0
  7  8  1  0
 10  9  1  0
 11 14  1  0
 12  9  1  0
 13 11  1  0
 13 21  1  0
 14  8  1  0
 14 10  1  0
 15 24  1  0
 15 12  1  0
 16 24  1  0
 17 22  1  0
 18 17  1  0
 18 19  2  0
 20 19  1  0
 20 21  1  0
 20 29  1  0
 22 16  1  0
 23 16  2  0
 24 25  1  0
 26 27  2  0
 27 46  1  0
 28 27  1  0
 28 31  1  0
 29 30  1  0
 29 26  1  0
 30 28  2  0
 31 32  1  0
 32 33  2  0
 34 37  1  0
 34 33  1  0
 35 34  2  0
 36 35  1  0
 36 31  2  0
 37 38  1  0
 38 39  1  0
 39 40  2  0
 41 40  1  0
 41 45  1  0
 42 41  2  0
 43 38  2  0
 43 42  1  0
 44 43  1  0
 46 47  1  0
 47 50  1  0
 47 49  1  0
 48 46  2  0
 51 26  1  0
 51 52  1  0
 53 51  1  0
 54  6  1  0
 55 54  1  0
 56 55  1  0
 56 57  1  0
 57 59  1  0
 58 69  2  0
 59 64  1  0
 60 68  1  0
 60 70  1  0
 61 67  1  0
 61 63  1  0
 62 68  1  0
 63 64  2  0
 63 62  1  0
 65 66  1  0
 65 59  2  0
 66 61  2  0
 67 60  1  0
 68 58  1  0
 70 72  2  0
 71 70  1  0
 73 71  1  0
 74 83  2  0
 74 79  1  0
 75 71  1  0
 75 79  1  0
 76 75  1  0
 77 78  1  0
 77 76  1  0
 78 74  1  0
 79 80  2  0
 80 81  1  0
 82 81  2  0
 83 82  1  0
 84 58  1  0
 84 85  1  0
 84 94  1  0
 85 88  1  0
 86 90  1  0
 86 85  1  0
 87 86  2  0
 90 89  1  0
 92 90  1  0
 92 93  1  0
 92 91  1  0
 94 97  1  1
 94 95  1  0
 96 94  1  0
M  ISO  4  16 100  24 100  56 101  57 101
M  END
>  <TORSDO>  (85) 
F 22

>  <SCORE>  (85) 
-10.120

>  <name>  (85) 
85

>  <ligand_id>  (85) 
85

>  <original_smiles>  (85) 
[H]c1c([H])c([H])c2c(c1[H])C([H])([H])C([H])([H])C([H])([H])C2([H])N([H])C(=O)C1([H])N(C(=O)C([H])(N([H])C(=O)C([H])(N([H])C([H])([H])[H])C([H])([H])[H])C(C([H])([H])[H])(C([H])([H])[H])C([H])([H])[H])C([H])([H])c2c([H])c(OC([H])([H])C([H])([H])C([H])([H])c3c([H])c([H])c(C([H])([H])C([H])([H])C4([H])C([H])([H])C([H])([H])C([H])([H])C([H])(N([H])C(=O)N5C([H])([H])C([H])([H])C([H])([H])C([H])(n6nc(-c7c([H])c([H])c(Oc8c([H])c([H])c(F)c([H])c8F)c([H])c7[H])c(C(=O)N([H])[H])c6N([H])[H])C5([H])[H])C([H])([H])C4([H])[H])c([H])c3[H])c([H])c([H])c2C1([H])[H]

>  <smiles>  (85) 
[H]c1c([H])c([H])c2c(c1[H])C([H])([H])C([H])([H])C([H])([H])C2([H])N([H])C(=O)C1([H])N(C(=O)C([H])(N([H])C(=O)C([H])(N([H])C([H])([H])[H])C([H])([H])[H])C(C([H])([H])[H])(C([H])([H])[H])C([H])([H])[H])C([H])([H])c2c([H])c(OC([H])([H])C([H])([H])C([H])([H])c3c([H])c([H])c(C([H])([H])C([H])([H])C4([H])C([H])([H])C([H])([H])C([H])([H])C([H])(N([H])C(=O)N5C([H])([H])C([H])([H])C([H])([H])C([H])(n6nc(-c7c([H])c([H])c(Oc8c([H])c([H])c(F)c([H])c8F)c([H])c7[H])c(C(=O)N([H])[H])c6N([H])[H])C5([H])[H])C([H])([H])C4([H])[H])c([H])c3[H])c([H])c([H])c2C1([H])[H]

$$$$
86:0:0
     RDKit          3D

 92 99  0  0  1  0  0  0  0  0999 V2000
  -28.8460  -24.4060   24.3770 C   0  0  0  0  0  0  0  0  0  0  0  0
  -27.9370  -24.7860   25.1180 O   0  0  0  0  0  0  0  0  0  0  0  0
  -29.9670  -25.2750   23.9970 C   0  0  0  0  0  3  0  0  0  0  0  0
  -30.0850  -25.8630   22.7900 C   0  0  0  0  0  3  0  0  0  0  0  0
  -29.1210  -25.7880   21.6140 C   0  0  0  0  0  2  0  0  0  0  0  0
  -29.2460  -27.0120   20.6950 C   0  0  0  0  0  2  0  0  0  0  0  0
  -28.2840  -26.9260   19.6440 O   0  0  0  0  0  0  0  0  0  0  0  0
  -24.5030  -31.8760   23.1250 C   0  0  0  0  0  0  0  0  0  0  0  0
  -27.1160  -27.6350   19.7920 C   0  0  0  0  0  0  0  0  0  0  0  0
  -23.2510  -30.4910   21.4960 C   0  0  0  0  0  3  0  0  0  0  0  0
  -24.6750  -29.0440   19.9540 C   0  0  0  0  0  0  0  0  0  0  0  0
  -25.7460  -30.9410   21.1820 C   0  0  0  0  0  2  0  0  0  0  0  0
  -25.8390  -29.5910   20.5080 C   0  0  0  0  0  0  0  0  0  0  0  0
  -27.0610  -28.8940   20.4300 C   0  0  0  0  0  3  0  0  0  0  0  0
  -25.9410  -27.0980   19.2270 C   0  0  0  0  0  3  0  0  0  0  0  0
  -24.7190  -27.7930   19.3120 C   0  0  0  0  0  3  0  0  0  0  0  0
  -23.4080  -29.8590   20.0840 C   0  0  0  0  0  2  0  0  0  0  0  0
  -24.5200  -31.1150   21.9930 N   0  0  0  0  0  0  0  0  0  0  0  0
  -23.4430  -32.0990   23.7250 O   0  0  0  0  0  0  0  0  0  0  0  0
  -22.6790  -29.4220   22.4530 C   0  0  0  0  0  0  0  0  0  0  0  0
  -21.3680  -29.1530   22.3310 N   0  0  0  0  0  0  0  0  0  0  0  0
  -23.4090  -28.8370   23.2580 O   0  0  0  0  0  0  0  0  0  0  0  0
  -20.8380  -29.6820   21.6520 H   0  0  0  0  0  0  0  0  0  0  0  0
  -18.1030  -27.6690   22.7500 C   0  0  0  0  0  0  0  0  0  0  0  0
  -20.6180  -28.1570   23.0960 C   0  0  0  0  0  3  0  0  0  0  0  0
  -20.8660  -26.7340   22.5450 C   0  0  0  0  0  2  0  0  0  0  0  0
  -19.8290  -26.3000   21.5050 C   0  0  0  0  0  2  0  0  0  0  0  0
  -18.4210  -26.3290   22.1080 C   0  0  0  0  0  2  0  0  0  0  0  0
  -19.1350  -28.5350   23.1990 C   0  0  0  0  0  0  0  0  0  0  0  0
  -18.7860  -29.7840   23.7560 C   0  0  0  0  0  3  0  0  0  0  0  0
  -17.4380  -30.1690   23.8740 C   0  0  0  0  0  3  0  0  0  0  0  0
  -16.4200  -29.3010   23.4430 C   0  0  0  0  0  3  0  0  0  0  0  0
  -16.7530  -28.0530   22.8870 C   0  0  0  0  0  3  0  0  0  0  0  0
  -25.8040  -32.5170   23.7020 C   0  0  0  0  0  3  0  0  0  0  0  0
  -26.3890  -31.7320   24.9390 C   0  0  1  0  0  0  0  0  0  0  0  0
  -25.3400  -31.4450   26.0390 C   0  0  0  0  0  1  0  0  0  0  0  0
  -26.9890  -30.3800   24.4870 C   0  0  0  0  0  1  0  0  0  0  0  0
  -27.5460  -32.5390   25.5750 C   0  0  0  0  0  1  0  0  0  0  0  0
  -25.4910  -33.9050   24.0650 N   0  0  0  0  0  0  0  0  0  0  0  0
  -25.8510  -34.9780   23.3470 C   0  0  0  0  0  0  0  0  0  0  0  0
  -26.5520  -34.9020   22.3340 O   0  0  0  0  0  0  0  0  0  0  0  0
  -24.8730  -34.0400   24.8520 H   0  0  0  0  0  0  0  0  0  0  0  0
  -24.1580  -36.7960   22.9670 C   0  0  0  0  0  1  0  0  0  0  0  0
  -25.3510  -36.3530   23.8290 C   0  0  0  0  0  3  0  0  0  0  0  0
  -27.4520  -37.1730   24.7980 C   0  0  0  0  0  1  0  0  0  0  0  0
  -26.3970  -37.3990   23.8120 N   0  0  0  0  0  0  0  0  0  0  0  0
  -25.9930  -38.3140   23.9890 H   0  0  0  0  0  0  0  0  0  0  0  0
  -28.8330  -22.9700   23.8460 C   0  0  0  0  0  2  0  0  0  0  0  0
  -30.0570  -22.1390   24.2920 C   0  0  0  0  0  2  0  0  0  0  0  0
  -31.3150  -22.2740   23.4100 C   0  0  0  0  0  2  0  0  0  0  0  0
  -31.2200  -21.5000   22.0830 C   0  0  0  0  0  2  0  0  0  0  0  0
  -32.5920  -21.2710   21.4270 C   0  0  0  0  0  2  0  0  0  0  0  0
  -32.6000  -20.1410   20.3810 C   0  0  0  0  0  2  0  0  0  0  0  0
  -32.1510  -18.7810   20.9420 C   0  0  0  0  0  2  0  0  0  0  0  0
  -32.5280  -17.6000   20.0310 C   0  0  0  0  0  2  0  0  0  0  0  0
  -31.8350  -16.2950   20.4670 C   0  0  0  0  0  2  0  0  0  0  0  0
  -32.3190  -15.0290   19.7360 C   0  0  0  0  0  0  0  0  0  0  0  0
  -31.8880  -12.6810   19.0840 C   0  0  0  0  0  2  0  0  0  0  0  0
  -30.9330  -12.6060   17.8770 C   0  0  0  0  0  2  0  0  0  0  0  0
  -29.4620  -12.6550   18.3360 C   0  0  0  0  0  2  0  0  0  0  0  0
  -29.1870  -13.8200   19.3240 C   0  0  0  0  0  3  0  0  0  0  0  0
  -30.2370  -13.8260   20.4540 C   0  0  0  0  0  2  0  0  0  0  0  0
  -31.5730  -13.9010   19.8370 N   0  0  0  0  0  0  0  0  0  0  0  0
  -33.3610  -15.0780   19.0700 O   0  0  0  0  0  0  0  0  0  0  0  0
  -26.9510  -14.7970   20.1560 C   0  0  0  0  0  0  0  0  0  0  0  0
  -25.7840  -14.2000   20.5480 C   0  0  0  0  0  0  0  0  0  0  0  0
  -26.0080  -12.7920   20.4500 C   0  0  0  0  0  0  0  0  0  0  0  0
  -27.8240  -13.7630   19.8510 N   0  0  0  0  0  0  0  0  0  0  0  0
  -27.2600  -12.5500   20.0800 N   0  0  0  0  0  0  0  0  0  0  0  0
  -25.0890  -11.6610   20.6310 C   0  0  0  0  0  0  0  0  0  0  0  0
  -25.3760  -10.6160   21.5370 C   0  0  0  0  0  3  0  0  0  0  0  0
  -24.4690   -9.5470   21.7060 C   0  0  0  0  0  3  0  0  0  0  0  0
  -23.2610   -9.5190   20.9700 C   0  0  0  0  0  0  0  0  0  0  0  0
  -22.9920  -10.5500   20.0530 C   0  0  0  0  0  3  0  0  0  0  0  0
  -23.8970  -11.6100   19.8810 C   0  0  0  0  0  3  0  0  0  0  0  0
  -22.3330   -8.5080   21.0500 O   0  0  0  0  0  0  0  0  0  0  0  0
  -22.1270   -7.8110   22.2130 C   0  0  0  0  0  0  0  0  0  0  0  0
  -21.7690   -8.4580   23.4160 C   0  0  0  0  0  3  0  0  0  0  0  0
  -21.4980   -7.6960   24.5710 C   0  0  0  0  0  3  0  0  0  0  0  0
  -21.5770   -6.2920   24.5230 C   0  0  0  0  0  0  0  0  0  0  0  0
  -21.9280   -5.6460   23.3250 C   0  0  0  0  0  3  0  0  0  0  0  0
  -22.1990   -6.4040   22.1720 C   0  0  0  0  0  0  0  0  0  0  0  0
  -22.5170   -5.7760   21.0140 F   0  0  0  0  0  0  0  0  0  0  0  0
  -21.3090   -5.5600   25.6300 F   0  0  0  0  0  0  0  0  0  0  0  0
  -24.4980  -14.8900   20.9020 C   0  0  0  0  0  0  0  0  0  0  0  0
  -23.7080  -14.2980   21.7910 N   0  0  0  0  0  0  0  0  0  0  0  0
  -24.2100  -15.9870   20.4250 O   0  0  0  0  0  0  0  0  0  0  0  0
  -23.9550  -13.4070   22.1990 H   0  0  0  0  0  0  0  0  0  0  0  0
  -22.8440  -14.7420   22.0700 H   0  0  0  0  0  0  0  0  0  0  0  0
  -27.3390  -16.1260   20.0180 N   0  0  0  0  0  0  0  0  0  0  0  0
  -26.7050  -16.8980   20.1900 H   0  0  0  0  0  0  0  0  0  0  0  0
  -28.2460  -16.4260   19.6830 H   0  0  0  0  0  0  0  0  0  0  0  0
  1  2  2  0
  3  1  1  0
  4  3  2  0
  5  4  1  0
  6  5  1  0
  7  9  1  0
  7  6  1  0
  8 19  2  0
  9 14  1  0
 10 18  1  0
 10 20  1  0
 11 17  1  0
 11 13  1  0
 12 18  1  0
 13 12  1  0
 14 13  2  0
 15 16  1  0
 15  9  2  0
 16 11  2  0
 17 10  1  0
 18  8  1  0
 20 22  2  0
 21 20  1  0
 23 21  1  0
 24 33  2  0
 24 29  1  0
 25 21  1  0
 25 29  1  0
 26 25  1  0
 27 28  1  0
 27 26  1  0
 28 24  1  0
 29 30  2  0
 30 31  1  0
 32 31  2  0
 33 32  1  0
 34  8  1  0
 34 39  1  0
 34 35  1  0
 35 38  1  1
 35 36  1  0
 37 35  1  0
 39 42  1  0
 40 44  1  0
 40 39  1  0
 41 40  2  0
 44 43  1  0
 46 44  1  0
 46 47  1  0
 46 45  1  0
 48 49  1  0
 48  1  1  0
 50 49  1  0
 51 50  1  0
 52 51  1  0
 53 54  1  0
 53 52  1  0
 55 56  1  0
 55 54  1  0
 57 63  1  0
 57 56  1  0
 58 63  1  0
 59 60  1  0
 59 58  1  0
 61 60  1  0
 61 68  1  0
 61 62  1  0
 63 62  1  0
 64 57  2  0
 65 66  2  0
 66 85  1  0
 67 66  1  0
 67 70  1  0
 68 69  1  0
 68 65  1  0
 69 67  2  0
 70 71  1  0
 71 72  2  0
 73 76  1  0
 73 72  1  0
 74 73  2  0
 75 74  1  0
 75 70  2  0
 76 77  1  0
 77 78  1  0
 78 79  2  0
 80 79  1  0
 80 84  1  0
 81 80  2  0
 82 77  2  0
 82 81  1  0
 83 82  1  0
 85 86  1  0
 86 89  1  0
 86 88  1  0
 87 85  2  0
 90 65  1  0
 90 91  1  0
 92 90  1  0
M  ISO  4   6 101   7 101  56 100  57 100
M  END
>  <TORSDO>  (86) 
F 28

>  <SCORE>  (86) 
-6.295

>  <name>  (86) 
86

>  <ligand_id>  (86) 
86

>  <original_smiles>  (86) 
[H]C(C(=O)C([H])([H])C([H])([H])C([H])([H])C([H])([H])C([H])([H])C([H])([H])C([H])([H])C([H])([H])C([H])([H])C(=O)N1C([H])([H])C([H])([H])C([H])([H])C([H])(n2nc(-c3c([H])c([H])c(Oc4c([H])c([H])c(F)c([H])c4F)c([H])c3[H])c(C(=O)N([H])[H])c2N([H])[H])C1([H])[H])=C([H])C([H])([H])C([H])([H])Oc1c([H])c([H])c2c(c1[H])C([H])([H])N(C(=O)C([H])(N([H])C(=O)C([H])(N([H])C([H])([H])[H])C([H])([H])[H])C(C([H])([H])[H])(C([H])([H])[H])C([H])([H])[H])C([H])(C(=O)N([H])C1([H])c3c([H])c([H])c([H])c([H])c3C([H])([H])C([H])([H])C1([H])[H])C2([H])[H]

>  <smiles>  (86) 
[H]C(C(=O)C([H])([H])C([H])([H])C([H])([H])C([H])([H])C([H])([H])C([H])([H])C([H])([H])C([H])([H])C([H])([H])C(=O)N1C([H])([H])C([H])([H])C([H])([H])C([H])(n2nc(-c3c([H])c([H])c(Oc4c([H])c([H])c(F)c([H])c4F)c([H])c3[H])c(C(=O)N([H])[H])c2N([H])[H])C1([H])[H])=C([H])C([H])([H])C([H])([H])Oc1c([H])c([H])c2c(c1[H])C([H])([H])N(C(=O)C([H])(N([H])C(=O)C([H])(N([H])C([H])([H])[H])C([H])([H])[H])C(C([H])([H])[H])(C([H])([H])[H])C([H])([H])[H])C([H])(C(=O)N([H])C1([H])c3c([H])c([H])c([H])c([H])c3C([H])([H])C([H])([H])C1([H])[H])C2([H])[H]

$$$$
87:0:0
     RDKit          3D

101108  0  0  1  0  0  0  0  0999 V2000
  -26.6970  -16.7220   17.7840 C   0  0  0  0  0  2  0  0  0  0  0  0
  -27.2160  -17.8060   18.8110 C   0  0  0  0  0  3  0  0  0  0  0  0
  -26.8610  -19.3070   18.4990 C   0  0  0  0  0  3  0  0  0  0  0  0
  -27.6580  -20.4170   19.2970 C   0  0  0  0  0  3  0  0  0  0  0  0
  -27.1410  -21.9020   19.1600 C   0  0  0  0  0  3  0  0  0  0  0  0
  -27.9360  -22.9530   19.8920 N   0  0  0  0  0  4  0  0  0  0  0  0
  -28.9160  -22.7790   19.7300 H   0  0  0  0  0  0  0  0  0  0  0  0
  -27.7630  -22.8360   20.8800 H   0  0  0  0  0  0  0  0  0  0  0  0
  -27.6310  -24.3840   19.5110 C   0  0  0  0  0  3  0  0  0  0  0  0
  -28.4170  -25.5350   20.2750 C   0  0  0  0  0  3  0  0  0  0  0  0
  -28.4900  -26.9040   19.7220 O   0  0  0  0  0  0  0  0  0  0  0  0
  -24.5870  -31.7870   23.3080 C   0  0  0  0  0  0  0  0  0  0  0  0
  -27.3570  -27.6930   19.8090 C   0  0  0  0  0  0  0  0  0  0  0  0
  -23.4340  -30.4730   21.5680 C   0  0  0  0  0  3  0  0  0  0  0  0
  -24.9330  -29.1550   19.9920 C   0  0  0  0  0  0  0  0  0  0  0  0
  -25.9460  -30.9530   21.3870 C   0  0  0  0  0  2  0  0  0  0  0  0
  -26.0840  -29.6450   20.6230 C   0  0  0  0  0  0  0  0  0  0  0  0
  -27.3060  -28.9170   20.5400 C   0  0  0  0  0  3  0  0  0  0  0  0
  -26.1990  -27.2910   19.1180 C   0  0  0  0  0  3  0  0  0  0  0  0
  -24.9890  -27.9790   19.2360 C   0  0  0  0  0  3  0  0  0  0  0  0
  -23.6560  -29.9490   20.1300 C   0  0  0  0  0  2  0  0  0  0  0  0
  -24.6740  -31.0860   22.1410 N   0  0  0  0  0  0  0  0  0  0  0  0
  -23.5000  -31.9470   23.8770 O   0  0  0  0  0  0  0  0  0  0  0  0
  -22.8600  -29.3290   22.4370 C   0  0  0  0  0  0  0  0  0  0  0  0
  -21.5570  -29.0480   22.2720 N   0  0  0  0  0  0  0  0  0  0  0  0
  -23.5810  -28.7050   23.2200 O   0  0  0  0  0  0  0  0  0  0  0  0
  -21.0360  -29.6070   21.6100 H   0  0  0  0  0  0  0  0  0  0  0  0
  -18.3090  -27.4820   22.5510 C   0  0  0  0  0  0  0  0  0  0  0  0
  -20.8110  -27.9930   22.9560 C   0  0  0  0  0  3  0  0  0  0  0  0
  -21.0930  -26.6150   22.3140 C   0  0  0  0  0  2  0  0  0  0  0  0
  -20.0750  -26.2310   21.2360 C   0  0  0  0  0  2  0  0  0  0  0  0
  -18.6570  -26.1970   21.8110 C   0  0  0  0  0  2  0  0  0  0  0  0
  -19.3190  -28.3330   23.0720 C   0  0  0  0  0  0  0  0  0  0  0  0
  -18.9390  -29.5330   23.7140 C   0  0  0  0  0  3  0  0  0  0  0  0
  -17.5840  -29.8870   23.8400 C   0  0  0  0  0  3  0  0  0  0  0  0
  -16.5860  -29.0340   23.3320 C   0  0  0  0  0  3  0  0  0  0  0  0
  -16.9510  -27.8340   22.6950 C   0  0  0  0  0  3  0  0  0  0  0  0
  -25.8440  -32.4370   23.9660 C   0  0  0  0  0  3  0  0  0  0  0  0
  -26.2830  -31.7220   25.3020 C   0  0  1  0  0  0  0  0  0  0  0  0
  -25.1350  -31.5520   26.3260 C   0  0  0  0  0  1  0  0  0  0  0  0
  -26.8620  -30.3200   25.0060 C   0  0  0  0  0  1  0  0  0  0  0  0
  -27.4160  -32.5330   25.9780 C   0  0  0  0  0  1  0  0  0  0  0  0
  -25.5320  -33.8500   24.2150 N   0  0  0  0  0  0  0  0  0  0  0  0
  -25.9870  -34.8700   23.4740 C   0  0  0  0  0  0  0  0  0  0  0  0
  -26.7880  -34.7190   22.5470 O   0  0  0  0  0  0  0  0  0  0  0  0
  -24.8390  -34.0460   24.9240 H   0  0  0  0  0  0  0  0  0  0  0  0
  -24.4200  -36.7160   22.8000 C   0  0  0  0  0  1  0  0  0  0  0  0
  -25.4820  -36.2830   23.8240 C   0  0  0  0  0  3  0  0  0  0  0  0
  -27.4740  -37.1010   25.0070 C   0  0  0  0  0  1  0  0  0  0  0  0
  -26.5590  -37.2990   23.8820 N   0  0  0  0  0  0  0  0  0  0  0  0
  -26.1670  -38.2340   23.9490 H   0  0  0  0  0  0  0  0  0  0  0  0
  -26.3110  -15.2620   18.2450 C   0  0  0  0  0  2  0  0  0  0  0  0
  -27.3940  -14.1790   17.9390 C   0  0  0  0  0  3  0  0  0  0  0  0
  -27.1390  -12.7100   18.4600 C   0  0  0  0  0  3  0  0  0  0  0  0
  -28.1910  -11.5960   18.0490 C   0  0  0  0  0  3  0  0  0  0  0  0
  -28.1580  -10.2780   18.9240 C   0  0  0  0  0  3  0  0  0  0  0  0
  -29.2830   -9.2000   18.7620 C   0  0  0  0  0  2  0  0  0  0  0  0
  -29.5910   -8.2680   20.0100 C   0  0  0  0  0  3  0  0  0  0  0  0
  -30.4800   -8.8870   21.1430 C   0  0  0  0  0  3  0  0  0  0  0  0
  -30.9730   -8.0620   22.3710 C   0  0  0  0  0  2  0  0  0  0  0  0
  -32.2690   -8.6040   23.0860 C   0  0  0  0  0  2  0  0  0  0  0  0
  -32.3640  -10.1490   23.2860 C   0  0  0  0  0  2  0  0  0  0  0  0
  -33.8110  -10.7900   23.1950 C   0  0  0  0  0  2  0  0  0  0  0  0
  -33.8250  -12.8130   21.6200 C   0  0  0  0  0  0  0  0  0  0  0  0
  -33.0370  -11.1180   20.2120 C   0  0  0  0  0  2  0  0  0  0  0  0
  -32.0930  -11.0790   19.0450 C   0  0  0  0  0  2  0  0  0  0  0  0
  -30.6660  -11.1990   19.5530 C   0  0  0  0  0  2  0  0  0  0  0  0
  -30.3820  -12.4320   20.4300 C   0  0  0  0  0  3  0  0  0  0  0  0
  -31.4120  -12.6700   21.5340 C   0  0  0  0  0  2  0  0  0  0  0  0
  -32.7560  -12.2780   21.0770 N   0  0  0  0  0  0  0  0  0  0  0  0
  -34.6770  -13.4510   20.9830 O   0  0  0  0  0  0  0  0  0  0  0  0
  -33.9880  -12.2540   22.8500 N   0  0  0  0  0  0  0  0  0  0  0  0
  -34.7220  -12.6760   23.3950 H   0  0  0  0  0  0  0  0  0  0  0  0
  -28.2390  -13.5310   21.3020 C   0  0  0  0  0  0  0  0  0  0  0  0
  -26.9900  -13.0330   21.5380 C   0  0  0  0  0  0  0  0  0  0  0  0
  -27.0770  -11.6280   21.3480 C   0  0  0  0  0  0  0  0  0  0  0  0
  -29.0110  -12.4440   20.9320 N   0  0  0  0  0  0  0  0  0  0  0  0
  -28.3280  -11.2800   21.0920 N   0  0  0  0  0  0  0  0  0  0  0  0
  -26.0270  -10.5980   21.3620 C   0  0  0  0  0  0  0  0  0  0  0  0
  -26.0340   -9.5480   22.3010 C   0  0  0  0  0  3  0  0  0  0  0  0
  -25.0000   -8.5840   22.3100 C   0  0  0  0  0  3  0  0  0  0  0  0
  -23.9320   -8.6860   21.3840 C   0  0  0  0  0  0  0  0  0  0  0  0
  -23.9460   -9.7210   20.4380 C   0  0  0  0  0  3  0  0  0  0  0  0
  -24.9860  -10.6570   20.4130 C   0  0  0  0  0  3  0  0  0  0  0  0
  -22.8890   -7.7940   21.3080 O   0  0  0  0  0  0  0  0  0  0  0  0
  -22.2270   -7.3680   22.4260 C   0  0  0  0  0  0  0  0  0  0  0  0
  -21.6330   -8.2780   23.3350 C   0  0  0  0  0  3  0  0  0  0  0  0
  -20.8980   -7.7930   24.4310 C   0  0  0  0  0  3  0  0  0  0  0  0
  -20.7520   -6.4050   24.6310 C   0  0  0  0  0  0  0  0  0  0  0  0
  -21.3400   -5.5020   23.7230 C   0  0  0  0  0  3  0  0  0  0  0  0
  -22.0730   -5.9870   22.6310 C   0  0  0  0  0  0  0  0  0  0  0  0
  -22.6200   -5.1150   21.7460 F   0  0  0  0  0  0  0  0  0  0  0  0
  -20.0380   -5.9390   25.6790 F   0  0  0  0  0  0  0  0  0  0  0  0
  -25.7750  -13.8430   21.8590 C   0  0  0  0  0  0  0  0  0  0  0  0
  -24.8840  -13.2790   22.6540 N   0  0  0  0  0  0  0  0  0  0  0  0
  -25.6280  -14.9840   21.4420 O   0  0  0  0  0  0  0  0  0  0  0  0
  -25.0220  -12.3370   22.9810 H   0  0  0  0  0  0  0  0  0  0  0  0
  -24.0350  -13.7820   22.8570 H   0  0  0  0  0  0  0  0  0  0  0  0
  -28.7800  -14.8010   21.3990 N   0  0  0  0  0  0  0  0  0  0  0  0
  -28.2620  -15.5820   21.7960 H   0  0  0  0  0  0  0  0  0  0  0  0
  -29.7540  -15.0280   21.2680 H   0  0  0  0  0  0  0  0  0  0  0  0
  1 52  1  0
  1  2  1  0
  3  2  2  0
  3  4  1  0
  5  4  2  0
  5  6  1  0
  6  8  1  0
  7  6  1  0
  9  6  1  0
  9 10  2  0
 11 13  1  0
 11 10  1  0
 12 23  2  0
 13 18  1  0
 14 22  1  0
 14 24  1  0
 15 21  1  0
 15 17  1  0
 16 22  1  0
 17 16  1  0
 18 17  2  0
 19 20  1  0
 19 13  2  0
 20 15  2  0
 21 14  1  0
 22 12  1  0
 24 26  2  0
 25 24  1  0
 27 25  1  0
 28 37  2  0
 28 33  1  0
 29 25  1  0
 29 33  1  0
 30 29  1  0
 31 32  1  0
 31 30  1  0
 32 28  1  0
 33 34  2  0
 34 35  1  0
 36 35  2  0
 37 36  1  0
 38 12  1  0
 38 43  1  0
 38 39  1  0
 39 42  1  1
 39 40  1  0
 41 39  1  0
 43 46  1  0
 44 48  1  0
 44 43  1  0
 45 44  2  0
 48 47  1  0
 48 50  1  0
 50 51  1  0
 50 49  1  0
 53 52  1  0
 53 54  2  0
 55 54  1  0
 55 56  2  0
 57 56  1  0
 57 58  1  0
 58 59  2  0
 59 60  1  0
 60 61  1  0
 61 62  1  0
 63 62  1  0
 64 72  1  0
 65 70  1  0
 66 67  1  0
 66 65  1  0
 68 67  1  0
 68 77  1  0
 68 69  1  0
 70 69  1  0
 70 64  1  0
 71 64  2  0
 72 63  1  0
 72 73  1  0
 74 99  1  0
 74 75  2  0
 75 94  1  0
 76 79  1  0
 76 75  1  0
 77 78  1  0
 77 74  1  0
 78 76  2  0
 79 80  1  0
 80 81  2  0
 82 81  1  0
 83 82  2  0
 84 83  1  0
 84 79  2  0
 85 82  1  0
 85 86  1  0
 86 91  2  0
 86 87  1  0
 87 88  2  0
 88 89  1  0
 89 93  1  0
 90 89  2  0
 91 90  1  0
 92 91  1  0
 94 95  1  0
 95 98  1  0
 95 97  1  0
 96 94  2  0
 99100  1  0
101 99  1  0
M  ISO  4  10 101  11 101  64 100  72 100
M  END
>  <TORSDO>  (87) 
F 35

>  <SCORE>  (87) 
-1.325

>  <name>  (87) 
87

>  <ligand_id>  (87) 
87

>  <original_smiles>  (87) 
[H]c1c([H])c([H])c2c(c1[H])C([H])([H])C([H])([H])C([H])([H])C2([H])N([H])C(=O)C1([H])N(C(=O)C([H])(N([H])C(=O)C([H])(N([H])C([H])([H])[H])C([H])([H])[H])C(C([H])([H])[H])(C([H])([H])[H])C([H])([H])[H])C([H])([H])c2c([H])c(OC([H])([H])C([H])([H])[N+]([H])([H])C([H])([H])C([H])([H])C([H])([H])C([H])([H])C([H])([H])C([H])([H])C([H])([H])C([H])([H])C([H])([H])C([H])([H])C([H])([H])C([H])([H])C([H])([H])C([H])([H])C([H])([H])C([H])([H])C([H])([H])N([H])C(=O)N3C([H])([H])C([H])([H])C([H])([H])C([H])(n4nc(-c5c([H])c([H])c(Oc6c([H])c([H])c(F)c([H])c6F)c([H])c5[H])c(C(=O)N([H])[H])c4N([H])[H])C3([H])[H])c([H])c([H])c2C1([H])[H]

>  <smiles>  (87) 
[H]c1c([H])c([H])c2c(c1[H])C([H])([H])C([H])([H])C([H])([H])C2([H])N([H])C(=O)C1([H])N(C(=O)C([H])(N([H])C(=O)C([H])(N([H])C([H])([H])[H])C([H])([H])[H])C(C([H])([H])[H])(C([H])([H])[H])C([H])([H])[H])C([H])([H])c2c([H])c(OC([H])([H])C([H])([H])[N+]([H])([H])C([H])([H])C([H])([H])C([H])([H])C([H])([H])C([H])([H])C([H])([H])C([H])([H])C([H])([H])C([H])([H])C([H])([H])C([H])([H])C([H])([H])C([H])([H])C([H])([H])C([H])([H])C([H])([H])C([H])([H])N([H])C(=O)N3C([H])([H])C([H])([H])C([H])([H])C([H])(n4nc(-c5c([H])c([H])c(Oc6c([H])c([H])c(F)c([H])c6F)c([H])c5[H])c(C(=O)N([H])[H])c4N([H])[H])C3([H])[H])c([H])c([H])c2C1([H])[H]

$$$$
88:0:0
     RDKit          3D

 98107  0  0  1  0  0  0  0  0999 V2000
  -28.3030  -22.1020   16.3400 C   0  0  0  0  0  3  0  0  0  0  0  0
  -28.4840  -21.9810   18.7650 C   0  0  0  0  0  3  0  0  0  0  0  0
  -28.3900  -19.9300   17.4480 C   0  0  0  0  0  3  0  0  0  0  0  0
  -28.4080  -22.7600   17.5870 C   0  0  0  0  0  0  0  0  0  0  0  0
  -28.2930  -20.6940   16.2680 C   0  0  0  0  0  0  0  0  0  0  0  0
  -28.4710  -20.5700   18.7020 C   0  0  0  0  0  0  0  0  0  0  0  0
  -28.1600  -20.0000   14.9270 C   0  0  0  0  0  1  0  0  0  0  0  0
  -28.1690  -25.0580   16.3900 C   0  0  0  0  0  2  0  0  0  0  0  0
  -28.4850  -26.5040   16.7690 C   0  0  0  0  0  2  0  0  0  0  0  0
  -29.6120  -24.9480   18.3020 C   0  0  0  0  0  2  0  0  0  0  0  0
  -28.3640  -24.2860   17.6970 C   0  0  0  0  0  3  0  0  0  0  0  0
  -29.5970  -26.4360   17.8410 C   0  0  1  0  0  0  0  0  0  0  0  0
  -30.9480  -26.7970   17.1870 C   0  0  0  0  0  1  0  0  0  0  0  0
  -29.3340  -27.4370   19.0060 C   0  0  0  0  0  2  0  0  0  0  0  0
  -28.3070  -26.9840   19.8840 O   0  0  0  0  0  0  0  0  0  0  0  0
  -24.6940  -32.0460   23.3940 C   0  0  0  0  0  0  0  0  0  0  0  0
  -27.1820  -27.7630   19.9910 C   0  0  0  0  0  0  0  0  0  0  0  0
  -23.4120  -30.7260   21.7440 C   0  0  0  0  0  3  0  0  0  0  0  0
  -24.7950  -29.2510   20.1980 C   0  0  0  0  0  0  0  0  0  0  0  0
  -25.9280  -31.0930   21.4510 C   0  0  0  0  0  2  0  0  0  0  0  0
  -25.9820  -29.7530   20.7460 C   0  0  0  0  0  0  0  0  0  0  0  0
  -27.1860  -29.0190   20.6370 C   0  0  0  0  0  3  0  0  0  0  0  0
  -25.9700  -27.2520   19.4870 C   0  0  0  0  0  3  0  0  0  0  0  0
  -24.7820  -27.9960   19.5690 C   0  0  0  0  0  3  0  0  0  0  0  0
  -23.5570  -30.1080   20.3290 C   0  0  0  0  0  2  0  0  0  0  0  0
  -24.7000  -31.2990   22.2550 N   0  0  0  0  0  0  0  0  0  0  0  0
  -23.6390  -32.2950   23.9910 O   0  0  0  0  0  0  0  0  0  0  0  0
  -22.7950  -29.6640   22.6840 C   0  0  0  0  0  0  0  0  0  0  0  0
  -21.4810  -29.4310   22.5420 N   0  0  0  0  0  0  0  0  0  0  0  0
  -23.4960  -29.0560   23.4980 O   0  0  0  0  0  0  0  0  0  0  0  0
  -20.9740  -29.9800   21.8620 H   0  0  0  0  0  0  0  0  0  0  0  0
  -18.1740  -28.0230   22.9150 C   0  0  0  0  0  0  0  0  0  0  0  0
  -20.6950  -28.4510   23.2920 C   0  0  0  0  0  3  0  0  0  0  0  0
  -20.9170  -27.0220   22.7420 C   0  0  0  0  0  2  0  0  0  0  0  0
  -19.8830  -26.6150   21.6880 C   0  0  0  0  0  2  0  0  0  0  0  0
  -18.4670  -26.6780   22.2700 C   0  0  0  0  0  2  0  0  0  0  0  0
  -19.2220  -28.8610   23.3810 C   0  0  0  0  0  0  0  0  0  0  0  0
  -18.8960  -30.1160   23.9430 C   0  0  0  0  0  3  0  0  0  0  0  0
  -17.5570  -30.5320   24.0450 C   0  0  0  0  0  3  0  0  0  0  0  0
  -16.5230  -29.6920   23.5960 C   0  0  0  0  0  3  0  0  0  0  0  0
  -16.8330  -28.4390   23.0380 C   0  0  0  0  0  3  0  0  0  0  0  0
  -26.0090  -32.6460   23.9870 C   0  0  0  0  0  3  0  0  0  0  0  0
  -25.7340  -34.0450   24.3390 N   0  0  0  0  0  0  0  0  0  0  0  0
  -26.1100  -35.1010   23.6050 C   0  0  0  0  0  0  0  0  0  0  0  0
  -26.7950  -34.9970   22.5840 O   0  0  0  0  0  0  0  0  0  0  0  0
  -25.1320  -34.2020   25.1340 H   0  0  0  0  0  0  0  0  0  0  0  0
  -24.4520  -36.9580   23.2460 C   0  0  0  0  0  1  0  0  0  0  0  0
  -25.6560  -36.4940   24.0810 C   0  0  0  0  0  3  0  0  0  0  0  0
  -27.7970  -37.2890   24.9860 C   0  0  0  0  0  1  0  0  0  0  0  0
  -26.7260  -37.5150   24.0200 N   0  0  0  0  0  0  0  0  0  0  0  0
  -26.3450  -38.4440   24.1790 H   0  0  0  0  0  0  0  0  0  0  0  0
  -26.5450  -31.8490   25.2390 C   0  0  1  0  0  0  0  0  0  0  0  0
  -25.4700  -31.5770   26.3160 C   0  0  0  0  0  1  0  0  0  0  0  0
  -27.1310  -30.4850   24.8030 C   0  0  0  0  0  1  0  0  0  0  0  0
  -27.6970  -32.6370   25.9060 C   0  0  0  0  0  1  0  0  0  0  0  0
  -28.5140  -19.7430   19.9780 C   0  0  0  0  0  2  0  0  0  0  0  0
  -29.9360  -19.2900   20.3490 C   0  0  0  0  0  2  0  0  0  0  0  0
  -29.9550  -18.1220   21.3530 C   0  0  0  0  0  2  0  0  0  0  0  0
  -31.3880  -17.6500   21.6660 C   0  0  0  0  0  2  0  0  0  0  0  0
  -31.4720  -16.3490   22.4920 C   0  0  0  0  0  2  0  0  0  0  0  0
  -31.2590  -14.4860   20.8460 C   0  0  0  0  0  0  0  0  0  0  0  0
  -30.7490  -12.7080   19.2150 C   0  0  0  0  0  2  0  0  0  0  0  0
  -29.8350  -13.2380   18.0920 C   0  0  0  0  0  2  0  0  0  0  0  0
  -28.3520  -13.1460   18.5000 C   0  0  0  0  0  2  0  0  0  0  0  0
  -28.0810  -13.7330   19.9110 C   0  0  0  0  0  3  0  0  0  0  0  0
  -29.0970  -13.1810   20.9360 C   0  0  0  0  0  2  0  0  0  0  0  0
  -30.4560  -13.4660   20.4390 N   0  0  0  0  0  0  0  0  0  0  0  0
  -32.3400  -14.7480   20.3130 O   0  0  0  0  0  0  0  0  0  0  0  0
  -30.7880  -15.2160   21.8640 N   0  0  0  0  0  0  0  0  0  0  0  0
  -29.9000  -14.9360   22.2550 H   0  0  0  0  0  0  0  0  0  0  0  0
  -25.6950  -14.3990   20.6210 C   0  0  0  0  0  0  0  0  0  0  0  0
  -24.5830  -13.6510   20.8950 C   0  0  0  0  0  0  0  0  0  0  0  0
  -24.9790  -12.2860   20.7490 C   0  0  0  0  0  0  0  0  0  0  0  0
  -26.7040  -13.4900   20.3330 N   0  0  0  0  0  0  0  0  0  0  0  0
  -26.2730  -12.2090   20.4680 N   0  0  0  0  0  0  0  0  0  0  0  0
  -24.1880  -11.0490   20.8080 C   0  0  0  0  0  0  0  0  0  0  0  0
  -24.5260   -9.9980   21.6880 C   0  0  0  0  0  3  0  0  0  0  0  0
  -23.7390   -8.8270   21.7400 C   0  0  0  0  0  3  0  0  0  0  0  0
  -22.6000   -8.6990   20.9100 C   0  0  0  0  0  0  0  0  0  0  0  0
  -22.2810   -9.7400   20.0200 C   0  0  0  0  0  3  0  0  0  0  0  0
  -23.0670  -10.9020   19.9650 C   0  0  0  0  0  3  0  0  0  0  0  0
  -21.7920   -7.5890   20.8720 O   0  0  0  0  0  0  0  0  0  0  0  0
  -21.5900   -6.8090   21.9820 C   0  0  0  0  0  0  0  0  0  0  0  0
  -21.0500   -7.3370   23.1760 C   0  0  0  0  0  3  0  0  0  0  0  0
  -20.7960   -6.4870   24.2690 C   0  0  0  0  0  3  0  0  0  0  0  0
  -21.0680   -5.1090   24.1700 C   0  0  0  0  0  0  0  0  0  0  0  0
  -21.5990   -4.5800   22.9800 C   0  0  0  0  0  3  0  0  0  0  0  0
  -21.8560   -5.4280   21.8880 C   0  0  0  0  0  0  0  0  0  0  0  0
  -22.3480   -4.9100   20.7370 F   0  0  0  0  0  0  0  0  0  0  0  0
  -20.8150   -4.2900   25.2170 F   0  0  0  0  0  0  0  0  0  0  0  0
  -23.2030  -14.1710   21.1820 C   0  0  0  0  0  0  0  0  0  0  0  0
  -22.4250  -13.4370   21.9700 N   0  0  0  0  0  0  0  0  0  0  0  0
  -22.8230  -15.2550   20.7450 O   0  0  0  0  0  0  0  0  0  0  0  0
  -22.7420  -12.5560   22.3480 H   0  0  0  0  0  0  0  0  0  0  0  0
  -21.4970  -13.7620   22.2030 H   0  0  0  0  0  0  0  0  0  0  0  0
  -25.9310  -15.7700   20.5730 N   0  0  0  0  0  0  0  0  0  0  0  0
  -25.1980  -16.4520   20.7340 H   0  0  0  0  0  0  0  0  0  0  0  0
  -26.8130  -16.1900   20.3080 H   0  0  0  0  0  0  0  0  0  0  0  0
  1  4  1  0
  3  6  2  0
  4  2  2  0
  5  1  2  0
  5  3  1  0
  6  2  1  0
  6 56  1  0
  7  5  1  0
  8  9  1  0
  8 11  1  0
  9 12  1  0
 11  4  1  0
 11 10  1  0
 12 13  1  6
 12 10  1  0
 12 14  1  0
 14 15  1  0
 15 17  1  0
 16 27  2  0
 17 22  1  0
 18 26  1  0
 18 28  1  0
 19 25  1  0
 19 21  1  0
 20 26  1  0
 21 20  1  0
 22 21  2  0
 23 24  1  0
 23 17  2  0
 24 19  2  0
 25 18  1  0
 26 16  1  0
 28 30  2  0
 29 28  1  0
 31 29  1  0
 32 41  2  0
 32 37  1  0
 33 29  1  0
 33 37  1  0
 34 33  1  0
 35 36  1  0
 35 34  1  0
 36 32  1  0
 37 38  2  0
 38 39  1  0
 40 39  2  0
 41 40  1  0
 42 16  1  0
 42 43  1  0
 42 52  1  0
 43 46  1  0
 44 48  1  0
 44 43  1  0
 45 44  2  0
 48 47  1  0
 50 48  1  0
 50 51  1  0
 50 49  1  0
 52 55  1  1
 52 53  1  0
 54 52  1  0
 56 57  1  0
 57 58  1  0
 58 59  1  0
 59 60  1  0
 61 69  1  0
 62 67  1  0
 63 64  1  0
 63 62  1  0
 65 64  1  0
 65 74  1  0
 65 66  1  0
 67 61  1  0
 67 66  1  0
 68 61  2  0
 69 70  1  0
 69 60  1  0
 71 72  2  0
 72 91  1  0
 73 76  1  0
 73 72  1  0
 74 75  1  0
 74 71  1  0
 75 73  2  0
 76 77  1  0
 77 78  2  0
 79 78  1  0
 80 79  2  0
 81 80  1  0
 81 76  2  0
 82 79  1  0
 82 83  1  0
 83 84  1  0
 84 85  2  0
 86 85  1  0
 86 90  1  0
 87 86  2  0
 88 83  2  0
 88 87  1  0
 89 88  1  0
 91 92  1  0
 92 95  1  0
 92 94  1  0
 93 91  2  0
 96 71  1  0
 96 97  1  0
 98 96  1  0
M  ISO  4  14 101  15 101  61 100  69 100
M  END
>  <TORSDO>  (88) 
F 23

>  <SCORE>  (88) 
-8.268

>  <name>  (88) 
88

>  <ligand_id>  (88) 
88

>  <original_smiles>  (88) 
[H]c1c([H])c([H])c2c(c1[H])C([H])([H])C([H])([H])C([H])([H])C2([H])N([H])C(=O)C1([H])N(C(=O)C([H])(N([H])C(=O)C([H])(N([H])C([H])([H])[H])C([H])([H])[H])C(C([H])([H])[H])(C([H])([H])[H])C([H])([H])[H])C([H])([H])c2c([H])c(OC([H])([H])C3(C([H])([H])[H])C([H])([H])C([H])([H])C([H])(c4c([H])c(C([H])([H])[H])c([H])c(C([H])([H])C([H])([H])C([H])([H])C([H])([H])C([H])([H])N([H])C(=O)N5C([H])([H])C([H])([H])C([H])([H])C([H])(n6nc(-c7c([H])c([H])c(Oc8c([H])c([H])c(F)c([H])c8F)c([H])c7[H])c(C(=O)N([H])[H])c6N([H])[H])C5([H])[H])c4[H])C3([H])[H])c([H])c([H])c2C1([H])[H]

>  <smiles>  (88) 
[H]c1c([H])c([H])c2c(c1[H])C([H])([H])C([H])([H])C([H])([H])C2([H])N([H])C(=O)C1([H])N(C(=O)C([H])(N([H])C(=O)C([H])(N([H])C([H])([H])[H])C([H])([H])[H])C(C([H])([H])[H])(C([H])([H])[H])C([H])([H])[H])C([H])([H])c2c([H])c(OC([H])([H])C3(C([H])([H])[H])C([H])([H])C([H])([H])C([H])(c4c([H])c(C([H])([H])[H])c([H])c(C([H])([H])C([H])([H])C([H])([H])C([H])([H])C([H])([H])N([H])C(=O)N5C([H])([H])C([H])([H])C([H])([H])C([H])(n6nc(-c7c([H])c([H])c(Oc8c([H])c([H])c(F)c([H])c8F)c([H])c7[H])c(C(=O)N([H])[H])c6N([H])[H])C5([H])[H])c4[H])C3([H])[H])c([H])c([H])c2C1([H])[H]

$$$$
89:0:0
     RDKit          3D

 98107  0  0  1  0  0  0  0  0999 V2000
  -33.8930  -26.0090   20.0110 C   0  0  0  0  0  2  0  0  0  0  0  0
  -32.9170  -25.1720   17.8170 C   0  0  0  0  0  2  0  0  0  0  0  0
  -32.6290  -26.8550   20.2950 C   0  0  0  0  0  2  0  0  0  0  0  0
  -32.2070  -26.5330   17.8920 C   0  0  0  0  0  2  0  0  0  0  0  0
  -33.6380  -24.7660   19.1280 C   0  0  0  0  0  3  0  0  0  0  0  0
  -31.5990  -26.7250   19.2320 N   0  0  2  0  0  4  0  0  0  0  0  0
  -31.1080  -25.8690   19.4530 H   0  0  0  0  0  0  0  0  0  0  0  0
  -32.8980  -23.6320   19.8750 C   0  0  0  0  0  2  0  0  0  0  0  0
  -33.0220  -22.2790   19.1520 C   0  0  0  0  0  2  0  0  0  0  0  0
  -32.5330  -20.5840   20.9810 C   0  0  0  0  0  3  0  0  0  0  0  0
  -31.0230  -20.7200   19.0740 C   0  0  0  0  0  3  0  0  0  0  0  0
  -31.7850  -19.5080   21.4950 C   0  0  0  0  0  3  0  0  0  0  0  0
  -30.2800  -19.6380   19.5810 C   0  0  0  0  0  3  0  0  0  0  0  0
  -32.1650  -21.1830   19.7590 C   0  0  0  0  0  0  0  0  0  0  0  0
  -30.6740  -19.0120   20.7810 C   0  0  0  0  0  0  0  0  0  0  0  0
  -30.0310  -17.7020   21.1960 C   0  0  0  0  0  2  0  0  0  0  0  0
  -30.9440  -16.5800   20.6880 C   0  0  0  0  0  2  0  0  0  0  0  0
  -30.7620  -14.3090   19.9230 C   0  0  0  0  0  0  0  0  0  0  0  0
  -30.1920  -12.2740   18.6650 C   0  0  0  0  0  2  0  0  0  0  0  0
  -29.1660  -12.5830   17.5620 C   0  0  0  0  0  2  0  0  0  0  0  0
  -27.7390  -12.4220   18.1130 C   0  0  0  0  0  2  0  0  0  0  0  0
  -27.5290  -13.2080   19.4340 C   0  0  0  0  0  3  0  0  0  0  0  0
  -28.6740  -12.9480   20.4370 C   0  0  0  0  0  2  0  0  0  0  0  0
  -29.9660  -13.2140   19.7770 N   0  0  0  0  0  0  0  0  0  0  0  0
  -31.6910  -14.5390   19.1390 O   0  0  0  0  0  0  0  0  0  0  0  0
  -30.5170  -14.7970   22.3060 C   0  0  0  0  0  1  0  0  0  0  0  0
  -30.4610  -15.2040   20.8970 N   0  0  0  0  0  0  0  0  0  0  0  0
  -25.1990  -13.7850   20.3640 C   0  0  0  0  0  0  0  0  0  0  0  0
  -24.1730  -12.9970   20.8160 C   0  0  0  0  0  0  0  0  0  0  0  0
  -24.6380  -11.6500   20.7220 C   0  0  0  0  0  0  0  0  0  0  0  0
  -26.2250  -12.9150   20.0260 N   0  0  0  0  0  0  0  0  0  0  0  0
  -25.8950  -11.6260   20.2970 N   0  0  0  0  0  0  0  0  0  0  0  0
  -23.9410  -10.3790   20.9570 C   0  0  0  0  0  0  0  0  0  0  0  0
  -24.4280   -9.4280   21.8790 C   0  0  0  0  0  3  0  0  0  0  0  0
  -23.7300   -8.2210   22.0990 C   0  0  0  0  0  3  0  0  0  0  0  0
  -22.5300   -7.9580   21.3960 C   0  0  0  0  0  0  0  0  0  0  0  0
  -22.0620   -8.8980   20.4600 C   0  0  0  0  0  3  0  0  0  0  0  0
  -22.7620  -10.0960   20.2390 C   0  0  0  0  0  3  0  0  0  0  0  0
  -21.7960   -6.8030   21.5260 O   0  0  0  0  0  0  0  0  0  0  0  0
  -21.7720   -6.0950   22.7010 C   0  0  0  0  0  0  0  0  0  0  0  0
  -21.3410   -6.6760   23.9130 C   0  0  0  0  0  3  0  0  0  0  0  0
  -21.2670   -5.8920   25.0820 C   0  0  0  0  0  3  0  0  0  0  0  0
  -21.6120   -4.5280   25.0400 C   0  0  0  0  0  0  0  0  0  0  0  0
  -22.0350   -3.9470   23.8310 C   0  0  0  0  0  3  0  0  0  0  0  0
  -22.1120   -4.7270   22.6640 C   0  0  0  0  0  0  0  0  0  0  0  0
  -22.5000   -4.1570   21.4990 F   0  0  0  0  0  0  0  0  0  0  0  0
  -21.5330   -3.7720   26.1590 F   0  0  0  0  0  0  0  0  0  0  0  0
  -22.8040  -13.4600   21.2240 C   0  0  0  0  0  0  0  0  0  0  0  0
  -22.1760  -12.7610   22.1640 N   0  0  0  0  0  0  0  0  0  0  0  0
  -22.3040  -14.4760   20.7460 O   0  0  0  0  0  0  0  0  0  0  0  0
  -22.5960  -11.9390   22.5710 H   0  0  0  0  0  0  0  0  0  0  0  0
  -21.2640  -13.0550   22.4820 H   0  0  0  0  0  0  0  0  0  0  0  0
  -25.3430  -15.1590   20.1960 N   0  0  0  0  0  0  0  0  0  0  0  0
  -24.5930  -15.8160   20.3800 H   0  0  0  0  0  0  0  0  0  0  0  0
  -26.1730  -15.6020   19.8230 H   0  0  0  0  0  0  0  0  0  0  0  0
  -30.5600  -27.7820   19.2570 C   0  0  0  0  0  2  0  0  0  0  0  0
  -29.1880  -27.2200   18.8480 C   0  0  0  0  0  2  0  0  0  0  0  0
  -28.4640  -26.8240   20.0140 O   0  0  0  0  0  0  0  0  0  0  0  0
  -24.6700  -31.9220   23.2390 C   0  0  0  0  0  0  0  0  0  0  0  0
  -27.2850  -27.5090   20.1350 C   0  0  0  0  0  0  0  0  0  0  0  0
  -23.4500  -30.5210   21.6020 C   0  0  0  0  0  3  0  0  0  0  0  0
  -24.8910  -28.9810   20.1730 C   0  0  0  0  0  0  0  0  0  0  0  0
  -25.9700  -30.8860   21.3890 C   0  0  0  0  0  2  0  0  0  0  0  0
  -26.0480  -29.5120   20.7580 C   0  0  0  0  0  0  0  0  0  0  0  0
  -27.2500  -28.7770   20.7480 C   0  0  0  0  0  3  0  0  0  0  0  0
  -26.1140  -26.9700   19.5690 C   0  0  0  0  0  3  0  0  0  0  0  0
  -24.9140  -27.7050   19.5820 C   0  0  0  0  0  3  0  0  0  0  0  0
  -23.6490  -29.8410   20.2210 C   0  0  0  0  0  2  0  0  0  0  0  0
  -24.7140  -31.1260   22.1340 N   0  0  0  0  0  0  0  0  0  0  0  0
  -23.5940  -32.1980   23.7860 O   0  0  0  0  0  0  0  0  0  0  0  0
  -22.8030  -29.5010   22.5660 C   0  0  0  0  0  0  0  0  0  0  0  0
  -21.4790  -29.3180   22.4390 N   0  0  0  0  0  0  0  0  0  0  0  0
  -23.4880  -28.8760   23.3800 O   0  0  0  0  0  0  0  0  0  0  0  0
  -20.9920  -29.8650   21.7420 H   0  0  0  0  0  0  0  0  0  0  0  0
  -18.1040  -28.1340   22.9340 C   0  0  0  0  0  0  0  0  0  0  0  0
  -20.6610  -28.3850   23.2110 C   0  0  0  0  0  3  0  0  0  0  0  0
  -20.7620  -26.9530   22.6370 C   0  0  0  0  0  2  0  0  0  0  0  0
  -19.6610  -26.6320   21.6220 C   0  0  0  0  0  2  0  0  0  0  0  0
  -18.2780  -26.7820   22.2610 C   0  0  0  0  0  2  0  0  0  0  0  0
  -19.2220  -28.8930   23.3640 C   0  0  0  0  0  0  0  0  0  0  0  0
  -19.0070  -30.1600   23.9510 C   0  0  0  0  0  3  0  0  0  0  0  0
  -17.7040  -30.6640   24.1130 C   0  0  0  0  0  3  0  0  0  0  0  0
  -16.5990  -29.9000   23.7020 C   0  0  0  0  0  3  0  0  0  0  0  0
  -16.7980  -28.6380   23.1170 C   0  0  0  0  0  3  0  0  0  0  0  0
  -25.9660  -32.5450   23.8510 C   0  0  0  0  0  3  0  0  0  0  0  0
  -25.6720  -33.9460   24.1780 N   0  0  0  0  0  0  0  0  0  0  0  0
  -26.0200  -34.9920   23.4150 C   0  0  0  0  0  0  0  0  0  0  0  0
  -26.6970  -34.8800   22.3890 O   0  0  0  0  0  0  0  0  0  0  0  0
  -25.0750  -34.1100   24.9730 H   0  0  0  0  0  0  0  0  0  0  0  0
  -24.3200  -36.8010   23.0280 C   0  0  0  0  0  1  0  0  0  0  0  0
  -25.5400  -36.3840   23.8650 C   0  0  0  0  0  3  0  0  0  0  0  0
  -27.6650  -37.2400   24.7420 C   0  0  0  0  0  1  0  0  0  0  0  0
  -26.5870  -37.4240   23.7750 N   0  0  0  0  0  0  0  0  0  0  0  0
  -26.1890  -38.3480   23.9210 H   0  0  0  0  0  0  0  0  0  0  0  0
  -26.4890  -31.7680   25.1220 C   0  0  1  0  0  0  0  0  0  0  0  0
  -25.4010  -31.5350   26.1950 C   0  0  0  0  0  1  0  0  0  0  0  0
  -27.0610  -30.3860   24.7240 C   0  0  0  0  0  1  0  0  0  0  0  0
  -27.6500  -32.5560   25.7770 C   0  0  0  0  0  1  0  0  0  0  0  0
  1  3  1  0
  2  4  1  0
  2  5  1  0
  4  6  1  0
  5  8  1  0
  5  1  1  0
  6 56  1  0
  6  7  1  1
  6  3  1  0
  9 14  1  0
  9  8  1  0
 10 12  1  0
 11 13  2  0
 11 14  1  0
 13 15  1  0
 14 10  2  0
 15 16  1  0
 15 12  2  0
 17 27  1  0
 17 16  1  0
 18 27  1  0
 19 24  1  0
 20 21  1  0
 20 19  1  0
 22 21  1  0
 22 31  1  0
 22 23  1  0
 24 18  1  0
 24 23  1  0
 25 18  2  0
 27 26  1  0
 28 29  2  0
 29 48  1  0
 30 29  1  0
 30 33  1  0
 31 32  1  0
 31 28  1  0
 32 30  2  0
 33 34  1  0
 34 35  2  0
 36 39  1  0
 36 35  1  0
 37 36  2  0
 38 37  1  0
 38 33  2  0
 39 40  1  0
 40 41  1  0
 41 42  2  0
 43 42  1  0
 43 47  1  0
 44 43  2  0
 45 40  2  0
 45 44  1  0
 46 45  1  0
 48 49  1  0
 49 52  1  0
 49 51  1  0
 50 48  2  0
 53 28  1  0
 53 54  1  0
 55 53  1  0
 57 56  1  0
 57 58  1  0
 58 60  1  0
 59 70  2  0
 60 65  1  0
 61 69  1  0
 61 71  1  0
 62 68  1  0
 62 64  1  0
 63 69  1  0
 64 63  1  0
 65 64  2  0
 66 67  1  0
 66 60  2  0
 67 62  2  0
 68 61  1  0
 69 59  1  0
 71 73  2  0
 72 71  1  0
 74 72  1  0
 75 84  2  0
 75 80  1  0
 76 72  1  0
 76 80  1  0
 77 76  1  0
 78 79  1  0
 78 77  1  0
 79 75  1  0
 80 81  2  0
 81 82  1  0
 83 82  2  0
 84 83  1  0
 85 59  1  0
 85 86  1  0
 85 95  1  0
 86 89  1  0
 87 91  1  0
 87 86  1  0
 88 87  2  0
 91 90  1  0
 93 91  1  0
 93 94  1  0
 93 92  1  0
 95 98  1  1
 95 96  1  0
 97 95  1  0
M  ISO  4  18 100  27 100  57 101  58 101
M  END
>  <TORSDO>  (89) 
F 23

>  <SCORE>  (89) 
-11.564

>  <name>  (89) 
89

>  <ligand_id>  (89) 
89

>  <original_smiles>  (89) 
[H]c1c([H])c([H])c2c(c1[H])C([H])([H])C([H])([H])C([H])([H])C2([H])N([H])C(=O)C1([H])N(C(=O)C([H])(N([H])C(=O)C([H])(N([H])C([H])([H])[H])C([H])([H])[H])C(C([H])([H])[H])(C([H])([H])[H])C([H])([H])[H])C([H])([H])c2c([H])c(OC([H])([H])C([H])([H])[N+]3([H])C([H])([H])C([H])([H])C([H])(C([H])([H])C([H])([H])c4c([H])c([H])c(C([H])([H])C([H])([H])N(C(=O)N5C([H])([H])C([H])([H])C([H])([H])C([H])(n6nc(-c7c([H])c([H])c(Oc8c([H])c([H])c(F)c([H])c8F)c([H])c7[H])c(C(=O)N([H])[H])c6N([H])[H])C5([H])[H])C([H])([H])[H])c([H])c4[H])C([H])([H])C3([H])[H])c([H])c([H])c2C1([H])[H]

>  <smiles>  (89) 
[H]c1c([H])c([H])c2c(c1[H])C([H])([H])C([H])([H])C([H])([H])C2([H])N([H])C(=O)C1([H])N(C(=O)C([H])(N([H])C(=O)C([H])(N([H])C([H])([H])[H])C([H])([H])[H])C(C([H])([H])[H])(C([H])([H])[H])C([H])([H])[H])C([H])([H])c2c([H])c(OC([H])([H])C([H])([H])[N+]3([H])C([H])([H])C([H])([H])C([H])(C([H])([H])C([H])([H])c4c([H])c([H])c(C([H])([H])C([H])([H])N(C(=O)N5C([H])([H])C([H])([H])C([H])([H])C([H])(n6nc(-c7c([H])c([H])c(Oc8c([H])c([H])c(F)c([H])c8F)c([H])c7[H])c(C(=O)N([H])[H])c6N([H])[H])C5([H])[H])C([H])([H])[H])c([H])c4[H])C([H])([H])C3([H])[H])c([H])c([H])c2C1([H])[H]

$$$$
90:0:0
     RDKit          3D

 96105  0  0  1  0  0  0  0  0999 V2000
  -28.5020  -21.3070   21.4600 C   0  0  0  0  0  3  0  0  0  0  0  0
  -30.7740  -21.8280   20.7700 C   0  0  0  0  0  3  0  0  0  0  0  0
  -28.9580  -20.1160   22.0590 C   0  0  0  0  0  3  0  0  0  0  0  0
  -31.2290  -20.6430   21.3720 C   0  0  0  0  0  3  0  0  0  0  0  0
  -29.4060  -22.1800   20.8160 C   0  0  0  0  0  0  0  0  0  0  0  0
  -30.3270  -19.7760   22.0160 C   0  0  0  0  0  0  0  0  0  0  0  0
  -28.9110  -23.4580   20.2770 C   0  0  0  0  0  3  0  0  0  0  0  0
  -29.7000  -24.4960   19.9220 C   0  0  0  0  0  3  0  0  0  0  0  0
  -29.1980  -25.7800   19.4120 C   0  0  0  0  0  0  0  0  0  0  0  0
  -29.8730  -26.8070   19.5160 O   0  0  0  0  0  0  0  0  0  0  0  0
  -27.8190  -25.8460   18.7460 C   0  0  0  0  0  2  0  0  0  0  0  0
  -27.6250  -27.1340   18.1580 O   0  0  0  0  0  0  0  0  0  0  0  0
  -25.1810  -30.8030   23.7300 C   0  0  0  0  0  0  0  0  0  0  0  0
  -26.5890  -27.8560   18.6920 C   0  0  0  0  0  0  0  0  0  0  0  0
  -23.5270  -30.3050   21.9560 C   0  0  0  0  0  3  0  0  0  0  0  0
  -24.4850  -29.3820   19.7830 C   0  0  0  0  0  0  0  0  0  0  0  0
  -26.0170  -30.5130   21.4050 C   0  0  0  0  0  2  0  0  0  0  0  0
  -25.7860  -29.5270   20.2810 C   0  0  0  0  0  0  0  0  0  0  0  0
  -26.8430  -28.7690   19.7360 C   0  0  0  0  0  3  0  0  0  0  0  0
  -25.2740  -27.7220   18.1920 C   0  0  0  0  0  3  0  0  0  0  0  0
  -24.2210  -28.4760   18.7400 C   0  0  0  0  0  3  0  0  0  0  0  0
  -23.4120  -30.2400   20.4100 C   0  0  0  0  0  2  0  0  0  0  0  0
  -24.9360  -30.5300   22.4170 N   0  0  0  0  0  0  0  0  0  0  0  0
  -24.2550  -30.9140   24.5460 O   0  0  0  0  0  0  0  0  0  0  0  0
  -22.8840  -29.0300   22.5490 C   0  0  0  0  0  0  0  0  0  0  0  0
  -21.5750  -28.8540   22.3070 N   0  0  0  0  0  0  0  0  0  0  0  0
  -23.5600  -28.2180   23.1880 O   0  0  0  0  0  0  0  0  0  0  0  0
  -21.0860  -29.5780   21.7970 H   0  0  0  0  0  0  0  0  0  0  0  0
  -18.3490  -27.2800   21.9280 C   0  0  0  0  0  0  0  0  0  0  0  0
  -20.7640  -27.7150   22.7380 C   0  0  0  0  0  3  0  0  0  0  0  0
  -21.1440  -26.4330   21.9630 C   0  0  0  0  0  2  0  0  0  0  0  0
  -20.2930  -26.2100   20.7080 C   0  0  0  0  0  2  0  0  0  0  0  0
  -18.8080  -26.1110   21.0710 C   0  0  0  0  0  2  0  0  0  0  0  0
  -19.2690  -28.0450   22.6920 C   0  0  0  0  0  0  0  0  0  0  0  0
  -18.7940  -29.1490   23.4300 C   0  0  0  0  0  3  0  0  0  0  0  0
  -17.4280  -29.4880   23.4190 C   0  0  0  0  0  3  0  0  0  0  0  0
  -16.5180  -28.7150   22.6770 C   0  0  0  0  0  3  0  0  0  0  0  0
  -16.9770  -27.6110   21.9380 C   0  0  0  0  0  3  0  0  0  0  0  0
  -26.6330  -31.0120   24.2670 C   0  0  0  0  0  3  0  0  0  0  0  0
  -26.6930  -32.3480   24.8750 N   0  0  0  0  0  0  0  0  0  0  0  0
  -27.4590  -33.3520   24.4270 C   0  0  0  0  0  0  0  0  0  0  0  0
  -28.2560  -33.2220   23.4950 O   0  0  0  0  0  0  0  0  0  0  0  0
  -26.0310  -32.5410   25.6120 H   0  0  0  0  0  0  0  0  0  0  0  0
  -26.6300  -35.7110   24.1770 C   0  0  0  0  0  1  0  0  0  0  0  0
  -27.3170  -34.7170   25.1250 C   0  0  0  0  0  3  0  0  0  0  0  0
  -29.2000  -34.5270   26.6890 C   0  0  0  0  0  1  0  0  0  0  0  0
  -28.6030  -35.2790   25.5890 N   0  0  0  0  0  0  0  0  0  0  0  0
  -28.4870  -36.2440   25.8910 H   0  0  0  0  0  0  0  0  0  0  0  0
  -27.0840  -29.9040   25.2970 C   0  0  1  0  0  0  0  0  0  0  0  0
  -26.0750  -29.6720   26.4440 C   0  0  0  0  0  1  0  0  0  0  0  0
  -27.3020  -28.5500   24.5840 C   0  0  0  0  0  1  0  0  0  0  0  0
  -28.4400  -30.2990   25.9290 C   0  0  0  0  0  1  0  0  0  0  0  0
  -30.8520  -18.5020   22.6590 C   0  0  0  0  0  2  0  0  0  0  0  0
  -30.3740  -17.1900   22.0100 C   0  0  0  0  0  2  0  0  0  0  0  0
  -32.1580  -12.8590   19.0280 C   0  0  0  0  0  0  0  0  0  0  0  0
  -31.1400  -10.6470   18.6220 C   0  0  0  0  0  2  0  0  0  0  0  0
  -30.0260  -10.7060   17.5610 C   0  0  0  0  0  2  0  0  0  0  0  0
  -28.6740  -11.0810   18.1960 C   0  0  0  0  0  2  0  0  0  0  0  0
  -28.7750  -12.3330   19.1030 C   0  0  0  0  0  3  0  0  0  0  0  0
  -29.9600  -12.1950   20.0780 C   0  0  0  0  0  2  0  0  0  0  0  0
  -31.1970  -11.9410   19.3150 N   0  0  0  0  0  0  0  0  0  0  0  0
  -32.9800  -12.7160   18.1150 O   0  0  0  0  0  0  0  0  0  0  0  0
  -31.2620  -16.2350   19.8040 C   0  0  0  0  0  2  0  0  0  0  0  0
  -31.6070  -14.9600   21.9840 C   0  0  0  0  0  2  0  0  0  0  0  0
  -32.2800  -15.2920   19.1550 C   0  0  0  0  0  2  0  0  0  0  0  0
  -32.5040  -13.9850   21.1910 C   0  0  0  0  0  2  0  0  0  0  0  0
  -31.4870  -16.3550   21.3290 C   0  0  0  0  0  3  0  0  0  0  0  0
  -32.1220  -13.9810   19.7730 N   0  0  0  0  0  0  0  0  0  0  0  0
  -26.9380  -13.7890   20.1820 C   0  0  0  0  0  0  0  0  0  0  0  0
  -25.7430  -13.4650   20.7690 C   0  0  0  0  0  0  0  0  0  0  0  0
  -25.6570  -12.0400   20.7260 C   0  0  0  0  0  0  0  0  0  0  0  0
  -27.5230  -12.5830   19.8190 N   0  0  0  0  0  0  0  0  0  0  0  0
  -26.7610  -11.5260   20.1990 N   0  0  0  0  0  0  0  0  0  0  0  0
  -24.5620  -11.1360   21.1020 C   0  0  0  0  0  0  0  0  0  0  0  0
  -24.8060   -9.9140   21.7650 C   0  0  0  0  0  3  0  0  0  0  0  0
  -23.7350   -9.0710   22.1320 C   0  0  0  0  0  3  0  0  0  0  0  0
  -22.4030   -9.4480   21.8390 C   0  0  0  0  0  0  0  0  0  0  0  0
  -22.1660  -10.6560   21.1580 C   0  0  0  0  0  3  0  0  0  0  0  0
  -23.2350  -11.4910   20.7890 C   0  0  0  0  0  3  0  0  0  0  0  0
  -21.3010   -8.6820   22.1340 O   0  0  0  0  0  0  0  0  0  0  0  0
  -21.3710   -7.6270   23.0070 C   0  0  0  0  0  0  0  0  0  0  0  0
  -21.7130   -7.8040   24.3650 C   0  0  0  0  0  3  0  0  0  0  0  0
  -21.7050   -6.7020   25.2430 C   0  0  0  0  0  3  0  0  0  0  0  0
  -21.3470   -5.4250   24.7680 C   0  0  0  0  0  0  0  0  0  0  0  0
  -21.0000   -5.2490   23.4170 C   0  0  0  0  0  3  0  0  0  0  0  0
  -21.0090   -6.3470   22.5400 C   0  0  0  0  0  0  0  0  0  0  0  0
  -20.6530   -6.1740   21.2440 F   0  0  0  0  0  0  0  0  0  0  0  0
  -21.3320   -4.3680   25.6130 F   0  0  0  0  0  0  0  0  0  0  0  0
  -24.6960  -14.4240   21.2550 C   0  0  0  0  0  0  0  0  0  0  0  0
  -23.9810  -14.0630   22.3170 N   0  0  0  0  0  0  0  0  0  0  0  0
  -24.5370  -15.5210   20.7240 O   0  0  0  0  0  0  0  0  0  0  0  0
  -24.1250  -13.1710   22.7640 H   0  0  0  0  0  0  0  0  0  0  0  0
  -23.2800  -14.6890   22.6870 H   0  0  0  0  0  0  0  0  0  0  0  0
  -27.5620  -15.0010   19.9080 N   0  0  0  0  0  0  0  0  0  0  0  0
  -27.1230  -15.8920   20.1160 H   0  0  0  0  0  0  0  0  0  0  0  0
  -28.4420  -15.0970   19.4170 H   0  0  0  0  0  0  0  0  0  0  0  0
  1  3  1  0
  2  5  1  0
  2  4  2  0
  4  6  1  0
  5  1  2  0
  6  3  2  0
  6 53  1  0
  7  5  1  0
  8  7  2  0
  9 10  2  0
  9  8  1  0
 11  9  1  0
 12 14  1  0
 12 11  1  0
 13 24  2  0
 14 19  1  0
 15 23  1  0
 15 25  1  0
 16 18  1  0
 16 22  1  0
 17 23  1  0
 18 17  1  0
 19 18  2  0
 20 14  2  0
 20 21  1  0
 21 16  2  0
 22 15  1  0
 23 13  1  0
 25 27  2  0
 26 25  1  0
 28 26  1  0
 29 38  2  0
 29 34  1  0
 30 26  1  0
 31 30  1  0
 32 33  1  0
 32 31  1  0
 33 29  1  0
 34 30  1  0
 34 35  2  0
 36 35  1  0
 37 36  2  0
 38 37  1  0
 39 13  1  0
 39 40  1  0
 39 49  1  0
 40 43  1  0
 41 40  1  0
 41 45  1  0
 42 41  2  0
 45 44  1  0
 45 47  1  0
 47 48  1  0
 47 46  1  0
 49 52  1  1
 49 50  1  0
 51 49  1  0
 54 53  1  0
 55 61  1  0
 55 68  1  0
 56 61  1  0
 57 58  1  0
 57 56  1  0
 59 58  1  0
 59 72  1  0
 59 60  1  0
 61 60  1  0
 62 55  2  0
 63 67  1  0
 65 68  1  0
 65 63  1  0
 66 64  1  0
 67 64  1  0
 67 54  1  0
 68 66  1  0
 69 70  2  0
 70 89  1  0
 71 70  1  0
 71 74  1  0
 72 69  1  0
 72 73  1  0
 73 71  2  0
 74 75  1  0
 75 76  2  0
 77 76  1  0
 77 80  1  0
 78 77  2  0
 79 74  2  0
 79 78  1  0
 80 81  1  0
 81 82  1  0
 82 83  2  0
 84 83  1  0
 84 88  1  0
 85 84  2  0
 86 81  2  0
 86 85  1  0
 87 86  1  0
 89 90  1  0
 90 93  1  0
 90 92  1  0
 91 89  2  0
 94 95  1  0
 94 69  1  0
 96 94  1  0
M  ISO  4  11 101  12 101  55 100  68 100
M  END
>  <TORSDO>  (90) 
F 21

>  <SCORE>  (90) 
-5.717

>  <name>  (90) 
90

>  <ligand_id>  (90) 
90

>  <original_smiles>  (90) 
[H]C(C(=O)C([H])([H])Oc1c([H])c([H])c2c(c1[H])C([H])([H])N(C(=O)C([H])(N([H])C(=O)C([H])(N([H])C([H])([H])[H])C([H])([H])[H])C(C([H])([H])[H])(C([H])([H])[H])C([H])([H])[H])C([H])(C(=O)N([H])C1([H])c3c([H])c([H])c([H])c([H])c3C([H])([H])C([H])([H])C1([H])[H])C2([H])[H])=C([H])c1c([H])c([H])c(C([H])([H])C([H])([H])C2([H])C([H])([H])C([H])([H])N(C(=O)N3C([H])([H])C([H])([H])C([H])([H])C([H])(n4nc(-c5c([H])c([H])c(Oc6c([H])c([H])c(F)c([H])c6F)c([H])c5[H])c(C(=O)N([H])[H])c4N([H])[H])C3([H])[H])C([H])([H])C2([H])[H])c([H])c1[H]

>  <smiles>  (90) 
[H]C(C(=O)C([H])([H])Oc1c([H])c([H])c2c(c1[H])C([H])([H])N(C(=O)C([H])(N([H])C(=O)C([H])(N([H])C([H])([H])[H])C([H])([H])[H])C(C([H])([H])[H])(C([H])([H])[H])C([H])([H])[H])C([H])(C(=O)N([H])C1([H])c3c([H])c([H])c([H])c([H])c3C([H])([H])C([H])([H])C1([H])[H])C2([H])[H])=C([H])c1c([H])c([H])c(C([H])([H])C([H])([H])C2([H])C([H])([H])C([H])([H])N(C(=O)N3C([H])([H])C([H])([H])C([H])([H])C([H])(n4nc(-c5c([H])c([H])c(Oc6c([H])c([H])c(F)c([H])c6F)c([H])c5[H])c(C(=O)N([H])[H])c4N([H])[H])C3([H])[H])C([H])([H])C2([H])[H])c([H])c1[H]

$$$$
91:0:0
     RDKit          3D

104113  0  0  1  0  0  0  0  0999 V2000
  -22.6660  -23.3970   25.1220 C   0  0  0  0  0  2  0  0  0  0  0  0
  -23.4260  -22.3740   24.7300 C   0  0  0  0  0  2  0  0  0  0  0  0
  -24.9180  -24.0130   25.5630 C   0  0  0  0  0  2  0  0  0  0  0  0
  -23.4770  -24.5810   25.5620 C   0  0  0  0  0  3  0  0  0  0  0  0
  -24.9150  -22.6660   24.7700 C   0  0  1  0  0  0  0  0  0  0  0  0
  -23.2710  -25.7780   24.6260 C   0  0  0  0  0  1  0  0  0  0  0  0
  -27.8870  -20.8750   26.4490 C   0  0  0  0  0  3  0  0  0  0  0  0
  -26.2760  -19.1940   25.7500 C   0  0  0  0  0  3  0  0  0  0  0  0
  -26.9990  -21.8880   26.0430 C   0  0  0  0  0  3  0  0  0  0  0  0
  -25.3860  -20.2080   25.3460 C   0  0  0  0  0  3  0  0  0  0  0  0
  -27.5570  -19.5170   26.2590 C   0  0  0  0  0  0  0  0  0  0  0  0
  -25.7550  -21.5680   25.4480 C   0  0  0  0  0  0  0  0  0  0  0  0
  -28.5700  -18.4640   26.5590 C   0  0  0  0  0  0  0  0  0  0  0  0
  -29.0400  -18.2720   27.6860 O   0  0  0  0  0  0  0  0  0  0  0  0
  -29.0640  -17.6380   25.3680 C   0  0  0  0  0  2  0  0  0  0  0  0
  -30.4790  -17.9710   24.8680 C   0  0  0  0  0  2  0  0  0  0  0  0
  -30.5650  -17.6690   23.3700 C   0  0  0  0  0  2  0  0  0  0  0  0
  -31.8920  -17.0590   22.9030 C   0  0  0  0  0  2  0  0  0  0  0  0
  -31.6890  -15.8010   20.7300 C   0  0  0  0  0  0  0  0  0  0  0  0
  -31.1260  -14.2990   18.8540 C   0  0  0  0  0  2  0  0  0  0  0  0
  -29.9680  -14.8480   18.0030 C   0  0  0  0  0  2  0  0  0  0  0  0
  -28.6070  -14.4290   18.5870 C   0  0  0  0  0  2  0  0  0  0  0  0
  -28.5000  -14.7440   20.1020 C   0  0  0  0  0  3  0  0  0  0  0  0
  -29.7390  -14.2140   20.8570 C   0  0  0  0  0  2  0  0  0  0  0  0
  -30.9600  -14.7710   20.2320 N   0  0  0  0  0  0  0  0  0  0  0  0
  -32.4680  -16.4940   20.0680 O   0  0  0  0  0  0  0  0  0  0  0  0
  -31.5480  -15.9350   22.0490 N   0  0  0  0  0  0  0  0  0  0  0  0
  -30.9970  -15.2090   22.4810 H   0  0  0  0  0  0  0  0  0  0  0  0
  -26.1420  -14.9020   21.1340 C   0  0  0  0  0  0  0  0  0  0  0  0
  -25.2400  -13.9390   21.5010 C   0  0  0  0  0  0  0  0  0  0  0  0
  -25.8670  -12.6870   21.2310 C   0  0  0  0  0  0  0  0  0  0  0  0
  -27.2600  -14.2200   20.6740 N   0  0  0  0  0  0  0  0  0  0  0  0
  -27.1020  -12.8760   20.7820 N   0  0  0  0  0  0  0  0  0  0  0  0
  -25.3450  -11.3160   21.3180 C   0  0  0  0  0  0  0  0  0  0  0  0
  -25.7390  -10.4400   22.3540 C   0  0  0  0  0  3  0  0  0  0  0  0
  -25.2110   -9.1330   22.4250 C   0  0  0  0  0  3  0  0  0  0  0  0
  -24.2790   -8.6920   21.4560 C   0  0  0  0  0  0  0  0  0  0  0  0
  -23.9070   -9.5590   20.4140 C   0  0  0  0  0  3  0  0  0  0  0  0
  -24.4370  -10.8590   20.3420 C   0  0  0  0  0  3  0  0  0  0  0  0
  -23.7300   -7.4310   21.4310 O   0  0  0  0  0  0  0  0  0  0  0  0
  -22.7670   -7.0470   22.3280 C   0  0  0  0  0  0  0  0  0  0  0  0
  -21.6800   -7.8860   22.6600 C   0  0  0  0  0  3  0  0  0  0  0  0
  -20.6770   -7.4230   23.5340 C   0  0  0  0  0  3  0  0  0  0  0  0
  -20.7500   -6.1220   24.0660 C   0  0  0  0  0  0  0  0  0  0  0  0
  -21.8280   -5.2840   23.7320 C   0  0  0  0  0  3  0  0  0  0  0  0
  -22.8310   -5.7440   22.8630 C   0  0  0  0  0  0  0  0  0  0  0  0
  -23.8570   -4.9240   22.5270 F   0  0  0  0  0  0  0  0  0  0  0  0
  -19.7810   -5.6750   24.8980 F   0  0  0  0  0  0  0  0  0  0  0  0
  -23.8350  -14.1660   21.9850 C   0  0  0  0  0  0  0  0  0  0  0  0
  -23.3500  -13.3120   22.8800 N   0  0  0  0  0  0  0  0  0  0  0  0
  -23.1770  -15.1330   21.6070 O   0  0  0  0  0  0  0  0  0  0  0  0
  -23.8970  -12.5280   23.2060 H   0  0  0  0  0  0  0  0  0  0  0  0
  -22.4160  -13.4400   23.2410 H   0  0  0  0  0  0  0  0  0  0  0  0
  -26.1010  -16.2920   21.1390 N   0  0  0  0  0  0  0  0  0  0  0  0
  -25.2790  -16.8100   21.4290 H   0  0  0  0  0  0  0  0  0  0  0  0
  -26.8480  -16.8910   20.8100 H   0  0  0  0  0  0  0  0  0  0  0  0
  -25.3970  -22.8680   23.2980 C   0  0  0  0  0  2  0  0  0  0  0  0
  -26.8790  -22.5300   22.9750 C   0  0  0  0  0  2  0  0  0  0  0  0
  -26.3620  -22.4240   20.4650 C   0  0  0  0  0  1  0  0  0  0  0  0
  -27.3320  -22.9100   21.5570 C   0  0  0  0  0  3  0  0  0  0  0  0
  -29.8700  -23.1170   21.5180 C   0  0  0  0  0  3  0  0  0  0  0  0
  -28.7440  -22.4340   21.2420 C   0  0  0  0  0  3  0  0  0  0  0  0
  -31.2420  -22.7710   20.9290 C   0  0  0  0  0  2  0  0  0  0  0  0
  -31.7970  -23.8350   20.1200 O   0  0  0  0  0  0  0  0  0  0  0  0
  -27.2480  -28.9780   21.8170 C   0  0  0  0  0  0  0  0  0  0  0  0
  -30.8950  -24.7460   19.6120 C   0  0  0  0  0  0  0  0  0  0  0  0
  -26.9120  -27.9250   19.6040 C   0  0  0  0  0  3  0  0  0  0  0  0
  -28.8260  -26.4630   18.7690 C   0  0  0  0  0  0  0  0  0  0  0  0
  -29.2440  -28.0530   20.6530 C   0  0  0  0  0  2  0  0  0  0  0  0
  -29.5810  -26.7830   19.9030 C   0  0  0  0  0  0  0  0  0  0  0  0
  -30.6170  -25.9260   20.3330 C   0  0  0  0  0  3  0  0  0  0  0  0
  -30.1730  -24.4780   18.4280 C   0  0  0  0  0  3  0  0  0  0  0  0
  -29.1120  -25.3050   18.0280 C   0  0  0  0  0  3  0  0  0  0  0  0
  -27.7230  -27.4200   18.3820 C   0  0  0  0  0  2  0  0  0  0  0  0
  -27.7900  -28.3210   20.7530 N   0  0  0  0  0  0  0  0  0  0  0  0
  -26.0480  -29.2840   21.8380 O   0  0  0  0  0  0  0  0  0  0  0  0
  -25.8620  -26.8560   19.9780 C   0  0  0  0  0  0  0  0  0  0  0  0
  -24.7250  -26.8630   19.2660 N   0  0  0  0  0  0  0  0  0  0  0  0
  -26.0830  -26.0350   20.8710 O   0  0  0  0  0  0  0  0  0  0  0  0
  -24.6100  -27.5800   18.5650 H   0  0  0  0  0  0  0  0  0  0  0  0
  -21.3090  -26.2200   18.2810 C   0  0  0  0  0  0  0  0  0  0  0  0
  -23.6090  -25.9310   19.4190 C   0  0  0  0  0  3  0  0  0  0  0  0
  -23.7950  -24.6950   18.5130 C   0  0  0  0  0  2  0  0  0  0  0  0
  -23.1030  -24.8330   17.1530 C   0  0  0  0  0  2  0  0  0  0  0  0
  -21.6000  -25.0610   17.3390 C   0  0  0  0  0  2  0  0  0  0  0  0
  -22.2590  -26.6380   19.2470 C   0  0  0  0  0  0  0  0  0  0  0  0
  -21.9540  -27.7400   20.0770 C   0  0  0  0  0  3  0  0  0  0  0  0
  -20.7260  -28.4180   19.9530 C   0  0  0  0  0  3  0  0  0  0  0  0
  -19.7810  -27.9910   19.0040 C   0  0  0  0  0  3  0  0  0  0  0  0
  -20.0710  -26.8910   18.1750 C   0  0  0  0  0  3  0  0  0  0  0  0
  -28.1140  -29.3930   23.0470 C   0  0  0  0  0  3  0  0  0  0  0  0
  -27.5310  -30.6210   23.6030 N   0  0  0  0  0  0  0  0  0  0  0  0
  -28.0010  -31.8560   23.3750 C   0  0  0  0  0  0  0  0  0  0  0  0
  -29.0270  -32.0730   22.7260 O   0  0  0  0  0  0  0  0  0  0  0  0
  -26.6590  -30.5210   24.0990 H   0  0  0  0  0  0  0  0  0  0  0  0
  -26.3750  -33.7010   22.8560 C   0  0  0  0  0  1  0  0  0  0  0  0
  -27.2050  -33.0350   23.9640 C   0  0  0  0  0  3  0  0  0  0  0  0
  -28.7100  -33.5510   25.8350 C   0  0  0  0  0  1  0  0  0  0  0  0
  -28.0550  -34.0480   24.6280 N   0  0  0  0  0  0  0  0  0  0  0  0
  -27.5090  -34.8660   24.8830 H   0  0  0  0  0  0  0  0  0  0  0  0
  -28.2090  -28.2670   24.1490 C   0  0  1  0  0  0  0  0  0  0  0  0
  -26.8600  -27.5730   24.4420 C   0  0  0  0  0  1  0  0  0  0  0  0
  -29.2190  -27.1730   23.7300 C   0  0  0  0  0  1  0  0  0  0  0  0
  -28.7310  -28.8710   25.4730 C   0  0  0  0  0  1  0  0  0  0  0  0
  1  4  1  0
  2  5  1  0
  2  1  1  0
  4  6  1  0
  4  3  1  0
  5 57  1  6
  5 12  1  0
  5  3  1  0
  8 11  2  0
  9  7  2  0
 10 12  2  0
 10  8  1  0
 11  7  1  0
 11 13  1  0
 12  9  1  0
 13 14  2  0
 15 13  1  0
 16 15  1  0
 17 16  1  0
 18 17  1  0
 19 27  1  0
 20 25  1  0
 21 22  1  0
 21 20  1  0
 23 22  1  0
 23 32  1  0
 23 24  1  0
 25 19  1  0
 25 24  1  0
 26 19  2  0
 27 28  1  0
 27 18  1  0
 29 54  1  0
 29 30  2  0
 30 49  1  0
 31 34  1  0
 31 30  1  0
 32 33  1  0
 32 29  1  0
 33 31  2  0
 34 35  1  0
 35 36  2  0
 37 36  1  0
 38 37  2  0
 39 38  1  0
 39 34  2  0
 40 37  1  0
 40 41  1  0
 41 42  2  0
 41 46  1  0
 42 43  1  0
 43 44  2  0
 44 48  1  0
 45 44  1  0
 46 45  2  0
 47 46  1  0
 49 50  1  0
 50 52  1  0
 50 53  1  0
 51 49  2  0
 54 55  1  0
 56 54  1  0
 58 57  1  0
 60 59  1  0
 60 58  1  0
 62 61  2  0
 62 60  1  0
 63 61  1  0
 64 63  1  0
 65 76  2  0
 66 64  1  0
 66 71  1  0
 67 77  1  0
 67 75  1  0
 68 70  1  0
 69 75  1  0
 70 71  2  0
 70 69  1  0
 72 66  2  0
 73 72  1  0
 73 68  2  0
 74 68  1  0
 74 67  1  0
 75 65  1  0
 77 79  2  0
 78 77  1  0
 80 78  1  0
 81 86  1  0
 82 78  1  0
 83 82  1  0
 84 85  1  0
 84 83  1  0
 85 81  1  0
 86 82  1  0
 86 87  2  0
 88 87  1  0
 89 88  2  0
 90 81  2  0
 90 89  1  0
 91 65  1  0
 91 92  1  0
 91101  1  0
 92 95  1  0
 93 92  1  0
 93 97  1  0
 94 93  2  0
 97 96  1  0
 97 99  1  0
 99100  1  0
 99 98  1  0
101102  1  1
101104  1  0
103101  1  0
M  ISO  4  19 100  27 100  63 101  64 101
M  END
>  <TORSDO>  (91) 
F 27

>  <SCORE>  (91) 
63.128

>  <name>  (91) 
91

>  <ligand_id>  (91) 
91

>  <original_smiles>  (91) 
[H]C(=C([H])C([H])(C([H])([H])[H])C([H])([H])C([H])([H])C1(c2c([H])c([H])c(C(=O)C([H])([H])C([H])([H])C([H])([H])C([H])([H])N([H])C(=O)N3C([H])([H])C([H])([H])C([H])([H])C([H])(n4nc(-c5c([H])c([H])c(Oc6c([H])c([H])c(F)c([H])c6F)c([H])c5[H])c(C(=O)N([H])[H])c4N([H])[H])C3([H])[H])c([H])c2[H])C([H])=C([H])C([H])(C([H])([H])[H])C1([H])[H])C([H])([H])Oc1c([H])c([H])c2c(c1[H])C([H])([H])N(C(=O)C([H])(N([H])C(=O)C([H])(N([H])C([H])([H])[H])C([H])([H])[H])C(C([H])([H])[H])(C([H])([H])[H])C([H])([H])[H])C([H])(C(=O)N([H])C1([H])c3c([H])c([H])c([H])c([H])c3C([H])([H])C([H])([H])C1([H])[H])C2([H])[H]

>  <smiles>  (91) 
[H]C(=C([H])C([H])(C([H])([H])[H])C([H])([H])C([H])([H])C1(c2c([H])c([H])c(C(=O)C([H])([H])C([H])([H])C([H])([H])C([H])([H])N([H])C(=O)N3C([H])([H])C([H])([H])C([H])([H])C([H])(n4nc(-c5c([H])c([H])c(Oc6c([H])c([H])c(F)c([H])c6F)c([H])c5[H])c(C(=O)N([H])[H])c4N([H])[H])C3([H])[H])c([H])c2[H])C([H])=C([H])C([H])(C([H])([H])[H])C1([H])[H])C([H])([H])Oc1c([H])c([H])c2c(c1[H])C([H])([H])N(C(=O)C([H])(N([H])C(=O)C([H])(N([H])C([H])([H])[H])C([H])([H])[H])C(C([H])([H])[H])(C([H])([H])[H])C([H])([H])[H])C([H])(C(=O)N([H])C1([H])c3c([H])c([H])c([H])c([H])c3C([H])([H])C([H])([H])C1([H])[H])C2([H])[H]

$$$$
92:0:0
     RDKit          3D

 98106  0  0  1  0  0  0  0  0999 V2000
  -25.2980  -23.1790   24.3640 C   0  0  0  0  0  3  0  0  0  0  0  0
  -26.9190  -22.0030   22.9670 C   0  0  0  0  0  3  0  0  0  0  0  0
  -25.2410  -24.2260   23.4280 C   0  0  0  0  0  3  0  0  0  0  0  0
  -26.8380  -23.0350   22.0130 C   0  0  0  0  0  3  0  0  0  0  0  0
  -26.1910  -22.1050   24.1700 C   0  0  0  0  0  0  0  0  0  0  0  0
  -26.0570  -24.1820   22.2790 C   0  0  0  0  0  0  0  0  0  0  0  0
  -26.4750  -21.1680   25.3250 C   0  0  0  0  0  2  0  0  0  0  0  0
  -27.9400  -21.3390   25.7920 C   0  0  0  0  0  2  0  0  0  0  0  0
  -28.9120  -20.2990   25.1960 C   0  0  0  0  0  2  0  0  0  0  0  0
  -30.2060  -20.8330   24.5230 C   0  0  0  0  0  2  0  0  0  0  0  0
  -31.0700  -19.6490   24.0170 C   0  0  0  0  0  2  0  0  0  0  0  0
  -31.7190  -19.7140   22.6060 C   0  0  0  0  0  2  0  0  0  0  0  0
  -32.7300  -17.8080   21.2130 C   0  0  0  0  0  0  0  0  0  0  0  0
  -32.9270  -15.7990   19.7600 C   0  0  0  0  0  2  0  0  0  0  0  0
  -32.2290  -15.9980   18.3980 C   0  0  0  0  0  2  0  0  0  0  0  0
  -30.7130  -15.7290   18.4900 C   0  0  0  0  0  2  0  0  0  0  0  0
  -30.0550  -16.4630   19.6840 C   0  0  0  0  0  3  0  0  0  0  0  0
  -30.8510  -16.1570   20.9690 C   0  0  0  0  0  2  0  0  0  0  0  0
  -32.2470  -16.6160   20.7750 N   0  0  0  0  0  0  0  0  0  0  0  0
  -33.7720  -18.3290   20.7860 O   0  0  0  0  0  0  0  0  0  0  0  0
  -31.9670  -18.3320   22.1870 N   0  0  0  0  0  0  0  0  0  0  0  0
  -31.2780  -17.6760   22.5270 H   0  0  0  0  0  0  0  0  0  0  0  0
  -27.5140  -16.8980   19.6910 C   0  0  0  0  0  0  0  0  0  0  0  0
  -26.4460  -16.0610   19.8770 C   0  0  0  0  0  0  0  0  0  0  0  0
  -26.9990  -14.7650   20.1100 C   0  0  0  0  0  0  0  0  0  0  0  0
  -28.6460  -16.1070   19.8310 N   0  0  0  0  0  0  0  0  0  0  0  0
  -28.3250  -14.8230   20.1300 N   0  0  0  0  0  0  0  0  0  0  0  0
  -26.3460  -13.4600   20.2580 C   0  0  0  0  0  0  0  0  0  0  0  0
  -26.4360  -12.7270   21.4620 C   0  0  0  0  0  3  0  0  0  0  0  0
  -25.7910  -11.4780   21.5900 C   0  0  0  0  0  3  0  0  0  0  0  0
  -25.0370  -10.9570   20.5100 C   0  0  0  0  0  0  0  0  0  0  0  0
  -24.9690  -11.6830   19.3070 C   0  0  0  0  0  3  0  0  0  0  0  0
  -25.6160  -12.9200   19.1800 C   0  0  0  0  0  3  0  0  0  0  0  0
  -24.3960   -9.7420   20.5350 O   0  0  0  0  0  0  0  0  0  0  0  0
  -23.6080   -9.3640   21.5920 C   0  0  0  0  0  0  0  0  0  0  0  0
  -22.5530  -10.1740   22.0640 C   0  0  0  0  0  3  0  0  0  0  0  0
  -21.7270   -9.7180   23.1120 C   0  0  0  0  0  3  0  0  0  0  0  0
  -21.9460   -8.4480   23.6770 C   0  0  0  0  0  0  0  0  0  0  0  0
  -22.9920   -7.6350   23.2050 C   0  0  0  0  0  3  0  0  0  0  0  0
  -23.8210   -8.0940   22.1660 C   0  0  0  0  0  0  0  0  0  0  0  0
  -24.8160   -7.3000   21.7010 F   0  0  0  0  0  0  0  0  0  0  0  0
  -21.1490   -8.0040   24.6770 F   0  0  0  0  0  0  0  0  0  0  0  0
  -24.9910  -16.4210   19.7550 C   0  0  0  0  0  0  0  0  0  0  0  0
  -24.1320  -15.7660   20.5280 N   0  0  0  0  0  0  0  0  0  0  0  0
  -24.6130  -17.3200   19.0070 O   0  0  0  0  0  0  0  0  0  0  0  0
  -24.4480  -15.0500   21.1630 H   0  0  0  0  0  0  0  0  0  0  0  0
  -23.1500  -15.9920   20.4930 H   0  0  0  0  0  0  0  0  0  0  0  0
  -27.6170  -18.2510   19.3980 N   0  0  0  0  0  0  0  0  0  0  0  0
  -26.7970  -18.8220   19.2210 H   0  0  0  0  0  0  0  0  0  0  0  0
  -28.4890  -18.7430   19.2430 H   0  0  0  0  0  0  0  0  0  0  0  0
  -26.2140  -25.4130   21.4210 C   0  0  0  0  0  2  0  0  0  0  0  0
  -27.6670  -25.6770   21.3230 N   0  0  0  0  0  4  0  0  0  0  0  0
  -28.1050  -24.8320   20.9910 H   0  0  0  0  0  0  0  0  0  0  0  0
  -28.0120  -25.8200   22.2580 H   0  0  0  0  0  0  0  0  0  0  0  0
  -27.9230  -28.1670   21.2040 C   0  0  0  0  0  1  0  0  0  0  0  0
  -28.1050  -26.8130   20.4770 C   0  0  0  0  0  3  0  0  0  0  0  0
  -27.5590  -26.7180   19.0220 C   0  0  0  0  0  2  0  0  0  0  0  0
  -27.2470  -27.9930   18.4780 O   0  0  0  0  0  0  0  0  0  0  0  0
  -25.1690  -31.9380   23.9930 C   0  0  0  0  0  0  0  0  0  0  0  0
  -26.2170  -28.7100   19.0410 C   0  0  0  0  0  0  0  0  0  0  0  0
  -23.3980  -31.4020   22.3440 C   0  0  0  0  0  3  0  0  0  0  0  0
  -24.2020  -30.3310   20.1730 C   0  0  0  0  0  0  0  0  0  0  0  0
  -25.8500  -31.5160   21.6380 C   0  0  0  0  0  2  0  0  0  0  0  0
  -25.5310  -30.4770   20.5860 C   0  0  0  0  0  0  0  0  0  0  0  0
  -26.5400  -29.6770   20.0160 C   0  0  0  0  0  3  0  0  0  0  0  0
  -24.8710  -28.5620   18.6410 C   0  0  0  0  0  3  0  0  0  0  0  0
  -23.8630  -29.3710   19.2030 C   0  0  0  0  0  3  0  0  0  0  0  0
  -23.1890  -31.2520   20.8130 C   0  0  0  0  0  2  0  0  0  0  0  0
  -24.8380  -31.6080   22.7120 N   0  0  0  0  0  0  0  0  0  0  0  0
  -24.2960  -32.1220   24.8510 O   0  0  0  0  0  0  0  0  0  0  0  0
  -22.7540  -30.1870   23.0470 C   0  0  0  0  0  0  0  0  0  0  0  0
  -21.4440  -29.9990   22.8210 N   0  0  0  0  0  0  0  0  0  0  0  0
  -23.4310  -29.4250   23.7430 O   0  0  0  0  0  0  0  0  0  0  0  0
  -20.9600  -30.6780   22.2530 H   0  0  0  0  0  0  0  0  0  0  0  0
  -18.2500  -28.3320   22.5120 C   0  0  0  0  0  0  0  0  0  0  0  0
  -20.6340  -28.8960   23.3350 C   0  0  0  0  0  3  0  0  0  0  0  0
  -21.0630  -27.5490   22.7090 C   0  0  0  0  0  2  0  0  0  0  0  0
  -20.2390  -27.1680   21.4720 C   0  0  0  0  0  2  0  0  0  0  0  0
  -18.7540  -27.0710   21.8320 C   0  0  0  0  0  2  0  0  0  0  0  0
  -19.1380  -29.1950   23.2100 C   0  0  0  0  0  0  0  0  0  0  0  0
  -18.6280  -30.3660   23.8120 C   0  0  0  0  0  3  0  0  0  0  0  0
  -17.2590  -30.6820   23.7240 C   0  0  0  0  0  3  0  0  0  0  0  0
  -16.3840  -29.8220   23.0370 C   0  0  0  0  0  3  0  0  0  0  0  0
  -16.8780  -28.6490   22.4400 C   0  0  0  0  0  3  0  0  0  0  0  0
  -26.6540  -32.1270   24.4350 C   0  0  0  0  0  3  0  0  0  0  0  0
  -27.1740  -30.9750   25.3790 C   0  0  1  0  0  0  0  0  0  0  0  0
  -26.2230  -30.6570   26.5570 C   0  0  0  0  0  1  0  0  0  0  0  0
  -27.3920  -29.6690   24.5770 C   0  0  0  0  0  1  0  0  0  0  0  0
  -28.5480  -31.3650   25.9740 C   0  0  0  0  0  1  0  0  0  0  0  0
  -26.7540  -33.4320   25.1010 N   0  0  0  0  0  0  0  0  0  0  0  0
  -27.3240  -34.5180   24.5630 C   0  0  0  0  0  0  0  0  0  0  0  0
  -27.8920  -34.5030   23.4670 O   0  0  0  0  0  0  0  0  0  0  0  0
  -26.2640  -33.5330   25.9770 H   0  0  0  0  0  0  0  0  0  0  0  0
  -26.1530  -36.7330   24.7810 C   0  0  0  0  0  1  0  0  0  0  0  0
  -27.2500  -35.8300   25.3660 C   0  0  0  0  0  3  0  0  0  0  0  0
  -29.5710  -35.8780   26.1670 C   0  0  0  0  0  1  0  0  0  0  0  0
  -28.5320  -36.5670   25.4070 N   0  0  0  0  0  0  0  0  0  0  0  0
  -28.4050  -37.4920   25.8090 H   0  0  0  0  0  0  0  0  0  0  0  0
  2  5  2  0
  3  1  2  0
  4  6  2  0
  4  2  1  0
  5  1  1  0
  5  7  1  0
  6  3  1  0
  7  8  1  0
  9  8  1  0
 10  9  1  0
 11 10  1  0
 12 11  1  0
 13 21  1  0
 14 19  1  0
 15 16  1  0
 15 14  1  0
 17 16  1  0
 17 26  1  0
 17 18  1  0
 19 18  1  0
 19 13  1  0
 20 13  2  0
 21 22  1  0
 21 12  1  0
 23 26  1  0
 23 24  2  0
 24 25  1  0
 25 27  2  0
 25 28  1  0
 26 27  1  0
 28 29  1  0
 29 30  2  0
 31 34  1  0
 31 30  1  0
 32 31  2  0
 33 32  1  0
 33 28  2  0
 34 35  1  0
 35 36  2  0
 35 40  1  0
 36 37  1  0
 37 38  2  0
 38 42  1  0
 39 38  1  0
 40 39  2  0
 41 40  1  0
 43 24  1  0
 43 44  1  0
 44 46  1  0
 45 43  2  0
 47 44  1  0
 48 23  1  0
 49 48  1  0
 50 48  1  0
 51  6  1  0
 52 51  1  0
 52 54  1  0
 53 52  1  0
 56 55  1  0
 56 52  1  0
 57 56  1  0
 58 57  1  0
 58 60  1  0
 59 70  2  0
 60 65  1  0
 61 69  1  0
 61 71  1  0
 62 64  1  0
 62 68  1  0
 63 69  1  0
 64 63  1  0
 65 64  2  0
 66 60  2  0
 66 67  1  0
 67 62  2  0
 68 61  1  0
 69 59  1  0
 71 73  2  0
 72 71  1  0
 74 72  1  0
 75 80  1  0
 76 72  1  0
 77 76  1  0
 78 79  1  0
 78 77  1  0
 79 75  1  0
 80 76  1  0
 80 81  2  0
 82 81  1  0
 83 82  2  0
 84 75  2  0
 84 83  1  0
 85 59  1  0
 85 90  1  0
 85 86  1  0
 86 89  1  1
 86 87  1  0
 88 86  1  0
 90 93  1  0
 91 90  1  0
 91 95  1  0
 92 91  2  0
 95 94  1  0
 95 97  1  0
 97 98  1  0
 97 96  1  0
M  ISO  4  13 100  21 100  57 101  58 101
M  END
>  <TORSDO>  (92) 
F 26

>  <SCORE>  (92) 
29.006

>  <name>  (92) 
92

>  <ligand_id>  (92) 
92

>  <original_smiles>  (92) 
[H]c1c([H])c([H])c2c(c1[H])C([H])([H])C([H])([H])C([H])([H])C2([H])N([H])C(=O)C1([H])N(C(=O)C([H])(N([H])C(=O)C([H])(N([H])C([H])([H])[H])C([H])([H])[H])C(C([H])([H])[H])(C([H])([H])[H])C([H])([H])[H])C([H])([H])c2c([H])c(OC([H])([H])C([H])(C([H])([H])[H])[N+]([H])([H])C([H])([H])c3c([H])c([H])c(C([H])([H])C([H])([H])C([H])([H])C([H])([H])C([H])([H])C([H])([H])N([H])C(=O)N4C([H])([H])C([H])([H])C([H])([H])C([H])(n5nc(-c6c([H])c([H])c(Oc7c([H])c([H])c(F)c([H])c7F)c([H])c6[H])c(C(=O)N([H])[H])c5N([H])[H])C4([H])[H])c([H])c3[H])c([H])c([H])c2C1([H])[H]

>  <smiles>  (92) 
[H]c1c([H])c([H])c2c(c1[H])C([H])([H])C([H])([H])C([H])([H])C2([H])N([H])C(=O)C1([H])N(C(=O)C([H])(N([H])C(=O)C([H])(N([H])C([H])([H])[H])C([H])([H])[H])C(C([H])([H])[H])(C([H])([H])[H])C([H])([H])[H])C([H])([H])c2c([H])c(OC([H])([H])C([H])(C([H])([H])[H])[N+]([H])([H])C([H])([H])c3c([H])c([H])c(C([H])([H])C([H])([H])C([H])([H])C([H])([H])C([H])([H])C([H])([H])N([H])C(=O)N4C([H])([H])C([H])([H])C([H])([H])C([H])(n5nc(-c6c([H])c([H])c(Oc7c([H])c([H])c(F)c([H])c7F)c([H])c6[H])c(C(=O)N([H])[H])c5N([H])[H])C4([H])[H])c([H])c3[H])c([H])c([H])c2C1([H])[H]

$$$$
93:0:0
     RDKit          3D

 99108  0  0  1  0  0  0  0  0999 V2000
  -28.6670  -21.2770   19.1510 C   0  0  0  0  0  3  0  0  0  0  0  0
  -29.6200  -21.7900   16.9710 C   0  0  0  0  0  3  0  0  0  0  0  0
  -28.5240  -19.9280   18.7710 C   0  0  0  0  0  3  0  0  0  0  0  0
  -29.5290  -20.4280   16.6120 C   0  0  0  0  0  3  0  0  0  0  0  0
  -29.1670  -22.2290   18.2380 C   0  0  0  0  0  0  0  0  0  0  0  0
  -28.9640  -19.4920   17.5050 C   0  0  0  0  0  0  0  0  0  0  0  0
  -28.9680  -26.0520   18.1690 C   0  0  0  0  0  0  0  0  0  0  0  0
  -29.2520  -24.7560   17.4130 C   0  0  0  0  0  2  0  0  0  0  0  0
  -29.2690  -24.3890   19.8590 C   0  0  0  0  0  2  0  0  0  0  0  0
  -28.9140  -23.7130   18.4970 C   0  0  0  0  0  3  0  0  0  0  0  0
  -28.5570  -25.7300   19.6100 C   0  0  0  0  0  3  0  0  0  0  0  0
  -29.0670  -27.1820   17.6840 O   0  0  0  0  0  0  0  0  0  0  0  0
  -28.5220  -26.8840   20.5010 O   0  0  0  0  0  0  0  0  0  0  0  0
  -24.5640  -32.1340   23.4830 C   0  0  0  0  0  0  0  0  0  0  0  0
  -27.3420  -27.6390   20.4980 C   0  0  0  0  0  0  0  0  0  0  0  0
  -23.4340  -30.7060   21.8260 C   0  0  0  0  0  3  0  0  0  0  0  0
  -24.9420  -29.1810   20.4680 C   0  0  0  0  0  0  0  0  0  0  0  0
  -25.9760  -31.0630   21.7220 C   0  0  0  0  0  2  0  0  0  0  0  0
  -26.0900  -29.6870   21.0940 C   0  0  0  0  0  0  0  0  0  0  0  0
  -27.2870  -28.9190   21.1170 C   0  0  0  0  0  3  0  0  0  0  0  0
  -26.1430  -27.1760   19.8820 C   0  0  0  0  0  3  0  0  0  0  0  0
  -24.9650  -27.9220   19.8720 C   0  0  0  0  0  3  0  0  0  0  0  0
  -23.7040  -30.0440   20.4570 C   0  0  0  0  0  2  0  0  0  0  0  0
  -24.6760  -31.3120   22.4030 N   0  0  0  0  0  0  0  0  0  0  0  0
  -23.4600  -32.4030   23.9760 O   0  0  0  0  0  0  0  0  0  0  0  0
  -22.7610  -29.6740   22.7650 C   0  0  0  0  0  0  0  0  0  0  0  0
  -21.4410  -29.4780   22.6010 N   0  0  0  0  0  0  0  0  0  0  0  0
  -23.4230  -29.0580   23.6050 O   0  0  0  0  0  0  0  0  0  0  0  0
  -20.9620  -30.0320   21.9040 H   0  0  0  0  0  0  0  0  0  0  0  0
  -18.0650  -28.2420   23.0110 C   0  0  0  0  0  0  0  0  0  0  0  0
  -20.6100  -28.5360   23.3560 C   0  0  0  0  0  3  0  0  0  0  0  0
  -20.7460  -27.1000   22.8040 C   0  0  0  0  0  2  0  0  0  0  0  0
  -19.6800  -26.7460   21.7630 C   0  0  0  0  0  2  0  0  0  0  0  0
  -18.2770  -26.8870   22.3600 C   0  0  0  0  0  2  0  0  0  0  0  0
  -19.1610  -29.0240   23.4640 C   0  0  0  0  0  0  0  0  0  0  0  0
  -18.9090  -30.2950   24.0280 C   0  0  0  0  0  3  0  0  0  0  0  0
  -17.5940  -30.7840   24.1410 C   0  0  0  0  0  3  0  0  0  0  0  0
  -16.5130  -30.0010   23.7030 C   0  0  0  0  0  3  0  0  0  0  0  0
  -16.7500  -28.7340   23.1420 C   0  0  0  0  0  3  0  0  0  0  0  0
  -25.8190  -32.7910   24.1330 C   0  0  0  0  0  3  0  0  0  0  0  0
  -26.2650  -32.0750   25.4660 C   0  0  1  0  0  0  0  0  0  0  0  0
  -25.1140  -31.8750   26.4810 C   0  0  0  0  0  1  0  0  0  0  0  0
  -26.8780  -30.6890   25.1630 C   0  0  0  0  0  1  0  0  0  0  0  0
  -27.3730  -32.9040   26.1570 C   0  0  0  0  0  1  0  0  0  0  0  0
  -25.5010  -34.2020   24.3850 N   0  0  0  0  0  0  0  0  0  0  0  0
  -25.8870  -35.2170   23.6020 C   0  0  0  0  0  0  0  0  0  0  0  0
  -26.6280  -35.0700   22.6260 O   0  0  0  0  0  0  0  0  0  0  0  0
  -24.8780  -34.3940   25.1550 H   0  0  0  0  0  0  0  0  0  0  0  0
  -24.2170  -37.0070   23.0280 C   0  0  0  0  0  1  0  0  0  0  0  0
  -25.3720  -36.6220   23.9660 C   0  0  0  0  0  3  0  0  0  0  0  0
  -27.4360  -37.5160   24.9550 C   0  0  0  0  0  1  0  0  0  0  0  0
  -26.4230  -37.6630   23.9130 N   0  0  0  0  0  0  0  0  0  0  0  0
  -26.0110  -38.5890   24.0010 H   0  0  0  0  0  0  0  0  0  0  0  0
  -28.8000  -18.0270   17.1230 C   0  0  0  0  0  2  0  0  0  0  0  0
  -30.0670  -17.3460   16.5700 C   0  0  0  0  0  2  0  0  0  0  0  0
  -31.2360  -17.1690   17.5610 C   0  0  0  0  0  2  0  0  0  0  0  0
  -32.1710  -18.3890   17.7270 C   0  0  0  0  0  2  0  0  0  0  0  0
  -32.0120  -19.2520   19.0000 C   0  0  0  0  0  2  0  0  0  0  0  0
  -32.0740  -18.4810   20.3310 C   0  0  0  0  0  2  0  0  0  0  0  0
  -30.7200  -18.1400   20.9960 C   0  0  0  0  0  2  0  0  0  0  0  0
  -30.8860  -17.1630   22.1880 C   0  0  0  0  0  2  0  0  0  0  0  0
  -30.9480  -14.9300   21.1070 C   0  0  0  0  0  0  0  0  0  0  0  0
  -30.6930  -12.8670   19.7950 C   0  0  0  0  0  2  0  0  0  0  0  0
  -29.8670  -13.1490   18.5250 C   0  0  0  0  0  2  0  0  0  0  0  0
  -28.3620  -13.0060   18.8170 C   0  0  0  0  0  2  0  0  0  0  0  0
  -27.9160  -13.7780   20.0880 C   0  0  0  0  0  3  0  0  0  0  0  0
  -28.8710  -13.4990   21.2730 C   0  0  0  0  0  2  0  0  0  0  0  0
  -30.2470  -13.7990   20.8410 N   0  0  0  0  0  0  0  0  0  0  0  0
  -32.0570  -15.1600   20.6190 O   0  0  0  0  0  0  0  0  0  0  0  0
  -30.3560  -15.8240   21.9040 N   0  0  0  0  0  0  0  0  0  0  0  0
  -29.4800  -15.5590   22.3280 H   0  0  0  0  0  0  0  0  0  0  0  0
  -25.4460  -14.3320   20.5720 C   0  0  0  0  0  0  0  0  0  0  0  0
  -24.3620  -13.5330   20.8270 C   0  0  0  0  0  0  0  0  0  0  0  0
  -24.8490  -12.1900   20.8170 C   0  0  0  0  0  0  0  0  0  0  0  0
  -26.5250  -13.4720   20.4310 N   0  0  0  0  0  0  0  0  0  0  0  0
  -26.1630  -12.1790   20.6320 N   0  0  0  0  0  0  0  0  0  0  0  0
  -24.1310  -10.9120   20.9150 C   0  0  0  0  0  0  0  0  0  0  0  0
  -24.4880   -9.9330   21.8690 C   0  0  0  0  0  3  0  0  0  0  0  0
  -23.7710   -8.7210   21.9550 C   0  0  0  0  0  3  0  0  0  0  0  0
  -22.6800   -8.4790   21.0870 C   0  0  0  0  0  0  0  0  0  0  0  0
  -22.3450   -9.4450   20.1210 C   0  0  0  0  0  3  0  0  0  0  0  0
  -23.0630  -10.6480   20.0340 C   0  0  0  0  0  3  0  0  0  0  0  0
  -21.9430   -7.3190   21.0810 O   0  0  0  0  0  0  0  0  0  0  0  0
  -21.7790   -6.5640   22.2150 C   0  0  0  0  0  0  0  0  0  0  0  0
  -21.2220   -7.1020   23.3960 C   0  0  0  0  0  3  0  0  0  0  0  0
  -21.0090   -6.2740   24.5150 C   0  0  0  0  0  3  0  0  0  0  0  0
  -21.3420   -4.9070   24.4540 C   0  0  0  0  0  0  0  0  0  0  0  0
  -21.8920   -4.3680   23.2770 C   0  0  0  0  0  3  0  0  0  0  0  0
  -22.1070   -5.1930   22.1600 C   0  0  0  0  0  0  0  0  0  0  0  0
  -22.6170   -4.6630   21.0220 F   0  0  0  0  0  0  0  0  0  0  0  0
  -21.1300   -4.1080   25.5260 F   0  0  0  0  0  0  0  0  0  0  0  0
  -22.9370  -13.9830   20.9750 C   0  0  0  0  0  0  0  0  0  0  0  0
  -22.1460  -13.2640   21.7670 N   0  0  0  0  0  0  0  0  0  0  0  0
  -22.5260  -15.0030   20.4270 O   0  0  0  0  0  0  0  0  0  0  0  0
  -22.4850  -12.4350   22.2300 H   0  0  0  0  0  0  0  0  0  0  0  0
  -21.1870  -13.5490   21.9100 H   0  0  0  0  0  0  0  0  0  0  0  0
  -25.6060  -15.7070   20.4330 N   0  0  0  0  0  0  0  0  0  0  0  0
  -24.8290  -16.3570   20.4840 H   0  0  0  0  0  0  0  0  0  0  0  0
  -26.4840  -16.1540   20.1990 H   0  0  0  0  0  0  0  0  0  0  0  0
  2  5  1  0
  3  1  1  0
  4  2  2  0
  4  6  1  0
  5  1  2  0
  6  3  2  0
  7 11  1  0
  8  7  1  0
  8 10  1  0
 10  5  1  0
 10  9  1  0
 11  9  1  0
 11 13  1  0
 12  7  2  0
 14 25  2  0
 15 13  1  0
 15 20  1  0
 16 24  1  0
 16 26  1  0
 17 19  1  0
 18 24  1  0
 19 20  2  0
 19 18  1  0
 21 15  2  0
 22 21  1  0
 22 17  2  0
 23 17  1  0
 23 16  1  0
 24 14  1  0
 26 28  2  0
 27 26  1  0
 29 27  1  0
 30 39  2  0
 30 35  1  0
 31 27  1  0
 31 35  1  0
 32 31  1  0
 33 34  1  0
 33 32  1  0
 34 30  1  0
 35 36  2  0
 36 37  1  0
 38 37  2  0
 39 38  1  0
 40 14  1  0
 40 45  1  0
 40 41  1  0
 41 44  1  1
 41 42  1  0
 43 41  1  0
 45 48  1  0
 46 50  1  0
 46 45  1  0
 47 46  2  0
 50 49  1  0
 52 50  1  0
 52 53  1  0
 52 51  1  0
 54  6  1  0
 55 54  1  0
 55 56  1  0
 56 57  1  0
 57 58  1  0
 58 59  1  0
 59 60  1  0
 60 61  1  0
 62 70  1  0
 63 68  1  0
 64 65  1  0
 64 63  1  0
 66 65  1  0
 66 75  1  0
 66 67  1  0
 68 62  1  0
 68 67  1  0
 69 62  2  0
 70 61  1  0
 70 71  1  0
 72 73  2  0
 73 92  1  0
 74 73  1  0
 74 77  1  0
 75 72  1  0
 75 76  1  0
 76 74  2  0
 77 78  1  0
 78 79  2  0
 80 79  1  0
 81 80  2  0
 82 81  1  0
 82 77  2  0
 83 80  1  0
 83 84  1  0
 84 85  1  0
 85 86  2  0
 87 86  1  0
 87 91  1  0
 88 87  2  0
 89 84  2  0
 89 88  1  0
 90 89  1  0
 92 93  1  0
 93 96  1  0
 93 95  1  0
 94 92  2  0
 97 98  1  0
 97 72  1  0
 99 97  1  0
M  ISO  4  11 101  13 101  62 100  70 100
M  END
>  <TORSDO>  (93) 
F 25

>  <SCORE>  (93) 
-10.568

>  <name>  (93) 
93

>  <ligand_id>  (93) 
93

>  <original_smiles>  (93) 
[H]c1c([H])c([H])c2c(c1[H])C([H])([H])C([H])([H])C([H])([H])C2([H])N([H])C(=O)C1([H])N(C(=O)C([H])(N([H])C(=O)C([H])(N([H])C([H])([H])[H])C([H])([H])[H])C(C([H])([H])[H])(C([H])([H])[H])C([H])([H])[H])C([H])([H])c2c([H])c(OC3([H])C(=O)C([H])([H])C([H])(c4c([H])c([H])c(C([H])([H])C([H])([H])C([H])([H])C([H])([H])C([H])([H])C([H])([H])C([H])([H])C([H])([H])N([H])C(=O)N5C([H])([H])C([H])([H])C([H])([H])C([H])(n6nc(-c7c([H])c([H])c(Oc8c([H])c([H])c(F)c([H])c8F)c([H])c7[H])c(C(=O)N([H])[H])c6N([H])[H])C5([H])[H])c([H])c4[H])C3([H])[H])c([H])c([H])c2C1([H])[H]

>  <smiles>  (93) 
[H]c1c([H])c([H])c2c(c1[H])C([H])([H])C([H])([H])C([H])([H])C2([H])N([H])C(=O)C1([H])N(C(=O)C([H])(N([H])C(=O)C([H])(N([H])C([H])([H])[H])C([H])([H])[H])C(C([H])([H])[H])(C([H])([H])[H])C([H])([H])[H])C([H])([H])c2c([H])c(OC3([H])C(=O)C([H])([H])C([H])(c4c([H])c([H])c(C([H])([H])C([H])([H])C([H])([H])C([H])([H])C([H])([H])C([H])([H])C([H])([H])C([H])([H])N([H])C(=O)N5C([H])([H])C([H])([H])C([H])([H])C([H])(n6nc(-c7c([H])c([H])c(Oc8c([H])c([H])c(F)c([H])c8F)c([H])c7[H])c(C(=O)N([H])[H])c6N([H])[H])C5([H])[H])c([H])c4[H])C3([H])[H])c([H])c([H])c2C1([H])[H]

$$$$
94:0:0
     RDKit          3D

102110  0  0  1  0  0  0  0  0999 V2000
  -32.7780  -27.2410   22.6060 C   0  0  0  0  0  2  0  0  0  0  0  0
  -33.4860  -24.1310   20.4940 C   0  0  0  0  0  3  0  0  0  0  0  0
  -32.6230  -24.3000   19.3990 C   0  0  0  0  0  3  0  0  0  0  0  0
  -33.5100  -25.0920   21.5200 C   0  0  0  0  0  3  0  0  0  0  0  0
  -31.7810  -25.4240   19.3440 C   0  0  0  0  0  3  0  0  0  0  0  0
  -32.6750  -26.2310   21.4690 C   0  0  0  0  0  0  0  0  0  0  0  0
  -31.7890  -26.4000   20.3690 C   0  0  0  0  0  0  0  0  0  0  0  0
  -31.1620  -28.3450   18.9030 C   0  0  0  0  0  1  0  0  0  0  0  0
  -30.8590  -27.6080   20.2220 C   0  0  0  0  0  3  0  0  0  0  0  0
  -29.3700  -27.2020   20.3880 C   0  0  0  0  0  2  0  0  0  0  0  0
  -28.6160  -27.5790   19.2420 O   0  0  0  0  0  0  0  0  0  0  0  0
  -24.1200  -31.7080   22.9610 C   0  0  0  0  0  0  0  0  0  0  0  0
  -27.3690  -28.1170   19.4270 C   0  0  0  0  0  0  0  0  0  0  0  0
  -23.1140  -30.3250   21.1690 C   0  0  0  0  0  3  0  0  0  0  0  0
  -24.7690  -29.1930   19.5970 C   0  0  0  0  0  0  0  0  0  0  0  0
  -25.5480  -31.0940   21.0190 C   0  0  0  0  0  2  0  0  0  0  0  0
  -25.8340  -29.8280   20.2460 C   0  0  0  0  0  0  0  0  0  0  0  0
  -27.1380  -29.2960   20.1690 C   0  0  0  0  0  3  0  0  0  0  0  0
  -26.2910  -27.4900   18.7730 C   0  0  0  0  0  3  0  0  0  0  0  0
  -24.9890  -28.0150   18.8630 C   0  0  0  0  0  3  0  0  0  0  0  0
  -23.4080  -29.8370   19.7260 C   0  0  0  0  0  2  0  0  0  0  0  0
  -24.2770  -31.0520   21.7770 N   0  0  0  0  0  0  0  0  0  0  0  0
  -23.0190  -31.7480   23.5270 O   0  0  0  0  0  0  0  0  0  0  0  0
  -22.6400  -29.1190   22.0120 C   0  0  0  0  0  0  0  0  0  0  0  0
  -21.3820  -28.7000   21.8020 N   0  0  0  0  0  0  0  0  0  0  0  0
  -23.4040  -28.5640   22.8070 O   0  0  0  0  0  0  0  0  0  0  0  0
  -20.8170  -29.2130   21.1390 H   0  0  0  0  0  0  0  0  0  0  0  0
  -18.3560  -26.7290   21.8740 C   0  0  0  0  0  0  0  0  0  0  0  0
  -20.7340  -27.5610   22.4520 C   0  0  0  0  0  3  0  0  0  0  0  0
  -21.2370  -26.2250   21.8610 C   0  0  0  0  0  2  0  0  0  0  0  0
  -20.3610  -25.7040   20.7180 C   0  0  0  0  0  2  0  0  0  0  0  0
  -18.9220  -25.4920   21.1960 C   0  0  0  0  0  2  0  0  0  0  0  0
  -19.2080  -27.7080   22.4500 C   0  0  0  0  0  0  0  0  0  0  0  0
  -18.6340  -28.8570   23.0350 C   0  0  0  0  0  3  0  0  0  0  0  0
  -17.2380  -29.0340   23.0550 C   0  0  0  0  0  3  0  0  0  0  0  0
  -16.3970  -28.0550   22.4990 C   0  0  0  0  0  3  0  0  0  0  0  0
  -16.9570  -26.9040   21.9140 C   0  0  0  0  0  3  0  0  0  0  0  0
  -25.3070  -32.4550   23.6470 C   0  0  0  0  0  3  0  0  0  0  0  0
  -24.8140  -33.7690   24.0730 N   0  0  0  0  0  0  0  0  0  0  0  0
  -25.0110  -34.9100   23.3960 C   0  0  0  0  0  0  0  0  0  0  0  0
  -25.6960  -34.9710   22.3710 O   0  0  0  0  0  0  0  0  0  0  0  0
  -24.1980  -33.7840   24.8720 H   0  0  0  0  0  0  0  0  0  0  0  0
  -23.0640  -36.4770   23.1360 C   0  0  0  0  0  1  0  0  0  0  0  0
  -24.3380  -36.1820   23.9430 C   0  0  0  0  0  3  0  0  0  0  0  0
  -26.3330  -37.2690   24.8750 C   0  0  0  0  0  1  0  0  0  0  0  0
  -25.2250  -37.3660   23.9290 N   0  0  0  0  0  0  0  0  0  0  0  0
  -24.7010  -38.2110   24.1410 H   0  0  0  0  0  0  0  0  0  0  0  0
  -25.9200  -31.6600   24.8650 C   0  0  1  0  0  0  0  0  0  0  0  0
  -24.8620  -31.2030   25.8970 C   0  0  0  0  0  1  0  0  0  0  0  0
  -26.6770  -30.4040   24.3760 C   0  0  0  0  0  1  0  0  0  0  0  0
  -26.9560  -32.5420   25.6010 C   0  0  0  0  0  1  0  0  0  0  0  0
  -31.5360  -27.3150   23.5180 C   0  0  0  0  0  2  0  0  0  0  0  0
  -30.9810  -25.9460   23.9570 C   0  0  0  0  0  2  0  0  0  0  0  0
  -29.9410  -25.3580   22.9860 C   0  0  0  0  0  2  0  0  0  0  0  0
  -29.4930  -23.9310   23.3700 C   0  0  0  0  0  2  0  0  0  0  0  0
  -30.1720  -22.8750   22.5840 N   0  0  0  0  0  4  0  0  0  0  0  0
  -29.9520  -21.9970   23.0270 H   0  0  0  0  0  0  0  0  0  0  0  0
  -31.1690  -22.9980   22.6370 H   0  0  0  0  0  0  0  0  0  0  0  0
  -29.7350  -22.7790   21.1740 C   0  0  0  0  0  2  0  0  0  0  0  0
  -30.1770  -21.4620   20.5050 C   0  0  0  0  0  2  0  0  0  0  0  0
  -31.6650  -21.4150   20.1140 C   0  0  0  0  0  2  0  0  0  0  0  0
  -32.0000  -20.1670   19.2810 C   0  0  0  0  0  2  0  0  0  0  0  0
  -33.4270  -20.1660   18.6990 C   0  0  0  0  0  2  0  0  0  0  0  0
  -33.5750  -19.0880   17.6130 C   0  0  0  0  0  2  0  0  0  0  0  0
  -34.9190  -19.0880   16.8590 C   0  0  0  0  0  2  0  0  0  0  0  0
  -34.7660  -18.3520   15.5090 C   0  0  0  0  0  2  0  0  0  0  0  0
  -36.0490  -18.1340   14.6880 C   0  0  0  0  0  0  0  0  0  0  0  0
  -37.0790  -17.4980   12.5240 C   0  0  0  0  0  2  0  0  0  0  0  0
  -37.1550  -18.6940   11.5580 C   0  0  0  0  0  2  0  0  0  0  0  0
  -35.8370  -18.8590   10.7760 C   0  0  0  0  0  2  0  0  0  0  0  0
  -34.5920  -18.8350   11.7030 C   0  0  0  0  0  3  0  0  0  0  0  0
  -34.6550  -17.6230   12.6580 C   0  0  0  0  0  2  0  0  0  0  0  0
  -35.9230  -17.6960   13.4070 N   0  0  0  0  0  0  0  0  0  0  0  0
  -37.1490  -18.3500   15.2110 O   0  0  0  0  0  0  0  0  0  0  0  0
  -32.2740  -19.7250   11.0090 C   0  0  0  0  0  0  0  0  0  0  0  0
  -31.4090  -19.3480   10.0170 C   0  0  0  0  0  0  0  0  0  0  0  0
  -32.0260  -18.2410    9.3570 C   0  0  0  0  0  0  0  0  0  0  0  0
  -33.3510  -18.8550   10.9290 N   0  0  0  0  0  0  0  0  0  0  0  0
  -33.1690  -17.9260    9.9550 N   0  0  0  0  0  0  0  0  0  0  0  0
  -31.6230  -17.4970    8.1580 C   0  0  0  0  0  0  0  0  0  0  0  0
  -31.4460  -16.0960    8.1820 C   0  0  0  0  0  3  0  0  0  0  0  0
  -31.0420  -15.4050    7.0200 C   0  0  0  0  0  3  0  0  0  0  0  0
  -30.8060  -16.1150    5.8180 C   0  0  0  0  0  0  0  0  0  0  0  0
  -31.0060  -17.5060    5.7940 C   0  0  0  0  0  3  0  0  0  0  0  0
  -31.4130  -18.1920    6.9500 C   0  0  0  0  0  3  0  0  0  0  0  0
  -30.4350  -15.5240    4.6340 O   0  0  0  0  0  0  0  0  0  0  0  0
  -29.6860  -14.3760    4.6060 C   0  0  0  0  0  0  0  0  0  0  0  0
  -28.4280  -14.2910    5.2410 C   0  0  0  0  0  3  0  0  0  0  0  0
  -27.6590  -13.1140    5.1290 C   0  0  0  0  0  3  0  0  0  0  0  0
  -28.1420  -12.0270    4.3760 C   0  0  0  0  0  0  0  0  0  0  0  0
  -29.3910  -12.1130    3.7370 C   0  0  0  0  0  3  0  0  0  0  0  0
  -30.1600  -13.2840    3.8500 C   0  0  0  0  0  0  0  0  0  0  0  0
  -31.3540  -13.3680    3.2160 F   0  0  0  0  0  0  0  0  0  0  0  0
  -27.4010  -10.9000    4.2600 F   0  0  0  0  0  0  0  0  0  0  0  0
  -30.1260  -20.0300    9.6370 C   0  0  0  0  0  0  0  0  0  0  0  0
  -29.1530  -19.2760    9.1390 N   0  0  0  0  0  0  0  0  0  0  0  0
  -29.9630  -21.2350    9.8260 O   0  0  0  0  0  0  0  0  0  0  0  0
  -29.2790  -18.2830    9.0040 H   0  0  0  0  0  0  0  0  0  0  0  0
  -28.2690  -19.6960    8.8880 H   0  0  0  0  0  0  0  0  0  0  0  0
  -32.2430  -20.7430   11.9580 N   0  0  0  0  0  0  0  0  0  0  0  0
  -31.4910  -21.4230   12.0000 H   0  0  0  0  0  0  0  0  0  0  0  0
  -32.9810  -20.9280   12.6250 H   0  0  0  0  0  0  0  0  0  0  0  0
  1 52  1  0
  2  4  1  0
  3  2  2  0
  5  3  1  0
  5  7  2  0
  6  4  2  0
  6  1  1  0
  7  6  1  0
  9  8  1  0
  9  7  1  0
  9 10  1  0
 11 13  1  0
 11 10  1  0
 12 23  2  0
 13 18  1  0
 14 22  1  0
 14 24  1  0
 15 21  1  0
 15 17  1  0
 16 22  1  0
 17 16  1  0
 18 17  2  0
 19 20  1  0
 19 13  2  0
 20 15  2  0
 21 14  1  0
 22 12  1  0
 24 26  2  0
 25 24  1  0
 27 25  1  0
 28 37  2  0
 28 33  1  0
 29 25  1  0
 30 29  1  0
 31 32  1  0
 31 30  1  0
 32 28  1  0
 33 29  1  0
 33 34  2  0
 34 35  1  0
 36 35  2  0
 37 36  1  0
 38 12  1  0
 38 39  1  0
 38 48  1  0
 39 42  1  0
 40 44  1  0
 40 39  1  0
 41 40  2  0
 44 43  1  0
 46 44  1  0
 46 47  1  0
 46 45  1  0
 48 51  1  1
 48 49  1  0
 50 48  1  0
 52 53  1  0
 54 55  1  0
 54 53  1  0
 56 58  1  0
 56 57  1  0
 56 55  1  0
 59 56  1  0
 60 59  1  0
 61 60  1  0
 62 61  1  0
 63 62  1  0
 64 63  1  0
 65 64  1  0
 66 65  1  0
 67 74  2  0
 67 66  1  0
 68 73  1  0
 69 68  1  0
 70 69  1  0
 71 70  1  0
 71 72  1  0
 72 73  1  0
 73 67  1  0
 75100  1  0
 76 75  2  0
 77 79  2  0
 77 76  1  0
 78 75  1  0
 78 71  1  0
 79 78  1  0
 80 81  1  0
 80 77  1  0
 82 81  2  0
 83 82  1  0
 84 83  2  0
 84 85  1  0
 85 80  2  0
 86 83  1  0
 87 86  1  0
 87 88  1  0
 89 88  2  0
 90 89  1  0
 91 92  1  0
 91 90  2  0
 92 87  2  0
 93 92  1  0
 94 90  1  0
 95 97  2  0
 95 76  1  0
 96 95  1  0
 98 96  1  0
 99 96  1  0
100101  1  0
100102  1  0
M  ISO  4  10 101  11 101  66 100  67 100
M  END
>  <TORSDO>  (94) 
F 32

>  <SCORE>  (94) 
0.147

>  <name>  (94) 
94

>  <ligand_id>  (94) 
94

>  <original_smiles>  (94) 
[H]c1c([H])c([H])c2c(c1[H])C([H])([H])C([H])([H])C([H])([H])C2([H])N([H])C(=O)C1([H])N(C(=O)C([H])(N([H])C(=O)C([H])(N([H])C([H])([H])[H])C([H])([H])[H])C(C([H])([H])[H])(C([H])([H])[H])C([H])([H])[H])C([H])([H])c2c([H])c(OC([H])([H])C([H])(c3c([H])c([H])c([H])c([H])c3C([H])([H])C([H])([H])C([H])([H])C([H])([H])C([H])([H])[N+]([H])([H])C([H])([H])C([H])([H])C([H])([H])C([H])([H])C([H])([H])C([H])([H])C([H])([H])C([H])([H])C(=O)N3C([H])([H])C([H])([H])C([H])([H])C([H])(n4nc(-c5c([H])c([H])c(Oc6c([H])c([H])c(F)c([H])c6F)c([H])c5[H])c(C(=O)N([H])[H])c4N([H])[H])C3([H])[H])C([H])([H])[H])c([H])c([H])c2C1([H])[H]

>  <smiles>  (94) 
[H]c1c([H])c([H])c2c(c1[H])C([H])([H])C([H])([H])C([H])([H])C2([H])N([H])C(=O)C1([H])N(C(=O)C([H])(N([H])C(=O)C([H])(N([H])C([H])([H])[H])C([H])([H])[H])C(C([H])([H])[H])(C([H])([H])[H])C([H])([H])[H])C([H])([H])c2c([H])c(OC([H])([H])C([H])(c3c([H])c([H])c([H])c([H])c3C([H])([H])C([H])([H])C([H])([H])C([H])([H])C([H])([H])[N+]([H])([H])C([H])([H])C([H])([H])C([H])([H])C([H])([H])C([H])([H])C([H])([H])C([H])([H])C([H])([H])C(=O)N3C([H])([H])C([H])([H])C([H])([H])C([H])(n4nc(-c5c([H])c([H])c(Oc6c([H])c([H])c(F)c([H])c6F)c([H])c5[H])c(C(=O)N([H])[H])c4N([H])[H])C3([H])[H])C([H])([H])[H])c([H])c([H])c2C1([H])[H]

$$$$
95:0:0
     RDKit          3D

 95103  0  0  1  0  0  0  0  0999 V2000
  -28.0170  -20.7260   18.4560 C   0  0  0  0  0  3  0  0  0  0  0  0
  -28.6030  -21.9990   18.5440 C   0  0  0  0  0  3  0  0  0  0  0  0
  -26.3860  -22.9710   18.7480 C   0  0  0  0  0  3  0  0  0  0  0  0
  -26.6120  -20.5440   18.5900 C   0  0  0  0  0  0  0  0  0  0  0  0
  -27.7880  -23.1250   18.7510 C   0  0  0  0  0  0  0  0  0  0  0  0
  -25.7930  -21.6980   18.6960 C   0  0  0  0  0  0  0  0  0  0  0  0
  -24.4290  -21.6290   18.7950 O   0  0  0  0  0  0  0  0  0  0  0  0
  -24.1350  -20.7200   18.7310 H   0  0  0  0  0  0  0  0  0  0  0  0
  -26.0110  -19.1740   18.6270 C   0  0  0  0  0  0  0  0  0  0  0  0
  -24.7980  -18.9580   18.7350 O   0  0  0  0  0  0  0  0  0  0  0  0
  -26.9540  -17.9780   18.6460 C   0  0  0  0  0  2  0  0  0  0  0  0
  -27.4550  -17.6580   20.0630 C   0  0  0  0  0  2  0  0  0  0  0  0
  -28.7590  -16.8440   20.0010 C   0  0  0  0  0  2  0  0  0  0  0  0
  -29.6620  -17.0400   21.2300 C   0  0  0  0  0  2  0  0  0  0  0  0
  -31.0650  -16.4040   21.0720 C   0  0  0  0  0  2  0  0  0  0  0  0
  -31.1800  -14.8600   21.1630 C   0  0  0  0  0  2  0  0  0  0  0  0
  -31.2130  -14.0370   19.8360 C   0  0  0  0  0  0  0  0  0  0  0  0
  -30.8100  -11.7760   18.9030 C   0  0  0  0  0  2  0  0  0  0  0  0
  -29.7790  -11.6430   17.7690 C   0  0  0  0  0  2  0  0  0  0  0  0
  -28.3590  -11.5270   18.3350 C   0  0  0  0  0  2  0  0  0  0  0  0
  -28.0530  -12.6480   19.3540 C   0  0  0  0  0  3  0  0  0  0  0  0
  -29.1520  -12.7600   20.4270 C   0  0  0  0  0  2  0  0  0  0  0  0
  -30.4560  -12.9160   19.7660 N   0  0  0  0  0  0  0  0  0  0  0  0
  -32.0670  -14.3050   18.9800 O   0  0  0  0  0  0  0  0  0  0  0  0
  -25.8120  -13.4360   20.3430 C   0  0  0  0  0  0  0  0  0  0  0  0
  -24.7280  -12.7630   20.8130 C   0  0  0  0  0  0  0  0  0  0  0  0
  -25.0580  -11.3780   20.7120 C   0  0  0  0  0  0  0  0  0  0  0  0
  -26.7420  -12.4800   19.9730 N   0  0  0  0  0  0  0  0  0  0  0  0
  -26.2930  -11.2280   20.2480 N   0  0  0  0  0  0  0  0  0  0  0  0
  -24.2430  -10.1880   20.9570 C   0  0  0  0  0  0  0  0  0  0  0  0
  -24.6570   -9.1890   21.8660 C   0  0  0  0  0  3  0  0  0  0  0  0
  -23.8480   -8.0590   22.1010 C   0  0  0  0  0  3  0  0  0  0  0  0
  -22.6110   -7.9180   21.4280 C   0  0  0  0  0  0  0  0  0  0  0  0
  -22.2100   -8.9070   20.5100 C   0  0  0  0  0  3  0  0  0  0  0  0
  -23.0200  -10.0290   20.2730 C   0  0  0  0  0  3  0  0  0  0  0  0
  -21.7720   -6.8410   21.5710 O   0  0  0  0  0  0  0  0  0  0  0  0
  -21.7110   -6.1300   22.7460 C   0  0  0  0  0  0  0  0  0  0  0  0
  -21.3620   -6.7410   23.9690 C   0  0  0  0  0  3  0  0  0  0  0  0
  -21.2420   -5.9600   25.1370 C   0  0  0  0  0  3  0  0  0  0  0  0
  -21.4660   -4.5720   25.0810 C   0  0  0  0  0  0  0  0  0  0  0  0
  -21.8120   -3.9610   23.8640 C   0  0  0  0  0  3  0  0  0  0  0  0
  -21.9320   -4.7390   22.6970 C   0  0  0  0  0  0  0  0  0  0  0  0
  -22.2450   -4.1420   21.5220 F   0  0  0  0  0  0  0  0  0  0  0  0
  -21.3410   -3.8230   26.2010 F   0  0  0  0  0  0  0  0  0  0  0  0
  -23.4200  -13.3630   21.2450 C   0  0  0  0  0  0  0  0  0  0  0  0
  -22.7460  -12.7370   22.1970 N   0  0  0  0  0  0  0  0  0  0  0  0
  -23.0190  -14.4260   20.7700 O   0  0  0  0  0  0  0  0  0  0  0  0
  -23.0730  -11.8660   22.5890 H   0  0  0  0  0  0  0  0  0  0  0  0
  -21.8880  -13.1380   22.5440 H   0  0  0  0  0  0  0  0  0  0  0  0
  -26.0780  -14.7830   20.1820 N   0  0  0  0  0  0  0  0  0  0  0  0
  -25.3920  -15.4960   20.3950 H   0  0  0  0  0  0  0  0  0  0  0  0
  -26.9570  -15.1480   19.8430 H   0  0  0  0  0  0  0  0  0  0  0  0
  -28.4270  -24.4870   18.9650 C   0  0  0  0  0  2  0  0  0  0  0  0
  -28.0130  -25.1780   20.2970 C   0  0  0  0  0  2  0  0  0  0  0  0
  -28.1670  -26.6020   20.2210 O   0  0  0  0  0  0  0  0  0  0  0  0
  -24.5280  -31.8440   23.3150 C   0  0  0  0  0  0  0  0  0  0  0  0
  -27.0070  -27.3440   20.2110 C   0  0  0  0  0  0  0  0  0  0  0  0
  -23.2530  -30.4830   21.6900 C   0  0  0  0  0  3  0  0  0  0  0  0
  -24.6380  -28.8890   20.2680 C   0  0  0  0  0  0  0  0  0  0  0  0
  -25.7890  -30.7790   21.4430 C   0  0  0  0  0  2  0  0  0  0  0  0
  -25.8280  -29.4130   20.7900 C   0  0  0  0  0  0  0  0  0  0  0  0
  -27.0220  -28.6610   20.7280 C   0  0  0  0  0  3  0  0  0  0  0  0
  -25.7960  -26.8270   19.7010 C   0  0  0  0  0  3  0  0  0  0  0  0
  -24.6140  -27.5900   19.7350 C   0  0  0  0  0  3  0  0  0  0  0  0
  -23.4120  -29.7710   20.3200 C   0  0  0  0  0  2  0  0  0  0  0  0
  -24.5410  -31.0520   22.2030 N   0  0  0  0  0  0  0  0  0  0  0  0
  -23.4670  -32.1480   23.8750 O   0  0  0  0  0  0  0  0  0  0  0  0
  -22.5850  -29.4900   22.6690 C   0  0  0  0  0  0  0  0  0  0  0  0
  -21.2560  -29.3310   22.5360 N   0  0  0  0  0  0  0  0  0  0  0  0
  -23.2560  -28.8580   23.4860 O   0  0  0  0  0  0  0  0  0  0  0  0
  -20.7750  -29.9170   21.8710 H   0  0  0  0  0  0  0  0  0  0  0  0
  -17.8710  -28.1430   23.0150 C   0  0  0  0  0  0  0  0  0  0  0  0
  -20.4270  -28.3860   23.2850 C   0  0  0  0  0  3  0  0  0  0  0  0
  -20.5410  -26.9610   22.6880 C   0  0  0  0  0  2  0  0  0  0  0  0
  -19.4100  -26.5980   21.7150 C   0  0  0  0  0  2  0  0  0  0  0  0
  -18.0310  -26.7790   22.3640 C   0  0  0  0  0  2  0  0  0  0  0  0
  -18.9940  -28.9020   23.4360 C   0  0  0  0  0  0  0  0  0  0  0  0
  -18.7830  -30.1740   24.0160 C   0  0  0  0  0  3  0  0  0  0  0  0
  -17.4820  -30.6940   24.1630 C   0  0  0  0  0  3  0  0  0  0  0  0
  -16.3760  -29.9300   23.7540 C   0  0  0  0  0  3  0  0  0  0  0  0
  -16.5690  -28.6570   23.1920 C   0  0  0  0  0  3  0  0  0  0  0  0
  -25.8480  -32.4260   23.9180 C   0  0  0  0  0  3  0  0  0  0  0  0
  -26.3500  -31.6520   25.1980 C   0  0  1  0  0  0  0  0  0  0  0  0
  -25.2600  -31.4540   26.2750 C   0  0  0  0  0  1  0  0  0  0  0  0
  -26.8960  -30.2550   24.8130 C   0  0  0  0  0  1  0  0  0  0  0  0
  -27.5240  -32.4200   25.8550 C   0  0  0  0  0  1  0  0  0  0  0  0
  -25.5970  -33.8400   24.2380 N   0  0  0  0  0  0  0  0  0  0  0  0
  -25.9480  -34.8710   23.4590 C   0  0  0  0  0  0  0  0  0  0  0  0
  -26.5990  -34.7310   22.4200 O   0  0  0  0  0  0  0  0  0  0  0  0
  -25.0440  -34.0210   25.0600 H   0  0  0  0  0  0  0  0  0  0  0  0
  -24.2840  -36.7270   23.1040 C   0  0  0  0  0  1  0  0  0  0  0  0
  -25.5150  -36.2820   23.9100 C   0  0  0  0  0  3  0  0  0  0  0  0
  -27.6860  -37.1030   24.7130 C   0  0  0  0  0  1  0  0  0  0  0  0
  -26.5820  -37.2950   23.7770 N   0  0  0  0  0  0  0  0  0  0  0  0
  -26.2100  -38.2310   23.9180 H   0  0  0  0  0  0  0  0  0  0  0  0
  1  2  2  0
  1  4  1  0
  2  5  1  0
  3  5  2  0
  4  9  1  0
  4  6  2  0
  5 53  1  0
  6  3  1  0
  6  7  1  0
  8  7  1  0
  9 11  1  0
  9 10  2  0
 11 12  1  0
 13 12  1  0
 13 14  1  0
 15 16  1  0
 15 14  1  0
 17 16  1  0
 18 23  1  0
 19 20  1  0
 19 18  1  0
 21 20  1  0
 21 28  1  0
 21 22  1  0
 23 17  1  0
 23 22  1  0
 24 17  2  0
 25 26  2  0
 26 45  1  0
 27 26  1  0
 27 30  1  0
 28 29  1  0
 28 25  1  0
 29 27  2  0
 30 31  1  0
 31 32  2  0
 33 36  1  0
 33 32  1  0
 34 33  2  0
 35 34  1  0
 35 30  2  0
 36 37  1  0
 37 38  1  0
 38 39  2  0
 40 39  1  0
 40 44  1  0
 41 40  2  0
 42 37  2  0
 42 41  1  0
 43 42  1  0
 45 46  1  0
 46 49  1  0
 46 48  1  0
 47 45  2  0
 50 25  1  0
 50 51  1  0
 52 50  1  0
 53 54  1  0
 55 54  1  0
 56 67  2  0
 57 55  1  0
 57 62  1  0
 58 66  1  0
 58 68  1  0
 59 65  1  0
 59 61  1  0
 60 66  1  0
 61 60  1  0
 62 61  2  0
 63 64  1  0
 63 57  2  0
 64 59  2  0
 65 58  1  0
 66 56  1  0
 68 70  2  0
 69 68  1  0
 71 69  1  0
 72 81  2  0
 72 77  1  0
 73 69  1  0
 73 77  1  0
 74 73  1  0
 75 76  1  0
 75 74  1  0
 76 72  1  0
 77 78  2  0
 78 79  1  0
 80 79  2  0
 81 80  1  0
 82 56  1  0
 82 87  1  0
 82 83  1  0
 83 86  1  1
 83 84  1  0
 85 83  1  0
 87 90  1  0
 88 92  1  0
 88 87  1  0
 89 88  2  0
 92 91  1  0
 94 92  1  0
 94 95  1  0
 94 93  1  0
M  ISO  4  16 100  17 100  54 101  55 101
M  END
>  <TORSDO>  (95) 
F 26

>  <SCORE>  (95) 
-10.918

>  <name>  (95) 
95

>  <ligand_id>  (95) 
95

>  <original_smiles>  (95) 
[H]Oc1c([H])c(C([H])([H])C([H])([H])Oc2c([H])c([H])c3c(c2[H])C([H])([H])N(C(=O)C([H])(N([H])C(=O)C([H])(N([H])C([H])([H])[H])C([H])([H])[H])C(C([H])([H])[H])(C([H])([H])[H])C([H])([H])[H])C([H])(C(=O)N([H])C2([H])c4c([H])c([H])c([H])c([H])c4C([H])([H])C([H])([H])C2([H])[H])C3([H])[H])c([H])c([H])c1C(=O)C([H])([H])C([H])([H])C([H])([H])C([H])([H])C([H])([H])C([H])([H])C(=O)N1C([H])([H])C([H])([H])C([H])([H])C([H])(n2nc(-c3c([H])c([H])c(Oc4c([H])c([H])c(F)c([H])c4F)c([H])c3[H])c(C(=O)N([H])[H])c2N([H])[H])C1([H])[H]

>  <smiles>  (95) 
[H]Oc1c([H])c(C([H])([H])C([H])([H])Oc2c([H])c([H])c3c(c2[H])C([H])([H])N(C(=O)C([H])(N([H])C(=O)C([H])(N([H])C([H])([H])[H])C([H])([H])[H])C(C([H])([H])[H])(C([H])([H])[H])C([H])([H])[H])C([H])(C(=O)N([H])C2([H])c4c([H])c([H])c([H])c([H])c4C([H])([H])C([H])([H])C2([H])[H])C3([H])[H])c([H])c([H])c1C(=O)C([H])([H])C([H])([H])C([H])([H])C([H])([H])C([H])([H])C([H])([H])C(=O)N1C([H])([H])C([H])([H])C([H])([H])C([H])(n2nc(-c3c([H])c([H])c(Oc4c([H])c([H])c(F)c([H])c4F)c([H])c3[H])c(C(=O)N([H])[H])c2N([H])[H])C1([H])[H]

$$$$
96:0:0
     RDKit          3D

108115  0  0  1  0  0  0  0  0999 V2000
  -22.6580  -30.8270   19.5260 C   0  0  0  0  0  3  0  0  0  0  0  0
  -24.1000  -30.6140   20.2710 C   0  0  0  0  0  1  0  0  0  0  0  0
  -22.0720  -29.6390   18.6150 C   0  0  0  0  0  3  0  0  0  0  0  0
  -24.0320  -27.7080   18.9280 C   0  0  0  0  0  2  0  0  0  0  0  0
  -24.8670  -28.5460   19.9490 C   0  0  0  0  0  2  0  0  0  0  0  0
  -22.7710  -28.2550   18.2420 C   0  0  0  0  0  3  0  0  0  0  0  0
  -25.9730  -27.4410   20.3840 C   0  0  0  0  0  3  0  0  0  0  0  0
  -26.9090  -27.1270   21.3630 C   0  0  0  0  0  3  0  0  0  0  0  0
  -27.7220  -24.8970   22.5790 C   0  0  0  0  0  1  0  0  0  0  0  0
  -27.9400  -25.9470   21.4500 C   0  0  0  0  0  3  0  0  0  0  0  0
  -31.1220  -27.4700   23.0350 C   0  0  0  0  0  3  0  0  0  0  0  0
  -31.5800  -26.8920   20.7100 C   0  0  0  0  0  3  0  0  0  0  0  0
  -29.8380  -26.8950   22.9190 C   0  0  0  0  0  3  0  0  0  0  0  0
  -30.3050  -26.3150   20.6010 C   0  0  0  0  0  3  0  0  0  0  0  0
  -31.9240  -27.5900   21.8820 C   0  0  0  0  0  0  0  0  0  0  0  0
  -29.3840  -26.4090   21.6650 C   0  0  0  0  0  0  0  0  0  0  0  0
  -32.9450  -28.7080   21.7780 C   0  0  0  0  0  2  0  0  0  0  0  0
  -32.2510  -30.1040   21.7520 C   0  0  0  0  0  2  0  0  0  0  0  0
  -30.7000  -30.1560   21.6040 C   0  0  0  0  0  2  0  0  0  0  0  0
  -29.9800  -29.6350   22.7450 O   0  0  0  0  0  0  0  0  0  0  0  0
  -23.9060  -27.9640   26.8310 C   0  0  0  0  0  0  0  0  0  0  0  0
  -28.6570  -29.9170   22.9330 C   0  0  0  0  0  0  0  0  0  0  0  0
  -23.1160  -28.9180   24.4270 C   0  0  0  0  0  2  0  0  0  0  0  0
  -26.2580  -31.1310   23.2160 C   0  0  0  0  0  3  0  0  0  0  0  0
  -25.9490  -29.3730   25.8260 C   0  0  0  0  0  2  0  0  0  0  0  0
  -26.8110  -30.3750   24.5320 C   0  0  0  0  0  3  0  0  0  0  0  0
  -28.1270  -29.9670   24.2580 C   0  0  0  0  0  3  0  0  0  0  0  0
  -27.9180  -30.2320   21.8040 C   0  0  0  0  0  2  0  0  0  0  0  0
  -26.8310  -31.0050   21.9670 C   0  0  0  0  0  2  0  0  0  0  0  0
  -24.6810  -31.1210   22.6160 C   0  0  0  0  0  1  0  0  0  0  0  0
  -24.3380  -28.6060   25.7470 N   0  0  0  0  0  0  0  0  0  0  0  0
  -22.7260  -27.6310   26.9260 O   0  0  0  0  0  0  0  0  0  0  0  0
  -22.6760  -27.5890   23.9240 C   0  0  0  0  0  0  0  0  0  0  0  0
  -21.6670  -27.7870   23.1130 N   0  0  0  0  0  0  0  0  0  0  0  0
  -23.4150  -26.6040   23.9590 O   0  0  0  0  0  0  0  0  0  0  0  0
  -21.3120  -28.7240   23.0690 H   0  0  0  0  0  0  0  0  0  0  0  0
  -19.1160  -27.4410   20.7690 C   0  0  0  0  0  0  0  0  0  0  0  0
  -21.2270  -26.9080   22.0870 C   0  0  0  0  0  0  0  0  0  0  0  0
  -22.0150  -26.9420   20.7550 C   0  0  0  0  0  3  0  0  0  0  0  0
  -21.3540  -27.5360   19.5010 C   0  0  0  0  0  3  0  0  0  0  0  0
  -19.8450  -27.6220   19.4590 C   0  0  0  0  0  3  0  0  0  0  0  0
  -19.7540  -27.1430   21.9870 C   0  0  0  0  0  0  0  0  0  0  0  0
  -19.0020  -27.0910   23.1830 C   0  0  0  0  0  3  0  0  0  0  0  0
  -17.6150  -27.2660   23.1550 C   0  0  0  0  0  3  0  0  0  0  0  0
  -16.9710  -27.5000   21.9280 C   0  0  0  0  0  3  0  0  0  0  0  0
  -17.7230  -27.5970   20.7460 C   0  0  0  0  0  3  0  0  0  0  0  0
  -24.8830  -27.6240   27.9930 C   0  0  0  0  0  3  0  0  0  0  0  0
  -24.1220  -27.7670   29.2290 N   0  0  0  0  0  0  0  0  0  0  0  0
  -24.1960  -28.8040   30.0660 C   0  0  0  0  0  0  0  0  0  0  0  0
  -24.9790  -29.7450   29.9090 O   0  0  0  0  0  0  0  0  0  0  0  0
  -23.4020  -27.0770   29.3970 H   0  0  0  0  0  0  0  0  0  0  0  0
  -22.0310  -29.6730   31.0120 C   0  0  0  0  0  1  0  0  0  0  0  0
  -23.2500  -28.7780   31.2800 C   0  0  0  0  0  3  0  0  0  0  0  0
  -24.9070  -28.2300   33.0050 C   0  0  0  0  0  1  0  0  0  0  0  0
  -23.9060  -29.1840   32.5410 N   0  0  0  0  0  0  0  0  0  0  0  0
  -23.2160  -29.3030   33.2810 H   0  0  0  0  0  0  0  0  0  0  0  0
  -25.4630  -26.1710   27.8820 C   0  0  1  0  0  0  0  0  0  0  0  0
  -24.3850  -25.1070   27.5830 C   0  0  0  0  0  1  0  0  0  0  0  0
  -26.4970  -26.0540   26.7780 C   0  0  0  0  0  1  0  0  0  0  0  0
  -26.2170  -25.7960   29.1750 C   0  0  0  0  0  1  0  0  0  0  0  0
  -22.8660  -27.7680   16.7250 C   0  0  0  0  0  2  0  0  0  0  0  0
  -24.3070  -27.5940   15.9460 C   0  0  0  0  0  2  0  0  0  0  0  0
  -25.2790  -26.3240   15.7810 C   0  0  0  0  0  2  0  0  0  0  0  0
  -26.4600  -26.5590   14.6980 C   0  0  0  0  0  3  0  0  0  0  0  0
  -27.7960  -25.6730   14.5970 C   0  0  0  0  0  3  0  0  0  0  0  0
  -28.8610  -26.0240   13.4420 C   0  0  0  0  0  3  0  0  0  0  0  0
  -30.3510  -25.4280   13.4920 C   0  0  0  0  0  3  0  0  0  0  0  0
  -31.2810  -25.5290   12.1900 C   0  0  0  0  0  3  0  0  0  0  0  0
  -32.7800  -24.9850   12.2650 C   0  0  0  0  0  3  0  0  0  0  0  0
  -33.8390  -25.3870   11.1420 C   0  0  0  0  0  2  0  0  0  0  0  0
  -35.8820  -24.2050    9.9340 C   0  0  0  0  0  0  0  0  0  0  0  0
  -36.3610  -22.9100    7.8920 C   0  0  0  0  0  2  0  0  0  0  0  0
  -35.0590  -22.9480    7.0580 C   0  0  0  0  0  2  0  0  0  0  0  0
  -34.0490  -21.8690    7.5080 C   0  0  0  0  0  2  0  0  0  0  0  0
  -33.8760  -21.8350    9.0500 C   0  0  0  0  0  3  0  0  0  0  0  0
  -35.2560  -21.7950    9.7470 C   0  0  0  0  0  2  0  0  0  0  0  0
  -35.9870  -22.9950    9.3120 N   0  0  0  0  0  0  0  0  0  0  0  0
  -36.5810  -25.1730    9.6070 O   0  0  0  0  0  0  0  0  0  0  0  0
  -34.7720  -24.2870   10.7420 N   0  0  0  0  0  0  0  0  0  0  0  0
  -34.3710  -23.3740   10.8930 H   0  0  0  0  0  0  0  0  0  0  0  0
  -31.8460  -20.7730   10.2040 C   0  0  0  0  0  0  0  0  0  0  0  0
  -31.4240  -19.4770   10.2910 C   0  0  0  0  0  0  0  0  0  0  0  0
  -32.4200  -18.6990    9.6280 C   0  0  0  0  0  0  0  0  0  0  0  0
  -33.0340  -20.7350    9.4950 N   0  0  0  0  0  0  0  0  0  0  0  0
  -33.4100  -19.4710    9.2030 N   0  0  0  0  0  0  0  0  0  0  0  0
  -32.4710  -17.2680    9.3170 C   0  0  0  0  0  0  0  0  0  0  0  0
  -33.5880  -16.4800    9.6650 C   0  0  0  0  0  3  0  0  0  0  0  0
  -33.6090  -15.1010    9.3610 C   0  0  0  0  0  3  0  0  0  0  0  0
  -32.5050  -14.4980    8.7120 C   0  0  0  0  0  0  0  0  0  0  0  0
  -31.4100  -15.3010    8.3420 C   0  0  0  0  0  3  0  0  0  0  0  0
  -31.3930  -16.6730    8.6400 C   0  0  0  0  0  3  0  0  0  0  0  0
  -32.4500  -13.1720    8.3550 O   0  0  0  0  0  0  0  0  0  0  0  0
  -33.1270  -12.2100    9.0580 C   0  0  0  0  0  0  0  0  0  0  0  0
  -32.9440  -12.0300   10.4490 C   0  0  0  0  0  3  0  0  0  0  0  0
  -33.6090  -10.9830   11.1160 C   0  0  0  0  0  3  0  0  0  0  0  0
  -34.4490  -10.1120   10.4000 C   0  0  0  0  0  0  0  0  0  0  0  0
  -34.6260  -10.2810    9.0160 C   0  0  0  0  0  3  0  0  0  0  0  0
  -33.9650  -11.3260    8.3470 C   0  0  0  0  0  0  0  0  0  0  0  0
  -34.1200  -11.4730    7.0100 F   0  0  0  0  0  0  0  0  0  0  0  0
  -35.0820   -9.0980   11.0400 F   0  0  0  0  0  0  0  0  0  0  0  0
  -30.1300  -18.9910   10.8750 C   0  0  0  0  0  0  0  0  0  0  0  0
  -30.1270  -17.7770   11.4090 N   0  0  0  0  0  0  0  0  0  0  0  0
  -29.1280  -19.7040   10.9020 O   0  0  0  0  0  0  0  0  0  0  0  0
  -30.9700  -17.2250   11.4200 H   0  0  0  0  0  0  0  0  0  0  0  0
  -29.2850  -17.4190   11.8350 H   0  0  0  0  0  0  0  0  0  0  0  0
  -31.3180  -21.9830   10.6390 N   0  0  0  0  0  0  0  0  0  0  0  0
  -30.4440  -22.0620   11.1460 H   0  0  0  0  0  0  0  0  0  0  0  0
  -31.7950  -22.8660   10.5270 H   0  0  0  0  0  0  0  0  0  0  0  0
  1  2  1  0
  3  1  2  0
  4  5  1  0
  5  7  1  0
  6 61  1  0
  6  3  1  0
  6  4  1  0
  7  8  2  0
  8 10  1  0
 10 16  1  0
 10  9  1  0
 12 15  1  0
 13 11  1  0
 14 12  2  0
 14 16  1  0
 15 11  2  0
 16 13  2  0
 17 15  1  0
 18 17  1  0
 19 18  1  0
 19 20  1  0
 20 22  1  0
 21 32  2  0
 22 27  2  0
 23 31  1  0
 24 30  1  0
 24 26  1  0
 26 25  1  0
 27 26  1  0
 28 29  1  0
 28 22  1  0
 29 24  1  0
 31 25  1  0
 31 21  1  0
 33 35  2  0
 33 23  1  0
 34 33  1  0
 36 34  1  0
 37 42  1  0
 38 34  1  0
 39 38  2  0
 40 39  1  0
 41 40  2  0
 41 37  1  0
 42 38  1  0
 42 43  2  0
 44 43  1  0
 45 44  2  0
 46 37  2  0
 46 45  1  0
 47 21  1  0
 47 48  1  0
 48 51  1  0
 48 49  1  0
 49 53  1  0
 50 49  2  0
 53 52  1  0
 53 55  1  0
 55 54  1  0
 55 56  1  0
 57 47  1  0
 57 60  1  1
 58 57  1  0
 59 57  1  0
 62 61  1  0
 63 62  1  0
 64 63  1  0
 65 64  2  0
 66 67  2  0
 66 65  1  0
 68 69  2  0
 68 67  1  0
 70 69  1  0
 71 79  1  0
 72 77  1  0
 73 74  1  0
 73 72  1  0
 75 74  1  0
 75 84  1  0
 75 76  1  0
 77 76  1  0
 77 71  1  0
 78 71  2  0
 79 80  1  0
 79 70  1  0
 81 82  2  0
 81106  1  0
 82101  1  0
 83 82  1  0
 84 81  1  0
 85 84  1  0
 85 83  2  0
 86 83  1  0
 86 87  1  0
 88 87  2  0
 89 88  1  0
 90 91  1  0
 90 89  2  0
 91 86  2  0
 92 89  1  0
 92 93  1  0
 93 94  1  0
 94 95  2  0
 96100  1  0
 96 95  1  0
 97 96  2  0
 98 97  1  0
 98 93  2  0
 99 98  1  0
101103  2  0
101102  1  0
102104  1  0
102105  1  0
106107  1  0
108106  1  0
M  ISO  4  19 101  20 101  71 100  79 100
M  END
>  <TORSDO>  (96) 
F 32

>  <SCORE>  (96) 
0.665

>  <name>  (96) 
96

>  <ligand_id>  (96) 
96

>  <original_smiles>  (96) 
[H]C(=C([H])C([H])(c1c([H])c([H])c(C([H])([H])C([H])([H])C([H])([H])Oc2c([H])c([H])c3c(c2[H])C([H])([H])N(C(=O)C([H])(N([H])C(=O)C([H])(N([H])C([H])([H])[H])C([H])([H])[H])C(C([H])([H])[H])(C([H])([H])[H])C([H])([H])[H])C([H])(C(=O)N([H])C2([H])c4c([H])c([H])c([H])c([H])c4C([H])([H])C([H])([H])C2([H])[H])C3([H])[H])c([H])c1[H])C([H])([H])[H])c1c([H])c([H])c([H])c(C([H])([H])C([H])([H])C([H])([H])C([H])([H])C([H])([H])C([H])([H])C([H])([H])C([H])([H])C([H])([H])C([H])([H])N([H])C(=O)N2C([H])([H])C([H])([H])C([H])([H])C([H])(n3nc(-c4c([H])c([H])c(Oc5c([H])c([H])c(F)c([H])c5F)c([H])c4[H])c(C(=O)N([H])[H])c3N([H])[H])C2([H])[H])c1[H]

>  <smiles>  (96) 
[H]C(=C([H])C([H])(c1c([H])c([H])c(C([H])([H])C([H])([H])C([H])([H])Oc2c([H])c([H])c3c(c2[H])C([H])([H])N(C(=O)C([H])(N([H])C(=O)C([H])(N([H])C([H])([H])[H])C([H])([H])[H])C(C([H])([H])[H])(C([H])([H])[H])C([H])([H])[H])C([H])(C(=O)N([H])C2([H])c4c([H])c([H])c([H])c([H])c4C([H])([H])C([H])([H])C2([H])[H])C3([H])[H])c([H])c1[H])C([H])([H])[H])c1c([H])c([H])c([H])c(C([H])([H])C([H])([H])C([H])([H])C([H])([H])C([H])([H])C([H])([H])C([H])([H])C([H])([H])C([H])([H])C([H])([H])N([H])C(=O)N2C([H])([H])C([H])([H])C([H])([H])C([H])(n3nc(-c4c([H])c([H])c(Oc5c([H])c([H])c(F)c([H])c5F)c([H])c4[H])c(C(=O)N([H])[H])c3N([H])[H])C2([H])[H])c1[H]

$$$$
97:0:0
     RDKit          3D

108117  0  0  1  0  0  0  0  0999 V2000
  -25.0830  -27.6960   15.4360 C   0  0  0  0  0  2  0  0  0  0  0  0
  -23.3460  -24.6580   13.8690 C   0  0  0  0  0  3  0  0  0  0  0  0
  -23.8660  -25.9560   14.0450 C   0  0  0  0  0  3  0  0  0  0  0  0
  -23.4390  -23.7120   14.9080 C   0  0  0  0  0  3  0  0  0  0  0  0
  -24.5390  -25.3710   16.3100 C   0  0  0  0  0  3  0  0  0  0  0  0
  -24.4750  -26.3130   15.2640 C   0  0  0  0  0  0  0  0  0  0  0  0
  -24.0390  -24.0650   16.1340 C   0  0  0  0  0  0  0  0  0  0  0  0
  -24.1730  -23.0400   17.2480 C   0  0  0  0  0  2  0  0  0  0  0  0
  -25.5970  -22.4640   17.3330 C   0  0  0  0  0  2  0  0  0  0  0  0
  -25.7330  -21.3310   18.3640 C   0  0  0  0  0  2  0  0  0  0  0  0
  -27.1760  -20.8070   18.4690 C   0  0  0  0  0  2  0  0  0  0  0  0
  -27.3280  -19.6090   19.4210 C   0  0  0  0  0  2  0  0  0  0  0  0
  -28.7960  -19.1700   19.5560 C   0  0  0  0  0  2  0  0  0  0  0  0
  -29.0090  -17.9800   20.5070 C   0  0  0  0  0  2  0  0  0  0  0  0
  -30.5040  -17.6450   20.6690 C   0  0  0  0  0  2  0  0  0  0  0  0
  -30.8080  -16.5420   21.7030 C   0  0  0  0  0  2  0  0  0  0  0  0
  -30.7690  -14.3660   20.4850 C   0  0  0  0  0  0  0  0  0  0  0  0
  -30.4120  -12.2500   19.2710 C   0  0  0  0  0  2  0  0  0  0  0  0
  -29.4820  -12.4740   18.0630 C   0  0  0  0  0  2  0  0  0  0  0  0
  -28.0030  -12.3610   18.4830 C   0  0  0  0  0  2  0  0  0  0  0  0
  -27.6740  -13.2120   19.7370 C   0  0  0  0  0  3  0  0  0  0  0  0
  -28.7090  -12.9580   20.8550 C   0  0  0  0  0  2  0  0  0  0  0  0
  -30.0520  -13.2260   20.3080 N   0  0  0  0  0  0  0  0  0  0  0  0
  -31.8280  -14.6000   19.8960 O   0  0  0  0  0  0  0  0  0  0  0  0
  -30.2360  -15.2480   21.3420 N   0  0  0  0  0  0  0  0  0  0  0  0
  -29.3740  -14.9760   21.7930 H   0  0  0  0  0  0  0  0  0  0  0  0
  -25.2750  -13.8720   20.4040 C   0  0  0  0  0  0  0  0  0  0  0  0
  -24.1900  -13.1220   20.7730 C   0  0  0  0  0  0  0  0  0  0  0  0
  -24.6300  -11.7630   20.7680 C   0  0  0  0  0  0  0  0  0  0  0  0
  -26.3090  -12.9700   20.2010 N   0  0  0  0  0  0  0  0  0  0  0  0
  -25.9220  -11.6970   20.4750 N   0  0  0  0  0  0  0  0  0  0  0  0
  -23.8820  -10.5150   20.9720 C   0  0  0  0  0  0  0  0  0  0  0  0
  -24.3010   -9.5490   21.9140 C   0  0  0  0  0  3  0  0  0  0  0  0
  -23.5550   -8.3660   22.1040 C   0  0  0  0  0  3  0  0  0  0  0  0
  -22.3780   -8.1390   21.3520 C   0  0  0  0  0  0  0  0  0  0  0  0
  -21.9790   -9.0950   20.4000 C   0  0  0  0  0  3  0  0  0  0  0  0
  -22.7250  -10.2690   20.2080 C   0  0  0  0  0  3  0  0  0  0  0  0
  -21.6060   -7.0070   21.4510 O   0  0  0  0  0  0  0  0  0  0  0  0
  -21.5530   -6.2700   22.6060 C   0  0  0  0  0  0  0  0  0  0  0  0
  -21.1580   -6.8400   23.8360 C   0  0  0  0  0  3  0  0  0  0  0  0
  -21.0500   -6.0300   24.9840 C   0  0  0  0  0  3  0  0  0  0  0  0
  -21.3290   -4.6520   24.9050 C   0  0  0  0  0  0  0  0  0  0  0  0
  -21.7170   -4.0830   23.6800 C   0  0  0  0  0  3  0  0  0  0  0  0
  -21.8260   -4.8890   22.5330 C   0  0  0  0  0  0  0  0  0  0  0  0
  -22.1810   -4.3320   21.3510 F   0  0  0  0  0  0  0  0  0  0  0  0
  -21.2180   -3.8730   26.0060 F   0  0  0  0  0  0  0  0  0  0  0  0
  -22.7980  -13.6240   21.0240 C   0  0  0  0  0  0  0  0  0  0  0  0
  -22.0510  -12.9550   21.8960 N   0  0  0  0  0  0  0  0  0  0  0  0
  -22.3800  -14.6470   20.4830 O   0  0  0  0  0  0  0  0  0  0  0  0
  -22.4020  -12.1270   22.3560 H   0  0  0  0  0  0  0  0  0  0  0  0
  -21.1180  -13.2750   22.1070 H   0  0  0  0  0  0  0  0  0  0  0  0
  -25.4650  -15.2350   20.2060 N   0  0  0  0  0  0  0  0  0  0  0  0
  -24.7110  -15.9080   20.2990 H   0  0  0  0  0  0  0  0  0  0  0  0
  -26.3320  -15.6540   19.8950 H   0  0  0  0  0  0  0  0  0  0  0  0
  -26.5120  -27.8260   14.8670 C   0  0  0  0  0  2  0  0  0  0  0  0
  -27.6660  -25.5880   15.2950 C   0  0  0  0  0  3  0  0  0  0  0  0
  -28.6590  -24.8140   15.9250 C   0  0  0  0  0  3  0  0  0  0  0  0
  -28.4890  -27.5690   16.4440 C   0  0  0  0  0  3  0  0  0  0  0  0
  -27.5660  -26.9700   15.5610 C   0  0  0  0  0  0  0  0  0  0  0  0
  -29.5080  -26.8080   17.0570 C   0  0  0  0  0  0  0  0  0  0  0  0
  -29.5810  -25.4150   16.8020 C   0  0  0  0  0  0  0  0  0  0  0  0
  -30.5670  -24.6200   17.3860 N   0  0  0  0  0  0  0  0  0  0  0  0
  -30.4270  -23.6160   17.4120 H   0  0  0  0  0  0  0  0  0  0  0  0
  -31.0300  -24.9740   18.2150 H   0  0  0  0  0  0  0  0  0  0  0  0
  -30.5380  -27.5350   17.9190 C   0  0  0  0  0  2  0  0  0  0  0  0
  -29.9940  -28.1240   19.2350 C   0  0  0  0  0  2  0  0  0  0  0  0
  -29.5890  -27.0810   20.2980 C   0  0  0  0  0  2  0  0  0  0  0  0
  -28.3270  -26.4830   20.0170 O   0  0  0  0  0  0  0  0  0  0  0  0
  -24.5140  -31.6800   23.1520 C   0  0  0  0  0  0  0  0  0  0  0  0
  -27.1870  -27.2540   20.0980 C   0  0  0  0  0  0  0  0  0  0  0  0
  -23.3180  -30.2890   21.4850 C   0  0  0  0  0  3  0  0  0  0  0  0
  -24.7790  -28.7390   20.0840 C   0  0  0  0  0  0  0  0  0  0  0  0
  -25.8460  -30.6300   21.3360 C   0  0  0  0  0  2  0  0  0  0  0  0
  -25.9260  -29.2640   20.6940 C   0  0  0  0  0  0  0  0  0  0  0  0
  -27.1250  -28.5290   20.7110 C   0  0  0  0  0  3  0  0  0  0  0  0
  -26.0200  -26.7260   19.5160 C   0  0  0  0  0  3  0  0  0  0  0  0
  -24.8160  -27.4600   19.5000 C   0  0  0  0  0  3  0  0  0  0  0  0
  -23.5430  -29.6090   20.1070 C   0  0  0  0  0  2  0  0  0  0  0  0
  -24.5740  -30.8850   22.0470 N   0  0  0  0  0  0  0  0  0  0  0  0
  -23.4280  -31.9610   23.6780 O   0  0  0  0  0  0  0  0  0  0  0  0
  -22.6500  -29.2720   22.4350 C   0  0  0  0  0  0  0  0  0  0  0  0
  -21.3210  -29.1260   22.3140 N   0  0  0  0  0  0  0  0  0  0  0  0
  -23.3230  -28.6170   23.2350 O   0  0  0  0  0  0  0  0  0  0  0  0
  -20.8440  -29.7040   21.6360 H   0  0  0  0  0  0  0  0  0  0  0  0
  -17.9160  -28.0430   22.8370 C   0  0  0  0  0  0  0  0  0  0  0  0
  -20.4840  -28.2020   23.0770 C   0  0  0  0  0  3  0  0  0  0  0  0
  -20.5280  -26.7820   22.4640 C   0  0  0  0  0  2  0  0  0  0  0  0
  -19.4010  -26.5220   21.4610 C   0  0  0  0  0  2  0  0  0  0  0  0
  -18.0350  -26.7030   22.1290 C   0  0  0  0  0  2  0  0  0  0  0  0
  -19.0680  -28.7540   23.2670 C   0  0  0  0  0  0  0  0  0  0  0  0
  -18.9060  -30.0130   23.8880 C   0  0  0  0  0  3  0  0  0  0  0  0
  -17.6230  -30.5570   24.0850 C   0  0  0  0  0  3  0  0  0  0  0  0
  -16.4850  -29.8410   23.6700 C   0  0  0  0  0  3  0  0  0  0  0  0
  -16.6330  -28.5860   23.0530 C   0  0  0  0  0  3  0  0  0  0  0  0
  -25.8000  -32.2950   23.7890 C   0  0  0  0  0  3  0  0  0  0  0  0
  -25.4930  -33.6860   24.1430 N   0  0  0  0  0  0  0  0  0  0  0  0
  -25.8170  -34.7510   23.3960 C   0  0  0  0  0  0  0  0  0  0  0  0
  -26.4800  -34.6650   22.3590 O   0  0  0  0  0  0  0  0  0  0  0  0
  -24.9060  -33.8280   24.9510 H   0  0  0  0  0  0  0  0  0  0  0  0
  -24.0740  -36.5380   23.0890 C   0  0  0  0  0  1  0  0  0  0  0  0
  -25.3290  -36.1300   23.8770 C   0  0  0  0  0  3  0  0  0  0  0  0
  -27.4730  -37.0150   24.6830 C   0  0  0  0  0  1  0  0  0  0  0  0
  -26.3540  -37.1890   23.7620 N   0  0  0  0  0  0  0  0  0  0  0  0
  -25.9440  -38.1060   23.9280 H   0  0  0  0  0  0  0  0  0  0  0  0
  -26.3130  -31.5000   25.0510 C   0  0  1  0  0  0  0  0  0  0  0  0
  -25.2200  -31.2470   26.1140 C   0  0  0  0  0  1  0  0  0  0  0  0
  -26.8950  -30.1280   24.6350 C   0  0  0  0  0  1  0  0  0  0  0  0
  -27.4640  -32.2820   25.7290 C   0  0  0  0  0  1  0  0  0  0  0  0
  2  3  2  0
  2  4  1  0
  3  6  1  0
  4  7  2  0
  6  1  1  0
  6  5  2  0
  7  5  1  0
  7  8  1  0
  8  9  1  0
  9 10  1  0
 10 11  1  0
 11 12  1  0
 12 13  1  0
 13 14  1  0
 14 15  1  0
 15 16  1  0
 17 25  1  0
 18 23  1  0
 19 20  1  0
 19 18  1  0
 21 20  1  0
 21 30  1  0
 21 22  1  0
 23 17  1  0
 23 22  1  0
 24 17  2  0
 25 16  1  0
 25 26  1  0
 27 28  2  0
 28 47  1  0
 29 28  1  0
 29 32  1  0
 30 27  1  0
 30 31  1  0
 31 29  2  0
 32 33  1  0
 33 34  2  0
 35 38  1  0
 35 34  1  0
 36 35  2  0
 37 36  1  0
 37 32  2  0
 38 39  1  0
 39 40  1  0
 40 41  2  0
 42 41  1  0
 42 46  1  0
 43 42  2  0
 44 39  2  0
 44 43  1  0
 45 44  1  0
 47 48  1  0
 48 51  1  0
 48 50  1  0
 49 47  2  0
 52 53  1  0
 52 27  1  0
 54 52  1  0
 55  1  1  0
 55 59  1  0
 56 59  2  0
 56 57  1  0
 57 61  2  0
 58 60  2  0
 59 58  1  0
 60 65  1  0
 61 60  1  0
 61 62  1  0
 62 63  1  0
 62 64  1  0
 65 66  1  0
 66 67  1  0
 68 70  1  0
 68 67  1  0
 69 80  2  0
 70 75  1  0
 71 79  1  0
 71 81  1  0
 72 78  1  0
 72 74  1  0
 73 79  1  0
 74 75  2  0
 74 73  1  0
 76 70  2  0
 77 76  1  0
 77 72  2  0
 78 71  1  0
 79 69  1  0
 81 83  2  0
 82 81  1  0
 84 82  1  0
 85 94  2  0
 85 90  1  0
 86 82  1  0
 86 90  1  0
 87 86  1  0
 88 89  1  0
 88 87  1  0
 89 85  1  0
 90 91  2  0
 91 92  1  0
 93 92  2  0
 94 93  1  0
 95 69  1  0
 95 96  1  0
 95105  1  0
 96 99  1  0
 97101  1  0
 97 96  1  0
 98 97  2  0
101100  1  0
103101  1  0
103104  1  0
103102  1  0
105108  1  1
105106  1  0
107105  1  0
M  ISO  4  17 100  25 100  67 101  68 101
M  END
>  <TORSDO>  (97) 
F 32

>  <SCORE>  (97) 
-10.931

>  <name>  (97) 
97

>  <ligand_id>  (97) 
97

>  <original_smiles>  (97) 
[H]c1c([H])c([H])c2c(c1[H])C([H])([H])C([H])([H])C([H])([H])C2([H])N([H])C(=O)C1([H])N(C(=O)C([H])(N([H])C(=O)C([H])(N([H])C([H])([H])[H])C([H])([H])[H])C(C([H])([H])[H])(C([H])([H])[H])C([H])([H])[H])C([H])([H])c2c([H])c(OC([H])([H])C([H])([H])C([H])([H])c3c([H])c(C([H])([H])C([H])([H])c4c([H])c([H])c([H])c(C([H])([H])C([H])([H])C([H])([H])C([H])([H])C([H])([H])C([H])([H])C([H])([H])C([H])([H])C([H])([H])N([H])C(=O)N5C([H])([H])C([H])([H])C([H])([H])C([H])(n6nc(-c7c([H])c([H])c(Oc8c([H])c([H])c(F)c([H])c8F)c([H])c7[H])c(C(=O)N([H])[H])c6N([H])[H])C5([H])[H])c4[H])c([H])c([H])c3N([H])[H])c([H])c([H])c2C1([H])[H]

>  <smiles>  (97) 
[H]c1c([H])c([H])c2c(c1[H])C([H])([H])C([H])([H])C([H])([H])C2([H])N([H])C(=O)C1([H])N(C(=O)C([H])(N([H])C(=O)C([H])(N([H])C([H])([H])[H])C([H])([H])[H])C(C([H])([H])[H])(C([H])([H])[H])C([H])([H])[H])C([H])([H])c2c([H])c(OC([H])([H])C([H])([H])C([H])([H])c3c([H])c(C([H])([H])C([H])([H])c4c([H])c([H])c([H])c(C([H])([H])C([H])([H])C([H])([H])C([H])([H])C([H])([H])C([H])([H])C([H])([H])C([H])([H])C([H])([H])N([H])C(=O)N5C([H])([H])C([H])([H])C([H])([H])C([H])(n6nc(-c7c([H])c([H])c(Oc8c([H])c([H])c(F)c([H])c8F)c([H])c7[H])c(C(=O)N([H])[H])c6N([H])[H])C5([H])[H])c4[H])c([H])c([H])c3N([H])[H])c([H])c([H])c2C1([H])[H]

$$$$
98:0:0
     RDKit          3D

 91 98  0  0  1  0  0  0  0  0999 V2000
  -28.5560  -23.9510   19.0460 C   0  0  0  0  0  2  0  0  0  0  0  0
  -30.4810  -24.3840   17.3530 C   0  0  0  0  0  1  0  0  0  0  0  0
  -28.9840  -24.5630   17.6920 C   0  0  0  0  0  3  0  0  0  0  0  0
  -28.5590  -26.0470   17.5970 C   0  0  0  0  0  2  0  0  0  0  0  0
  -29.0550  -26.9720   18.7380 C   0  0  0  0  0  2  0  0  0  0  0  0
  -28.3960  -26.7930   20.0000 O   0  0  0  0  0  0  0  0  0  0  0  0
  -24.6040  -31.9000   23.2410 C   0  0  0  0  0  0  0  0  0  0  0  0
  -27.2160  -27.4830   20.1090 C   0  0  0  0  0  0  0  0  0  0  0  0
  -23.3750  -30.4930   21.6140 C   0  0  0  0  0  3  0  0  0  0  0  0
  -24.8130  -28.9420   20.1910 C   0  0  0  0  0  0  0  0  0  0  0  0
  -25.8970  -30.8530   21.3900 C   0  0  0  0  0  2  0  0  0  0  0  0
  -25.9770  -29.4800   20.7590 C   0  0  0  0  0  0  0  0  0  0  0  0
  -27.1830  -28.7520   20.7250 C   0  0  0  0  0  3  0  0  0  0  0  0
  -26.0290  -26.9340   19.5860 C   0  0  0  0  0  3  0  0  0  0  0  0
  -24.8280  -27.6640   19.6120 C   0  0  0  0  0  3  0  0  0  0  0  0
  -23.5670  -29.7940   20.2410 C   0  0  0  0  0  2  0  0  0  0  0  0
  -24.6440  -31.0970   22.1410 N   0  0  0  0  0  0  0  0  0  0  0  0
  -23.5300  -32.1750   23.7960 O   0  0  0  0  0  0  0  0  0  0  0  0
  -22.7320  -29.4760   22.5830 C   0  0  0  0  0  0  0  0  0  0  0  0
  -21.4090  -29.2910   22.4600 N   0  0  0  0  0  0  0  0  0  0  0  0
  -23.4190  -28.8480   23.3950 O   0  0  0  0  0  0  0  0  0  0  0  0
  -20.9180  -29.8570   21.7810 H   0  0  0  0  0  0  0  0  0  0  0  0
  -18.0390  -28.0990   22.9740 C   0  0  0  0  0  0  0  0  0  0  0  0
  -20.5960  -28.3600   23.2350 C   0  0  0  0  0  3  0  0  0  0  0  0
  -20.6940  -26.9270   22.6660 C   0  0  0  0  0  2  0  0  0  0  0  0
  -19.5890  -26.5970   21.6560 C   0  0  0  0  0  2  0  0  0  0  0  0
  -18.2120  -26.7460   22.3060 C   0  0  0  0  0  2  0  0  0  0  0  0
  -19.1560  -28.8650   23.3950 C   0  0  0  0  0  0  0  0  0  0  0  0
  -18.9390  -30.1320   23.9780 C   0  0  0  0  0  3  0  0  0  0  0  0
  -17.6350  -30.6360   24.1440 C   0  0  0  0  0  3  0  0  0  0  0  0
  -16.5300  -29.8660   23.7430 C   0  0  0  0  0  3  0  0  0  0  0  0
  -16.7320  -28.5970   23.1680 C   0  0  0  0  0  3  0  0  0  0  0  0
  -25.8980  -32.5270   23.8460 C   0  0  0  0  0  3  0  0  0  0  0  0
  -26.4420  -31.7440   25.1020 C   0  0  1  0  0  0  0  0  0  0  0  0
  -25.3720  -31.4840   26.1880 C   0  0  0  0  0  1  0  0  0  0  0  0
  -27.0290  -30.3760   24.6790 C   0  0  0  0  0  1  0  0  0  0  0  0
  -27.6030  -32.5410   25.7460 C   0  0  0  0  0  1  0  0  0  0  0  0
  -25.5950  -33.9220   24.1900 N   0  0  0  0  0  0  0  0  0  0  0  0
  -25.9060  -34.9770   23.4240 C   0  0  0  0  0  0  0  0  0  0  0  0
  -26.5580  -34.8790   22.3810 O   0  0  0  0  0  0  0  0  0  0  0  0
  -25.0300  -34.0740   25.0110 H   0  0  0  0  0  0  0  0  0  0  0  0
  -24.1640  -36.7660   23.1090 C   0  0  0  0  0  1  0  0  0  0  0  0
  -25.4200  -36.3610   23.8940 C   0  0  0  0  0  3  0  0  0  0  0  0
  -27.5630  -37.2520   24.6960 C   0  0  0  0  0  1  0  0  0  0  0  0
  -26.4440  -37.4230   23.7720 N   0  0  0  0  0  0  0  0  0  0  0  0
  -26.0340  -38.3370   23.9460 H   0  0  0  0  0  0  0  0  0  0  0  0
  -28.2080  -22.4550   19.0670 C   0  0  0  0  0  2  0  0  0  0  0  0
  -29.4130  -21.5030   19.0380 C   0  0  0  0  0  2  0  0  0  0  0  0
  -29.1310  -20.2020   19.8120 C   0  0  0  0  0  2  0  0  0  0  0  0
  -30.3440  -19.2660   19.8680 C   0  0  0  0  0  2  0  0  0  0  0  0
  -30.1540  -18.1020   20.8550 C   0  0  0  0  0  2  0  0  0  0  0  0
  -31.4480  -17.2900   21.0250 C   0  0  0  0  0  2  0  0  0  0  0  0
  -31.3050  -16.0220   21.8930 C   0  0  0  0  0  2  0  0  0  0  0  0
  -30.7750  -14.2470   20.2160 C   0  0  0  0  0  0  0  0  0  0  0  0
  -30.2720  -12.2180   18.9140 C   0  0  0  0  0  2  0  0  0  0  0  0
  -29.2750  -12.4960   17.7780 C   0  0  0  0  0  2  0  0  0  0  0  0
  -27.8250  -12.3740   18.2800 C   0  0  0  0  0  2  0  0  0  0  0  0
  -27.5800  -13.1790   19.5820 C   0  0  0  0  0  3  0  0  0  0  0  0
  -28.6800  -12.9020   20.6300 C   0  0  0  0  0  2  0  0  0  0  0  0
  -29.9940  -13.1570   20.0100 N   0  0  0  0  0  0  0  0  0  0  0  0
  -31.7540  -14.5150   19.5150 O   0  0  0  0  0  0  0  0  0  0  0  0
  -30.4700  -14.9770   21.2990 N   0  0  0  0  0  0  0  0  0  0  0  0
  -29.6640  -14.6740   21.8260 H   0  0  0  0  0  0  0  0  0  0  0  0
  -25.2190  -13.8200   20.3860 C   0  0  0  0  0  0  0  0  0  0  0  0
  -24.1570  -13.0620   20.8030 C   0  0  0  0  0  0  0  0  0  0  0  0
  -24.5980  -11.7060   20.7580 C   0  0  0  0  0  0  0  0  0  0  0  0
  -26.2440  -12.9250   20.1160 N   0  0  0  0  0  0  0  0  0  0  0  0
  -25.8720  -11.6480   20.3930 N   0  0  0  0  0  0  0  0  0  0  0  0
  -23.8640  -10.4520   20.9830 C   0  0  0  0  0  0  0  0  0  0  0  0
  -24.3300   -9.4760   21.8900 C   0  0  0  0  0  3  0  0  0  0  0  0
  -23.5960   -8.2900   22.1050 C   0  0  0  0  0  3  0  0  0  0  0  0
  -22.3800   -8.0710   21.4140 C   0  0  0  0  0  0  0  0  0  0  0  0
  -21.9340   -9.0360   20.4930 C   0  0  0  0  0  3  0  0  0  0  0  0
  -22.6690  -10.2140   20.2760 C   0  0  0  0  0  3  0  0  0  0  0  0
  -21.6140   -6.9380   21.5380 O   0  0  0  0  0  0  0  0  0  0  0  0
  -21.6200   -6.1880   22.6860 C   0  0  0  0  0  0  0  0  0  0  0  0
  -21.3000   -6.7460   23.9420 C   0  0  0  0  0  3  0  0  0  0  0  0
  -21.2510   -5.9250   25.0860 C   0  0  0  0  0  3  0  0  0  0  0  0
  -21.5100   -4.5460   24.9750 C   0  0  0  0  0  0  0  0  0  0  0  0
  -21.8230   -3.9860   23.7230 C   0  0  0  0  0  3  0  0  0  0  0  0
  -21.8740   -4.8050   22.5820 C   0  0  0  0  0  0  0  0  0  0  0  0
  -22.1550   -4.2580   21.3750 F   0  0  0  0  0  0  0  0  0  0  0  0
  -21.4560   -3.7530   26.0710 F   0  0  0  0  0  0  0  0  0  0  0  0
  -22.7810  -13.5590   21.1370 C   0  0  0  0  0  0  0  0  0  0  0  0
  -22.0880  -12.8770   22.0420 N   0  0  0  0  0  0  0  0  0  0  0  0
  -22.3320  -14.5900   20.6350 O   0  0  0  0  0  0  0  0  0  0  0  0
  -22.4670  -12.0420   22.4670 H   0  0  0  0  0  0  0  0  0  0  0  0
  -21.1670  -13.1930   22.3110 H   0  0  0  0  0  0  0  0  0  0  0  0
  -25.3940  -15.1870   20.1960 N   0  0  0  0  0  0  0  0  0  0  0  0
  -24.6450  -15.8560   20.3390 H   0  0  0  0  0  0  0  0  0  0  0  0
  -26.2430  -15.6160   19.8480 H   0  0  0  0  0  0  0  0  0  0  0  0
  1 47  1  0
  3  2  1  0
  3  1  1  0
  4  3  1  0
  4  5  1  0
  5  6  1  0
  6  8  1  0
  7 18  2  0
  8 13  1  0
  9 17  1  0
  9 19  1  0
 10 16  1  0
 10 12  1  0
 11 17  1  0
 12 11  1  0
 13 12  2  0
 14 15  1  0
 14  8  2  0
 15 10  2  0
 16  9  1  0
 17  7  1  0
 19 21  2  0
 20 19  1  0
 22 20  1  0
 23 32  2  0
 23 28  1  0
 24 20  1  0
 24 28  1  0
 25 24  1  0
 26 27  1  0
 26 25  1  0
 27 23  1  0
 28 29  2  0
 29 30  1  0
 31 30  2  0
 32 31  1  0
 33  7  1  0
 33 38  1  0
 33 34  1  0
 34 37  1  1
 34 35  1  0
 36 34  1  0
 38 41  1  0
 39 43  1  0
 39 38  1  0
 40 39  2  0
 43 42  1  0
 45 43  1  0
 45 46  1  0
 45 44  1  0
 48 47  1  0
 48 49  1  0
 49 50  1  0
 50 51  1  0
 51 52  1  0
 52 53  1  0
 54 62  1  0
 55 60  1  0
 56 57  1  0
 56 55  1  0
 58 57  1  0
 58 67  1  0
 58 59  1  0
 60 54  1  0
 60 59  1  0
 61 54  2  0
 62 63  1  0
 62 53  1  0
 64 65  2  0
 65 84  1  0
 66 65  1  0
 66 69  1  0
 67 64  1  0
 67 68  1  0
 68 66  2  0
 69 70  1  0
 70 71  2  0
 72 75  1  0
 72 71  1  0
 73 72  2  0
 74 73  1  0
 74 69  2  0
 75 76  1  0
 76 77  1  0
 77 78  2  0
 79 78  1  0
 79 83  1  0
 80 79  2  0
 81 76  2  0
 81 80  1  0
 82 81  1  0
 84 85  1  0
 85 88  1  0
 85 87  1  0
 86 84  2  0
 89 90  1  0
 89 64  1  0
 91 89  1  0
M  ISO  4   5 101   6 101  54 100  62 100
M  END
>  <TORSDO>  (98) 
F 26

>  <SCORE>  (98) 
-11.616

>  <name>  (98) 
98

>  <ligand_id>  (98) 
98

>  <original_smiles>  (98) 
[H]c1c([H])c([H])c2c(c1[H])C([H])([H])C([H])([H])C([H])([H])C2([H])N([H])C(=O)C1([H])N(C(=O)C([H])(N([H])C(=O)C([H])(N([H])C([H])([H])[H])C([H])([H])[H])C(C([H])([H])[H])(C([H])([H])[H])C([H])([H])[H])C([H])([H])c2c([H])c(OC([H])([H])C([H])([H])C([H])(C([H])([H])[H])C([H])([H])C([H])([H])C([H])([H])C([H])([H])C([H])([H])C([H])([H])C([H])([H])C([H])([H])N([H])C(=O)N3C([H])([H])C([H])([H])C([H])([H])C([H])(n4nc(-c5c([H])c([H])c(Oc6c([H])c([H])c(F)c([H])c6F)c([H])c5[H])c(C(=O)N([H])[H])c4N([H])[H])C3([H])[H])c([H])c([H])c2C1([H])[H]

>  <smiles>  (98) 
[H]c1c([H])c([H])c2c(c1[H])C([H])([H])C([H])([H])C([H])([H])C2([H])N([H])C(=O)C1([H])N(C(=O)C([H])(N([H])C(=O)C([H])(N([H])C([H])([H])[H])C([H])([H])[H])C(C([H])([H])[H])(C([H])([H])[H])C([H])([H])[H])C([H])([H])c2c([H])c(OC([H])([H])C([H])([H])C([H])(C([H])([H])[H])C([H])([H])C([H])([H])C([H])([H])C([H])([H])C([H])([H])C([H])([H])C([H])([H])C([H])([H])N([H])C(=O)N3C([H])([H])C([H])([H])C([H])([H])C([H])(n4nc(-c5c([H])c([H])c(Oc6c([H])c([H])c(F)c([H])c6F)c([H])c5[H])c(C(=O)N([H])[H])c4N([H])[H])C3([H])[H])c([H])c([H])c2C1([H])[H]

$$$$
