0:0:0
     RDKit          3D

 93101  0  0  1  0  0  0  0  0999 V2000
  -25.4130  -21.5960   19.9610 C   0  0  0  0  0  3  0  0  0  0  0  0
  -26.4370  -20.6260   20.0140 C   0  0  0  0  0  3  0  0  0  0  0  0
  -25.5610  -22.7380   19.1470 C   0  0  0  0  0  3  0  0  0  0  0  0
  -27.7700  -21.9730   18.4720 C   0  0  0  0  0  3  0  0  0  0  0  0
  -27.6200  -20.8210   19.2720 C   0  0  0  0  0  0  0  0  0  0  0  0
  -26.7300  -22.9130   18.3750 C   0  0  0  0  0  0  0  0  0  0  0  0
  -28.6920  -19.8070   19.3130 C   0  0  0  0  0  0  0  0  0  0  0  0
  -29.4480  -19.6490   20.2720 O   0  0  0  0  0  0  0  0  0  0  0  0
  -28.7330  -18.8890   18.0900 C   0  0  0  0  0  2  0  0  0  0  0  0
  -29.7610  -17.7300   18.0910 C   0  0  0  0  0  2  0  0  0  0  0  0
  -29.8050  -16.8740   19.3750 C   0  0  0  0  0  2  0  0  0  0  0  0
  -31.6990  -15.2040   19.0660 C   0  0  0  0  0  0  0  0  0  0  0  0
  -31.6710  -12.7290   18.8720 C   0  0  0  0  0  2  0  0  0  0  0  0
  -30.6670  -12.2630   17.7940 C   0  0  0  0  0  2  0  0  0  0  0  0
  -29.2280  -12.1860   18.3520 C   0  0  0  0  0  2  0  0  0  0  0  0
  -28.8290  -13.4710   19.1250 C   0  0  0  0  0  3  0  0  0  0  0  0
  -29.9230  -13.7910   20.1630 C   0  0  0  0  0  2  0  0  0  0  0  0
  -31.1760  -14.0010   19.4290 N   0  0  0  0  0  0  0  0  0  0  0  0
  -32.7220  -15.2930   18.3800 O   0  0  0  0  0  0  0  0  0  0  0  0
  -31.1440  -16.3010   19.6270 N   0  0  0  0  0  0  0  0  0  0  0  0
  -31.8250  -17.0320   19.7720 H   0  0  0  0  0  0  0  0  0  0  0  0
  -26.6530  -14.3290   20.2110 C   0  0  0  0  0  0  0  0  0  0  0  0
  -25.5360  -13.6750   20.6610 C   0  0  0  0  0  0  0  0  0  0  0  0
  -25.7820  -12.2900   20.4310 C   0  0  0  0  0  0  0  0  0  0  0  0
  -27.5170  -13.3460   19.7530 N   0  0  0  0  0  0  0  0  0  0  0  0
  -26.9970  -12.1080   19.9300 N   0  0  0  0  0  0  0  0  0  0  0  0
  -24.9030  -11.1270   20.5970 C   0  0  0  0  0  0  0  0  0  0  0  0
  -25.2440  -10.0650   21.4610 C   0  0  0  0  0  3  0  0  0  0  0  0
  -24.3780   -8.9620   21.6120 C   0  0  0  0  0  3  0  0  0  0  0  0
  -23.1550   -8.9170   20.9010 C   0  0  0  0  0  0  0  0  0  0  0  0
  -22.8330   -9.9670   20.0230 C   0  0  0  0  0  3  0  0  0  0  0  0
  -23.6980  -11.0630   19.8700 C   0  0  0  0  0  3  0  0  0  0  0  0
  -22.2620   -7.8760   20.9710 O   0  0  0  0  0  0  0  0  0  0  0  0
  -22.0350   -7.2040   22.1440 C   0  0  0  0  0  0  0  0  0  0  0  0
  -21.5400   -7.8540   23.2960 C   0  0  0  0  0  3  0  0  0  0  0  0
  -21.2530   -7.1110   24.4570 C   0  0  0  0  0  3  0  0  0  0  0  0
  -21.4510   -5.7160   24.4670 C   0  0  0  0  0  0  0  0  0  0  0  0
  -21.9380   -5.0640   23.3210 C   0  0  0  0  0  3  0  0  0  0  0  0
  -22.2270   -5.8070   22.1620 C   0  0  0  0  0  0  0  0  0  0  0  0
  -22.6760   -5.1710   21.0530 F   0  0  0  0  0  0  0  0  0  0  0  0
  -21.1690   -4.9990   25.5810 F   0  0  0  0  0  0  0  0  0  0  0  0
  -24.2770  -14.3080   21.1740 C   0  0  0  0  0  0  0  0  0  0  0  0
  -23.5990  -13.6550   22.1150 N   0  0  0  0  0  0  0  0  0  0  0  0
  -23.9080  -15.4110   20.7770 O   0  0  0  0  0  0  0  0  0  0  0  0
  -23.9110  -12.7630   22.4650 H   0  0  0  0  0  0  0  0  0  0  0  0
  -22.7520  -14.0590   22.4870 H   0  0  0  0  0  0  0  0  0  0  0  0
  -26.9800  -15.6730   20.1390 N   0  0  0  0  0  0  0  0  0  0  0  0
  -26.2930  -16.3850   20.3700 H   0  0  0  0  0  0  0  0  0  0  0  0
  -27.7830  -16.0380   19.6410 H   0  0  0  0  0  0  0  0  0  0  0  0
  -26.8780  -24.0810   17.4120 C   0  0  0  0  0  2  0  0  0  0  0  0
  -27.6680  -25.2580   18.0100 C   0  0  0  0  0  2  0  0  0  0  0  0
  -27.6960  -26.5200   17.1140 C   0  0  0  0  0  2  0  0  0  0  0  0
  -27.7010  -27.7170   17.9010 O   0  0  0  0  0  0  0  0  0  0  0  0
  -24.4030  -31.3340   23.0820 C   0  0  0  0  0  0  0  0  0  0  0  0
  -26.5000  -28.2190   18.3640 C   0  0  0  0  0  0  0  0  0  0  0  0
  -22.9320  -30.2430   21.4200 C   0  0  0  0  0  3  0  0  0  0  0  0
  -24.0850  -29.3190   19.3500 C   0  0  0  0  0  0  0  0  0  0  0  0
  -25.3000  -30.9700   20.7820 C   0  0  0  0  0  2  0  0  0  0  0  0
  -25.3140  -29.8250   19.7890 C   0  0  0  0  0  0  0  0  0  0  0  0
  -26.5220  -29.2750   19.3010 C   0  0  0  0  0  3  0  0  0  0  0  0
  -25.2420  -27.7190   17.9410 C   0  0  0  0  0  3  0  0  0  0  0  0
  -24.0430  -28.2590   18.4300 C   0  0  0  0  0  3  0  0  0  0  0  0
  -22.8420  -29.9780   19.8950 C   0  0  0  0  0  2  0  0  0  0  0  0
  -24.2420  -30.8540   21.8160 N   0  0  0  0  0  0  0  0  0  0  0  0
  -23.4670  -31.3140   23.8930 O   0  0  0  0  0  0  0  0  0  0  0  0
  -22.6040  -28.9340   22.1680 C   0  0  0  0  0  0  0  0  0  0  0  0
  -21.3400  -28.4890   22.0720 N   0  0  0  0  0  0  0  0  0  0  0  0
  -23.4770  -28.3290   22.7980 O   0  0  0  0  0  0  0  0  0  0  0  0
  -20.6730  -29.0700   21.5820 H   0  0  0  0  0  0  0  0  0  0  0  0
  -18.4490  -26.3220   22.1780 C   0  0  0  0  0  0  0  0  0  0  0  0
  -20.8130  -27.2540   22.6570 C   0  0  0  0  0  3  0  0  0  0  0  0
  -21.3530  -25.9990   21.9320 C   0  0  0  0  0  2  0  0  0  0  0  0
  -20.4260  -25.4750   20.8270 C   0  0  0  0  0  2  0  0  0  0  0  0
  -19.0280  -25.1730   21.3760 C   0  0  0  0  0  2  0  0  0  0  0  0
  -19.2850  -27.3010   22.7680 C   0  0  0  0  0  0  0  0  0  0  0  0
  -18.6930  -28.3630   23.4800 C   0  0  0  0  0  3  0  0  0  0  0  0
  -17.2940  -28.4430   23.6160 C   0  0  0  0  0  3  0  0  0  0  0  0
  -16.4670  -27.4560   23.0520 C   0  0  0  0  0  3  0  0  0  0  0  0
  -17.0470  -26.3990   22.3340 C   0  0  0  0  0  3  0  0  0  0  0  0
  -25.7540  -31.9470   23.5590 C   0  0  0  0  0  3  0  0  0  0  0  0
  -25.4790  -33.3070   24.0390 N   0  0  0  0  0  0  0  0  0  0  0  0
  -25.7480  -34.4250   23.3510 C   0  0  0  0  0  0  0  0  0  0  0  0
  -26.3310  -34.4190   22.2630 O   0  0  0  0  0  0  0  0  0  0  0  0
  -24.9650  -33.3830   24.9050 H   0  0  0  0  0  0  0  0  0  0  0  0
  -24.0340  -36.2630   23.2590 C   0  0  0  0  0  1  0  0  0  0  0  0
  -25.3040  -35.7650   23.9700 C   0  0  0  0  0  3  0  0  0  0  0  0
  -27.4820  -36.5420   24.7970 C   0  0  0  0  0  1  0  0  0  0  0  0
  -26.3480  -36.8110   23.9180 N   0  0  0  0  0  0  0  0  0  0  0  0
  -25.9620  -37.7170   24.1680 H   0  0  0  0  0  0  0  0  0  0  0  0
  -26.4610  -31.0930   24.6800 C   0  0  1  0  0  0  0  0  0  0  0  0
  -25.5450  -30.7670   25.8820 C   0  0  0  0  0  1  0  0  0  0  0  0
  -26.9800  -29.7560   24.0990 C   0  0  0  0  0  1  0  0  0  0  0  0
  -27.7010  -31.8490   25.2160 C   0  0  0  0  0  1  0  0  0  0  0  0
  1  2  1  0
  3  1  2  0
  4  5  1  0
  5  7  1  0
  5  2  2  0
  6  4  2  0
  6  3  1  0
  7  8  2  0
  9 10  1  0
  9  7  1  0
 10 11  1  0
 11 20  1  0
 12 18  1  0
 12 20  1  0
 13 18  1  0
 14 15  1  0
 14 13  1  0
 16 15  1  0
 16 25  1  0
 16 17  1  0
 18 17  1  0
 19 12  2  0
 20 21  1  0
 22 23  2  0
 23 42  1  0
 24 27  1  0
 24 23  1  0
 25 26  1  0
 25 22  1  0
 26 24  2  0
 27 28  1  0
 28 29  2  0
 30 33  1  0
 30 29  1  0
 31 30  2  0
 32 31  1  0
 32 27  2  0
 33 34  1  0
 34 39  2  0
 34 35  1  0
 35 36  2  0
 36 37  1  0
 37 41  1  0
 38 37  2  0
 39 38  1  0
 40 39  1  0
 42 43  1  0
 43 45  1  0
 43 46  1  0
 44 42  2  0
 47 22  1  0
 47 48  1  0
 49 47  1  0
 50 51  1  0
 50  6  1  0
 52 53  1  0
 52 51  1  0
 53 55  1  0
 54 65  2  0
 55 60  1  0
 56 64  1  0
 56 66  1  0
 57 59  1  0
 57 63  1  0
 58 64  1  0
 59 58  1  0
 60 59  2  0
 61 55  2  0
 61 62  1  0
 62 57  2  0
 63 56  1  0
 64 54  1  0
 66 68  2  0
 67 66  1  0
 69 67  1  0
 70 79  2  0
 70 75  1  0
 71 67  1  0
 71 75  1  0
 72 71  1  0
 73 74  1  0
 73 72  1  0
 74 70  1  0
 75 76  2  0
 76 77  1  0
 78 77  2  0
 79 78  1  0
 80 54  1  0
 80 81  1  0
 80 90  1  0
 81 84  1  0
 82 86  1  0
 82 81  1  0
 83 82  2  0
 86 85  1  0
 88 86  1  0
 88 89  1  0
 88 87  1  0
 90 93  1  1
 90 91  1  0
 92 90  1  0
M  ISO  4  12 100  20 100  52 101  53 101
M  END
>  <TORSDO>  (1) 
F 23

>  <SCORE>  (1) 
-6.648

>  <name>  (1) 
0

>  <ligand_id>  (1) 
0

>  <original_smiles>  (1) 
[H]c1c([H])c(C(=O)C([H])([H])C([H])([H])C([H])([H])N([H])C(=O)N2C([H])([H])C([H])([H])C([H])([H])C([H])(n3nc(-c4c([H])c([H])c(Oc5c([H])c([H])c(F)c([H])c5F)c([H])c4[H])c(C(=O)N([H])[H])c3N([H])[H])C2([H])[H])c([H])c(C([H])([H])C([H])([H])C([H])([H])Oc2c([H])c([H])c3c(c2[H])C([H])([H])N(C(=O)C([H])(N([H])C(=O)C([H])(N([H])C([H])([H])[H])C([H])([H])[H])C(C([H])([H])[H])(C([H])([H])[H])C([H])([H])[H])C([H])(C(=O)N([H])C2([H])c4c([H])c([H])c([H])c([H])c4C([H])([H])C([H])([H])C2([H])[H])C3([H])[H])c1[H]

>  <smiles>  (1) 
[H]c1c([H])c(C(=O)C([H])([H])C([H])([H])C([H])([H])N([H])C(=O)N2C([H])([H])C([H])([H])C([H])([H])C([H])(n3nc(-c4c([H])c([H])c(Oc5c([H])c([H])c(F)c([H])c5F)c([H])c4[H])c(C(=O)N([H])[H])c3N([H])[H])C2([H])[H])c([H])c(C([H])([H])C([H])([H])C([H])([H])Oc2c([H])c([H])c3c(c2[H])C([H])([H])N(C(=O)C([H])(N([H])C(=O)C([H])(N([H])C([H])([H])[H])C([H])([H])[H])C(C([H])([H])[H])(C([H])([H])[H])C([H])([H])[H])C([H])(C(=O)N([H])C2([H])c4c([H])c([H])c([H])c([H])c4C([H])([H])C([H])([H])C2([H])[H])C3([H])[H])c1[H]

$$$$
1:0:0
     RDKit          3D

 94 92  0  0  1  0  0  0  0  0999 V2000
  -26.9300  -19.1300   19.4900 C   0  0  0  0  0  1  0  0  0  0  0  0
  -27.9630  -19.1090   18.4240 N   0  0  0  0  0  4  0  0  0  0  0  0
  -27.4950  -18.9760   17.5440 H   0  0  0  0  0  0  0  0  0  0  0  0
  -28.3320  -20.0490   18.3910 H   0  0  0  0  0  0  0  0  0  0  0  0
  -29.7070  -18.1790   17.0250 C   0  0  0  0  0  1  0  0  0  0  0  0
  -29.1580  -18.2350   18.4870 C   0  0  0  0  0  3  0  0  0  0  0  0
  -28.8530  -16.8800   19.2190 C   0  0  0  0  0  2  0  0  0  0  0  0
  -29.9600  -16.0640   19.8810 C   0  0  0  0  0  2  0  0  0  0  0  0
  -30.7830  -15.2710   18.8940 C   0  0  0  0  0  2  0  0  0  0  0  0
  -31.2540  -13.8360   19.1190 C   0  0  0  0  0  0  0  0  0  0  0  0
  -30.8480  -11.4090   18.8990 C   0  0  0  0  0  2  0  0  0  0  0  0
  -29.8070  -11.0940   17.7860 C   0  0  0  0  0  2  0  0  0  0  0  0
  -28.3900  -11.2320   18.3340 C   0  0  0  0  0  2  0  0  0  0  0  0
  -28.3390  -12.6170   18.9810 C   0  0  0  0  0  3  0  0  0  0  0  0
  -29.3060  -12.7010   20.1670 C   0  0  0  0  0  2  0  0  0  0  0  0
  -30.5640  -12.7320   19.5050 N   0  0  0  0  0  0  0  0  0  0  0  0
  -32.3520  -13.7160   18.6140 O   0  0  0  0  0  0  0  0  0  0  0  0
  -25.1670  -13.7530   19.1230 C   0  0  0  0  0  2  0  0  0  0  0  0
  -23.9080  -12.8600   20.3850 C   0  0  0  0  0  1  0  0  0  0  0  0
  -24.8370  -11.4180   21.4540 C   0  0  0  0  0  1  0  0  0  0  0  0
  -27.1460  -12.8330   19.5260 N   0  0  0  0  0  1  0  0  0  0  0  0
  -26.7680  -11.4220   21.0450 N   0  0  0  0  0 15  0  0  0  0  0  0
  -24.2160   -9.9430   21.3940 C   0  0  0  0  0  0  0  0  0  0  0  0
  -24.6950   -8.8550   22.1810 C   0  0  0  0  0  3  0  0  0  0  0  0
  -24.0250   -7.5980   22.2790 C   0  0  0  0  0  3  0  0  0  0  0  0
  -22.8330   -7.3330   21.5600 C   0  0  0  0  0  0  0  0  0  0  0  0
  -22.4500   -8.3090   20.6120 C   0  0  0  0  0  3  0  0  0  0  0  0
  -23.1360   -9.5580   20.5190 C   0  0  0  0  0  3  0  0  0  0  0  0
  -22.0720   -6.1800   21.6990 O   0  0  0  0  0  0  0  0  0  0  0  0
  -21.9020   -5.5470   22.9200 C   0  0  0  0  0  0  0  0  0  0  0  0
  -21.4050   -6.2230   24.0610 C   0  0  0  0  0  3  0  0  0  0  0  0
  -21.2220   -5.5310   25.2800 C   0  0  0  0  0  3  0  0  0  0  0  0
  -21.5160   -4.1580   25.3690 C   0  0  0  0  0  0  0  0  0  0  0  0
  -21.9850   -3.4750   24.2310 C   0  0  0  0  0  3  0  0  0  0  0  0
  -22.1650   -4.1630   23.0180 C   0  0  0  0  0  0  0  0  0  0  0  0
  -22.5860   -3.4750   21.9290 F   0  0  0  0  0  0  0  0  0  0  0  0
  -21.3460   -3.4930   26.5380 F   0  0  0  0  0  0  0  0  0  0  0  0
  -22.5650  -13.0920   20.7780 C   0  0  0  0  0  0  0  0  0  0  0  0
  -22.1230  -12.3900   21.8190 N   0  0  0  0  0  0  0  0  0  0  0  0
  -21.9610  -13.9530   20.1910 O   0  0  0  0  0  0  0  0  0  0  0  0
  -22.6760  -11.6610   22.2460 H   0  0  0  0  0  0  0  0  0  0  0  0
  -21.1940  -12.5650   22.1730 H   0  0  0  0  0  0  0  0  0  0  0  0
  -25.2750  -14.8820   18.4390 N   0  0  0  0  0  4  0  0  0  0  0  0
  -24.6420  -14.7680   17.6450 H   0  0  0  0  0  0  0  0  0  0  0  0
  -26.2340  -14.8630   18.0840 H   0  0  0  0  0  0  0  0  0  0  0  0
  -26.3370  -17.0650   20.0080 C   0  0  0  0  0 15  0  0  0  0  0  0
  -26.2740  -14.9370   19.8670 C   0  0  0  0  0  2  0  0  0  0  0  0
  -26.0070  -13.5640   22.1150 C   0  0  0  0  0  1  0  0  0  0  0  0
  -26.2370  -14.7070   21.2210 N   0  0  0  0  0  0  0  0  0  0  0  0
  -26.2370  -13.3880   17.7660 O   0  0  0  0  0  1  0  0  0  0  0  0
  -26.4280  -15.5570   21.7350 H   0  0  0  0  0  0  0  0  0  0  0  0
  -26.7840  -21.2880   19.8010 C   0  0  0  0  0 15  0  0  0  0  0  0
  -27.4570  -23.3740   19.7500 C   0  0  0  0  0 15  0  0  0  0  0  0
  -27.6450  -25.2990   19.3440 O   0  0  0  0  0  1  0  0  0  0  0  0
  -24.6570  -31.7930   22.8780 C   0  0  0  0  0  0  0  0  0  0  0  0
  -26.9580  -26.7800   19.4340 C   0  0  0  0  0  0  0  0  0  0  0  0
  -23.4890  -30.4990   21.1600 C   0  0  0  0  0  3  0  0  0  0  0  0
  -24.9140  -29.0800   19.5050 C   0  0  0  0  0  0  0  0  0  0  0  0
  -26.0600  -30.6910   20.9780 C   0  0  0  0  0  2  0  0  0  0  0  0
  -26.1100  -29.2960   20.1900 C   0  0  0  0  0  0  0  0  0  0  0  0
  -27.1410  -28.1770   20.1150 C   0  0  0  0  0  3  0  0  0  0  0  0
  -25.8490  -26.9540   18.5880 C   0  0  0  0  0  3  0  0  0  0  0  0
  -24.8600  -27.9700   18.6490 C   0  0  0  0  0  3  0  0  0  0  0  0
  -23.7070  -30.0060   19.7010 C   0  0  0  0  0  2  0  0  0  0  0  0
  -24.7660  -31.0430   21.7200 N   0  0  0  0  0  0  0  0  0  0  0  0
  -23.5660  -31.9580   23.4560 O   0  0  0  0  0  0  0  0  0  0  0  0
  -22.9010  -29.3620   22.0410 C   0  0  0  0  0  0  0  0  0  0  0  0
  -21.5900  -29.0760   21.9250 N   0  0  0  0  0  0  0  0  0  0  0  0
  -23.6390  -28.7430   22.8120 O   0  0  0  0  0  0  0  0  0  0  0  0
  -21.0320  -29.6360   21.2950 H   0  0  0  0  0  0  0  0  0  0  0  0
  -18.3600  -27.5030   22.4660 C   0  0  0  0  0  0  0  0  0  0  0  0
  -20.8970  -27.9870   22.6270 C   0  0  0  0  0  3  0  0  0  0  0  0
  -21.0880  -26.6400   21.8900 C   0  0  0  0  0  2  0  0  0  0  0  0
  -19.9610  -26.3300   20.8980 C   0  0  0  0  0  2  0  0  0  0  0  0
  -18.6150  -26.2660   21.6220 C   0  0  0  0  0  2  0  0  0  0  0  0
  -19.4290  -28.3190   22.9260 C   0  0  0  0  0  0  0  0  0  0  0  0
  -19.1290  -29.4710   23.6830 C   0  0  0  0  0  3  0  0  0  0  0  0
  -17.7960  -29.8130   23.9800 C   0  0  0  0  0  3  0  0  0  0  0  0
  -16.7440  -28.9960   23.5290 C   0  0  0  0  0  3  0  0  0  0  0  0
  -17.0270  -27.8420   22.7800 C   0  0  0  0  0  3  0  0  0  0  0  0
  -25.8860  -32.4890   23.5330 C   0  0  0  0  0  3  0  0  0  0  0  0
  -26.4700  -31.6860   24.7620 C   0  0  1  0  0  0  0  0  0  0  0  0
  -25.4100  -31.2970   25.8200 C   0  0  0  0  0  1  0  0  0  0  0  0
  -27.1570  -30.3800   24.3040 C   0  0  0  0  0  1  0  0  0  0  0  0
  -27.5610  -32.5280   25.4640 C   0  0  0  0  0  1  0  0  0  0  0  0
  -25.4690  -33.8360   23.9840 N   0  0  0  0  0  0  0  0  0  0  0  0
  -25.6640  -34.9820   23.3170 C   0  0  0  0  0  0  0  0  0  0  0  0
  -26.2680  -35.0240   22.2430 O   0  0  0  0  0  0  0  0  0  0  0  0
  -24.9160  -33.8680   24.8290 H   0  0  0  0  0  0  0  0  0  0  0  0
  -23.7660  -36.6460   23.2710 C   0  0  0  0  0  1  0  0  0  0  0  0
  -25.1050  -36.2840   23.9330 C   0  0  0  0  0  3  0  0  0  0  0  0
  -27.2150  -37.3160   24.6630 C   0  0  0  0  0  1  0  0  0  0  0  0
  -26.0270  -37.4390   23.8250 N   0  0  0  0  0  0  0  0  0  0  0  0
  -25.5490  -38.3000   24.0780 H   0  0  0  0  0  0  0  0  0  0  0  0
  2  6  1  0
  2  1  1  0
  3  2  1  0
  4  2  1  0
  6  5  1  0
  6  7  1  0
  7  8  1  0
  9 10  1  0
  9  8  1  0
 10 16  1  0
 11 16  1  0
 12 13  1  0
 12 11  1  0
 13 14  1  0
 14 21  1  0
 14 15  1  0
 16 15  1  0
 17 10  2  0
 19 38  1  0
 23 20  1  0
 23 24  1  0
 24 25  2  0
 26 29  1  0
 26 25  1  0
 27 26  2  0
 28 27  1  0
 28 23  2  0
 29 30  1  0
 30 35  2  0
 30 31  1  0
 31 32  2  0
 32 33  1  0
 33 37  1  0
 34 33  2  0
 35 34  1  0
 36 35  1  0
 38 39  1  0
 39 42  1  0
 39 41  1  0
 40 38  2  0
 43 18  1  0
 43 47  1  0
 44 43  1  0
 45 43  1  0
 47 49  1  0
 49 51  1  0
 49 48  1  0
 50 18  1  0
 54 56  1  0
 55 66  2  0
 56 61  1  0
 57 65  1  0
 57 67  1  0
 58 64  1  0
 58 60  1  0
 59 65  1  0
 60 59  1  0
 61 60  2  0
 62 63  1  0
 62 56  2  0
 63 58  2  0
 64 57  1  0
 65 55  1  0
 67 69  2  0
 68 67  1  0
 70 68  1  0
 71 80  2  0
 71 76  1  0
 72 68  1  0
 72 76  1  0
 73 72  1  0
 74 75  1  0
 74 73  1  0
 75 71  1  0
 76 77  2  0
 77 78  1  0
 79 78  2  0
 80 79  1  0
 81 55  1  0
 81 86  1  0
 81 82  1  0
 82 85  1  1
 82 83  1  0
 84 82  1  0
 86 89  1  0
 87 91  1  0
 87 86  1  0
 88 87  2  0
 91 90  1  0
 93 91  1  0
 93 94  1  0
 93 92  1  0
M  ISO  4   9 100  10 100  53 101  54 101
M  END
>  <TORSDO>  (2) 
F 25

>  <SCORE>  (2) 
-5.435

>  <name>  (2) 
1

>  <ligand_id>  (2) 
1

>  <original_smiles>  (2) 
[H]c1c([H])c([H])c2c(c1[H])C([H])([H])C([H])([H])C([H])([H])C2([H])N([H])C(=O)C1([H])N(C(=O)C([H])(N([H])C(=O)C([H])(N([H])C([H])([H])[H])C([H])([H])[H])C(C([H])([H])[H])(C([H])([H])[H])C([H])([H])[H])C([H])([H])c2c([H])c(OC([H])([H])C([H])([H])C([H])(C([H])([H])C(=O)N([H])C([H])([H])[H])[N+]([H])([H])C([H])(C([H])([H])[H])C([H])([H])C([H])([H])C([H])([H])C(=O)N3C([H])([H])C([H])([H])C([H])([H])C([H])(n4nc(-c5c([H])c([H])c(Oc6c([H])c([H])c(F)c([H])c6F)c([H])c5[H])c(C(=O)N([H])[H])c4N([H])[H])C3([H])[H])c([H])c([H])c2C1([H])[H]

>  <smiles>  (2) 
[H]c1c([H])c([H])c2c(c1[H])C([H])([H])C([H])([H])C([H])([H])C2([H])N([H])C(=O)C1([H])N(C(=O)C([H])(N([H])C(=O)C([H])(N([H])C([H])([H])[H])C([H])([H])[H])C(C([H])([H])[H])(C([H])([H])[H])C([H])([H])[H])C([H])([H])c2c([H])c(OC([H])([H])C([H])([H])C([H])(C([H])([H])C(=O)N([H])C([H])([H])[H])[N+]([H])([H])C([H])(C([H])([H])[H])C([H])([H])C([H])([H])C([H])([H])C(=O)N3C([H])([H])C([H])([H])C([H])([H])C([H])(n4nc(-c5c([H])c([H])c(Oc6c([H])c([H])c(F)c([H])c6F)c([H])c5[H])c(C(=O)N([H])[H])c4N([H])[H])C3([H])[H])c([H])c([H])c2C1([H])[H]

$$$$
2:0:0
     RDKit          3D

 98101  0  0  1  0  0  0  0  0999 V2000
  -19.5180  -24.7730   25.0410 C   0  0  0  0  0  3  0  0  0  0  0  0
  -19.1490  -26.2880   25.5610 C   0  0  0  0  0  3  0  0  0  0  0  0
  -17.8230  -27.1720   25.0870 C   0  0  0  0  0  2  0  0  0  0  0  0
  -16.6060  -29.2730   25.1800 C   0  0  0  0  0  1  0  0  0  0  0  0
  -17.8050  -28.6720   24.4170 N   0  0  0  0  0  0  0  0  0  0  0  0
  -18.5390  -29.0990   24.9590 H   0  0  0  0  0  0  0  0  0  0  0  0
  -19.1610  -29.4890   21.8350 C   0  0  0  0  0 15  0  0  0  0  0  0
  -20.7800  -28.6470   20.7670 C   0  0  0  0  0 15  0  0  0  0  0  0
  -22.6600  -27.6420   20.5860 C   0  0  0  0  0 15  0  0  0  0  0  0
  -24.4790  -27.3260   21.0390 O   0  0  0  0  0  1  0  0  0  0  0  0
  -24.6600  -31.9350   23.2510 C   0  0  0  0  0  0  0  0  0  0  0  0
  -25.8680  -27.2970   20.4990 C   0  0  0  0  0  3  0  0  0  0  0  0
  -23.4740  -30.5780   21.6230 C   0  0  0  0  0  3  0  0  0  0  0  0
  -24.8930  -29.4580   19.7180 C   0  0  0  0  0  3  0  0  0  0  0  0
  -26.0000  -30.8660   21.4390 C   0  0  0  0  0  2  0  0  0  0  0  0
  -25.9380  -29.5950   20.6350 C   0  0  0  0  0  3  0  0  0  0  0  0
  -26.6550  -28.4220   20.9120 C   0  0  0  0  0  2  0  0  0  0  0  0
  -25.7460  -27.2430   19.1390 C   0  0  0  0  0  2  0  0  0  0  0  0
  -24.9240  -28.3370   18.8180 C   0  0  0  0  0  2  0  0  0  0  0  0
  -23.6730  -30.2730   20.0670 C   0  0  0  0  0  2  0  0  0  0  0  0
  -24.7250  -31.1830   22.1270 N   0  0  0  0  0  0  0  0  0  0  0  0
  -23.5770  -32.1990   23.7940 O   0  0  0  0  0  0  0  0  0  0  0  0
  -23.0900  -29.4570   22.6750 C   0  0  0  0  0  0  0  0  0  0  0  0
  -21.8340  -29.1960   22.9420 N   0  0  0  0  0  0  0  0  0  0  0  0
  -23.9100  -28.8050   23.2970 O   0  0  0  0  0  0  0  0  0  0  0  0
  -21.1730  -29.8480   22.5550 H   0  0  0  0  0  0  0  0  0  0  0  0
  -18.5090  -27.4950   22.6230 C   0  0  0  0  0  0  0  0  0  0  0  0
  -21.2070  -27.9590   23.4840 C   0  0  0  0  0  3  0  0  0  0  0  0
  -21.1640  -26.5850   22.7390 C   0  0  0  0  0  2  0  0  0  0  0  0
  -20.0710  -26.0340   21.7050 C   0  0  0  0  0  2  0  0  0  0  0  0
  -18.6000  -26.2440   21.9480 C   0  0  0  0  0  2  0  0  0  0  0  0
  -19.8540  -28.3130   23.5900 C   0  0  0  0  0  0  0  0  0  0  0  0
  -19.6130  -30.0150   24.0500 C   0  0  0  0  0  3  0  0  0  0  0  0
  -18.1950  -30.8180   23.5690 C   0  0  0  0  0  3  0  0  0  0  0  0
  -16.9880  -30.0420   22.6880 C   0  0  0  0  0  3  0  0  0  0  0  0
  -17.0930  -28.4170   22.2420 C   0  0  0  0  0  3  0  0  0  0  0  0
  -25.9530  -32.5110   23.8750 C   0  0  0  0  0  3  0  0  0  0  0  0
  -25.6370  -33.8860   24.2680 N   0  0  0  0  0  0  0  0  0  0  0  0
  -25.9140  -34.9620   23.5210 C   0  0  0  0  0  0  0  0  0  0  0  0
  -26.5500  -34.8980   22.4660 O   0  0  0  0  0  0  0  0  0  0  0  0
  -25.0720  -34.0070   25.0950 H   0  0  0  0  0  0  0  0  0  0  0  0
  -24.1530  -36.7370   23.2610 C   0  0  0  0  0  1  0  0  0  0  0  0
  -25.4130  -36.3240   24.0350 C   0  0  0  0  0  3  0  0  0  0  0  0
  -27.5590  -37.1930   24.8490 C   0  0  0  0  0  1  0  0  0  0  0  0
  -26.4320  -37.3910   23.9430 N   0  0  0  0  0  0  0  0  0  0  0  0
  -26.0210  -38.3000   24.1390 H   0  0  0  0  0  0  0  0  0  0  0  0
  -26.4700  -31.6680   25.1010 C   0  0  1  0  0  0  0  0  0  0  0  0
  -25.3900  -31.3690   26.1670 C   0  0  0  0  0  1  0  0  0  0  0  0
  -27.0480  -30.3080   24.6400 C   0  0  0  0  0  1  0  0  0  0  0  0
  -27.6300  -32.4290   25.7820 C   0  0  0  0  0  1  0  0  0  0  0  0
  -20.9930  -24.0910   25.2530 C   0  0  0  0  0  2  0  0  0  0  0  0
  -21.5590  -22.9500   24.2270 C   0  0  0  0  0  3  0  0  0  0  0  0
  -23.0140  -22.2360   24.4140 C   0  0  0  0  0  3  0  0  0  0  0  0
  -23.6280  -21.2320   23.2830 C   0  0  0  0  0  3  0  0  0  0  0  0
  -25.0540  -20.4610   23.4760 C   0  0  0  0  0  3  0  0  0  0  0  0
  -25.6510  -19.4520   22.3380 C   0  0  0  0  0  3  0  0  0  0  0  0
  -27.0820  -18.6680   22.5040 C   0  0  0  0  0  3  0  0  0  0  0  0
  -27.4450  -17.5580   21.4920 N   0  0  0  0  0  4  0  0  0  0  0  0
  -26.8650  -16.7470   21.6570 H   0  0  0  0  0  0  0  0  0  0  0  0
  -27.1210  -17.9290   20.6130 H   0  0  0  0  0  0  0  0  0  0  0  0
  -28.8990  -17.1200   21.1700 C   0  0  0  0  0  2  0  0  0  0  0  0
  -29.4570  -15.6700   21.6350 C   0  0  0  0  0  2  0  0  0  0  0  0
  -30.3660  -14.6520   20.7360 C   0  0  0  0  0  0  0  0  0  0  0  0
  -30.4520  -12.4670   19.4610 C   0  0  0  0  0  2  0  0  0  0  0  0
  -29.5110  -12.5660   18.2320 C   0  0  0  0  0  2  0  0  0  0  0  0
  -28.0260  -12.3650   18.6200 C   0  0  0  0  0  2  0  0  0  0  0  0
  -27.6440  -13.1710   19.8890 C   0  0  0  0  0  3  0  0  0  0  0  0
  -28.6580  -12.8510   21.0000 C   0  0  0  0  0  2  0  0  0  0  0  0
  -29.9350  -13.3680   20.5180 N   0  0  0  0  0  0  0  0  0  0  0  0
  -31.4620  -14.9930   20.2530 O   0  0  0  0  0  0  0  0  0  0  0  0
  -25.2560  -13.8080   20.5690 C   0  0  0  0  0  0  0  0  0  0  0  0
  -24.1790  -13.0420   20.9260 C   0  0  0  0  0  0  0  0  0  0  0  0
  -24.6280  -11.6870   20.8770 C   0  0  0  0  0  0  0  0  0  0  0  0
  -26.2850  -12.9130   20.3270 N   0  0  0  0  0  0  0  0  0  0  0  0
  -25.9140  -11.6340   20.5670 N   0  0  0  0  0  0  0  0  0  0  0  0
  -23.8970  -10.4270   21.0440 C   0  0  0  0  0  0  0  0  0  0  0  0
  -24.3550   -9.4190   21.9200 C   0  0  0  0  0  3  0  0  0  0  0  0
  -23.6260   -8.2220   22.0760 C   0  0  0  0  0  3  0  0  0  0  0  0
  -22.4250   -8.0250   21.3540 C   0  0  0  0  0  0  0  0  0  0  0  0
  -21.9860   -9.0220   20.4650 C   0  0  0  0  0  3  0  0  0  0  0  0
  -22.7160  -10.2120   20.3080 C   0  0  0  0  0  3  0  0  0  0  0  0
  -21.6630   -6.8840   21.4230 O   0  0  0  0  0  0  0  0  0  0  0  0
  -21.6850   -6.0720   22.5280 C   0  0  0  0  0  0  0  0  0  0  0  0
  -21.4020   -6.5640   23.8200 C   0  0  0  0  0  3  0  0  0  0  0  0
  -21.3660   -5.6790   24.9170 C   0  0  0  0  0  3  0  0  0  0  0  0
  -21.6040   -4.3050   24.7230 C   0  0  0  0  0  0  0  0  0  0  0  0
  -21.8820   -3.8140   23.4350 C   0  0  0  0  0  3  0  0  0  0  0  0
  -21.9190   -4.6950   22.3400 C   0  0  0  0  0  0  0  0  0  0  0  0
  -22.1670   -4.2130   21.0990 F   0  0  0  0  0  0  0  0  0  0  0  0
  -21.5630   -3.4550   25.7750 F   0  0  0  0  0  0  0  0  0  0  0  0
  -22.7850  -13.5270   21.1930 C   0  0  0  0  0  0  0  0  0  0  0  0
  -22.0460  -12.8250   22.0460 N   0  0  0  0  0  0  0  0  0  0  0  0
  -22.3610  -14.5610   20.6770 O   0  0  0  0  0  0  0  0  0  0  0  0
  -22.4050  -11.9880   22.4820 H   0  0  0  0  0  0  0  0  0  0  0  0
  -21.1080  -13.1290   22.2670 H   0  0  0  0  0  0  0  0  0  0  0  0
  -25.4450  -15.1800   20.4010 N   0  0  0  0  0  0  0  0  0  0  0  0
  -24.5600  -15.6740   20.3410 H   0  0  0  0  0  0  0  0  0  0  0  0
  -26.0190  -15.3900   19.5930 H   0  0  0  0  0  0  0  0  0  0  0  0
  1 51  1  0
  1  2  2  0
  3  2  1  0
  5  6  1  0
  5  3  1  0
  5  4  1  0
 11 22  2  0
 12 17  1  0
 12 10  1  0
 13 21  1  0
 13 23  1  0
 14 19  1  0
 14 20  1  0
 14 16  1  0
 15 21  1  0
 16 17  1  0
 16 15  1  0
 18 12  1  0
 19 18  1  0
 20 13  1  0
 21 11  1  0
 23 24  1  0
 23 25  2  0
 26 24  1  0
 27 32  1  0
 28 24  1  0
 28 32  1  0
 29 28  1  0
 30 31  1  0
 30 29  1  0
 31 27  1  0
 32 33  2  0
 34 33  1  0
 35 34  2  0
 36 27  2  0
 36 35  1  0
 37 11  1  0
 37 38  1  0
 37 47  1  0
 38 41  1  0
 39 43  1  0
 39 38  1  0
 40 39  2  0
 43 42  1  0
 45 43  1  0
 45 46  1  0
 45 44  1  0
 47 50  1  1
 47 48  1  0
 49 47  1  0
 52 53  2  0
 52 51  1  0
 54 55  2  0
 54 53  1  0
 56 57  2  0
 56 55  1  0
 58 59  1  0
 58 57  1  0
 60 58  1  0
 61 58  1  0
 61 62  1  0
 63 62  1  0
 64 69  1  0
 65 66  1  0
 65 64  1  0
 67 66  1  0
 67 74  1  0
 67 68  1  0
 69 63  1  0
 69 68  1  0
 70 63  2  0
 71 72  2  0
 72 91  1  0
 73 72  1  0
 73 76  1  0
 74 75  1  0
 74 71  1  0
 75 73  2  0
 76 77  1  0
 77 78  2  0
 79 82  1  0
 79 78  1  0
 80 79  2  0
 81 80  1  0
 81 76  2  0
 82 83  1  0
 83 84  1  0
 84 85  2  0
 86 85  1  0
 86 90  1  0
 87 86  2  0
 88 83  2  0
 88 87  1  0
 89 88  1  0
 91 92  1  0
 92 95  1  0
 92 94  1  0
 93 91  2  0
 96 71  1  0
 97 96  1  0
 98 96  1  0
M  ISO  4   9 101  10 101  62 100  63 100
M  END
>  <TORSDO>  (3) 
F 32

>  <SCORE>  (3) 
56.414

>  <name>  (3) 
2

>  <ligand_id>  (3) 
2

>  <original_smiles>  (3) 
[H]c1c([H])c([H])c2c(c1[H])C([H])([H])C([H])([H])C([H])([H])C2([H])N([H])C(=O)C1([H])N(C(=O)C([H])(N([H])C(=O)C([H])(N([H])C([H])([H])[H])C([H])([H])[H])C(C([H])([H])[H])(C([H])([H])[H])C([H])([H])[H])C([H])([H])c2c([H])c(OC([H])([H])C([H])([H])C([H])([H])[N+]([H])(C([H])([H])[H])C([H])([H])C([H])([H])C([H])([H])C([H])([H])C([H])([H])C([H])([H])C([H])([H])C([H])([H])C([H])([H])C([H])([H])[N+]([H])([H])C([H])([H])C([H])([H])C(=O)N3C([H])([H])C([H])([H])C([H])([H])C([H])(n4nc(-c5c([H])c([H])c(Oc6c([H])c([H])c(F)c([H])c6F)c([H])c5[H])c(C(=O)N([H])[H])c4N([H])[H])C3([H])[H])c([H])c([H])c2C1([H])[H]

>  <smiles>  (3) 
[H]c1c([H])c([H])c2c(c1[H])C([H])([H])C([H])([H])C([H])([H])C2([H])N([H])C(=O)C1([H])N(C(=O)C([H])(N([H])C(=O)C([H])(N([H])C([H])([H])[H])C([H])([H])[H])C(C([H])([H])[H])(C([H])([H])[H])C([H])([H])[H])C([H])([H])c2c([H])c(OC([H])([H])C([H])([H])C([H])([H])[N+]([H])(C([H])([H])[H])C([H])([H])C([H])([H])C([H])([H])C([H])([H])C([H])([H])C([H])([H])C([H])([H])C([H])([H])C([H])([H])C([H])([H])[N+]([H])([H])C([H])([H])C([H])([H])C(=O)N3C([H])([H])C([H])([H])C([H])([H])C([H])(n4nc(-c5c([H])c([H])c(Oc6c([H])c([H])c(F)c([H])c6F)c([H])c5[H])c(C(=O)N([H])[H])c4N([H])[H])C3([H])[H])c([H])c([H])c2C1([H])[H]

$$$$
3:0:0
     RDKit          3D

 95104  0  0  1  0  0  0  0  0999 V2000
  -27.6490  -22.1940   22.4550 C   0  0  0  0  0  3  0  0  0  0  0  0
  -26.6010  -23.0980   22.1910 C   0  0  0  0  0  3  0  0  0  0  0  0
  -28.9600  -23.1930   20.6600 C   0  0  0  0  0  3  0  0  0  0  0  0
  -28.8310  -22.2380   21.6880 C   0  0  0  0  0  0  0  0  0  0  0  0
  -27.8960  -24.0630   20.3580 C   0  0  0  0  0  0  0  0  0  0  0  0
  -26.7170  -24.0260   21.1370 C   0  0  0  0  0  0  0  0  0  0  0  0
  -25.6790  -24.8700   20.8630 O   0  0  0  0  0  0  0  0  0  0  0  0
  -24.9710  -24.8200   21.4960 H   0  0  0  0  0  0  0  0  0  0  0  0
  -29.9400  -21.2220   21.8930 C   0  0  0  0  0  2  0  0  0  0  0  0
  -30.1690  -20.4200   20.6030 C   0  0  0  0  0  2  0  0  0  0  0  0
  -31.8950  -15.2690   19.8060 C   0  0  0  0  0  0  0  0  0  0  0  0
  -31.5460  -12.9930   18.9340 C   0  0  0  0  0  2  0  0  0  0  0  0
  -30.5640  -13.0650   17.7500 C   0  0  0  0  0  2  0  0  0  0  0  0
  -29.1040  -12.9960   18.2440 C   0  0  0  0  0  2  0  0  0  0  0  0
  -28.8160  -13.9890   19.4030 C   0  0  0  0  0  3  0  0  0  0  0  0
  -29.9070  -13.8830   20.4920 C   0  0  0  0  0  2  0  0  0  0  0  0
  -31.2150  -14.0950   19.8470 N   0  0  0  0  0  0  0  0  0  0  0  0
  -32.9760  -15.4100   19.2240 O   0  0  0  0  0  0  0  0  0  0  0  0
  -31.4230  -18.6230   19.3360 C   0  0  0  0  0  2  0  0  0  0  0  0
  -30.8600  -18.2760   21.8040 C   0  0  0  0  0  2  0  0  0  0  0  0
  -30.6830  -17.2840   19.2440 C   0  0  0  0  0  2  0  0  0  0  0  0
  -31.5200  -16.9030   21.5690 C   0  0  0  0  0  2  0  0  0  0  0  0
  -31.2190  -19.3040   20.7070 C   0  0  0  0  0  3  0  0  0  0  0  0
  -31.2000  -16.3380   20.2460 N   0  0  0  0  0  0  0  0  0  0  0  0
  -26.5250  -14.7400   20.3110 C   0  0  0  0  0  0  0  0  0  0  0  0
  -25.4270  -14.0310   20.7160 C   0  0  0  0  0  0  0  0  0  0  0  0
  -25.7770  -12.6520   20.5800 C   0  0  0  0  0  0  0  0  0  0  0  0
  -27.4800  -13.7970   19.9610 N   0  0  0  0  0  0  0  0  0  0  0  0
  -27.0350  -12.5320   20.1750 N   0  0  0  0  0  0  0  0  0  0  0  0
  -24.9690  -11.4390   20.7590 C   0  0  0  0  0  0  0  0  0  0  0  0
  -25.3030  -10.4650   21.7250 C   0  0  0  0  0  3  0  0  0  0  0  0
  -24.5000   -9.3140   21.8890 C   0  0  0  0  0  3  0  0  0  0  0  0
  -23.3500   -9.1320   21.0850 C   0  0  0  0  0  0  0  0  0  0  0  0
  -23.0350  -10.0950   20.1100 C   0  0  0  0  0  3  0  0  0  0  0  0
  -23.8380  -11.2360   19.9430 C   0  0  0  0  0  3  0  0  0  0  0  0
  -22.5290   -8.0330   21.1550 O   0  0  0  0  0  0  0  0  0  0  0  0
  -22.2390   -7.4250   22.3510 C   0  0  0  0  0  0  0  0  0  0  0  0
  -21.6430   -8.1290   23.4190 C   0  0  0  0  0  3  0  0  0  0  0  0
  -21.2960   -7.4510   24.6050 C   0  0  0  0  0  3  0  0  0  0  0  0
  -21.5370   -6.0680   24.7220 C   0  0  0  0  0  0  0  0  0  0  0  0
  -22.1270   -5.3640   23.6570 C   0  0  0  0  0  3  0  0  0  0  0  0
  -22.4740   -6.0410   22.4750 C   0  0  0  0  0  0  0  0  0  0  0  0
  -23.0220   -5.3520   21.4430 F   0  0  0  0  0  0  0  0  0  0  0  0
  -21.1980   -5.4160   25.8580 F   0  0  0  0  0  0  0  0  0  0  0  0
  -24.0950  -14.5940   21.1160 C   0  0  0  0  0  0  0  0  0  0  0  0
  -23.3890  -13.9270   22.0230 N   0  0  0  0  0  0  0  0  0  0  0  0
  -23.6910  -15.6630   20.6600 O   0  0  0  0  0  0  0  0  0  0  0  0
  -23.7310  -13.0640   22.4200 H   0  0  0  0  0  0  0  0  0  0  0  0
  -22.4960  -14.2870   22.3240 H   0  0  0  0  0  0  0  0  0  0  0  0
  -26.7820  -16.1040   20.1960 N   0  0  0  0  0  0  0  0  0  0  0  0
  -26.0760  -16.8050   20.3990 H   0  0  0  0  0  0  0  0  0  0  0  0
  -27.6450  -16.5010   19.8470 H   0  0  0  0  0  0  0  0  0  0  0  0
  -28.0040  -24.9670   19.1440 C   0  0  0  0  0  2  0  0  0  0  0  0
  -28.4640  -26.3950   19.4740 C   0  0  0  0  0  2  0  0  0  0  0  0
  -28.0530  -27.2940   18.4450 O   0  0  0  0  0  0  0  0  0  0  0  0
  -24.5140  -31.4470   22.9680 C   0  0  0  0  0  0  0  0  0  0  0  0
  -26.8630  -27.9100   18.7360 C   0  0  0  0  0  0  0  0  0  0  0  0
  -23.1310  -30.2500   21.2990 C   0  0  0  0  0  3  0  0  0  0  0  0
  -24.4150  -29.1300   19.4020 C   0  0  0  0  0  0  0  0  0  0  0  0
  -25.5530  -30.8770   20.7810 C   0  0  0  0  0  2  0  0  0  0  0  0
  -25.6150  -29.6550   19.8930 C   0  0  0  0  0  0  0  0  0  0  0  0
  -26.8460  -29.0470   19.5670 C   0  0  0  0  0  3  0  0  0  0  0  0
  -25.6510  -27.4000   18.2280 C   0  0  0  0  0  3  0  0  0  0  0  0
  -24.4250  -27.9950   18.5720 C   0  0  0  0  0  3  0  0  0  0  0  0
  -23.1430  -29.8420   19.8020 C   0  0  0  0  0  2  0  0  0  0  0  0
  -24.4260  -30.8620   21.7410 N   0  0  0  0  0  0  0  0  0  0  0  0
  -23.5290  -31.5200   23.7140 O   0  0  0  0  0  0  0  0  0  0  0  0
  -22.7200  -29.0210   22.1400 C   0  0  0  0  0  0  0  0  0  0  0  0
  -21.4480  -28.6070   22.0100 N   0  0  0  0  0  0  0  0  0  0  0  0
  -23.5380  -28.4480   22.8650 O   0  0  0  0  0  0  0  0  0  0  0  0
  -20.8390  -29.1400   21.4050 H   0  0  0  0  0  0  0  0  0  0  0  0
  -18.4480  -26.6070   22.2160 C   0  0  0  0  0  0  0  0  0  0  0  0
  -20.8480  -27.4510   22.6720 C   0  0  0  0  0  3  0  0  0  0  0  0
  -21.3260  -26.1280   22.0310 C   0  0  0  0  0  2  0  0  0  0  0  0
  -20.3910  -25.6200   20.9290 C   0  0  0  0  0  2  0  0  0  0  0  0
  -18.9830  -25.3870   21.4850 C   0  0  0  0  0  2  0  0  0  0  0  0
  -19.3240  -27.5840   22.7590 C   0  0  0  0  0  0  0  0  0  0  0  0
  -18.7750  -28.7170   23.3970 C   0  0  0  0  0  3  0  0  0  0  0  0
  -17.3800  -28.8820   23.4960 C   0  0  0  0  0  3  0  0  0  0  0  0
  -16.5180  -27.9040   22.9700 C   0  0  0  0  0  3  0  0  0  0  0  0
  -17.0530  -26.7670   22.3380 C   0  0  0  0  0  3  0  0  0  0  0  0
  -25.8500  -32.0710   23.4830 C   0  0  0  0  0  3  0  0  0  0  0  0
  -25.5430  -33.4160   23.9860 N   0  0  0  0  0  0  0  0  0  0  0  0
  -25.7760  -34.5510   23.3110 C   0  0  0  0  0  0  0  0  0  0  0  0
  -26.3480  -34.5740   22.2180 O   0  0  0  0  0  0  0  0  0  0  0  0
  -25.0270  -33.4700   24.8520 H   0  0  0  0  0  0  0  0  0  0  0  0
  -23.9900  -36.3190   23.2860 C   0  0  0  0  0  1  0  0  0  0  0  0
  -25.2990  -35.8670   23.9520 C   0  0  0  0  0  3  0  0  0  0  0  0
  -27.4780  -36.7150   24.7010 C   0  0  0  0  0  1  0  0  0  0  0  0
  -26.2980  -36.9550   23.8750 N   0  0  0  0  0  0  0  0  0  0  0  0
  -25.8880  -37.8420   24.1570 H   0  0  0  0  0  0  0  0  0  0  0  0
  -26.5530  -31.2040   24.5980 C   0  0  1  0  0  0  0  0  0  0  0  0
  -25.6150  -30.7930   25.7560 C   0  0  0  0  0  1  0  0  0  0  0  0
  -27.1420  -29.9100   23.9870 C   0  0  0  0  0  1  0  0  0  0  0  0
  -27.7390  -31.9900   25.2040 C   0  0  0  0  0  1  0  0  0  0  0  0
  2  1  1  0
  3  4  1  0
  4  9  1  0
  4  1  2  0
  5  3  2  0
  5  6  1  0
  6  2  2  0
  7  6  1  0
  7  8  1  0
 10  9  1  0
 11 17  1  0
 11 24  1  0
 12 17  1  0
 13 14  1  0
 13 12  1  0
 15 14  1  0
 15 28  1  0
 15 16  1  0
 17 16  1  0
 18 11  2  0
 19 23  1  0
 21 19  1  0
 21 24  1  0
 22 20  1  0
 23 10  1  0
 23 20  1  0
 24 22  1  0
 25 26  2  0
 26 45  1  0
 27 26  1  0
 27 30  1  0
 28 29  1  0
 28 25  1  0
 29 27  2  0
 30 31  1  0
 31 32  2  0
 33 36  1  0
 33 32  1  0
 34 33  2  0
 35 34  1  0
 35 30  2  0
 36 37  1  0
 37 42  2  0
 37 38  1  0
 38 39  2  0
 39 40  1  0
 40 44  1  0
 41 40  2  0
 42 41  1  0
 43 42  1  0
 45 46  1  0
 46 49  1  0
 46 48  1  0
 47 45  2  0
 50 25  1  0
 50 51  1  0
 52 50  1  0
 53 54  1  0
 53  5  1  0
 55 57  1  0
 55 54  1  0
 56 67  2  0
 57 62  1  0
 58 66  1  0
 58 68  1  0
 59 65  1  0
 59 61  1  0
 60 66  1  0
 61 60  1  0
 62 61  2  0
 63 64  1  0
 63 57  2  0
 64 59  2  0
 65 58  1  0
 66 56  1  0
 68 70  2  0
 69 68  1  0
 71 69  1  0
 72 81  2  0
 72 77  1  0
 73 69  1  0
 73 77  1  0
 74 73  1  0
 75 76  1  0
 75 74  1  0
 76 72  1  0
 77 78  2  0
 78 79  1  0
 80 79  2  0
 81 80  1  0
 82 56  1  0
 82 83  1  0
 82 92  1  0
 83 86  1  0
 84 88  1  0
 84 83  1  0
 85 84  2  0
 88 87  1  0
 90 88  1  0
 90 91  1  0
 90 89  1  0
 92 95  1  1
 92 93  1  0
 94 92  1  0
M  ISO  4  11 100  24 100  54 101  55 101
M  END
>  <TORSDO>  (4) 
F 21

>  <SCORE>  (4) 
-8.453

>  <name>  (4) 
3

>  <ligand_id>  (4) 
3

>  <original_smiles>  (4) 
[H]Oc1c([H])c([H])c(C([H])([H])C([H])([H])C2([H])C([H])([H])C([H])([H])N(C(=O)N3C([H])([H])C([H])([H])C([H])([H])C([H])(n4nc(-c5c([H])c([H])c(Oc6c([H])c([H])c(F)c([H])c6F)c([H])c5[H])c(C(=O)N([H])[H])c4N([H])[H])C3([H])[H])C([H])([H])C2([H])[H])c([H])c1C([H])([H])C([H])([H])Oc1c([H])c([H])c2c(c1[H])C([H])([H])N(C(=O)C([H])(N([H])C(=O)C([H])(N([H])C([H])([H])[H])C([H])([H])[H])C(C([H])([H])[H])(C([H])([H])[H])C([H])([H])[H])C([H])(C(=O)N([H])C1([H])c3c([H])c([H])c([H])c([H])c3C([H])([H])C([H])([H])C1([H])[H])C2([H])[H]

>  <smiles>  (4) 
[H]Oc1c([H])c([H])c(C([H])([H])C([H])([H])C2([H])C([H])([H])C([H])([H])N(C(=O)N3C([H])([H])C([H])([H])C([H])([H])C([H])(n4nc(-c5c([H])c([H])c(Oc6c([H])c([H])c(F)c([H])c6F)c([H])c5[H])c(C(=O)N([H])[H])c4N([H])[H])C3([H])[H])C([H])([H])C2([H])[H])c([H])c1C([H])([H])C([H])([H])Oc1c([H])c([H])c2c(c1[H])C([H])([H])N(C(=O)C([H])(N([H])C(=O)C([H])(N([H])C([H])([H])[H])C([H])([H])[H])C(C([H])([H])[H])(C([H])([H])[H])C([H])([H])[H])C([H])(C(=O)N([H])C1([H])c3c([H])c([H])c([H])c([H])c3C([H])([H])C([H])([H])C1([H])[H])C2([H])[H]

$$$$
4:0:0
     RDKit          3D

 89 96  0  0  1  0  0  0  0  0999 V2000
  -28.8370  -21.4220   18.3280 C   0  0  0  0  0  1  0  0  0  0  0  0
  -30.7800  -21.7320   19.8410 C   0  0  0  0  0  1  0  0  0  0  0  0
  -29.2650  -21.4630   19.8110 C   0  0  1  0  0  0  0  0  0  0  0  0
  -28.5720  -22.9480   20.4550 C   0  0  0  0  0  2  0  0  0  0  0  0
  -28.3280  -24.5240   19.7230 C   0  0  0  0  0  2  0  0  0  0  0  0
  -28.2560  -26.0280   20.2850 O   0  0  0  0  0  0  0  0  0  0  0  0
  -24.6150  -31.8440   23.1950 C   0  0  0  0  0  0  0  0  0  0  0  0
  -27.2030  -27.0460   20.1700 C   0  0  0  0  0  0  0  0  0  0  0  0
  -23.4220  -30.4410   21.5570 C   0  0  0  0  0  3  0  0  0  0  0  0
  -24.8790  -28.8520   20.1350 C   0  0  0  0  0  0  0  0  0  0  0  0
  -25.9840  -30.6810   21.4100 C   0  0  0  0  0  2  0  0  0  0  0  0
  -26.0590  -29.2820   20.7540 C   0  0  0  0  0  0  0  0  0  0  0  0
  -27.2120  -28.3950   20.7550 C   0  0  0  0  0  3  0  0  0  0  0  0
  -25.9900  -26.7390   19.5160 C   0  0  0  0  0  3  0  0  0  0  0  0
  -24.8640  -27.5990   19.5010 C   0  0  0  0  0  3  0  0  0  0  0  0
  -23.6510  -29.7560   20.1820 C   0  0  0  0  0  2  0  0  0  0  0  0
  -24.6940  -31.0150   22.1060 N   0  0  0  0  0  0  0  0  0  0  0  0
  -23.5250  -32.1340   23.7150 O   0  0  0  0  0  0  0  0  0  0  0  0
  -22.7360  -29.4410   22.5250 C   0  0  0  0  0  0  0  0  0  0  0  0
  -21.4050  -29.2820   22.4030 N   0  0  0  0  0  0  0  0  0  0  0  0
  -23.4070  -28.8110   23.3450 O   0  0  0  0  0  0  0  0  0  0  0  0
  -20.9230  -29.8430   21.7150 H   0  0  0  0  0  0  0  0  0  0  0  0
  -18.0140  -28.1040   22.9270 C   0  0  0  0  0  0  0  0  0  0  0  0
  -20.5780  -28.3490   23.1770 C   0  0  0  0  0  3  0  0  0  0  0  0
  -20.6640  -26.9180   22.5950 C   0  0  0  0  0  2  0  0  0  0  0  0
  -19.5530  -26.6070   21.5880 C   0  0  0  0  0  2  0  0  0  0  0  0
  -18.1770  -26.7570   22.2430 C   0  0  0  0  0  2  0  0  0  0  0  0
  -19.1420  -28.8570   23.3530 C   0  0  0  0  0  0  0  0  0  0  0  0
  -18.9360  -30.1170   23.9550 C   0  0  0  0  0  3  0  0  0  0  0  0
  -17.6350  -30.6220   24.1410 C   0  0  0  0  0  3  0  0  0  0  0  0
  -16.5220  -29.8650   23.7340 C   0  0  0  0  0  3  0  0  0  0  0  0
  -16.7130  -28.6090   23.1310 C   0  0  0  0  0  3  0  0  0  0  0  0
  -25.8880  -32.4870   23.8290 C   0  0  0  0  0  3  0  0  0  0  0  0
  -25.5700  -33.8880   24.1560 N   0  0  0  0  0  0  0  0  0  0  0  0
  -25.9050  -34.9450   23.4030 C   0  0  0  0  0  0  0  0  0  0  0  0
  -26.5810  -34.8420   22.3760 O   0  0  0  0  0  0  0  0  0  0  0  0
  -24.9720  -34.0410   24.9540 H   0  0  0  0  0  0  0  0  0  0  0  0
  -24.1860  -36.7460   23.0490 C   0  0  0  0  0  1  0  0  0  0  0  0
  -25.4230  -36.3340   23.8640 C   0  0  0  0  0  3  0  0  0  0  0  0
  -27.5520  -37.2150   24.7090 C   0  0  0  0  0  1  0  0  0  0  0  0
  -26.4570  -37.3850   23.7580 N   0  0  0  0  0  0  0  0  0  0  0  0
  -26.0530  -38.3060   23.9000 H   0  0  0  0  0  0  0  0  0  0  0  0
  -26.3890  -31.7260   25.1180 C   0  0  1  0  0  0  0  0  0  0  0  0
  -25.2850  -31.5000   26.1780 C   0  0  0  0  0  1  0  0  0  0  0  0
  -26.9750  -30.3420   24.7540 C   0  0  0  0  0  1  0  0  0  0  0  0
  -27.5350  -32.5240   25.7810 C   0  0  0  0  0  1  0  0  0  0  0  0
  -29.1070  -19.8170   20.4350 C   0  0  0  0  0  3  0  0  0  0  0  0
  -27.6670  -19.5240   20.4690 N   0  0  0  0  0  4  0  0  0  0  0  0
  -27.3360  -19.2350   19.5670 H   0  0  0  0  0  0  0  0  0  0  0  0
  -27.1590  -20.3440   20.7410 H   0  0  0  0  0  0  0  0  0  0  0  0
  -27.4640  -18.8040   21.1410 H   0  0  0  0  0  0  0  0  0  0  0  0
  -29.9340  -18.3210   19.9900 C   0  0  0  0  0  3  0  0  0  0  0  0
  -29.6310  -16.6490   20.4550 C   0  0  0  0  0  3  0  0  0  0  0  0
  -30.4810  -15.1740   20.1800 C   0  0  0  0  0  0  0  0  0  0  0  0
  -30.4450  -12.7650   19.2710 C   0  0  0  0  0  2  0  0  0  0  0  0
  -29.5060  -12.6780   18.0430 C   0  0  0  0  0  2  0  0  0  0  0  0
  -28.0450  -12.4430   18.4730 C   0  0  0  0  0  2  0  0  0  0  0  0
  -27.6320  -13.3410   19.6650 C   0  0  0  0  0  3  0  0  0  0  0  0
  -28.6990  -13.3860   20.7770 C   0  0  0  0  0  2  0  0  0  0  0  0
  -29.9490  -13.8630   20.1650 N   0  0  0  0  0  0  0  0  0  0  0  0
  -31.6770  -15.2230   19.8660 O   0  0  0  0  0  0  0  0  0  0  0  0
  -25.2590  -13.8860   20.4280 C   0  0  0  0  0  0  0  0  0  0  0  0
  -24.2030  -13.1010   20.8030 C   0  0  0  0  0  0  0  0  0  0  0  0
  -24.6780  -11.7550   20.7770 C   0  0  0  0  0  0  0  0  0  0  0  0
  -26.3060  -13.0180   20.1780 N   0  0  0  0  0  0  0  0  0  0  0  0
  -25.9690  -11.7300   20.4570 N   0  0  0  0  0  0  0  0  0  0  0  0
  -23.9590  -10.4900   20.9800 C   0  0  0  0  0  0  0  0  0  0  0  0
  -24.3970   -9.5340   21.9250 C   0  0  0  0  0  3  0  0  0  0  0  0
  -23.6790   -8.3340   22.1160 C   0  0  0  0  0  3  0  0  0  0  0  0
  -22.5100   -8.0790   21.3600 C   0  0  0  0  0  0  0  0  0  0  0  0
  -22.0910   -9.0210   20.4040 C   0  0  0  0  0  3  0  0  0  0  0  0
  -22.8100  -10.2140   20.2140 C   0  0  0  0  0  3  0  0  0  0  0  0
  -21.7640   -6.9280   21.4570 O   0  0  0  0  0  0  0  0  0  0  0  0
  -21.7120   -6.1980   22.6170 C   0  0  0  0  0  0  0  0  0  0  0  0
  -21.2670   -6.7640   23.8320 C   0  0  0  0  0  3  0  0  0  0  0  0
  -21.1650   -5.9610   24.9870 C   0  0  0  0  0  3  0  0  0  0  0  0
  -21.4980   -4.5950   24.9260 C   0  0  0  0  0  0  0  0  0  0  0  0
  -21.9350   -4.0280   23.7150 C   0  0  0  0  0  3  0  0  0  0  0  0
  -22.0390   -4.8290   22.5640 C   0  0  0  0  0  0  0  0  0  0  0  0
  -22.4420   -4.2760   21.3960 F   0  0  0  0  0  0  0  0  0  0  0  0
  -21.3910   -3.8210   26.0320 F   0  0  0  0  0  0  0  0  0  0  0  0
  -22.8030  -13.5700   21.0770 C   0  0  0  0  0  0  0  0  0  0  0  0
  -22.0850  -12.8710   21.9470 N   0  0  0  0  0  0  0  0  0  0  0  0
  -22.3570  -14.5870   20.5520 O   0  0  0  0  0  0  0  0  0  0  0  0
  -22.4670  -12.0500   22.3970 H   0  0  0  0  0  0  0  0  0  0  0  0
  -21.1420  -13.1620   22.1700 H   0  0  0  0  0  0  0  0  0  0  0  0
  -25.4130  -15.2580   20.2530 N   0  0  0  0  0  0  0  0  0  0  0  0
  -24.6430  -15.9100   20.3630 H   0  0  0  0  0  0  0  0  0  0  0  0
  -26.2560  -15.6860   19.8930 H   0  0  0  0  0  0  0  0  0  0  0  0
  3  1  1  6
  3  2  1  0
  3 47  1  0
  3  4  1  0
  5  6  1  0
  5  4  1  0
  7 18  2  0
  8  6  1  0
  8 13  1  0
  9 17  1  0
  9 19  1  0
 10 16  1  0
 10 12  1  0
 11 17  1  0
 12 13  2  0
 12 11  1  0
 14  8  2  0
 15 14  1  0
 15 10  2  0
 16  9  1  0
 17  7  1  0
 19 21  2  0
 20 19  1  0
 22 20  1  0
 23 32  2  0
 23 28  1  0
 24 20  1  0
 24 28  1  0
 25 24  1  0
 26 27  1  0
 26 25  1  0
 27 23  1  0
 28 29  2  0
 29 30  1  0
 31 30  2  0
 32 31  1  0
 33  7  1  0
 33 34  1  0
 33 43  1  0
 34 37  1  0
 35 39  1  0
 35 34  1  0
 36 35  2  0
 39 38  1  0
 41 39  1  0
 41 42  1  0
 41 40  1  0
 43 46  1  1
 43 44  1  0
 45 43  1  0
 47 52  1  0
 47 48  1  0
 48 50  1  0
 48 51  1  0
 49 48  1  0
 52 53  2  0
 54 53  1  0
 55 60  1  0
 56 57  1  0
 56 55  1  0
 58 57  1  0
 58 65  1  0
 58 59  1  0
 60 54  1  0
 60 59  1  0
 61 54  2  0
 62 63  2  0
 63 82  1  0
 64 63  1  0
 64 67  1  0
 65 62  1  0
 65 66  1  0
 66 64  2  0
 67 68  1  0
 68 69  2  0
 70 73  1  0
 70 69  1  0
 71 70  2  0
 72 71  1  0
 72 67  2  0
 73 74  1  0
 74 75  1  0
 75 76  2  0
 77 76  1  0
 77 81  1  0
 78 77  2  0
 79 74  2  0
 79 78  1  0
 80 79  1  0
 82 83  1  0
 83 86  1  0
 83 85  1  0
 84 82  2  0
 87 88  1  0
 87 62  1  0
 89 87  1  0
M  ISO  4   5 101   6 101  53 100  54 100
M  END
>  <TORSDO>  (5) 
F 22

>  <SCORE>  (5) 
-16.248

>  <name>  (5) 
4

>  <ligand_id>  (5) 
4

>  <original_smiles>  (5) 
[H]c1c([H])c([H])c2c(c1[H])C([H])([H])C([H])([H])C([H])([H])C2([H])N([H])C(=O)C1([H])N(C(=O)C([H])(N([H])C(=O)C([H])(N([H])C([H])([H])[H])C([H])([H])[H])C(C([H])([H])[H])(C([H])([H])[H])C([H])([H])[H])C([H])([H])c2c([H])c(OC([H])([H])C([H])([H])C(C([H])([H])[H])(C([H])([H])[H])C([H])(C([H])([H])C([H])([H])C(=O)N3C([H])([H])C([H])([H])C([H])([H])C([H])(n4nc(-c5c([H])c([H])c(Oc6c([H])c([H])c(F)c([H])c6F)c([H])c5[H])c(C(=O)N([H])[H])c4N([H])[H])C3([H])[H])[N+]([H])([H])[H])c([H])c([H])c2C1([H])[H]

>  <smiles>  (5) 
[H]c1c([H])c([H])c2c(c1[H])C([H])([H])C([H])([H])C([H])([H])C2([H])N([H])C(=O)C1([H])N(C(=O)C([H])(N([H])C(=O)C([H])(N([H])C([H])([H])[H])C([H])([H])[H])C(C([H])([H])[H])(C([H])([H])[H])C([H])([H])[H])C([H])([H])c2c([H])c(OC([H])([H])C([H])([H])C(C([H])([H])[H])(C([H])([H])[H])C([H])(C([H])([H])C([H])([H])C(=O)N3C([H])([H])C([H])([H])C([H])([H])C([H])(n4nc(-c5c([H])c([H])c(Oc6c([H])c([H])c(F)c([H])c6F)c([H])c5[H])c(C(=O)N([H])[H])c4N([H])[H])C3([H])[H])[N+]([H])([H])[H])c([H])c([H])c2C1([H])[H]

$$$$
5:0:0
     RDKit          3D

 91 99  0  0  1  0  0  0  0  0999 V2000
  -28.9290  -21.5540   21.3880 C   0  0  0  0  0  0  0  0  0  0  0  0
  -27.2570  -22.9870   20.5350 C   0  0  0  0  0  0  0  0  0  0  0  0
  -27.6340  -22.2080   21.7810 C   0  0  0  0  0  2  0  0  0  0  0  0
  -29.5770  -22.3800   20.2770 C   0  0  0  0  0  2  0  0  0  0  0  0
  -28.4340  -23.1620   19.5690 C   0  0  1  0  0  0  0  0  0  0  0  0
  -28.0800  -22.4790   18.2270 C   0  0  0  0  0  1  0  0  0  0  0  0
  -29.2870  -20.4500   21.9250 N   0  0  0  0  0  0  0  0  0  0  0  0
  -26.1260  -23.4360   20.3270 O   0  0  0  0  0  0  0  0  0  0  0  0
  -28.7380  -24.6710   19.2880 C   0  0  0  0  0  2  0  0  0  0  0  0
  -28.6470  -25.6590   20.4770 C   0  0  0  0  0  2  0  0  0  0  0  0
  -28.6190  -27.0140   20.0190 O   0  0  0  0  0  0  0  0  0  0  0  0
  -24.6790  -31.9670   23.2230 C   0  0  0  0  0  0  0  0  0  0  0  0
  -27.4010  -27.6600   20.0580 C   0  0  0  0  0  0  0  0  0  0  0  0
  -23.4780  -30.5530   21.5830 C   0  0  0  0  0  3  0  0  0  0  0  0
  -24.9490  -29.0680   20.1190 C   0  0  0  0  0  0  0  0  0  0  0  0
  -25.9810  -30.9980   21.3310 C   0  0  0  0  0  2  0  0  0  0  0  0
  -26.0980  -29.6340   20.6860 C   0  0  0  0  0  0  0  0  0  0  0  0
  -27.3270  -28.9420   20.6440 C   0  0  0  0  0  3  0  0  0  0  0  0
  -26.2310  -27.0910   19.5030 C   0  0  0  0  0  3  0  0  0  0  0  0
  -25.0100  -27.7960   19.5230 C   0  0  0  0  0  3  0  0  0  0  0  0
  -23.6810  -29.8910   20.1920 C   0  0  0  0  0  2  0  0  0  0  0  0
  -24.7330  -31.1860   22.1070 N   0  0  0  0  0  0  0  0  0  0  0  0
  -23.6010  -32.2000   23.7880 O   0  0  0  0  0  0  0  0  0  0  0  0
  -22.8710  -29.5050   22.5430 C   0  0  0  0  0  0  0  0  0  0  0  0
  -21.5530  -29.2750   22.4220 N   0  0  0  0  0  0  0  0  0  0  0  0
  -23.5810  -28.9000   23.3500 O   0  0  0  0  0  0  0  0  0  0  0  0
  -21.0360  -29.8220   21.7480 H   0  0  0  0  0  0  0  0  0  0  0  0
  -18.2320  -27.9350   22.9020 C   0  0  0  0  0  0  0  0  0  0  0  0
  -20.7740  -28.3030   23.1880 C   0  0  0  0  0  3  0  0  0  0  0  0
  -20.9420  -26.8750   22.6160 C   0  0  0  0  0  2  0  0  0  0  0  0
  -19.8590  -26.5040   21.5950 C   0  0  0  0  0  2  0  0  0  0  0  0
  -18.4690  -26.5910   22.2310 C   0  0  0  0  0  2  0  0  0  0  0  0
  -19.3140  -28.7450   23.3370 C   0  0  0  0  0  0  0  0  0  0  0  0
  -19.0370  -30.0000   23.9230 C   0  0  0  0  0  3  0  0  0  0  0  0
  -17.7100  -30.4460   24.0750 C   0  0  0  0  0  3  0  0  0  0  0  0
  -16.6440  -29.6340   23.6550 C   0  0  0  0  0  3  0  0  0  0  0  0
  -16.9050  -28.3790   23.0760 C   0  0  0  0  0  3  0  0  0  0  0  0
  -25.9590  -32.6220   23.8310 C   0  0  0  0  0  3  0  0  0  0  0  0
  -25.6380  -34.0210   24.1390 N   0  0  0  0  0  0  0  0  0  0  0  0
  -25.9590  -35.0650   23.3620 C   0  0  0  0  0  0  0  0  0  0  0  0
  -26.6300  -34.9510   22.3320 O   0  0  0  0  0  0  0  0  0  0  0  0
  -25.0500  -34.1850   24.9440 H   0  0  0  0  0  0  0  0  0  0  0  0
  -24.2140  -36.8320   22.9700 C   0  0  0  0  0  1  0  0  0  0  0  0
  -25.4560  -36.4560   23.7950 C   0  0  0  0  0  3  0  0  0  0  0  0
  -27.5770  -37.3760   24.6200 C   0  0  0  0  0  1  0  0  0  0  0  0
  -26.4760  -37.5170   23.6680 N   0  0  0  0  0  0  0  0  0  0  0  0
  -26.0600  -38.4340   23.7980 H   0  0  0  0  0  0  0  0  0  0  0  0
  -26.4930  -31.8730   25.1130 C   0  0  1  0  0  0  0  0  0  0  0  0
  -25.4090  -31.6320   26.1870 C   0  0  0  0  0  1  0  0  0  0  0  0
  -27.0900  -30.4990   24.7270 C   0  0  0  0  0  1  0  0  0  0  0  0
  -27.6330  -32.6900   25.7650 C   0  0  0  0  0  1  0  0  0  0  0  0
  -30.4080  -19.6430   21.4660 C   0  0  0  0  0  2  0  0  0  0  0  0
  -29.8740  -18.2250   21.1770 C   0  0  0  0  0  2  0  0  0  0  0  0
  -30.9310  -17.1720   20.7830 C   0  0  0  0  0  2  0  0  0  0  0  0
  -30.4890  -15.7400   21.2040 C   0  0  0  0  0  2  0  0  0  0  0  0
  -31.0370  -14.5980   20.3240 C   0  0  0  0  0  0  0  0  0  0  0  0
  -30.6740  -12.4530   19.1430 C   0  0  0  0  0  2  0  0  0  0  0  0
  -29.7420  -12.6580   17.9310 C   0  0  0  0  0  2  0  0  0  0  0  0
  -28.2710  -12.5310   18.3630 C   0  0  0  0  0  2  0  0  0  0  0  0
  -27.9400  -13.4020   19.6040 C   0  0  0  0  0  3  0  0  0  0  0  0
  -28.9870  -13.1810   20.7220 C   0  0  0  0  0  2  0  0  0  0  0  0
  -30.3210  -13.4530   20.1610 N   0  0  0  0  0  0  0  0  0  0  0  0
  -32.1130  -14.7830   19.7470 O   0  0  0  0  0  0  0  0  0  0  0  0
  -25.5420  -14.0520   20.2860 C   0  0  0  0  0  0  0  0  0  0  0  0
  -24.4610  -13.2970   20.6550 C   0  0  0  0  0  0  0  0  0  0  0  0
  -24.9030  -11.9390   20.6420 C   0  0  0  0  0  0  0  0  0  0  0  0
  -26.5790  -13.1530   20.0770 N   0  0  0  0  0  0  0  0  0  0  0  0
  -26.1960  -11.8790   20.3450 N   0  0  0  0  0  0  0  0  0  0  0  0
  -24.1600  -10.6870   20.8400 C   0  0  0  0  0  0  0  0  0  0  0  0
  -24.5440   -9.7510   21.8260 C   0  0  0  0  0  3  0  0  0  0  0  0
  -23.8040   -8.5630   22.0100 C   0  0  0  0  0  3  0  0  0  0  0  0
  -22.6640   -8.3040   21.2110 C   0  0  0  0  0  0  0  0  0  0  0  0
  -22.3020   -9.2290   20.2180 C   0  0  0  0  0  3  0  0  0  0  0  0
  -23.0430  -10.4070   20.0300 C   0  0  0  0  0  3  0  0  0  0  0  0
  -21.9000   -7.1670   21.3030 O   0  0  0  0  0  0  0  0  0  0  0  0
  -21.7490   -6.4940   22.4910 C   0  0  0  0  0  0  0  0  0  0  0  0
  -21.2100   -7.1200   23.6360 C   0  0  0  0  0  3  0  0  0  0  0  0
  -21.0060   -6.3740   24.8150 C   0  0  0  0  0  3  0  0  0  0  0  0
  -21.3300   -5.0040   24.8470 C   0  0  0  0  0  0  0  0  0  0  0  0
  -21.8620   -4.3800   23.7070 C   0  0  0  0  0  3  0  0  0  0  0  0
  -22.0680   -5.1230   22.5300 C   0  0  0  0  0  0  0  0  0  0  0  0
  -22.5610   -4.5120   21.4260 F   0  0  0  0  0  0  0  0  0  0  0  0
  -21.1280   -4.2850   25.9750 F   0  0  0  0  0  0  0  0  0  0  0  0
  -23.0670  -13.7940   20.9100 C   0  0  0  0  0  0  0  0  0  0  0  0
  -22.3310  -13.1190   21.7850 N   0  0  0  0  0  0  0  0  0  0  0  0
  -22.6420  -14.8140   20.3720 O   0  0  0  0  0  0  0  0  0  0  0  0
  -22.6930  -12.3000   22.2510 H   0  0  0  0  0  0  0  0  0  0  0  0
  -21.3920  -13.4270   22.0000 H   0  0  0  0  0  0  0  0  0  0  0  0
  -25.7250  -15.4150   20.0930 N   0  0  0  0  0  0  0  0  0  0  0  0
  -24.9690  -16.0820   20.2080 H   0  0  0  0  0  0  0  0  0  0  0  0
  -26.5920  -15.8430   19.7950 H   0  0  0  0  0  0  0  0  0  0  0  0
  1  3  1  0
  1  7  2  0
  2  3  1  0
  4  1  1  0
  5  6  1  6
  5  4  1  0
  5  2  1  0
  8  2  2  0
  9  5  1  0
  9 10  1  0
 11 13  1  0
 11 10  1  0
 12 23  2  0
 13 18  1  0
 14 22  1  0
 14 24  1  0
 15 21  1  0
 15 17  1  0
 16 22  1  0
 17 16  1  0
 18 17  2  0
 19 20  1  0
 19 13  2  0
 20 15  2  0
 21 14  1  0
 22 12  1  0
 24 26  2  0
 25 24  1  0
 27 25  1  0
 28 37  2  0
 28 33  1  0
 29 25  1  0
 29 33  1  0
 30 29  1  0
 31 32  1  0
 31 30  1  0
 32 28  1  0
 33 34  2  0
 34 35  1  0
 36 35  2  0
 37 36  1  0
 38 12  1  0
 38 39  1  0
 38 48  1  0
 39 42  1  0
 40 44  1  0
 40 39  1  0
 41 40  2  0
 44 43  1  0
 46 44  1  0
 46 47  1  0
 46 45  1  0
 48 51  1  1
 48 49  1  0
 50 48  1  0
 52  7  1  0
 53 52  1  0
 54 53  1  0
 54 55  1  0
 56 55  1  0
 57 62  1  0
 58 59  1  0
 58 57  1  0
 60 59  1  0
 60 67  1  0
 60 61  1  0
 62 56  1  0
 62 61  1  0
 63 56  2  0
 64 65  2  0
 65 84  1  0
 66 65  1  0
 66 69  1  0
 67 64  1  0
 67 68  1  0
 68 66  2  0
 69 70  1  0
 70 71  2  0
 72 75  1  0
 72 71  1  0
 73 72  2  0
 74 73  1  0
 74 69  2  0
 75 76  1  0
 76 81  2  0
 76 77  1  0
 77 78  2  0
 78 79  1  0
 79 83  1  0
 80 79  2  0
 81 80  1  0
 82 81  1  0
 84 85  1  0
 85 88  1  0
 85 87  1  0
 86 84  2  0
 89 90  1  0
 89 64  1  0
 91 89  1  0
M  ISO  4  10 101  11 101  55 100  56 100
M  END
>  <TORSDO>  (6) 
F 22

>  <SCORE>  (6) 
-12.354

>  <name>  (6) 
5

>  <ligand_id>  (6) 
5

>  <original_smiles>  (6) 
[H]c1c([H])c([H])c2c(c1[H])C([H])([H])C([H])([H])C([H])([H])C2([H])N([H])C(=O)C1([H])N(C(=O)C([H])(N([H])C(=O)C([H])(N([H])C([H])([H])[H])C([H])([H])[H])C(C([H])([H])[H])(C([H])([H])[H])C([H])([H])[H])C([H])([H])c2c([H])c(OC([H])([H])C([H])([H])C3(C([H])([H])[H])C(=O)C([H])([H])C(=NC([H])([H])C([H])([H])C([H])([H])C([H])([H])C(=O)N4C([H])([H])C([H])([H])C([H])([H])C([H])(n5nc(-c6c([H])c([H])c(Oc7c([H])c([H])c(F)c([H])c7F)c([H])c6[H])c(C(=O)N([H])[H])c5N([H])[H])C4([H])[H])C3([H])[H])c([H])c([H])c2C1([H])[H]

>  <smiles>  (6) 
[H]c1c([H])c([H])c2c(c1[H])C([H])([H])C([H])([H])C([H])([H])C2([H])N([H])C(=O)C1([H])N(C(=O)C([H])(N([H])C(=O)C([H])(N([H])C([H])([H])[H])C([H])([H])[H])C(C([H])([H])[H])(C([H])([H])[H])C([H])([H])[H])C([H])([H])c2c([H])c(OC([H])([H])C([H])([H])C3(C([H])([H])[H])C(=O)C([H])([H])C(=NC([H])([H])C([H])([H])C([H])([H])C([H])([H])C(=O)N4C([H])([H])C([H])([H])C([H])([H])C([H])(n5nc(-c6c([H])c([H])c(Oc7c([H])c([H])c(F)c([H])c7F)c([H])c6[H])c(C(=O)N([H])[H])c5N([H])[H])C4([H])[H])C3([H])[H])c([H])c([H])c2C1([H])[H]

$$$$
6:0:0
     RDKit          3D

109113  0  0  1  0  0  0  0  0999 V2000
  -27.3970  -29.9300   21.2430 C   0  0  0  0  0  2  0  0  0  0  0  0
  -25.8630  -30.2660   20.4710 C   0  0  0  0  0  3  0  0  0  0  0  0
  -27.6920  -28.3760   21.9340 C   0  0  0  0  0  2  0  0  0  0  0  0
  -25.2420  -27.0480   21.2690 C   0  0  0  0  0  3  0  0  0  0  0  0
  -24.5040  -28.3910   20.5000 C   0  0  0  0  0  2  0  0  0  0  0  0
  -26.7850  -26.9370   21.8750 C   0  0  0  0  0  0  0  0  0  0  0  0
  -21.6840  -28.0730   19.2690 C   0  0  0  0  0  2  0  0  0  0  0  0
  -23.1650  -27.8810   19.5250 C   0  0  0  0  0  2  0  0  0  0  0  0
  -20.0060  -25.2520   20.7240 C   0  0  0  0  0  2  0  0  0  0  0  0
  -19.3080  -26.6110   17.9220 C   0  0  0  0  0  3  0  0  0  0  0  0
  -19.2170  -24.0130   20.4000 C   0  0  0  0  0  2  0  0  0  0  0  0
  -18.6070  -24.9900   17.8780 C   0  0  0  0  0  3  0  0  0  0  0  0
  -20.2850  -26.9990   19.3560 C   0  0  0  0  0  2  0  0  0  0  0  0
  -18.9250  -23.6850   18.9920 C   0  0  0  0  0  3  0  0  0  0  0  0
  -20.4790  -22.6280   19.1660 C   0  0  0  0  0  1  0  0  0  0  0  0
  -22.4470  -22.8020   19.3260 C   0  0  0  0  0 15  0  0  0  0  0  0
  -24.1630  -23.7610   19.5660 C   0  0  0  0  0  1  0  0  0  0  0  0
  -25.2430  -25.1010   18.7280 C   0  0  0  0  0  2  0  0  0  0  0  0
  -26.3590  -26.4150   19.0070 O   0  0  0  0  0  0  0  0  0  0  0  0
  -25.0870  -32.3870   23.1240 C   0  0  0  0  0  0  0  0  0  0  0  0
  -26.4610  -27.5930   18.1860 C   0  0  0  0  0  3  0  0  0  0  0  0
  -23.6390  -31.3560   21.3920 C   0  0  0  0  0  2  0  0  0  0  0  0
  -24.9470  -30.0060   18.3810 C   0  0  0  0  0  3  0  0  0  0  0  0
  -26.4290  -30.3070   21.8970 C   0  0  0  0  0  3  0  0  0  0  0  0
  -26.3770  -29.5210   19.0540 C   0  0  0  0  0  0  0  0  0  0  0  0
  -27.2410  -28.7370   18.3260 C   0  0  0  0  0  2  0  0  0  0  0  0
  -25.3210  -27.8010   17.4540 C   0  0  0  0  0  3  0  0  0  0  0  0
  -24.5390  -28.9610   17.5850 C   0  0  0  0  0  3  0  0  0  0  0  0
  -23.6510  -31.0770   19.3490 C   0  0  0  0  0  1  0  0  0  0  0  0
  -25.0640  -31.3830   22.2580 N   0  0  0  0  0  0  0  0  0  0  0  0
  -24.0400  -32.7450   23.6890 O   0  0  0  0  0  0  0  0  0  0  0  0
  -23.2170  -30.2660   22.6310 C   0  0  0  0  0  0  0  0  0  0  0  0
  -21.9920  -29.8950   22.9280 N   0  0  0  0  0  0  0  0  0  0  0  0
  -24.0540  -29.5860   23.2810 O   0  0  0  0  0  0  0  0  0  0  0  0
  -21.2070  -30.3460   22.4780 H   0  0  0  0  0  0  0  0  0  0  0  0
  -19.3480  -27.1970   22.1870 C   0  0  0  0  0  3  0  0  0  0  0  0
  -21.8090  -28.5150   23.3970 C   0  0  0  0  0  2  0  0  0  0  0  0
  -23.2610  -27.3740   22.6830 C   0  0  0  0  0  1  0  0  0  0  0  0
  -23.0490  -26.2930   21.0910 C   0  0  0  0  0  2  0  0  0  0  0  0
  -21.5690  -25.8010   20.5250 C   0  0  0  0  0  2  0  0  0  0  0  0
  -20.0330  -28.2920   23.1880 C   0  0  0  0  0  0  0  0  0  0  0  0
  -19.2940  -29.3140   23.7880 C   0  0  0  0  0  3  0  0  0  0  0  0
  -17.9120  -29.3380   23.6600 C   0  0  0  0  0  3  0  0  0  0  0  0
  -17.2480  -28.3040   22.9730 C   0  0  0  0  0  3  0  0  0  0  0  0
  -17.9180  -27.2570   22.2650 C   0  0  0  0  0  3  0  0  0  0  0  0
  -26.4100  -33.0710   23.4410 C   0  0  0  0  0  3  0  0  0  0  0  0
  -27.2100  -32.3560   24.6150 C   0  0  1  0  0  0  0  0  0  0  0  0
  -26.2750  -31.8360   25.7260 C   0  0  0  0  0  1  0  0  0  0  0  0
  -28.1840  -31.1810   24.3140 C   0  0  0  0  0  1  0  0  0  0  0  0
  -28.2010  -33.3880   25.1800 C   0  0  0  0  0  1  0  0  0  0  0  0
  -25.9870  -34.4170   23.8650 N   0  0  0  0  0  0  0  0  0  0  0  0
  -25.9520  -35.5270   23.1230 C   0  0  0  0  0  0  0  0  0  0  0  0
  -26.3890  -35.5760   21.9720 O   0  0  0  0  0  0  0  0  0  0  0  0
  -25.5470  -34.4620   24.7710 H   0  0  0  0  0  0  0  0  0  0  0  0
  -23.9600  -37.0800   23.2390 C   0  0  0  0  0  1  0  0  0  0  0  0
  -25.3650  -36.7880   23.7900 C   0  0  0  0  0  3  0  0  0  0  0  0
  -27.4860  -37.8750   24.3640 C   0  0  0  0  0  1  0  0  0  0  0  0
  -26.2260  -37.9800   23.6330 N   0  0  0  0  0  0  0  0  0  0  0  0
  -25.7440  -38.8150   23.9550 H   0  0  0  0  0  0  0  0  0  0  0  0
  -27.4630  -25.2430   22.2000 C   0  0  0  0  0  0  0  0  0  0  0  0
  -27.5050  -25.0140   23.4120 O   0  0  0  0  0  0  0  0  0  0  0  0
  -28.1090  -23.7270   21.3050 C   0  0  0  0  0  3  0  0  0  0  0  0
  -28.5340  -21.8510   21.6090 C   0  0  0  0  0  3  0  0  0  0  0  0
  -31.0500  -18.4770   19.5400 C   0  0  0  0  0  2  0  0  0  0  0  0
  -31.9450  -19.6810   19.3480 C   0  0  0  0  0  2  0  0  0  0  0  0
  -30.2990  -21.2770   20.0580 C   0  0  0  0  0  2  0  0  0  0  0  0
  -29.1720  -20.3290   20.5840 C   0  0  0  0  0  2  0  0  0  0  0  0
  -29.9500  -18.4940   20.6460 C   0  0  0  0  0  2  0  0  0  0  0  0
  -31.1210  -20.8100   18.9460 N   0  0  0  0  0  4  0  0  0  0  0  0
  -30.5550  -20.5790   18.1460 H   0  0  0  0  0  0  0  0  0  0  0  0
  -31.7370  -21.5610   18.6780 H   0  0  0  0  0  0  0  0  0  0  0  0
  -30.2950  -15.4010   20.0510 C   0  0  0  0  0  0  0  0  0  0  0  0
  -30.2850  -12.9130   19.0410 C   0  0  0  0  0  2  0  0  0  0  0  0
  -29.3200  -12.5860   17.8600 C   0  0  0  0  0  2  0  0  0  0  0  0
  -27.9140  -12.2460   18.3740 C   0  0  0  0  0  2  0  0  0  0  0  0
  -27.5000  -13.2110   19.5090 C   0  0  0  0  0  3  0  0  0  0  0  0
  -28.5870  -13.4350   20.5860 C   0  0  0  0  0  2  0  0  0  0  0  0
  -29.7400  -14.0590   19.9150 N   0  0  0  0  0  0  0  0  0  0  0  0
  -31.4830  -15.3350   19.6800 O   0  0  0  0  0  0  0  0  0  0  0  0
  -29.6040  -16.7570   20.4220 N   0  0  0  0  0  0  0  0  0  0  0  0
  -28.6350  -16.5700   20.6380 H   0  0  0  0  0  0  0  0  0  0  0  0
  -25.2000  -13.7490   20.4330 C   0  0  0  0  0  0  0  0  0  0  0  0
  -24.1660  -12.9700   20.8660 C   0  0  0  0  0  0  0  0  0  0  0  0
  -24.6200  -11.6180   20.7730 C   0  0  0  0  0  0  0  0  0  0  0  0
  -26.2130  -12.8740   20.0940 N   0  0  0  0  0  0  0  0  0  0  0  0
  -25.8840  -11.5830   20.3610 N   0  0  0  0  0  0  0  0  0  0  0  0
  -23.8990  -10.3580   20.9950 C   0  0  0  0  0  0  0  0  0  0  0  0
  -24.3760   -9.3800   21.8960 C   0  0  0  0  0  3  0  0  0  0  0  0
  -23.6500   -8.1890   22.1080 C   0  0  0  0  0  3  0  0  0  0  0  0
  -22.4330   -7.9660   21.4200 C   0  0  0  0  0  0  0  0  0  0  0  0
  -21.9770   -8.9320   20.5060 C   0  0  0  0  0  3  0  0  0  0  0  0
  -22.7030  -10.1150   20.2910 C   0  0  0  0  0  3  0  0  0  0  0  0
  -21.6730   -6.8270   21.5430 O   0  0  0  0  0  0  0  0  0  0  0  0
  -21.6590   -6.0930   22.7020 C   0  0  0  0  0  0  0  0  0  0  0  0
  -21.2770   -6.6600   23.9380 C   0  0  0  0  0  3  0  0  0  0  0  0
  -21.2090   -5.8540   25.0910 C   0  0  0  0  0  3  0  0  0  0  0  0
  -21.5120   -4.4810   25.0100 C   0  0  0  0  0  0  0  0  0  0  0  0
  -21.8870   -3.9140   23.7800 C   0  0  0  0  0  3  0  0  0  0  0  0
  -21.9570   -4.7180   22.6290 C   0  0  0  0  0  0  0  0  0  0  0  0
  -22.2980   -4.1620   21.4410 F   0  0  0  0  0  0  0  0  0  0  0  0
  -21.4390   -3.7040   26.1160 F   0  0  0  0  0  0  0  0  0  0  0  0
  -22.7980  -13.4530   21.2470 C   0  0  0  0  0  0  0  0  0  0  0  0
  -22.1380  -12.7570   22.1640 N   0  0  0  0  0  0  0  0  0  0  0  0
  -22.3300  -14.4850   20.7680 O   0  0  0  0  0  0  0  0  0  0  0  0
  -22.5340  -11.9220   22.5720 H   0  0  0  0  0  0  0  0  0  0  0  0
  -21.2240  -13.0620   22.4640 H   0  0  0  0  0  0  0  0  0  0  0  0
  -25.3580  -15.1230   20.2700 N   0  0  0  0  0  0  0  0  0  0  0  0
  -24.5980  -15.7730   20.4440 H   0  0  0  0  0  0  0  0  0  0  0  0
  -26.1620  -15.5600   19.8400 H   0  0  0  0  0  0  0  0  0  0  0  0
  1 24  1  0
  1  3  1  0
  4  6  2  0
  5  4  1  0
  6  3  1  0
  6 60  1  0
  7 13  1  0
  7  8  1  0
  8  5  1  0
 10 13  1  0
 11  9  1  0
 12 10  2  0
 12 14  1  0
 14 15  1  0
 14 11  1  0
 18 19  1  0
 18 17  1  0
 20 31  2  0
 21 26  1  0
 21 19  1  0
 22 30  1  0
 22 32  1  0
 23 25  1  0
 23 29  1  0
 24  2  1  0
 24 30  1  0
 25  2  2  0
 26 25  1  0
 27 28  2  0
 27 21  1  0
 28 23  1  0
 30 20  1  0
 32 33  1  0
 32 34  2  0
 33 37  1  0
 35 33  1  0
 36 45  2  0
 36 41  1  0
 39 38  1  0
 40  9  1  0
 40 39  1  0
 41 37  1  0
 41 42  2  0
 43 42  1  0
 44 43  2  0
 45 44  1  0
 46 20  1  0
 46 51  1  0
 46 47  1  0
 47 50  1  1
 47 48  1  0
 49 47  1  0
 51 54  1  0
 52 56  1  0
 52 51  1  0
 53 52  2  0
 56 55  1  0
 58 56  1  0
 58 59  1  0
 58 57  1  0
 60 61  2  0
 62 63  2  0
 62 60  1  0
 64 68  1  0
 65 64  1  0
 66 67  1  0
 67 63  1  0
 69 65  1  0
 69 66  1  0
 70 69  1  0
 71 69  1  0
 72 80  1  0
 73 78  1  0
 74 75  1  0
 74 73  1  0
 76 75  1  0
 76 85  1  0
 76 77  1  0
 78 72  1  0
 78 77  1  0
 79 72  2  0
 80 81  1  0
 80 68  1  0
 82 83  2  0
 83102  1  0
 84 83  1  0
 84 87  1  0
 85 86  1  0
 85 82  1  0
 86 84  2  0
 87 88  1  0
 88 89  2  0
 90 93  1  0
 90 89  1  0
 91 90  2  0
 92 91  1  0
 92 87  2  0
 93 94  1  0
 94 95  1  0
 95 96  2  0
 97 96  1  0
 97101  1  0
 98 97  2  0
 99 94  2  0
 99 98  1  0
100 99  1  0
102103  1  0
103106  1  0
103105  1  0
104102  2  0
107 82  1  0
107108  1  0
109107  1  0
M  ISO  4  18 101  19 101  72 100  80 100
M  END
>  <TORSDO>  (7) 
F 26

>  <SCORE>  (7) 
-12.870

>  <name>  (7) 
6

>  <ligand_id>  (7) 
6

>  <original_smiles>  (7) 
[H]C(=C([H])c1c([H])c([H])c([H])c(C(=O)C([H])([H])C([H])([H])C2([H])C([H])(N([H])C(=O)N3C([H])([H])C([H])([H])C([H])([H])C([H])(n4nc(-c5c([H])c([H])c(Oc6c([H])c([H])c(F)c([H])c6F)c([H])c5[H])c(C(=O)N([H])[H])c4N([H])[H])C3([H])[H])C([H])([H])C([H])([H])[N+]([H])([H])C2([H])[H])c1[H])c1c([H])c([H])c(C([H])([H])C([H])([H])C([H])([H])C([H])([H])Oc2c([H])c([H])c3c(c2[H])C([H])([H])N(C(=O)C([H])(N([H])C(=O)C([H])(N([H])C([H])([H])[H])C([H])([H])[H])C(C([H])([H])[H])(C([H])([H])[H])C([H])([H])[H])C([H])(C(=O)N([H])C2([H])c4c([H])c([H])c([H])c([H])c4C([H])([H])C([H])([H])C2([H])[H])C3([H])[H])c([H])c1[H]

>  <smiles>  (7) 
[H]C(=C([H])c1c([H])c([H])c([H])c(C(=O)C([H])([H])C([H])([H])C2([H])C([H])(N([H])C(=O)N3C([H])([H])C([H])([H])C([H])([H])C([H])(n4nc(-c5c([H])c([H])c(Oc6c([H])c([H])c(F)c([H])c6F)c([H])c5[H])c(C(=O)N([H])[H])c4N([H])[H])C3([H])[H])C([H])([H])C([H])([H])[N+]([H])([H])C2([H])[H])c1[H])c1c([H])c([H])c(C([H])([H])C([H])([H])C([H])([H])C([H])([H])Oc2c([H])c([H])c3c(c2[H])C([H])([H])N(C(=O)C([H])(N([H])C(=O)C([H])(N([H])C([H])([H])[H])C([H])([H])[H])C(C([H])([H])[H])(C([H])([H])[H])C([H])([H])[H])C([H])(C(=O)N([H])C2([H])c4c([H])c([H])c([H])c([H])c4C([H])([H])C([H])([H])C2([H])[H])C3([H])[H])c([H])c1[H]

$$$$
7:0:0
     RDKit          3D

 95104  0  0  1  0  0  0  0  0999 V2000
  -30.3380  -24.5130   18.9990 C   0  0  0  0  0  2  0  0  0  0  0  0
  -30.9930  -25.3650   20.1010 C   0  0  0  0  0  2  0  0  0  0  0  0
  -29.1670  -24.1660   21.1290 C   0  0  0  0  0  2  0  0  0  0  0  0
  -29.1100  -23.8330   19.6290 C   0  0  0  0  0  3  0  0  0  0  0  0
  -29.9840  -25.4640   21.2630 C   0  0  1  0  0  0  0  0  0  0  0  0
  -30.7120  -25.5010   22.6210 C   0  0  0  0  0  1  0  0  0  0  0  0
  -27.8320  -21.8380   18.6950 C   0  0  0  0  0  3  0  0  0  0  0  0
  -29.9880  -21.4360   19.7490 C   0  0  0  0  0  3  0  0  0  0  0  0
  -27.6830  -20.4530   18.4810 C   0  0  0  0  0  3  0  0  0  0  0  0
  -29.8340  -20.0500   19.5410 C   0  0  0  0  0  3  0  0  0  0  0  0
  -28.9810  -22.3390   19.3420 C   0  0  0  0  0  0  0  0  0  0  0  0
  -28.6740  -19.5450   18.9110 C   0  0  0  0  0  0  0  0  0  0  0  0
  -28.4270  -18.0490   18.7040 C   0  0  0  0  0  2  0  0  0  0  0  0
  -29.5350  -17.0790   19.1640 C   0  0  0  0  0  2  0  0  0  0  0  0
  -30.7420  -17.0010   18.2110 C   0  0  0  0  0  2  0  0  0  0  0  0
  -31.9520  -16.2090   18.7520 C   0  0  0  0  0  2  0  0  0  0  0  0
  -31.7330  -14.6870   18.9630 C   0  0  0  0  0  2  0  0  0  0  0  0
  -30.9960  -14.3120   20.2740 C   0  0  0  0  0  0  0  0  0  0  0  0
  -30.3270  -12.2010   19.3730 C   0  0  0  0  0  2  0  0  0  0  0  0
  -29.3860  -12.4390   18.1870 C   0  0  0  0  0  2  0  0  0  0  0  0
  -27.9420  -12.4010   18.6720 C   0  0  0  0  0  2  0  0  0  0  0  0
  -27.6710  -13.3000   19.9090 C   0  0  0  0  0  3  0  0  0  0  0  0
  -28.7900  -13.1730   20.9970 C   0  0  0  0  0  2  0  0  0  0  0  0
  -30.1100  -13.2810   20.3200 N   0  0  0  0  0  0  0  0  0  0  0  0
  -31.3800  -14.9630   21.2090 O   0  0  0  0  0  0  0  0  0  0  0  0
  -25.2380  -13.9280   20.5230 C   0  0  0  0  0  0  0  0  0  0  0  0
  -24.1490  -13.1650   20.8520 C   0  0  0  0  0  0  0  0  0  0  0  0
  -24.6070  -11.8110   20.8800 C   0  0  0  0  0  0  0  0  0  0  0  0
  -26.3020  -13.0480   20.3880 N   0  0  0  0  0  0  0  0  0  0  0  0
  -25.9160  -11.7710   20.6590 N   0  0  0  0  0  0  0  0  0  0  0  0
  -23.8680  -10.5510   21.0570 C   0  0  0  0  0  0  0  0  0  0  0  0
  -24.2740   -9.5880   22.0080 C   0  0  0  0  0  3  0  0  0  0  0  0
  -23.5370   -8.3980   22.1810 C   0  0  0  0  0  3  0  0  0  0  0  0
  -22.3800   -8.1570   21.4030 C   0  0  0  0  0  0  0  0  0  0  0  0
  -21.9910   -9.1080   20.4440 C   0  0  0  0  0  3  0  0  0  0  0  0
  -22.7290  -10.2920   20.2680 C   0  0  0  0  0  3  0  0  0  0  0  0
  -21.6180   -7.0150   21.4880 O   0  0  0  0  0  0  0  0  0  0  0  0
  -21.5600   -6.2710   22.6390 C   0  0  0  0  0  0  0  0  0  0  0  0
  -21.1550   -6.8330   23.8690 C   0  0  0  0  0  3  0  0  0  0  0  0
  -21.0400   -6.0180   25.0130 C   0  0  0  0  0  3  0  0  0  0  0  0
  -21.3220   -4.6400   24.9270 C   0  0  0  0  0  0  0  0  0  0  0  0
  -21.7220   -4.0780   23.7030 C   0  0  0  0  0  3  0  0  0  0  0  0
  -21.8360   -4.8910   22.5610 C   0  0  0  0  0  0  0  0  0  0  0  0
  -22.2000   -4.3400   21.3780 F   0  0  0  0  0  0  0  0  0  0  0  0
  -21.2060   -3.8550   26.0240 F   0  0  0  0  0  0  0  0  0  0  0  0
  -22.7360  -13.6450   21.0390 C   0  0  0  0  0  0  0  0  0  0  0  0
  -21.9670  -12.9710   21.8880 N   0  0  0  0  0  0  0  0  0  0  0  0
  -22.3210  -14.6540   20.4700 O   0  0  0  0  0  0  0  0  0  0  0  0
  -22.3150  -12.1570   22.3730 H   0  0  0  0  0  0  0  0  0  0  0  0
  -21.0180  -13.2750   22.0580 H   0  0  0  0  0  0  0  0  0  0  0  0
  -25.4090  -15.2910   20.3040 N   0  0  0  0  0  0  0  0  0  0  0  0
  -24.6400  -15.9510   20.3450 H   0  0  0  0  0  0  0  0  0  0  0  0
  -26.2930  -15.7180   20.0580 H   0  0  0  0  0  0  0  0  0  0  0  0
  -29.0950  -26.7320   21.1590 C   0  0  0  0  0  2  0  0  0  0  0  0
  -28.2710  -26.7080   20.0000 O   0  0  0  0  0  0  0  0  0  0  0  0
  -24.4640  -31.8860   23.1180 C   0  0  0  0  0  0  0  0  0  0  0  0
  -27.1270  -27.4680   20.0490 C   0  0  0  0  0  0  0  0  0  0  0  0
  -23.2570  -30.4740   21.4810 C   0  0  0  0  0  3  0  0  0  0  0  0
  -24.7160  -28.9360   20.0620 C   0  0  0  0  0  0  0  0  0  0  0  0
  -25.7770  -30.8480   21.2760 C   0  0  0  0  0  2  0  0  0  0  0  0
  -25.8670  -29.4740   20.6510 C   0  0  0  0  0  0  0  0  0  0  0  0
  -27.0740  -28.7450   20.6520 C   0  0  0  0  0  3  0  0  0  0  0  0
  -25.9660  -26.9430   19.4480 C   0  0  0  0  0  3  0  0  0  0  0  0
  -24.7580  -27.6660   19.4610 C   0  0  0  0  0  3  0  0  0  0  0  0
  -23.4660  -29.7860   20.1050 C   0  0  0  0  0  2  0  0  0  0  0  0
  -24.5170  -31.0850   22.0170 N   0  0  0  0  0  0  0  0  0  0  0  0
  -23.3840  -32.1580   23.6600 O   0  0  0  0  0  0  0  0  0  0  0  0
  -22.6120  -29.4550   22.4480 C   0  0  0  0  0  0  0  0  0  0  0  0
  -21.2850  -29.2900   22.3410 N   0  0  0  0  0  0  0  0  0  0  0  0
  -23.3030  -28.8160   23.2470 O   0  0  0  0  0  0  0  0  0  0  0  0
  -20.7900  -29.8560   21.6660 H   0  0  0  0  0  0  0  0  0  0  0  0
  -17.9030  -28.1510   22.8960 C   0  0  0  0  0  0  0  0  0  0  0  0
  -20.4690  -28.3590   23.1200 C   0  0  0  0  0  3  0  0  0  0  0  0
  -20.5360  -26.9330   22.5280 C   0  0  0  0  0  2  0  0  0  0  0  0
  -19.4080  -26.6400   21.5330 C   0  0  0  0  0  2  0  0  0  0  0  0
  -18.0420  -26.8040   22.2060 C   0  0  0  0  0  2  0  0  0  0  0  0
  -19.0440  -28.8880   23.3110 C   0  0  0  0  0  0  0  0  0  0  0  0
  -18.8600  -30.1500   23.9160 C   0  0  0  0  0  3  0  0  0  0  0  0
  -17.5680  -30.6750   24.1110 C   0  0  0  0  0  3  0  0  0  0  0  0
  -16.4420  -29.9330   23.7120 C   0  0  0  0  0  3  0  0  0  0  0  0
  -16.6110  -28.6740   23.1110 C   0  0  0  0  0  3  0  0  0  0  0  0
  -25.7520  -32.5200   23.7310 C   0  0  0  0  0  3  0  0  0  0  0  0
  -25.4320  -33.9060   24.0970 N   0  0  0  0  0  0  0  0  0  0  0  0
  -25.7540  -34.9790   23.3610 C   0  0  0  0  0  0  0  0  0  0  0  0
  -26.4220  -34.9050   22.3250 O   0  0  0  0  0  0  0  0  0  0  0  0
  -24.8400  -34.0370   24.9030 H   0  0  0  0  0  0  0  0  0  0  0  0
  -24.0120  -36.7630   23.0430 C   0  0  0  0  0  1  0  0  0  0  0  0
  -25.2520  -36.3490   23.8500 C   0  0  0  0  0  3  0  0  0  0  0  0
  -27.3780  -37.2270   24.7110 C   0  0  0  0  0  1  0  0  0  0  0  0
  -26.2760  -37.4130   23.7700 N   0  0  0  0  0  0  0  0  0  0  0  0
  -25.8630  -38.3250   23.9420 H   0  0  0  0  0  0  0  0  0  0  0  0
  -26.3050  -31.7260   24.9780 C   0  0  1  0  0  0  0  0  0  0  0  0
  -25.2370  -31.4470   26.0600 C   0  0  0  0  0  1  0  0  0  0  0  0
  -26.8960  -30.3660   24.5360 C   0  0  0  0  0  1  0  0  0  0  0  0
  -27.4590  -32.5180   25.6360 C   0  0  0  0  0  1  0  0  0  0  0  0
  1  4  1  0
  1  2  1  0
  2  5  1  0
  3  5  1  0
  4 11  1  0
  4  3  1  0
  5  6  1  1
  7 11  1  0
  9  7  2  0
  9 12  1  0
 10  8  1  0
 11  8  2  0
 12 10  2  0
 13 12  1  0
 13 14  1  0
 15 16  1  0
 15 14  1  0
 16 17  1  0
 17 18  1  0
 18 24  1  0
 18 25  2  0
 19 24  1  0
 20 21  1  0
 20 19  1  0
 22 21  1  0
 22 29  1  0
 22 23  1  0
 24 23  1  0
 26 27  2  0
 27 28  1  0
 27 46  1  0
 28 31  1  0
 29 26  1  0
 29 30  1  0
 30 28  2  0
 31 32  1  0
 32 33  2  0
 34 37  1  0
 34 33  1  0
 35 34  2  0
 36 35  1  0
 36 31  2  0
 37 38  1  0
 38 39  1  0
 39 40  2  0
 41 40  1  0
 41 45  1  0
 42 41  2  0
 43 38  2  0
 43 42  1  0
 44 43  1  0
 46 47  1  0
 47 50  1  0
 47 49  1  0
 48 46  2  0
 51 52  1  0
 51 26  1  0
 53 51  1  0
 54  5  1  0
 55 57  1  0
 55 54  1  0
 56 67  2  0
 57 62  1  0
 58 66  1  0
 58 68  1  0
 59 65  1  0
 59 61  1  0
 60 66  1  0
 61 62  2  0
 61 60  1  0
 63 64  1  0
 63 57  2  0
 64 59  2  0
 65 58  1  0
 66 56  1  0
 68 70  2  0
 69 68  1  0
 71 69  1  0
 72 81  2  0
 72 77  1  0
 73 69  1  0
 73 77  1  0
 74 73  1  0
 75 76  1  0
 75 74  1  0
 76 72  1  0
 77 78  2  0
 78 79  1  0
 80 79  2  0
 81 80  1  0
 82 56  1  0
 82 83  1  0
 82 92  1  0
 83 86  1  0
 84 88  1  0
 84 83  1  0
 85 84  2  0
 88 87  1  0
 90 88  1  0
 90 91  1  0
 90 89  1  0
 92 95  1  1
 92 93  1  0
 94 92  1  0
M  ISO  4  17 100  18 100  54 101  55 101
M  END
>  <TORSDO>  (8) 
F 23

>  <SCORE>  (8) 
-12.374

>  <name>  (8) 
7

>  <ligand_id>  (8) 
7

>  <original_smiles>  (8) 
[H]c1c([H])c([H])c2c(c1[H])C([H])([H])C([H])([H])C([H])([H])C2([H])N([H])C(=O)C1([H])N(C(=O)C([H])(N([H])C(=O)C([H])(N([H])C([H])([H])[H])C([H])([H])[H])C(C([H])([H])[H])(C([H])([H])[H])C([H])([H])[H])C([H])([H])c2c([H])c(OC([H])([H])C3(C([H])([H])[H])C([H])([H])C([H])([H])C([H])(c4c([H])c([H])c(C([H])([H])C([H])([H])C([H])([H])C([H])([H])C([H])([H])C(=O)N5C([H])([H])C([H])([H])C([H])([H])C([H])(n6nc(-c7c([H])c([H])c(Oc8c([H])c([H])c(F)c([H])c8F)c([H])c7[H])c(C(=O)N([H])[H])c6N([H])[H])C5([H])[H])c([H])c4[H])C3([H])[H])c([H])c([H])c2C1([H])[H]

>  <smiles>  (8) 
[H]c1c([H])c([H])c2c(c1[H])C([H])([H])C([H])([H])C([H])([H])C2([H])N([H])C(=O)C1([H])N(C(=O)C([H])(N([H])C(=O)C([H])(N([H])C([H])([H])[H])C([H])([H])[H])C(C([H])([H])[H])(C([H])([H])[H])C([H])([H])[H])C([H])([H])c2c([H])c(OC([H])([H])C3(C([H])([H])[H])C([H])([H])C([H])([H])C([H])(c4c([H])c([H])c(C([H])([H])C([H])([H])C([H])([H])C([H])([H])C([H])([H])C(=O)N5C([H])([H])C([H])([H])C([H])([H])C([H])(n6nc(-c7c([H])c([H])c(Oc8c([H])c([H])c(F)c([H])c8F)c([H])c7[H])c(C(=O)N([H])[H])c6N([H])[H])C5([H])[H])c([H])c4[H])C3([H])[H])c([H])c([H])c2C1([H])[H]

$$$$
8:0:0
     RDKit          3D

 97106  0  0  1  0  0  0  0  0999 V2000
  -31.3210  -24.5590   18.5590 C   0  0  0  0  0  3  0  0  0  0  0  0
  -28.9840  -24.4240   17.8930 C   0  0  0  0  0  3  0  0  0  0  0  0
  -31.3870  -23.1510   18.6110 C   0  0  0  0  0  3  0  0  0  0  0  0
  -29.0490  -23.0190   17.9470 C   0  0  0  0  0  3  0  0  0  0  0  0
  -30.1130  -25.2040   18.2190 C   0  0  0  0  0  0  0  0  0  0  0  0
  -30.2450  -22.3700   18.3200 C   0  0  0  0  0  0  0  0  0  0  0  0
  -31.4070  -20.1820   17.6910 C   0  0  0  0  0  1  0  0  0  0  0  0
  -30.2600  -20.8490   18.4700 C   0  0  0  0  0  3  0  0  0  0  0  0
  -30.2630  -20.4450   19.9620 C   0  0  0  0  0  2  0  0  0  0  0  0
  -29.4570  -19.1660   20.2720 C   0  0  0  0  0  2  0  0  0  0  0  0
  -29.1420  -18.4830   24.5690 C   0  0  0  0  0  3  0  0  0  0  0  0
  -28.4250  -19.5140   23.9400 C   0  0  0  0  0  3  0  0  0  0  0  0
  -29.9690  -17.6440   23.8030 C   0  0  0  0  0  3  0  0  0  0  0  0
  -28.5530  -19.7150   22.5530 C   0  0  0  0  0  3  0  0  0  0  0  0
  -30.0850  -17.8170   22.4080 C   0  0  0  0  0  0  0  0  0  0  0  0
  -29.3840  -18.8800   21.7710 C   0  0  0  0  0  0  0  0  0  0  0  0
  -30.9060  -16.7780   21.6540 C   0  0  0  0  0  2  0  0  0  0  0  0
  -30.0910  -15.4750   21.5180 C   0  0  0  0  0  2  0  0  0  0  0  0
  -30.7310  -14.3940   20.6400 C   0  0  0  0  0  0  0  0  0  0  0  0
  -30.4280  -12.2880   19.3870 C   0  0  0  0  0  2  0  0  0  0  0  0
  -29.4880  -12.5140   18.1870 C   0  0  0  0  0  2  0  0  0  0  0  0
  -28.0100  -12.3730   18.6080 C   0  0  0  0  0  2  0  0  0  0  0  0
  -27.6670  -13.1970   19.8760 C   0  0  0  0  0  3  0  0  0  0  0  0
  -28.7120  -12.9370   20.9840 C   0  0  0  0  0  2  0  0  0  0  0  0
  -30.0480  -13.2380   20.4400 N   0  0  0  0  0  0  0  0  0  0  0  0
  -31.8120  -14.6330   20.0910 O   0  0  0  0  0  0  0  0  0  0  0  0
  -25.2610  -13.8140   20.5660 C   0  0  0  0  0  0  0  0  0  0  0  0
  -24.1860  -13.0420   20.9160 C   0  0  0  0  0  0  0  0  0  0  0  0
  -24.6410  -11.6890   20.8740 C   0  0  0  0  0  0  0  0  0  0  0  0
  -26.3060  -12.9300   20.3380 N   0  0  0  0  0  0  0  0  0  0  0  0
  -25.9330  -11.6460   20.5750 N   0  0  0  0  0  0  0  0  0  0  0  0
  -23.9070  -10.4270   21.0410 C   0  0  0  0  0  0  0  0  0  0  0  0
  -24.3620   -9.4190   21.9190 C   0  0  0  0  0  3  0  0  0  0  0  0
  -23.6290   -8.2230   22.0750 C   0  0  0  0  0  3  0  0  0  0  0  0
  -22.4260   -8.0280   21.3550 C   0  0  0  0  0  0  0  0  0  0  0  0
  -21.9920   -9.0250   20.4630 C   0  0  0  0  0  3  0  0  0  0  0  0
  -22.7250  -10.2120   20.3040 C   0  0  0  0  0  3  0  0  0  0  0  0
  -21.6620   -6.8880   21.4250 O   0  0  0  0  0  0  0  0  0  0  0  0
  -21.6840   -6.0730   22.5290 C   0  0  0  0  0  0  0  0  0  0  0  0
  -21.4020   -6.5640   23.8230 C   0  0  0  0  0  3  0  0  0  0  0  0
  -21.3660   -5.6800   24.9200 C   0  0  0  0  0  3  0  0  0  0  0  0
  -21.6040   -4.3060   24.7240 C   0  0  0  0  0  0  0  0  0  0  0  0
  -21.8830   -3.8140   23.4370 C   0  0  0  0  0  3  0  0  0  0  0  0
  -21.9190   -4.6960   22.3420 C   0  0  0  0  0  0  0  0  0  0  0  0
  -22.1690   -4.2150   21.1000 F   0  0  0  0  0  0  0  0  0  0  0  0
  -21.5600   -3.4530   25.7750 F   0  0  0  0  0  0  0  0  0  0  0  0
  -22.7870  -13.5200   21.1840 C   0  0  0  0  0  0  0  0  0  0  0  0
  -22.0540  -12.8160   22.0390 N   0  0  0  0  0  0  0  0  0  0  0  0
  -22.3530  -14.5510   20.6720 O   0  0  0  0  0  0  0  0  0  0  0  0
  -22.4190  -11.9810   22.4740 H   0  0  0  0  0  0  0  0  0  0  0  0
  -21.1160  -13.1140   22.2640 H   0  0  0  0  0  0  0  0  0  0  0  0
  -25.4300  -15.1870   20.4020 N   0  0  0  0  0  0  0  0  0  0  0  0
  -24.6610  -15.8440   20.4920 H   0  0  0  0  0  0  0  0  0  0  0  0
  -26.2800  -15.6230   20.0640 H   0  0  0  0  0  0  0  0  0  0  0  0
  -30.0150  -26.7250   18.2070 C   0  0  0  0  0  2  0  0  0  0  0  0
  -29.5880  -27.3280   19.5610 C   0  0  0  0  0  2  0  0  0  0  0  0
  -28.3850  -26.7100   20.0170 O   0  0  0  0  0  0  0  0  0  0  0  0
  -24.6100  -31.8700   23.2160 C   0  0  0  0  0  0  0  0  0  0  0  0
  -27.2500  -27.4830   20.0680 C   0  0  0  0  0  0  0  0  0  0  0  0
  -23.3970  -30.4930   21.5550 C   0  0  0  0  0  3  0  0  0  0  0  0
  -24.8470  -28.9620   20.1210 C   0  0  0  0  0  0  0  0  0  0  0  0
  -25.9220  -30.8490   21.3620 C   0  0  0  0  0  2  0  0  0  0  0  0
  -26.0050  -29.4860   20.7100 C   0  0  0  0  0  0  0  0  0  0  0  0
  -27.2100  -28.7510   20.6890 C   0  0  0  0  0  3  0  0  0  0  0  0
  -26.0720  -26.9530   19.5060 C   0  0  0  0  0  3  0  0  0  0  0  0
  -24.8700  -27.6890   19.5240 C   0  0  0  0  0  3  0  0  0  0  0  0
  -23.6080  -29.8260   20.1690 C   0  0  0  0  0  2  0  0  0  0  0  0
  -24.6610  -31.0840   22.1040 N   0  0  0  0  0  0  0  0  0  0  0  0
  -23.5300  -32.1410   23.7580 O   0  0  0  0  0  0  0  0  0  0  0  0
  -22.7390  -29.4640   22.5010 C   0  0  0  0  0  0  0  0  0  0  0  0
  -21.4120  -29.3030   22.3760 N   0  0  0  0  0  0  0  0  0  0  0  0
  -23.4190  -28.8160   23.3020 O   0  0  0  0  0  0  0  0  0  0  0  0
  -20.9270  -29.8830   21.7060 H   0  0  0  0  0  0  0  0  0  0  0  0
  -18.0260  -28.1380   22.8500 C   0  0  0  0  0  0  0  0  0  0  0  0
  -20.5850  -28.3660   23.1340 C   0  0  0  0  0  3  0  0  0  0  0  0
  -20.6740  -26.9390   22.5430 C   0  0  0  0  0  2  0  0  0  0  0  0
  -19.5720  -26.6390   21.5210 C   0  0  0  0  0  2  0  0  0  0  0  0
  -18.1900  -26.7930   22.1630 C   0  0  0  0  0  2  0  0  0  0  0  0
  -19.1510  -28.8840   23.2910 C   0  0  0  0  0  0  0  0  0  0  0  0
  -18.9440  -30.1450   23.8930 C   0  0  0  0  0  3  0  0  0  0  0  0
  -17.6440  -30.6590   24.0580 C   0  0  0  0  0  3  0  0  0  0  0  0
  -16.5330  -29.9110   23.6310 C   0  0  0  0  0  3  0  0  0  0  0  0
  -16.7250  -28.6520   23.0350 C   0  0  0  0  0  3  0  0  0  0  0  0
  -25.9000  -32.4840   23.8440 C   0  0  0  0  0  3  0  0  0  0  0  0
  -25.5860  -33.8640   24.2350 N   0  0  0  0  0  0  0  0  0  0  0  0
  -25.9020  -34.9480   23.5150 C   0  0  0  0  0  0  0  0  0  0  0  0
  -26.5590  -34.8920   22.4710 O   0  0  0  0  0  0  0  0  0  0  0  0
  -25.0000  -33.9810   25.0490 H   0  0  0  0  0  0  0  0  0  0  0  0
  -24.1480  -36.7330   23.2640 C   0  0  0  0  0  1  0  0  0  0  0  0
  -25.4100  -36.3120   24.0340 C   0  0  0  0  0  3  0  0  0  0  0  0
  -27.5580  -37.1820   24.8470 C   0  0  0  0  0  1  0  0  0  0  0  0
  -26.4290  -37.3800   23.9410 N   0  0  0  0  0  0  0  0  0  0  0  0
  -26.0180  -38.2880   24.1410 H   0  0  0  0  0  0  0  0  0  0  0  0
  -26.4450  -31.6610   25.0740 C   0  0  1  0  0  0  0  0  0  0  0  0
  -25.3750  -31.3690   26.1510 C   0  0  0  0  0  1  0  0  0  0  0  0
  -27.0280  -30.3070   24.6080 C   0  0  0  0  0  1  0  0  0  0  0  0
  -27.6010  -32.4340   25.7540 C   0  0  0  0  0  1  0  0  0  0  0  0
  1  3  1  0
  2  4  2  0
  2  5  1  0
  4  6  1  0
  5  1  2  0
  6  8  1  0
  6  3  2  0
  8  7  1  0
  8  9  1  0
  9 10  1  0
 10 16  1  0
 12 11  1  0
 13 11  2  0
 14 12  2  0
 15 13  1  0
 16 15  2  0
 16 14  1  0
 17 15  1  0
 18 17  1  0
 19 18  1  0
 20 25  1  0
 21 22  1  0
 21 20  1  0
 23 22  1  0
 23 30  1  0
 23 24  1  0
 25 19  1  0
 25 24  1  0
 26 19  2  0
 27 28  2  0
 28 47  1  0
 29 28  1  0
 29 32  1  0
 30 27  1  0
 30 31  1  0
 31 29  2  0
 32 33  1  0
 33 34  2  0
 35 38  1  0
 35 34  1  0
 36 35  2  0
 37 36  1  0
 37 32  2  0
 38 39  1  0
 39 40  1  0
 40 41  2  0
 42 41  1  0
 42 46  1  0
 43 42  2  0
 44 39  2  0
 44 43  1  0
 45 44  1  0
 47 48  1  0
 48 51  1  0
 48 50  1  0
 49 47  2  0
 52 53  1  0
 52 27  1  0
 54 52  1  0
 55  5  1  0
 55 56  1  0
 56 57  1  0
 57 59  1  0
 58 69  2  0
 59 64  1  0
 60 68  1  0
 60 70  1  0
 61 67  1  0
 61 63  1  0
 62 68  1  0
 63 62  1  0
 64 63  2  0
 65 66  1  0
 65 59  2  0
 66 61  2  0
 67 60  1  0
 68 58  1  0
 70 72  2  0
 71 70  1  0
 73 71  1  0
 74 83  2  0
 74 79  1  0
 75 71  1  0
 75 79  1  0
 76 75  1  0
 77 78  1  0
 77 76  1  0
 78 74  1  0
 79 80  2  0
 80 81  1  0
 82 81  2  0
 83 82  1  0
 84 58  1  0
 84 85  1  0
 84 94  1  0
 85 88  1  0
 86 90  1  0
 86 85  1  0
 87 86  2  0
 90 89  1  0
 92 90  1  0
 92 93  1  0
 92 91  1  0
 94 97  1  1
 94 95  1  0
 96 94  1  0
M  ISO  4  18 100  19 100  56 101  57 101
M  END
>  <TORSDO>  (9) 
F 24

>  <SCORE>  (9) 
2.572

>  <name>  (9) 
8

>  <ligand_id>  (9) 
8

>  <original_smiles>  (9) 
[H]c1c([H])c([H])c(C([H])([H])C([H])([H])C([H])(c2c([H])c([H])c(C([H])([H])C([H])([H])Oc3c([H])c([H])c4c(c3[H])C([H])([H])N(C(=O)C([H])(N([H])C(=O)C([H])(N([H])C([H])([H])[H])C([H])([H])[H])C(C([H])([H])[H])(C([H])([H])[H])C([H])([H])[H])C([H])(C(=O)N([H])C3([H])c5c([H])c([H])c([H])c([H])c5C([H])([H])C([H])([H])C3([H])[H])C4([H])[H])c([H])c2[H])C([H])([H])[H])c(C([H])([H])C([H])([H])C(=O)N2C([H])([H])C([H])([H])C([H])([H])C([H])(n3nc(-c4c([H])c([H])c(Oc5c([H])c([H])c(F)c([H])c5F)c([H])c4[H])c(C(=O)N([H])[H])c3N([H])[H])C2([H])[H])c1[H]

>  <smiles>  (9) 
[H]c1c([H])c([H])c(C([H])([H])C([H])([H])C([H])(c2c([H])c([H])c(C([H])([H])C([H])([H])Oc3c([H])c([H])c4c(c3[H])C([H])([H])N(C(=O)C([H])(N([H])C(=O)C([H])(N([H])C([H])([H])[H])C([H])([H])[H])C(C([H])([H])[H])(C([H])([H])[H])C([H])([H])[H])C([H])(C(=O)N([H])C3([H])c5c([H])c([H])c([H])c([H])c5C([H])([H])C([H])([H])C3([H])[H])C4([H])[H])c([H])c2[H])C([H])([H])[H])c(C([H])([H])C([H])([H])C(=O)N2C([H])([H])C([H])([H])C([H])([H])C([H])(n3nc(-c4c([H])c([H])c(Oc5c([H])c([H])c(F)c([H])c5F)c([H])c4[H])c(C(=O)N([H])[H])c3N([H])[H])C2([H])[H])c1[H]

$$$$
9:0:0
     RDKit          3D

 96104  0  0  1  0  0  0  0  0999 V2000
  -28.1970  -22.3300   21.0130 C   0  0  0  0  0  3  0  0  0  0  0  0
  -29.8190  -24.0250   21.6660 C   0  0  0  0  0  3  0  0  0  0  0  0
  -28.8860  -21.3740   21.7820 C   0  0  0  0  0  3  0  0  0  0  0  0
  -30.5110  -23.0670   22.4320 C   0  0  0  0  0  3  0  0  0  0  0  0
  -28.6580  -23.6650   20.9430 C   0  0  0  0  0  0  0  0  0  0  0  0
  -30.0560  -21.7350   22.4820 C   0  0  0  0  0  0  0  0  0  0  0  0
  -27.9360  -24.6450   20.0800 C   0  0  0  0  0  0  0  0  0  0  0  0
  -27.1000  -24.2990   19.2350 O   0  0  0  0  0  0  0  0  0  0  0  0
  -28.2700  -26.1330   20.2770 C   0  0  0  0  0  2  0  0  0  0  0  0
  -27.8010  -26.9200   19.1880 O   0  0  0  0  0  0  0  0  0  0  0  0
  -24.4800  -31.8720   23.0910 C   0  0  0  0  0  0  0  0  0  0  0  0
  -26.6550  -27.6210   19.4500 C   0  0  0  0  0  0  0  0  0  0  0  0
  -23.0650  -30.6050   21.5060 C   0  0  0  0  0  3  0  0  0  0  0  0
  -24.3120  -29.1280   19.8480 C   0  0  0  0  0  0  0  0  0  0  0  0
  -25.5590  -30.9330   21.0510 C   0  0  0  0  0  2  0  0  0  0  0  0
  -25.5400  -29.6020   20.3310 C   0  0  0  0  0  0  0  0  0  0  0  0
  -26.7170  -28.8530   20.1310 C   0  0  0  0  0  3  0  0  0  0  0  0
  -25.4150  -27.1440   18.9770 C   0  0  0  0  0  3  0  0  0  0  0  0
  -24.2390  -27.8920   19.1800 C   0  0  0  0  0  3  0  0  0  0  0  0
  -23.1040  -30.0030   20.0760 C   0  0  0  0  0  2  0  0  0  0  0  0
  -24.3940  -31.1470   21.9410 N   0  0  0  0  0  0  0  0  0  0  0  0
  -23.4700  -32.1290   23.7630 O   0  0  0  0  0  0  0  0  0  0  0  0
  -22.4940  -29.5380   22.4670 C   0  0  0  0  0  0  0  0  0  0  0  0
  -21.1680  -29.3340   22.4120 N   0  0  0  0  0  0  0  0  0  0  0  0
  -23.2370  -28.8970   23.2140 O   0  0  0  0  0  0  0  0  0  0  0  0
  -20.6250  -29.9070   21.7820 H   0  0  0  0  0  0  0  0  0  0  0  0
  -17.8700  -27.9650   22.9620 C   0  0  0  0  0  0  0  0  0  0  0  0
  -20.4150  -28.3510   23.1930 C   0  0  0  0  0  3  0  0  0  0  0  0
  -20.5820  -26.9290   22.6100 C   0  0  0  0  0  2  0  0  0  0  0  0
  -19.4800  -26.5520   21.6140 C   0  0  0  0  0  2  0  0  0  0  0  0
  -18.1040  -26.6270   22.2820 C   0  0  0  0  0  2  0  0  0  0  0  0
  -18.9550  -28.7810   23.3770 C   0  0  0  0  0  0  0  0  0  0  0  0
  -18.6840  -30.0320   23.9710 C   0  0  0  0  0  3  0  0  0  0  0  0
  -17.3580  -30.4680   24.1580 C   0  0  0  0  0  3  0  0  0  0  0  0
  -16.2870  -29.6470   23.7610 C   0  0  0  0  0  3  0  0  0  0  0  0
  -16.5450  -28.3980   23.1710 C   0  0  0  0  0  3  0  0  0  0  0  0
  -25.8430  -32.4340   23.6030 C   0  0  0  0  0  3  0  0  0  0  0  0
  -25.6040  -33.8030   24.0790 N   0  0  0  0  0  0  0  0  0  0  0  0
  -25.9120  -34.9110   23.3910 C   0  0  0  0  0  0  0  0  0  0  0  0
  -26.4960  -34.8850   22.3040 O   0  0  0  0  0  0  0  0  0  0  0  0
  -25.0770  -33.9000   24.9340 H   0  0  0  0  0  0  0  0  0  0  0  0
  -24.2300  -36.7780   23.3220 C   0  0  0  0  0  1  0  0  0  0  0  0
  -25.5060  -36.2620   24.0060 C   0  0  0  0  0  3  0  0  0  0  0  0
  -27.7200  -37.0000   24.7690 C   0  0  0  0  0  1  0  0  0  0  0  0
  -26.5660  -37.2900   23.9220 N   0  0  0  0  0  0  0  0  0  0  0  0
  -26.2040  -38.2030   24.1810 H   0  0  0  0  0  0  0  0  0  0  0  0
  -26.4920  -31.5520   24.7380 C   0  0  1  0  0  0  0  0  0  0  0  0
  -25.5320  -31.2480   25.9120 C   0  0  0  0  0  1  0  0  0  0  0  0
  -26.9810  -30.2040   24.1630 C   0  0  0  0  0  1  0  0  0  0  0  0
  -27.7350  -32.2710   25.3150 C   0  0  0  0  0  1  0  0  0  0  0  0
  -30.8220  -20.6920   23.2820 C   0  0  0  0  0  2  0  0  0  0  0  0
  -32.2050  -20.3350   22.7010 C   0  0  0  0  0  2  0  0  0  0  0  0
  -32.1500  -19.6780   21.3200 C   0  0  0  0  0  0  0  0  0  0  0  0
  -31.8930  -20.3280   20.3050 O   0  0  0  0  0  0  0  0  0  0  0  0
  -32.5070  -18.1960   21.2210 C   0  0  0  0  0  2  0  0  0  0  0  0
  -31.3470  -17.2020   21.4630 C   0  0  0  0  0  2  0  0  0  0  0  0
  -29.2490  -17.6490   20.0330 C   0  0  0  0  0  1  0  0  0  0  0  0
  -30.5250  -16.8100   20.2130 C   0  0  0  0  0  3  0  0  0  0  0  0
  -30.6950  -14.3850   19.6230 C   0  0  0  0  0  0  0  0  0  0  0  0
  -30.4310  -12.0470   18.8900 C   0  0  0  0  0  2  0  0  0  0  0  0
  -29.4050  -11.9580   17.7430 C   0  0  0  0  0  2  0  0  0  0  0  0
  -27.9790  -11.8150   18.3020 C   0  0  0  0  0  2  0  0  0  0  0  0
  -27.6600  -12.8800   19.3860 C   0  0  0  0  0  3  0  0  0  0  0  0
  -28.7880  -12.9480   20.4400 C   0  0  0  0  0  2  0  0  0  0  0  0
  -30.0640  -13.1880   19.7400 N   0  0  0  0  0  0  0  0  0  0  0  0
  -31.6950  -14.5540   18.9170 O   0  0  0  0  0  0  0  0  0  0  0  0
  -30.1330  -15.3990   20.2950 N   0  0  0  0  0  0  0  0  0  0  0  0
  -29.3180  -15.1700   20.8450 H   0  0  0  0  0  0  0  0  0  0  0  0
  -25.3680  -13.5390   20.3530 C   0  0  0  0  0  0  0  0  0  0  0  0
  -24.3270  -12.7880   20.8310 C   0  0  0  0  0  0  0  0  0  0  0  0
  -24.7480  -11.4260   20.7370 C   0  0  0  0  0  0  0  0  0  0  0  0
  -26.3590  -12.6360   20.0040 N   0  0  0  0  0  0  0  0  0  0  0  0
  -25.9950  -11.3600   20.2890 N   0  0  0  0  0  0  0  0  0  0  0  0
  -24.0180  -10.1780   20.9950 C   0  0  0  0  0  0  0  0  0  0  0  0
  -24.4790   -9.2360   21.9410 C   0  0  0  0  0  3  0  0  0  0  0  0
  -23.7500   -8.0520   22.1850 C   0  0  0  0  0  3  0  0  0  0  0  0
  -22.5480   -7.8020   21.4820 C   0  0  0  0  0  0  0  0  0  0  0  0
  -22.1070   -8.7320   20.5240 C   0  0  0  0  0  3  0  0  0  0  0  0
  -22.8350   -9.9070   20.2780 C   0  0  0  0  0  3  0  0  0  0  0  0
  -21.7870   -6.6680   21.6330 O   0  0  0  0  0  0  0  0  0  0  0  0
  -21.7080   -6.0090   22.8340 C   0  0  0  0  0  0  0  0  0  0  0  0
  -21.2530   -6.6500   24.0070 C   0  0  0  0  0  3  0  0  0  0  0  0
  -21.1250   -5.9170   25.2040 C   0  0  0  0  0  3  0  0  0  0  0  0
  -21.4400   -4.5440   25.2280 C   0  0  0  0  0  0  0  0  0  0  0  0
  -21.8870   -3.9050   24.0590 C   0  0  0  0  0  3  0  0  0  0  0  0
  -22.0180   -4.6350   22.8640 C   0  0  0  0  0  0  0  0  0  0  0  0
  -22.4300   -4.0090   21.7360 F   0  0  0  0  0  0  0  0  0  0  0  0
  -21.3080   -3.8380   26.3750 F   0  0  0  0  0  0  0  0  0  0  0  0
  -22.9790  -13.2930   21.2590 C   0  0  0  0  0  0  0  0  0  0  0  0
  -22.3430  -12.6100   22.2050 N   0  0  0  0  0  0  0  0  0  0  0  0
  -22.5030  -14.3270   20.7910 O   0  0  0  0  0  0  0  0  0  0  0  0
  -22.7460  -11.7740   22.6030 H   0  0  0  0  0  0  0  0  0  0  0  0
  -21.4430  -12.9260   22.5360 H   0  0  0  0  0  0  0  0  0  0  0  0
  -25.5470  -14.9070   20.1710 N   0  0  0  0  0  0  0  0  0  0  0  0
  -24.8160  -15.5810   20.3690 H   0  0  0  0  0  0  0  0  0  0  0  0
  -26.3760  -15.3250   19.7660 H   0  0  0  0  0  0  0  0  0  0  0  0
  1  3  1  0
  2  4  2  0
  3  6  2  0
  4  6  1  0
  5  1  2  0
  5  2  1  0
  6 51  1  0
  7  9  1  0
  7  5  1  0
  8  7  2  0
 10 12  1  0
 10  9  1  0
 11 22  2  0
 12 17  1  0
 13 21  1  0
 13 23  1  0
 14 20  1  0
 14 16  1  0
 15 21  1  0
 16 15  1  0
 17 16  2  0
 18 19  1  0
 18 12  2  0
 19 14  2  0
 20 13  1  0
 21 11  1  0
 23 25  2  0
 24 23  1  0
 26 24  1  0
 27 36  2  0
 27 32  1  0
 28 24  1  0
 28 32  1  0
 29 28  1  0
 30 31  1  0
 30 29  1  0
 31 27  1  0
 32 33  2  0
 33 34  1  0
 35 34  2  0
 36 35  1  0
 37 11  1  0
 37 38  1  0
 37 47  1  0
 38 41  1  0
 39 43  1  0
 39 38  1  0
 40 39  2  0
 43 42  1  0
 45 43  1  0
 45 46  1  0
 45 44  1  0
 47 50  1  1
 47 48  1  0
 49 47  1  0
 52 51  1  0
 53 52  1  0
 54 53  2  0
 55 53  1  0
 55 56  1  0
 58 57  1  0
 58 67  1  0
 58 56  1  0
 59 65  1  0
 59 67  1  0
 60 65  1  0
 61 62  1  0
 61 60  1  0
 63 62  1  0
 63 72  1  0
 63 64  1  0
 65 64  1  0
 66 59  2  0
 67 68  1  0
 69 70  2  0
 70 89  1  0
 71 70  1  0
 71 74  1  0
 72 73  1  0
 72 69  1  0
 73 71  2  0
 74 75  1  0
 75 76  2  0
 77 80  1  0
 77 76  1  0
 78 77  2  0
 79 78  1  0
 79 74  2  0
 80 81  1  0
 81 86  2  0
 81 82  1  0
 82 83  2  0
 83 84  1  0
 84 88  1  0
 85 84  2  0
 86 85  1  0
 87 86  1  0
 89 90  1  0
 90 93  1  0
 90 92  1  0
 91 89  2  0
 94 69  1  0
 94 95  1  0
 96 94  1  0
M  ISO  4   9 101  10 101  59 100  67 100
M  END
>  <TORSDO>  (10) 
F 24

>  <SCORE>  (10) 
-11.739

>  <name>  (10) 
9

>  <ligand_id>  (10) 
9

>  <original_smiles>  (10) 
[H]c1c([H])c([H])c2c(c1[H])C([H])([H])C([H])([H])C([H])([H])C2([H])N([H])C(=O)C1([H])N(C(=O)C([H])(N([H])C(=O)C([H])(N([H])C([H])([H])[H])C([H])([H])[H])C(C([H])([H])[H])(C([H])([H])[H])C([H])([H])[H])C([H])([H])c2c([H])c(OC([H])([H])C(=O)c3c([H])c([H])c(C([H])([H])C([H])([H])C(=O)C([H])([H])C([H])([H])C([H])(N([H])C(=O)N4C([H])([H])C([H])([H])C([H])([H])C([H])(n5nc(-c6c([H])c([H])c(Oc7c([H])c([H])c(F)c([H])c7F)c([H])c6[H])c(C(=O)N([H])[H])c5N([H])[H])C4([H])[H])C([H])([H])[H])c([H])c3[H])c([H])c([H])c2C1([H])[H]

>  <smiles>  (10) 
[H]c1c([H])c([H])c2c(c1[H])C([H])([H])C([H])([H])C([H])([H])C2([H])N([H])C(=O)C1([H])N(C(=O)C([H])(N([H])C(=O)C([H])(N([H])C([H])([H])[H])C([H])([H])[H])C(C([H])([H])[H])(C([H])([H])[H])C([H])([H])[H])C([H])([H])c2c([H])c(OC([H])([H])C(=O)c3c([H])c([H])c(C([H])([H])C([H])([H])C(=O)C([H])([H])C([H])([H])C([H])(N([H])C(=O)N4C([H])([H])C([H])([H])C([H])([H])C([H])(n5nc(-c6c([H])c([H])c(Oc7c([H])c([H])c(F)c([H])c7F)c([H])c6[H])c(C(=O)N([H])[H])c5N([H])[H])C4([H])[H])C([H])([H])[H])c([H])c3[H])c([H])c([H])c2C1([H])[H]

$$$$
10:0:0
     RDKit          3D

 97106  0  0  1  0  0  0  0  0999 V2000
  -25.6340  -23.4220   18.9370 C   0  0  0  0  0  3  0  0  0  0  0  0
  -25.5650  -24.7120   19.4960 C   0  0  0  0  0  3  0  0  0  0  0  0
  -24.9830  -22.4710   21.0840 C   0  0  0  0  0  3  0  0  0  0  0  0
  -25.3510  -22.2880   19.7340 C   0  0  0  0  0  0  0  0  0  0  0  0
  -25.2550  -24.8900   20.8620 C   0  0  0  0  0  0  0  0  0  0  0  0
  -24.9370  -23.7610   21.6490 C   0  0  0  0  0  0  0  0  0  0  0  0
  -24.5870  -23.9100   22.9490 F   0  0  0  0  0  0  0  0  0  0  0  0
  -25.4690  -20.8860   19.1510 C   0  0  0  0  0  2  0  0  0  0  0  0
  -26.6970  -20.7570   18.2340 C   0  0  0  0  0  2  0  0  0  0  0  0
  -27.2780  -19.3270   18.1450 C   0  0  0  0  0  2  0  0  0  0  0  0
  -32.1480  -16.6690   19.2770 C   0  0  0  0  0  0  0  0  0  0  0  0
  -32.5560  -14.3540   20.0660 C   0  0  0  0  0  2  0  0  0  0  0  0
  -31.9110  -13.3260   19.1090 C   0  0  0  0  0  2  0  0  0  0  0  0
  -30.4170  -13.1110   19.4250 C   0  0  0  0  0  2  0  0  0  0  0  0
  -29.6500  -14.4490   19.5840 C   0  0  0  0  0  3  0  0  0  0  0  0
  -30.4170  -15.3450   20.5670 C   0  0  0  0  0  2  0  0  0  0  0  0
  -31.7600  -15.5910   20.0170 N   0  0  0  0  0  0  0  0  0  0  0  0
  -33.2430  -16.7010   18.6970 O   0  0  0  0  0  0  0  0  0  0  0  0
  -29.5580  -18.4300   17.3690 C   0  0  0  0  0  2  0  0  0  0  0  0
  -29.0860  -18.6610   19.8430 C   0  0  0  0  0  2  0  0  0  0  0  0
  -31.0480  -18.2270   17.7160 C   0  0  0  0  0  2  0  0  0  0  0  0
  -30.6110  -18.4800   20.0710 C   0  0  0  0  0  2  0  0  0  0  0  0
  -28.7960  -19.2420   18.4440 C   0  0  0  0  0  3  0  0  0  0  0  0
  -31.1830  -17.6010   19.0360 N   0  0  0  0  0  0  0  0  0  0  0  0
  -27.2780  -15.1800   20.2740 C   0  0  0  0  0  0  0  0  0  0  0  0
  -26.1630  -14.4630   20.6150 C   0  0  0  0  0  0  0  0  0  0  0  0
  -26.5430  -13.0870   20.5440 C   0  0  0  0  0  0  0  0  0  0  0  0
  -28.2720  -14.2450   20.0260 N   0  0  0  0  0  0  0  0  0  0  0  0
  -27.8300  -12.9810   20.2400 N   0  0  0  0  0  0  0  0  0  0  0  0
  -25.7420  -11.8650   20.6800 C   0  0  0  0  0  0  0  0  0  0  0  0
  -25.9320  -10.9770   21.7610 C   0  0  0  0  0  3  0  0  0  0  0  0
  -25.1380   -9.8160   21.8820 C   0  0  0  0  0  3  0  0  0  0  0  0
  -24.1440   -9.5320   20.9170 C   0  0  0  0  0  0  0  0  0  0  0  0
  -23.9710  -10.4090   19.8300 C   0  0  0  0  0  3  0  0  0  0  0  0
  -24.7670  -11.5620   19.7080 C   0  0  0  0  0  3  0  0  0  0  0  0
  -23.3460   -8.4130   20.9370 O   0  0  0  0  0  0  0  0  0  0  0  0
  -22.7570   -7.9690   22.0950 C   0  0  0  0  0  0  0  0  0  0  0  0
  -21.8910   -8.7900   22.8490 C   0  0  0  0  0  3  0  0  0  0  0  0
  -21.2510   -8.2730   23.9950 C   0  0  0  0  0  3  0  0  0  0  0  0
  -21.4700   -6.9370   24.3800 C   0  0  0  0  0  0  0  0  0  0  0  0
  -22.3280   -6.1160   23.6270 C   0  0  0  0  0  3  0  0  0  0  0  0
  -22.9670   -6.6310   22.4860 C   0  0  0  0  0  0  0  0  0  0  0  0
  -23.7800   -5.8310   21.7510 F   0  0  0  0  0  0  0  0  0  0  0  0
  -20.8480   -6.4380   25.4720 F   0  0  0  0  0  0  0  0  0  0  0  0
  -24.7950  -15.0140   20.8940 C   0  0  0  0  0  0  0  0  0  0  0  0
  -24.0350  -14.3680   21.7710 N   0  0  0  0  0  0  0  0  0  0  0  0
  -24.4060  -16.0530   20.3620 O   0  0  0  0  0  0  0  0  0  0  0  0
  -24.3530  -13.5240   22.2230 H   0  0  0  0  0  0  0  0  0  0  0  0
  -23.1180  -14.7280   21.9950 H   0  0  0  0  0  0  0  0  0  0  0  0
  -27.5200  -16.5430   20.1270 N   0  0  0  0  0  0  0  0  0  0  0  0
  -26.7750  -17.2260   20.1880 H   0  0  0  0  0  0  0  0  0  0  0  0
  -28.3730  -16.9200   19.7310 H   0  0  0  0  0  0  0  0  0  0  0  0
  -25.2590  -26.2900   21.4640 C   0  0  0  0  0  2  0  0  0  0  0  0
  -26.6430  -26.7670   21.9820 C   0  0  0  0  0  2  0  0  0  0  0  0
  -27.8870  -26.1280   21.3130 C   0  0  0  0  0  2  0  0  0  0  0  0
  -28.8950  -27.1000   20.6450 C   0  0  0  0  0  2  0  0  0  0  0  0
  -28.4260  -27.6350   19.3930 O   0  0  0  0  0  0  0  0  0  0  0  0
  -24.6700  -31.9190   23.5490 C   0  0  0  0  0  0  0  0  0  0  0  0
  -27.2750  -28.3640   19.5160 C   0  0  0  0  0  0  0  0  0  0  0  0
  -23.4050  -30.8040   21.7330 C   0  0  0  0  0  3  0  0  0  0  0  0
  -24.8200  -29.6690   19.9390 C   0  0  0  0  0  0  0  0  0  0  0  0
  -25.8820  -31.3600   21.4510 C   0  0  0  0  0  2  0  0  0  0  0  0
  -25.9870  -30.1540   20.5450 C   0  0  0  0  0  0  0  0  0  0  0  0
  -27.2210  -29.5170   20.3240 C   0  0  0  0  0  3  0  0  0  0  0  0
  -26.1060  -27.8990   18.8770 C   0  0  0  0  0  3  0  0  0  0  0  0
  -24.8730  -28.5450   19.0940 C   0  0  0  0  0  3  0  0  0  0  0  0
  -23.5410  -30.4130   20.2360 C   0  0  0  0  0  2  0  0  0  0  0  0
  -24.6740  -31.3640   22.3050 N   0  0  0  0  0  0  0  0  0  0  0  0
  -23.6240  -32.0140   24.2030 O   0  0  0  0  0  0  0  0  0  0  0  0
  -22.8720  -29.5830   22.5150 C   0  0  0  0  0  0  0  0  0  0  0  0
  -21.5810  -29.2670   22.3180 N   0  0  0  0  0  0  0  0  0  0  0  0
  -23.6160  -28.9270   23.2500 O   0  0  0  0  0  0  0  0  0  0  0  0
  -21.0410  -29.8600   21.7050 H   0  0  0  0  0  0  0  0  0  0  0  0
  -18.4050  -27.5600   22.4280 C   0  0  0  0  0  0  0  0  0  0  0  0
  -20.8740  -28.1370   22.9180 C   0  0  0  0  0  3  0  0  0  0  0  0
  -21.2210  -26.8200   22.1860 C   0  0  0  0  0  2  0  0  0  0  0  0
  -20.2450  -26.4850   21.0580 C   0  0  0  0  0  2  0  0  0  0  0  0
  -18.8190  -26.3490   21.6080 C   0  0  0  0  0  2  0  0  0  0  0  0
  -19.3700  -28.4090   23.0310 C   0  0  0  0  0  0  0  0  0  0  0  0
  -18.9370  -29.5460   23.7480 C   0  0  0  0  0  3  0  0  0  0  0  0
  -17.5640  -29.8370   23.8750 C   0  0  0  0  0  3  0  0  0  0  0  0
  -16.6090  -28.9810   23.2950 C   0  0  0  0  0  3  0  0  0  0  0  0
  -17.0300  -27.8450   22.5810 C   0  0  0  0  0  3  0  0  0  0  0  0
  -25.9710  -32.4790   24.2040 C   0  0  0  0  0  3  0  0  0  0  0  0
  -25.7280  -33.8870   24.5430 N   0  0  0  0  0  0  0  0  0  0  0  0
  -26.1690  -34.9260   23.8220 C   0  0  0  0  0  0  0  0  0  0  0  0
  -26.8950  -34.7960   22.8330 O   0  0  0  0  0  0  0  0  0  0  0  0
  -25.1010  -34.0650   25.3140 H   0  0  0  0  0  0  0  0  0  0  0  0
  -24.5720  -36.8140   23.3840 C   0  0  0  0  0  1  0  0  0  0  0  0
  -25.7340  -36.3340   24.2670 C   0  0  0  0  0  3  0  0  0  0  0  0
  -27.8660  -37.0770   25.2340 C   0  0  0  0  0  1  0  0  0  0  0  0
  -26.8320  -37.3270   24.2340 N   0  0  0  0  0  0  0  0  0  0  0  0
  -26.4740  -38.2690   24.3760 H   0  0  0  0  0  0  0  0  0  0  0  0
  -26.4250  -31.6700   25.4810 C   0  0  1  0  0  0  0  0  0  0  0  0
  -25.2970  -31.4640   26.5190 C   0  0  0  0  0  1  0  0  0  0  0  0
  -26.9660  -30.2780   25.0780 C   0  0  0  0  0  1  0  0  0  0  0  0
  -27.5970  -32.4040   26.1760 C   0  0  0  0  0  1  0  0  0  0  0  0
  1  2  2  0
  1  4  1  0
  2  5  1  0
  3  6  1  0
  4  3  2  0
  5 53  1  0
  5  6  2  0
  6  7  1  0
  8  4  1  0
  9  8  1  0
 10  9  1  0
 11 17  1  0
 13 14  1  0
 13 12  1  0
 15 14  1  0
 15 28  1  0
 15 16  1  0
 17 12  1  0
 17 16  1  0
 18 11  2  0
 19 21  1  0
 19 23  1  0
 20 22  1  0
 21 24  1  0
 23 10  1  0
 23 20  1  0
 24 11  1  0
 24 22  1  0
 25 26  2  0
 26 45  1  0
 27 26  1  0
 27 30  1  0
 28 29  1  0
 28 25  1  0
 29 27  2  0
 30 31  1  0
 31 32  2  0
 33 36  1  0
 33 32  1  0
 34 33  2  0
 35 34  1  0
 35 30  2  0
 36 37  1  0
 37 42  2  0
 37 38  1  0
 38 39  2  0
 39 40  1  0
 40 44  1  0
 41 40  2  0
 42 41  1  0
 43 42  1  0
 45 46  1  0
 46 49  1  0
 46 48  1  0
 47 45  2  0
 50 51  1  0
 50 25  1  0
 52 50  1  0
 53 54  1  0
 55 54  1  0
 56 55  1  0
 57 59  1  0
 57 56  1  0
 58 69  2  0
 59 64  1  0
 60 68  1  0
 60 70  1  0
 61 67  1  0
 61 63  1  0
 62 68  1  0
 63 62  1  0
 64 63  2  0
 65 66  1  0
 65 59  2  0
 66 61  2  0
 67 60  1  0
 68 58  1  0
 70 72  2  0
 71 70  1  0
 73 71  1  0
 74 83  2  0
 74 79  1  0
 75 71  1  0
 75 79  1  0
 76 75  1  0
 77 78  1  0
 77 76  1  0
 78 74  1  0
 79 80  2  0
 80 81  1  0
 82 81  2  0
 83 82  1  0
 84 58  1  0
 84 85  1  0
 84 94  1  0
 85 88  1  0
 86 90  1  0
 86 85  1  0
 87 86  2  0
 90 89  1  0
 92 90  1  0
 92 93  1  0
 92 91  1  0
 94 97  1  1
 94 95  1  0
 96 94  1  0
M  ISO  4  11 100  24 100  56 101  57 101
M  END
>  <TORSDO>  (11) 
F 23

>  <SCORE>  (11) 
-6.236

>  <name>  (11) 
10

>  <ligand_id>  (11) 
10

>  <original_smiles>  (11) 
[H]c1c([H])c([H])c2c(c1[H])C([H])([H])C([H])([H])C([H])([H])C2([H])N([H])C(=O)C1([H])N(C(=O)C([H])(N([H])C(=O)C([H])(N([H])C([H])([H])[H])C([H])([H])[H])C(C([H])([H])[H])(C([H])([H])[H])C([H])([H])[H])C([H])([H])c2c([H])c(OC([H])([H])C([H])([H])C([H])([H])C([H])([H])c3c([H])c([H])c(C([H])([H])C([H])([H])C([H])([H])C4([H])C([H])([H])C([H])([H])N(C(=O)N5C([H])([H])C([H])([H])C([H])([H])C([H])(n6nc(-c7c([H])c([H])c(Oc8c([H])c([H])c(F)c([H])c8F)c([H])c7[H])c(C(=O)N([H])[H])c6N([H])[H])C5([H])[H])C([H])([H])C4([H])[H])c([H])c3F)c([H])c([H])c2C1([H])[H]

>  <smiles>  (11) 
[H]c1c([H])c([H])c2c(c1[H])C([H])([H])C([H])([H])C([H])([H])C2([H])N([H])C(=O)C1([H])N(C(=O)C([H])(N([H])C(=O)C([H])(N([H])C([H])([H])[H])C([H])([H])[H])C(C([H])([H])[H])(C([H])([H])[H])C([H])([H])[H])C([H])([H])c2c([H])c(OC([H])([H])C([H])([H])C([H])([H])C([H])([H])c3c([H])c([H])c(C([H])([H])C([H])([H])C([H])([H])C4([H])C([H])([H])C([H])([H])N(C(=O)N5C([H])([H])C([H])([H])C([H])([H])C([H])(n6nc(-c7c([H])c([H])c(Oc8c([H])c([H])c(F)c([H])c8F)c([H])c7[H])c(C(=O)N([H])[H])c6N([H])[H])C5([H])[H])C([H])([H])C4([H])[H])c([H])c3F)c([H])c([H])c2C1([H])[H]

$$$$
11:0:0
     RDKit          3D

 95102  0  0  1  0  0  0  0  0999 V2000
  -29.1690  -24.9850   18.6660 C   0  0  0  0  0  3  0  0  0  0  0  0
  -29.3110  -23.7470   18.1420 C   0  0  0  0  0  0  0  0  0  0  0  0
  -28.5080  -25.3590   19.9800 C   0  0  0  0  0  2  0  0  0  0  0  0
  -28.4550  -26.7800   20.1360 O   0  0  0  0  0  0  0  0  0  0  0  0
  -24.6060  -31.8680   23.2260 C   0  0  0  0  0  0  0  0  0  0  0  0
  -27.2450  -27.4430   20.1210 C   0  0  0  0  0  0  0  0  0  0  0  0
  -23.3890  -30.4690   21.5840 C   0  0  0  0  0  3  0  0  0  0  0  0
  -24.8350  -28.9280   20.1540 C   0  0  0  0  0  0  0  0  0  0  0  0
  -25.9140  -30.8280   21.3770 C   0  0  0  0  0  2  0  0  0  0  0  0
  -25.9930  -29.4600   20.7330 C   0  0  0  0  0  0  0  0  0  0  0  0
  -27.1980  -28.7250   20.7110 C   0  0  0  0  0  3  0  0  0  0  0  0
  -26.0700  -26.9210   19.5320 C   0  0  0  0  0  3  0  0  0  0  0  0
  -24.8690  -27.6570   19.5520 C   0  0  0  0  0  3  0  0  0  0  0  0
  -23.5900  -29.7830   20.2050 C   0  0  0  0  0  2  0  0  0  0  0  0
  -24.6540  -31.0720   22.1190 N   0  0  0  0  0  0  0  0  0  0  0  0
  -23.5270  -32.1410   23.7690 O   0  0  0  0  0  0  0  0  0  0  0  0
  -22.7430  -29.4490   22.5490 C   0  0  0  0  0  0  0  0  0  0  0  0
  -21.4190  -29.2700   22.4250 N   0  0  0  0  0  0  0  0  0  0  0  0
  -23.4300  -28.8230   23.3610 O   0  0  0  0  0  0  0  0  0  0  0  0
  -20.9270  -29.8280   21.7420 H   0  0  0  0  0  0  0  0  0  0  0  0
  -18.0440  -28.0790   22.9270 C   0  0  0  0  0  0  0  0  0  0  0  0
  -20.6020  -28.3310   23.1950 C   0  0  0  0  0  3  0  0  0  0  0  0
  -20.7010  -26.9010   22.6160 C   0  0  0  0  0  2  0  0  0  0  0  0
  -19.5970  -26.5820   21.6030 C   0  0  0  0  0  2  0  0  0  0  0  0
  -18.2160  -26.7300   22.2500 C   0  0  0  0  0  2  0  0  0  0  0  0
  -19.1650  -28.8380   23.3560 C   0  0  0  0  0  0  0  0  0  0  0  0
  -18.9510  -30.1020   23.9470 C   0  0  0  0  0  3  0  0  0  0  0  0
  -17.6470  -30.6070   24.1140 C   0  0  0  0  0  3  0  0  0  0  0  0
  -16.5410  -29.8440   23.7030 C   0  0  0  0  0  3  0  0  0  0  0  0
  -16.7400  -28.5820   23.1140 C   0  0  0  0  0  3  0  0  0  0  0  0
  -25.8950  -32.4950   23.8410 C   0  0  0  0  0  3  0  0  0  0  0  0
  -25.5910  -33.8930   24.1740 N   0  0  0  0  0  0  0  0  0  0  0  0
  -25.9310  -34.9460   23.4190 C   0  0  0  0  0  0  0  0  0  0  0  0
  -26.6040  -34.8430   22.3900 O   0  0  0  0  0  0  0  0  0  0  0  0
  -24.9900  -34.0470   24.9710 H   0  0  0  0  0  0  0  0  0  0  0  0
  -24.2100  -36.7450   23.0660 C   0  0  0  0  0  1  0  0  0  0  0  0
  -25.4460  -36.3350   23.8790 C   0  0  0  0  0  3  0  0  0  0  0  0
  -27.5820  -37.2070   24.7200 C   0  0  0  0  0  1  0  0  0  0  0  0
  -26.4840  -37.3840   23.7750 N   0  0  0  0  0  0  0  0  0  0  0  0
  -26.0810  -38.3040   23.9250 H   0  0  0  0  0  0  0  0  0  0  0  0
  -26.4200  -31.7210   25.1130 C   0  0  1  0  0  0  0  0  0  0  0  0
  -25.3350  -31.4840   26.1880 C   0  0  0  0  0  1  0  0  0  0  0  0
  -26.9990  -30.3430   24.7150 C   0  0  0  0  0  1  0  0  0  0  0  0
  -27.5740  -32.5140   25.7700 C   0  0  0  0  0  1  0  0  0  0  0  0
  -30.0190  -23.5520   16.8050 C   0  0  0  0  0  2  0  0  0  0  0  0
  -31.5360  -23.7730   16.7900 C   0  0  0  0  0  0  0  0  0  0  0  0
  -31.9860  -24.9150   16.2540 N   0  0  0  0  0  0  0  0  0  0  0  0
  -32.2970  -22.9170   17.2520 O   0  0  0  0  0  0  0  0  0  0  0  0
  -31.3390  -25.6000   15.8810 H   0  0  0  0  0  0  0  0  0  0  0  0
  -33.3530  -25.1930   16.2120 N   0  0  0  0  0  0  0  0  0  0  0  0
  -33.8410  -24.4510   16.7140 H   0  0  0  0  0  0  0  0  0  0  0  0
  -33.5350  -26.0670   16.7020 H   0  0  0  0  0  0  0  0  0  0  0  0
  -28.7680  -22.4740   18.7920 C   0  0  0  0  0  2  0  0  0  0  0  0
  -29.8610  -21.4780   19.2370 C   0  0  0  0  0  2  0  0  0  0  0  0
  -29.2860  -20.1130   19.6600 C   0  0  0  0  0  2  0  0  0  0  0  0
  -30.3430  -19.1610   20.2480 C   0  0  0  0  0  2  0  0  0  0  0  0
  -29.8090  -17.7320   20.4630 C   0  0  0  0  0  2  0  0  0  0  0  0
  -30.7320  -16.8630   21.3420 C   0  0  0  0  0  2  0  0  0  0  0  0
  -30.2350  -15.4060   21.5190 C   0  0  0  0  0  2  0  0  0  0  0  0
  -30.7600  -14.3790   20.4900 C   0  0  0  0  0  0  0  0  0  0  0  0
  -30.4130  -12.3020   19.1890 C   0  0  0  0  0  2  0  0  0  0  0  0
  -29.4640  -12.5680   18.0040 C   0  0  0  0  0  2  0  0  0  0  0  0
  -27.9860  -12.4650   18.4360 C   0  0  0  0  0  2  0  0  0  0  0  0
  -27.6820  -13.2470   19.7420 C   0  0  0  0  0  3  0  0  0  0  0  0
  -28.7360  -12.9190   20.8240 C   0  0  0  0  0  2  0  0  0  0  0  0
  -30.0620  -13.2330   20.2690 N   0  0  0  0  0  0  0  0  0  0  0  0
  -31.8080  -14.6280   19.8870 O   0  0  0  0  0  0  0  0  0  0  0  0
  -25.2790  -13.8870   20.4160 C   0  0  0  0  0  0  0  0  0  0  0  0
  -24.2000  -13.1300   20.7880 C   0  0  0  0  0  0  0  0  0  0  0  0
  -24.6500  -11.7730   20.7770 C   0  0  0  0  0  0  0  0  0  0  0  0
  -26.3190  -12.9930   20.2090 N   0  0  0  0  0  0  0  0  0  0  0  0
  -25.9410  -11.7170   20.4770 N   0  0  0  0  0  0  0  0  0  0  0  0
  -23.9110  -10.5190   20.9800 C   0  0  0  0  0  0  0  0  0  0  0  0
  -24.3350   -9.5560   21.9240 C   0  0  0  0  0  3  0  0  0  0  0  0
  -23.5980   -8.3670   22.1130 C   0  0  0  0  0  3  0  0  0  0  0  0
  -22.4240   -8.1320   21.3570 C   0  0  0  0  0  0  0  0  0  0  0  0
  -22.0210   -9.0820   20.4030 C   0  0  0  0  0  3  0  0  0  0  0  0
  -22.7580  -10.2630   20.2120 C   0  0  0  0  0  3  0  0  0  0  0  0
  -21.6620   -6.9940   21.4550 O   0  0  0  0  0  0  0  0  0  0  0  0
  -21.6080   -6.2600   22.6140 C   0  0  0  0  0  0  0  0  0  0  0  0
  -21.1920   -6.8300   23.8370 C   0  0  0  0  0  3  0  0  0  0  0  0
  -21.0870   -6.0250   24.9880 C   0  0  0  0  0  3  0  0  0  0  0  0
  -21.3850   -4.6520   24.9170 C   0  0  0  0  0  0  0  0  0  0  0  0
  -21.7910   -4.0800   23.6980 C   0  0  0  0  0  3  0  0  0  0  0  0
  -21.8990   -4.8820   22.5500 C   0  0  0  0  0  0  0  0  0  0  0  0
  -22.2740   -4.3250   21.3730 F   0  0  0  0  0  0  0  0  0  0  0  0
  -21.2740   -3.8750   26.0200 F   0  0  0  0  0  0  0  0  0  0  0  0
  -22.8070  -13.6210   21.0520 C   0  0  0  0  0  0  0  0  0  0  0  0
  -22.0700  -12.9390   21.9230 N   0  0  0  0  0  0  0  0  0  0  0  0
  -22.3780  -14.6450   20.5190 O   0  0  0  0  0  0  0  0  0  0  0  0
  -22.4330  -12.1110   22.3730 H   0  0  0  0  0  0  0  0  0  0  0  0
  -21.1330  -13.2460   22.1430 H   0  0  0  0  0  0  0  0  0  0  0  0
  -25.4610  -15.2530   20.2210 N   0  0  0  0  0  0  0  0  0  0  0  0
  -24.7070  -15.9250   20.3160 H   0  0  0  0  0  0  0  0  0  0  0  0
  -26.3280  -15.6720   19.9120 H   0  0  0  0  0  0  0  0  0  0  0  0
  1  3  1  0
  2  1  2  0
  2 53  1  0
  3  4  1  0
  5 16  2  0
  6  4  1  0
  6 11  1  0
  7 15  1  0
  7 17  1  0
  8 14  1  0
  8 10  1  0
  9 15  1  0
 10  9  1  0
 11 10  2  0
 12 13  1  0
 12  6  2  0
 13  8  2  0
 14  7  1  0
 15  5  1  0
 17 19  2  0
 18 17  1  0
 20 18  1  0
 21 30  2  0
 21 26  1  0
 22 18  1  0
 22 26  1  0
 23 22  1  0
 24 25  1  0
 24 23  1  0
 25 21  1  0
 26 27  2  0
 27 28  1  0
 29 28  2  0
 30 29  1  0
 31  5  1  0
 31 32  1  0
 31 41  1  0
 32 35  1  0
 33 37  1  0
 33 32  1  0
 34 33  2  0
 37 36  1  0
 39 37  1  0
 39 40  1  0
 39 38  1  0
 41 44  1  1
 41 42  1  0
 43 41  1  0
 45  2  1  0
 46 45  1  0
 46 48  2  0
 47 46  1  0
 49 47  1  0
 50 47  1  0
 50 52  1  0
 50 51  1  0
 53 54  1  0
 54 55  1  0
 55 56  1  0
 56 57  1  0
 57 58  1  0
 58 59  1  0
 60 59  1  0
 61 66  1  0
 62 63  1  0
 62 61  1  0
 64 63  1  0
 64 71  1  0
 64 65  1  0
 66 60  1  0
 66 65  1  0
 67 60  2  0
 68 69  2  0
 69 88  1  0
 70 69  1  0
 70 73  1  0
 71 68  1  0
 71 72  1  0
 72 70  2  0
 73 74  1  0
 74 75  2  0
 76 79  1  0
 76 75  1  0
 77 76  2  0
 78 77  1  0
 78 73  2  0
 79 80  1  0
 80 81  1  0
 81 82  2  0
 83 82  1  0
 83 87  1  0
 84 83  2  0
 85 80  2  0
 85 84  1  0
 86 85  1  0
 88 89  1  0
 89 92  1  0
 89 91  1  0
 90 88  2  0
 93 94  1  0
 93 68  1  0
 95 93  1  0
M  ISO  4   3 101   4 101  59 100  60 100
M  END
>  <TORSDO>  (12) 
F 27

>  <SCORE>  (12) 
-11.616

>  <name>  (12) 
11

>  <ligand_id>  (12) 
11

>  <original_smiles>  (12) 
[H]C(=C(C([H])([H])C(=O)N([H])N([H])[H])C([H])([H])C([H])([H])C([H])([H])C([H])([H])C([H])([H])C([H])([H])C([H])([H])C(=O)N1C([H])([H])C([H])([H])C([H])([H])C([H])(n2nc(-c3c([H])c([H])c(Oc4c([H])c([H])c(F)c([H])c4F)c([H])c3[H])c(C(=O)N([H])[H])c2N([H])[H])C1([H])[H])C([H])([H])Oc1c([H])c([H])c2c(c1[H])C([H])([H])N(C(=O)C([H])(N([H])C(=O)C([H])(N([H])C([H])([H])[H])C([H])([H])[H])C(C([H])([H])[H])(C([H])([H])[H])C([H])([H])[H])C([H])(C(=O)N([H])C1([H])c3c([H])c([H])c([H])c([H])c3C([H])([H])C([H])([H])C1([H])[H])C2([H])[H]

>  <smiles>  (12) 
[H]C(=C(C([H])([H])C(=O)N([H])N([H])[H])C([H])([H])C([H])([H])C([H])([H])C([H])([H])C([H])([H])C([H])([H])C([H])([H])C(=O)N1C([H])([H])C([H])([H])C([H])([H])C([H])(n2nc(-c3c([H])c([H])c(Oc4c([H])c([H])c(F)c([H])c4F)c([H])c3[H])c(C(=O)N([H])[H])c2N([H])[H])C1([H])[H])C([H])([H])Oc1c([H])c([H])c2c(c1[H])C([H])([H])N(C(=O)C([H])(N([H])C(=O)C([H])(N([H])C([H])([H])[H])C([H])([H])[H])C(C([H])([H])[H])(C([H])([H])[H])C([H])([H])[H])C([H])(C(=O)N([H])C1([H])c3c([H])c([H])c([H])c([H])c3C([H])([H])C([H])([H])C1([H])[H])C2([H])[H]

$$$$
12:0:0
     RDKit          3D

 91 98  0  0  1  0  0  0  0  0999 V2000
  -29.0770  -24.2310   22.7430 C   0  0  0  0  0  2  0  0  0  0  0  0
  -30.4260  -23.6100   22.3460 C   0  0  0  0  0  0  0  0  0  0  0  0
  -31.0020  -23.8820   21.2910 O   0  0  0  0  0  0  0  0  0  0  0  0
  -31.0610  -22.6450   23.3510 C   0  0  0  0  0  2  0  0  0  0  0  0
  -31.6650  -21.3760   22.7150 C   0  0  0  0  0  2  0  0  0  0  0  0
  -30.6330  -20.2530   22.4930 C   0  0  0  0  0  2  0  0  0  0  0  0
  -31.2500  -18.9890   21.8780 C   0  0  0  0  0  2  0  0  0  0  0  0
  -30.2930  -17.7830   21.8730 C   0  0  0  0  0  2  0  0  0  0  0  0
  -30.9200  -16.5720   21.1620 C   0  0  0  0  0  2  0  0  0  0  0  0
  -30.0570  -15.2870   21.1920 C   0  0  0  0  0  2  0  0  0  0  0  0
  -30.5590  -14.2140   20.2070 C   0  0  0  0  0  0  0  0  0  0  0  0
  -30.1630  -12.1340   18.9390 C   0  0  0  0  0  2  0  0  0  0  0  0
  -29.1550  -12.3930   17.8030 C   0  0  0  0  0  2  0  0  0  0  0  0
  -27.7080  -12.2370   18.3080 C   0  0  0  0  0  2  0  0  0  0  0  0
  -27.4440  -13.0220   19.6220 C   0  0  0  0  0  3  0  0  0  0  0  0
  -28.5590  -12.7580   20.6590 C   0  0  0  0  0  2  0  0  0  0  0  0
  -29.8540  -13.0670   20.0320 N   0  0  0  0  0  0  0  0  0  0  0  0
  -31.5870  -14.4500   19.5610 O   0  0  0  0  0  0  0  0  0  0  0  0
  -25.0800  -13.5870   20.4680 C   0  0  0  0  0  0  0  0  0  0  0  0
  -24.0410  -12.7970   20.8750 C   0  0  0  0  0  0  0  0  0  0  0  0
  -24.5100  -11.4490   20.7840 C   0  0  0  0  0  0  0  0  0  0  0  0
  -26.1200  -12.7230   20.1620 N   0  0  0  0  0  0  0  0  0  0  0  0
  -25.7810  -11.4300   20.4050 N   0  0  0  0  0  0  0  0  0  0  0  0
  -23.8040  -10.1770   20.9840 C   0  0  0  0  0  0  0  0  0  0  0  0
  -24.2770   -9.2050   21.8940 C   0  0  0  0  0  3  0  0  0  0  0  0
  -23.5730   -7.9960   22.0810 C   0  0  0  0  0  3  0  0  0  0  0  0
  -22.3820   -7.7500   21.3580 C   0  0  0  0  0  0  0  0  0  0  0  0
  -21.9290   -8.7100   20.4350 C   0  0  0  0  0  3  0  0  0  0  0  0
  -22.6340   -9.9100   20.2470 C   0  0  0  0  0  3  0  0  0  0  0  0
  -21.6460   -6.5940   21.4550 O   0  0  0  0  0  0  0  0  0  0  0  0
  -21.6220   -5.8520   22.6090 C   0  0  0  0  0  0  0  0  0  0  0  0
  -21.1970   -6.4000   23.8400 C   0  0  0  0  0  3  0  0  0  0  0  0
  -21.1210   -5.5840   24.9850 C   0  0  0  0  0  3  0  0  0  0  0  0
  -21.4590   -4.2190   24.9020 C   0  0  0  0  0  0  0  0  0  0  0  0
  -21.8750   -3.6700   23.6770 C   0  0  0  0  0  3  0  0  0  0  0  0
  -21.9530   -4.4840   22.5330 C   0  0  0  0  0  0  0  0  0  0  0  0
  -22.3350   -3.9460   21.3500 F   0  0  0  0  0  0  0  0  0  0  0  0
  -21.3770   -3.4330   26.0010 F   0  0  0  0  0  0  0  0  0  0  0  0
  -22.6560  -13.2520   21.2380 C   0  0  0  0  0  0  0  0  0  0  0  0
  -21.9830  -12.5260   22.1240 N   0  0  0  0  0  0  0  0  0  0  0  0
  -22.1800  -14.2880   20.7730 O   0  0  0  0  0  0  0  0  0  0  0  0
  -22.3780  -11.6860   22.5220 H   0  0  0  0  0  0  0  0  0  0  0  0
  -21.0570  -12.8120   22.4100 H   0  0  0  0  0  0  0  0  0  0  0  0
  -25.2270  -14.9630   20.3130 N   0  0  0  0  0  0  0  0  0  0  0  0
  -24.4710  -15.6180   20.4790 H   0  0  0  0  0  0  0  0  0  0  0  0
  -26.0660  -15.4090   19.9630 H   0  0  0  0  0  0  0  0  0  0  0  0
  -28.2830  -24.9450   21.6160 C   0  0  0  0  0  3  0  0  0  0  0  0
  -27.2460  -22.9530   20.7450 C   0  0  0  0  0  1  0  0  0  0  0  0
  -28.0760  -24.0830   20.4890 O   0  0  0  0  0  0  0  0  0  0  0  0
  -28.9170  -26.2810   21.1600 C   0  0  0  0  0  2  0  0  0  0  0  0
  -28.2920  -26.7380   19.9670 O   0  0  0  0  0  0  0  0  0  0  0  0
  -24.5880  -31.9100   23.2370 C   0  0  0  0  0  0  0  0  0  0  0  0
  -27.1410  -27.4670   20.1010 C   0  0  0  0  0  0  0  0  0  0  0  0
  -23.3390  -30.5320   21.6050 C   0  0  0  0  0  3  0  0  0  0  0  0
  -24.7560  -28.9750   20.1610 C   0  0  0  0  0  0  0  0  0  0  0  0
  -25.8690  -30.8500   21.3870 C   0  0  0  0  0  2  0  0  0  0  0  0
  -25.9240  -29.4840   20.7430 C   0  0  0  0  0  0  0  0  0  0  0  0
  -27.1200  -28.7360   20.7190 C   0  0  0  0  0  3  0  0  0  0  0  0
  -25.9630  -26.9640   19.5150 C   0  0  0  0  0  3  0  0  0  0  0  0
  -24.7660  -27.7080   19.5480 C   0  0  0  0  0  3  0  0  0  0  0  0
  -23.5260  -29.8560   20.2190 C   0  0  0  0  0  2  0  0  0  0  0  0
  -24.6150  -31.1140   22.1310 N   0  0  0  0  0  0  0  0  0  0  0  0
  -23.5190  -32.1980   23.7920 O   0  0  0  0  0  0  0  0  0  0  0  0
  -22.6890  -29.5130   22.5680 C   0  0  0  0  0  0  0  0  0  0  0  0
  -21.3630  -29.3360   22.4510 N   0  0  0  0  0  0  0  0  0  0  0  0
  -23.3750  -28.8820   23.3770 O   0  0  0  0  0  0  0  0  0  0  0  0
  -20.8690  -29.8990   21.7720 H   0  0  0  0  0  0  0  0  0  0  0  0
  -17.9880  -28.1550   22.9670 C   0  0  0  0  0  0  0  0  0  0  0  0
  -20.5480  -28.4050   23.2290 C   0  0  0  0  0  3  0  0  0  0  0  0
  -20.6430  -26.9690   22.6640 C   0  0  0  0  0  2  0  0  0  0  0  0
  -19.5360  -26.6440   21.6570 C   0  0  0  0  0  2  0  0  0  0  0  0
  -18.1560  -26.8020   22.3000 C   0  0  0  0  0  2  0  0  0  0  0  0
  -19.1110  -28.9160   23.3890 C   0  0  0  0  0  0  0  0  0  0  0  0
  -18.8990  -30.1860   23.9690 C   0  0  0  0  0  3  0  0  0  0  0  0
  -17.5950  -30.6920   24.1360 C   0  0  0  0  0  3  0  0  0  0  0  0
  -16.4880  -29.9300   23.7250 C   0  0  0  0  0  3  0  0  0  0  0  0
  -16.6850  -28.6640   23.1460 C   0  0  0  0  0  3  0  0  0  0  0  0
  -25.8930  -32.5180   23.8400 C   0  0  0  0  0  3  0  0  0  0  0  0
  -26.4260  -31.7270   25.0970 C   0  0  1  0  0  0  0  0  0  0  0  0
  -25.3520  -31.4890   26.1840 C   0  0  0  0  0  1  0  0  0  0  0  0
  -26.9870  -30.3460   24.6830 C   0  0  0  0  0  1  0  0  0  0  0  0
  -27.5970  -32.5010   25.7460 C   0  0  0  0  0  1  0  0  0  0  0  0
  -25.6080  -33.9180   24.1860 N   0  0  0  0  0  0  0  0  0  0  0  0
  -25.9310  -34.9690   23.4200 C   0  0  0  0  0  0  0  0  0  0  0  0
  -26.5760  -34.8630   22.3740 O   0  0  0  0  0  0  0  0  0  0  0  0
  -25.0410  -34.0760   25.0060 H   0  0  0  0  0  0  0  0  0  0  0  0
  -24.2080  -36.7740   23.1060 C   0  0  0  0  0  1  0  0  0  0  0  0
  -25.4620  -36.3600   23.8920 C   0  0  0  0  0  3  0  0  0  0  0  0
  -27.6230  -37.2230   24.6760 C   0  0  0  0  0  1  0  0  0  0  0  0
  -26.5000  -37.4050   23.7610 N   0  0  0  0  0  0  0  0  0  0  0  0
  -26.1040  -38.3270   23.9290 H   0  0  0  0  0  0  0  0  0  0  0  0
  2  1  1  0
  2  4  1  0
  3  2  2  0
  5  4  1  0
  6  5  1  0
  7  6  1  0
  8  7  1  0
  9 10  1  0
  9  8  1  0
 11 10  1  0
 12 17  1  0
 13 14  1  0
 13 12  1  0
 15 14  1  0
 15 22  1  0
 15 16  1  0
 17 11  1  0
 17 16  1  0
 18 11  2  0
 19 20  2  0
 20 39  1  0
 21 20  1  0
 21 24  1  0
 22 23  1  0
 22 19  1  0
 23 21  2  0
 24 25  1  0
 25 26  2  0
 27 30  1  0
 27 26  1  0
 28 27  2  0
 29 28  1  0
 29 24  2  0
 30 31  1  0
 31 32  1  0
 32 33  2  0
 34 33  1  0
 34 38  1  0
 35 34  2  0
 36 31  2  0
 36 35  1  0
 37 36  1  0
 39 40  1  0
 40 43  1  0
 40 42  1  0
 41 39  2  0
 44 19  1  0
 44 45  1  0
 46 44  1  0
 47 50  1  0
 47  1  1  0
 49 48  1  0
 49 47  1  0
 51 53  1  0
 51 50  1  0
 52 63  2  0
 53 58  1  0
 54 62  1  0
 54 64  1  0
 55 61  1  0
 55 57  1  0
 56 62  1  0
 57 56  1  0
 58 57  2  0
 59 60  1  0
 59 53  2  0
 60 55  2  0
 61 54  1  0
 62 52  1  0
 64 66  2  0
 65 64  1  0
 67 65  1  0
 68 77  2  0
 68 73  1  0
 69 65  1  0
 69 73  1  0
 70 69  1  0
 71 72  1  0
 71 70  1  0
 72 68  1  0
 73 74  2  0
 74 75  1  0
 76 75  2  0
 77 76  1  0
 78 52  1  0
 78 83  1  0
 78 79  1  0
 79 82  1  1
 79 80  1  0
 81 79  1  0
 83 86  1  0
 84 88  1  0
 84 83  1  0
 85 84  2  0
 88 87  1  0
 90 88  1  0
 90 91  1  0
 90 89  1  0
M  ISO  4  10 100  11 100  50 101  51 101
M  END
>  <TORSDO>  (13) 
F 27

>  <SCORE>  (13) 
-10.586

>  <name>  (13) 
12

>  <ligand_id>  (13) 
12

>  <original_smiles>  (13) 
[H]c1c([H])c([H])c2c(c1[H])C([H])([H])C([H])([H])C([H])([H])C2([H])N([H])C(=O)C1([H])N(C(=O)C([H])(N([H])C(=O)C([H])(N([H])C([H])([H])[H])C([H])([H])[H])C(C([H])([H])[H])(C([H])([H])[H])C([H])([H])[H])C([H])([H])c2c([H])c(OC([H])([H])C([H])(OC([H])([H])[H])C([H])([H])C(=O)C([H])([H])C([H])([H])C([H])([H])C([H])([H])C([H])([H])C([H])([H])C([H])([H])C(=O)N3C([H])([H])C([H])([H])C([H])([H])C([H])(n4nc(-c5c([H])c([H])c(Oc6c([H])c([H])c(F)c([H])c6F)c([H])c5[H])c(C(=O)N([H])[H])c4N([H])[H])C3([H])[H])c([H])c([H])c2C1([H])[H]

>  <smiles>  (13) 
[H]c1c([H])c([H])c2c(c1[H])C([H])([H])C([H])([H])C([H])([H])C2([H])N([H])C(=O)C1([H])N(C(=O)C([H])(N([H])C(=O)C([H])(N([H])C([H])([H])[H])C([H])([H])[H])C(C([H])([H])[H])(C([H])([H])[H])C([H])([H])[H])C([H])([H])c2c([H])c(OC([H])([H])C([H])(OC([H])([H])[H])C([H])([H])C(=O)C([H])([H])C([H])([H])C([H])([H])C([H])([H])C([H])([H])C([H])([H])C([H])([H])C(=O)N3C([H])([H])C([H])([H])C([H])([H])C([H])(n4nc(-c5c([H])c([H])c(Oc6c([H])c([H])c(F)c([H])c6F)c([H])c5[H])c(C(=O)N([H])[H])c4N([H])[H])C3([H])[H])c([H])c([H])c2C1([H])[H]

$$$$
13:0:0
     RDKit          3D

100109  0  0  1  0  0  0  0  0999 V2000
  -28.1750  -23.6950   21.2580 C   0  0  0  0  0  2  0  0  0  0  0  0
  -29.7340  -25.2040   22.2880 C   0  0  0  0  0  2  0  0  0  0  0  0
  -29.6730  -23.9180   21.4720 C   0  0  0  0  0  3  0  0  0  0  0  0
  -27.5910  -25.1090   21.0690 C   0  0  0  0  0  3  0  0  0  0  0  0
  -28.6710  -26.0810   21.6170 C   0  0  0  0  0  3  0  0  0  0  0  0
  -31.2440  -21.5100   24.0280 C   0  0  0  0  0  3  0  0  0  0  0  0
  -31.9340  -20.6270   23.1720 C   0  0  0  0  0  3  0  0  0  0  0  0
  -30.4960  -22.5760   23.4920 C   0  0  0  0  0  3  0  0  0  0  0  0
  -31.1050  -21.8610   21.2450 C   0  0  0  0  0  3  0  0  0  0  0  0
  -31.8720  -20.8010   21.7680 C   0  0  0  0  0  0  0  0  0  0  0  0
  -30.4280  -22.7570   22.0950 C   0  0  0  0  0  0  0  0  0  0  0  0
  -32.5450  -19.8820   20.8090 C   0  0  0  0  0  0  0  0  0  0  0  0
  -32.2970  -19.8790   19.6000 O   0  0  0  0  0  0  0  0  0  0  0  0
  -33.6450  -18.9620   21.3380 C   0  0  0  0  0  2  0  0  0  0  0  0
  -33.5940  -17.5270   20.7790 C   0  0  0  0  0  2  0  0  0  0  0  0
  -32.2450  -16.8010   20.9500 C   0  0  0  0  0  2  0  0  0  0  0  0
  -31.5890  -16.3840   19.6200 C   0  0  0  0  0  2  0  0  0  0  0  0
  -30.6280  -15.1850   19.7920 C   0  0  0  0  0  2  0  0  0  0  0  0
  -30.8500  -14.0120   18.8170 C   0  0  0  0  0  0  0  0  0  0  0  0
  -30.5150  -11.6040   18.3460 C   0  0  0  0  0  2  0  0  0  0  0  0
  -29.3810  -11.3370   17.3430 C   0  0  0  0  0  2  0  0  0  0  0  0
  -28.0190  -11.2760   18.0610 C   0  0  0  0  0  2  0  0  0  0  0  0
  -27.7930  -12.4930   18.9970 C   0  0  0  0  0  3  0  0  0  0  0  0
  -29.0120  -12.7080   19.9190 C   0  0  0  0  0  2  0  0  0  0  0  0
  -30.2100  -12.8440   19.0730 N   0  0  0  0  0  0  0  0  0  0  0  0
  -31.6530  -14.1360   17.8840 O   0  0  0  0  0  0  0  0  0  0  0  0
  -25.7440  -13.3350   20.3160 C   0  0  0  0  0  0  0  0  0  0  0  0
  -24.6770  -12.6780   20.8650 C   0  0  0  0  0  0  0  0  0  0  0  0
  -24.8920  -11.2900   20.6020 C   0  0  0  0  0  0  0  0  0  0  0  0
  -26.5530  -12.3540   19.7610 N   0  0  0  0  0  0  0  0  0  0  0  0
  -26.0530  -11.1120   19.9850 N   0  0  0  0  0  0  0  0  0  0  0  0
  -24.0350  -10.1250   20.8550 C   0  0  0  0  0  0  0  0  0  0  0  0
  -24.4580   -9.0660   21.6890 C   0  0  0  0  0  3  0  0  0  0  0  0
  -23.6090   -7.9640   21.9310 C   0  0  0  0  0  3  0  0  0  0  0  0
  -22.3250   -7.9140   21.3400 C   0  0  0  0  0  0  0  0  0  0  0  0
  -21.9190   -8.9590   20.4910 C   0  0  0  0  0  3  0  0  0  0  0  0
  -22.7660  -10.0530   20.2480 C   0  0  0  0  0  3  0  0  0  0  0  0
  -21.4440   -6.8710   21.4950 O   0  0  0  0  0  0  0  0  0  0  0  0
  -21.4070   -6.1260   22.6460 C   0  0  0  0  0  0  0  0  0  0  0  0
  -21.1320   -6.7090   23.9020 C   0  0  0  0  0  3  0  0  0  0  0  0
  -21.0330   -5.8960   25.0500 C   0  0  0  0  0  3  0  0  0  0  0  0
  -21.2020   -4.5030   24.9420 C   0  0  0  0  0  0  0  0  0  0  0  0
  -21.4700   -3.9200   23.6910 C   0  0  0  0  0  3  0  0  0  0  0  0
  -21.5690   -4.7300   22.5470 C   0  0  0  0  0  0  0  0  0  0  0  0
  -21.8070   -4.1610   21.3400 F   0  0  0  0  0  0  0  0  0  0  0  0
  -21.0990   -3.7210   26.0420 F   0  0  0  0  0  0  0  0  0  0  0  0
  -23.4760  -13.3030   21.5140 C   0  0  0  0  0  0  0  0  0  0  0  0
  -22.8870  -12.6240   22.4930 N   0  0  0  0  0  0  0  0  0  0  0  0
  -23.0820  -14.4220   21.1890 O   0  0  0  0  0  0  0  0  0  0  0  0
  -23.2250  -11.7160   22.7750 H   0  0  0  0  0  0  0  0  0  0  0  0
  -22.0860  -13.0170   22.9660 H   0  0  0  0  0  0  0  0  0  0  0  0
  -26.0850  -14.6820   20.2230 N   0  0  0  0  0  0  0  0  0  0  0  0
  -25.4820  -15.4200   20.5670 H   0  0  0  0  0  0  0  0  0  0  0  0
  -26.9150  -15.0310   19.7580 H   0  0  0  0  0  0  0  0  0  0  0  0
  -28.1280  -27.1190   22.5140 N   0  0  0  0  0  4  0  0  0  0  0  0
  -27.7060  -26.7180   23.3350 H   0  0  0  0  0  0  0  0  0  0  0  0
  -27.4350  -27.6630   22.0290 H   0  0  0  0  0  0  0  0  0  0  0  0
  -28.8660  -27.7350   22.8070 H   0  0  0  0  0  0  0  0  0  0  0  0
  -27.2540  -25.3960   19.5870 C   0  0  0  0  0  2  0  0  0  0  0  0
  -27.3400  -26.7900   19.2950 O   0  0  0  0  0  0  0  0  0  0  0  0
  -24.4680  -31.8750   23.3180 C   0  0  0  0  0  0  0  0  0  0  0  0
  -26.2290  -27.5710   19.5130 C   0  0  0  0  0  0  0  0  0  0  0  0
  -22.9180  -30.7450   21.7530 C   0  0  0  0  0  3  0  0  0  0  0  0
  -24.0090  -29.2360   20.0140 C   0  0  0  0  0  0  0  0  0  0  0  0
  -25.4130  -30.9140   21.2240 C   0  0  0  0  0  2  0  0  0  0  0  0
  -25.2780  -29.6070   20.4740 C   0  0  0  0  0  0  0  0  0  0  0  0
  -26.3920  -28.7790   20.2230 C   0  0  0  0  0  3  0  0  0  0  0  0
  -24.9430  -27.2110   19.0500 C   0  0  0  0  0  3  0  0  0  0  0  0
  -23.8350  -28.0370   19.3020 C   0  0  0  0  0  3  0  0  0  0  0  0
  -22.8690  -30.1840   20.3070 C   0  0  0  0  0  2  0  0  0  0  0  0
  -24.2950  -31.1830   22.1560 N   0  0  0  0  0  0  0  0  0  0  0  0
  -23.5010  -32.1860   24.0270 O   0  0  0  0  0  0  0  0  0  0  0  0
  -22.3080  -29.6940   22.7060 C   0  0  0  0  0  0  0  0  0  0  0  0
  -20.9810  -29.5060   22.6150 N   0  0  0  0  0  0  0  0  0  0  0  0
  -23.0230  -29.0500   23.4790 O   0  0  0  0  0  0  0  0  0  0  0  0
  -20.4660  -30.0790   21.9620 H   0  0  0  0  0  0  0  0  0  0  0  0
  -17.6780  -28.1010   22.9940 C   0  0  0  0  0  0  0  0  0  0  0  0
  -20.1940  -28.5440   23.3840 C   0  0  0  0  0  3  0  0  0  0  0  0
  -20.4230  -27.1030   22.8720 C   0  0  0  0  0  2  0  0  0  0  0  0
  -19.3990  -26.6670   21.8200 C   0  0  0  0  0  2  0  0  0  0  0  0
  -17.9800  -26.7390   22.3880 C   0  0  0  0  0  2  0  0  0  0  0  0
  -18.7180  -28.9540   23.4470 C   0  0  0  0  0  0  0  0  0  0  0  0
  -18.3850  -30.2210   23.9690 C   0  0  0  0  0  3  0  0  0  0  0  0
  -17.0430  -30.6390   24.0470 C   0  0  0  0  0  3  0  0  0  0  0  0
  -16.0160  -29.7840   23.6140 C   0  0  0  0  0  3  0  0  0  0  0  0
  -16.3320  -28.5170   23.0910 C   0  0  0  0  0  3  0  0  0  0  0  0
  -25.8820  -32.3270   23.8010 C   0  0  0  0  0  3  0  0  0  0  0  0
  -26.5040  -31.3620   24.8830 C   0  0  1  0  0  0  0  0  0  0  0  0
  -25.5600  -31.0760   26.0750 C   0  0  0  0  0  1  0  0  0  0  0  0
  -26.8860  -30.0050   24.2450 C   0  0  0  0  0  1  0  0  0  0  0  0
  -27.8080  -31.9730   25.4430 C   0  0  0  0  0  1  0  0  0  0  0  0
  -25.7540  -33.6920   24.3290 N   0  0  0  0  0  0  0  0  0  0  0  0
  -26.1160  -34.7970   23.6660 C   0  0  0  0  0  0  0  0  0  0  0  0
  -26.6680  -34.7670   22.5620 O   0  0  0  0  0  0  0  0  0  0  0  0
  -25.2570  -33.7940   25.2030 H   0  0  0  0  0  0  0  0  0  0  0  0
  -24.5610  -36.7720   23.7030 C   0  0  0  0  0  1  0  0  0  0  0  0
  -25.8170  -36.1530   24.3360 C   0  0  0  0  0  3  0  0  0  0  0  0
  -28.0970  -36.7130   25.0500 C   0  0  0  0  0  1  0  0  0  0  0  0
  -26.9420  -37.1100   24.2500 N   0  0  0  0  0  0  0  0  0  0  0  0
  -26.6500  -38.0360   24.5500 H   0  0  0  0  0  0  0  0  0  0  0  0
  1  3  1  0
  3 11  1  0
  3  2  1  0
  4 59  1  0
  4  1  1  0
  4  5  1  0
  5  2  1  0
  5 55  1  0
  7  6  2  0
  8  6  1  0
  9 10  2  0
  9 11  1  0
 10  7  1  0
 11  8  2  0
 12 14  1  0
 12 10  1  0
 13 12  2  0
 15 16  1  0
 15 14  1  0
 17 18  1  0
 17 16  1  0
 19 25  1  0
 19 18  1  0
 20 25  1  0
 21 22  1  0
 21 20  1  0
 23 22  1  0
 23 30  1  0
 23 24  1  0
 25 24  1  0
 26 19  2  0
 27 28  2  0
 28 47  1  0
 29 32  1  0
 29 28  1  0
 30 31  1  0
 30 27  1  0
 31 29  2  0
 32 33  1  0
 33 34  2  0
 35 38  1  0
 35 34  1  0
 36 35  2  0
 37 36  1  0
 37 32  2  0
 38 39  1  0
 39 40  1  0
 40 41  2  0
 42 41  1  0
 42 46  1  0
 43 42  2  0
 44 39  2  0
 44 43  1  0
 45 44  1  0
 47 48  1  0
 48 50  1  0
 48 51  1  0
 49 47  2  0
 52 27  1  0
 52 53  1  0
 54 52  1  0
 55 58  1  0
 55 56  1  0
 57 55  1  0
 60 62  1  0
 60 59  1  0
 61 72  2  0
 62 67  1  0
 63 71  1  0
 63 73  1  0
 64 70  1  0
 64 66  1  0
 65 71  1  0
 66 65  1  0
 67 66  2  0
 68 69  1  0
 68 62  2  0
 69 64  2  0
 70 63  1  0
 71 61  1  0
 73 75  2  0
 74 73  1  0
 76 74  1  0
 77 86  2  0
 77 82  1  0
 78 74  1  0
 78 82  1  0
 79 78  1  0
 80 81  1  0
 80 79  1  0
 81 77  1  0
 82 83  2  0
 83 84  1  0
 85 84  2  0
 86 85  1  0
 87 61  1  0
 87 92  1  0
 87 88  1  0
 88 91  1  1
 88 89  1  0
 90 88  1  0
 92 95  1  0
 93 92  1  0
 93 97  1  0
 94 93  2  0
 97 96  1  0
 99 97  1  0
 99100  1  0
 99 98  1  0
M  ISO  4  18 100  19 100  59 101  60 101
M  END
>  <TORSDO>  (14) 
F 25

>  <SCORE>  (14) 
-9.201

>  <name>  (14) 
13

>  <ligand_id>  (14) 
13

>  <original_smiles>  (14) 
[H]c1c([H])c([H])c2c(c1[H])C([H])([H])C([H])([H])C([H])([H])C2([H])N([H])C(=O)C1([H])N(C(=O)C([H])(N([H])C(=O)C([H])(N([H])C([H])([H])[H])C([H])([H])[H])C(C([H])([H])[H])(C([H])([H])[H])C([H])([H])[H])C([H])([H])c2c([H])c(OC([H])([H])C3([H])C([H])([H])C([H])(c4c([H])c([H])c([H])c(C(=O)C([H])([H])C([H])([H])C([H])([H])C([H])([H])C([H])([H])C(=O)N5C([H])([H])C([H])([H])C([H])([H])C([H])(n6nc(-c7c([H])c([H])c(Oc8c([H])c([H])c(F)c([H])c8F)c([H])c7[H])c(C(=O)N([H])[H])c6N([H])[H])C5([H])[H])c4[H])C([H])([H])C3([H])[N+]([H])([H])[H])c([H])c([H])c2C1([H])[H]

>  <smiles>  (14) 
[H]c1c([H])c([H])c2c(c1[H])C([H])([H])C([H])([H])C([H])([H])C2([H])N([H])C(=O)C1([H])N(C(=O)C([H])(N([H])C(=O)C([H])(N([H])C([H])([H])[H])C([H])([H])[H])C(C([H])([H])[H])(C([H])([H])[H])C([H])([H])[H])C([H])([H])c2c([H])c(OC([H])([H])C3([H])C([H])([H])C([H])(c4c([H])c([H])c([H])c(C(=O)C([H])([H])C([H])([H])C([H])([H])C([H])([H])C([H])([H])C(=O)N5C([H])([H])C([H])([H])C([H])([H])C([H])(n6nc(-c7c([H])c([H])c(Oc8c([H])c([H])c(F)c([H])c8F)c([H])c7[H])c(C(=O)N([H])[H])c6N([H])[H])C5([H])[H])c4[H])C([H])([H])C3([H])[N+]([H])([H])[H])c([H])c([H])c2C1([H])[H]

$$$$
14:0:0
     RDKit          3D

 97106  0  0  1  0  0  0  0  0999 V2000
  -31.1820  -24.0470   22.4640 C   0  0  0  0  0  3  0  0  0  0  0  0
  -30.2760  -22.9770   22.3080 C   0  0  0  0  0  3  0  0  0  0  0  0
  -29.7090  -23.7820   20.0810 C   0  0  0  0  0  3  0  0  0  0  0  0
  -31.3470  -25.0030   21.4380 C   0  0  0  0  0  0  0  0  0  0  0  0
  -29.5400  -22.8320   21.1120 C   0  0  0  0  0  0  0  0  0  0  0  0
  -30.6120  -24.8520   20.2360 C   0  0  0  0  0  0  0  0  0  0  0  0
  -32.2600  -26.1700   21.6400 C   0  0  0  0  0  0  0  0  0  0  0  0
  -30.7580  -25.8600   19.1140 C   0  0  0  0  0  2  0  0  0  0  0  0
  -32.2760  -27.2500   20.5460 C   0  0  0  0  0  2  0  0  0  0  0  0
  -31.0040  -27.2730   19.6740 C   0  0  0  0  0  3  0  0  0  0  0  0
  -32.9840  -26.3070   22.6290 O   0  0  0  0  0  0  0  0  0  0  0  0
  -28.5660  -21.7180   20.9740 C   0  0  0  0  0  0  0  0  0  0  0  0
  -27.8450  -21.3340   21.9000 O   0  0  0  0  0  0  0  0  0  0  0  0
  -28.5160  -20.9920   19.6230 C   0  0  0  0  0  2  0  0  0  0  0  0
  -28.5620  -19.4590   19.7400 C   0  0  0  0  0  2  0  0  0  0  0  0
  -29.8460  -18.9300   20.4040 C   0  0  0  0  0  2  0  0  0  0  0  0
  -29.8650  -17.4020   20.4720 C   0  0  0  0  0  2  0  0  0  0  0  0
  -31.1110  -16.8820   21.1980 C   0  0  0  0  0  2  0  0  0  0  0  0
  -31.0340  -15.3790   21.5140 C   0  0  0  0  0  2  0  0  0  0  0  0
  -31.0960  -14.4790   20.2680 C   0  0  0  0  0  0  0  0  0  0  0  0
  -30.7350  -12.2300   19.3350 C   0  0  0  0  0  2  0  0  0  0  0  0
  -29.7580  -12.1540   18.1540 C   0  0  0  0  0  2  0  0  0  0  0  0
  -28.3090  -12.0230   18.6520 C   0  0  0  0  0  2  0  0  0  0  0  0
  -27.9590  -13.0850   19.7220 C   0  0  0  0  0  3  0  0  0  0  0  0
  -29.0310  -13.1460   20.8330 C   0  0  0  0  0  2  0  0  0  0  0  0
  -30.3500  -13.3490   20.2080 N   0  0  0  0  0  0  0  0  0  0  0  0
  -31.9640  -14.7430   19.4290 O   0  0  0  0  0  0  0  0  0  0  0  0
  -25.6400  -13.7800   20.6030 C   0  0  0  0  0  0  0  0  0  0  0  0
  -24.5530  -13.0450   20.9960 C   0  0  0  0  0  0  0  0  0  0  0  0
  -24.9390  -11.6750   20.8700 C   0  0  0  0  0  0  0  0  0  0  0  0
  -26.6210  -12.8600   20.2690 N   0  0  0  0  0  0  0  0  0  0  0  0
  -26.2040  -11.5850   20.4820 N   0  0  0  0  0  0  0  0  0  0  0  0
  -24.1580  -10.4420   21.0430 C   0  0  0  0  0  0  0  0  0  0  0  0
  -24.5660   -9.4300   21.9390 C   0  0  0  0  0  3  0  0  0  0  0  0
  -23.7910   -8.2610   22.1000 C   0  0  0  0  0  3  0  0  0  0  0  0
  -22.5930   -8.0960   21.3660 C   0  0  0  0  0  0  0  0  0  0  0  0
  -22.2030   -9.0970   20.4580 C   0  0  0  0  0  3  0  0  0  0  0  0
  -22.9790  -10.2570   20.2940 C   0  0  0  0  0  3  0  0  0  0  0  0
  -21.7910   -6.9830   21.4370 O   0  0  0  0  0  0  0  0  0  0  0  0
  -21.6890   -6.2420   22.5870 C   0  0  0  0  0  0  0  0  0  0  0  0
  -21.2700   -6.8120   23.8080 C   0  0  0  0  0  3  0  0  0  0  0  0
  -21.1130   -5.9990   24.9480 C   0  0  0  0  0  3  0  0  0  0  0  0
  -21.3650   -4.6170   24.8690 C   0  0  0  0  0  0  0  0  0  0  0  0
  -21.7770   -4.0460   23.6520 C   0  0  0  0  0  3  0  0  0  0  0  0
  -21.9370   -4.8550   22.5130 C   0  0  0  0  0  0  0  0  0  0  0  0
  -22.3140   -4.2960   21.3390 F   0  0  0  0  0  0  0  0  0  0  0  0
  -21.2090   -3.8340   25.9630 F   0  0  0  0  0  0  0  0  0  0  0  0
  -23.2030  -13.5760   21.3790 C   0  0  0  0  0  0  0  0  0  0  0  0
  -22.4970  -12.8780   22.2640 N   0  0  0  0  0  0  0  0  0  0  0  0
  -22.7830  -14.6420   20.9310 O   0  0  0  0  0  0  0  0  0  0  0  0
  -22.8480  -12.0110   22.6430 H   0  0  0  0  0  0  0  0  0  0  0  0
  -21.5940  -13.2160   22.5650 H   0  0  0  0  0  0  0  0  0  0  0  0
  -25.8730  -15.1450   20.4850 N   0  0  0  0  0  0  0  0  0  0  0  0
  -25.1590  -15.8410   20.6700 H   0  0  0  0  0  0  0  0  0  0  0  0
  -26.7440  -15.5460   20.1580 H   0  0  0  0  0  0  0  0  0  0  0  0
  -29.7770  -27.8410   20.4310 C   0  0  0  0  0  2  0  0  0  0  0  0
  -28.6230  -27.5000   19.6800 O   0  0  0  0  0  0  0  0  0  0  0  0
  -24.4380  -32.0460   23.3320 C   0  0  0  0  0  0  0  0  0  0  0  0
  -27.4340  -28.1590   19.8750 C   0  0  0  0  0  0  0  0  0  0  0  0
  -23.3390  -30.6870   21.5760 C   0  0  0  0  0  3  0  0  0  0  0  0
  -24.9090  -29.4030   20.0320 C   0  0  0  0  0  0  0  0  0  0  0  0
  -25.8160  -31.2860   21.4040 C   0  0  0  0  0  2  0  0  0  0  0  0
  -26.0150  -29.9800   20.6670 C   0  0  0  0  0  0  0  0  0  0  0  0
  -27.2790  -29.3590   20.6050 C   0  0  0  0  0  3  0  0  0  0  0  0
  -26.3100  -27.5810   19.2530 C   0  0  0  0  0  3  0  0  0  0  0  0
  -25.0460  -28.1930   19.3300 C   0  0  0  0  0  3  0  0  0  0  0  0
  -23.5970  -30.1450   20.1430 C   0  0  0  0  0  2  0  0  0  0  0  0
  -24.5500  -31.3490   22.1650 N   0  0  0  0  0  0  0  0  0  0  0  0
  -23.3430  -32.1790   23.8940 O   0  0  0  0  0  0  0  0  0  0  0  0
  -22.7870  -29.5360   22.4470 C   0  0  0  0  0  0  0  0  0  0  0  0
  -21.4630  -29.3230   22.3770 N   0  0  0  0  0  0  0  0  0  0  0  0
  -23.5400  -28.8460   23.1380 O   0  0  0  0  0  0  0  0  0  0  0  0
  -20.9160  -29.9400   21.7930 H   0  0  0  0  0  0  0  0  0  0  0  0
  -18.1520  -28.0190   22.9920 C   0  0  0  0  0  0  0  0  0  0  0  0
  -20.7220  -28.2730   23.0760 C   0  0  0  0  0  3  0  0  0  0  0  0
  -20.7780  -26.9390   22.2950 C   0  0  0  0  0  2  0  0  0  0  0  0
  -19.5920  -26.7460   21.3460 C   0  0  0  0  0  2  0  0  0  0  0  0
  -18.2720  -26.7790   22.1220 C   0  0  0  0  0  2  0  0  0  0  0  0
  -19.3020  -28.7300   23.4260 C   0  0  0  0  0  0  0  0  0  0  0  0
  -19.1340  -29.8970   24.2030 C   0  0  0  0  0  3  0  0  0  0  0  0
  -17.8470  -30.3540   24.5490 C   0  0  0  0  0  3  0  0  0  0  0  0
  -16.7130  -29.6360   24.1300 C   0  0  0  0  0  3  0  0  0  0  0  0
  -16.8670  -28.4710   23.3580 C   0  0  0  0  0  3  0  0  0  0  0  0
  -25.6750  -32.7220   24.0030 C   0  0  0  0  0  3  0  0  0  0  0  0
  -25.3160  -34.1170   24.2850 N   0  0  0  0  0  0  0  0  0  0  0  0
  -25.7120  -35.1680   23.5530 C   0  0  0  0  0  0  0  0  0  0  0  0
  -26.4890  -35.0660   22.5990 O   0  0  0  0  0  0  0  0  0  0  0  0
  -24.6420  -34.2710   25.0200 H   0  0  0  0  0  0  0  0  0  0  0  0
  -24.0020  -36.9220   22.9950 C   0  0  0  0  0  1  0  0  0  0  0  0
  -25.1560  -36.5510   23.9400 C   0  0  0  0  0  3  0  0  0  0  0  0
  -27.1920  -37.4650   24.9630 C   0  0  0  0  0  1  0  0  0  0  0  0
  -26.1770  -37.6210   23.9250 N   0  0  0  0  0  0  0  0  0  0  0  0
  -25.7430  -38.5330   24.0430 H   0  0  0  0  0  0  0  0  0  0  0  0
  -26.1500  -31.9870   25.3150 C   0  0  1  0  0  0  0  0  0  0  0  0
  -25.0090  -31.7180   26.3240 C   0  0  0  0  0  1  0  0  0  0  0  0
  -26.7970  -30.6260   24.9640 C   0  0  0  0  0  1  0  0  0  0  0  0
  -27.2350  -32.8260   26.0310 C   0  0  0  0  0  1  0  0  0  0  0  0
  2  1  1  0
  3  6  2  0
  3  5  1  0
  4  7  1  0
  4  1  2  0
  5  2  2  0
  6  4  1  0
  7 11  2  0
  8 10  1  0
  8  6  1  0
  9  7  1  0
 10 56  1  0
 10  9  1  0
 12  5  1  0
 12 13  2  0
 14 15  1  0
 14 12  1  0
 15 16  1  0
 16 17  1  0
 17 18  1  0
 18 19  1  0
 20 19  1  0
 21 26  1  0
 22 23  1  0
 22 21  1  0
 24 23  1  0
 24 31  1  0
 24 25  1  0
 26 20  1  0
 26 25  1  0
 27 20  2  0
 28 29  2  0
 29 48  1  0
 30 29  1  0
 30 33  1  0
 31 32  1  0
 31 28  1  0
 32 30  2  0
 33 34  1  0
 34 35  2  0
 36 39  1  0
 36 35  1  0
 37 36  2  0
 38 37  1  0
 38 33  2  0
 39 40  1  0
 40 41  1  0
 41 42  2  0
 43 42  1  0
 43 47  1  0
 44 43  2  0
 45 40  2  0
 45 44  1  0
 46 45  1  0
 48 49  1  0
 49 52  1  0
 49 51  1  0
 50 48  2  0
 53 28  1  0
 53 54  1  0
 55 53  1  0
 57 59  1  0
 57 56  1  0
 58 69  2  0
 59 64  1  0
 60 68  1  0
 60 70  1  0
 61 67  1  0
 61 63  1  0
 62 68  1  0
 63 62  1  0
 64 63  2  0
 65 66  1  0
 65 59  2  0
 66 61  2  0
 67 60  1  0
 68 58  1  0
 70 72  2  0
 71 70  1  0
 73 71  1  0
 74 83  2  0
 74 79  1  0
 75 71  1  0
 75 79  1  0
 76 75  1  0
 77 78  1  0
 77 76  1  0
 78 74  1  0
 79 80  2  0
 80 81  1  0
 82 81  2  0
 83 82  1  0
 84 58  1  0
 84 85  1  0
 84 94  1  0
 85 88  1  0
 86 90  1  0
 86 85  1  0
 87 86  2  0
 90 89  1  0
 92 90  1  0
 92 93  1  0
 92 91  1  0
 94 97  1  1
 94 95  1  0
 96 94  1  0
M  ISO  4  19 100  20 100  56 101  57 101
M  END
>  <TORSDO>  (15) 
F 24

>  <SCORE>  (15) 
-7.877

>  <name>  (15) 
14

>  <ligand_id>  (15) 
14

>  <original_smiles>  (15) 
[H]c1c([H])c([H])c2c(c1[H])C([H])([H])C([H])([H])C([H])([H])C2([H])N([H])C(=O)C1([H])N(C(=O)C([H])(N([H])C(=O)C([H])(N([H])C([H])([H])[H])C([H])([H])[H])C(C([H])([H])[H])(C([H])([H])[H])C([H])([H])[H])C([H])([H])c2c([H])c(OC([H])([H])C3([H])C([H])([H])C(=O)c4c([H])c([H])c(C(=O)C([H])([H])C([H])([H])C([H])([H])C([H])([H])C([H])([H])C([H])([H])C(=O)N5C([H])([H])C([H])([H])C([H])([H])C([H])(n6nc(-c7c([H])c([H])c(Oc8c([H])c([H])c(F)c([H])c8F)c([H])c7[H])c(C(=O)N([H])[H])c6N([H])[H])C5([H])[H])c([H])c4C3([H])[H])c([H])c([H])c2C1([H])[H]

>  <smiles>  (15) 
[H]c1c([H])c([H])c2c(c1[H])C([H])([H])C([H])([H])C([H])([H])C2([H])N([H])C(=O)C1([H])N(C(=O)C([H])(N([H])C(=O)C([H])(N([H])C([H])([H])[H])C([H])([H])[H])C(C([H])([H])[H])(C([H])([H])[H])C([H])([H])[H])C([H])([H])c2c([H])c(OC([H])([H])C3([H])C([H])([H])C(=O)c4c([H])c([H])c(C(=O)C([H])([H])C([H])([H])C([H])([H])C([H])([H])C([H])([H])C([H])([H])C(=O)N5C([H])([H])C([H])([H])C([H])([H])C([H])(n6nc(-c7c([H])c([H])c(Oc8c([H])c([H])c(F)c([H])c8F)c([H])c7[H])c(C(=O)N([H])[H])c6N([H])[H])C5([H])[H])c([H])c4C3([H])[H])c([H])c([H])c2C1([H])[H]

$$$$
15:0:0
     RDKit          3D

 97105  0  0  1  0  0  0  0  0999 V2000
  -29.7210  -21.6430   21.8540 C   0  0  0  0  0  3  0  0  0  0  0  0
  -27.5330  -21.9260   20.8200 C   0  0  0  0  0  3  0  0  0  0  0  0
  -29.7700  -20.3160   21.3890 C   0  0  0  0  0  3  0  0  0  0  0  0
  -27.5900  -20.6070   20.3430 C   0  0  0  0  0  3  0  0  0  0  0  0
  -28.6020  -22.4530   21.5720 C   0  0  0  0  0  0  0  0  0  0  0  0
  -28.7120  -19.7950   20.6160 C   0  0  0  0  0  0  0  0  0  0  0  0
  -28.5620  -23.8930   22.0380 C   0  0  0  0  0  2  0  0  0  0  0  0
  -28.7740  -24.8480   20.8580 C   0  0  0  0  0  2  0  0  0  0  0  0
  -28.9250  -26.3150   21.2730 C   0  0  0  0  0  2  0  0  0  0  0  0
  -28.7060  -27.1120   20.1140 O   0  0  0  0  0  0  0  0  0  0  0  0
  -24.6510  -31.9940   23.2840 C   0  0  0  0  0  0  0  0  0  0  0  0
  -27.5100  -27.7750   20.1340 C   0  0  0  0  0  0  0  0  0  0  0  0
  -23.5210  -30.5900   21.5900 C   0  0  0  0  0  3  0  0  0  0  0  0
  -25.0520  -29.1390   20.1570 C   0  0  0  0  0  0  0  0  0  0  0  0
  -26.0240  -31.0580   21.4340 C   0  0  0  0  0  2  0  0  0  0  0  0
  -26.1730  -29.7080   20.7740 C   0  0  0  0  0  0  0  0  0  0  0  0
  -27.4050  -29.0280   20.7700 C   0  0  0  0  0  3  0  0  0  0  0  0
  -26.3840  -27.2080   19.5070 C   0  0  0  0  0  3  0  0  0  0  0  0
  -25.1490  -27.8830   19.5270 C   0  0  0  0  0  3  0  0  0  0  0  0
  -23.7750  -29.9420   20.2020 C   0  0  0  0  0  2  0  0  0  0  0  0
  -24.7500  -31.2250   22.1640 N   0  0  0  0  0  0  0  0  0  0  0  0
  -23.5520  -32.2170   23.8110 O   0  0  0  0  0  0  0  0  0  0  0  0
  -22.8940  -29.5250   22.5160 C   0  0  0  0  0  0  0  0  0  0  0  0
  -21.5740  -29.3200   22.3820 N   0  0  0  0  0  0  0  0  0  0  0  0
  -23.5910  -28.8900   23.3090 O   0  0  0  0  0  0  0  0  0  0  0  0
  -21.0780  -29.8870   21.7090 H   0  0  0  0  0  0  0  0  0  0  0  0
  -18.2200  -28.0720   22.8460 C   0  0  0  0  0  0  0  0  0  0  0  0
  -20.7760  -28.3410   23.1170 C   0  0  0  0  0  3  0  0  0  0  0  0
  -20.8920  -26.9400   22.4730 C   0  0  0  0  0  2  0  0  0  0  0  0
  -19.7840  -26.6480   21.4530 C   0  0  0  0  0  2  0  0  0  0  0  0
  -18.4060  -26.7530   22.1150 C   0  0  0  0  0  2  0  0  0  0  0  0
  -19.3340  -28.8240   23.3020 C   0  0  0  0  0  0  0  0  0  0  0  0
  -19.1080  -30.0600   23.9460 C   0  0  0  0  0  3  0  0  0  0  0  0
  -17.8010  -30.5400   24.1470 C   0  0  0  0  0  3  0  0  0  0  0  0
  -16.7010  -29.7810   23.7100 C   0  0  0  0  0  3  0  0  0  0  0  0
  -16.9120  -28.5510   23.0610 C   0  0  0  0  0  3  0  0  0  0  0  0
  -25.9050  -32.6520   23.9430 C   0  0  0  0  0  3  0  0  0  0  0  0
  -25.5670  -34.0490   24.2420 N   0  0  0  0  0  0  0  0  0  0  0  0
  -25.9140  -35.0940   23.4780 C   0  0  0  0  0  0  0  0  0  0  0  0
  -26.6210  -34.9850   22.4730 O   0  0  0  0  0  0  0  0  0  0  0  0
  -24.9400  -34.2100   25.0170 H   0  0  0  0  0  0  0  0  0  0  0  0
  -24.1710  -36.8540   23.0370 C   0  0  0  0  0  1  0  0  0  0  0  0
  -25.3910  -36.4830   23.8950 C   0  0  0  0  0  3  0  0  0  0  0  0
  -27.4850  -37.4110   24.7760 C   0  0  0  0  0  1  0  0  0  0  0  0
  -26.4080  -37.5490   23.7980 N   0  0  0  0  0  0  0  0  0  0  0  0
  -25.9840  -38.4640   23.9160 H   0  0  0  0  0  0  0  0  0  0  0  0
  -26.3940  -31.9030   25.2420 C   0  0  1  0  0  0  0  0  0  0  0  0
  -25.2700  -31.6520   26.2720 C   0  0  0  0  0  1  0  0  0  0  0  0
  -27.0200  -30.5370   24.8780 C   0  0  0  0  0  1  0  0  0  0  0  0
  -27.5020  -32.7280   25.9390 C   0  0  0  0  0  1  0  0  0  0  0  0
  -28.7310  -18.3560   20.1190 C   0  0  0  0  0  2  0  0  0  0  0  0
  -29.8570  -17.9370   19.1300 C   0  0  0  0  0  3  0  0  0  0  0  0
  -31.5500  -14.8960   20.1740 C   0  0  0  0  0  0  0  0  0  0  0  0
  -31.2190  -12.6260   19.3200 C   0  0  0  0  0  2  0  0  0  0  0  0
  -30.3270  -12.7370   18.0610 C   0  0  0  0  0  2  0  0  0  0  0  0
  -28.8330  -12.7070   18.4390 C   0  0  0  0  0  2  0  0  0  0  0  0
  -28.4840  -13.7020   19.5750 C   0  0  0  0  0  3  0  0  0  0  0  0
  -29.4910  -13.5720   20.7480 C   0  0  0  0  0  2  0  0  0  0  0  0
  -30.8540  -13.7330   20.2090 N   0  0  0  0  0  0  0  0  0  0  0  0
  -32.7380  -14.9640   19.8370 O   0  0  0  0  0  0  0  0  0  0  0  0
  -31.0090  -17.2180   19.8580 C   0  0  0  0  0  0  0  0  0  0  0  0
  -30.7390  -15.9600   20.2320 N   0  0  0  0  0  0  0  0  0  0  0  0
  -32.1050  -17.7730   20.0110 O   0  0  0  0  0  0  0  0  0  0  0  0
  -29.7680  -15.7140   20.3030 H   0  0  0  0  0  0  0  0  0  0  0  0
  -26.1360  -14.5170   20.2460 C   0  0  0  0  0  0  0  0  0  0  0  0
  -24.9990  -13.8360   20.5890 C   0  0  0  0  0  0  0  0  0  0  0  0
  -25.3450  -12.4490   20.5590 C   0  0  0  0  0  0  0  0  0  0  0  0
  -27.1050  -13.5490   20.0260 N   0  0  0  0  0  0  0  0  0  0  0  0
  -26.6320  -12.3020   20.2740 N   0  0  0  0  0  0  0  0  0  0  0  0
  -24.5130  -11.2510   20.7310 C   0  0  0  0  0  0  0  0  0  0  0  0
  -24.8650  -10.2330   21.6440 C   0  0  0  0  0  3  0  0  0  0  0  0
  -24.0430   -9.0970   21.8010 C   0  0  0  0  0  3  0  0  0  0  0  0
  -22.8520   -8.9750   21.0470 C   0  0  0  0  0  0  0  0  0  0  0  0
  -22.5140   -9.9800   20.1250 C   0  0  0  0  0  3  0  0  0  0  0  0
  -23.3370  -11.1080   19.9650 C   0  0  0  0  0  3  0  0  0  0  0  0
  -22.0030   -7.8960   21.1160 O   0  0  0  0  0  0  0  0  0  0  0  0
  -21.9000   -7.1350   22.2520 C   0  0  0  0  0  0  0  0  0  0  0  0
  -21.5520   -7.7000   23.4980 C   0  0  0  0  0  3  0  0  0  0  0  0
  -21.3870   -6.8720   24.6260 C   0  0  0  0  0  3  0  0  0  0  0  0
  -21.5620   -5.4790   24.5090 C   0  0  0  0  0  0  0  0  0  0  0  0
  -21.9020   -4.9140   23.2670 C   0  0  0  0  0  3  0  0  0  0  0  0
  -22.0680   -5.7400   22.1420 C   0  0  0  0  0  0  0  0  0  0  0  0
  -22.3760   -5.1890   20.9430 F   0  0  0  0  0  0  0  0  0  0  0  0
  -21.3970   -4.6820   25.5900 F   0  0  0  0  0  0  0  0  0  0  0  0
  -23.6410  -14.4280   20.8380 C   0  0  0  0  0  0  0  0  0  0  0  0
  -22.8490  -13.8040   21.7020 N   0  0  0  0  0  0  0  0  0  0  0  0
  -23.2900  -15.4770   20.3000 O   0  0  0  0  0  0  0  0  0  0  0  0
  -23.1420  -12.9540   22.1600 H   0  0  0  0  0  0  0  0  0  0  0  0
  -21.9360  -14.1830   21.9130 H   0  0  0  0  0  0  0  0  0  0  0  0
  -26.4190  -15.8690   20.0790 N   0  0  0  0  0  0  0  0  0  0  0  0
  -25.6970  -16.5750   20.1660 H   0  0  0  0  0  0  0  0  0  0  0  0
  -27.2830  -16.2340   19.7080 H   0  0  0  0  0  0  0  0  0  0  0  0
  -30.4120  -19.0080   18.1380 C   0  0  0  0  0  2  0  0  0  0  0  0
  -29.3130  -18.0810   16.0120 C   0  0  0  0  0  1  0  0  0  0  0  0
  -30.3960  -20.3230   16.0130 C   0  0  0  0  0  1  0  0  0  0  0  0
  -28.2410  -20.0100   17.2240 C   0  0  0  0  0  1  0  0  0  0  0  0
  -29.5770  -19.3390   16.8660 C   0  0  2  0  0  0  0  0  0  0  0  0
  2  5  2  0
  3  1  2  0
  4  6  2  0
  4  2  1  0
  5  1  1  0
  5  7  1  0
  6  3  1  0
  8  9  1  0
  8  7  1  0
 10 12  1  0
 10  9  1  0
 11 22  2  0
 12 17  1  0
 13 21  1  0
 13 23  1  0
 14 20  1  0
 14 16  1  0
 15 21  1  0
 16 15  1  0
 17 16  2  0
 18 19  1  0
 18 12  2  0
 19 14  2  0
 20 13  1  0
 21 11  1  0
 23 25  2  0
 24 23  1  0
 26 24  1  0
 27 36  2  0
 27 32  1  0
 28 24  1  0
 28 32  1  0
 29 28  1  0
 30 31  1  0
 30 29  1  0
 31 27  1  0
 32 33  2  0
 33 34  1  0
 35 34  2  0
 36 35  1  0
 37 11  1  0
 37 38  1  0
 37 47  1  0
 38 41  1  0
 39 43  1  0
 39 38  1  0
 40 39  2  0
 43 42  1  0
 45 43  1  0
 45 46  1  0
 45 44  1  0
 47 50  1  1
 47 48  1  0
 49 47  1  0
 51  6  1  0
 52 93  1  0
 52 61  1  0
 52 51  1  0
 53 59  1  0
 53 62  1  0
 54 59  1  0
 55 56  1  0
 55 54  1  0
 57 56  1  0
 57 68  1  0
 57 58  1  0
 59 58  1  0
 60 53  2  0
 61 63  2  0
 61 62  1  0
 62 64  1  0
 65 66  2  0
 66 85  1  0
 67 66  1  0
 67 70  1  0
 68 65  1  0
 68 69  1  0
 69 67  2  0
 70 71  1  0
 71 72  2  0
 73 76  1  0
 73 72  1  0
 74 73  2  0
 75 74  1  0
 75 70  2  0
 76 77  1  0
 77 78  1  0
 78 79  2  0
 80 79  1  0
 80 84  1  0
 81 80  2  0
 82 77  2  0
 82 81  1  0
 83 82  1  0
 85 86  1  0
 86 89  1  0
 86 88  1  0
 87 85  2  0
 90 91  1  0
 90 65  1  0
 92 90  1  0
 97 94  1  6
 95 97  1  0
 97 96  1  0
 97 93  1  0
M  ISO  4   9 101  10 101  53 100  62 100
M  END
>  <TORSDO>  (16) 
F 23

>  <SCORE>  (16) 
-11.386

>  <name>  (16) 
15

>  <ligand_id>  (16) 
15

>  <original_smiles>  (16) 
[H]c1c([H])c([H])c2c(c1[H])C([H])([H])C([H])([H])C([H])([H])C2([H])N([H])C(=O)C1([H])N(C(=O)C([H])(N([H])C(=O)C([H])(N([H])C([H])([H])[H])C([H])([H])[H])C(C([H])([H])[H])(C([H])([H])[H])C([H])([H])[H])C([H])([H])c2c([H])c(OC([H])([H])C([H])([H])C([H])([H])c3c([H])c([H])c(C([H])([H])C([H])(C(=O)N([H])C(=O)N4C([H])([H])C([H])([H])C([H])([H])C([H])(n5nc(-c6c([H])c([H])c(Oc7c([H])c([H])c(F)c([H])c7F)c([H])c6[H])c(C(=O)N([H])[H])c5N([H])[H])C4([H])[H])C([H])([H])C(C([H])([H])[H])(C([H])([H])[H])C([H])([H])[H])c([H])c3[H])c([H])c([H])c2C1([H])[H]

>  <smiles>  (16) 
[H]c1c([H])c([H])c2c(c1[H])C([H])([H])C([H])([H])C([H])([H])C2([H])N([H])C(=O)C1([H])N(C(=O)C([H])(N([H])C(=O)C([H])(N([H])C([H])([H])[H])C([H])([H])[H])C(C([H])([H])[H])(C([H])([H])[H])C([H])([H])[H])C([H])([H])c2c([H])c(OC([H])([H])C([H])([H])C([H])([H])c3c([H])c([H])c(C([H])([H])C([H])(C(=O)N([H])C(=O)N4C([H])([H])C([H])([H])C([H])([H])C([H])(n5nc(-c6c([H])c([H])c(Oc7c([H])c([H])c(F)c([H])c7F)c([H])c6[H])c(C(=O)N([H])[H])c5N([H])[H])C4([H])[H])C([H])([H])C(C([H])([H])[H])(C([H])([H])[H])C([H])([H])[H])c([H])c3[H])c([H])c([H])c2C1([H])[H]

$$$$
16:0:0
     RDKit          3D

 98106  0  0  1  0  0  0  0  0999 V2000
  -28.6260  -22.6780   26.6660 C   0  0  0  0  0  3  0  0  0  0  0  0
  -26.8820  -24.3510   26.9610 C   0  0  0  0  0  3  0  0  0  0  0  0
  -29.2590  -23.5010   25.7140 C   0  0  0  0  0  3  0  0  0  0  0  0
  -27.5270  -25.1870   26.0270 C   0  0  0  0  0  3  0  0  0  0  0  0
  -27.4120  -23.0800   27.2660 C   0  0  0  0  0  0  0  0  0  0  0  0
  -28.7140  -24.7600   25.3960 C   0  0  0  0  0  0  0  0  0  0  0  0
  -26.7060  -22.2110   28.2470 C   0  0  0  0  0  0  0  0  0  0  0  0
  -25.8030  -22.6260   28.9780 O   0  0  0  0  0  0  0  0  0  0  0  0
  -27.0760  -20.7220   28.2950 C   0  0  0  0  0  2  0  0  0  0  0  0
  -27.1240  -20.0190   26.9190 C   0  0  0  0  0  2  0  0  0  0  0  0
  -28.5480  -19.6720   26.4430 C   0  0  0  0  0  2  0  0  0  0  0  0
  -28.5850  -19.1520   25.0050 C   0  0  0  0  0  2  0  0  0  0  0  0
  -29.9470  -18.5590   24.6230 C   0  0  0  0  0  2  0  0  0  0  0  0
  -29.8360  -17.7960   23.3030 C   0  0  0  0  0  2  0  0  0  0  0  0
  -31.1680  -17.2270   22.7840 C   0  0  0  0  0  2  0  0  0  0  0  0
  -31.4440  -15.2720   21.2160 C   0  0  0  0  0  0  0  0  0  0  0  0
  -31.3100  -13.1520   19.9600 C   0  0  0  0  0  2  0  0  0  0  0  0
  -30.4930  -13.2970   18.6640 C   0  0  0  0  0  2  0  0  0  0  0  0
  -28.9840  -13.1350   18.9300 C   0  0  0  0  0  2  0  0  0  0  0  0
  -28.4930  -14.0030   20.1180 C   0  0  0  0  0  3  0  0  0  0  0  0
  -29.4090  -13.7960   21.3390 C   0  0  0  0  0  2  0  0  0  0  0  0
  -30.7980  -14.1140   20.9400 N   0  0  0  0  0  0  0  0  0  0  0  0
  -32.4770  -15.6540   20.6550 O   0  0  0  0  0  0  0  0  0  0  0  0
  -30.8790  -15.9260   22.2260 N   0  0  0  0  0  0  0  0  0  0  0  0
  -30.0750  -15.4550   22.6110 H   0  0  0  0  0  0  0  0  0  0  0  0
  -26.0230  -14.5960   20.5580 C   0  0  0  0  0  0  0  0  0  0  0  0
  -24.9300  -13.8130   20.8100 C   0  0  0  0  0  0  0  0  0  0  0  0
  -25.4050  -12.4650   20.8280 C   0  0  0  0  0  0  0  0  0  0  0  0
  -27.0970  -13.7250   20.4440 N   0  0  0  0  0  0  0  0  0  0  0  0
  -26.7200  -12.4380   20.6620 N   0  0  0  0  0  0  0  0  0  0  0  0
  -24.6770  -11.1950   20.9390 C   0  0  0  0  0  0  0  0  0  0  0  0
  -25.0370  -10.2190   21.8960 C   0  0  0  0  0  3  0  0  0  0  0  0
  -24.3100   -9.0130   21.9950 C   0  0  0  0  0  3  0  0  0  0  0  0
  -23.2100   -8.7750   21.1380 C   0  0  0  0  0  0  0  0  0  0  0  0
  -22.8710   -9.7390   20.1730 C   0  0  0  0  0  3  0  0  0  0  0  0
  -23.5970  -10.9360   20.0710 C   0  0  0  0  0  3  0  0  0  0  0  0
  -22.4620   -7.6220   21.1440 O   0  0  0  0  0  0  0  0  0  0  0  0
  -22.2180   -6.9310   22.3030 C   0  0  0  0  0  0  0  0  0  0  0  0
  -21.6670   -7.5560   23.4430 C   0  0  0  0  0  3  0  0  0  0  0  0
  -21.3660   -6.7920   24.5880 C   0  0  0  0  0  3  0  0  0  0  0  0
  -21.6060   -5.4060   24.5930 C   0  0  0  0  0  0  0  0  0  0  0  0
  -22.1490   -4.7800   23.4580 C   0  0  0  0  0  3  0  0  0  0  0  0
  -22.4510   -5.5410   22.3140 C   0  0  0  0  0  0  0  0  0  0  0  0
  -22.9540   -4.9300   21.2160 F   0  0  0  0  0  0  0  0  0  0  0  0
  -21.3120   -4.6710   25.6910 F   0  0  0  0  0  0  0  0  0  0  0  0
  -23.5040  -14.2730   20.9310 C   0  0  0  0  0  0  0  0  0  0  0  0
  -22.6960  -13.5710   21.7150 N   0  0  0  0  0  0  0  0  0  0  0  0
  -23.1120  -15.2930   20.3620 O   0  0  0  0  0  0  0  0  0  0  0  0
  -23.0220  -12.7460   22.1980 H   0  0  0  0  0  0  0  0  0  0  0  0
  -21.7350  -13.8610   21.8340 H   0  0  0  0  0  0  0  0  0  0  0  0
  -26.1960  -15.9680   20.3980 N   0  0  0  0  0  0  0  0  0  0  0  0
  -25.4250  -16.6260   20.4380 H   0  0  0  0  0  0  0  0  0  0  0  0
  -27.0840  -16.4080   20.1850 H   0  0  0  0  0  0  0  0  0  0  0  0
  -29.4250  -25.6840   24.4240 C   0  0  0  0  0  2  0  0  0  0  0  0
  -29.3580  -25.2260   22.9560 C   0  0  0  0  0  2  0  0  0  0  0  0
  -29.5640  -26.4200   22.0150 C   0  0  0  0  0  2  0  0  0  0  0  0
  -29.3220  -26.1080   20.5300 C   0  0  0  0  0  2  0  0  0  0  0  0
  -29.1490  -27.3410   19.8350 O   0  0  0  0  0  0  0  0  0  0  0  0
  -24.8220  -31.6610   23.4870 C   0  0  0  0  0  0  0  0  0  0  0  0
  -27.9030  -27.9070   19.9420 C   0  0  0  0  0  0  0  0  0  0  0  0
  -23.7660  -30.3450   21.6790 C   0  0  0  0  0  3  0  0  0  0  0  0
  -25.3670  -29.1280   20.1120 C   0  0  0  0  0  0  0  0  0  0  0  0
  -26.2470  -30.9630   21.5720 C   0  0  0  0  0  2  0  0  0  0  0  0
  -26.4640  -29.6970   20.7710 C   0  0  0  0  0  0  0  0  0  0  0  0
  -27.7360  -29.0950   20.6840 C   0  0  0  0  0  3  0  0  0  0  0  0
  -26.7880  -27.3320   19.2950 C   0  0  0  0  0  3  0  0  0  0  0  0
  -25.5200  -27.9380   19.3790 C   0  0  0  0  0  3  0  0  0  0  0  0
  -24.0450  -29.8500   20.2350 C   0  0  0  0  0  2  0  0  0  0  0  0
  -24.9590  -31.0010   22.3030 N   0  0  0  0  0  0  0  0  0  0  0  0
  -23.7180  -31.7630   24.0400 O   0  0  0  0  0  0  0  0  0  0  0  0
  -23.2160  -29.1600   22.5050 C   0  0  0  0  0  0  0  0  0  0  0  0
  -21.9150  -28.8730   22.3440 N   0  0  0  0  0  0  0  0  0  0  0  0
  -23.9580  -28.5080   23.2440 O   0  0  0  0  0  0  0  0  0  0  0  0
  -21.3730  -29.4580   21.7230 H   0  0  0  0  0  0  0  0  0  0  0  0
  -18.6660  -27.3300   22.6590 C   0  0  0  0  0  0  0  0  0  0  0  0
  -21.1890  -27.7790   22.9870 C   0  0  0  0  0  3  0  0  0  0  0  0
  -21.4210  -26.4420   22.2440 C   0  0  0  0  0  2  0  0  0  0  0  0
  -20.3510  -26.1490   21.1880 C   0  0  0  0  0  2  0  0  0  0  0  0
  -18.9620  -26.0930   21.8290 C   0  0  0  0  0  2  0  0  0  0  0  0
  -19.7120  -28.1310   23.1880 C   0  0  0  0  0  0  0  0  0  0  0  0
  -19.3810  -29.2940   23.9190 C   0  0  0  0  0  3  0  0  0  0  0  0
  -18.0360  -29.6550   24.1280 C   0  0  0  0  0  3  0  0  0  0  0  0
  -17.0050  -28.8480   23.6190 C   0  0  0  0  0  3  0  0  0  0  0  0
  -17.3200  -27.6880   22.8890 C   0  0  0  0  0  3  0  0  0  0  0  0
  -26.0390  -32.3370   24.1910 C   0  0  0  0  0  3  0  0  0  0  0  0
  -26.5510  -31.5370   25.4510 C   0  0  1  0  0  0  0  0  0  0  0  0
  -25.4260  -31.1290   26.4270 C   0  0  0  0  0  1  0  0  0  0  0  0
  -27.2900  -30.2490   25.0220 C   0  0  0  0  0  1  0  0  0  0  0  0
  -27.5730  -32.3940   26.2350 C   0  0  0  0  0  1  0  0  0  0  0  0
  -25.6290  -33.6950   24.5740 N   0  0  0  0  0  0  0  0  0  0  0  0
  -25.9270  -34.8030   23.8830 C   0  0  0  0  0  0  0  0  0  0  0  0
  -26.6500  -34.7930   22.8810 O   0  0  0  0  0  0  0  0  0  0  0  0
  -24.9900  -33.7720   25.3520 H   0  0  0  0  0  0  0  0  0  0  0  0
  -24.1120  -36.5050   23.5230 C   0  0  0  0  0  1  0  0  0  0  0  0
  -25.3290  -36.1310   24.3820 C   0  0  0  0  0  3  0  0  0  0  0  0
  -27.3690  -37.0850   25.3590 C   0  0  0  0  0  1  0  0  0  0  0  0
  -26.2970  -37.2490   24.3810 N   0  0  0  0  0  0  0  0  0  0  0  0
  -25.8280  -38.1310   24.5730 H   0  0  0  0  0  0  0  0  0  0  0  0
  1  5  1  0
  2  5  2  0
  3  1  2  0
  4  2  1  0
  5  7  1  0
  6  3  1  0
  6  4  2  0
  7  9  1  0
  7  8  2  0
 10  9  1  0
 11 10  1  0
 12 11  1  0
 13 12  1  0
 14 13  1  0
 15 14  1  0
 16 24  1  0
 17 22  1  0
 18 19  1  0
 18 17  1  0
 20 19  1  0
 20 29  1  0
 20 21  1  0
 22 16  1  0
 22 21  1  0
 23 16  2  0
 24 25  1  0
 24 15  1  0
 26 27  2  0
 27 28  1  0
 27 46  1  0
 28 31  1  0
 29 26  1  0
 29 30  1  0
 30 28  2  0
 31 32  1  0
 32 33  2  0
 34 37  1  0
 34 33  1  0
 35 34  2  0
 36 35  1  0
 36 31  2  0
 37 38  1  0
 38 43  2  0
 38 39  1  0
 39 40  2  0
 40 41  1  0
 41 45  1  0
 42 41  2  0
 43 42  1  0
 44 43  1  0
 46 47  1  0
 47 50  1  0
 47 49  1  0
 48 46  2  0
 51 52  1  0
 51 26  1  0
 53 51  1  0
 54  6  1  0
 55 54  1  0
 56 55  1  0
 57 56  1  0
 58 60  1  0
 58 57  1  0
 59 70  2  0
 60 65  1  0
 61 69  1  0
 61 71  1  0
 62 68  1  0
 62 64  1  0
 63 69  1  0
 64 63  1  0
 65 64  2  0
 66 67  1  0
 66 60  2  0
 67 62  2  0
 68 61  1  0
 69 59  1  0
 71 73  2  0
 72 71  1  0
 74 72  1  0
 75 84  2  0
 75 80  1  0
 76 72  1  0
 76 80  1  0
 77 76  1  0
 78 79  1  0
 78 77  1  0
 79 75  1  0
 80 81  2  0
 81 82  1  0
 83 82  2  0
 84 83  1  0
 85 59  1  0
 85 90  1  0
 85 86  1  0
 86 89  1  1
 86 87  1  0
 88 86  1  0
 90 93  1  0
 91 95  1  0
 91 90  1  0
 92 91  2  0
 95 94  1  0
 97 95  1  0
 97 98  1  0
 97 96  1  0
M  ISO  4  16 100  24 100  57 101  58 101
M  END
>  <TORSDO>  (17) 
F 28

>  <SCORE>  (17) 
25.200

>  <name>  (17) 
16

>  <ligand_id>  (17) 
16

>  <original_smiles>  (17) 
[H]c1c([H])c([H])c2c(c1[H])C([H])([H])C([H])([H])C([H])([H])C2([H])N([H])C(=O)C1([H])N(C(=O)C([H])(N([H])C(=O)C([H])(N([H])C([H])([H])[H])C([H])([H])[H])C(C([H])([H])[H])(C([H])([H])[H])C([H])([H])[H])C([H])([H])c2c([H])c(OC([H])([H])C([H])([H])C([H])([H])C([H])([H])c3c([H])c([H])c(C(=O)C([H])([H])C([H])([H])C([H])([H])C([H])([H])C([H])([H])C([H])([H])C([H])([H])N([H])C(=O)N4C([H])([H])C([H])([H])C([H])([H])C([H])(n5nc(-c6c([H])c([H])c(Oc7c([H])c([H])c(F)c([H])c7F)c([H])c6[H])c(C(=O)N([H])[H])c5N([H])[H])C4([H])[H])c([H])c3[H])c([H])c([H])c2C1([H])[H]

>  <smiles>  (17) 
[H]c1c([H])c([H])c2c(c1[H])C([H])([H])C([H])([H])C([H])([H])C2([H])N([H])C(=O)C1([H])N(C(=O)C([H])(N([H])C(=O)C([H])(N([H])C([H])([H])[H])C([H])([H])[H])C(C([H])([H])[H])(C([H])([H])[H])C([H])([H])[H])C([H])([H])c2c([H])c(OC([H])([H])C([H])([H])C([H])([H])C([H])([H])c3c([H])c([H])c(C(=O)C([H])([H])C([H])([H])C([H])([H])C([H])([H])C([H])([H])C([H])([H])C([H])([H])N([H])C(=O)N4C([H])([H])C([H])([H])C([H])([H])C([H])(n5nc(-c6c([H])c([H])c(Oc7c([H])c([H])c(F)c([H])c7F)c([H])c6[H])c(C(=O)N([H])[H])c5N([H])[H])C4([H])[H])c([H])c3[H])c([H])c([H])c2C1([H])[H]

$$$$
17:0:0
     RDKit          3D

 97105  0  0  1  0  0  0  0  0999 V2000
  -29.4940  -25.2080   24.5370 C   0  0  0  0  0  3  0  0  0  0  0  0
  -30.6730  -25.3320   25.1450 C   0  0  0  0  0  0  0  0  0  0  0  0
  -31.2100  -26.6410   24.8380 C   0  0  0  0  0  0  0  0  0  0  0  0
  -29.1670  -26.3900   23.6680 C   0  0  1  0  0  0  0  0  0  0  0  0
  -27.8370  -27.0190   24.1220 C   0  0  0  0  0  1  0  0  0  0  0  0
  -30.3910  -28.6660   23.6910 C   0  0  0  0  0  1  0  0  0  0  0  0
  -30.3320  -27.2370   24.0000 N   0  0  0  0  0  0  0  0  0  0  0  0
  -32.2400  -27.1560   25.2810 O   0  0  0  0  0  0  0  0  0  0  0  0
  -29.1200  -25.8680   22.1990 C   0  0  0  0  0  2  0  0  0  0  0  0
  -29.4050  -26.8420   21.0370 C   0  0  0  0  0  2  0  0  0  0  0  0
  -28.4060  -26.7180   20.0210 O   0  0  0  0  0  0  0  0  0  0  0  0
  -24.6090  -31.8700   23.2120 C   0  0  0  0  0  0  0  0  0  0  0  0
  -27.2620  -27.4820   20.1060 C   0  0  0  0  0  0  0  0  0  0  0  0
  -23.3960  -30.4900   21.5510 C   0  0  0  0  0  3  0  0  0  0  0  0
  -24.8470  -28.9570   20.1170 C   0  0  0  0  0  0  0  0  0  0  0  0
  -25.9150  -30.8570   21.3510 C   0  0  0  0  0  2  0  0  0  0  0  0
  -25.9980  -29.4870   20.7120 C   0  0  0  0  0  0  0  0  0  0  0  0
  -27.2030  -28.7610   20.7090 C   0  0  0  0  0  3  0  0  0  0  0  0
  -26.0960  -26.9620   19.5060 C   0  0  0  0  0  3  0  0  0  0  0  0
  -24.8870  -27.6880   19.5110 C   0  0  0  0  0  3  0  0  0  0  0  0
  -23.6030  -29.8150   20.1650 C   0  0  0  0  0  2  0  0  0  0  0  0
  -24.6590  -31.0860   22.0980 N   0  0  0  0  0  0  0  0  0  0  0  0
  -23.5290  -32.1420   23.7550 O   0  0  0  0  0  0  0  0  0  0  0  0
  -22.7410  -29.4670   22.5040 C   0  0  0  0  0  0  0  0  0  0  0  0
  -21.4150  -29.3020   22.3750 N   0  0  0  0  0  0  0  0  0  0  0  0
  -23.4190  -28.8240   23.3100 O   0  0  0  0  0  0  0  0  0  0  0  0
  -20.9330  -29.8760   21.6970 H   0  0  0  0  0  0  0  0  0  0  0  0
  -18.0280  -28.1360   22.8450 C   0  0  0  0  0  0  0  0  0  0  0  0
  -20.5850  -28.3650   23.1320 C   0  0  0  0  0  3  0  0  0  0  0  0
  -20.6760  -26.9400   22.5400 C   0  0  0  0  0  2  0  0  0  0  0  0
  -19.5760  -26.6380   21.5170 C   0  0  0  0  0  2  0  0  0  0  0  0
  -18.1940  -26.7900   22.1580 C   0  0  0  0  0  2  0  0  0  0  0  0
  -19.1510  -28.8830   23.2880 C   0  0  0  0  0  0  0  0  0  0  0  0
  -18.9450  -30.1430   23.8910 C   0  0  0  0  0  3  0  0  0  0  0  0
  -17.6460  -30.6570   24.0550 C   0  0  0  0  0  3  0  0  0  0  0  0
  -16.5350  -29.9080   23.6290 C   0  0  0  0  0  3  0  0  0  0  0  0
  -16.7270  -28.6490   23.0310 C   0  0  0  0  0  3  0  0  0  0  0  0
  -25.8980  -32.4850   23.8420 C   0  0  0  0  0  3  0  0  0  0  0  0
  -26.4430  -31.6690   25.0760 C   0  0  1  0  0  0  0  0  0  0  0  0
  -25.3730  -31.3770   26.1540 C   0  0  0  0  0  1  0  0  0  0  0  0
  -27.0240  -30.3210   24.6050 C   0  0  0  0  0  1  0  0  0  0  0  0
  -27.6030  -32.4380   25.7490 C   0  0  0  0  0  1  0  0  0  0  0  0
  -25.5860  -33.8650   24.2330 N   0  0  0  0  0  0  0  0  0  0  0  0
  -25.9010  -34.9480   23.5110 C   0  0  0  0  0  0  0  0  0  0  0  0
  -26.5610  -34.8900   22.4690 O   0  0  0  0  0  0  0  0  0  0  0  0
  -25.0110  -33.9840   25.0530 H   0  0  0  0  0  0  0  0  0  0  0  0
  -24.1490  -36.7340   23.2630 C   0  0  0  0  0  1  0  0  0  0  0  0
  -25.4090  -36.3110   24.0310 C   0  0  0  0  0  3  0  0  0  0  0  0
  -27.5560  -37.1810   24.8450 C   0  0  0  0  0  1  0  0  0  0  0  0
  -26.4280  -37.3790   23.9390 N   0  0  0  0  0  0  0  0  0  0  0  0
  -26.0150  -38.2850   24.1420 H   0  0  0  0  0  0  0  0  0  0  0  0
  -31.3830  -24.2670   25.9700 C   0  0  0  0  0  2  0  0  0  0  0  0
  -32.7560  -23.8340   25.4060 C   0  0  0  0  0  2  0  0  0  0  0  0
  -32.8130  -23.6170   23.8780 C   0  0  0  0  0  2  0  0  0  0  0  0
  -31.8190  -22.5790   23.3290 C   0  0  0  0  0  2  0  0  0  0  0  0
  -32.2310  -21.1320   23.6260 C   0  0  0  0  0  2  0  0  0  0  0  0
  -31.2070  -20.1210   23.0980 C   0  0  0  0  0  2  0  0  0  0  0  0
  -31.7090  -18.6800   23.2280 C   0  0  0  0  0  2  0  0  0  0  0  0
  -30.6680  -17.6540   22.7590 C   0  0  0  0  0  2  0  0  0  0  0  0
  -31.3230  -16.4060   22.1570 C   0  0  0  0  0  2  0  0  0  0  0  0
  -30.2950  -15.3200   21.7780 C   0  0  0  0  0  2  0  0  0  0  0  0
  -30.7710  -14.3400   20.6930 C   0  0  0  0  0  0  0  0  0  0  0  0
  -30.4100  -12.2750   19.3870 C   0  0  0  0  0  2  0  0  0  0  0  0
  -29.4800  -12.5270   18.1870 C   0  0  0  0  0  2  0  0  0  0  0  0
  -28.0050  -12.3820   18.6040 C   0  0  0  0  0  2  0  0  0  0  0  0
  -27.6660  -13.2000   19.8780 C   0  0  0  0  0  3  0  0  0  0  0  0
  -28.7050  -12.9390   20.9910 C   0  0  0  0  0  2  0  0  0  0  0  0
  -30.0460  -13.2200   20.4500 N   0  0  0  0  0  0  0  0  0  0  0  0
  -31.8020  -14.6040   20.0630 O   0  0  0  0  0  0  0  0  0  0  0  0
  -25.2620  -13.8160   20.5670 C   0  0  0  0  0  0  0  0  0  0  0  0
  -24.1850  -13.0440   20.9160 C   0  0  0  0  0  0  0  0  0  0  0  0
  -24.6400  -11.6910   20.8730 C   0  0  0  0  0  0  0  0  0  0  0  0
  -26.3050  -12.9320   20.3370 N   0  0  0  0  0  0  0  0  0  0  0  0
  -25.9320  -11.6480   20.5760 N   0  0  0  0  0  0  0  0  0  0  0  0
  -23.9060  -10.4300   21.0410 C   0  0  0  0  0  0  0  0  0  0  0  0
  -24.3610   -9.4220   21.9180 C   0  0  0  0  0  3  0  0  0  0  0  0
  -23.6290   -8.2250   22.0750 C   0  0  0  0  0  3  0  0  0  0  0  0
  -22.4270   -8.0290   21.3550 C   0  0  0  0  0  0  0  0  0  0  0  0
  -21.9910   -9.0260   20.4640 C   0  0  0  0  0  3  0  0  0  0  0  0
  -22.7240  -10.2140   20.3050 C   0  0  0  0  0  3  0  0  0  0  0  0
  -21.6630   -6.8890   21.4240 O   0  0  0  0  0  0  0  0  0  0  0  0
  -21.6850   -6.0740   22.5280 C   0  0  0  0  0  0  0  0  0  0  0  0
  -21.4020   -6.5650   23.8220 C   0  0  0  0  0  3  0  0  0  0  0  0
  -21.3660   -5.6800   24.9180 C   0  0  0  0  0  3  0  0  0  0  0  0
  -21.6050   -4.3060   24.7230 C   0  0  0  0  0  0  0  0  0  0  0  0
  -21.8810   -3.8150   23.4350 C   0  0  0  0  0  3  0  0  0  0  0  0
  -21.9190   -4.6970   22.3410 C   0  0  0  0  0  0  0  0  0  0  0  0
  -22.1660   -4.2160   21.0980 F   0  0  0  0  0  0  0  0  0  0  0  0
  -21.5630   -3.4540   25.7740 F   0  0  0  0  0  0  0  0  0  0  0  0
  -22.7880  -13.5250   21.1830 C   0  0  0  0  0  0  0  0  0  0  0  0
  -22.0500  -12.8250   22.0380 N   0  0  0  0  0  0  0  0  0  0  0  0
  -22.3570  -14.5560   20.6680 O   0  0  0  0  0  0  0  0  0  0  0  0
  -22.4100  -11.9900   22.4770 H   0  0  0  0  0  0  0  0  0  0  0  0
  -21.1120  -13.1300   22.2580 H   0  0  0  0  0  0  0  0  0  0  0  0
  -25.4370  -15.1880   20.4090 N   0  0  0  0  0  0  0  0  0  0  0  0
  -24.6780  -15.8510   20.5230 H   0  0  0  0  0  0  0  0  0  0  0  0
  -26.3020  -15.6230   20.1120 H   0  0  0  0  0  0  0  0  0  0  0  0
  1  2  2  0
  2 52  1  0
  3  2  1  0
  3  8  2  0
  4  7  1  0
  4  5  1  1
  4  1  1  0
  6  7  1  0
  7  3  1  0
  9  4  1  0
 10  9  1  0
 11 13  1  0
 11 10  1  0
 12 23  2  0
 13 18  1  0
 14 22  1  0
 14 24  1  0
 15 21  1  0
 15 17  1  0
 16 22  1  0
 17 16  1  0
 18 17  2  0
 19 20  1  0
 19 13  2  0
 20 15  2  0
 21 14  1  0
 22 12  1  0
 24 26  2  0
 25 24  1  0
 27 25  1  0
 28 37  2  0
 28 33  1  0
 29 25  1  0
 29 33  1  0
 30 29  1  0
 31 32  1  0
 31 30  1  0
 32 28  1  0
 33 34  2  0
 34 35  1  0
 36 35  2  0
 37 36  1  0
 38 12  1  0
 38 43  1  0
 38 39  1  0
 39 42  1  1
 39 40  1  0
 41 39  1  0
 43 46  1  0
 44 48  1  0
 44 43  1  0
 45 44  2  0
 48 47  1  0
 50 48  1  0
 50 51  1  0
 50 49  1  0
 53 52  1  0
 54 53  1  0
 55 56  1  0
 55 54  1  0
 57 58  1  0
 57 56  1  0
 59 58  1  0
 60 59  1  0
 61 60  1  0
 62 61  1  0
 63 68  1  0
 64 65  1  0
 64 63  1  0
 66 65  1  0
 66 73  1  0
 66 67  1  0
 68 62  1  0
 68 67  1  0
 69 62  2  0
 70 71  2  0
 71 90  1  0
 72 71  1  0
 72 75  1  0
 73 70  1  0
 73 74  1  0
 74 72  2  0
 75 76  1  0
 76 77  2  0
 78 81  1  0
 78 77  1  0
 79 78  2  0
 80 79  1  0
 80 75  2  0
 81 82  1  0
 82 83  1  0
 83 84  2  0
 85 84  1  0
 85 89  1  0
 86 85  2  0
 87 82  2  0
 87 86  1  0
 88 87  1  0
 90 91  1  0
 91 94  1  0
 91 93  1  0
 92 90  2  0
 95 96  1  0
 95 70  1  0
 97 95  1  0
M  ISO  4  10 101  11 101  61 100  62 100
M  END
>  <TORSDO>  (18) 
F 28

>  <SCORE>  (18) 
13.431

>  <name>  (18) 
17

>  <ligand_id>  (18) 
17

>  <original_smiles>  (18) 
[H]C1=C(C([H])([H])C([H])([H])C([H])([H])C([H])([H])C([H])([H])C([H])([H])C([H])([H])C([H])([H])C([H])([H])C([H])([H])C(=O)N2C([H])([H])C([H])([H])C([H])([H])C([H])(n3nc(-c4c([H])c([H])c(Oc5c([H])c([H])c(F)c([H])c5F)c([H])c4[H])c(C(=O)N([H])[H])c3N([H])[H])C2([H])[H])C(=O)N(C([H])([H])[H])C1(C([H])([H])[H])C([H])([H])C([H])([H])Oc1c([H])c([H])c2c(c1[H])C([H])([H])N(C(=O)C([H])(N([H])C(=O)C([H])(N([H])C([H])([H])[H])C([H])([H])[H])C(C([H])([H])[H])(C([H])([H])[H])C([H])([H])[H])C([H])(C(=O)N([H])C1([H])c3c([H])c([H])c([H])c([H])c3C([H])([H])C([H])([H])C1([H])[H])C2([H])[H]

>  <smiles>  (18) 
[H]C1=C(C([H])([H])C([H])([H])C([H])([H])C([H])([H])C([H])([H])C([H])([H])C([H])([H])C([H])([H])C([H])([H])C([H])([H])C(=O)N2C([H])([H])C([H])([H])C([H])([H])C([H])(n3nc(-c4c([H])c([H])c(Oc5c([H])c([H])c(F)c([H])c5F)c([H])c4[H])c(C(=O)N([H])[H])c3N([H])[H])C2([H])[H])C(=O)N(C([H])([H])[H])C1(C([H])([H])[H])C([H])([H])C([H])([H])Oc1c([H])c([H])c2c(c1[H])C([H])([H])N(C(=O)C([H])(N([H])C(=O)C([H])(N([H])C([H])([H])[H])C([H])([H])[H])C(C([H])([H])[H])(C([H])([H])[H])C([H])([H])[H])C([H])(C(=O)N([H])C1([H])c3c([H])c([H])c([H])c([H])c3C([H])([H])C([H])([H])C1([H])[H])C2([H])[H]

$$$$
18:0:0
     RDKit          3D

 98106  0  0  1  0  0  0  0  0999 V2000
  -30.7490  -25.6150   22.9250 C   0  0  0  0  0  3  0  0  0  0  0  0
  -31.1260  -25.6950   21.5720 C   0  0  0  0  0  3  0  0  0  0  0  0
  -29.3480  -27.5820   22.6410 C   0  0  0  0  0  3  0  0  0  0  0  0
  -29.8640  -26.5640   23.4750 C   0  0  0  0  0  0  0  0  0  0  0  0
  -30.6030  -26.7020   20.7350 C   0  0  0  0  0  0  0  0  0  0  0  0
  -29.7140  -27.6730   21.2820 C   0  0  0  0  0  0  0  0  0  0  0  0
  -29.4940  -26.4710   24.9150 C   0  0  0  0  0  0  0  0  0  0  0  0
  -29.3100  -25.3910   25.4910 O   0  0  0  0  0  0  0  0  0  0  0  0
  -29.3880  -27.7880   25.6950 C   0  0  0  0  0  2  0  0  0  0  0  0
  -30.4880  -27.9070   26.5890 O   0  0  0  0  0  0  0  0  0  0  0  0
  -27.2890  -30.9990   32.1360 C   0  0  0  0  0  0  0  0  0  0  0  0
  -30.4140  -28.9830   27.4280 C   0  0  0  0  0  0  0  0  0  0  0  0
  -28.9400  -32.3890   30.9210 C   0  0  0  0  0  3  0  0  0  0  0  0
  -30.3700  -31.1630   29.2050 C   0  0  0  0  0  0  0  0  0  0  0  0
  -29.1400  -29.8410   30.9420 C   0  0  0  0  0  2  0  0  0  0  0  0
  -29.7860  -29.9450   29.5760 C   0  0  0  0  0  0  0  0  0  0  0  0
  -29.8090  -28.8480   28.6920 C   0  0  0  0  0  3  0  0  0  0  0  0
  -30.9870  -30.2120   27.0510 C   0  0  0  0  0  3  0  0  0  0  0  0
  -30.9680  -31.3060   27.9390 C   0  0  0  0  0  3  0  0  0  0  0  0
  -30.3210  -32.2790   30.2210 C   0  0  0  0  0  2  0  0  0  0  0  0
  -28.3970  -31.0570   31.3440 N   0  0  0  0  0  0  0  0  0  0  0  0
  -26.7450  -32.0300   32.5490 O   0  0  0  0  0  0  0  0  0  0  0  0
  -27.9810  -33.1720   29.9950 C   0  0  0  0  0  0  0  0  0  0  0  0
  -27.4150  -34.2720   30.5140 N   0  0  0  0  0  0  0  0  0  0  0  0
  -27.7850  -32.8050   28.8330 O   0  0  0  0  0  0  0  0  0  0  0  0
  -27.6210  -34.5000   31.4750 H   0  0  0  0  0  0  0  0  0  0  0  0
  -24.9940  -36.9070   31.0050 C   0  0  0  0  0  0  0  0  0  0  0  0
  -26.5130  -35.1870   29.8160 C   0  0  0  0  0  3  0  0  0  0  0  0
  -27.2800  -36.4040   29.2540 C   0  0  0  0  0  2  0  0  0  0  0  0
  -27.2920  -37.6040   30.2080 C   0  0  0  0  0  2  0  0  0  0  0  0
  -25.8630  -38.0550   30.5210 C   0  0  0  0  0  2  0  0  0  0  0  0
  -25.3070  -35.5590   30.6860 C   0  0  0  0  0  0  0  0  0  0  0  0
  -24.4860  -34.5270   31.1890 C   0  0  0  0  0  3  0  0  0  0  0  0
  -23.3700  -34.8230   31.9930 C   0  0  0  0  0  3  0  0  0  0  0  0
  -23.0540  -36.1590   32.2910 C   0  0  0  0  0  3  0  0  0  0  0  0
  -23.8620  -37.1970   31.7940 C   0  0  0  0  0  3  0  0  0  0  0  0
  -26.6700  -29.6360   32.5790 C   0  0  0  0  0  3  0  0  0  0  0  0
  -25.8790  -28.9080   31.4230 C   0  0  1  0  0  0  0  0  0  0  0  0
  -24.9200  -29.8390   30.6460 C   0  0  0  0  0  1  0  0  0  0  0  0
  -26.8560  -28.2760   30.4040 C   0  0  0  0  0  1  0  0  0  0  0  0
  -25.0410  -27.7480   32.0130 C   0  0  0  0  0  1  0  0  0  0  0  0
  -25.7900  -29.9020   33.7230 N   0  0  0  0  0  0  0  0  0  0  0  0
  -26.1950  -29.9490   34.9980 C   0  0  0  0  0  0  0  0  0  0  0  0
  -27.3550  -29.7000   35.3420 O   0  0  0  0  0  0  0  0  0  0  0  0
  -24.8420  -30.1740   33.5080 H   0  0  0  0  0  0  0  0  0  0  0  0
  -25.2110  -31.8500   36.3160 C   0  0  0  0  0  1  0  0  0  0  0  0
  -25.1510  -30.3350   36.0620 C   0  0  0  0  0  3  0  0  0  0  0  0
  -25.0190  -28.1810   37.2340 C   0  0  0  0  0  1  0  0  0  0  0  0
  -25.3160  -29.6070   37.3400 N   0  0  0  0  0  0  0  0  0  0  0  0
  -24.7190  -30.0040   38.0610 H   0  0  0  0  0  0  0  0  0  0  0  0
  -31.0800  -26.7020   19.3280 C   0  0  0  0  0  0  0  0  0  0  0  0
  -32.1370  -26.1660   18.9830 O   0  0  0  0  0  0  0  0  0  0  0  0
  -30.1150  -27.2810   18.2850 C   0  0  0  0  0  2  0  0  0  0  0  0
  -30.6860  -28.3940   17.3810 C   0  0  0  0  0  2  0  0  0  0  0  0
  -30.5900  -29.8080   17.9810 C   0  0  0  0  0  2  0  0  0  0  0  0
  -31.8540  -30.2880   18.7160 C   0  0  0  0  0  2  0  0  0  0  0  0
  -31.5110  -31.3140   19.7990 C   0  0  0  0  0  2  0  0  0  0  0  0
  -32.5230  -32.4660   19.9010 C   0  0  0  0  0  2  0  0  0  0  0  0
  -32.1990  -33.3550   21.1130 C   0  0  0  0  0  2  0  0  0  0  0  0
  -31.9000  -34.8310   20.8080 C   0  0  0  0  0  0  0  0  0  0  0  0
  -31.0640  -37.0060   21.6450 C   0  0  0  0  0  2  0  0  0  0  0  0
  -32.1880  -37.8990   22.1990 C   0  0  0  0  0  2  0  0  0  0  0  0
  -32.4940  -37.5580   23.6700 C   0  0  0  0  0  2  0  0  0  0  0  0
  -32.6990  -36.0360   23.8920 C   0  0  0  0  0  3  0  0  0  0  0  0
  -31.5400  -35.2400   23.2570 C   0  0  0  0  0  2  0  0  0  0  0  0
  -31.4580  -35.6040   21.8300 N   0  0  0  0  0  0  0  0  0  0  0  0
  -32.0290  -35.2570   19.6530 O   0  0  0  0  0  0  0  0  0  0  0  0
  -33.5200  -34.6560   25.9080 C   0  0  0  0  0  0  0  0  0  0  0  0
  -33.4270  -34.8680   27.2580 C   0  0  0  0  0  0  0  0  0  0  0  0
  -32.6960  -36.0850   27.4160 C   0  0  0  0  0  0  0  0  0  0  0  0
  -32.8570  -35.7170   25.3090 N   0  0  0  0  0  0  0  0  0  0  0  0
  -32.3170  -36.5520   26.2330 N   0  0  0  0  0  0  0  0  0  0  0  0
  -32.3860  -36.8650   28.6210 C   0  0  0  0  0  0  0  0  0  0  0  0
  -31.0720  -36.9400   29.1330 C   0  0  0  0  0  3  0  0  0  0  0  0
  -30.8010  -37.6820   30.3020 C   0  0  0  0  0  3  0  0  0  0  0  0
  -31.8500  -38.3550   30.9740 C   0  0  0  0  0  0  0  0  0  0  0  0
  -33.1520  -38.2960   30.4470 C   0  0  0  0  0  3  0  0  0  0  0  0
  -33.4180  -37.5610   29.2790 C   0  0  0  0  0  3  0  0  0  0  0  0
  -31.6760  -39.1210   32.1010 O   0  0  0  0  0  0  0  0  0  0  0  0
  -30.9670  -38.6620   33.1810 C   0  0  0  0  0  0  0  0  0  0  0  0
  -31.1170  -37.3440   33.6670 C   0  0  0  0  0  3  0  0  0  0  0  0
  -30.4210  -36.9360   34.8210 C   0  0  0  0  0  3  0  0  0  0  0  0
  -29.5830  -37.8430   35.4970 C   0  0  0  0  0  0  0  0  0  0  0  0
  -29.4360  -39.1570   35.0190 C   0  0  0  0  0  3  0  0  0  0  0  0
  -30.1290  -39.5650   33.8660 C   0  0  0  0  0  0  0  0  0  0  0  0
  -30.0010  -40.8380   33.4220 F   0  0  0  0  0  0  0  0  0  0  0  0
  -28.9200  -37.4530   36.6110 F   0  0  0  0  0  0  0  0  0  0  0  0
  -34.0600  -34.0420   28.3400 C   0  0  0  0  0  0  0  0  0  0  0  0
  -33.4780  -34.0450   29.5340 N   0  0  0  0  0  0  0  0  0  0  0  0
  -35.0520  -33.3480   28.1180 O   0  0  0  0  0  0  0  0  0  0  0  0
  -32.6520  -34.5970   29.7110 H   0  0  0  0  0  0  0  0  0  0  0  0
  -33.8650  -33.4880   30.2830 H   0  0  0  0  0  0  0  0  0  0  0  0
  -34.1270  -33.6650   25.1430 N   0  0  0  0  0  0  0  0  0  0  0  0
  -34.6600  -32.9090   25.5600 H   0  0  0  0  0  0  0  0  0  0  0  0
  -34.1430  -33.6480   24.1310 H   0  0  0  0  0  0  0  0  0  0  0  0
  -29.1520  -28.8450   20.4830 C   0  0  0  0  0  2  0  0  0  0  0  0
  -27.1570  -29.7110   19.1500 C   0  0  0  0  0  1  0  0  0  0  0  0
  -27.6520  -28.6900   20.1820 C   0  0  0  0  0  2  0  0  0  0  0  0
  1  4  1  0
  2  1  2  0
  3  4  2  0
  4  7  1  0
  5  6  2  0
  5  2  1  0
  6  3  1  0
  7  8  2  0
  7  9  1  0
  9 10  1  0
 10 12  1  0
 11 22  2  0
 12 17  1  0
 13 23  1  0
 13 21  1  0
 14 16  1  0
 14 20  1  0
 15 21  1  0
 16 15  1  0
 17 16  2  0
 18 12  2  0
 18 19  1  0
 19 14  2  0
 20 13  1  0
 21 11  1  0
 23 24  1  0
 24 26  1  0
 25 23  2  0
 27 36  1  0
 28 24  1  0
 28 32  1  0
 29 28  1  0
 29 30  1  0
 30 31  1  0
 31 27  1  0
 32 27  2  0
 32 33  1  0
 33 34  2  0
 34 35  1  0
 36 35  2  0
 37 11  1  0
 37 42  1  0
 38 41  1  1
 38 37  1  0
 39 38  1  0
 40 38  1  0
 42 43  1  0
 43 44  2  0
 43 47  1  0
 45 42  1  0
 47 46  1  0
 47 49  1  0
 48 49  1  0
 49 50  1  0
 51  5  1  0
 52 51  2  0
 53 51  1  0
 54 55  1  0
 54 53  1  0
 55 56  1  0
 56 57  1  0
 57 58  1  0
 58 59  1  0
 60 59  1  0
 60 66  1  0
 61 66  1  0
 61 62  1  0
 62 63  1  0
 63 64  1  0
 64 65  1  0
 64 71  1  0
 66 65  1  0
 67 60  2  0
 68 69  2  0
 69 70  1  0
 69 88  1  0
 70 73  1  0
 71 68  1  0
 71 72  1  0
 72 70  2  0
 73 74  2  0
 73 78  1  0
 74 75  1  0
 75 76  2  0
 76 79  1  0
 77 76  1  0
 78 77  2  0
 79 80  1  0
 80 81  2  0
 80 85  1  0
 81 82  1  0
 82 83  2  0
 83 87  1  0
 84 83  1  0
 85 84  2  0
 86 85  1  0
 88 89  1  0
 89 91  1  0
 89 92  1  0
 90 88  2  0
 93 94  1  0
 93 68  1  0
 95 93  1  0
 96  6  1  0
 97 98  1  0
 98 96  1  0
M  ISO  4   9 101  10 101  59 100  60 100
M  END
>  <TORSDO>  (19) 
F 28

>  <SCORE>  (19) 
17.470

>  <name>  (19) 
18

>  <ligand_id>  (19) 
18

>  <original_smiles>  (19) 
[H]c1c([H])c([H])c2c(c1[H])C([H])([H])C([H])([H])C([H])([H])C2([H])N([H])C(=O)C1([H])N(C(=O)C([H])(N([H])C(=O)C([H])(N([H])C([H])([H])[H])C([H])([H])[H])C(C([H])([H])[H])(C([H])([H])[H])C([H])([H])[H])C([H])([H])c2c([H])c(OC([H])([H])C(=O)c3c([H])c([H])c(C(=O)C([H])([H])C([H])([H])C([H])([H])C([H])([H])C([H])([H])C([H])([H])C([H])([H])C(=O)N4C([H])([H])C([H])([H])C([H])([H])C([H])(n5nc(-c6c([H])c([H])c(Oc7c([H])c([H])c(F)c([H])c7F)c([H])c6[H])c(C(=O)N([H])[H])c5N([H])[H])C4([H])[H])c(C([H])([H])C([H])([H])C([H])([H])[H])c3[H])c([H])c([H])c2C1([H])[H]

>  <smiles>  (19) 
[H]c1c([H])c([H])c2c(c1[H])C([H])([H])C([H])([H])C([H])([H])C2([H])N([H])C(=O)C1([H])N(C(=O)C([H])(N([H])C(=O)C([H])(N([H])C([H])([H])[H])C([H])([H])[H])C(C([H])([H])[H])(C([H])([H])[H])C([H])([H])[H])C([H])([H])c2c([H])c(OC([H])([H])C(=O)c3c([H])c([H])c(C(=O)C([H])([H])C([H])([H])C([H])([H])C([H])([H])C([H])([H])C([H])([H])C([H])([H])C(=O)N4C([H])([H])C([H])([H])C([H])([H])C([H])(n5nc(-c6c([H])c([H])c(Oc7c([H])c([H])c(F)c([H])c7F)c([H])c6[H])c(C(=O)N([H])[H])c5N([H])[H])C4([H])[H])c(C([H])([H])C([H])([H])C([H])([H])[H])c3[H])c([H])c([H])c2C1([H])[H]

$$$$
19:0:0
     RDKit          3D

100108  0  0  1  0  0  0  0  0999 V2000
  -32.4230  -24.7220   13.9620 C   0  0  0  0  0  2  0  0  0  0  0  0
  -32.9560  -25.5490   15.1420 C   0  0  0  0  0  2  0  0  0  0  0  0
  -32.7220  -27.0570   14.9320 C   0  0  0  0  0  2  0  0  0  0  0  0
  -32.9880  -27.9100   16.1880 C   0  0  0  0  0  2  0  0  0  0  0  0
  -31.7170  -28.3560   16.9320 C   0  0  0  0  0  2  0  0  0  0  0  0
  -30.9500  -27.2170   17.4760 N   0  0  0  0  0  4  0  0  0  0  0  0
  -31.5900  -26.6050   17.9580 H   0  0  0  0  0  0  0  0  0  0  0  0
  -30.5450  -26.7030   16.7090 H   0  0  0  0  0  0  0  0  0  0  0  0
  -29.8830  -27.6150   18.4230 C   0  0  0  0  0  2  0  0  0  0  0  0
  -29.0690  -26.4080   18.9210 C   0  0  0  0  0  2  0  0  0  0  0  0
  -28.4900  -26.7330   20.1790 O   0  0  0  0  0  0  0  0  0  0  0  0
  -24.6670  -31.8620   23.2290 C   0  0  0  0  0  0  0  0  0  0  0  0
  -27.3180  -27.4450   20.1510 C   0  0  0  0  0  0  0  0  0  0  0  0
  -23.4580  -30.4510   21.5930 C   0  0  0  0  0  3  0  0  0  0  0  0
  -24.9110  -28.9100   20.1720 C   0  0  0  0  0  0  0  0  0  0  0  0
  -25.9780  -30.8210   21.3870 C   0  0  0  0  0  2  0  0  0  0  0  0
  -26.0650  -29.4470   20.7580 C   0  0  0  0  0  0  0  0  0  0  0  0
  -27.2680  -28.7130   20.7600 C   0  0  0  0  0  3  0  0  0  0  0  0
  -26.1500  -26.9030   19.5740 C   0  0  0  0  0  3  0  0  0  0  0  0
  -24.9440  -27.6330   19.5840 C   0  0  0  0  0  3  0  0  0  0  0  0
  -23.6650  -29.7660   20.2150 C   0  0  0  0  0  2  0  0  0  0  0  0
  -24.7190  -31.0580   22.1290 N   0  0  0  0  0  0  0  0  0  0  0  0
  -23.5880  -32.1350   23.7710 O   0  0  0  0  0  0  0  0  0  0  0  0
  -22.8130  -29.4330   22.5590 C   0  0  0  0  0  0  0  0  0  0  0  0
  -21.4880  -29.2550   22.4410 N   0  0  0  0  0  0  0  0  0  0  0  0
  -23.5010  -28.8050   23.3690 O   0  0  0  0  0  0  0  0  0  0  0  0
  -20.9940  -29.8150   21.7590 H   0  0  0  0  0  0  0  0  0  0  0  0
  -18.1120  -28.0750   22.9620 C   0  0  0  0  0  0  0  0  0  0  0  0
  -20.6730  -28.3230   23.2190 C   0  0  0  0  0  3  0  0  0  0  0  0
  -20.7660  -26.8900   22.6480 C   0  0  0  0  0  2  0  0  0  0  0  0
  -19.6580  -26.5680   21.6400 C   0  0  0  0  0  2  0  0  0  0  0  0
  -18.2810  -26.7220   22.2900 C   0  0  0  0  0  2  0  0  0  0  0  0
  -19.2370  -28.8330   23.3840 C   0  0  0  0  0  0  0  0  0  0  0  0
  -19.0270  -30.1010   23.9710 C   0  0  0  0  0  3  0  0  0  0  0  0
  -17.7260  -30.6100   24.1410 C   0  0  0  0  0  3  0  0  0  0  0  0
  -16.6150  -29.8490   23.7340 C   0  0  0  0  0  3  0  0  0  0  0  0
  -16.8100  -28.5830   23.1510 C   0  0  0  0  0  3  0  0  0  0  0  0
  -25.9550  -32.4960   23.8410 C   0  0  0  0  0  3  0  0  0  0  0  0
  -25.6420  -33.8910   24.1800 N   0  0  0  0  0  0  0  0  0  0  0  0
  -25.9680  -34.9480   23.4250 C   0  0  0  0  0  0  0  0  0  0  0  0
  -26.6330  -34.8520   22.3890 O   0  0  0  0  0  0  0  0  0  0  0  0
  -25.0480  -34.0380   24.9840 H   0  0  0  0  0  0  0  0  0  0  0  0
  -24.2260  -36.7310   23.0880 C   0  0  0  0  0  1  0  0  0  0  0  0
  -25.4750  -36.3310   23.8900 C   0  0  0  0  0  3  0  0  0  0  0  0
  -27.6150  -37.2200   24.7030 C   0  0  0  0  0  1  0  0  0  0  0  0
  -26.5000  -37.3910   23.7750 N   0  0  0  0  0  0  0  0  0  0  0  0
  -26.0920  -38.3070   23.9380 H   0  0  0  0  0  0  0  0  0  0  0  0
  -26.4920  -31.7190   25.1050 C   0  0  1  0  0  0  0  0  0  0  0  0
  -25.4140  -31.4670   26.1830 C   0  0  0  0  0  1  0  0  0  0  0  0
  -27.0770  -30.3470   24.6930 C   0  0  0  0  0  1  0  0  0  0  0  0
  -27.6490  -32.5120   25.7570 C   0  0  0  0  0  1  0  0  0  0  0  0
  -32.9210  -23.2690   13.9260 C   0  0  0  0  0  2  0  0  0  0  0  0
  -32.5100  -22.4040   15.1300 C   0  0  0  0  0  2  0  0  0  0  0  0
  -32.8620  -20.9280   14.8870 C   0  0  0  0  0  2  0  0  0  0  0  0
  -32.6910  -20.0240   16.1180 C   0  0  0  0  0  2  0  0  0  0  0  0
  -32.9720  -18.5540   15.7640 C   0  0  0  0  0  2  0  0  0  0  0  0
  -33.1440  -17.6300   16.9810 C   0  0  0  0  0  2  0  0  0  0  0  0
  -33.3330  -16.1640   16.5410 C   0  0  0  0  0  2  0  0  0  0  0  0
  -35.7300  -14.3200   17.0980 C   0  0  0  0  0  2  0  0  0  0  0  0
  -35.3050  -15.3830   18.1130 C   0  0  0  0  0  2  0  0  0  0  0  0
  -34.2920  -13.8030   17.1600 C   0  0  0  0  0  2  0  0  0  0  0  0
  -33.8500  -15.2090   17.6290 C   0  0  2  0  0  0  0  0  0  0  0  0
  -31.9340  -14.2240   18.9920 C   0  0  0  0  0  3  0  0  0  0  0  0
  -32.8840  -15.1640   18.8040 C   0  0  0  0  0  3  0  0  0  0  0  0
  -31.0660  -14.2340   20.1820 C   0  0  0  0  0  0  0  0  0  0  0  0
  -30.2340  -12.0840   19.4010 C   0  0  0  0  0  2  0  0  0  0  0  0
  -29.3850  -12.4200   18.1700 C   0  0  0  0  0  2  0  0  0  0  0  0
  -27.9230  -12.4630   18.6170 C   0  0  0  0  0  2  0  0  0  0  0  0
  -27.6660  -13.3360   19.8810 C   0  0  0  0  0  3  0  0  0  0  0  0
  -28.8030  -13.2260   20.9600 C   0  0  0  0  0  2  0  0  0  0  0  0
  -30.1300  -13.2380   20.2800 N   0  0  0  0  0  0  0  0  0  0  0  0
  -31.2380  -15.1260   20.9700 O   0  0  0  0  0  0  0  0  0  0  0  0
  -25.2450  -13.9510   20.5560 C   0  0  0  0  0  0  0  0  0  0  0  0
  -24.1600  -13.1870   20.9020 C   0  0  0  0  0  0  0  0  0  0  0  0
  -24.6150  -11.8330   20.9010 C   0  0  0  0  0  0  0  0  0  0  0  0
  -26.3050  -13.0720   20.3820 N   0  0  0  0  0  0  0  0  0  0  0  0
  -25.9190  -11.7910   20.6440 N   0  0  0  0  0  0  0  0  0  0  0  0
  -23.8710  -10.5750   21.0800 C   0  0  0  0  0  0  0  0  0  0  0  0
  -24.2890   -9.5970   22.0090 C   0  0  0  0  0  3  0  0  0  0  0  0
  -23.5470   -8.4080   22.1840 C   0  0  0  0  0  3  0  0  0  0  0  0
  -22.3710   -8.1850   21.4300 C   0  0  0  0  0  0  0  0  0  0  0  0
  -21.9700   -9.1510   20.4890 C   0  0  0  0  0  3  0  0  0  0  0  0
  -22.7130  -10.3320   20.3120 C   0  0  0  0  0  3  0  0  0  0  0  0
  -21.6030   -7.0480   21.5150 O   0  0  0  0  0  0  0  0  0  0  0  0
  -21.5670   -6.2860   22.6570 C   0  0  0  0  0  0  0  0  0  0  0  0
  -21.1980   -6.8320   23.9050 C   0  0  0  0  0  3  0  0  0  0  0  0
  -21.1070   -6.0000   25.0380 C   0  0  0  0  0  3  0  0  0  0  0  0
  -21.3750   -4.6230   24.9260 C   0  0  0  0  0  0  0  0  0  0  0  0
  -21.7380   -4.0760   23.6820 C   0  0  0  0  0  3  0  0  0  0  0  0
  -21.8310   -4.9050   22.5510 C   0  0  0  0  0  0  0  0  0  0  0  0
  -22.1590   -4.3690   21.3510 F   0  0  0  0  0  0  0  0  0  0  0  0
  -21.2810   -3.8210   26.0130 F   0  0  0  0  0  0  0  0  0  0  0  0
  -22.7550  -13.6720   21.1290 C   0  0  0  0  0  0  0  0  0  0  0  0
  -22.0000  -12.9910   21.9850 N   0  0  0  0  0  0  0  0  0  0  0  0
  -22.3330  -14.6920   20.5850 O   0  0  0  0  0  0  0  0  0  0  0  0
  -22.3520  -12.1670   22.4500 H   0  0  0  0  0  0  0  0  0  0  0  0
  -21.0570  -13.2980   22.1790 H   0  0  0  0  0  0  0  0  0  0  0  0
  -25.4140  -15.3170   20.3560 N   0  0  0  0  0  0  0  0  0  0  0  0
  -24.6460  -15.9760   20.4240 H   0  0  0  0  0  0  0  0  0  0  0  0
  -26.2880  -15.7510   20.0810 H   0  0  0  0  0  0  0  0  0  0  0  0
  1  2  1  0
  3  2  1  0
  3  4  1  0
  4  5  1  0
  5  6  1  0
  6  7  1  0
  6  9  1  0
  8  6  1  0
  9 10  1  0
 10 11  1  0
 12 23  2  0
 13 11  1  0
 13 18  1  0
 14 22  1  0
 14 24  1  0
 15 21  1  0
 15 17  1  0
 16 22  1  0
 17 18  2  0
 17 16  1  0
 19 20  1  0
 19 13  2  0
 20 15  2  0
 21 14  1  0
 22 12  1  0
 24 26  2  0
 25 24  1  0
 27 25  1  0
 28 37  2  0
 28 33  1  0
 29 25  1  0
 29 33  1  0
 30 29  1  0
 31 32  1  0
 31 30  1  0
 32 28  1  0
 33 34  2  0
 34 35  1  0
 36 35  2  0
 37 36  1  0
 38 12  1  0
 38 39  1  0
 38 48  1  0
 39 42  1  0
 40 44  1  0
 40 39  1  0
 41 40  2  0
 44 43  1  0
 46 44  1  0
 46 47  1  0
 46 45  1  0
 48 51  1  1
 48 49  1  0
 50 48  1  0
 52  1  1  0
 52 53  1  0
 54 53  1  0
 54 55  1  0
 56 55  1  0
 56 57  1  0
 58 57  1  0
 62 58  1  6
 59 61  1  0
 59 60  1  0
 61 62  1  0
 62 60  1  0
 62 64  1  0
 63 65  1  0
 64 63  2  0
 65 71  1  0
 65 72  2  0
 66 71  1  0
 67 68  1  0
 67 66  1  0
 69 68  1  0
 69 76  1  0
 69 70  1  0
 71 70  1  0
 73 74  2  0
 74 93  1  0
 75 74  1  0
 75 78  1  0
 76 73  1  0
 76 77  1  0
 77 75  2  0
 78 79  1  0
 79 80  2  0
 81 84  1  0
 81 80  1  0
 82 81  2  0
 83 82  1  0
 83 78  2  0
 84 85  1  0
 85 86  1  0
 86 87  2  0
 88 87  1  0
 88 92  1  0
 89 88  2  0
 90 85  2  0
 90 89  1  0
 91 90  1  0
 93 94  1  0
 94 97  1  0
 94 96  1  0
 95 93  2  0
 98 99  1  0
 98 73  1  0
100 98  1  0
M  ISO  4  10 101  11 101  63 100  65 100
M  END
>  <TORSDO>  (20) 
F 32

>  <SCORE>  (20) 
-10.137

>  <name>  (20) 
19

>  <ligand_id>  (20) 
19

>  <original_smiles>  (20) 
[H]C(C(=O)N1C([H])([H])C([H])([H])C([H])([H])C([H])(n2nc(-c3c([H])c([H])c(Oc4c([H])c([H])c(F)c([H])c4F)c([H])c3[H])c(C(=O)N([H])[H])c2N([H])[H])C1([H])[H])=C([H])C1(C([H])([H])C([H])([H])C([H])([H])C([H])([H])C([H])([H])C([H])([H])C([H])([H])C([H])([H])C([H])([H])C([H])([H])C([H])([H])C([H])([H])[N+]([H])([H])C([H])([H])C([H])([H])Oc2c([H])c([H])c3c(c2[H])C([H])([H])N(C(=O)C([H])(N([H])C(=O)C([H])(N([H])C([H])([H])[H])C([H])([H])[H])C(C([H])([H])[H])(C([H])([H])[H])C([H])([H])[H])C([H])(C(=O)N([H])C2([H])c4c([H])c([H])c([H])c([H])c4C([H])([H])C([H])([H])C2([H])[H])C3([H])[H])C([H])([H])C([H])([H])C1([H])[H]

>  <smiles>  (20) 
[H]C(C(=O)N1C([H])([H])C([H])([H])C([H])([H])C([H])(n2nc(-c3c([H])c([H])c(Oc4c([H])c([H])c(F)c([H])c4F)c([H])c3[H])c(C(=O)N([H])[H])c2N([H])[H])C1([H])[H])=C([H])C1(C([H])([H])C([H])([H])C([H])([H])C([H])([H])C([H])([H])C([H])([H])C([H])([H])C([H])([H])C([H])([H])C([H])([H])C([H])([H])C([H])([H])[N+]([H])([H])C([H])([H])C([H])([H])Oc2c([H])c([H])c3c(c2[H])C([H])([H])N(C(=O)C([H])(N([H])C(=O)C([H])(N([H])C([H])([H])[H])C([H])([H])[H])C(C([H])([H])[H])(C([H])([H])[H])C([H])([H])[H])C([H])(C(=O)N([H])C2([H])c4c([H])c([H])c([H])c([H])c4C([H])([H])C([H])([H])C2([H])[H])C3([H])[H])C([H])([H])C([H])([H])C1([H])[H]

$$$$
20:0:0
     RDKit          3D

 99108  0  0  1  0  0  0  0  0999 V2000
  -26.9030  -19.8200   16.7720 C   0  0  0  0  0  2  0  0  0  0  0  0
  -27.2950  -19.3010   18.1680 C   0  0  0  0  0  2  0  0  0  0  0  0
  -27.0130  -21.3430   16.8320 C   0  0  0  0  0  2  0  0  0  0  0  0
  -27.9120  -20.5060   18.9320 C   0  0  0  0  0  3  0  0  0  0  0  0
  -28.1470  -21.5630   17.8360 C   0  0  0  0  0  3  0  0  0  0  0  0
  -31.3660  -19.2360   20.0690 C   0  0  0  0  0  3  0  0  0  0  0  0
  -30.6260  -20.9330   21.6370 C   0  0  0  0  0  3  0  0  0  0  0  0
  -30.1670  -19.3650   19.3550 C   0  0  0  0  0  3  0  0  0  0  0  0
  -29.4010  -21.0360   20.9400 C   0  0  0  0  0  3  0  0  0  0  0  0
  -31.6330  -20.0460   21.1960 C   0  0  0  0  0  0  0  0  0  0  0  0
  -29.1720  -20.2710   19.7710 C   0  0  0  0  0  0  0  0  0  0  0  0
  -32.9600  -19.9920   21.8880 C   0  0  0  0  0  0  0  0  0  0  0  0
  -33.2150  -20.5840   22.9420 O   0  0  0  0  0  0  0  0  0  0  0  0
  -34.0680  -19.1840   21.2030 C   0  0  0  0  0  2  0  0  0  0  0  0
  -34.6580  -19.9180   19.9780 C   0  0  0  0  0  2  0  0  0  0  0  0
  -35.8610  -19.1750   19.3680 C   0  0  0  0  0  2  0  0  0  0  0  0
  -35.6290  -18.5550   17.9760 C   0  0  0  0  0  0  0  0  0  0  0  0
  -36.3500  -16.6600   16.5710 C   0  0  0  0  0  2  0  0  0  0  0  0
  -35.2340  -15.8560   15.8910 C   0  0  0  0  0  2  0  0  0  0  0  0
  -34.7200  -14.7570   16.8350 C   0  0  0  0  0  2  0  0  0  0  0  0
  -34.3320  -15.3220   18.2250 C   0  0  0  0  0  3  0  0  0  0  0  0
  -35.4610  -16.1990   18.8140 C   0  0  0  0  0  2  0  0  0  0  0  0
  -35.8390  -17.2250   17.8280 N   0  0  0  0  0  0  0  0  0  0  0  0
  -35.4980  -19.3210   17.0160 O   0  0  0  0  0  0  0  0  0  0  0  0
  -32.7760  -14.1000   19.8740 C   0  0  0  0  0  0  0  0  0  0  0  0
  -32.8820  -12.8860   20.5020 C   0  0  0  0  0  0  0  0  0  0  0  0
  -34.1410  -12.3430   20.0990 C   0  0  0  0  0  0  0  0  0  0  0  0
  -33.9450  -14.2520   19.1410 N   0  0  0  0  0  0  0  0  0  0  0  0
  -34.7890  -13.2040   19.3240 N   0  0  0  0  0  0  0  0  0  0  0  0
  -34.7460  -11.0340   20.3690 C   0  0  0  0  0  0  0  0  0  0  0  0
  -36.1270  -10.8990   20.6320 C   0  0  0  0  0  3  0  0  0  0  0  0
  -36.6810   -9.6280   20.9030 C   0  0  0  0  0  3  0  0  0  0  0  0
  -35.8530   -8.4810   20.9130 C   0  0  0  0  0  0  0  0  0  0  0  0
  -34.4830   -8.6210   20.6300 C   0  0  0  0  0  3  0  0  0  0  0  0
  -33.9320   -9.8840   20.3560 C   0  0  0  0  0  3  0  0  0  0  0  0
  -36.3080   -7.2030   21.1420 O   0  0  0  0  0  0  0  0  0  0  0  0
  -37.5170   -6.9630   21.7420 C   0  0  0  0  0  0  0  0  0  0  0  0
  -37.8450   -7.5150   23.0000 C   0  0  0  0  0  3  0  0  0  0  0  0
  -39.0740   -7.1940   23.6140 C   0  0  0  0  0  3  0  0  0  0  0  0
  -39.9660   -6.3100   22.9790 C   0  0  0  0  0  0  0  0  0  0  0  0
  -39.6370   -5.7510   21.7290 C   0  0  0  0  0  3  0  0  0  0  0  0
  -38.4150   -6.0760   21.1150 C   0  0  0  0  0  0  0  0  0  0  0  0
  -38.0970   -5.5220   19.9210 F   0  0  0  0  0  0  0  0  0  0  0  0
  -41.1440   -5.9920   23.5680 F   0  0  0  0  0  0  0  0  0  0  0  0
  -31.8290  -12.2250   21.3420 C   0  0  0  0  0  0  0  0  0  0  0  0
  -32.2410  -11.4160   22.3140 N   0  0  0  0  0  0  0  0  0  0  0  0
  -30.6330  -12.4540   21.1760 O   0  0  0  0  0  0  0  0  0  0  0  0
  -33.2240  -11.2500   22.4720 H   0  0  0  0  0  0  0  0  0  0  0  0
  -31.5660  -10.9710   22.9180 H   0  0  0  0  0  0  0  0  0  0  0  0
  -31.7800  -15.0690   19.8550 N   0  0  0  0  0  0  0  0  0  0  0  0
  -30.9020  -14.9490   20.3510 H   0  0  0  0  0  0  0  0  0  0  0  0
  -31.8240  -15.9250   19.3160 H   0  0  0  0  0  0  0  0  0  0  0  0
  -28.3170  -22.9570   18.3250 N   0  0  0  0  0  4  0  0  0  0  0  0
  -28.4080  -23.5500   17.5140 H   0  0  0  0  0  0  0  0  0  0  0  0
  -29.1990  -22.9910   18.8090 H   0  0  0  0  0  0  0  0  0  0  0  0
  -27.2440  -23.5060   19.1930 C   0  0  0  0  0  2  0  0  0  0  0  0
  -27.6520  -24.7830   19.9630 C   0  0  0  0  0  2  0  0  0  0  0  0
  -26.8240  -26.0230   19.5660 C   0  0  0  0  0  2  0  0  0  0  0  0
  -27.3040  -27.1880   20.2330 O   0  0  0  0  0  0  0  0  0  0  0  0
  -27.1240  -32.1100   25.3490 C   0  0  0  0  0  0  0  0  0  0  0  0
  -26.6420  -27.6280   21.3620 C   0  0  0  0  0  0  0  0  0  0  0  0
  -25.5540  -30.2180   25.6310 C   0  0  0  0  0  3  0  0  0  0  0  0
  -25.2990  -28.6750   23.6190 C   0  0  0  0  0  0  0  0  0  0  0  0
  -26.3230  -30.9350   23.3030 C   0  0  0  0  0  2  0  0  0  0  0  0
  -26.1580  -29.4910   22.8770 C   0  0  0  0  0  0  0  0  0  0  0  0
  -26.8410  -28.9670   21.7600 C   0  0  0  0  0  3  0  0  0  0  0  0
  -25.7720  -26.8150   22.1310 C   0  0  0  0  0  3  0  0  0  0  0  0
  -25.1060  -27.3330   23.2570 C   0  0  0  0  0  3  0  0  0  0  0  0
  -24.6080  -29.3090   24.8020 C   0  0  0  0  0  2  0  0  0  0  0  0
  -26.3850  -31.1210   24.7710 N   0  0  0  0  0  0  0  0  0  0  0  0
  -27.0840  -32.3110   26.5710 O   0  0  0  0  0  0  0  0  0  0  0  0
  -26.3960  -29.3260   26.5720 C   0  0  0  0  0  0  0  0  0  0  0  0
  -25.9140  -29.1550   27.8130 N   0  0  0  0  0  0  0  0  0  0  0  0
  -27.4320  -28.7850   26.1770 O   0  0  0  0  0  0  0  0  0  0  0  0
  -25.0580  -29.6370   28.0520 H   0  0  0  0  0  0  0  0  0  0  0  0
  -25.6580  -28.2640   31.3070 C   0  0  0  0  0  0  0  0  0  0  0  0
  -26.5050  -28.3290   28.8650 C   0  0  0  0  0  3  0  0  0  0  0  0
  -26.0120  -26.8660   28.7620 C   0  0  0  0  0  2  0  0  0  0  0  0
  -24.7850  -26.5810   29.6340 C   0  0  0  0  0  2  0  0  0  0  0  0
  -25.0900  -26.8690   31.1060 C   0  0  0  0  0  2  0  0  0  0  0  0
  -26.3060  -28.9550   30.2500 C   0  0  0  0  0  0  0  0  0  0  0  0
  -26.7860  -30.2620   30.4800 C   0  0  0  0  0  3  0  0  0  0  0  0
  -26.6300  -30.8760   31.7360 C   0  0  0  0  0  3  0  0  0  0  0  0
  -26.0000  -30.1830   32.7850 C   0  0  0  0  0  3  0  0  0  0  0  0
  -25.5220  -28.8770   32.5700 C   0  0  0  0  0  3  0  0  0  0  0  0
  -28.0350  -33.0530   24.5030 C   0  0  0  0  0  3  0  0  0  0  0  0
  -29.5690  -32.8950   24.8300 C   0  0  1  0  0  0  0  0  0  0  0  0
  -29.9110  -33.0750   26.3290 C   0  0  0  0  0  1  0  0  0  0  0  0
  -30.0760  -31.5020   24.3900 C   0  0  0  0  0  1  0  0  0  0  0  0
  -30.3860  -33.9370   24.0290 C   0  0  0  0  0  1  0  0  0  0  0  0
  -27.5890  -34.4320   24.7470 N   0  0  0  0  0  0  0  0  0  0  0  0
  -27.0190  -35.2200   23.8270 C   0  0  0  0  0  0  0  0  0  0  0  0
  -26.8770  -34.8820   22.6480 O   0  0  0  0  0  0  0  0  0  0  0  0
  -27.6230  -34.7530   25.7030 H   0  0  0  0  0  0  0  0  0  0  0  0
  -24.9930  -36.6440   24.2570 C   0  0  0  0  0  1  0  0  0  0  0  0
  -26.5290  -36.6050   24.2900 C   0  0  0  0  0  3  0  0  0  0  0  0
  -28.4990  -37.9470   23.7010 C   0  0  0  0  0  1  0  0  0  0  0  0
  -27.0720  -37.7200   23.4850 N   0  0  0  0  0  0  0  0  0  0  0  0
  -26.5780  -38.5860   23.6890 H   0  0  0  0  0  0  0  0  0  0  0  0
  1  3  1  0
  1  2  1  0
  2  4  1  0
  3  5  1  0
  4 11  1  0
  5 53  1  0
  5  4  1  0
  6 10  1  0
  8 11  1  0
  8  6  2  0
  9  7  1  0
 10  7  2  0
 10 12  1  0
 11  9  2  0
 12 13  2  0
 14 12  1  0
 15 14  1  0
 16 15  1  0
 17 16  1  0
 18 23  1  0
 19 18  1  0
 19 20  1  0
 21 20  1  0
 21 22  1  0
 21 28  1  0
 23 17  1  0
 23 22  1  0
 24 17  2  0
 25 26  2  0
 26 45  1  0
 27 30  1  0
 27 26  1  0
 28 29  1  0
 28 25  1  0
 29 27  2  0
 30 31  1  0
 31 32  2  0
 32 33  1  0
 33 36  1  0
 34 33  2  0
 35 30  2  0
 35 34  1  0
 36 37  1  0
 37 38  1  0
 38 39  2  0
 40 44  1  0
 40 39  1  0
 41 40  2  0
 42 41  1  0
 42 37  2  0
 43 42  1  0
 45 46  1  0
 46 48  1  0
 46 49  1  0
 47 45  2  0
 50 25  1  0
 50 51  1  0
 52 50  1  0
 53 55  1  0
 53 56  1  0
 54 53  1  0
 56 57  1  0
 58 57  1  0
 58 59  1  0
 59 61  1  0
 60 71  2  0
 61 66  2  0
 61 67  1  0
 62 72  1  0
 63 69  1  0
 64 70  1  0
 65 64  1  0
 65 63  2  0
 66 65  1  0
 67 68  2  0
 68 63  1  0
 69 62  1  0
 70 60  1  0
 70 62  1  0
 72 73  1  0
 73 75  1  0
 74 72  2  0
 76 85  1  0
 77 73  1  0
 77 81  1  0
 78 77  1  0
 78 79  1  0
 79 80  1  0
 80 76  1  0
 81 82  1  0
 81 76  2  0
 82 83  2  0
 83 84  1  0
 85 84  2  0
 86 91  1  0
 86 87  1  0
 86 60  1  0
 87 88  1  1
 89 87  1  0
 90 87  1  0
 91 94  1  0
 92 96  1  0
 92 91  1  0
 93 92  2  0
 96 95  1  0
 98 99  1  0
 98 97  1  0
 98 96  1  0
M  ISO  4  16 100  17 100  58 101  59 101
M  END
>  <TORSDO>  (21) 
F 25

>  <SCORE>  (21) 
-5.368

>  <name>  (21) 
20

>  <ligand_id>  (21) 
20

>  <original_smiles>  (21) 
[H]c1c([H])c([H])c2c(c1[H])C([H])([H])C([H])([H])C([H])([H])C2([H])N([H])C(=O)C1([H])N(C(=O)C([H])(N([H])C(=O)C([H])(N([H])C([H])([H])[H])C([H])([H])[H])C(C([H])([H])[H])(C([H])([H])[H])C([H])([H])[H])C([H])([H])c2c([H])c(OC([H])([H])C([H])([H])C([H])([H])[N+]([H])([H])C3([H])C([H])([H])C([H])([H])C([H])([H])C3([H])c3c([H])c([H])c(C(=O)C([H])([H])C([H])([H])C([H])([H])C(=O)N4C([H])([H])C([H])([H])C([H])([H])C([H])(n5nc(-c6c([H])c([H])c(Oc7c([H])c([H])c(F)c([H])c7F)c([H])c6[H])c(C(=O)N([H])[H])c5N([H])[H])C4([H])[H])c([H])c3[H])c([H])c([H])c2C1([H])[H]

>  <smiles>  (21) 
[H]c1c([H])c([H])c2c(c1[H])C([H])([H])C([H])([H])C([H])([H])C2([H])N([H])C(=O)C1([H])N(C(=O)C([H])(N([H])C(=O)C([H])(N([H])C([H])([H])[H])C([H])([H])[H])C(C([H])([H])[H])(C([H])([H])[H])C([H])([H])[H])C([H])([H])c2c([H])c(OC([H])([H])C([H])([H])C([H])([H])[N+]([H])([H])C3([H])C([H])([H])C([H])([H])C([H])([H])C3([H])c3c([H])c([H])c(C(=O)C([H])([H])C([H])([H])C([H])([H])C(=O)N4C([H])([H])C([H])([H])C([H])([H])C([H])(n5nc(-c6c([H])c([H])c(Oc7c([H])c([H])c(F)c([H])c7F)c([H])c6[H])c(C(=O)N([H])[H])c5N([H])[H])C4([H])[H])c([H])c3[H])c([H])c([H])c2C1([H])[H]

$$$$
21:0:0
     RDKit          3D

102111  0  0  1  0  0  0  0  0999 V2000
  -22.3630  -25.6030   17.3110 C   0  0  0  0  0  3  0  0  0  0  0  0
  -24.5620  -24.7850   17.9780 C   0  0  0  0  0  3  0  0  0  0  0  0
  -22.9180  -26.1540   16.1400 C   0  0  0  0  0  3  0  0  0  0  0  0
  -25.1180  -25.3470   16.8170 C   0  0  0  0  0  3  0  0  0  0  0  0
  -23.1750  -24.8770   18.2100 C   0  0  0  0  0  0  0  0  0  0  0  0
  -24.2940  -26.0000   15.8790 C   0  0  0  0  0  0  0  0  0  0  0  0
  -22.5640  -24.1700   19.4110 C   0  0  0  0  0  2  0  0  0  0  0  0
  -24.0150  -25.8070   20.7630 C   0  0  0  0  0  3  0  0  0  0  0  0
  -24.9270  -25.5060   21.6900 C   0  0  0  0  0  0  0  0  0  0  0  0
  -24.4730  -24.3480   22.5410 C   0  0  0  0  0  3  0  0  0  0  0  0
  -23.1720  -23.8590   21.8860 C   0  0  0  0  0  3  0  0  0  0  0  0
  -22.8090  -24.8840   20.7740 C   0  0  2  0  0  0  0  0  0  0  0  0
  -21.6190  -25.6540   21.1800 N   0  0  0  0  0  4  0  0  0  0  0  0
  -21.7920  -26.1130   22.0560 H   0  0  0  0  0  0  0  0  0  0  0  0
  -20.8190  -25.0530   21.2850 H   0  0  0  0  0  0  0  0  0  0  0  0
  -21.4000  -26.3560   20.4950 H   0  0  0  0  0  0  0  0  0  0  0  0
  -26.2700  -26.2000   21.9090 C   0  0  0  0  0  2  0  0  0  0  0  0
  -26.3420  -27.6290   21.3430 C   0  0  0  0  0  2  0  0  0  0  0  0
  -27.7290  -28.3050   21.3700 C   0  0  0  0  0  2  0  0  0  0  0  0
  -27.6540  -29.6830   22.0660 C   0  0  0  0  0  2  0  0  0  0  0  0
  -26.3400  -30.4760   21.8710 C   0  0  0  0  0  2  0  0  0  0  0  0
  -25.5920  -30.7220   23.1980 C   0  0  0  0  0  0  0  0  0  0  0  0
  -25.5840  -31.5640   25.5320 C   0  0  0  0  0  2  0  0  0  0  0  0
  -25.1870  -33.0510   25.6130 C   0  0  0  0  0  2  0  0  0  0  0  0
  -26.4180  -33.9510   25.4090 C   0  0  0  0  0  2  0  0  0  0  0  0
  -27.2380  -33.5530   24.1560 C   0  0  0  0  0  3  0  0  0  0  0  0
  -27.5250  -32.0320   24.1420 C   0  0  0  0  0  2  0  0  0  0  0  0
  -26.2380  -31.3200   24.2370 N   0  0  0  0  0  0  0  0  0  0  0  0
  -24.4220  -30.3310   23.2830 O   0  0  0  0  0  0  0  0  0  0  0  0
  -28.8710  -35.1940   23.0410 C   0  0  0  0  0  0  0  0  0  0  0  0
  -30.0680  -35.7150   23.4440 C   0  0  0  0  0  0  0  0  0  0  0  0
  -30.3220  -35.1530   24.7320 C   0  0  0  0  0  0  0  0  0  0  0  0
  -28.4660  -34.3320   24.0450 N   0  0  0  0  0  0  0  0  0  0  0  0
  -29.3740  -34.2800   25.0500 N   0  0  0  0  0  0  0  0  0  0  0  0
  -31.3760  -35.4420   25.7080 C   0  0  0  0  0  0  0  0  0  0  0  0
  -32.6060  -34.7490   25.6890 C   0  0  0  0  0  3  0  0  0  0  0  0
  -33.6100  -35.0500   26.6320 C   0  0  0  0  0  3  0  0  0  0  0  0
  -33.3940  -36.0550   27.6030 C   0  0  0  0  0  0  0  0  0  0  0  0
  -32.1600  -36.7260   27.6330 C   0  0  0  0  0  3  0  0  0  0  0  0
  -31.1580  -36.4230   26.6980 C   0  0  0  0  0  3  0  0  0  0  0  0
  -34.3030  -36.3980   28.5730 O   0  0  0  0  0  0  0  0  0  0  0  0
  -35.4750  -37.0390   28.2640 C   0  0  0  0  0  0  0  0  0  0  0  0
  -35.4940  -38.3560   27.7560 C   0  0  0  0  0  3  0  0  0  0  0  0
  -36.7260  -38.9980   27.5150 C   0  0  0  0  0  3  0  0  0  0  0  0
  -37.9340  -38.3310   27.7890 C   0  0  0  0  0  0  0  0  0  0  0  0
  -37.9160  -37.0200   28.2980 C   0  0  0  0  0  3  0  0  0  0  0  0
  -36.6880  -36.3770   28.5350 C   0  0  0  0  0  0  0  0  0  0  0  0
  -36.6740  -35.1210   29.0410 F   0  0  0  0  0  0  0  0  0  0  0  0
  -39.1190  -38.9500   27.5700 F   0  0  0  0  0  0  0  0  0  0  0  0
  -30.8820  -36.7560   22.7280 C   0  0  0  0  0  0  0  0  0  0  0  0
  -32.1930  -36.7620   22.9360 N   0  0  0  0  0  0  0  0  0  0  0  0
  -30.3620  -37.5460   21.9390 O   0  0  0  0  0  0  0  0  0  0  0  0
  -32.6240  -36.1060   23.5700 H   0  0  0  0  0  0  0  0  0  0  0  0
  -32.7740  -37.4400   22.4650 H   0  0  0  0  0  0  0  0  0  0  0  0
  -28.0770  -35.4030   21.9220 N   0  0  0  0  0  0  0  0  0  0  0  0
  -28.3300  -36.0740   21.2080 H   0  0  0  0  0  0  0  0  0  0  0  0
  -27.2070  -34.9230   21.7330 H   0  0  0  0  0  0  0  0  0  0  0  0
  -24.9060  -26.5110   14.5930 C   0  0  0  0  0  2  0  0  0  0  0  0
  -25.3690  -25.3670   13.6690 C   0  0  0  0  0  2  0  0  0  0  0  0
  -26.5310  -25.7330   12.7270 C   0  0  0  0  0  2  0  0  0  0  0  0
  -26.5140  -27.1580   12.1230 C   0  0  0  0  0  2  0  0  0  0  0  0
  -27.8310  -27.5870   11.7650 O   0  0  0  0  0  0  0  0  0  0  0  0
  -34.9080  -26.9780   11.6740 C   0  0  0  0  0  0  0  0  0  0  0  0
  -28.9280  -26.9450   12.3020 C   0  0  0  0  0  0  0  0  0  0  0  0
  -33.7050  -25.2620   12.9900 C   0  0  0  0  0  3  0  0  0  0  0  0
  -31.2320  -25.7200   13.3970 C   0  0  0  0  0  0  0  0  0  0  0  0
  -32.7020  -27.5950   12.6430 C   0  0  0  0  0  2  0  0  0  0  0  0
  -31.3360  -26.9540   12.7420 C   0  0  0  0  0  0  0  0  0  0  0  0
  -30.1890  -27.5670   12.1920 C   0  0  0  0  0  3  0  0  0  0  0  0
  -28.8410  -25.7150   12.9910 C   0  0  0  0  0  3  0  0  0  0  0  0
  -29.9830  -25.0940   13.5200 C   0  0  0  0  0  3  0  0  0  0  0  0
  -32.5010  -25.1230   13.9590 C   0  0  0  0  0  2  0  0  0  0  0  0
  -33.7970  -26.6310   12.3840 N   0  0  0  0  0  0  0  0  0  0  0  0
  -35.8620  -26.1970   11.5590 O   0  0  0  0  0  0  0  0  0  0  0  0
  -33.6220  -24.1370   11.9360 C   0  0  0  0  0  0  0  0  0  0  0  0
  -34.3990  -23.0660   12.1540 N   0  0  0  0  0  0  0  0  0  0  0  0
  -32.8540  -24.2240   10.9720 O   0  0  0  0  0  0  0  0  0  0  0  0
  -34.9940  -23.0770   12.9720 H   0  0  0  0  0  0  0  0  0  0  0  0
  -36.4040  -20.1500   11.4130 C   0  0  0  0  0  0  0  0  0  0  0  0
  -34.4700  -21.8640   11.3240 C   0  0  0  0  0  3  0  0  0  0  0  0
  -33.5780  -20.7410   11.9020 C   0  0  0  0  0  2  0  0  0  0  0  0
  -34.3380  -19.7900   12.8300 C   0  0  0  0  0  2  0  0  0  0  0  0
  -35.5050  -19.1290   12.0910 C   0  0  0  0  0  2  0  0  0  0  0  0
  -35.9220  -21.4420   11.0720 C   0  0  0  0  0  0  0  0  0  0  0  0
  -36.8060  -22.3670   10.4770 C   0  0  0  0  0  3  0  0  0  0  0  0
  -38.1470  -22.0220   10.2220 C   0  0  0  0  0  3  0  0  0  0  0  0
  -38.6140  -20.7370   10.5480 C   0  0  0  0  0  3  0  0  0  0  0  0
  -37.7430  -19.8020   11.1360 C   0  0  0  0  0  3  0  0  0  0  0  0
  -35.0470  -28.3800   11.0030 C   0  0  0  0  0  3  0  0  0  0  0  0
  -35.3630  -28.3000    9.4590 C   0  0  1  0  0  0  0  0  0  0  0  0
  -36.5530  -27.3730    9.1150 C   0  0  0  0  0  1  0  0  0  0  0  0
  -34.1290  -27.7950    8.6740 C   0  0  0  0  0  1  0  0  0  0  0  0
  -35.6860  -29.7130    8.9160 C   0  0  0  0  0  1  0  0  0  0  0  0
  -36.1050  -29.1080   11.7150 N   0  0  0  0  0  0  0  0  0  0  0  0
  -35.8900  -30.0200   12.6730 C   0  0  0  0  0  0  0  0  0  0  0  0
  -34.7600  -30.3930   13.0010 O   0  0  0  0  0  0  0  0  0  0  0  0
  -37.0540  -28.8190   11.5290 H   0  0  0  0  0  0  0  0  0  0  0  0
  -37.3180  -29.9180   14.7400 C   0  0  0  0  0  1  0  0  0  0  0  0
  -37.1240  -30.6120   13.3820 C   0  0  0  0  0  3  0  0  0  0  0  0
  -37.1620  -32.8280   12.3250 C   0  0  0  0  0  1  0  0  0  0  0  0
  -37.0470  -32.0760   13.5730 N   0  0  0  0  0  0  0  0  0  0  0  0
  -37.7780  -32.3970   14.2030 H   0  0  0  0  0  0  0  0  0  0  0  0
  1  5  1  0
  2  5  2  0
  3  1  2  0
  4  2  1  0
  5  7  1  0
  6  3  1  0
  6  4  2  0
  8 12  1  0
  8  9  2  0
  9 17  1  0
  9 10  1  0
 11 10  2  0
 12  7  1  6
 12 13  1  0
 12 11  1  0
 13 15  1  0
 13 14  1  0
 16 13  1  0
 18 19  1  0
 18 17  1  0
 19 20  1  0
 21 20  1  0
 21 22  1  0
 22 29  2  0
 22 28  1  0
 23 24  1  0
 25 24  1  0
 26 33  1  0
 26 25  1  0
 27 26  1  0
 27 28  1  0
 28 23  1  0
 30 31  2  0
 30 33  1  0
 31 32  1  0
 32 34  2  0
 32 35  1  0
 33 34  1  0
 35 40  1  0
 36 35  2  0
 36 37  1  0
 37 38  2  0
 38 39  1  0
 38 41  1  0
 40 39  2  0
 42 47  1  0
 42 41  1  0
 43 42  2  0
 44 43  1  0
 44 45  2  0
 45 46  1  0
 46 47  2  0
 47 48  1  0
 49 45  1  0
 50 51  1  0
 50 31  1  0
 51 53  1  0
 52 50  2  0
 54 51  1  0
 55 30  1  0
 56 55  1  0
 57 55  1  0
 58  6  1  0
 59 58  1  0
 60 59  1  0
 61 60  1  0
 62 61  1  0
 62 64  1  0
 63 73  1  0
 64 70  1  0
 65 75  1  0
 65 72  1  0
 66 71  1  0
 66 72  1  0
 67 68  1  0
 68 66  2  0
 69 64  2  0
 69 68  1  0
 70 71  2  0
 73 67  1  0
 73 65  1  0
 74 63  2  0
 75 76  1  0
 76 78  1  0
 77 75  2  0
 79 83  1  0
 80 81  1  0
 80 76  1  0
 81 82  1  0
 83 82  1  0
 84 80  1  0
 84 79  2  0
 85 84  1  0
 86 85  2  0
 86 87  1  0
 87 88  2  0
 88 79  1  0
 89 63  1  0
 89 94  1  0
 90 89  1  0
 90 91  1  1
 92 90  1  0
 93 90  1  0
 94 95  1  0
 95 96  2  0
 95 99  1  0
 97 94  1  0
 99101  1  0
 99 98  1  0
100101  1  0
101102  1  0
M  ISO  4  21 100  22 100  61 101  62 101
M  END
>  <TORSDO>  (22) 
F 28

>  <SCORE>  (22) 
-2.378

>  <name>  (22) 
21

>  <ligand_id>  (22) 
21

>  <original_smiles>  (22) 
[H]C1=C(C([H])([H])C([H])([H])C([H])([H])C([H])([H])C([H])([H])C(=O)N2C([H])([H])C([H])([H])C([H])([H])C([H])(n3nc(-c4c([H])c([H])c(Oc5c([H])c([H])c(F)c([H])c5F)c([H])c4[H])c(C(=O)N([H])[H])c3N([H])[H])C2([H])[H])C([H])([H])C([H])([H])C1(C([H])([H])c1c([H])c([H])c(C([H])([H])C([H])([H])C([H])([H])C([H])([H])Oc2c([H])c([H])c3c(c2[H])C([H])([H])N(C(=O)C([H])(N([H])C(=O)C([H])(N([H])C([H])([H])[H])C([H])([H])[H])C(C([H])([H])[H])(C([H])([H])[H])C([H])([H])[H])C([H])(C(=O)N([H])C2([H])c4c([H])c([H])c([H])c([H])c4C([H])([H])C([H])([H])C2([H])[H])C3([H])[H])c([H])c1[H])[N+]([H])([H])[H]

>  <smiles>  (22) 
[H]C1=C(C([H])([H])C([H])([H])C([H])([H])C([H])([H])C([H])([H])C(=O)N2C([H])([H])C([H])([H])C([H])([H])C([H])(n3nc(-c4c([H])c([H])c(Oc5c([H])c([H])c(F)c([H])c5F)c([H])c4[H])c(C(=O)N([H])[H])c3N([H])[H])C2([H])[H])C([H])([H])C([H])([H])C1(C([H])([H])c1c([H])c([H])c(C([H])([H])C([H])([H])C([H])([H])C([H])([H])Oc2c([H])c([H])c3c(c2[H])C([H])([H])N(C(=O)C([H])(N([H])C(=O)C([H])(N([H])C([H])([H])[H])C([H])([H])[H])C(C([H])([H])[H])(C([H])([H])[H])C([H])([H])[H])C([H])(C(=O)N([H])C2([H])c4c([H])c([H])c([H])c([H])c4C([H])([H])C([H])([H])C2([H])[H])C3([H])[H])c([H])c1[H])[N+]([H])([H])[H]

$$$$
22:0:0
     RDKit          3D

 95103  0  0  1  0  0  0  0  0999 V2000
  -28.5320  -21.6860   19.9470 C   0  0  0  0  0  3  0  0  0  0  0  0
  -26.8480  -19.9780   19.5510 C   0  0  0  0  0  3  0  0  0  0  0  0
  -29.5150  -20.8330   19.4150 C   0  0  0  0  0  3  0  0  0  0  0  0
  -27.8340  -19.1260   19.0110 C   0  0  0  0  0  3  0  0  0  0  0  0
  -27.1860  -21.2680   20.0220 C   0  0  0  0  0  0  0  0  0  0  0  0
  -29.1800  -19.5490   18.9450 C   0  0  0  0  0  0  0  0  0  0  0  0
  -29.8210  -18.1720   16.9270 C   0  0  0  0  0  1  0  0  0  0  0  0
  -30.2670  -18.6880   18.3090 C   0  0  0  0  0  3  0  0  0  0  0  0
  -31.2730  -16.3900   18.7930 C   0  0  0  0  0  3  0  0  0  0  0  0
  -30.9450  -17.6360   19.2000 C   0  0  0  0  0  0  0  0  0  0  0  0
  -32.0880  -15.4290   19.5210 C   0  0  0  0  0  0  0  0  0  0  0  0
  -31.8090  -13.0350   19.1610 C   0  0  0  0  0  2  0  0  0  0  0  0
  -30.9210  -12.8790   17.9100 C   0  0  0  0  0  2  0  0  0  0  0  0
  -29.4300  -12.8810   18.3050 C   0  0  0  0  0  2  0  0  0  0  0  0
  -29.0460  -14.0620   19.2340 C   0  0  0  0  0  3  0  0  0  0  0  0
  -30.0650  -14.2280   20.3820 C   0  0  0  0  0  2  0  0  0  0  0  0
  -31.4200  -14.2870   19.8190 N   0  0  0  0  0  0  0  0  0  0  0  0
  -33.3110  -15.4770   19.3950 O   0  0  0  0  0  0  0  0  0  0  0  0
  -26.7440  -14.9410   19.9730 C   0  0  0  0  0  0  0  0  0  0  0  0
  -25.5970  -14.2950   20.3460 C   0  0  0  0  0  0  0  0  0  0  0  0
  -25.9050  -12.9010   20.3300 C   0  0  0  0  0  0  0  0  0  0  0  0
  -27.6800  -13.9440   19.7360 N   0  0  0  0  0  0  0  0  0  0  0  0
  -27.1800  -12.7150   20.0160 N   0  0  0  0  0  0  0  0  0  0  0  0
  -25.0490  -11.7270   20.5340 C   0  0  0  0  0  0  0  0  0  0  0  0
  -25.4150  -10.6920   21.4240 C   0  0  0  0  0  3  0  0  0  0  0  0
  -24.5650   -9.5810   21.6160 C   0  0  0  0  0  3  0  0  0  0  0  0
  -23.3370   -9.4980   20.9180 C   0  0  0  0  0  0  0  0  0  0  0  0
  -22.9870  -10.5220   20.0200 C   0  0  0  0  0  3  0  0  0  0  0  0
  -23.8350  -11.6250   19.8250 C   0  0  0  0  0  3  0  0  0  0  0  0
  -22.4580   -8.4480   21.0260 O   0  0  0  0  0  0  0  0  0  0  0  0
  -22.3070   -7.7520   22.1990 C   0  0  0  0  0  0  0  0  0  0  0  0
  -21.9600   -8.3970   23.4070 C   0  0  0  0  0  3  0  0  0  0  0  0
  -21.7480   -7.6370   24.5740 C   0  0  0  0  0  3  0  0  0  0  0  0
  -21.8690   -6.2350   24.5330 C   0  0  0  0  0  0  0  0  0  0  0  0
  -22.2070   -5.5910   23.3300 C   0  0  0  0  0  3  0  0  0  0  0  0
  -22.4220   -6.3480   22.1650 C   0  0  0  0  0  0  0  0  0  0  0  0
  -22.7290   -5.7210   21.0040 F   0  0  0  0  0  0  0  0  0  0  0  0
  -21.6540   -5.5040   25.6520 F   0  0  0  0  0  0  0  0  0  0  0  0
  -24.2610  -14.9290   20.6160 C   0  0  0  0  0  0  0  0  0  0  0  0
  -23.4630  -14.3210   21.4870 N   0  0  0  0  0  0  0  0  0  0  0  0
  -23.9370  -15.9920   20.0900 O   0  0  0  0  0  0  0  0  0  0  0  0
  -23.7370  -13.4560   21.9280 H   0  0  0  0  0  0  0  0  0  0  0  0
  -22.5630  -14.7240   21.7120 H   0  0  0  0  0  0  0  0  0  0  0  0
  -27.0680  -16.2810   19.7960 N   0  0  0  0  0  0  0  0  0  0  0  0
  -26.4040  -17.0330   19.9510 H   0  0  0  0  0  0  0  0  0  0  0  0
  -27.9890  -16.6160   19.5490 H   0  0  0  0  0  0  0  0  0  0  0  0
  -31.2040  -18.1200   20.4260 O   0  0  0  0  0  0  0  0  0  0  0  0
  -30.7950  -18.9780   20.4710 H   0  0  0  0  0  0  0  0  0  0  0  0
  -26.0890  -22.1820   20.5700 C   0  0  0  0  0  2  0  0  0  0  0  0
  -26.5840  -23.4530   21.2970 C   0  0  0  0  0  2  0  0  0  0  0  0
  -26.8480  -24.6720   20.3860 C   0  0  0  0  0  2  0  0  0  0  0  0
  -28.2750  -25.2340   20.5560 C   0  0  0  0  0  2  0  0  0  0  0  0
  -28.5240  -26.5800   19.8520 C   0  0  0  0  0  2  0  0  0  0  0  0
  -28.4390  -26.5250   18.3090 C   0  0  0  0  0  2  0  0  0  0  0  0
  -28.0500  -27.7970   17.7780 O   0  0  0  0  0  0  0  0  0  0  0  0
  -24.5400  -30.9380   23.0650 C   0  0  0  0  0  0  0  0  0  0  0  0
  -26.8340  -28.2380   18.2310 C   0  0  0  0  0  0  0  0  0  0  0  0
  -23.1410  -29.7970   21.3710 C   0  0  0  0  0  3  0  0  0  0  0  0
  -24.3430  -29.0810   19.2400 C   0  0  0  0  0  0  0  0  0  0  0  0
  -25.4170  -30.7710   20.7390 C   0  0  0  0  0  2  0  0  0  0  0  0
  -25.5220  -29.6860   19.6930 C   0  0  0  0  0  0  0  0  0  0  0  0
  -26.7710  -29.2750   19.1820 C   0  0  0  0  0  3  0  0  0  0  0  0
  -25.6410  -27.6410   17.7740 C   0  0  0  0  0  3  0  0  0  0  0  0
  -24.3930  -28.0540   18.2790 C   0  0  0  0  0  3  0  0  0  0  0  0
  -23.0470  -29.5760   19.8380 C   0  0  0  0  0  2  0  0  0  0  0  0
  -24.3970  -30.5040   21.7800 N   0  0  0  0  0  0  0  0  0  0  0  0
  -23.6300  -30.7980   23.8930 O   0  0  0  0  0  0  0  0  0  0  0  0
  -22.9480  -28.4340   22.0730 C   0  0  0  0  0  0  0  0  0  0  0  0
  -21.7740  -27.8160   21.8670 N   0  0  0  0  0  0  0  0  0  0  0  0
  -23.8480  -27.9450   22.7580 O   0  0  0  0  0  0  0  0  0  0  0  0
  -21.0910  -28.2740   21.2760 H   0  0  0  0  0  0  0  0  0  0  0  0
  -19.2950  -25.2040   21.6320 C   0  0  0  0  0  0  0  0  0  0  0  0
  -21.3890  -26.5100   22.3990 C   0  0  0  0  0  3  0  0  0  0  0  0
  -22.2150  -25.3790   21.7430 C   0  0  0  0  0  2  0  0  0  0  0  0
  -21.5250  -24.7580   20.5240 C   0  0  0  0  0  2  0  0  0  0  0  0
  -20.1550  -24.1860   20.9050 C   0  0  0  0  0  2  0  0  0  0  0  0
  -19.8730  -26.3010   22.3220 C   0  0  0  0  0  0  0  0  0  0  0  0
  -19.0240  -27.2320   22.9580 C   0  0  0  0  0  3  0  0  0  0  0  0
  -17.6270  -27.0810   22.9120 C   0  0  0  0  0  3  0  0  0  0  0  0
  -17.0600  -25.9860   22.2370 C   0  0  0  0  0  3  0  0  0  0  0  0
  -17.8940  -25.0470   21.6040 C   0  0  0  0  0  3  0  0  0  0  0  0
  -25.8410  -31.6560   23.5460 C   0  0  0  0  0  3  0  0  0  0  0  0
  -26.5840  -30.8870   24.7050 C   0  0  1  0  0  0  0  0  0  0  0  0
  -25.6700  -30.5380   25.9040 C   0  0  0  0  0  1  0  0  0  0  0  0
  -27.1990  -29.5680   24.1800 C   0  0  0  0  0  1  0  0  0  0  0  0
  -27.7620  -31.7400   25.2330 C   0  0  0  0  0  1  0  0  0  0  0  0
  -25.4680  -33.0090   23.9740 N   0  0  0  0  0  0  0  0  0  0  0  0
  -25.7180  -34.1240   23.2740 C   0  0  0  0  0  0  0  0  0  0  0  0
  -26.3580  -34.1260   22.2200 O   0  0  0  0  0  0  0  0  0  0  0  0
  -24.8880  -33.0760   24.7990 H   0  0  0  0  0  0  0  0  0  0  0  0
  -23.9200  -35.8660   23.0400 C   0  0  0  0  0  1  0  0  0  0  0  0
  -25.1690  -35.4490   23.8330 C   0  0  0  0  0  3  0  0  0  0  0  0
  -27.2540  -36.3550   24.7610 C   0  0  0  0  0  1  0  0  0  0  0  0
  -26.1590  -36.5490   23.8140 N   0  0  0  0  0  0  0  0  0  0  0  0
  -25.7130  -37.4390   24.0250 H   0  0  0  0  0  0  0  0  0  0  0  0
  1  5  1  0
  2  5  2  0
  3  1  2  0
  4  2  1  0
  5 49  1  0
  6  4  2  0
  6  3  1  0
  8  7  1  0
  8  6  1  0
  8 10  1  0
  9 10  2  0
  9 11  1  0
 10 47  1  0
 11 17  1  0
 12 17  1  0
 13 14  1  0
 13 12  1  0
 15 14  1  0
 15 22  1  0
 15 16  1  0
 17 16  1  0
 18 11  2  0
 19 20  2  0
 20 39  1  0
 21 20  1  0
 21 24  1  0
 22 19  1  0
 22 23  1  0
 23 21  2  0
 24 25  1  0
 25 26  2  0
 27 30  1  0
 27 26  1  0
 28 27  2  0
 29 28  1  0
 29 24  2  0
 30 31  1  0
 31 32  1  0
 32 33  2  0
 34 33  1  0
 34 38  1  0
 35 34  2  0
 36 31  2  0
 36 35  1  0
 37 36  1  0
 39 40  1  0
 40 43  1  0
 40 42  1  0
 41 39  2  0
 44 45  1  0
 44 19  1  0
 46 44  1  0
 47 48  1  0
 49 50  1  0
 51 52  1  0
 51 50  1  0
 53 52  1  0
 54 53  1  0
 55 57  1  0
 55 54  1  0
 56 67  2  0
 57 62  1  0
 58 66  1  0
 58 68  1  0
 59 61  1  0
 59 65  1  0
 60 66  1  0
 61 60  1  0
 62 61  2  0
 63 57  2  0
 63 64  1  0
 64 59  2  0
 65 58  1  0
 66 56  1  0
 68 70  2  0
 69 68  1  0
 71 69  1  0
 72 77  1  0
 73 69  1  0
 74 73  1  0
 75 76  1  0
 75 74  1  0
 76 72  1  0
 77 73  1  0
 77 78  2  0
 79 78  1  0
 80 79  2  0
 81 72  2  0
 81 80  1  0
 82 56  1  0
 82 87  1  0
 82 83  1  0
 83 86  1  1
 83 84  1  0
 85 83  1  0
 87 90  1  0
 88 92  1  0
 88 87  1  0
 89 88  2  0
 92 91  1  0
 94 92  1  0
 94 95  1  0
 94 93  1  0
M  ISO  4   9 100  11 100  54 101  55 101
M  END
>  <TORSDO>  (23) 
F 25

>  <SCORE>  (23) 
-6.336

>  <name>  (23) 
22

>  <ligand_id>  (23) 
22

>  <original_smiles>  (23) 
[H]OC(=C([H])C(=O)N1C([H])([H])C([H])([H])C([H])([H])C([H])(n2nc(-c3c([H])c([H])c(Oc4c([H])c([H])c(F)c([H])c4F)c([H])c3[H])c(C(=O)N([H])[H])c2N([H])[H])C1([H])[H])C([H])(c1c([H])c([H])c(C([H])([H])C([H])([H])C([H])([H])C([H])([H])C([H])([H])C([H])([H])Oc2c([H])c([H])c3c(c2[H])C([H])([H])N(C(=O)C([H])(N([H])C(=O)C([H])(N([H])C([H])([H])[H])C([H])([H])[H])C(C([H])([H])[H])(C([H])([H])[H])C([H])([H])[H])C([H])(C(=O)N([H])C2([H])c4c([H])c([H])c([H])c([H])c4C([H])([H])C([H])([H])C2([H])[H])C3([H])[H])c([H])c1[H])C([H])([H])[H]

>  <smiles>  (23) 
[H]OC(=C([H])C(=O)N1C([H])([H])C([H])([H])C([H])([H])C([H])(n2nc(-c3c([H])c([H])c(Oc4c([H])c([H])c(F)c([H])c4F)c([H])c3[H])c(C(=O)N([H])[H])c2N([H])[H])C1([H])[H])C([H])(c1c([H])c([H])c(C([H])([H])C([H])([H])C([H])([H])C([H])([H])C([H])([H])C([H])([H])Oc2c([H])c([H])c3c(c2[H])C([H])([H])N(C(=O)C([H])(N([H])C(=O)C([H])(N([H])C([H])([H])[H])C([H])([H])[H])C(C([H])([H])[H])(C([H])([H])[H])C([H])([H])[H])C([H])(C(=O)N([H])C2([H])c4c([H])c([H])c([H])c([H])c4C([H])([H])C([H])([H])C2([H])[H])C3([H])[H])c([H])c1[H])C([H])([H])[H]

$$$$
23:0:0
     RDKit          3D

106115  0  0  1  0  0  0  0  0999 V2000
  -32.8210  -22.2990   22.8650 C   0  0  0  0  0  3  0  0  0  0  0  0
  -31.8930  -21.1690   22.6230 N   0  0  0  0  0  4  0  0  0  0  0  0
  -31.0200  -21.5650   22.3140 H   0  0  0  0  0  0  0  0  0  0  0  0
  -32.2600  -20.6060   21.8710 H   0  0  0  0  0  0  0  0  0  0  0  0
  -31.6050  -20.3200   23.8010 C   0  0  0  0  0  2  0  0  0  0  0  0
  -30.5510  -19.2370   23.4990 C   0  0  0  0  0  2  0  0  0  0  0  0
  -30.9700  -18.2370   22.4070 C   0  0  0  0  0  2  0  0  0  0  0  0
  -29.9750  -17.0740   22.2630 C   0  0  0  0  0  2  0  0  0  0  0  0
  -30.4310  -16.0460   21.2180 C   0  0  0  0  0  2  0  0  0  0  0  0
  -29.5480  -14.7780   21.1750 C   0  0  0  0  0  2  0  0  0  0  0  0
  -30.0270  -13.7330   20.1510 C   0  0  0  0  0  0  0  0  0  0  0  0
  -29.7690  -11.5260   19.0690 C   0  0  0  0  0  2  0  0  0  0  0  0
  -28.7230  -11.5750   17.9420 C   0  0  0  0  0  2  0  0  0  0  0  0
  -27.3080  -11.3410   18.5040 C   0  0  0  0  0  2  0  0  0  0  0  0
  -26.9970  -12.2400   19.7310 C   0  0  0  0  0  3  0  0  0  0  0  0
  -28.1470  -12.1810   20.7630 C   0  0  0  0  0  2  0  0  0  0  0  0
  -29.4010  -12.5300   20.0770 N   0  0  0  0  0  0  0  0  0  0  0  0
  -30.9770  -14.0240   19.4160 O   0  0  0  0  0  0  0  0  0  0  0  0
  -24.6510  -12.7180   20.6830 C   0  0  0  0  0  0  0  0  0  0  0  0
  -23.6620  -11.8860   21.1350 C   0  0  0  0  0  0  0  0  0  0  0  0
  -24.1790  -10.5590   21.0230 C   0  0  0  0  0  0  0  0  0  0  0  0
  -25.7100  -11.8930   20.3300 N   0  0  0  0  0  0  0  0  0  0  0  0
  -25.4330  -10.5890   20.5880 N   0  0  0  0  0  0  0  0  0  0  0  0
  -23.5350   -9.2590   21.2500 C   0  0  0  0  0  0  0  0  0  0  0  0
  -24.0490   -8.3340   22.1870 C   0  0  0  0  0  3  0  0  0  0  0  0
  -23.4010   -7.0990   22.4010 C   0  0  0  0  0  3  0  0  0  0  0  0
  -22.2270   -6.7780   21.6790 C   0  0  0  0  0  0  0  0  0  0  0  0
  -21.7330   -7.6930   20.7340 C   0  0  0  0  0  3  0  0  0  0  0  0
  -22.3800   -8.9200   20.5170 C   0  0  0  0  0  3  0  0  0  0  0  0
  -21.5460   -5.5920   21.8030 O   0  0  0  0  0  0  0  0  0  0  0  0
  -21.5130   -4.9000   22.9880 C   0  0  0  0  0  0  0  0  0  0  0  0
  -20.9900   -5.4720   24.1690 C   0  0  0  0  0  3  0  0  0  0  0  0
  -20.9110   -4.7030   25.3480 C   0  0  0  0  0  3  0  0  0  0  0  0
  -21.3450   -3.3640   25.3460 C   0  0  0  0  0  0  0  0  0  0  0  0
  -21.8600   -2.7920   24.1690 C   0  0  0  0  0  3  0  0  0  0  0  0
  -21.9410   -3.5570   22.9930 C   0  0  0  0  0  0  0  0  0  0  0  0
  -22.4180   -2.9940   21.8570 F   0  0  0  0  0  0  0  0  0  0  0  0
  -21.2620   -2.6220   26.4750 F   0  0  0  0  0  0  0  0  0  0  0  0
  -22.2780  -12.2890   21.5570 C   0  0  0  0  0  0  0  0  0  0  0  0
  -21.6740  -11.5380   22.4720 N   0  0  0  0  0  0  0  0  0  0  0  0
  -21.7430  -13.3020   21.1110 O   0  0  0  0  0  0  0  0  0  0  0  0
  -22.1200  -10.7170   22.8520 H   0  0  0  0  0  0  0  0  0  0  0  0
  -20.7510  -11.7880   22.7960 H   0  0  0  0  0  0  0  0  0  0  0  0
  -24.7350  -14.0980   20.5260 N   0  0  0  0  0  0  0  0  0  0  0  0
  -23.9560  -14.7160   20.7280 H   0  0  0  0  0  0  0  0  0  0  0  0
  -25.5370  -14.5840   20.1420 H   0  0  0  0  0  0  0  0  0  0  0  0
  -32.5700  -23.4350   21.8460 C   0  0  0  0  0  2  0  0  0  0  0  0
  -31.0990  -23.8780   21.7420 C   0  0  0  0  0  2  0  0  0  0  0  0
  -30.9040  -25.0160   20.7270 C   0  0  0  0  0  2  0  0  0  0  0  0
  -29.4230  -25.2920   20.4310 C   0  0  0  0  0  2  0  0  0  0  0  0
  -29.2160  -26.4240   19.4150 C   0  0  0  0  0  2  0  0  0  0  0  0
  -27.9260  -26.2550   18.8360 O   0  0  0  0  0  0  0  0  0  0  0  0
  -24.7840  -31.3400   22.8070 C   0  0  0  0  0  0  0  0  0  0  0  0
  -26.8710  -27.0910   19.1210 C   0  0  0  0  0  0  0  0  0  0  0  0
  -23.3460  -30.1770   21.1600 C   0  0  0  0  0  3  0  0  0  0  0  0
  -24.5680  -28.6940   19.4860 C   0  0  0  0  0  0  0  0  0  0  0  0
  -25.8570  -30.4100   20.7650 C   0  0  0  0  0  2  0  0  0  0  0  0
  -25.7990  -29.1000   20.0130 C   0  0  0  0  0  0  0  0  0  0  0  0
  -26.9510  -28.3080   19.8400 C   0  0  0  0  0  3  0  0  0  0  0  0
  -25.6210  -26.6920   18.6020 C   0  0  0  0  0  3  0  0  0  0  0  0
  -24.4690  -27.4810   18.7810 C   0  0  0  0  0  3  0  0  0  0  0  0
  -23.3900  -29.6130   19.7140 C   0  0  0  0  0  2  0  0  0  0  0  0
  -24.6870  -30.6500   21.6360 N   0  0  0  0  0  0  0  0  0  0  0  0
  -23.7750  -31.6270   23.4660 O   0  0  0  0  0  0  0  0  0  0  0  0
  -22.7090  -29.1130   22.0810 C   0  0  0  0  0  0  0  0  0  0  0  0
  -21.3700  -29.0210   22.0490 N   0  0  0  0  0  0  0  0  0  0  0  0
  -23.4120  -28.3770   22.7780 O   0  0  0  0  0  0  0  0  0  0  0  0
  -20.8660  -29.6670   21.4580 H   0  0  0  0  0  0  0  0  0  0  0  0
  -17.9740  -27.9900   22.7130 C   0  0  0  0  0  0  0  0  0  0  0  0
  -20.5550  -28.0670   22.7990 C   0  0  0  0  0  3  0  0  0  0  0  0
  -20.5180  -26.6920   22.0950 C   0  0  0  0  0  2  0  0  0  0  0  0
  -19.3240  -26.5290   21.1480 C   0  0  0  0  0  2  0  0  0  0  0  0
  -18.0080  -26.6980   21.9130 C   0  0  0  0  0  2  0  0  0  0  0  0
  -19.1710  -28.6410   23.1150 C   0  0  0  0  0  0  0  0  0  0  0  0
  -19.0830  -29.8580   23.8250 C   0  0  0  0  0  3  0  0  0  0  0  0
  -17.8310  -30.4220   24.1350 C   0  0  0  0  0  3  0  0  0  0  0  0
  -16.6490  -29.7650   23.7490 C   0  0  0  0  0  3  0  0  0  0  0  0
  -16.7230  -28.5500   23.0440 C   0  0  0  0  0  3  0  0  0  0  0  0
  -26.1610  -31.8250   23.3610 C   0  0  0  0  0  3  0  0  0  0  0  0
  -25.9780  -33.1910   23.8660 N   0  0  0  0  0  0  0  0  0  0  0  0
  -26.3270  -34.3000   23.2010 C   0  0  0  0  0  0  0  0  0  0  0  0
  -26.9100  -34.2750   22.1130 O   0  0  0  0  0  0  0  0  0  0  0  0
  -25.4580  -33.2890   24.7260 H   0  0  0  0  0  0  0  0  0  0  0  0
  -24.7040  -36.2210   23.1840 C   0  0  0  0  0  1  0  0  0  0  0  0
  -25.9700  -35.6530   23.8440 C   0  0  0  0  0  3  0  0  0  0  0  0
  -28.2130  -36.3100   24.5970 C   0  0  0  0  0  1  0  0  0  0  0  0
  -27.0620  -36.6490   23.7640 N   0  0  0  0  0  0  0  0  0  0  0  0
  -26.7310  -37.5700   24.0410 H   0  0  0  0  0  0  0  0  0  0  0  0
  -26.7450  -30.8830   24.4860 C   0  0  1  0  0  0  0  0  0  0  0  0
  -25.7330  -30.5500   25.6050 C   0  0  0  0  0  1  0  0  0  0  0  0
  -27.2340  -29.5480   23.8770 C   0  0  0  0  0  1  0  0  0  0  0  0
  -27.9770  -31.5500   25.1420 C   0  0  0  0  0  1  0  0  0  0  0  0
  -34.3000  -21.8350   22.8650 C   0  0  0  0  0  2  0  0  0  0  0  0
  -34.9060  -18.7380   20.6670 C   0  0  0  0  0  3  0  0  0  0  0  0
  -35.5230  -20.7210   19.3980 C   0  0  0  0  0  3  0  0  0  0  0  0
  -34.5590  -19.5500   21.7640 C   0  0  0  0  0  3  0  0  0  0  0  0
  -35.1780  -21.5330   20.4950 C   0  0  0  0  0  3  0  0  0  0  0  0
  -35.3980  -19.3140   19.4710 C   0  0  0  0  0  0  0  0  0  0  0  0
  -34.6830  -20.9540   21.6820 C   0  0  0  0  0  0  0  0  0  0  0  0
  -35.7730  -18.4880   18.2820 C   0  0  0  0  0  0  0  0  0  0  0  0
  -36.0130  -18.9900   17.1780 O   0  0  0  0  0  0  0  0  0  0  0  0
  -35.9330  -15.5890   16.4220 C   0  0  0  0  0  2  0  0  0  0  0  0
  -34.7150  -15.1440   17.2240 C   0  0  0  0  0  2  0  0  0  0  0  0
  -36.8220  -16.2660   17.4660 C   0  0  0  0  0  2  0  0  0  0  0  0
  -34.4870  -16.2690   18.2410 C   0  0  0  0  0  2  0  0  0  0  0  0
  -35.8580  -16.9560   18.4580 C   0  0  0  0  0  3  0  0  0  0  0  0
  1 47  1  0
  2  1  1  0
  2  5  1  0
  3  2  1  0
  4  2  1  0
  6  5  1  0
  7  6  1  0
  8  7  1  0
  9  8  1  0
 10  9  1  0
 11 10  1  0
 12 17  1  0
 13 14  1  0
 13 12  1  0
 15 14  1  0
 15 22  1  0
 15 16  1  0
 17 11  1  0
 17 16  1  0
 18 11  2  0
 19 20  2  0
 20 39  1  0
 21 20  1  0
 21 24  1  0
 22 23  1  0
 22 19  1  0
 23 21  2  0
 24 25  1  0
 25 26  2  0
 27 30  1  0
 27 26  1  0
 28 27  2  0
 29 28  1  0
 29 24  2  0
 30 31  1  0
 31 36  2  0
 31 32  1  0
 32 33  2  0
 34 33  1  0
 34 38  1  0
 35 34  2  0
 36 35  1  0
 37 36  1  0
 39 40  1  0
 40 43  1  0
 40 42  1  0
 41 39  2  0
 44 19  1  0
 44 45  1  0
 46 44  1  0
 48 47  1  0
 49 48  1  0
 50 49  1  0
 51 50  1  0
 52 54  1  0
 52 51  1  0
 53 64  2  0
 54 59  1  0
 55 63  1  0
 55 65  1  0
 56 62  1  0
 56 58  1  0
 57 63  1  0
 58 57  1  0
 59 58  2  0
 60 61  1  0
 60 54  2  0
 61 56  2  0
 62 55  1  0
 63 53  1  0
 65 67  2  0
 66 65  1  0
 68 66  1  0
 69 78  2  0
 69 74  1  0
 70 66  1  0
 70 74  1  0
 71 70  1  0
 72 73  1  0
 72 71  1  0
 73 69  1  0
 74 75  2  0
 75 76  1  0
 77 76  2  0
 78 77  1  0
 79 53  1  0
 79 80  1  0
 79 89  1  0
 80 83  1  0
 81 85  1  0
 81 80  1  0
 82 81  2  0
 85 84  1  0
 87 85  1  0
 87 88  1  0
 87 86  1  0
 89 92  1  1
 89 90  1  0
 91 89  1  0
 93  1  1  0
 94 96  1  0
 95 98  1  0
 95 97  2  0
 97 99  1  0
 98 94  2  0
 99 96  2  0
 99 93  1  0
100106  1  0
100 98  1  0
101100  2  0
102103  1  0
102104  1  0
103105  1  0
104106  1  0
105106  1  0
M  ISO  4  10 100  11 100  51 101  52 101
M  END
>  <TORSDO>  (24) 
F 32

>  <SCORE>  (24) 
-1.931

>  <name>  (24) 
23

>  <ligand_id>  (24) 
23

>  <original_smiles>  (24) 
[H]c1c([H])c([H])c2c(c1[H])C([H])([H])C([H])([H])C([H])([H])C2([H])N([H])C(=O)C1([H])N(C(=O)C([H])(N([H])C(=O)C([H])(N([H])C([H])([H])[H])C([H])([H])[H])C(C([H])([H])[H])(C([H])([H])[H])C([H])([H])[H])C([H])([H])c2c([H])c(OC([H])([H])C([H])([H])C([H])([H])C([H])([H])C([H])([H])C([H])(C([H])([H])c3c([H])c([H])c(C(=O)C4([H])C([H])([H])C([H])([H])C([H])([H])C4([H])[H])c([H])c3[H])[N+]([H])([H])C([H])([H])C([H])([H])C([H])([H])C([H])([H])C([H])([H])C([H])([H])C(=O)N3C([H])([H])C([H])([H])C([H])([H])C([H])(n4nc(-c5c([H])c([H])c(Oc6c([H])c([H])c(F)c([H])c6F)c([H])c5[H])c(C(=O)N([H])[H])c4N([H])[H])C3([H])[H])c([H])c([H])c2C1([H])[H]

>  <smiles>  (24) 
[H]c1c([H])c([H])c2c(c1[H])C([H])([H])C([H])([H])C([H])([H])C2([H])N([H])C(=O)C1([H])N(C(=O)C([H])(N([H])C(=O)C([H])(N([H])C([H])([H])[H])C([H])([H])[H])C(C([H])([H])[H])(C([H])([H])[H])C([H])([H])[H])C([H])([H])c2c([H])c(OC([H])([H])C([H])([H])C([H])([H])C([H])([H])C([H])([H])C([H])(C([H])([H])c3c([H])c([H])c(C(=O)C4([H])C([H])([H])C([H])([H])C([H])([H])C4([H])[H])c([H])c3[H])[N+]([H])([H])C([H])([H])C([H])([H])C([H])([H])C([H])([H])C([H])([H])C([H])([H])C(=O)N3C([H])([H])C([H])([H])C([H])([H])C([H])(n4nc(-c5c([H])c([H])c(Oc6c([H])c([H])c(F)c([H])c6F)c([H])c5[H])c(C(=O)N([H])[H])c4N([H])[H])C3([H])[H])c([H])c([H])c2C1([H])[H]

$$$$
24:0:0
     RDKit          3D

 99103  0  0  1  0  0  0  0  0999 V2000
  -17.1030  -24.7490   20.5240 C   0  0  0  0  0  2  0  0  0  0  0  0
  -16.1990  -25.3080   19.1940 C   0  0  0  0  0  3  0  0  0  0  0  0
  -19.2760  -26.0690   19.9620 C   0  0  0  0  0  1  0  0  0  0  0  0
  -18.7520  -24.8520   20.7890 C   0  0  0  0  0  3  0  0  0  0  0  0
  -16.7970  -26.2900   17.9150 C   0  0  0  0  0  0  0  0  0  0  0  0
  -18.4740  -26.7980   18.0310 C   0  0  0  0  0  2  0  0  0  0  0  0
  -15.8990  -26.4970   16.7090 C   0  0  0  0  0  1  0  0  0  0  0  0
  -18.2370  -27.5400   15.4730 C   0  0  0  0  0  1  0  0  0  0  0  0
  -19.2540  -26.9320   16.4650 C   0  0  0  0  0  3  0  0  0  0  0  0
  -20.7840  -27.3750   15.9730 N   0  0  0  0  0  4  0  0  0  0  0  0
  -20.8130  -27.0710   15.0140 H   0  0  0  0  0  0  0  0  0  0  0  0
  -20.7140  -28.3810   15.9430 H   0  0  0  0  0  0  0  0  0  0  0  0
  -22.3540  -27.1570   16.4290 C   0  0  0  0  0  3  0  0  0  0  0  0
  -23.1020  -27.5410   17.9570 C   0  0  0  0  0  3  0  0  0  0  0  0
  -24.5590  -27.6530   18.6270 O   0  0  0  0  0  0  0  0  0  0  0  0
  -26.6030  -30.3710   24.1800 C   0  0  0  0  0  0  0  0  0  0  0  0
  -25.1170  -28.8870   18.5650 C   0  0  0  0  0  3  0  0  0  0  0  0
  -24.3900  -30.6400   23.1900 C   0  0  0  0  0  3  0  0  0  0  0  0
  -24.2720  -30.5270   20.6020 C   0  0  0  0  0  3  0  0  0  0  0  0
  -26.4730  -30.5840   21.7130 C   0  0  0  0  0  2  0  0  0  0  0  0
  -25.5940  -30.0850   20.5960 C   0  0  0  0  0  0  0  0  0  0  0  0
  -26.0500  -29.2380   19.5640 C   0  0  0  0  0  3  0  0  0  0  0  0
  -24.0340  -29.7150   18.3200 C   0  0  0  0  0  3  0  0  0  0  0  0
  -23.5310  -30.4420   19.4100 C   0  0  0  0  0  3  0  0  0  0  0  0
  -23.7840  -31.2000   21.8650 C   0  0  0  0  0  2  0  0  0  0  0  0
  -25.8610  -30.5320   23.0590 N   0  0  0  0  0  0  0  0  0  0  0  0
  -26.0850  -30.3370   25.3050 O   0  0  0  0  0  0  0  0  0  0  0  0
  -23.8420  -29.2790   23.6580 C   0  0  0  0  0  0  0  0  0  0  0  0
  -22.5590  -29.1870   24.0060 N   0  0  0  0  0  0  0  0  0  0  0  0
  -24.5860  -28.2950   23.7050 O   0  0  0  0  0  0  0  0  0  0  0  0
  -21.9750  -30.0060   24.1040 H   0  0  0  0  0  0  0  0  0  0  0  0
  -19.6620  -26.8400   22.5820 C   0  0  0  0  0  3  0  0  0  0  0  0
  -21.9690  -27.8790   24.2000 C   0  0  0  0  0  3  0  0  0  0  0  0
  -23.3880  -26.7020   23.6940 C   0  0  0  0  0  3  0  0  0  0  0  0
  -23.3770  -25.4540   22.1700 C   0  0  0  0  0  3  0  0  0  0  0  0
  -21.8440  -25.0900   21.2480 C   0  0  0  0  0  1  0  0  0  0  0  0
  -20.2690  -27.8910   23.6500 C   0  0  0  0  0  0  0  0  0  0  0  0
  -19.5780  -29.0760   24.0500 C   0  0  0  0  0  3  0  0  0  0  0  0
  -18.3290  -29.4400   23.5320 C   0  0  0  0  0  3  0  0  0  0  0  0
  -17.7340  -28.5920   22.5870 C   0  0  0  0  0  3  0  0  0  0  0  0
  -18.3560  -27.3770   22.1450 C   0  0  0  0  0  3  0  0  0  0  0  0
  -28.1450  -30.2660   24.0850 C   0  0  0  0  0  3  0  0  0  0  0  0
  -28.6460  -28.7950   23.8280 C   0  0  1  0  0  0  0  0  0  0  0  0
  -28.0280  -27.7460   24.7820 C   0  0  0  0  0  1  0  0  0  0  0  0
  -28.3390  -28.3380   22.3810 C   0  0  0  0  0  1  0  0  0  0  0  0
  -30.1830  -28.7530   23.9800 C   0  0  0  0  0  1  0  0  0  0  0  0
  -28.6660  -30.7940   25.3480 N   0  0  0  0  0  0  0  0  0  0  0  0
  -29.0600  -32.0620   25.5250 C   0  0  0  0  0  0  0  0  0  0  0  0
  -29.1100  -32.8840   24.6060 O   0  0  0  0  0  0  0  0  0  0  0  0
  -28.5900  -30.1930   26.1550 H   0  0  0  0  0  0  0  0  0  0  0  0
  -28.3340  -33.2680   27.6100 C   0  0  0  0  0  1  0  0  0  0  0  0
  -29.4750  -32.4780   26.9480 C   0  0  0  0  0  3  0  0  0  0  0  0
  -31.9140  -32.4840   26.6750 C   0  0  0  0  0  1  0  0  0  0  0  0
  -30.7220  -33.2720   26.9800 N   0  0  0  0  0  0  0  0  0  0  0  0
  -30.8500  -33.7100   27.8890 H   0  0  0  0  0  0  0  0  0  0  0  0
  -20.1110  -23.5350   20.9900 C   0  0  0  0  0  1  0  0  0  0  0  0
  -21.5190  -22.4970   20.0370 C   0  0  0  0  0  1  0  0  0  0  0  0
  -23.1740  -21.4720   20.2840 C   0  0  0  0  0  2  0  0  0  0  0  0
  -24.3080  -20.1140   19.4210 C   0  0  0  0  0  2  0  0  0  0  0  0
  -25.4870  -18.5780   19.7750 C   0  0  0  0  0  1  0  0  0  0  0  0
  -27.0320  -17.5890   19.0560 C   0  0  0  0  0  1  0  0  0  0  0  0
  -29.5330  -15.5040   19.2900 C   0  0  0  0  0  0  0  0  0  0  0  0
  -30.5780  -13.0380   19.1020 C   0  0  0  0  0  2  0  0  0  0  0  0
  -29.7720  -12.1660   18.0840 C   0  0  0  0  0  2  0  0  0  0  0  0
  -28.3800  -11.7830   18.6330 C   0  0  0  0  0  2  0  0  0  0  0  0
  -27.7660  -12.9810   19.3880 C   0  0  0  0  0  3  0  0  0  0  0  0
  -28.7040  -13.5070   20.4700 C   0  0  0  0  0  2  0  0  0  0  0  0
  -29.7030  -14.1480   19.6850 N   0  0  0  0  0  0  0  0  0  0  0  0
  -30.6090  -15.8420   18.7180 O   0  0  0  0  0  0  0  0  0  0  0  0
  -28.1640  -16.2680   19.4930 N   0  0  0  0  0  0  0  0  0  0  0  0
  -27.6300  -15.6540   20.0950 H   0  0  0  0  0  0  0  0  0  0  0  0
  -25.6010  -13.6860   20.4570 C   0  0  0  0  0  0  0  0  0  0  0  0
  -24.5650  -12.9570   20.9520 C   0  0  0  0  0  0  0  0  0  0  0  0
  -24.9300  -11.5870   20.7850 C   0  0  0  0  0  0  0  0  0  0  0  0
  -26.5010  -12.7480   19.9960 N   0  0  0  0  0  0  0  0  0  0  0  0
  -26.1380  -11.4790   20.2650 N   0  0  0  0  0  0  0  0  0  0  0  0
  -24.1710  -10.3630   21.0100 C   0  0  0  0  0  0  0  0  0  0  0  0
  -24.3900   -9.5600   22.1490 C   0  0  0  0  0  3  0  0  0  0  0  0
  -23.6300   -8.3880   22.3440 C   0  0  0  0  0  3  0  0  0  0  0  0
  -22.6430   -8.0210   21.3980 C   0  0  0  0  0  0  0  0  0  0  0  0
  -22.4530   -8.8130   20.2530 C   0  0  0  0  0  3  0  0  0  0  0  0
  -23.2130   -9.9740   20.0570 C   0  0  0  0  0  3  0  0  0  0  0  0
  -21.8690   -6.8910   21.4930 O   0  0  0  0  0  0  0  0  0  0  0  0
  -21.1790   -6.5890   22.6380 C   0  0  0  0  0  0  0  0  0  0  0  0
  -20.1600   -7.4280   23.1390 C   0  0  0  0  0  3  0  0  0  0  0  0
  -19.4290   -7.0410   24.2790 C   0  0  0  0  0  3  0  0  0  0  0  0
  -19.7090   -5.8160   24.9130 C   0  0  0  0  0  0  0  0  0  0  0  0
  -20.7210   -4.9790   24.4140 C   0  0  0  0  0  3  0  0  0  0  0  0
  -21.4530   -5.3630   23.2770 C   0  0  0  0  0  0  0  0  0  0  0  0
  -22.4120   -4.5420   22.7850 F   0  0  0  0  0  0  0  0  0  0  0  0
  -19.0010   -5.4410   26.0040 F   0  0  0  0  0  0  0  0  0  0  0  0
  -23.2650  -13.5050   21.4510 C   0  0  0  0  0  0  0  0  0  0  0  0
  -22.5940  -12.7740   22.3320 N   0  0  0  0  0  0  0  0  0  0  0  0
  -22.8620  -14.6110   21.0940 O   0  0  0  0  0  0  0  0  0  0  0  0
  -22.9380  -11.8750   22.6370 H   0  0  0  0  0  0  0  0  0  0  0  0
  -21.7210  -13.1180   22.7060 H   0  0  0  0  0  0  0  0  0  0  0  0
  -25.8380  -15.0520   20.3390 N   0  0  0  0  0  0  0  0  0  0  0  0
  -25.1250  -15.7250   20.5970 H   0  0  0  0  0  0  0  0  0  0  0  0
  -26.6010  -15.4700   19.8240 H   0  0  0  0  0  0  0  0  0  0  0  0
  1  4  1  0
  2  1  1  0
  3  4  1  0
  4 56  1  0
  5  6  1  0
  5  2  2  0
  7  5  1  0
  9  8  1  0
  9  6  1  0
 10 13  1  0
 10  9  1  0
 11 10  1  0
 12 10  1  0
 13 14  2  0
 14 15  1  0
 16 27  2  0
 17 15  1  0
 17 22  1  0
 18 28  1  0
 19 24  1  0
 19 25  1  0
 20 26  1  0
 21 19  1  0
 21 20  1  0
 22 21  2  0
 23 17  1  0
 23 24  2  0
 25 18  1  0
 26 18  1  0
 26 16  1  0
 28 30  2  0
 28 29  1  0
 29 31  1  0
 29 33  1  0
 32 37  1  0
 33 34  1  0
 35 34  2  0
 36 35  1  0
 37 38  2  0
 37 33  1  0
 39 38  1  0
 40 39  2  0
 41 32  2  0
 41 40  1  0
 42 16  1  0
 42 47  1  0
 43 46  1  6
 43 42  1  0
 43 44  1  0
 45 43  1  0
 47 48  1  0
 47 50  1  0
 48 52  1  0
 49 48  2  0
 52 54  1  0
 52 51  1  0
 53 54  1  0
 54 55  1  0
 57 58  1  0
 59 60  1  0
 59 58  1  0
 61 70  1  0
 62 70  1  0
 62 68  1  0
 63 68  1  0
 64 65  1  0
 64 63  1  0
 66 65  1  0
 66 75  1  0
 66 67  1  0
 68 67  1  0
 69 62  2  0
 70 71  1  0
 72 73  2  0
 73 92  1  0
 74 73  1  0
 74 77  1  0
 75 76  1  0
 75 72  1  0
 76 74  2  0
 77 78  1  0
 78 79  2  0
 80 83  1  0
 80 79  1  0
 81 80  2  0
 82 81  1  0
 82 77  2  0
 83 84  1  0
 84 85  2  0
 84 89  1  0
 85 86  1  0
 86 87  2  0
 87 91  1  0
 88 87  1  0
 89 88  2  0
 90 89  1  0
 92 93  1  0
 93 95  1  0
 93 96  1  0
 94 92  2  0
 97 72  1  0
 97 98  1  0
 99 97  1  0
M  ISO  4  14 101  15 101  62 100  70 100
M  END
>  <TORSDO>  (25) 
F 26

>  <SCORE>  (25) 
-1.746

>  <name>  (25) 
24

>  <ligand_id>  (25) 
24

>  <original_smiles>  (25) 
[H]c1c([H])c([H])c2c(c1[H])C([H])([H])C([H])([H])C([H])([H])C2([H])N([H])C(=O)C1([H])N(C(=O)C([H])(N([H])C(=O)C([H])(N([H])C([H])([H])[H])C([H])([H])[H])C(C([H])([H])[H])(C([H])([H])[H])C([H])([H])[H])C([H])([H])c2c([H])c(OC([H])([H])C([H])([H])[N+]([H])([H])C([H])(c3c([H])c(C([H])([H])C([H])([H])C([H])([H])C([H])([H])C([H])([H])C([H])([H])N([H])C(=O)N4C([H])([H])C([H])([H])C([H])([H])C([H])(n5nc(-c6c([H])c([H])c(Oc7c([H])c([H])c(F)c([H])c7F)c([H])c6[H])c(C(=O)N([H])[H])c5N([H])[H])C4([H])[H])c([H])c([H])c3C([H])([H])[H])C([H])([H])[H])c([H])c([H])c2C1([H])[H]

>  <smiles>  (25) 
[H]c1c([H])c([H])c2c(c1[H])C([H])([H])C([H])([H])C([H])([H])C2([H])N([H])C(=O)C1([H])N(C(=O)C([H])(N([H])C(=O)C([H])(N([H])C([H])([H])[H])C([H])([H])[H])C(C([H])([H])[H])(C([H])([H])[H])C([H])([H])[H])C([H])([H])c2c([H])c(OC([H])([H])C([H])([H])[N+]([H])([H])C([H])(c3c([H])c(C([H])([H])C([H])([H])C([H])([H])C([H])([H])C([H])([H])C([H])([H])N([H])C(=O)N4C([H])([H])C([H])([H])C([H])([H])C([H])(n5nc(-c6c([H])c([H])c(Oc7c([H])c([H])c(F)c([H])c7F)c([H])c6[H])c(C(=O)N([H])[H])c5N([H])[H])C4([H])[H])c([H])c([H])c3C([H])([H])[H])C([H])([H])[H])c([H])c([H])c2C1([H])[H]

$$$$
25:0:0
     RDKit          3D

 99108  0  0  1  0  0  0  0  0999 V2000
  -26.8240  -22.1260   20.6120 C   0  0  0  0  0  3  0  0  0  0  0  0
  -26.7600  -23.4750   20.6000 C   0  0  0  0  0  3  0  0  0  0  0  0
  -28.3410  -20.2210   21.1900 C   0  0  0  0  0  3  0  0  0  0  0  0
  -28.8720  -21.6260   19.2790 C   0  0  0  0  0  3  0  0  0  0  0  0
  -29.5440  -19.5090   20.9960 C   0  0  0  0  0  3  0  0  0  0  0  0
  -30.0990  -20.9620   19.1240 C   0  0  0  0  0  3  0  0  0  0  0  0
  -28.0130  -21.3080   20.3520 C   0  0  0  0  0  0  0  0  0  0  0  0
  -30.4440  -19.8880   19.9710 C   0  0  0  0  0  0  0  0  0  0  0  0
  -31.7890  -19.1800   19.8040 C   0  0  0  0  0  2  0  0  0  0  0  0
  -31.6150  -17.5130   16.7730 C   0  0  0  0  0  2  0  0  0  0  0  0
  -32.7540  -17.9060   17.7160 C   0  0  0  0  0  2  0  0  0  0  0  0
  -30.6210  -17.6110   17.9340 C   0  0  0  0  0  2  0  0  0  0  0  0
  -31.7850  -17.8970   18.9240 C   0  0  2  0  0  0  0  0  0  0  0  0
  -32.7450  -15.6390   19.7380 C   0  0  0  0  0  0  0  0  0  0  0  0
  -32.7060  -13.1820   19.8780 C   0  0  0  0  0  2  0  0  0  0  0  0
  -31.8970  -12.6050   18.6950 C   0  0  0  0  0  2  0  0  0  0  0  0
  -30.3820  -12.5850   19.0020 C   0  0  0  0  0  2  0  0  0  0  0  0
  -29.8660  -13.9290   19.5800 C   0  0  0  0  0  3  0  0  0  0  0  0
  -30.7860  -14.4010   20.7290 C   0  0  0  0  0  2  0  0  0  0  0  0
  -32.1620  -14.5080   20.2080 N   0  0  0  0  0  0  0  0  0  0  0  0
  -33.8520  -15.6420   19.1960 O   0  0  0  0  0  0  0  0  0  0  0  0
  -31.9490  -16.7260   19.8150 N   0  0  0  0  0  0  0  0  0  0  0  0
  -31.1570  -16.5560   20.4180 H   0  0  0  0  0  0  0  0  0  0  0  0
  -27.5290  -14.8250   20.1990 C   0  0  0  0  0  0  0  0  0  0  0  0
  -26.3650  -14.1880   20.5320 C   0  0  0  0  0  0  0  0  0  0  0  0
  -26.6630  -12.7910   20.5200 C   0  0  0  0  0  0  0  0  0  0  0  0
  -28.4710  -13.8250   20.0090 N   0  0  0  0  0  0  0  0  0  0  0  0
  -27.9470  -12.5950   20.2560 N   0  0  0  0  0  0  0  0  0  0  0  0
  -25.7880  -11.6240   20.6920 C   0  0  0  0  0  0  0  0  0  0  0  0
  -25.9540  -10.7310   21.7730 C   0  0  0  0  0  3  0  0  0  0  0  0
  -25.0920   -9.6240   21.9260 C   0  0  0  0  0  3  0  0  0  0  0  0
  -24.0490   -9.4030   20.9950 C   0  0  0  0  0  0  0  0  0  0  0  0
  -23.9040  -10.2810   19.9070 C   0  0  0  0  0  3  0  0  0  0  0  0
  -24.7650  -11.3810   19.7540 C   0  0  0  0  0  3  0  0  0  0  0  0
  -23.1790   -8.3400   21.0500 O   0  0  0  0  0  0  0  0  0  0  0  0
  -22.6790   -7.8790   22.2420 C   0  0  0  0  0  0  0  0  0  0  0  0
  -21.9250   -8.7060   23.1040 C   0  0  0  0  0  3  0  0  0  0  0  0
  -21.3730   -8.1740   24.2860 C   0  0  0  0  0  3  0  0  0  0  0  0
  -21.5600   -6.8140   24.6020 C   0  0  0  0  0  0  0  0  0  0  0  0
  -22.3030   -5.9880   23.7400 C   0  0  0  0  0  3  0  0  0  0  0  0
  -22.8580   -6.5180   22.5620 C   0  0  0  0  0  0  0  0  0  0  0  0
  -23.5560   -5.7120   21.7250 F   0  0  0  0  0  0  0  0  0  0  0  0
  -21.0240   -6.3000   25.7320 F   0  0  0  0  0  0  0  0  0  0  0  0
  -25.0230  -14.8260   20.7580 C   0  0  0  0  0  0  0  0  0  0  0  0
  -24.2170  -14.2660   21.6540 N   0  0  0  0  0  0  0  0  0  0  0  0
  -24.7000  -15.8600   20.1740 O   0  0  0  0  0  0  0  0  0  0  0  0
  -24.4860  -13.4310   22.1530 H   0  0  0  0  0  0  0  0  0  0  0  0
  -23.3140  -14.6820   21.8430 H   0  0  0  0  0  0  0  0  0  0  0  0
  -27.8620  -16.1650   20.0260 N   0  0  0  0  0  0  0  0  0  0  0  0
  -27.1900  -16.9150   20.1490 H   0  0  0  0  0  0  0  0  0  0  0  0
  -28.7860  -16.4950   19.7830 H   0  0  0  0  0  0  0  0  0  0  0  0
  -29.2880  -24.0180   20.8890 C   0  0  0  0  0  1  0  0  0  0  0  0
  -27.8930  -24.4910   20.4290 C   0  0  0  0  0  3  0  0  0  0  0  0
  -27.9000  -25.0110   19.0440 N   0  0  0  0  0  4  0  0  0  0  0  0
  -28.8520  -25.1820   18.7550 H   0  0  0  0  0  0  0  0  0  0  0  0
  -27.5210  -24.2940   18.4470 H   0  0  0  0  0  0  0  0  0  0  0  0
  -27.1260  -26.2600   18.8640 C   0  0  0  0  0  2  0  0  0  0  0  0
  -26.8920  -26.6120   17.3810 C   0  0  0  0  0  2  0  0  0  0  0  0
  -26.7190  -28.0230   17.2280 O   0  0  0  0  0  0  0  0  0  0  0  0
  -24.7490  -31.1920   23.2600 C   0  0  0  0  0  0  0  0  0  0  0  0
  -25.6840  -28.6080   17.9180 C   0  0  0  0  0  0  0  0  0  0  0  0
  -22.9100  -30.5700   21.7270 C   0  0  0  0  0  3  0  0  0  0  0  0
  -23.6140  -29.8330   19.3920 C   0  0  0  0  0  0  0  0  0  0  0  0
  -25.2450  -31.0860   20.8180 C   0  0  0  0  0  2  0  0  0  0  0  0
  -24.9530  -30.1260   19.6860 C   0  0  0  0  0  0  0  0  0  0  0  0
  -25.9880  -29.5320   18.9380 C   0  0  0  0  0  3  0  0  0  0  0  0
  -24.3300  -28.3100   17.6400 C   0  0  0  0  0  3  0  0  0  0  0  0
  -23.2960  -28.9200   18.3740 C   0  0  0  0  0  3  0  0  0  0  0  0
  -22.5660  -30.5430   20.2150 C   0  0  0  0  0  2  0  0  0  0  0  0
  -24.3400  -30.9390   21.9840 N   0  0  0  0  0  0  0  0  0  0  0  0
  -23.9510  -31.1670   24.2060 O   0  0  0  0  0  0  0  0  0  0  0  0
  -22.5040  -29.2150   22.3460 C   0  0  0  0  0  0  0  0  0  0  0  0
  -21.2050  -28.8870   22.2560 N   0  0  0  0  0  0  0  0  0  0  0  0
  -23.3460  -28.4760   22.8640 O   0  0  0  0  0  0  0  0  0  0  0  0
  -20.5840  -29.5510   21.8150 H   0  0  0  0  0  0  0  0  0  0  0  0
  -18.2220  -26.8530   22.0870 C   0  0  0  0  0  0  0  0  0  0  0  0
  -20.5950  -27.6450   22.7300 C   0  0  0  0  0  3  0  0  0  0  0  0
  -21.1110  -26.4250   21.9280 C   0  0  0  0  0  2  0  0  0  0  0  0
  -20.2170  -26.0390   20.7490 C   0  0  0  0  0  2  0  0  0  0  0  0
  -18.7920  -25.7440   21.2240 C   0  0  0  0  0  2  0  0  0  0  0  0
  -19.0690  -27.7510   22.7870 C   0  0  0  0  0  0  0  0  0  0  0  0
  -18.4830  -28.7790   23.5570 C   0  0  0  0  0  3  0  0  0  0  0  0
  -17.0840  -28.9120   23.6440 C   0  0  0  0  0  3  0  0  0  0  0  0
  -16.2520  -28.0080   22.9600 C   0  0  0  0  0  3  0  0  0  0  0  0
  -16.8210  -26.9810   22.1860 C   0  0  0  0  0  3  0  0  0  0  0  0
  -26.2330  -31.5490   23.5880 C   0  0  0  0  0  3  0  0  0  0  0  0
  -26.2310  -32.8220   24.3200 N   0  0  0  0  0  0  0  0  0  0  0  0
  -26.6300  -33.9930   23.8070 C   0  0  0  0  0  0  0  0  0  0  0  0
  -27.1130  -34.1010   22.6770 O   0  0  0  0  0  0  0  0  0  0  0  0
  -25.8000  -32.8160   25.2310 H   0  0  0  0  0  0  0  0  0  0  0  0
  -25.2870  -36.0870   24.1760 C   0  0  0  0  0  1  0  0  0  0  0  0
  -26.4670  -35.2460   24.6890 C   0  0  0  0  0  3  0  0  0  0  0  0
  -28.7820  -35.4510   25.4790 C   0  0  0  0  0  1  0  0  0  0  0  0
  -27.6840  -36.0830   24.7530 N   0  0  0  0  0  0  0  0  0  0  0  0
  -27.4850  -36.9770   25.1940 H   0  0  0  0  0  0  0  0  0  0  0  0
  -26.9730  -30.4300   24.4180 C   0  0  1  0  0  0  0  0  0  0  0  0
  -26.2100  -29.9930   25.6910 C   0  0  0  0  0  1  0  0  0  0  0  0
  -27.2070  -29.1700   23.5520 C   0  0  0  0  0  1  0  0  0  0  0  0
  -28.3700  -30.9350   24.8500 C   0  0  0  0  0  1  0  0  0  0  0  0
  2  1  2  0
  4  7  1  0
  5  3  1  0
  6  4  2  0
  6  8  1  0
  7  1  1  0
  7  3  2  0
  8  5  2  0
  9  8  1  0
 10 11  1  0
 10 12  1  0
 11 13  1  0
 12 13  1  0
 13  9  1  1
 13 22  1  0
 14 22  1  0
 14 20  1  0
 15 20  1  0
 16 17  1  0
 16 15  1  0
 18 17  1  0
 18 27  1  0
 18 19  1  0
 20 19  1  0
 21 14  2  0
 22 23  1  0
 24 25  2  0
 25 44  1  0
 26 25  1  0
 26 29  1  0
 27 24  1  0
 27 28  1  0
 28 26  2  0
 29 30  1  0
 30 31  2  0
 32 35  1  0
 32 31  1  0
 33 32  2  0
 34 33  1  0
 34 29  2  0
 35 36  1  0
 36 41  2  0
 36 37  1  0
 37 38  2  0
 38 39  1  0
 39 43  1  0
 40 39  2  0
 41 40  1  0
 42 41  1  0
 44 45  1  0
 45 48  1  0
 45 47  1  0
 46 44  2  0
 49 50  1  0
 49 24  1  0
 51 49  1  0
 53  2  1  0
 53 52  1  0
 54 53  1  0
 55 54  1  0
 56 54  1  0
 57 54  1  0
 58 57  1  0
 59 58  1  0
 59 61  1  0
 60 71  2  0
 61 66  1  0
 62 70  1  0
 62 72  1  0
 63 65  1  0
 63 69  1  0
 64 70  1  0
 65 64  1  0
 66 65  2  0
 67 61  2  0
 67 68  1  0
 68 63  2  0
 69 62  1  0
 70 60  1  0
 72 74  2  0
 73 72  1  0
 75 73  1  0
 76 85  2  0
 76 81  1  0
 77 73  1  0
 77 81  1  0
 78 77  1  0
 79 80  1  0
 79 78  1  0
 80 76  1  0
 81 82  2  0
 82 83  1  0
 84 83  2  0
 85 84  1  0
 86 60  1  0
 86 87  1  0
 86 96  1  0
 87 90  1  0
 88 87  1  0
 88 92  1  0
 89 88  2  0
 92 91  1  0
 92 94  1  0
 94 95  1  0
 94 93  1  0
 96 99  1  1
 96 97  1  0
 98 96  1  0
M  ISO  4  14 100  22 100  58 101  59 101
M  END
>  <TORSDO>  (26) 
F 23

>  <SCORE>  (26) 
-6.071

>  <name>  (26) 
25

>  <ligand_id>  (26) 
25

>  <original_smiles>  (26) 
[H]C(=C([H])C([H])(C([H])([H])[H])[N+]([H])([H])C([H])([H])C([H])([H])Oc1c([H])c([H])c2c(c1[H])C([H])([H])N(C(=O)C([H])(N([H])C(=O)C([H])(N([H])C([H])([H])[H])C([H])([H])[H])C(C([H])([H])[H])(C([H])([H])[H])C([H])([H])[H])C([H])(C(=O)N([H])C1([H])c3c([H])c([H])c([H])c([H])c3C([H])([H])C([H])([H])C1([H])[H])C2([H])[H])c1c([H])c([H])c(C([H])([H])C2(N([H])C(=O)N3C([H])([H])C([H])([H])C([H])([H])C([H])(n4nc(-c5c([H])c([H])c(Oc6c([H])c([H])c(F)c([H])c6F)c([H])c5[H])c(C(=O)N([H])[H])c4N([H])[H])C3([H])[H])C([H])([H])C([H])([H])C2([H])[H])c([H])c1[H]

>  <smiles>  (26) 
[H]C(=C([H])C([H])(C([H])([H])[H])[N+]([H])([H])C([H])([H])C([H])([H])Oc1c([H])c([H])c2c(c1[H])C([H])([H])N(C(=O)C([H])(N([H])C(=O)C([H])(N([H])C([H])([H])[H])C([H])([H])[H])C(C([H])([H])[H])(C([H])([H])[H])C([H])([H])[H])C([H])(C(=O)N([H])C1([H])c3c([H])c([H])c([H])c([H])c3C([H])([H])C([H])([H])C1([H])[H])C2([H])[H])c1c([H])c([H])c(C([H])([H])C2(N([H])C(=O)N3C([H])([H])C([H])([H])C([H])([H])C([H])(n4nc(-c5c([H])c([H])c(Oc6c([H])c([H])c(F)c([H])c6F)c([H])c5[H])c(C(=O)N([H])[H])c4N([H])[H])C3([H])[H])C([H])([H])C([H])([H])C2([H])[H])c([H])c1[H]

$$$$
26:0:0
     RDKit          3D

 92 99  0  0  1  0  0  0  0  0999 V2000
  -30.9570  -23.0990   23.0740 C   0  0  0  0  0  0  0  0  0  0  0  0
  -31.6820  -23.6480   23.9140 O   0  0  0  0  0  0  0  0  0  0  0  0
  -30.5510  -21.6850   23.1850 C   0  0  0  0  0  3  0  0  0  0  0  0
  -31.0890  -20.7780   24.0280 C   0  0  0  0  0  0  0  0  0  0  0  0
  -32.0760  -21.0260   24.9030 O   0  0  0  0  0  0  0  0  0  0  0  0
  -32.3020  -21.9490   24.8160 H   0  0  0  0  0  0  0  0  0  0  0  0
  -30.6400  -19.3280   24.1130 C   0  0  0  0  0  2  0  0  0  0  0  0
  -30.9180  -18.5550   22.8110 C   0  0  0  0  0  2  0  0  0  0  0  0
  -30.1970  -17.1990   22.7590 C   0  0  0  0  0  2  0  0  0  0  0  0
  -30.5060  -16.4130   21.4730 C   0  0  0  0  0  2  0  0  0  0  0  0
  -29.6460  -15.1390   21.3320 C   0  0  0  0  0  2  0  0  0  0  0  0
  -30.0490  -14.2320   20.1560 C   0  0  0  0  0  0  0  0  0  0  0  0
  -29.7590  -12.1150   18.9090 C   0  0  0  0  0  2  0  0  0  0  0  0
  -28.7150  -12.2420   17.7850 C   0  0  0  0  0  2  0  0  0  0  0  0
  -27.2960  -11.9880   18.3280 C   0  0  0  0  0  2  0  0  0  0  0  0
  -26.9930  -12.8180   19.6040 C   0  0  0  0  0  3  0  0  0  0  0  0
  -28.1360  -12.6750   20.6350 C   0  0  0  0  0  2  0  0  0  0  0  0
  -29.3990  -13.0530   19.9790 N   0  0  0  0  0  0  0  0  0  0  0  0
  -30.9760  -14.5880   19.4210 O   0  0  0  0  0  0  0  0  0  0  0  0
  -24.6110  -13.2640   20.4820 C   0  0  0  0  0  0  0  0  0  0  0  0
  -23.6280  -12.4190   20.9240 C   0  0  0  0  0  0  0  0  0  0  0  0
  -24.1770  -11.1020   20.8530 C   0  0  0  0  0  0  0  0  0  0  0  0
  -25.6960  -12.4560   20.1750 N   0  0  0  0  0  0  0  0  0  0  0  0
  -25.4410  -11.1520   20.4510 N   0  0  0  0  0  0  0  0  0  0  0  0
  -23.5560   -9.7940   21.0920 C   0  0  0  0  0  0  0  0  0  0  0  0
  -24.0840   -8.8860   22.0360 C   0  0  0  0  0  3  0  0  0  0  0  0
  -23.4590   -7.6400   22.2600 C   0  0  0  0  0  3  0  0  0  0  0  0
  -22.2920   -7.2920   21.5390 C   0  0  0  0  0  0  0  0  0  0  0  0
  -21.7830   -8.1900   20.5820 C   0  0  0  0  0  3  0  0  0  0  0  0
  -22.4100   -9.4280   20.3570 C   0  0  0  0  0  3  0  0  0  0  0  0
  -21.6310   -6.0950   21.6700 O   0  0  0  0  0  0  0  0  0  0  0  0
  -21.6290   -5.4010   22.8540 C   0  0  0  0  0  0  0  0  0  0  0  0
  -21.1460   -5.9720   24.0520 C   0  0  0  0  0  3  0  0  0  0  0  0
  -21.0980   -5.2010   25.2300 C   0  0  0  0  0  3  0  0  0  0  0  0
  -21.5210   -3.8590   25.2120 C   0  0  0  0  0  0  0  0  0  0  0  0
  -21.9980   -3.2870   24.0190 C   0  0  0  0  0  3  0  0  0  0  0  0
  -22.0490   -4.0560   22.8420 C   0  0  0  0  0  0  0  0  0  0  0  0
  -22.4890   -3.4930   21.6910 F   0  0  0  0  0  0  0  0  0  0  0  0
  -21.4680   -3.1140   26.3410 F   0  0  0  0  0  0  0  0  0  0  0  0
  -22.2250  -12.7990   21.3020 C   0  0  0  0  0  0  0  0  0  0  0  0
  -21.6170  -12.0610   22.2240 N   0  0  0  0  0  0  0  0  0  0  0  0
  -21.6750  -13.7860   20.8140 O   0  0  0  0  0  0  0  0  0  0  0  0
  -22.0730  -11.2620   22.6390 H   0  0  0  0  0  0  0  0  0  0  0  0
  -20.6790  -12.2960   22.5180 H   0  0  0  0  0  0  0  0  0  0  0  0
  -24.6690  -14.6420   20.2980 N   0  0  0  0  0  0  0  0  0  0  0  0
  -23.8730  -15.2470   20.4670 H   0  0  0  0  0  0  0  0  0  0  0  0
  -25.4710  -15.1370   19.9300 H   0  0  0  0  0  0  0  0  0  0  0  0
  -30.4430  -23.8090   21.8920 C   0  0  0  0  0  3  0  0  0  0  0  0
  -30.6460  -25.1220   21.6740 C   0  0  0  0  0  3  0  0  0  0  0  0
  -30.1200  -25.8430   20.4480 C   0  0  0  0  0  2  0  0  0  0  0  0
  -29.0710  -26.9160   20.7810 C   0  0  0  0  0  2  0  0  0  0  0  0
  -28.0590  -26.8240   19.7860 O   0  0  0  0  0  0  0  0  0  0  0  0
  -24.4280  -31.9590   23.1980 C   0  0  0  0  0  0  0  0  0  0  0  0
  -26.9280  -27.5900   19.9320 C   0  0  0  0  0  0  0  0  0  0  0  0
  -23.1470  -30.6070   21.5660 C   0  0  0  0  0  3  0  0  0  0  0  0
  -24.5350  -29.0820   20.0650 C   0  0  0  0  0  0  0  0  0  0  0  0
  -25.6640  -30.9500   21.2900 C   0  0  0  0  0  2  0  0  0  0  0  0
  -25.7110  -29.5910   20.6290 C   0  0  0  0  0  0  0  0  0  0  0  0
  -26.9080  -28.8490   20.5750 C   0  0  0  0  0  3  0  0  0  0  0  0
  -25.7390  -27.0900   19.3650 C   0  0  0  0  0  3  0  0  0  0  0  0
  -24.5390  -27.8250   19.4360 C   0  0  0  0  0  3  0  0  0  0  0  0
  -23.3010  -29.9500   20.1660 C   0  0  0  0  0  2  0  0  0  0  0  0
  -24.4330  -31.1840   22.0770 N   0  0  0  0  0  0  0  0  0  0  0  0
  -23.3710  -32.2330   23.7820 O   0  0  0  0  0  0  0  0  0  0  0  0
  -22.5160  -29.5750   22.5260 C   0  0  0  0  0  0  0  0  0  0  0  0
  -21.1880  -29.4000   22.4250 N   0  0  0  0  0  0  0  0  0  0  0  0
  -23.2150  -28.9340   23.3150 O   0  0  0  0  0  0  0  0  0  0  0  0
  -20.6850  -29.9700   21.7590 H   0  0  0  0  0  0  0  0  0  0  0  0
  -17.8250  -28.1980   22.9560 C   0  0  0  0  0  0  0  0  0  0  0  0
  -20.3840  -28.4550   23.1980 C   0  0  0  0  0  3  0  0  0  0  0  0
  -20.4810  -27.0290   22.6070 C   0  0  0  0  0  2  0  0  0  0  0  0
  -19.3670  -26.7150   21.6050 C   0  0  0  0  0  2  0  0  0  0  0  0
  -17.9940  -26.8530   22.2690 C   0  0  0  0  0  2  0  0  0  0  0  0
  -18.9480  -28.9560   23.3790 C   0  0  0  0  0  0  0  0  0  0  0  0
  -18.7370  -30.2160   23.9800 C   0  0  0  0  0  3  0  0  0  0  0  0
  -17.4350  -30.7170   24.1660 C   0  0  0  0  0  3  0  0  0  0  0  0
  -16.3260  -29.9550   23.7610 C   0  0  0  0  0  3  0  0  0  0  0  0
  -16.5220  -28.6970   23.1630 C   0  0  0  0  0  3  0  0  0  0  0  0
  -25.7460  -32.5560   23.7860 C   0  0  0  0  0  3  0  0  0  0  0  0
  -26.2880  -31.7590   25.0350 C   0  0  1  0  0  0  0  0  0  0  0  0
  -25.2240  -31.5240   26.1320 C   0  0  0  0  0  1  0  0  0  0  0  0
  -26.8360  -30.3780   24.6030 C   0  0  0  0  0  1  0  0  0  0  0  0
  -27.4690  -32.5260   25.6760 C   0  0  0  0  0  1  0  0  0  0  0  0
  -25.4760  -33.9560   24.1370 N   0  0  0  0  0  0  0  0  0  0  0  0
  -25.8280  -35.0090   23.3860 C   0  0  0  0  0  0  0  0  0  0  0  0
  -26.4840  -34.9010   22.3470 O   0  0  0  0  0  0  0  0  0  0  0  0
  -24.8960  -34.1150   24.9470 H   0  0  0  0  0  0  0  0  0  0  0  0
  -24.1380  -36.8440   23.0730 C   0  0  0  0  0  1  0  0  0  0  0  0
  -25.3780  -36.4020   23.8660 C   0  0  0  0  0  3  0  0  0  0  0  0
  -27.5440  -37.2240   24.6810 C   0  0  0  0  0  1  0  0  0  0  0  0
  -26.4350  -37.4320   23.7540 N   0  0  0  0  0  0  0  0  0  0  0  0
  -26.0510  -38.3580   23.9180 H   0  0  0  0  0  0  0  0  0  0  0  0
  1  3  1  0
  1  2  2  0
  3  4  2  0
  4  7  1  0
  4  5  1  0
  6  5  1  0
  8  7  1  0
  9  8  1  0
 10  9  1  0
 11 10  1  0
 12 11  1  0
 13 18  1  0
 14 15  1  0
 14 13  1  0
 16 15  1  0
 16 23  1  0
 16 17  1  0
 18 12  1  0
 18 17  1  0
 19 12  2  0
 20 21  2  0
 21 40  1  0
 22 21  1  0
 22 25  1  0
 23 24  1  0
 23 20  1  0
 24 22  2  0
 25 26  1  0
 26 27  2  0
 28 31  1  0
 28 27  1  0
 29 28  2  0
 30 29  1  0
 30 25  2  0
 31 32  1  0
 32 33  1  0
 33 34  2  0
 35 34  1  0
 35 39  1  0
 36 35  2  0
 37 32  2  0
 37 36  1  0
 38 37  1  0
 40 41  1  0
 41 44  1  0
 41 43  1  0
 42 40  2  0
 45 46  1  0
 45 20  1  0
 47 45  1  0
 48  1  1  0
 49 48  2  0
 50 51  1  0
 50 49  1  0
 52 54  1  0
 52 51  1  0
 53 64  2  0
 54 59  1  0
 55 63  1  0
 55 65  1  0
 56 62  1  0
 56 58  1  0
 57 63  1  0
 58 57  1  0
 59 58  2  0
 60 61  1  0
 60 54  2  0
 61 56  2  0
 62 55  1  0
 63 53  1  0
 65 67  2  0
 66 65  1  0
 68 66  1  0
 69 78  2  0
 69 74  1  0
 70 66  1  0
 70 74  1  0
 71 70  1  0
 72 73  1  0
 72 71  1  0
 73 69  1  0
 74 75  2  0
 75 76  1  0
 77 76  2  0
 78 77  1  0
 79 53  1  0
 79 84  1  0
 79 80  1  0
 80 83  1  1
 80 81  1  0
 82 80  1  0
 84 87  1  0
 85 89  1  0
 85 84  1  0
 86 85  2  0
 89 88  1  0
 91 89  1  0
 91 92  1  0
 91 90  1  0
M  ISO  4  11 100  12 100  51 101  52 101
M  END
>  <TORSDO>  (27) 
F 26

>  <SCORE>  (27) 
-6.332

>  <name>  (27) 
26

>  <ligand_id>  (27) 
26

>  <original_smiles>  (27) 
[H]OC(=C([H])C(=O)C([H])=C([H])C([H])([H])C([H])([H])Oc1c([H])c([H])c2c(c1[H])C([H])([H])N(C(=O)C([H])(N([H])C(=O)C([H])(N([H])C([H])([H])[H])C([H])([H])[H])C(C([H])([H])[H])(C([H])([H])[H])C([H])([H])[H])C([H])(C(=O)N([H])C1([H])c3c([H])c([H])c([H])c([H])c3C([H])([H])C([H])([H])C1([H])[H])C2([H])[H])C([H])([H])C([H])([H])C([H])([H])C([H])([H])C([H])([H])C(=O)N1C([H])([H])C([H])([H])C([H])([H])C([H])(n2nc(-c3c([H])c([H])c(Oc4c([H])c([H])c(F)c([H])c4F)c([H])c3[H])c(C(=O)N([H])[H])c2N([H])[H])C1([H])[H]

>  <smiles>  (27) 
[H]OC(=C([H])C(=O)C([H])=C([H])C([H])([H])C([H])([H])Oc1c([H])c([H])c2c(c1[H])C([H])([H])N(C(=O)C([H])(N([H])C(=O)C([H])(N([H])C([H])([H])[H])C([H])([H])[H])C(C([H])([H])[H])(C([H])([H])[H])C([H])([H])[H])C([H])(C(=O)N([H])C1([H])c3c([H])c([H])c([H])c([H])c3C([H])([H])C([H])([H])C1([H])[H])C2([H])[H])C([H])([H])C([H])([H])C([H])([H])C([H])([H])C([H])([H])C(=O)N1C([H])([H])C([H])([H])C([H])([H])C([H])(n2nc(-c3c([H])c([H])c(Oc4c([H])c([H])c(F)c([H])c4F)c([H])c3[H])c(C(=O)N([H])[H])c2N([H])[H])C1([H])[H]

$$$$
27:0:0
     RDKit          3D

 97105  0  0  1  0  0  0  0  0999 V2000
  -33.1580  -20.9260   21.1910 C   0  0  0  0  0  3  0  0  0  0  0  0
  -30.8010  -20.9410   20.5710 C   0  0  0  0  0  3  0  0  0  0  0  0
  -32.8770  -20.0140   22.2260 C   0  0  0  0  0  3  0  0  0  0  0  0
  -30.5190  -20.0380   21.6100 C   0  0  0  0  0  3  0  0  0  0  0  0
  -32.1190  -21.3860   20.3560 C   0  0  0  0  0  0  0  0  0  0  0  0
  -31.5590  -19.5550   22.4380 C   0  0  0  0  0  0  0  0  0  0  0  0
  -32.3980  -22.3810   19.2510 C   0  0  0  0  0  2  0  0  0  0  0  0
  -32.1780  -23.8210   19.7310 C   0  0  0  0  0  2  0  0  0  0  0  0
  -31.7350  -24.7550   18.6000 C   0  0  0  0  0  2  0  0  0  0  0  0
  -31.4200  -26.1730   19.1040 C   0  0  0  0  0  2  0  0  0  0  0  0
  -30.3990  -26.9060   18.2220 C   0  0  0  0  0  2  0  0  0  0  0  0
  -28.9480  -26.4660   18.4730 C   0  0  0  0  0  2  0  0  0  0  0  0
  -28.5560  -26.8970   19.7750 O   0  0  0  0  0  0  0  0  0  0  0  0
  -24.5360  -31.7570   23.0560 C   0  0  0  0  0  0  0  0  0  0  0  0
  -27.3430  -27.5350   19.8380 C   0  0  0  0  0  0  0  0  0  0  0  0
  -23.3880  -30.3850   21.3460 C   0  0  0  0  0  3  0  0  0  0  0  0
  -24.8990  -28.9350   19.8930 C   0  0  0  0  0  0  0  0  0  0  0  0
  -25.9020  -30.8180   21.2000 C   0  0  0  0  0  2  0  0  0  0  0  0
  -26.0300  -29.4730   20.5220 C   0  0  0  0  0  0  0  0  0  0  0  0
  -27.2510  -28.7700   20.5090 C   0  0  0  0  0  3  0  0  0  0  0  0
  -26.1920  -26.9880   19.2300 C   0  0  0  0  0  3  0  0  0  0  0  0
  -24.9700  -27.6850   19.2550 C   0  0  0  0  0  3  0  0  0  0  0  0
  -23.6330  -29.7600   19.9460 C   0  0  0  0  0  2  0  0  0  0  0  0
  -24.6260  -30.9990   21.9260 N   0  0  0  0  0  0  0  0  0  0  0  0
  -23.4400  -31.9840   23.5880 O   0  0  0  0  0  0  0  0  0  0  0  0
  -22.7510  -29.3140   22.2570 C   0  0  0  0  0  0  0  0  0  0  0  0
  -21.4230  -29.1480   22.1450 N   0  0  0  0  0  0  0  0  0  0  0  0
  -23.4460  -28.6370   23.0200 O   0  0  0  0  0  0  0  0  0  0  0  0
  -20.9240  -29.7470   21.5010 H   0  0  0  0  0  0  0  0  0  0  0  0
  -18.0450  -27.9860   22.6710 C   0  0  0  0  0  0  0  0  0  0  0  0
  -20.6140  -28.1730   22.8750 C   0  0  0  0  0  3  0  0  0  0  0  0
  -20.6690  -26.7850   22.1940 C   0  0  0  0  0  2  0  0  0  0  0  0
  -19.5270  -26.5570   21.1980 C   0  0  0  0  0  2  0  0  0  0  0  0
  -18.1710  -26.6830   21.8970 C   0  0  0  0  0  2  0  0  0  0  0  0
  -19.1930  -28.6930   23.1150 C   0  0  0  0  0  0  0  0  0  0  0  0
  -19.0220  -29.9170   23.7990 C   0  0  0  0  0  3  0  0  0  0  0  0
  -17.7340  -30.4320   24.0410 C   0  0  0  0  0  3  0  0  0  0  0  0
  -16.6010  -29.7220   23.6110 C   0  0  0  0  0  3  0  0  0  0  0  0
  -16.7570  -28.4990   22.9330 C   0  0  0  0  0  3  0  0  0  0  0  0
  -25.7980  -32.3930   23.7180 C   0  0  0  0  0  3  0  0  0  0  0  0
  -26.3210  -31.5840   24.9680 C   0  0  1  0  0  0  0  0  0  0  0  0
  -25.2230  -31.2830   26.0150 C   0  0  0  0  0  1  0  0  0  0  0  0
  -26.9360  -30.2370   24.5250 C   0  0  0  0  0  1  0  0  0  0  0  0
  -27.4480  -32.3780   25.6710 C   0  0  0  0  0  1  0  0  0  0  0  0
  -25.4540  -33.7690   24.0950 N   0  0  0  0  0  0  0  0  0  0  0  0
  -25.7800  -34.8570   23.3820 C   0  0  0  0  0  0  0  0  0  0  0  0
  -26.4730  -34.8080   22.3630 O   0  0  0  0  0  0  0  0  0  0  0  0
  -24.8420  -33.8820   24.8890 H   0  0  0  0  0  0  0  0  0  0  0  0
  -24.0220  -36.6230   23.0510 C   0  0  0  0  0  1  0  0  0  0  0  0
  -25.2510  -36.2150   23.8790 C   0  0  0  0  0  3  0  0  0  0  0  0
  -27.3440  -37.1090   24.8000 C   0  0  0  0  0  1  0  0  0  0  0  0
  -26.2630  -37.2920   23.8350 N   0  0  0  0  0  0  0  0  0  0  0  0
  -25.8330  -38.1970   24.0080 H   0  0  0  0  0  0  0  0  0  0  0  0
  -31.2700  -18.5520   23.5520 C   0  0  0  0  0  3  0  0  0  0  0  0
  -30.7800  -19.2650   24.7370 N   0  0  0  0  0  4  0  0  0  0  0  0
  -29.8960  -19.7010   24.5510 H   0  0  0  0  0  0  0  0  0  0  0  0
  -31.4360  -19.9800   24.9940 H   0  0  0  0  0  0  0  0  0  0  0  0
  -30.6780  -18.6360   25.5120 H   0  0  0  0  0  0  0  0  0  0  0  0
  -30.3030  -17.4190   23.1280 C   0  0  0  0  0  2  0  0  0  0  0  0
  -30.7370  -16.6530   21.8610 C   0  0  0  0  0  2  0  0  0  0  0  0
  -29.7640  -15.5100   21.5160 C   0  0  0  0  0  2  0  0  0  0  0  0
  -30.1480  -14.7010   20.2670 C   0  0  0  0  0  0  0  0  0  0  0  0
  -29.8800  -12.6320   18.9380 C   0  0  0  0  0  2  0  0  0  0  0  0
  -28.8250  -12.7770   17.8300 C   0  0  0  0  0  2  0  0  0  0  0  0
  -27.4160  -12.4790   18.3760 C   0  0  0  0  0  2  0  0  0  0  0  0
  -27.1090  -13.2640   19.6780 C   0  0  0  0  0  3  0  0  0  0  0  0
  -28.2600  -13.1020   20.6950 C   0  0  0  0  0  2  0  0  0  0  0  0
  -29.5120  -13.5240   20.0440 N   0  0  0  0  0  0  0  0  0  0  0  0
  -31.0480  -15.1200   19.5290 O   0  0  0  0  0  0  0  0  0  0  0  0
  -24.7580  -13.6530   20.6600 C   0  0  0  0  0  0  0  0  0  0  0  0
  -23.7740  -12.7830   21.0470 C   0  0  0  0  0  0  0  0  0  0  0  0
  -24.3020  -11.4720   20.8350 C   0  0  0  0  0  0  0  0  0  0  0  0
  -25.8230  -12.8650   20.2480 N   0  0  0  0  0  0  0  0  0  0  0  0
  -25.5550  -11.5440   20.4050 N   0  0  0  0  0  0  0  0  0  0  0  0
  -23.6680  -10.1540   20.9630 C   0  0  0  0  0  0  0  0  0  0  0  0
  -24.2260   -9.1430   21.7780 C   0  0  0  0  0  3  0  0  0  0  0  0
  -23.5890   -7.8900   21.8990 C   0  0  0  0  0  3  0  0  0  0  0  0
  -22.3820   -7.6370   21.2050 C   0  0  0  0  0  0  0  0  0  0  0  0
  -21.8440   -8.6380   20.3780 C   0  0  0  0  0  3  0  0  0  0  0  0
  -22.4820   -9.8840   20.2540 C   0  0  0  0  0  3  0  0  0  0  0  0
  -21.7070   -6.4400   21.2420 O   0  0  0  0  0  0  0  0  0  0  0  0
  -21.7700   -5.6120   22.3330 C   0  0  0  0  0  0  0  0  0  0  0  0
  -21.3910   -6.0470   23.6230 C   0  0  0  0  0  3  0  0  0  0  0  0
  -21.4050   -5.1420   24.7030 C   0  0  0  0  0  3  0  0  0  0  0  0
  -21.7890   -3.8030   24.4970 C   0  0  0  0  0  0  0  0  0  0  0  0
  -22.1630   -3.3680   23.2130 C   0  0  0  0  0  3  0  0  0  0  0  0
  -22.1510   -4.2690   22.1340 C   0  0  0  0  0  0  0  0  0  0  0  0
  -22.4910   -3.8400   20.8950 F   0  0  0  0  0  0  0  0  0  0  0  0
  -21.7960   -2.9330   25.5320 F   0  0  0  0  0  0  0  0  0  0  0  0
  -22.3880  -13.1410   21.4980 C   0  0  0  0  0  0  0  0  0  0  0  0
  -21.7940  -12.3230   22.3610 N   0  0  0  0  0  0  0  0  0  0  0  0
  -21.8410  -14.1770   21.1240 O   0  0  0  0  0  0  0  0  0  0  0  0
  -22.2510  -11.4830   22.6830 H   0  0  0  0  0  0  0  0  0  0  0  0
  -20.8700  -12.5410   22.7050 H   0  0  0  0  0  0  0  0  0  0  0  0
  -24.8300  -15.0410   20.6090 N   0  0  0  0  0  0  0  0  0  0  0  0
  -24.0460  -15.6350   20.8560 H   0  0  0  0  0  0  0  0  0  0  0  0
  -25.6290  -15.5630   20.2660 H   0  0  0  0  0  0  0  0  0  0  0  0
  1  3  1  0
  2  4  2  0
  3  6  2  0
  4  6  1  0
  5  2  1  0
  5  1  2  0
  6 54  1  0
  7  8  1  0
  7  5  1  0
  9 10  1  0
  9  8  1  0
 11 12  1  0
 11 10  1  0
 12 13  1  0
 13 15  1  0
 14 25  2  0
 15 20  1  0
 16 24  1  0
 16 26  1  0
 17 23  1  0
 17 19  1  0
 18 24  1  0
 19 18  1  0
 20 19  2  0
 21 22  1  0
 21 15  2  0
 22 17  2  0
 23 16  1  0
 24 14  1  0
 26 28  2  0
 27 26  1  0
 29 27  1  0
 30 39  2  0
 30 35  1  0
 31 27  1  0
 31 35  1  0
 32 31  1  0
 33 34  1  0
 33 32  1  0
 34 30  1  0
 35 36  2  0
 36 37  1  0
 38 37  2  0
 39 38  1  0
 40 14  1  0
 40 45  1  0
 40 41  1  0
 41 44  1  1
 41 42  1  0
 43 41  1  0
 45 48  1  0
 46 50  1  0
 46 45  1  0
 47 46  2  0
 50 49  1  0
 52 50  1  0
 52 53  1  0
 52 51  1  0
 54 59  1  0
 54 55  1  0
 55 57  1  0
 55 58  1  0
 56 55  1  0
 60 59  1  0
 61 60  1  0
 62 61  1  0
 63 68  1  0
 64 65  1  0
 64 63  1  0
 66 65  1  0
 66 73  1  0
 66 67  1  0
 68 62  1  0
 68 67  1  0
 69 62  2  0
 70 71  2  0
 71 90  1  0
 72 75  1  0
 72 71  1  0
 73 74  1  0
 73 70  1  0
 74 72  2  0
 75 76  1  0
 76 77  2  0
 78 81  1  0
 78 77  1  0
 79 78  2  0
 80 79  1  0
 80 75  2  0
 81 82  1  0
 82 83  1  0
 83 84  2  0
 85 84  1  0
 85 89  1  0
 86 85  2  0
 87 82  2  0
 87 86  1  0
 88 87  1  0
 90 91  1  0
 91 93  1  0
 91 94  1  0
 92 90  2  0
 95 70  1  0
 95 96  1  0
 97 95  1  0
M  ISO  4  12 101  13 101  61 100  62 100
M  END
>  <TORSDO>  (28) 
F 27

>  <SCORE>  (28) 
-10.057

>  <name>  (28) 
27

>  <ligand_id>  (28) 
27

>  <original_smiles>  (28) 
[H]c1c([H])c([H])c2c(c1[H])C([H])([H])C([H])([H])C([H])([H])C2([H])N([H])C(=O)C1([H])N(C(=O)C([H])(N([H])C(=O)C([H])(N([H])C([H])([H])[H])C([H])([H])[H])C(C([H])([H])[H])(C([H])([H])[H])C([H])([H])[H])C([H])([H])c2c([H])c(OC([H])([H])C([H])([H])C([H])([H])C([H])([H])C([H])([H])C([H])([H])c3c([H])c([H])c(C([H])(C([H])([H])C([H])([H])C([H])([H])C(=O)N4C([H])([H])C([H])([H])C([H])([H])C([H])(n5nc(-c6c([H])c([H])c(Oc7c([H])c([H])c(F)c([H])c7F)c([H])c6[H])c(C(=O)N([H])[H])c5N([H])[H])C4([H])[H])[N+]([H])([H])[H])c([H])c3[H])c([H])c([H])c2C1([H])[H]

>  <smiles>  (28) 
[H]c1c([H])c([H])c2c(c1[H])C([H])([H])C([H])([H])C([H])([H])C2([H])N([H])C(=O)C1([H])N(C(=O)C([H])(N([H])C(=O)C([H])(N([H])C([H])([H])[H])C([H])([H])[H])C(C([H])([H])[H])(C([H])([H])[H])C([H])([H])[H])C([H])([H])c2c([H])c(OC([H])([H])C([H])([H])C([H])([H])C([H])([H])C([H])([H])C([H])([H])c3c([H])c([H])c(C([H])(C([H])([H])C([H])([H])C([H])([H])C(=O)N4C([H])([H])C([H])([H])C([H])([H])C([H])(n5nc(-c6c([H])c([H])c(Oc7c([H])c([H])c(F)c([H])c7F)c([H])c6[H])c(C(=O)N([H])[H])c5N([H])[H])C4([H])[H])[N+]([H])([H])[H])c([H])c3[H])c([H])c([H])c2C1([H])[H]

$$$$
28:0:0
     RDKit          3D

 94102  0  0  1  0  0  0  0  0999 V2000
  -28.3620  -21.4640   23.5500 C   0  0  0  0  0  1  0  0  0  0  0  0
  -29.5320  -21.8130   22.6140 C   0  0  0  0  0  3  0  0  0  0  0  0
  -31.5170  -20.2370   22.3860 C   0  0  0  0  0  3  0  0  0  0  0  0
  -29.4880  -19.6960   21.1580 C   0  0  0  0  0  3  0  0  0  0  0  0
  -32.1400  -19.0930   21.8520 C   0  0  0  0  0  3  0  0  0  0  0  0
  -30.1090  -18.5410   20.6330 C   0  0  0  0  0  3  0  0  0  0  0  0
  -30.1880  -20.5560   22.0350 C   0  0  0  0  0  0  0  0  0  0  0  0
  -31.4480  -18.2400   20.9670 C   0  0  0  0  0  0  0  0  0  0  0  0
  -32.2720  -17.3310   18.7810 C   0  0  0  0  0  1  0  0  0  0  0  0
  -32.1950  -17.0870   20.3010 C   0  0  0  0  0  3  0  0  0  0  0  0
  -32.2680  -14.6150   20.1950 C   0  0  0  0  0  0  0  0  0  0  0  0
  -31.7460  -12.5270   19.0180 C   0  0  0  0  0  2  0  0  0  0  0  0
  -30.8230  -12.8650   17.8280 C   0  0  0  0  0  2  0  0  0  0  0  0
  -29.3460  -12.8530   18.2660 C   0  0  0  0  0  2  0  0  0  0  0  0
  -29.0960  -13.6750   19.5600 C   0  0  0  0  0  3  0  0  0  0  0  0
  -30.1400  -13.3410   20.6520 C   0  0  0  0  0  2  0  0  0  0  0  0
  -31.4780  -13.5180   20.0720 N   0  0  0  0  0  0  0  0  0  0  0  0
  -33.4240  -14.6520   19.7670 O   0  0  0  0  0  0  0  0  0  0  0  0
  -31.6520  -15.7470   20.5810 N   0  0  0  0  0  0  0  0  0  0  0  0
  -30.6990  -15.6770   20.9050 H   0  0  0  0  0  0  0  0  0  0  0  0
  -26.7570  -14.4620   20.2890 C   0  0  0  0  0  0  0  0  0  0  0  0
  -25.6350  -13.7720   20.6610 C   0  0  0  0  0  0  0  0  0  0  0  0
  -25.9870  -12.3880   20.6150 C   0  0  0  0  0  0  0  0  0  0  0  0
  -27.7280  -13.5030   20.0470 N   0  0  0  0  0  0  0  0  0  0  0  0
  -27.2680  -12.2510   20.2980 N   0  0  0  0  0  0  0  0  0  0  0  0
  -25.1640  -11.1860   20.7980 C   0  0  0  0  0  0  0  0  0  0  0  0
  -25.4580  -10.2360   21.8000 C   0  0  0  0  0  3  0  0  0  0  0  0
  -24.6430   -9.0960   21.9690 C   0  0  0  0  0  3  0  0  0  0  0  0
  -23.5170   -8.9000   21.1340 C   0  0  0  0  0  0  0  0  0  0  0  0
  -23.2410   -9.8370   20.1230 C   0  0  0  0  0  3  0  0  0  0  0  0
  -24.0570  -10.9680   19.9530 C   0  0  0  0  0  3  0  0  0  0  0  0
  -22.6820   -7.8110   21.2090 O   0  0  0  0  0  0  0  0  0  0  0  0
  -22.3720   -7.2230   22.4090 C   0  0  0  0  0  0  0  0  0  0  0  0
  -21.7930   -7.9530   23.4700 C   0  0  0  0  0  3  0  0  0  0  0  0
  -21.4270   -7.2940   24.6610 C   0  0  0  0  0  3  0  0  0  0  0  0
  -21.6280   -5.9070   24.7880 C   0  0  0  0  0  0  0  0  0  0  0  0
  -22.1970   -5.1770   23.7300 C   0  0  0  0  0  3  0  0  0  0  0  0
  -22.5650   -5.8330   22.5420 C   0  0  0  0  0  0  0  0  0  0  0  0
  -23.0950   -5.1220   21.5180 F   0  0  0  0  0  0  0  0  0  0  0  0
  -21.2680   -5.2710   25.9280 F   0  0  0  0  0  0  0  0  0  0  0  0
  -24.2810  -14.3560   20.9450 C   0  0  0  0  0  0  0  0  0  0  0  0
  -23.5220  -13.7360   21.8420 N   0  0  0  0  0  0  0  0  0  0  0  0
  -23.9060  -15.3970   20.4060 O   0  0  0  0  0  0  0  0  0  0  0  0
  -23.8380  -12.8930   22.3000 H   0  0  0  0  0  0  0  0  0  0  0  0
  -22.6130  -14.1090   22.0750 H   0  0  0  0  0  0  0  0  0  0  0  0
  -27.0280  -15.8150   20.1180 N   0  0  0  0  0  0  0  0  0  0  0  0
  -26.3070  -16.5210   20.2190 H   0  0  0  0  0  0  0  0  0  0  0  0
  -27.8890  -16.1820   19.7350 H   0  0  0  0  0  0  0  0  0  0  0  0
  -29.0950  -22.8190   21.5190 C   0  0  0  0  0  2  0  0  0  0  0  0
  -30.1890  -23.7660   20.9990 C   0  0  0  0  0  0  0  0  0  0  0  0
  -31.3270  -23.7770   21.4810 O   0  0  0  0  0  0  0  0  0  0  0  0
  -29.8060  -24.7180   19.8560 C   0  0  0  0  0  2  0  0  0  0  0  0
  -30.1750  -26.1920   20.1260 C   0  0  0  0  0  2  0  0  0  0  0  0
  -29.7020  -27.0440   19.0810 O   0  0  0  0  0  0  0  0  0  0  0  0
  -25.0060  -30.7390   22.9540 C   0  0  0  0  0  0  0  0  0  0  0  0
  -28.4160  -27.4940   19.2310 C   0  0  0  0  0  0  0  0  0  0  0  0
  -24.0660  -29.4040   21.0900 C   0  0  0  0  0  3  0  0  0  0  0  0
  -25.7690  -28.4390   19.4540 C   0  0  0  0  0  0  0  0  0  0  0  0
  -26.4580  -30.2970   20.9790 C   0  0  0  0  0  2  0  0  0  0  0  0
  -26.8040  -29.0900   20.1370 C   0  0  0  0  0  0  0  0  0  0  0  0
  -28.1310  -28.6200   20.0320 C   0  0  0  0  0  3  0  0  0  0  0  0
  -27.3720  -26.8480   18.5400 C   0  0  0  0  0  3  0  0  0  0  0  0
  -26.0470  -27.3130   18.6550 C   0  0  0  0  0  3  0  0  0  0  0  0
  -24.3780  -29.0080   19.6210 C   0  0  0  0  0  2  0  0  0  0  0  0
  -25.1930  -30.1550   21.7350 N   0  0  0  0  0  0  0  0  0  0  0  0
  -23.9060  -30.6950   23.5200 O   0  0  0  0  0  0  0  0  0  0  0  0
  -23.6580  -28.1310   21.8670 C   0  0  0  0  0  0  0  0  0  0  0  0
  -22.4160  -27.6700   21.6460 N   0  0  0  0  0  0  0  0  0  0  0  0
  -24.4550  -27.5690   22.6220 O   0  0  0  0  0  0  0  0  0  0  0  0
  -21.8220  -28.1930   21.0180 H   0  0  0  0  0  0  0  0  0  0  0  0
  -19.4210  -25.6560   21.7580 C   0  0  0  0  0  0  0  0  0  0  0  0
  -21.8280  -26.4660   22.2340 C   0  0  0  0  0  3  0  0  0  0  0  0
  -22.2960  -25.1960   21.4870 C   0  0  0  0  0  2  0  0  0  0  0  0
  -21.3410  -24.7680   20.3680 C   0  0  0  0  0  2  0  0  0  0  0  0
  -19.9430  -24.4920   20.9320 C   0  0  0  0  0  2  0  0  0  0  0  0
  -20.3070  -26.5900   22.3570 C   0  0  0  0  0  0  0  0  0  0  0  0
  -19.7690  -27.6710   23.0890 C   0  0  0  0  0  3  0  0  0  0  0  0
  -18.3780  -27.8240   23.2290 C   0  0  0  0  0  3  0  0  0  0  0  0
  -17.5060  -26.8850   22.6510 C   0  0  0  0  0  3  0  0  0  0  0  0
  -18.0270  -25.8030   21.9200 C   0  0  0  0  0  3  0  0  0  0  0  0
  -26.1560  -31.5040   23.6800 C   0  0  0  0  0  3  0  0  0  0  0  0
  -25.6290  -32.8140   24.0840 N   0  0  0  0  0  0  0  0  0  0  0  0
  -25.8460  -33.9570   23.4220 C   0  0  0  0  0  0  0  0  0  0  0  0
  -26.5830  -34.0300   22.4340 O   0  0  0  0  0  0  0  0  0  0  0  0
  -24.9750  -32.8210   24.8540 H   0  0  0  0  0  0  0  0  0  0  0  0
  -23.8990  -35.5060   23.0660 C   0  0  0  0  0  1  0  0  0  0  0  0
  -25.1320  -35.2210   23.9370 C   0  0  0  0  0  3  0  0  0  0  0  0
  -27.0550  -36.3340   24.9790 C   0  0  0  0  0  1  0  0  0  0  0  0
  -26.0030  -36.4170   23.9720 N   0  0  0  0  0  0  0  0  0  0  0  0
  -25.4570  -37.2550   24.1510 H   0  0  0  0  0  0  0  0  0  0  0  0
  -26.7340  -30.7250   24.9250 C   0  0  1  0  0  0  0  0  0  0  0  0
  -25.6500  -30.2410   25.9140 C   0  0  0  0  0  1  0  0  0  0  0  0
  -27.5430  -29.4890   24.4640 C   0  0  0  0  0  1  0  0  0  0  0  0
  -27.7160  -31.6330   25.7030 C   0  0  0  0  0  1  0  0  0  0  0  0
  2  1  1  0
  4  7  2  0
  5  3  2  0
  6  8  2  0
  6  4  1  0
  7  3  1  0
  7  2  1  0
  8  5  1  0
 10  9  1  0
 10 19  1  0
 10  8  1  0
 11 19  1  0
 12 17  1  0
 13 14  1  0
 13 12  1  0
 15 14  1  0
 15 24  1  0
 15 16  1  0
 17 11  1  0
 17 16  1  0
 18 11  2  0
 19 20  1  0
 21 22  2  0
 22 41  1  0
 23 22  1  0
 23 26  1  0
 24 21  1  0
 24 25  1  0
 25 23  2  0
 26 27  1  0
 27 28  2  0
 29 32  1  0
 29 28  1  0
 30 29  2  0
 31 30  1  0
 31 26  2  0
 32 33  1  0
 33 38  2  0
 33 34  1  0
 34 35  2  0
 35 36  1  0
 36 40  1  0
 37 36  2  0
 38 37  1  0
 39 38  1  0
 41 42  1  0
 42 45  1  0
 42 44  1  0
 43 41  2  0
 46 47  1  0
 46 21  1  0
 48 46  1  0
 49  2  1  0
 50 51  2  0
 50 49  1  0
 52 53  1  0
 52 50  1  0
 54 56  1  0
 54 53  1  0
 55 66  2  0
 56 61  1  0
 57 65  1  0
 57 67  1  0
 58 64  1  0
 58 60  1  0
 59 65  1  0
 60 59  1  0
 61 60  2  0
 62 63  1  0
 62 56  2  0
 63 58  2  0
 64 57  1  0
 65 55  1  0
 67 69  2  0
 68 67  1  0
 70 68  1  0
 71 80  2  0
 71 76  1  0
 72 68  1  0
 72 76  1  0
 73 72  1  0
 74 75  1  0
 74 73  1  0
 75 71  1  0
 76 77  2  0
 77 78  1  0
 79 78  2  0
 80 79  1  0
 81 55  1  0
 81 82  1  0
 81 91  1  0
 82 85  1  0
 83 87  1  0
 83 82  1  0
 84 83  2  0
 87 86  1  0
 87 89  1  0
 89 90  1  0
 89 88  1  0
 91 94  1  1
 91 92  1  0
 93 91  1  0
M  ISO  4  11 100  19 100  53 101  54 101
M  END
>  <TORSDO>  (29) 
F 22

>  <SCORE>  (29) 
-5.673

>  <name>  (29) 
28

>  <ligand_id>  (29) 
28

>  <original_smiles>  (29) 
[H]c1c([H])c([H])c2c(c1[H])C([H])([H])C([H])([H])C([H])([H])C2([H])N([H])C(=O)C1([H])N(C(=O)C([H])(N([H])C(=O)C([H])(N([H])C([H])([H])[H])C([H])([H])[H])C(C([H])([H])[H])(C([H])([H])[H])C([H])([H])[H])C([H])([H])c2c([H])c(OC([H])([H])C([H])([H])C(=O)C([H])([H])C([H])(c3c([H])c([H])c(C([H])(N([H])C(=O)N4C([H])([H])C([H])([H])C([H])([H])C([H])(n5nc(-c6c([H])c([H])c(Oc7c([H])c([H])c(F)c([H])c7F)c([H])c6[H])c(C(=O)N([H])[H])c5N([H])[H])C4([H])[H])C([H])([H])[H])c([H])c3[H])C([H])([H])[H])c([H])c([H])c2C1([H])[H]

>  <smiles>  (29) 
[H]c1c([H])c([H])c2c(c1[H])C([H])([H])C([H])([H])C([H])([H])C2([H])N([H])C(=O)C1([H])N(C(=O)C([H])(N([H])C(=O)C([H])(N([H])C([H])([H])[H])C([H])([H])[H])C(C([H])([H])[H])(C([H])([H])[H])C([H])([H])[H])C([H])([H])c2c([H])c(OC([H])([H])C([H])([H])C(=O)C([H])([H])C([H])(c3c([H])c([H])c(C([H])(N([H])C(=O)N4C([H])([H])C([H])([H])C([H])([H])C([H])(n5nc(-c6c([H])c([H])c(Oc7c([H])c([H])c(F)c([H])c7F)c([H])c6[H])c(C(=O)N([H])[H])c5N([H])[H])C4([H])[H])C([H])([H])[H])c([H])c3[H])C([H])([H])[H])c([H])c([H])c2C1([H])[H]

$$$$
29:0:0
     RDKit          3D

 99107  0  0  1  0  0  0  0  0999 V2000
  -32.9580  -25.0540   18.8640 C   0  0  0  0  0  3  0  0  0  0  0  0
  -32.8880  -26.3960   19.2850 C   0  0  0  0  0  3  0  0  0  0  0  0
  -31.5910  -24.3910   20.7600 C   0  0  0  0  0  3  0  0  0  0  0  0
  -32.2910  -24.0380   19.5830 C   0  0  0  0  0  0  0  0  0  0  0  0
  -31.5160  -25.7350   21.1990 C   0  0  0  0  0  0  0  0  0  0  0  0
  -32.1690  -26.7440   20.4460 C   0  0  0  0  0  0  0  0  0  0  0  0
  -32.1520  -28.0810   20.8390 N   0  0  0  0  0  0  0  0  0  0  0  0
  -32.4530  -28.7870   20.1740 H   0  0  0  0  0  0  0  0  0  0  0  0
  -31.4030  -28.3990   21.4440 H   0  0  0  0  0  0  0  0  0  0  0  0
  -32.4080  -22.6190   19.1280 C   0  0  0  0  0  0  0  0  0  0  0  0
  -33.3480  -22.2200   18.4320 O   0  0  0  0  0  0  0  0  0  0  0  0
  -31.2690  -21.6400   19.4690 C   0  0  0  0  0  2  0  0  0  0  0  0
  -31.7440  -20.3280   20.1400 C   0  0  0  0  0  2  0  0  0  0  0  0
  -30.6150  -19.2860   20.3060 C   0  0  0  0  0  2  0  0  0  0  0  0
  -31.0990  -17.9300   20.8680 C   0  0  0  0  0  2  0  0  0  0  0  0
  -30.0030  -16.8370   20.8950 C   0  0  0  0  0  2  0  0  0  0  0  0
  -30.4870  -15.4360   21.3620 C   0  0  0  0  0  2  0  0  0  0  0  0
  -30.7860  -14.4310   20.2250 C   0  0  0  0  0  0  0  0  0  0  0  0
  -30.3200  -12.3760   18.9200 C   0  0  0  0  0  2  0  0  0  0  0  0
  -29.3120  -12.6380   17.7850 C   0  0  0  0  0  2  0  0  0  0  0  0
  -27.8690  -12.4860   18.2960 C   0  0  0  0  0  2  0  0  0  0  0  0
  -27.6210  -13.2770   19.6050 C   0  0  0  0  0  3  0  0  0  0  0  0
  -28.7320  -12.9950   20.6400 C   0  0  0  0  0  2  0  0  0  0  0  0
  -30.0340  -13.3090   20.0240 N   0  0  0  0  0  0  0  0  0  0  0  0
  -31.7680  -14.6810   19.5210 O   0  0  0  0  0  0  0  0  0  0  0  0
  -25.2700  -13.8910   20.4650 C   0  0  0  0  0  0  0  0  0  0  0  0
  -24.2120  -13.1190   20.8640 C   0  0  0  0  0  0  0  0  0  0  0  0
  -24.6510  -11.7640   20.7620 C   0  0  0  0  0  0  0  0  0  0  0  0
  -26.2900  -13.0060   20.1470 N   0  0  0  0  0  0  0  0  0  0  0  0
  -25.9200  -11.7190   20.3800 N   0  0  0  0  0  0  0  0  0  0  0  0
  -23.9180  -10.5050   20.9530 C   0  0  0  0  0  0  0  0  0  0  0  0
  -24.3940   -9.4960   21.8160 C   0  0  0  0  0  3  0  0  0  0  0  0
  -23.6650   -8.2980   21.9920 C   0  0  0  0  0  3  0  0  0  0  0  0
  -22.4440   -8.1060   21.3040 C   0  0  0  0  0  0  0  0  0  0  0  0
  -21.9870   -9.1030   20.4240 C   0  0  0  0  0  3  0  0  0  0  0  0
  -22.7150  -10.2900   20.2470 C   0  0  0  0  0  3  0  0  0  0  0  0
  -21.6770   -6.9700   21.3950 O   0  0  0  0  0  0  0  0  0  0  0  0
  -21.6920   -6.1800   22.5170 C   0  0  0  0  0  0  0  0  0  0  0  0
  -21.3700   -6.6920   23.7930 C   0  0  0  0  0  3  0  0  0  0  0  0
  -21.3310   -5.8310   24.9070 C   0  0  0  0  0  3  0  0  0  0  0  0
  -21.6010   -4.4590   24.7470 C   0  0  0  0  0  0  0  0  0  0  0  0
  -21.9160   -3.9460   23.4750 C   0  0  0  0  0  3  0  0  0  0  0  0
  -21.9580   -4.8050   22.3640 C   0  0  0  0  0  0  0  0  0  0  0  0
  -22.2410   -4.3020   21.1380 F   0  0  0  0  0  0  0  0  0  0  0  0
  -21.5530   -3.6280   25.8150 F   0  0  0  0  0  0  0  0  0  0  0  0
  -22.8390  -13.6030   21.2330 C   0  0  0  0  0  0  0  0  0  0  0  0
  -22.1540  -12.8870   22.1190 N   0  0  0  0  0  0  0  0  0  0  0  0
  -22.3830  -14.6490   20.7730 O   0  0  0  0  0  0  0  0  0  0  0  0
  -22.5380  -12.0410   22.5140 H   0  0  0  0  0  0  0  0  0  0  0  0
  -21.2350  -13.1870   22.4090 H   0  0  0  0  0  0  0  0  0  0  0  0
  -25.4480  -15.2640   20.3250 N   0  0  0  0  0  0  0  0  0  0  0  0
  -24.7050  -15.9330   20.4970 H   0  0  0  0  0  0  0  0  0  0  0  0
  -26.2990  -15.6930   19.9830 H   0  0  0  0  0  0  0  0  0  0  0  0
  -30.7950  -26.0270   22.5160 C   0  0  0  0  0  2  0  0  0  0  0  0
  -29.3490  -25.4980   22.5770 C   0  0  0  0  0  2  0  0  0  0  0  0
  -28.2770  -26.4440   22.0030 C   0  0  0  0  0  2  0  0  0  0  0  0
  -27.1990  -25.7050   21.1900 C   0  0  0  0  0  2  0  0  0  0  0  0
  -27.5700  -25.5380   19.6980 C   0  0  0  0  0  2  0  0  0  0  0  0
  -27.6160  -26.7910   19.0110 O   0  0  0  0  0  0  0  0  0  0  0  0
  -24.4000  -31.6650   23.0150 C   0  0  0  0  0  0  0  0  0  0  0  0
  -26.4930  -27.5590   19.1800 C   0  0  0  0  0  0  0  0  0  0  0  0
  -22.9580  -30.5100   21.3640 C   0  0  0  0  0  3  0  0  0  0  0  0
  -24.1810  -29.1020   19.6240 C   0  0  0  0  0  0  0  0  0  0  0  0
  -25.4590  -30.8110   20.9300 C   0  0  0  0  0  2  0  0  0  0  0  0
  -25.4140  -29.5250   20.1360 C   0  0  0  0  0  0  0  0  0  0  0  0
  -26.5770  -28.7590   19.9120 C   0  0  0  0  0  3  0  0  0  0  0  0
  -25.2510  -27.1430   18.6570 C   0  0  0  0  0  3  0  0  0  0  0  0
  -24.0920  -27.9110   18.8790 C   0  0  0  0  0  3  0  0  0  0  0  0
  -22.9860  -29.9860   19.9030 C   0  0  0  0  0  2  0  0  0  0  0  0
  -24.2980  -31.0030   21.8280 N   0  0  0  0  0  0  0  0  0  0  0  0
  -23.3970  -31.9100   23.6980 O   0  0  0  0  0  0  0  0  0  0  0  0
  -22.3630  -29.4090   22.2710 C   0  0  0  0  0  0  0  0  0  0  0  0
  -21.0250  -29.2860   22.2580 N   0  0  0  0  0  0  0  0  0  0  0  0
  -23.0950  -28.6740   22.9380 O   0  0  0  0  0  0  0  0  0  0  0  0
  -20.4980  -29.9400   21.6980 H   0  0  0  0  0  0  0  0  0  0  0  0
  -17.6630  -28.1340   22.9150 C   0  0  0  0  0  0  0  0  0  0  0  0
  -20.2410  -28.2930   22.9940 C   0  0  0  0  0  3  0  0  0  0  0  0
  -20.2480  -26.9270   22.2710 C   0  0  0  0  0  2  0  0  0  0  0  0
  -19.0560  -26.7390   21.3260 C   0  0  0  0  0  2  0  0  0  0  0  0
  -17.7380  -26.8550   22.0980 C   0  0  0  0  0  2  0  0  0  0  0  0
  -18.8390  -28.8170   23.3240 C   0  0  0  0  0  0  0  0  0  0  0  0
  -18.7160  -30.0190   24.0520 C   0  0  0  0  0  3  0  0  0  0  0  0
  -17.4480  -30.5380   24.3750 C   0  0  0  0  0  3  0  0  0  0  0  0
  -16.2870  -29.8480   23.9850 C   0  0  0  0  0  3  0  0  0  0  0  0
  -16.3950  -28.6480   23.2600 C   0  0  0  0  0  3  0  0  0  0  0  0
  -25.7770  -32.1670   23.5560 C   0  0  0  0  0  3  0  0  0  0  0  0
  -25.5800  -33.5310   24.0660 N   0  0  0  0  0  0  0  0  0  0  0  0
  -25.9080  -34.6470   23.3990 C   0  0  0  0  0  0  0  0  0  0  0  0
  -26.4850  -34.6280   22.3070 O   0  0  0  0  0  0  0  0  0  0  0  0
  -25.0690  -33.6220   24.9320 H   0  0  0  0  0  0  0  0  0  0  0  0
  -24.2650  -36.5510   23.3960 C   0  0  0  0  0  1  0  0  0  0  0  0
  -25.5420  -35.9950   24.0460 C   0  0  0  0  0  3  0  0  0  0  0  0
  -27.7880  -36.6710   24.7760 C   0  0  0  0  0  1  0  0  0  0  0  0
  -26.6230  -37.0020   23.9610 N   0  0  0  0  0  0  0  0  0  0  0  0
  -26.2850  -37.9170   24.2470 H   0  0  0  0  0  0  0  0  0  0  0  0
  -26.3820  -31.2330   24.6750 C   0  0  1  0  0  0  0  0  0  0  0  0
  -25.3980  -30.9300   25.8290 C   0  0  0  0  0  1  0  0  0  0  0  0
  -26.8380  -29.8840   24.0710 C   0  0  0  0  0  1  0  0  0  0  0  0
  -27.6390  -31.8960   25.2890 C   0  0  0  0  0  1  0  0  0  0  0  0
  1  2  2  0
  1  4  1  0
  2  6  1  0
  3  5  1  0
  4  3  2  0
  5 54  1  0
  6  7  1  0
  6  5  2  0
  7  9  1  0
  8  7  1  0
 10 12  1  0
 10  4  1  0
 11 10  2  0
 12 13  1  0
 13 14  1  0
 14 15  1  0
 15 16  1  0
 16 17  1  0
 18 17  1  0
 19 24  1  0
 20 21  1  0
 20 19  1  0
 22 21  1  0
 22 29  1  0
 22 23  1  0
 24 18  1  0
 24 23  1  0
 25 18  2  0
 26 27  2  0
 27 46  1  0
 28 27  1  0
 28 31  1  0
 29 30  1  0
 29 26  1  0
 30 28  2  0
 31 32  1  0
 32 33  2  0
 34 37  1  0
 34 33  1  0
 35 34  2  0
 36 35  1  0
 36 31  2  0
 37 38  1  0
 38 39  1  0
 39 40  2  0
 41 40  1  0
 41 45  1  0
 42 41  2  0
 43 38  2  0
 43 42  1  0
 44 43  1  0
 46 47  1  0
 47 50  1  0
 47 49  1  0
 48 46  2  0
 51 26  1  0
 51 52  1  0
 53 51  1  0
 54 55  1  0
 56 55  1  0
 57 56  1  0
 58 57  1  0
 59 61  1  0
 59 58  1  0
 60 71  2  0
 61 66  1  0
 62 70  1  0
 62 72  1  0
 63 69  1  0
 63 65  1  0
 64 70  1  0
 65 64  1  0
 66 65  2  0
 67 68  1  0
 67 61  2  0
 68 63  2  0
 69 62  1  0
 70 60  1  0
 72 74  2  0
 73 72  1  0
 75 73  1  0
 76 85  2  0
 76 81  1  0
 77 73  1  0
 77 81  1  0
 78 77  1  0
 79 80  1  0
 79 78  1  0
 80 76  1  0
 81 82  2  0
 82 83  1  0
 84 83  2  0
 85 84  1  0
 86 60  1  0
 86 87  1  0
 86 96  1  0
 87 90  1  0
 88 92  1  0
 88 87  1  0
 89 88  2  0
 92 91  1  0
 94 92  1  0
 94 95  1  0
 94 93  1  0
 96 99  1  1
 96 97  1  0
 98 96  1  0
M  ISO  4  17 100  18 100  58 101  59 101
M  END
>  <TORSDO>  (30) 
F 29

>  <SCORE>  (30) 
-10.035

>  <name>  (30) 
29

>  <ligand_id>  (30) 
29

>  <original_smiles>  (30) 
[H]c1c([H])c([H])c2c(c1[H])C([H])([H])C([H])([H])C([H])([H])C2([H])N([H])C(=O)C1([H])N(C(=O)C([H])(N([H])C(=O)C([H])(N([H])C([H])([H])[H])C([H])([H])[H])C(C([H])([H])[H])(C([H])([H])[H])C([H])([H])[H])C([H])([H])c2c([H])c(OC([H])([H])C([H])([H])C([H])([H])C([H])([H])C([H])([H])c3c([H])c(C(=O)C([H])([H])C([H])([H])C([H])([H])C([H])([H])C([H])([H])C([H])([H])C(=O)N4C([H])([H])C([H])([H])C([H])([H])C([H])(n5nc(-c6c([H])c([H])c(Oc7c([H])c([H])c(F)c([H])c7F)c([H])c6[H])c(C(=O)N([H])[H])c5N([H])[H])C4([H])[H])c([H])c([H])c3N([H])[H])c([H])c([H])c2C1([H])[H]

>  <smiles>  (30) 
[H]c1c([H])c([H])c2c(c1[H])C([H])([H])C([H])([H])C([H])([H])C2([H])N([H])C(=O)C1([H])N(C(=O)C([H])(N([H])C(=O)C([H])(N([H])C([H])([H])[H])C([H])([H])[H])C(C([H])([H])[H])(C([H])([H])[H])C([H])([H])[H])C([H])([H])c2c([H])c(OC([H])([H])C([H])([H])C([H])([H])C([H])([H])C([H])([H])c3c([H])c(C(=O)C([H])([H])C([H])([H])C([H])([H])C([H])([H])C([H])([H])C([H])([H])C(=O)N4C([H])([H])C([H])([H])C([H])([H])C([H])(n5nc(-c6c([H])c([H])c(Oc7c([H])c([H])c(F)c([H])c7F)c([H])c6[H])c(C(=O)N([H])[H])c5N([H])[H])C4([H])[H])c([H])c([H])c3N([H])[H])c([H])c([H])c2C1([H])[H]

$$$$
30:0:0
     RDKit          3D

 95103  0  0  1  0  0  0  0  0999 V2000
  -23.7530  -24.3300   23.5200 C   0  0  0  0  0  3  0  0  0  0  0  0
  -24.9580  -25.0370   23.3700 C   0  0  0  0  0  3  0  0  0  0  0  0
  -23.7400  -22.9210   23.4280 C   0  0  0  0  0  3  0  0  0  0  0  0
  -26.1550  -22.9360   23.1160 C   0  0  0  0  0  3  0  0  0  0  0  0
  -26.1700  -24.3470   23.1560 C   0  0  0  0  0  0  0  0  0  0  0  0
  -24.9440  -22.2060   23.2260 C   0  0  0  0  0  0  0  0  0  0  0  0
  -27.3860  -25.1170   22.8410 C   0  0  0  0  0  3  0  0  0  0  0  0
  -28.4230  -24.6720   22.0990 C   0  0  0  0  0  3  0  0  0  0  0  0
  -29.6420  -25.4890   21.7010 C   0  0  0  0  0  2  0  0  0  0  0  0
  -29.2850  -26.8950   21.1970 C   0  0  0  0  0  2  0  0  0  0  0  0
  -28.4060  -26.7570   20.0770 O   0  0  0  0  0  0  0  0  0  0  0  0
  -24.6060  -31.8760   23.2160 C   0  0  0  0  0  0  0  0  0  0  0  0
  -27.2550  -27.5060   20.1040 C   0  0  0  0  0  0  0  0  0  0  0  0
  -23.3930  -30.5010   21.5490 C   0  0  0  0  0  3  0  0  0  0  0  0
  -24.8430  -28.9700   20.1160 C   0  0  0  0  0  0  0  0  0  0  0  0
  -25.9110  -30.8670   21.3550 C   0  0  0  0  0  2  0  0  0  0  0  0
  -25.9920  -29.5040   20.7100 C   0  0  0  0  0  0  0  0  0  0  0  0
  -27.1990  -28.7880   20.6930 C   0  0  0  0  0  3  0  0  0  0  0  0
  -26.0940  -26.9750   19.5030 C   0  0  0  0  0  3  0  0  0  0  0  0
  -24.8860  -27.7020   19.5040 C   0  0  0  0  0  3  0  0  0  0  0  0
  -23.6020  -29.8330   20.1630 C   0  0  0  0  0  2  0  0  0  0  0  0
  -24.6540  -31.0970   22.1010 N   0  0  0  0  0  0  0  0  0  0  0  0
  -23.5270  -32.1460   23.7590 O   0  0  0  0  0  0  0  0  0  0  0  0
  -22.7330  -29.4790   22.5000 C   0  0  0  0  0  0  0  0  0  0  0  0
  -21.4040  -29.3220   22.3760 N   0  0  0  0  0  0  0  0  0  0  0  0
  -23.4110  -28.8300   23.3020 O   0  0  0  0  0  0  0  0  0  0  0  0
  -20.9190  -29.9020   21.7070 H   0  0  0  0  0  0  0  0  0  0  0  0
  -18.0290  -28.1320   22.8550 C   0  0  0  0  0  0  0  0  0  0  0  0
  -20.5850  -28.3770   23.1330 C   0  0  0  0  0  3  0  0  0  0  0  0
  -20.6890  -26.9500   22.5430 C   0  0  0  0  0  2  0  0  0  0  0  0
  -19.5840  -26.6380   21.5260 C   0  0  0  0  0  2  0  0  0  0  0  0
  -18.2030  -26.7850   22.1750 C   0  0  0  0  0  2  0  0  0  0  0  0
  -19.1490  -28.8870   23.2950 C   0  0  0  0  0  0  0  0  0  0  0  0
  -18.9350  -30.1500   23.8860 C   0  0  0  0  0  3  0  0  0  0  0  0
  -17.6310  -30.6600   24.0430 C   0  0  0  0  0  3  0  0  0  0  0  0
  -16.5240  -29.9010   23.6210 C   0  0  0  0  0  3  0  0  0  0  0  0
  -16.7240  -28.6370   23.0380 C   0  0  0  0  0  3  0  0  0  0  0  0
  -25.8970  -32.4870   23.8470 C   0  0  0  0  0  3  0  0  0  0  0  0
  -26.4450  -31.6610   25.0760 C   0  0  1  0  0  0  0  0  0  0  0  0
  -25.3750  -31.3680   26.1550 C   0  0  0  0  0  1  0  0  0  0  0  0
  -27.0260  -30.3070   24.6030 C   0  0  0  0  0  1  0  0  0  0  0  0
  -27.6080  -32.4310   25.7490 C   0  0  0  0  0  1  0  0  0  0  0  0
  -25.5870  -33.8670   24.2430 N   0  0  0  0  0  0  0  0  0  0  0  0
  -25.9000  -34.9520   23.5200 C   0  0  0  0  0  0  0  0  0  0  0  0
  -26.5560  -34.8950   22.4760 O   0  0  0  0  0  0  0  0  0  0  0  0
  -25.0000  -33.9830   25.0570 H   0  0  0  0  0  0  0  0  0  0  0  0
  -24.1470  -36.7360   23.2650 C   0  0  0  0  0  1  0  0  0  0  0  0
  -25.4090  -36.3180   24.0370 C   0  0  0  0  0  3  0  0  0  0  0  0
  -27.5590  -37.1840   24.8490 C   0  0  0  0  0  1  0  0  0  0  0  0
  -26.4310  -37.3840   23.9430 N   0  0  0  0  0  0  0  0  0  0  0  0
  -26.0210  -38.2930   24.1420 H   0  0  0  0  0  0  0  0  0  0  0  0
  -24.9280  -20.7170   23.0800 C   0  0  0  0  0  0  0  0  0  0  0  0
  -23.8860  -20.0590   22.9690 O   0  0  0  0  0  0  0  0  0  0  0  0
  -26.2990  -20.0190   23.0630 C   0  0  0  0  0  2  0  0  0  0  0  0
  -26.2880  -18.4860   22.8940 C   0  0  0  0  0  2  0  0  0  0  0  0
  -27.7090  -17.8970   23.0650 C   0  0  0  0  0  2  0  0  0  0  0  0
  -27.8950  -16.5290   22.3870 C   0  0  0  0  0  2  0  0  0  0  0  0
  -29.3540  -15.9910   22.3670 C   0  0  0  0  0  2  0  0  0  0  0  0
  -29.8780  -15.7620   20.9220 C   0  0  0  0  0  2  0  0  0  0  0  0
  -30.6750  -14.4780   20.5830 C   0  0  0  0  0  0  0  0  0  0  0  0
  -30.4340  -12.2980   19.4540 C   0  0  0  0  0  2  0  0  0  0  0  0
  -29.5100  -12.4630   18.2260 C   0  0  0  0  0  2  0  0  0  0  0  0
  -28.0330  -12.3020   18.6370 C   0  0  0  0  0  2  0  0  0  0  0  0
  -27.6600  -13.1820   19.8580 C   0  0  0  0  0  3  0  0  0  0  0  0
  -28.6910  -12.9900   20.9890 C   0  0  0  0  0  2  0  0  0  0  0  0
  -30.0270  -13.2910   20.4590 N   0  0  0  0  0  0  0  0  0  0  0  0
  -31.8320  -14.6350   20.1790 O   0  0  0  0  0  0  0  0  0  0  0  0
  -25.2600  -13.8060   20.5550 C   0  0  0  0  0  0  0  0  0  0  0  0
  -24.1850  -13.0400   20.9140 C   0  0  0  0  0  0  0  0  0  0  0  0
  -24.6370  -11.6870   20.8710 C   0  0  0  0  0  0  0  0  0  0  0  0
  -26.3000  -12.9210   20.3240 N   0  0  0  0  0  0  0  0  0  0  0  0
  -25.9290  -11.6400   20.5710 N   0  0  0  0  0  0  0  0  0  0  0  0
  -23.9010  -10.4290   21.0400 C   0  0  0  0  0  0  0  0  0  0  0  0
  -24.3580   -9.4220   21.9190 C   0  0  0  0  0  3  0  0  0  0  0  0
  -23.6290   -8.2240   22.0750 C   0  0  0  0  0  3  0  0  0  0  0  0
  -22.4280   -8.0260   21.3550 C   0  0  0  0  0  0  0  0  0  0  0  0
  -21.9870   -9.0210   20.4660 C   0  0  0  0  0  3  0  0  0  0  0  0
  -22.7160  -10.2110   20.3080 C   0  0  0  0  0  3  0  0  0  0  0  0
  -21.6660   -6.8840   21.4250 O   0  0  0  0  0  0  0  0  0  0  0  0
  -21.6840   -6.0730   22.5310 C   0  0  0  0  0  0  0  0  0  0  0  0
  -21.4010   -6.5660   23.8240 C   0  0  0  0  0  3  0  0  0  0  0  0
  -21.3670   -5.6810   24.9210 C   0  0  0  0  0  3  0  0  0  0  0  0
  -21.6030   -4.3070   24.7260 C   0  0  0  0  0  0  0  0  0  0  0  0
  -21.8810   -3.8160   23.4390 C   0  0  0  0  0  3  0  0  0  0  0  0
  -21.9200   -4.6960   22.3440 C   0  0  0  0  0  0  0  0  0  0  0  0
  -22.1660   -4.2150   21.1010 F   0  0  0  0  0  0  0  0  0  0  0  0
  -21.5630   -3.4560   25.7770 F   0  0  0  0  0  0  0  0  0  0  0  0
  -22.7880  -13.5230   21.1860 C   0  0  0  0  0  0  0  0  0  0  0  0
  -22.0550  -12.8230   22.0440 N   0  0  0  0  0  0  0  0  0  0  0  0
  -22.3570  -14.5530   20.6710 O   0  0  0  0  0  0  0  0  0  0  0  0
  -22.4140  -11.9880   22.4840 H   0  0  0  0  0  0  0  0  0  0  0  0
  -21.1170  -13.1270   22.2660 H   0  0  0  0  0  0  0  0  0  0  0  0
  -25.4340  -15.1760   20.3840 N   0  0  0  0  0  0  0  0  0  0  0  0
  -24.6780  -15.8380   20.5030 H   0  0  0  0  0  0  0  0  0  0  0  0
  -26.2970  -15.6080   20.0780 H   0  0  0  0  0  0  0  0  0  0  0  0
  2  1  2  0
  3  1  1  0
  4  5  2  0
  4  6  1  0
  5  2  1  0
  6  3  2  0
  7  5  1  0
  8  7  2  0
  9  8  1  0
 10  9  1  0
 11 13  1  0
 11 10  1  0
 12 23  2  0
 13 18  1  0
 14 22  1  0
 14 24  1  0
 15 21  1  0
 15 17  1  0
 16 22  1  0
 17 16  1  0
 18 17  2  0
 19 20  1  0
 19 13  2  0
 20 15  2  0
 21 14  1  0
 22 12  1  0
 24 26  2  0
 25 24  1  0
 27 25  1  0
 28 37  2  0
 28 33  1  0
 29 25  1  0
 29 33  1  0
 30 29  1  0
 31 32  1  0
 31 30  1  0
 32 28  1  0
 33 34  2  0
 34 35  1  0
 36 35  2  0
 37 36  1  0
 38 12  1  0
 38 43  1  0
 38 39  1  0
 39 42  1  1
 39 40  1  0
 41 39  1  0
 43 46  1  0
 44 48  1  0
 44 43  1  0
 45 44  2  0
 48 47  1  0
 50 48  1  0
 50 51  1  0
 50 49  1  0
 52  6  1  0
 53 52  2  0
 54 52  1  0
 55 54  1  0
 55 56  1  0
 57 56  1  0
 58 57  1  0
 59 58  1  0
 60 59  1  0
 61 66  1  0
 62 63  1  0
 62 61  1  0
 64 63  1  0
 64 71  1  0
 64 65  1  0
 66 60  1  0
 66 65  1  0
 67 60  2  0
 68 69  2  0
 69 88  1  0
 70 69  1  0
 70 73  1  0
 71 68  1  0
 71 72  1  0
 72 70  2  0
 73 74  1  0
 74 75  2  0
 76 79  1  0
 76 75  1  0
 77 76  2  0
 78 77  1  0
 78 73  2  0
 79 80  1  0
 80 81  1  0
 81 82  2  0
 83 82  1  0
 83 87  1  0
 84 83  2  0
 85 80  2  0
 85 84  1  0
 86 85  1  0
 88 89  1  0
 89 92  1  0
 89 91  1  0
 90 88  2  0
 93 94  1  0
 93 68  1  0
 95 93  1  0
M  ISO  4  10 101  11 101  59 100  60 100
M  END
>  <TORSDO>  (31) 
F 26

>  <SCORE>  (31) 
44.838

>  <name>  (31) 
30

>  <ligand_id>  (31) 
30

>  <original_smiles>  (31) 
[H]C(=C([H])C([H])([H])C([H])([H])Oc1c([H])c([H])c2c(c1[H])C([H])([H])N(C(=O)C([H])(N([H])C(=O)C([H])(N([H])C([H])([H])[H])C([H])([H])[H])C(C([H])([H])[H])(C([H])([H])[H])C([H])([H])[H])C([H])(C(=O)N([H])C1([H])c3c([H])c([H])c([H])c([H])c3C([H])([H])C([H])([H])C1([H])[H])C2([H])[H])c1c([H])c([H])c([H])c(C(=O)C([H])([H])C([H])([H])C([H])([H])C([H])([H])C([H])([H])C([H])([H])C(=O)N2C([H])([H])C([H])([H])C([H])([H])C([H])(n3nc(-c4c([H])c([H])c(Oc5c([H])c([H])c(F)c([H])c5F)c([H])c4[H])c(C(=O)N([H])[H])c3N([H])[H])C2([H])[H])c1[H]

>  <smiles>  (31) 
[H]C(=C([H])C([H])([H])C([H])([H])Oc1c([H])c([H])c2c(c1[H])C([H])([H])N(C(=O)C([H])(N([H])C(=O)C([H])(N([H])C([H])([H])[H])C([H])([H])[H])C(C([H])([H])[H])(C([H])([H])[H])C([H])([H])[H])C([H])(C(=O)N([H])C1([H])c3c([H])c([H])c([H])c([H])c3C([H])([H])C([H])([H])C1([H])[H])C2([H])[H])c1c([H])c([H])c([H])c(C(=O)C([H])([H])C([H])([H])C([H])([H])C([H])([H])C([H])([H])C([H])([H])C(=O)N2C([H])([H])C([H])([H])C([H])([H])C([H])(n3nc(-c4c([H])c([H])c(Oc5c([H])c([H])c(F)c([H])c5F)c([H])c4[H])c(C(=O)N([H])[H])c3N([H])[H])C2([H])[H])c1[H]

$$$$
31:0:0
     RDKit          3D

 96103  0  0  1  0  0  0  0  0999 V2000
  -25.6930  -25.4120   16.2930 C   0  0  0  0  0  2  0  0  0  0  0  0
  -25.0390  -24.0400   16.0310 C   0  0  0  0  0  2  0  0  0  0  0  0
  -24.9660  -23.0960   17.2490 C   0  0  0  0  0  2  0  0  0  0  0  0
  -26.3400  -22.6820   17.7880 C   0  0  0  0  0  2  0  0  0  0  0  0
  -26.3220  -21.4170   18.6580 C   0  0  0  0  0  2  0  0  0  0  0  0
  -27.7530  -21.0180   19.0440 C   0  0  0  0  0  2  0  0  0  0  0  0
  -27.8490  -19.7100   19.8400 C   0  0  0  0  0  2  0  0  0  0  0  0
  -29.3150  -19.3440   20.1050 C   0  0  0  0  0  2  0  0  0  0  0  0
  -29.4940  -18.0340   20.8840 C   0  0  0  0  0  2  0  0  0  0  0  0
  -30.9840  -17.7030   21.0810 C   0  0  0  0  0  2  0  0  0  0  0  0
  -31.2460  -16.4340   21.9120 C   0  0  0  0  0  2  0  0  0  0  0  0
  -30.9720  -14.5460   20.2950 C   0  0  0  0  0  0  0  0  0  0  0  0
  -30.5320  -12.5410   18.9250 C   0  0  0  0  0  2  0  0  0  0  0  0
  -29.5480  -12.8380   17.7800 C   0  0  0  0  0  2  0  0  0  0  0  0
  -28.0920  -12.6900   18.2590 C   0  0  0  0  0  2  0  0  0  0  0  0
  -27.8180  -13.4660   19.5730 C   0  0  0  0  0  3  0  0  0  0  0  0
  -28.9000  -13.1470   20.6280 C   0  0  0  0  0  2  0  0  0  0  0  0
  -30.2240  -13.4420   20.0440 N   0  0  0  0  0  0  0  0  0  0  0  0
  -31.9610  -14.8670   19.6270 O   0  0  0  0  0  0  0  0  0  0  0  0
  -30.5870  -15.2510   21.3650 N   0  0  0  0  0  0  0  0  0  0  0  0
  -29.7850  -14.8990   21.8670 H   0  0  0  0  0  0  0  0  0  0  0  0
  -25.4390  -14.0770   20.3490 C   0  0  0  0  0  0  0  0  0  0  0  0
  -24.3790  -13.3050   20.7410 C   0  0  0  0  0  0  0  0  0  0  0  0
  -24.8340  -11.9520   20.6840 C   0  0  0  0  0  0  0  0  0  0  0  0
  -26.4750  -13.1960   20.0830 N   0  0  0  0  0  0  0  0  0  0  0  0
  -26.1140  -11.9120   20.3380 N   0  0  0  0  0  0  0  0  0  0  0  0
  -24.1100  -10.6900   20.8840 C   0  0  0  0  0  0  0  0  0  0  0  0
  -24.5120   -9.7560   21.8650 C   0  0  0  0  0  3  0  0  0  0  0  0
  -23.7890   -8.5580   22.0500 C   0  0  0  0  0  3  0  0  0  0  0  0
  -22.6520   -8.2840   21.2530 C   0  0  0  0  0  0  0  0  0  0  0  0
  -22.2710   -9.2070   20.2630 C   0  0  0  0  0  3  0  0  0  0  0  0
  -22.9930  -10.3970   20.0760 C   0  0  0  0  0  3  0  0  0  0  0  0
  -21.9050   -7.1350   21.3440 O   0  0  0  0  0  0  0  0  0  0  0  0
  -21.7680   -6.4580   22.5290 C   0  0  0  0  0  0  0  0  0  0  0  0
  -21.2030   -7.0620   23.6730 C   0  0  0  0  0  3  0  0  0  0  0  0
  -21.0180   -6.3080   24.8500 C   0  0  0  0  0  3  0  0  0  0  0  0
  -21.3870   -4.9500   24.8820 C   0  0  0  0  0  0  0  0  0  0  0  0
  -21.9460   -4.3450   23.7420 C   0  0  0  0  0  3  0  0  0  0  0  0
  -22.1330   -5.0960   22.5680 C   0  0  0  0  0  0  0  0  0  0  0  0
  -22.6510   -4.5030   21.4660 F   0  0  0  0  0  0  0  0  0  0  0  0
  -21.2030   -4.2230   26.0080 F   0  0  0  0  0  0  0  0  0  0  0  0
  -22.9910  -13.7830   21.0580 C   0  0  0  0  0  0  0  0  0  0  0  0
  -22.2860  -13.0790   21.9380 N   0  0  0  0  0  0  0  0  0  0  0  0
  -22.5400  -14.8150   20.5640 O   0  0  0  0  0  0  0  0  0  0  0  0
  -22.6640  -12.2420   22.3600 H   0  0  0  0  0  0  0  0  0  0  0  0
  -21.3570  -13.3800   22.1930 H   0  0  0  0  0  0  0  0  0  0  0  0
  -25.6040  -15.4490   20.1790 N   0  0  0  0  0  0  0  0  0  0  0  0
  -24.8460  -16.1090   20.3210 H   0  0  0  0  0  0  0  0  0  0  0  0
  -26.4550  -15.8880   19.8530 H   0  0  0  0  0  0  0  0  0  0  0  0
  -27.2320  -25.4320   16.1460 C   0  0  0  0  0  2  0  0  0  0  0  0
  -27.5610  -27.9300   16.0270 C   0  0  0  0  0  2  0  0  0  0  0  0
  -27.8690  -26.7450   16.5870 C   0  0  0  0  0  0  0  0  0  0  0  0
  -28.9030  -26.7160   17.6500 C   0  0  0  0  0  0  0  0  0  0  0  0
  -29.9590  -27.3490   17.5510 O   0  0  0  0  0  0  0  0  0  0  0  0
  -28.6410  -25.9230   18.9420 C   0  0  0  0  0  2  0  0  0  0  0  0
  -28.4210  -26.8210   20.0410 O   0  0  0  0  0  0  0  0  0  0  0  0
  -24.5780  -31.8970   23.2240 C   0  0  0  0  0  0  0  0  0  0  0  0
  -27.2160  -27.4900   20.0950 C   0  0  0  0  0  0  0  0  0  0  0  0
  -23.3620  -30.4910   21.5920 C   0  0  0  0  0  3  0  0  0  0  0  0
  -24.8080  -28.9620   20.1580 C   0  0  0  0  0  0  0  0  0  0  0  0
  -25.8820  -30.8660   21.3670 C   0  0  0  0  0  2  0  0  0  0  0  0
  -25.9680  -29.4950   20.7320 C   0  0  0  0  0  0  0  0  0  0  0  0
  -27.1730  -28.7610   20.7070 C   0  0  0  0  0  3  0  0  0  0  0  0
  -26.0250  -26.9490   19.5600 C   0  0  0  0  0  3  0  0  0  0  0  0
  -24.8270  -27.6820   19.5790 C   0  0  0  0  0  3  0  0  0  0  0  0
  -23.5610  -29.8120   20.2120 C   0  0  0  0  0  2  0  0  0  0  0  0
  -24.6260  -31.0990   22.1200 N   0  0  0  0  0  0  0  0  0  0  0  0
  -23.5000  -32.1640   23.7740 O   0  0  0  0  0  0  0  0  0  0  0  0
  -22.7270  -29.4640   22.5570 C   0  0  0  0  0  0  0  0  0  0  0  0
  -21.4030  -29.2760   22.4400 N   0  0  0  0  0  0  0  0  0  0  0  0
  -23.4200  -28.8420   23.3650 O   0  0  0  0  0  0  0  0  0  0  0  0
  -20.9050  -29.8320   21.7570 H   0  0  0  0  0  0  0  0  0  0  0  0
  -18.0350  -28.0770   22.9630 C   0  0  0  0  0  0  0  0  0  0  0  0
  -20.5950  -28.3330   23.2120 C   0  0  0  0  0  3  0  0  0  0  0  0
  -20.6920  -26.9050   22.6280 C   0  0  0  0  0  2  0  0  0  0  0  0
  -19.5800  -26.5870   21.6220 C   0  0  0  0  0  2  0  0  0  0  0  0
  -18.2060  -26.7290   22.2820 C   0  0  0  0  0  2  0  0  0  0  0  0
  -19.1580  -28.8360   23.3850 C   0  0  0  0  0  0  0  0  0  0  0  0
  -18.9460  -30.0980   23.9830 C   0  0  0  0  0  3  0  0  0  0  0  0
  -17.6440  -30.6000   24.1610 C   0  0  0  0  0  3  0  0  0  0  0  0
  -16.5350  -29.8370   23.7560 C   0  0  0  0  0  3  0  0  0  0  0  0
  -16.7310  -28.5770   23.1630 C   0  0  0  0  0  3  0  0  0  0  0  0
  -25.8670  -32.5320   23.8330 C   0  0  0  0  0  3  0  0  0  0  0  0
  -25.5590  -33.9300   24.1550 N   0  0  0  0  0  0  0  0  0  0  0  0
  -25.8950  -34.9790   23.3910 C   0  0  0  0  0  0  0  0  0  0  0  0
  -26.5690  -34.8690   22.3620 O   0  0  0  0  0  0  0  0  0  0  0  0
  -24.9600  -34.0910   24.9520 H   0  0  0  0  0  0  0  0  0  0  0  0
  -24.1850  -36.7790   23.0000 C   0  0  0  0  0  1  0  0  0  0  0  0
  -25.4060  -36.3690   23.8380 C   0  0  0  0  0  3  0  0  0  0  0  0
  -27.5240  -37.2440   24.7190 C   0  0  0  0  0  1  0  0  0  0  0  0
  -26.4470  -37.4150   23.7460 N   0  0  0  0  0  0  0  0  0  0  0  0
  -26.0430  -38.3380   23.8790 H   0  0  0  0  0  0  0  0  0  0  0  0
  -26.3930  -31.7680   25.1080 C   0  0  1  0  0  0  0  0  0  0  0  0
  -25.3090  -31.5330   26.1850 C   0  0  0  0  0  1  0  0  0  0  0  0
  -26.9750  -30.3900   24.7120 C   0  0  0  0  0  1  0  0  0  0  0  0
  -27.5450  -32.5690   25.7600 C   0  0  0  0  0  1  0  0  0  0  0  0
  2  1  1  0
  2  3  1  0
  3  4  1  0
  4  5  1  0
  5  6  1  0
  6  7  1  0
  7  8  1  0
  8  9  1  0
  9 10  1  0
 10 11  1  0
 12 20  1  0
 13 18  1  0
 14 15  1  0
 14 13  1  0
 16 15  1  0
 16 25  1  0
 16 17  1  0
 18 12  1  0
 18 17  1  0
 19 12  2  0
 20 21  1  0
 20 11  1  0
 22 23  2  0
 23 42  1  0
 24 23  1  0
 24 27  1  0
 25 26  1  0
 25 22  1  0
 26 24  2  0
 27 28  1  0
 28 29  2  0
 30 33  1  0
 30 29  1  0
 31 30  2  0
 32 31  1  0
 32 27  2  0
 33 34  1  0
 34 39  2  0
 34 35  1  0
 35 36  2  0
 36 37  1  0
 37 41  1  0
 38 37  2  0
 39 38  1  0
 40 39  1  0
 42 43  1  0
 43 46  1  0
 43 45  1  0
 44 42  2  0
 47 48  1  0
 47 22  1  0
 49 47  1  0
 50  1  1  0
 50 52  1  0
 51 52  2  0
 52 53  1  0
 53 55  1  0
 54 53  2  0
 55 56  1  0
 56 58  1  0
 57 68  2  0
 58 63  1  0
 59 67  1  0
 59 69  1  0
 60 66  1  0
 60 62  1  0
 61 67  1  0
 62 61  1  0
 63 62  2  0
 64 65  1  0
 64 58  2  0
 65 60  2  0
 66 59  1  0
 67 57  1  0
 69 71  2  0
 70 69  1  0
 72 70  1  0
 73 82  2  0
 73 78  1  0
 74 70  1  0
 74 78  1  0
 75 74  1  0
 76 77  1  0
 76 75  1  0
 77 73  1  0
 78 79  2  0
 79 80  1  0
 81 80  2  0
 82 81  1  0
 83 57  1  0
 83 84  1  0
 83 93  1  0
 84 87  1  0
 85 89  1  0
 85 84  1  0
 86 85  2  0
 89 88  1  0
 91 89  1  0
 91 92  1  0
 91 90  1  0
 93 96  1  1
 93 94  1  0
 95 93  1  0
M  ISO  4  12 100  20 100  55 101  56 101
M  END
>  <TORSDO>  (32) 
F 30

>  <SCORE>  (32) 
-10.446

>  <name>  (32) 
31

>  <ligand_id>  (32) 
31

>  <original_smiles>  (32) 
[H]C([H])=C(C(=O)C([H])([H])Oc1c([H])c([H])c2c(c1[H])C([H])([H])N(C(=O)C([H])(N([H])C(=O)C([H])(N([H])C([H])([H])[H])C([H])([H])[H])C(C([H])([H])[H])(C([H])([H])[H])C([H])([H])[H])C([H])(C(=O)N([H])C1([H])c3c([H])c([H])c([H])c([H])c3C([H])([H])C([H])([H])C1([H])[H])C2([H])[H])C([H])([H])C([H])([H])C([H])([H])C([H])([H])C([H])([H])C([H])([H])C([H])([H])C([H])([H])C([H])([H])C([H])([H])C([H])([H])C([H])([H])N([H])C(=O)N1C([H])([H])C([H])([H])C([H])([H])C([H])(n2nc(-c3c([H])c([H])c(Oc4c([H])c([H])c(F)c([H])c4F)c([H])c3[H])c(C(=O)N([H])[H])c2N([H])[H])C1([H])[H]

>  <smiles>  (32) 
[H]C([H])=C(C(=O)C([H])([H])Oc1c([H])c([H])c2c(c1[H])C([H])([H])N(C(=O)C([H])(N([H])C(=O)C([H])(N([H])C([H])([H])[H])C([H])([H])[H])C(C([H])([H])[H])(C([H])([H])[H])C([H])([H])[H])C([H])(C(=O)N([H])C1([H])c3c([H])c([H])c([H])c([H])c3C([H])([H])C([H])([H])C1([H])[H])C2([H])[H])C([H])([H])C([H])([H])C([H])([H])C([H])([H])C([H])([H])C([H])([H])C([H])([H])C([H])([H])C([H])([H])C([H])([H])C([H])([H])C([H])([H])N([H])C(=O)N1C([H])([H])C([H])([H])C([H])([H])C([H])(n2nc(-c3c([H])c([H])c(Oc4c([H])c([H])c(F)c([H])c4F)c([H])c3[H])c(C(=O)N([H])[H])c2N([H])[H])C1([H])[H]

$$$$
32:0:0
     RDKit          3D

 93101  0  0  1  0  0  0  0  0999 V2000
  -30.8350  -20.6110   19.7410 C   0  0  0  0  0  3  0  0  0  0  0  0
  -30.4220  -19.3010   20.0150 C   0  0  0  0  0  3  0  0  0  0  0  0
  -28.5610  -21.2210   19.1640 C   0  0  0  0  0  3  0  0  0  0  0  0
  -29.9140  -21.6060   19.3510 C   0  0  0  0  0  0  0  0  0  0  0  0
  -29.0860  -18.8940   19.8150 C   0  0  0  0  0  0  0  0  0  0  0  0
  -28.1460  -19.8780   19.3970 C   0  0  0  0  0  0  0  0  0  0  0  0
  -26.6630  -19.5310   19.2730 C   0  0  0  0  0  1  0  0  0  0  0  0
  -30.4520  -23.0120   19.2640 C   0  0  0  0  0  0  0  0  0  0  0  0
  -31.6360  -23.2590   19.5110 O   0  0  0  0  0  0  0  0  0  0  0  0
  -29.5410  -24.1920   18.8920 C   0  0  0  0  0  2  0  0  0  0  0  0
  -30.2190  -25.5660   19.1570 C   0  0  0  0  0  2  0  0  0  0  0  0
  -29.2730  -26.7640   19.0170 C   0  0  0  0  0  2  0  0  0  0  0  0
  -28.3050  -26.6020   20.0260 O   0  0  0  0  0  0  0  0  0  0  0  0
  -24.5390  -31.7130   23.1410 C   0  0  0  0  0  0  0  0  0  0  0  0
  -27.1850  -27.3830   19.9450 C   0  0  0  0  0  0  0  0  0  0  0  0
  -23.3300  -30.3580   21.4620 C   0  0  0  0  0  3  0  0  0  0  0  0
  -24.7870  -28.8610   19.9920 C   0  0  0  0  0  0  0  0  0  0  0  0
  -25.8540  -30.7340   21.2630 C   0  0  0  0  0  2  0  0  0  0  0  0
  -25.9420  -29.3810   20.5890 C   0  0  0  0  0  0  0  0  0  0  0  0
  -27.1490  -28.6480   20.5640 C   0  0  0  0  0  3  0  0  0  0  0  0
  -26.0200  -26.8680   19.3450 C   0  0  0  0  0  3  0  0  0  0  0  0
  -24.8180  -27.6030   19.3660 C   0  0  0  0  0  3  0  0  0  0  0  0
  -23.5400  -29.7170   20.0660 C   0  0  0  0  0  2  0  0  0  0  0  0
  -24.5910  -30.9450   22.0200 N   0  0  0  0  0  0  0  0  0  0  0  0
  -23.4590  -31.9700   23.6900 O   0  0  0  0  0  0  0  0  0  0  0  0
  -22.6770  -29.3130   22.3930 C   0  0  0  0  0  0  0  0  0  0  0  0
  -21.3470  -29.1600   22.2830 N   0  0  0  0  0  0  0  0  0  0  0  0
  -23.3610  -28.6470   23.1750 O   0  0  0  0  0  0  0  0  0  0  0  0
  -20.8590  -29.7540   21.6260 H   0  0  0  0  0  0  0  0  0  0  0  0
  -17.9520  -28.0440   22.8160 C   0  0  0  0  0  0  0  0  0  0  0  0
  -20.5210  -28.2120   23.0320 C   0  0  0  0  0  3  0  0  0  0  0  0
  -20.5640  -26.8080   22.3870 C   0  0  0  0  0  2  0  0  0  0  0  0
  -19.4280  -26.5680   21.3880 C   0  0  0  0  0  2  0  0  0  0  0  0
  -18.0690  -26.7230   22.0790 C   0  0  0  0  0  2  0  0  0  0  0  0
  -19.1040  -28.7530   23.2510 C   0  0  0  0  0  0  0  0  0  0  0  0
  -18.9420  -29.9960   23.9060 C   0  0  0  0  0  3  0  0  0  0  0  0
  -17.6560  -30.5270   24.1250 C   0  0  0  0  0  3  0  0  0  0  0  0
  -16.5190  -29.8160   23.7040 C   0  0  0  0  0  3  0  0  0  0  0  0
  -16.6680  -28.5740   23.0580 C   0  0  0  0  0  3  0  0  0  0  0  0
  -25.8260  -32.3230   23.7800 C   0  0  0  0  0  3  0  0  0  0  0  0
  -25.5270  -33.7190   24.1230 N   0  0  0  0  0  0  0  0  0  0  0  0
  -25.8880  -34.7770   23.3810 C   0  0  0  0  0  0  0  0  0  0  0  0
  -26.5760  -34.6750   22.3620 O   0  0  0  0  0  0  0  0  0  0  0  0
  -24.9090  -33.8680   24.9070 H   0  0  0  0  0  0  0  0  0  0  0  0
  -24.1930  -36.6000   23.0110 C   0  0  0  0  0  1  0  0  0  0  0  0
  -25.4090  -36.1650   23.8470 C   0  0  0  0  0  3  0  0  0  0  0  0
  -27.5340  -37.0080   24.7430 C   0  0  0  0  0  1  0  0  0  0  0  0
  -26.4590  -37.2040   23.7740 N   0  0  0  0  0  0  0  0  0  0  0  0
  -26.0600  -38.1270   23.9230 H   0  0  0  0  0  0  0  0  0  0  0  0
  -26.3290  -31.5270   25.0450 C   0  0  1  0  0  0  0  0  0  0  0  0
  -25.2280  -31.2820   26.1030 C   0  0  0  0  0  1  0  0  0  0  0  0
  -26.9000  -30.1540   24.6260 C   0  0  0  0  0  1  0  0  0  0  0  0
  -27.4860  -32.2960   25.7230 C   0  0  0  0  0  1  0  0  0  0  0  0
  -28.6670  -17.4400   20.0950 C   0  0  0  0  0  2  0  0  0  0  0  0
  -29.7330  -16.4140   20.6100 C   0  0  0  0  0  2  0  0  0  0  0  0
  -30.9580  -14.3340   20.1080 C   0  0  0  0  0  0  0  0  0  0  0  0
  -30.6080  -12.0380   19.3270 C   0  0  0  0  0  2  0  0  0  0  0  0
  -29.7000  -12.0990   18.0790 C   0  0  0  0  0  2  0  0  0  0  0  0
  -28.2150  -12.0620   18.4840 C   0  0  0  0  0  2  0  0  0  0  0  0
  -27.8660  -13.0490   19.6340 C   0  0  0  0  0  3  0  0  0  0  0  0
  -28.9080  -13.0020   20.7690 C   0  0  0  0  0  2  0  0  0  0  0  0
  -30.2370  -13.1830   20.1680 N   0  0  0  0  0  0  0  0  0  0  0  0
  -32.1760  -14.3370   19.9250 O   0  0  0  0  0  0  0  0  0  0  0  0
  -30.6110  -15.8870   18.2960 C   0  0  0  0  0  1  0  0  0  0  0  0
  -30.2530  -15.4080   19.6480 N   0  0  0  0  0  0  0  0  0  0  0  0
  -25.5100  -13.7480   20.3750 C   0  0  0  0  0  0  0  0  0  0  0  0
  -24.4130  -13.0220   20.7580 C   0  0  0  0  0  0  0  0  0  0  0  0
  -24.8230  -11.6530   20.7380 C   0  0  0  0  0  0  0  0  0  0  0  0
  -26.5150  -12.8260   20.1380 N   0  0  0  0  0  0  0  0  0  0  0  0
  -26.1090  -11.5630   20.4200 N   0  0  0  0  0  0  0  0  0  0  0  0
  -24.0460  -10.4210   20.9420 C   0  0  0  0  0  0  0  0  0  0  0  0
  -24.4430   -9.4460   21.8820 C   0  0  0  0  0  3  0  0  0  0  0  0
  -23.6730   -8.2760   22.0710 C   0  0  0  0  0  3  0  0  0  0  0  0
  -22.4880   -8.0760   21.3200 C   0  0  0  0  0  0  0  0  0  0  0  0
  -22.1100   -9.0440   20.3730 C   0  0  0  0  0  3  0  0  0  0  0  0
  -22.8800  -10.2030   20.1810 C   0  0  0  0  0  3  0  0  0  0  0  0
  -21.6870   -6.9640   21.4210 O   0  0  0  0  0  0  0  0  0  0  0  0
  -21.6120   -6.2340   22.5830 C   0  0  0  0  0  0  0  0  0  0  0  0
  -21.1890   -6.8110   23.8020 C   0  0  0  0  0  3  0  0  0  0  0  0
  -21.0630   -6.0070   24.9530 C   0  0  0  0  0  3  0  0  0  0  0  0
  -21.3440   -4.6280   24.8840 C   0  0  0  0  0  0  0  0  0  0  0  0
  -21.7550   -4.0520   23.6690 C   0  0  0  0  0  3  0  0  0  0  0  0
  -21.8860   -4.8530   22.5220 C   0  0  0  0  0  0  0  0  0  0  0  0
  -22.2630   -4.2910   21.3470 F   0  0  0  0  0  0  0  0  0  0  0  0
  -21.2170   -3.8520   25.9860 F   0  0  0  0  0  0  0  0  0  0  0  0
  -23.0370  -13.5560   21.0290 C   0  0  0  0  0  0  0  0  0  0  0  0
  -22.2920  -12.9000   21.9100 N   0  0  0  0  0  0  0  0  0  0  0  0
  -22.6320  -14.5870   20.4920 O   0  0  0  0  0  0  0  0  0  0  0  0
  -22.6360  -12.0690   22.3640 H   0  0  0  0  0  0  0  0  0  0  0  0
  -21.3690  -13.2410   22.1380 H   0  0  0  0  0  0  0  0  0  0  0  0
  -25.7400  -15.1070   20.1870 N   0  0  0  0  0  0  0  0  0  0  0  0
  -25.0230  -15.8140   20.2950 H   0  0  0  0  0  0  0  0  0  0  0  0
  -26.6220  -15.4780   19.8630 H   0  0  0  0  0  0  0  0  0  0  0  0
  1  2  1  0
  3  4  1  0
  3  6  2  0
  4  1  2  0
  5  2  2  0
  5 54  1  0
  6  5  1  0
  7  6  1  0
  8  4  1  0
  8  9  2  0
 10 11  1  0
 10  8  1  0
 12 11  1  0
 12 13  1  0
 14 25  2  0
 15 13  1  0
 15 20  1  0
 16 24  1  0
 16 26  1  0
 17 23  1  0
 17 19  1  0
 18 24  1  0
 19 18  1  0
 20 19  2  0
 21 22  1  0
 21 15  2  0
 22 17  2  0
 23 16  1  0
 24 14  1  0
 26 28  2  0
 27 26  1  0
 29 27  1  0
 30 39  2  0
 30 35  1  0
 31 27  1  0
 31 35  1  0
 32 31  1  0
 33 34  1  0
 33 32  1  0
 34 30  1  0
 35 36  2  0
 36 37  1  0
 38 37  2  0
 39 38  1  0
 40 14  1  0
 40 41  1  0
 40 50  1  0
 41 44  1  0
 42 46  1  0
 42 41  1  0
 43 42  2  0
 46 45  1  0
 48 46  1  0
 48 49  1  0
 48 47  1  0
 50 53  1  1
 50 51  1  0
 52 50  1  0
 54 55  1  0
 56 62  1  0
 57 62  1  0
 58 59  1  0
 58 57  1  0
 60 59  1  0
 60 69  1  0
 60 61  1  0
 62 61  1  0
 63 56  2  0
 64 65  1  0
 65 56  1  0
 65 55  1  0
 66 67  2  0
 67 86  1  0
 68 67  1  0
 68 71  1  0
 69 66  1  0
 69 70  1  0
 70 68  2  0
 71 72  1  0
 72 73  2  0
 74 77  1  0
 74 73  1  0
 75 74  2  0
 76 75  1  0
 76 71  2  0
 77 78  1  0
 78 79  1  0
 79 80  2  0
 81 80  1  0
 81 85  1  0
 82 81  2  0
 83 78  2  0
 83 82  1  0
 84 83  1  0
 86 87  1  0
 87 90  1  0
 87 89  1  0
 88 86  2  0
 91 92  1  0
 91 66  1  0
 93 91  1  0
M  ISO  4  12 101  13 101  56 100  65 100
M  END
>  <TORSDO>  (33) 
F 22

>  <SCORE>  (33) 
-12.491

>  <name>  (33) 
32

>  <ligand_id>  (33) 
32

>  <original_smiles>  (33) 
[H]c1c([H])c([H])c2c(c1[H])C([H])([H])C([H])([H])C([H])([H])C2([H])N([H])C(=O)C1([H])N(C(=O)C([H])(N([H])C(=O)C([H])(N([H])C([H])([H])[H])C([H])([H])[H])C(C([H])([H])[H])(C([H])([H])[H])C([H])([H])[H])C([H])([H])c2c([H])c(OC([H])([H])C([H])([H])C([H])([H])C(=O)c3c([H])c([H])c(C([H])([H])C([H])([H])N(C(=O)N4C([H])([H])C([H])([H])C([H])([H])C([H])(n5nc(-c6c([H])c([H])c(Oc7c([H])c([H])c(F)c([H])c7F)c([H])c6[H])c(C(=O)N([H])[H])c5N([H])[H])C4([H])[H])C([H])([H])[H])c(C([H])([H])[H])c3[H])c([H])c([H])c2C1([H])[H]

>  <smiles>  (33) 
[H]c1c([H])c([H])c2c(c1[H])C([H])([H])C([H])([H])C([H])([H])C2([H])N([H])C(=O)C1([H])N(C(=O)C([H])(N([H])C(=O)C([H])(N([H])C([H])([H])[H])C([H])([H])[H])C(C([H])([H])[H])(C([H])([H])[H])C([H])([H])[H])C([H])([H])c2c([H])c(OC([H])([H])C([H])([H])C([H])([H])C(=O)c3c([H])c([H])c(C([H])([H])C([H])([H])N(C(=O)N4C([H])([H])C([H])([H])C([H])([H])C([H])(n5nc(-c6c([H])c([H])c(Oc7c([H])c([H])c(F)c([H])c7F)c([H])c6[H])c(C(=O)N([H])[H])c5N([H])[H])C4([H])[H])C([H])([H])[H])c(C([H])([H])[H])c3[H])c([H])c([H])c2C1([H])[H]

$$$$
33:0:0
     RDKit          3D

 95103  0  0  1  0  0  0  0  0999 V2000
  -28.8050  -20.6710   17.6900 C   0  0  0  0  0  2  0  0  0  0  0  0
  -30.1950  -20.6780   18.3320 C   0  0  0  0  0  2  0  0  0  0  0  0
  -28.2870  -20.1580   19.0390 C   0  0  0  0  0  2  0  0  0  0  0  0
  -29.4710  -20.9070   19.6980 C   0  0  1  0  0  0  0  0  0  0  0  0
  -30.0200  -20.1890   20.8960 N   0  0  0  0  0  4  0  0  0  0  0  0
  -29.3070  -20.1830   21.6090 H   0  0  0  0  0  0  0  0  0  0  0  0
  -30.7670  -20.7550   21.2680 H   0  0  0  0  0  0  0  0  0  0  0  0
  -30.5740  -18.8140   20.8040 C   0  0  0  0  0  3  0  0  0  0  0  0
  -32.9580  -19.5920   20.2010 C   0  0  0  0  0  1  0  0  0  0  0  0
  -32.0660  -18.8550   21.2070 C   0  0  0  0  0  2  0  0  0  0  0  0
  -29.7320  -17.8110   21.6450 C   0  0  0  0  0  2  0  0  0  0  0  0
  -29.9250  -15.6030   20.4740 C   0  0  0  0  0  3  0  0  0  0  0  0
  -30.2690  -16.3800   21.5220 C   0  0  0  0  0  0  0  0  0  0  0  0
  -31.2510  -15.9450   22.6030 C   0  0  0  0  0  1  0  0  0  0  0  0
  -30.6710  -14.4080   20.0930 C   0  0  0  0  0  0  0  0  0  0  0  0
  -30.2640  -12.2950   18.9180 C   0  0  0  0  0  2  0  0  0  0  0  0
  -29.2620  -12.5350   17.7680 C   0  0  0  0  0  2  0  0  0  0  0  0
  -27.8110  -12.3940   18.2730 C   0  0  0  0  0  2  0  0  0  0  0  0
  -27.5460  -13.2270   19.5570 C   0  0  0  0  0  3  0  0  0  0  0  0
  -28.6550  -12.9990   20.6080 C   0  0  0  0  0  2  0  0  0  0  0  0
  -29.9520  -13.2640   19.9750 N   0  0  0  0  0  0  0  0  0  0  0  0
  -31.8170  -14.5150   19.6490 O   0  0  0  0  0  0  0  0  0  0  0  0
  -25.1990  -13.8470   20.4110 C   0  0  0  0  0  0  0  0  0  0  0  0
  -24.1510  -13.0740   20.8340 C   0  0  0  0  0  0  0  0  0  0  0  0
  -24.6030  -11.7220   20.7670 C   0  0  0  0  0  0  0  0  0  0  0  0
  -26.2220  -12.9590   20.1120 N   0  0  0  0  0  0  0  0  0  0  0  0
  -25.8740  -11.6770   20.3900 N   0  0  0  0  0  0  0  0  0  0  0  0
  -23.8860  -10.4610   20.9860 C   0  0  0  0  0  0  0  0  0  0  0  0
  -24.3570   -9.4890   21.8940 C   0  0  0  0  0  3  0  0  0  0  0  0
  -23.6360   -8.2900   22.1000 C   0  0  0  0  0  3  0  0  0  0  0  0
  -22.4320   -8.0590   21.3960 C   0  0  0  0  0  0  0  0  0  0  0  0
  -21.9810   -9.0190   20.4720 C   0  0  0  0  0  3  0  0  0  0  0  0
  -22.7000  -10.2060   20.2640 C   0  0  0  0  0  3  0  0  0  0  0  0
  -21.6790   -6.9140   21.5120 O   0  0  0  0  0  0  0  0  0  0  0  0
  -21.6720   -6.1710   22.6650 C   0  0  0  0  0  0  0  0  0  0  0  0
  -21.3120   -6.7290   23.9110 C   0  0  0  0  0  3  0  0  0  0  0  0
  -21.2510   -5.9120   25.0580 C   0  0  0  0  0  3  0  0  0  0  0  0
  -21.5430   -4.5380   24.9590 C   0  0  0  0  0  0  0  0  0  0  0  0
  -21.8970   -3.9790   23.7170 C   0  0  0  0  0  3  0  0  0  0  0  0
  -21.9580   -4.7930   22.5740 C   0  0  0  0  0  0  0  0  0  0  0  0
  -22.2790   -4.2460   21.3760 F   0  0  0  0  0  0  0  0  0  0  0  0
  -21.4760   -3.7510   26.0570 F   0  0  0  0  0  0  0  0  0  0  0  0
  -22.7700  -13.5520   21.1830 C   0  0  0  0  0  0  0  0  0  0  0  0
  -22.0860  -12.8540   22.0810 N   0  0  0  0  0  0  0  0  0  0  0  0
  -22.3080  -14.5800   20.6910 O   0  0  0  0  0  0  0  0  0  0  0  0
  -22.4780  -12.0240   22.5000 H   0  0  0  0  0  0  0  0  0  0  0  0
  -21.1610  -13.1550   22.3510 H   0  0  0  0  0  0  0  0  0  0  0  0
  -25.3670  -15.2180   20.2380 N   0  0  0  0  0  0  0  0  0  0  0  0
  -24.6170  -15.8810   20.4040 H   0  0  0  0  0  0  0  0  0  0  0  0
  -26.2100  -15.6520   19.8850 H   0  0  0  0  0  0  0  0  0  0  0  0
  -29.1790  -22.3650   20.1390 C   0  0  0  0  0  2  0  0  0  0  0  0
  -30.0900  -23.4400   19.5140 C   0  0  0  0  0  2  0  0  0  0  0  0
  -29.8610  -24.8470   20.0920 C   0  0  0  0  0  2  0  0  0  0  0  0
  -28.4690  -25.3950   19.7740 C   0  0  0  0  0  2  0  0  0  0  0  0
  -28.4480  -26.7570   20.1610 O   0  0  0  0  0  0  0  0  0  0  0  0
  -24.6030  -31.8470   23.2070 C   0  0  0  0  0  0  0  0  0  0  0  0
  -27.2430  -27.4180   20.1450 C   0  0  0  0  0  0  0  0  0  0  0  0
  -23.3920  -30.4430   21.5700 C   0  0  0  0  0  3  0  0  0  0  0  0
  -24.8390  -28.8960   20.1610 C   0  0  0  0  0  0  0  0  0  0  0  0
  -25.9150  -30.8030   21.3680 C   0  0  0  0  0  2  0  0  0  0  0  0
  -25.9950  -29.4320   20.7380 C   0  0  0  0  0  0  0  0  0  0  0  0
  -27.1990  -28.6990   20.7270 C   0  0  0  0  0  3  0  0  0  0  0  0
  -26.0640  -26.8810   19.5720 C   0  0  0  0  0  3  0  0  0  0  0  0
  -24.8650  -27.6180   19.5780 C   0  0  0  0  0  3  0  0  0  0  0  0
  -23.5980  -29.7550   20.1940 C   0  0  0  0  0  2  0  0  0  0  0  0
  -24.6550  -31.0450   22.1080 N   0  0  0  0  0  0  0  0  0  0  0  0
  -23.5230  -32.1250   23.7470 O   0  0  0  0  0  0  0  0  0  0  0  0
  -22.7380  -29.4280   22.5340 C   0  0  0  0  0  0  0  0  0  0  0  0
  -21.4110  -29.2570   22.4120 N   0  0  0  0  0  0  0  0  0  0  0  0
  -23.4170  -28.7930   23.3450 O   0  0  0  0  0  0  0  0  0  0  0  0
  -20.9230  -29.8210   21.7310 H   0  0  0  0  0  0  0  0  0  0  0  0
  -18.0240  -28.1090   22.9380 C   0  0  0  0  0  0  0  0  0  0  0  0
  -20.5890  -28.3300   23.1880 C   0  0  0  0  0  3  0  0  0  0  0  0
  -20.6680  -26.8980   22.6090 C   0  0  0  0  0  2  0  0  0  0  0  0
  -19.5520  -26.5950   21.6030 C   0  0  0  0  0  2  0  0  0  0  0  0
  -18.1760  -26.7570   22.2560 C   0  0  0  0  0  2  0  0  0  0  0  0
  -19.1580  -28.8530   23.3580 C   0  0  0  0  0  0  0  0  0  0  0  0
  -18.9650  -30.1170   23.9550 C   0  0  0  0  0  3  0  0  0  0  0  0
  -17.6710  -30.6410   24.1320 C   0  0  0  0  0  3  0  0  0  0  0  0
  -16.5510  -29.8980   23.7250 C   0  0  0  0  0  3  0  0  0  0  0  0
  -16.7270  -28.6340   23.1330 C   0  0  0  0  0  3  0  0  0  0  0  0
  -25.8900  -32.4740   23.8250 C   0  0  0  0  0  3  0  0  0  0  0  0
  -26.4210  -31.6910   25.0870 C   0  0  1  0  0  0  0  0  0  0  0  0
  -25.3370  -31.4420   26.1600 C   0  0  0  0  0  1  0  0  0  0  0  0
  -27.0090  -30.3200   24.6750 C   0  0  0  0  0  1  0  0  0  0  0  0
  -27.5700  -32.4860   25.7480 C   0  0  0  0  0  1  0  0  0  0  0  0
  -25.5790  -33.8660   24.1710 N   0  0  0  0  0  0  0  0  0  0  0  0
  -25.8960  -34.9260   23.4160 C   0  0  0  0  0  0  0  0  0  0  0  0
  -26.5590  -34.8330   22.3780 O   0  0  0  0  0  0  0  0  0  0  0  0
  -24.9980  -34.0160   24.9830 H   0  0  0  0  0  0  0  0  0  0  0  0
  -24.1510  -36.7080   23.1010 C   0  0  0  0  0  1  0  0  0  0  0  0
  -25.4060  -36.3080   23.8910 C   0  0  0  0  0  3  0  0  0  0  0  0
  -27.5450  -37.1980   24.6990 C   0  0  0  0  0  1  0  0  0  0  0  0
  -26.4300  -37.3680   23.7710 N   0  0  0  0  0  0  0  0  0  0  0  0
  -26.0200  -38.2830   23.9370 H   0  0  0  0  0  0  0  0  0  0  0  0
  1  2  1  0
  1  3  1  0
  2  4  1  0
  3  4  1  0
  4 51  1  1
  4  5  1  0
  5  7  1  0
  5  6  1  0
  8  5  1  0
  8 10  1  0
  8 11  1  0
  9 10  1  0
 12 13  2  0
 13 11  1  0
 13 14  1  0
 15 12  1  0
 16 21  1  0
 17 18  1  0
 17 16  1  0
 19 18  1  0
 19 26  1  0
 19 20  1  0
 21 15  1  0
 21 20  1  0
 22 15  2  0
 23 24  2  0
 24 43  1  0
 25 24  1  0
 25 28  1  0
 26 27  1  0
 26 23  1  0
 27 25  2  0
 28 29  1  0
 29 30  2  0
 31 34  1  0
 31 30  1  0
 32 31  2  0
 33 32  1  0
 33 28  2  0
 34 35  1  0
 35 36  1  0
 36 37  2  0
 38 37  1  0
 38 42  1  0
 39 38  2  0
 40 35  2  0
 40 39  1  0
 41 40  1  0
 43 44  1  0
 44 47  1  0
 44 46  1  0
 45 43  2  0
 48 49  1  0
 48 23  1  0
 50 48  1  0
 52 53  1  0
 52 51  1  0
 54 53  1  0
 54 55  1  0
 56 67  2  0
 57 55  1  0
 57 62  1  0
 58 66  1  0
 58 68  1  0
 59 65  1  0
 59 61  1  0
 60 66  1  0
 61 60  1  0
 62 61  2  0
 63 64  1  0
 63 57  2  0
 64 59  2  0
 65 58  1  0
 66 56  1  0
 68 70  2  0
 69 68  1  0
 71 69  1  0
 72 81  2  0
 72 77  1  0
 73 69  1  0
 73 77  1  0
 74 73  1  0
 75 76  1  0
 75 74  1  0
 76 72  1  0
 77 78  2  0
 78 79  1  0
 80 79  2  0
 81 80  1  0
 82 56  1  0
 82 87  1  0
 82 83  1  0
 83 86  1  1
 83 84  1  0
 85 83  1  0
 87 90  1  0
 88 92  1  0
 88 87  1  0
 89 88  2  0
 92 91  1  0
 94 92  1  0
 94 95  1  0
 94 93  1  0
M  ISO  4  12 100  15 100  54 101  55 101
M  END
>  <TORSDO>  (34) 
F 25

>  <SCORE>  (34) 
-11.577

>  <name>  (34) 
33

>  <ligand_id>  (34) 
33

>  <original_smiles>  (34) 
[H]C(C(=O)N1C([H])([H])C([H])([H])C([H])([H])C([H])(n2nc(-c3c([H])c([H])c(Oc4c([H])c([H])c(F)c([H])c4F)c([H])c3[H])c(C(=O)N([H])[H])c2N([H])[H])C1([H])[H])=C(C([H])([H])[H])C([H])([H])C([H])(C([H])([H])C([H])([H])[H])[N+]([H])([H])C1(C([H])([H])C([H])([H])C([H])([H])C([H])([H])Oc2c([H])c([H])c3c(c2[H])C([H])([H])N(C(=O)C([H])(N([H])C(=O)C([H])(N([H])C([H])([H])[H])C([H])([H])[H])C(C([H])([H])[H])(C([H])([H])[H])C([H])([H])[H])C([H])(C(=O)N([H])C2([H])c4c([H])c([H])c([H])c([H])c4C([H])([H])C([H])([H])C2([H])[H])C3([H])[H])C([H])([H])C([H])([H])C1([H])[H]

>  <smiles>  (34) 
[H]C(C(=O)N1C([H])([H])C([H])([H])C([H])([H])C([H])(n2nc(-c3c([H])c([H])c(Oc4c([H])c([H])c(F)c([H])c4F)c([H])c3[H])c(C(=O)N([H])[H])c2N([H])[H])C1([H])[H])=C(C([H])([H])[H])C([H])([H])C([H])(C([H])([H])C([H])([H])[H])[N+]([H])([H])C1(C([H])([H])C([H])([H])C([H])([H])C([H])([H])Oc2c([H])c([H])c3c(c2[H])C([H])([H])N(C(=O)C([H])(N([H])C(=O)C([H])(N([H])C([H])([H])[H])C([H])([H])[H])C(C([H])([H])[H])(C([H])([H])[H])C([H])([H])[H])C([H])(C(=O)N([H])C2([H])c4c([H])c([H])c([H])c([H])c4C([H])([H])C([H])([H])C2([H])[H])C3([H])[H])C([H])([H])C([H])([H])C1([H])[H]

$$$$
34:0:0
     RDKit          3D

 97106  0  0  1  0  0  0  0  0999 V2000
  -28.4960  -25.2000   19.8010 C   0  0  0  0  0  3  0  0  0  0  0  0
  -27.3540  -25.7990   19.2410 C   0  0  0  0  0  3  0  0  0  0  0  0
  -27.6720  -25.7400   22.0190 C   0  0  0  0  0  3  0  0  0  0  0  0
  -28.6720  -25.1830   21.1960 C   0  0  0  0  0  0  0  0  0  0  0  0
  -26.3600  -26.3840   20.0560 C   0  0  0  0  0  0  0  0  0  0  0  0
  -26.5100  -26.3360   21.4720 C   0  0  0  0  0  0  0  0  0  0  0  0
  -26.1400  -27.6850   23.5910 C   0  0  0  0  0  1  0  0  0  0  0  0
  -24.5590  -25.7910   22.9840 C   0  0  0  0  0  1  0  0  0  0  0  0
  -25.4740  -26.9020   22.4470 C   0  0  0  0  0  3  0  0  0  0  0  0
  -29.9750  -24.6550   21.7850 C   0  0  0  0  0  2  0  0  0  0  0  0
  -30.0330  -23.1350   22.0420 C   0  0  0  0  0  2  0  0  0  0  0  0
  -30.0920  -22.2640   20.7680 C   0  0  0  0  0  2  0  0  0  0  0  0
  -31.4510  -22.0710   20.3630 O   0  0  0  0  0  0  0  0  0  0  0  0
  -35.7620  -27.5940   19.1560 C   0  0  0  0  0  0  0  0  0  0  0  0
  -31.9260  -22.9840   19.4540 C   0  0  0  0  0  0  0  0  0  0  0  0
  -34.1390  -27.0770   17.3620 C   0  0  0  0  0  3  0  0  0  0  0  0
  -32.9150  -24.8530   17.5850 C   0  0  0  0  0  0  0  0  0  0  0  0
  -34.9930  -25.2380   18.9220 C   0  0  0  0  0  2  0  0  0  0  0  0
  -33.6650  -24.5400   18.7270 C   0  0  0  0  0  0  0  0  0  0  0  0
  -33.1790  -23.6000   19.6620 C   0  0  0  0  0  3  0  0  0  0  0  0
  -31.1850  -23.3020   18.2960 C   0  0  0  0  0  3  0  0  0  0  0  0
  -31.6710  -24.2370   17.3650 C   0  0  0  0  0  3  0  0  0  0  0  0
  -33.5100  -25.8640   16.6310 C   0  0  0  0  0  2  0  0  0  0  0  0
  -34.9830  -26.6670   18.5310 N   0  0  0  0  0  0  0  0  0  0  0  0
  -35.8190  -28.7610   18.7480 O   0  0  0  0  0  0  0  0  0  0  0  0
  -33.0140  -28.0680   17.7370 C   0  0  0  0  0  0  0  0  0  0  0  0
  -32.9740  -29.2140   17.0390 N   0  0  0  0  0  0  0  0  0  0  0  0
  -32.1910  -27.7900   18.6130 O   0  0  0  0  0  0  0  0  0  0  0  0
  -33.6830  -29.3640   16.3350 H   0  0  0  0  0  0  0  0  0  0  0  0
  -32.5110  -32.7900   16.8480 C   0  0  0  0  0  0  0  0  0  0  0  0
  -31.9870  -30.2820   17.1930 C   0  0  0  0  0  3  0  0  0  0  0  0
  -31.0990  -30.3960   15.9330 C   0  0  0  0  0  2  0  0  0  0  0  0
  -31.6230  -31.4150   14.9180 C   0  0  0  0  0  2  0  0  0  0  0  0
  -31.7200  -32.8070   15.5520 C   0  0  0  0  0  2  0  0  0  0  0  0
  -32.6500  -31.6010   17.6110 C   0  0  0  0  0  0  0  0  0  0  0  0
  -33.4240  -31.6290   18.7910 C   0  0  0  0  0  3  0  0  0  0  0  0
  -34.0450  -32.8180   19.2170 C   0  0  0  0  0  3  0  0  0  0  0  0
  -33.8870  -33.9970   18.4690 C   0  0  0  0  0  3  0  0  0  0  0  0
  -33.1220  -33.9830   17.2890 C   0  0  0  0  0  3  0  0  0  0  0  0
  -36.6350  -27.2260   20.3950 C   0  0  0  0  0  3  0  0  0  0  0  0
  -38.0060  -27.6750   20.1150 N   0  0  0  0  0  0  0  0  0  0  0  0
  -38.9730  -26.8930   19.6150 C   0  0  0  0  0  0  0  0  0  0  0  0
  -38.8200  -25.6860   19.4050 O   0  0  0  0  0  0  0  0  0  0  0  0
  -38.1840  -28.6650   20.2040 H   0  0  0  0  0  0  0  0  0  0  0  0
  -40.5090  -27.6490   17.7750 C   0  0  0  0  0  1  0  0  0  0  0  0
  -40.3260  -27.5550   19.2970 C   0  0  0  0  0  3  0  0  0  0  0  0
  -41.5960  -27.0500   21.3370 C   0  0  0  0  0  1  0  0  0  0  0  0
  -41.4800  -26.8490   19.8940 N   0  0  0  0  0  0  0  0  0  0  0  0
  -42.3500  -27.1490   19.4630 H   0  0  0  0  0  0  0  0  0  0  0  0
  -36.1010  -27.8560   21.7400 C   0  0  1  0  0  0  0  0  0  0  0  0
  -36.7820  -29.1950   22.1130 C   0  0  0  0  0  1  0  0  0  0  0  0
  -34.5770  -28.1090   21.6530 C   0  0  0  0  0  1  0  0  0  0  0  0
  -36.3170  -26.8610   22.9040 C   0  0  0  0  0  1  0  0  0  0  0  0
  -25.1890  -27.0600   19.3380 C   0  0  0  0  0  2  0  0  0  0  0  0
  -25.1360  -26.7450   17.8290 C   0  0  0  0  0  2  0  0  0  0  0  0
  -28.7250  -27.5230   13.4980 C   0  0  0  0  0  0  0  0  0  0  0  0
  -28.3780  -28.1030   11.1270 C   0  0  0  0  0  2  0  0  0  0  0  0
  -27.4460  -29.3300   11.0460 C   0  0  0  0  0  2  0  0  0  0  0  0
  -25.9650  -28.8990   11.0670 C   0  0  0  0  0  2  0  0  0  0  0  0
  -25.6470  -27.8950   12.2080 C   0  0  0  0  0  3  0  0  0  0  0  0
  -26.6850  -26.7530   12.2270 C   0  0  0  0  0  2  0  0  0  0  0  0
  -28.0230  -27.3570   12.3440 N   0  0  0  0  0  0  0  0  0  0  0  0
  -29.8270  -28.0820   13.5390 O   0  0  0  0  0  0  0  0  0  0  0  0
  -26.6020  -28.2600   16.4010 C   0  0  0  0  0  2  0  0  0  0  0  0
  -26.7170  -25.7590   16.0510 C   0  0  0  0  0  2  0  0  0  0  0  0
  -27.9230  -28.3810   15.6260 C   0  0  0  0  0  2  0  0  0  0  0  0
  -28.0220  -25.9800   15.2580 C   0  0  0  0  0  2  0  0  0  0  0  0
  -26.4810  -26.8850   17.0830 C   0  0  0  0  0  3  0  0  0  0  0  0
  -28.0200  -27.3060   14.6300 N   0  0  0  0  0  0  0  0  0  0  0  0
  -23.2900  -27.3190   13.0740 C   0  0  0  0  0  0  0  0  0  0  0  0
  -22.1820  -26.8210   12.4440 C   0  0  0  0  0  0  0  0  0  0  0  0
  -22.5630  -26.6150   11.0830 C   0  0  0  0  0  0  0  0  0  0  0  0
  -24.2820  -27.3850   12.1070 N   0  0  0  0  0  0  0  0  0  0  0  0
  -23.8450  -26.9080   10.9130 N   0  0  0  0  0  0  0  0  0  0  0  0
  -21.7660  -26.2070    9.9200 C   0  0  0  0  0  0  0  0  0  0  0  0
  -21.9360  -24.9430    9.3140 C   0  0  0  0  0  3  0  0  0  0  0  0
  -21.1440  -24.5680    8.2070 C   0  0  0  0  0  3  0  0  0  0  0  0
  -20.1690  -25.4580    7.6980 C   0  0  0  0  0  0  0  0  0  0  0  0
  -20.0200  -26.7240    8.2910 C   0  0  0  0  0  3  0  0  0  0  0  0
  -20.8110  -27.0990    9.3890 C   0  0  0  0  0  3  0  0  0  0  0  0
  -19.3720  -25.1890    6.6120 O   0  0  0  0  0  0  0  0  0  0  0  0
  -18.8680  -23.9340    6.3820 C   0  0  0  0  0  0  0  0  0  0  0  0
  -17.6160  -23.5280    6.8950 C   0  0  0  0  0  3  0  0  0  0  0  0
  -17.1040  -22.2550    6.5770 C   0  0  0  0  0  3  0  0  0  0  0  0
  -17.8350  -21.3900    5.7410 C   0  0  0  0  0  0  0  0  0  0  0  0
  -19.0780  -21.7940    5.2240 C   0  0  0  0  0  3  0  0  0  0  0  0
  -19.5920  -23.0640    5.5420 C   0  0  0  0  0  0  0  0  0  0  0  0
  -20.7810  -23.4570    5.0250 F   0  0  0  0  0  0  0  0  0  0  0  0
  -17.3400  -20.1700    5.4280 F   0  0  0  0  0  0  0  0  0  0  0  0
  -20.8180  -26.6380   13.0450 C   0  0  0  0  0  0  0  0  0  0  0  0
  -20.2840  -25.4220   12.9950 N   0  0  0  0  0  0  0  0  0  0  0  0
  -20.2370  -27.5640   13.6080 O   0  0  0  0  0  0  0  0  0  0  0  0
  -20.7710  -24.6560   12.5520 H   0  0  0  0  0  0  0  0  0  0  0  0
  -19.3770  -25.2540   13.4050 H   0  0  0  0  0  0  0  0  0  0  0  0
  -23.5280  -27.7380   14.3770 N   0  0  0  0  0  0  0  0  0  0  0  0
  -22.8050  -27.7450   15.0860 H   0  0  0  0  0  0  0  0  0  0  0  0
  -24.4100  -28.1100   14.7040 H   0  0  0  0  0  0  0  0  0  0  0  0
  1  4  1  0
  2  1  2  0
  2  5  1  0
  4 10  1  0
  4  3  2  0
  5  6  2  0
  6  3  1  0
  6  9  1  0
  9  8  1  0
  9  7  1  0
 10 11  1  0
 12 11  1  0
 13 12  1  0
 15 20  1  0
 15 13  1  0
 16 26  1  0
 16 24  1  0
 17 19  1  0
 19 18  1  0
 19 20  2  0
 21 15  2  0
 22 17  2  0
 22 21  1  0
 23 16  1  0
 23 17  1  0
 24 18  1  0
 24 14  1  0
 25 14  2  0
 26 28  2  0
 27 26  1  0
 29 27  1  0
 30 39  2  0
 30 35  1  0
 31 27  1  0
 31 35  1  0
 32 31  1  0
 33 34  1  0
 33 32  1  0
 34 30  1  0
 35 36  2  0
 36 37  1  0
 38 37  2  0
 39 38  1  0
 40 14  1  0
 40 50  1  0
 41 44  1  0
 41 40  1  0
 42 41  1  0
 43 42  2  0
 46 45  1  0
 46 42  1  0
 46 48  1  0
 48 47  1  0
 49 48  1  0
 50 51  1  1
 50 53  1  0
 52 50  1  0
 54  5  1  0
 55 54  1  0
 56 63  2  0
 56 69  1  0
 57 62  1  0
 58 59  1  0
 58 57  1  0
 60 59  1  0
 60 61  1  0
 61 62  1  0
 62 56  1  0
 64 68  1  0
 65 68  1  0
 66 64  1  0
 67 65  1  0
 68 55  1  0
 69 67  1  0
 69 66  1  0
 70 95  1  0
 71 90  1  0
 71 70  2  0
 72 71  1  0
 73 60  1  0
 73 70  1  0
 74 72  2  0
 74 73  1  0
 75 72  1  0
 76 75  2  0
 77 76  1  0
 78 77  2  0
 78 79  1  0
 79 80  2  0
 80 75  1  0
 81 78  1  0
 82 81  1  0
 82 83  1  0
 84 83  2  0
 85 84  1  0
 86 87  1  0
 86 85  2  0
 87 82  2  0
 88 87  1  0
 89 85  1  0
 90 92  2  0
 91 90  1  0
 91 94  1  0
 93 91  1  0
 95 97  1  0
 95 96  1  0
M  ISO  4  12 101  13 101  56 100  69 100
M  END
>  <TORSDO>  (35) 
F 22

>  <SCORE>  (35) 
-5.542

>  <name>  (35) 
34

>  <ligand_id>  (35) 
34

>  <original_smiles>  (35) 
[H]c1c([H])c([H])c2c(c1[H])C([H])([H])C([H])([H])C([H])([H])C2([H])N([H])C(=O)C1([H])N(C(=O)C([H])(N([H])C(=O)C([H])(N([H])C([H])([H])[H])C([H])([H])[H])C(C([H])([H])[H])(C([H])([H])[H])C([H])([H])[H])C([H])([H])c2c([H])c(OC([H])([H])C([H])([H])C([H])([H])c3c([H])c([H])c(C([H])([H])C([H])([H])C4([H])C([H])([H])C([H])([H])N(C(=O)N5C([H])([H])C([H])([H])C([H])([H])C([H])(n6nc(-c7c([H])c([H])c(Oc8c([H])c([H])c(F)c([H])c8F)c([H])c7[H])c(C(=O)N([H])[H])c6N([H])[H])C5([H])[H])C([H])([H])C4([H])[H])c(C([H])(C([H])([H])[H])C([H])([H])[H])c3[H])c([H])c([H])c2C1([H])[H]

>  <smiles>  (35) 
[H]c1c([H])c([H])c2c(c1[H])C([H])([H])C([H])([H])C([H])([H])C2([H])N([H])C(=O)C1([H])N(C(=O)C([H])(N([H])C(=O)C([H])(N([H])C([H])([H])[H])C([H])([H])[H])C(C([H])([H])[H])(C([H])([H])[H])C([H])([H])[H])C([H])([H])c2c([H])c(OC([H])([H])C([H])([H])C([H])([H])c3c([H])c([H])c(C([H])([H])C([H])([H])C4([H])C([H])([H])C([H])([H])N(C(=O)N5C([H])([H])C([H])([H])C([H])([H])C([H])(n6nc(-c7c([H])c([H])c(Oc8c([H])c([H])c(F)c([H])c8F)c([H])c7[H])c(C(=O)N([H])[H])c6N([H])[H])C5([H])[H])C([H])([H])C4([H])[H])c(C([H])(C([H])([H])[H])C([H])([H])[H])c3[H])c([H])c([H])c2C1([H])[H]

$$$$
35:0:0
     RDKit          3D

 92 99  0  0  1  0  0  0  0  0999 V2000
  -31.5700  -22.6790   22.0480 C   0  0  0  0  0  1  0  0  0  0  0  0
  -31.3120  -23.1280   20.6000 C   0  0  0  0  0  3  0  0  0  0  0  0
  -31.3370  -21.9970   19.6390 N   0  0  0  0  0  4  0  0  0  0  0  0
  -32.2060  -21.4960   19.7380 H   0  0  0  0  0  0  0  0  0  0  0  0
  -30.5890  -21.3760   19.8940 H   0  0  0  0  0  0  0  0  0  0  0  0
  -31.1430  -22.3550   18.2070 C   0  0  0  0  0  2  0  0  0  0  0  0
  -30.7850  -21.1470   17.3180 C   0  0  0  0  0  2  0  0  0  0  0  0
  -29.7460  -20.1880   17.9390 C   0  0  0  0  0  2  0  0  0  0  0  0
  -30.4430  -18.9490   18.5100 C   0  0  0  0  0  2  0  0  0  0  0  0
  -29.6010  -18.0220   19.4020 C   0  0  0  0  0  2  0  0  0  0  0  0
  -30.4400  -16.7600   19.6230 C   0  0  0  0  0  2  0  0  0  0  0  0
  -29.9650  -15.7340   20.6720 C   0  0  0  0  0  2  0  0  0  0  0  0
  -30.7000  -14.4120   20.3850 C   0  0  0  0  0  0  0  0  0  0  0  0
  -30.3330  -12.2710   19.2620 C   0  0  0  0  0  2  0  0  0  0  0  0
  -29.3880  -12.5360   18.0710 C   0  0  0  0  0  2  0  0  0  0  0  0
  -27.9150  -12.4080   18.5120 C   0  0  0  0  0  2  0  0  0  0  0  0
  -27.6040  -13.2450   19.7800 C   0  0  0  0  0  3  0  0  0  0  0  0
  -28.6730  -13.0260   20.8770 C   0  0  0  0  0  2  0  0  0  0  0  0
  -30.0030  -13.2560   20.2980 N   0  0  0  0  0  0  0  0  0  0  0  0
  -31.8740  -14.5010   20.0090 O   0  0  0  0  0  0  0  0  0  0  0  0
  -25.2290  -13.8750   20.5450 C   0  0  0  0  0  0  0  0  0  0  0  0
  -24.1620  -13.1120   20.9280 C   0  0  0  0  0  0  0  0  0  0  0  0
  -24.6110  -11.7560   20.8850 C   0  0  0  0  0  0  0  0  0  0  0  0
  -26.2590  -12.9850   20.2870 N   0  0  0  0  0  0  0  0  0  0  0  0
  -25.8940  -11.7060   20.5540 N   0  0  0  0  0  0  0  0  0  0  0  0
  -23.8800  -10.5000   21.0850 C   0  0  0  0  0  0  0  0  0  0  0  0
  -24.3360   -9.5170   21.9910 C   0  0  0  0  0  3  0  0  0  0  0  0
  -23.6080   -8.3240   22.1790 C   0  0  0  0  0  3  0  0  0  0  0  0
  -22.4070   -8.1040   21.4610 C   0  0  0  0  0  0  0  0  0  0  0  0
  -21.9690   -9.0770   20.5440 C   0  0  0  0  0  3  0  0  0  0  0  0
  -22.6990  -10.2620   20.3540 C   0  0  0  0  0  3  0  0  0  0  0  0
  -21.6460   -6.9650   21.5600 O   0  0  0  0  0  0  0  0  0  0  0  0
  -21.6440   -6.1960   22.6970 C   0  0  0  0  0  0  0  0  0  0  0  0
  -21.2960   -6.7300   23.9560 C   0  0  0  0  0  3  0  0  0  0  0  0
  -21.2400   -5.8880   25.0850 C   0  0  0  0  0  3  0  0  0  0  0  0
  -21.5200   -4.5150   24.9550 C   0  0  0  0  0  0  0  0  0  0  0  0
  -21.8610   -3.9810   23.6990 C   0  0  0  0  0  3  0  0  0  0  0  0
  -21.9190   -4.8190   22.5720 C   0  0  0  0  0  0  0  0  0  0  0  0
  -22.2260   -4.2950   21.3620 F   0  0  0  0  0  0  0  0  0  0  0  0
  -21.4590   -3.7050   26.0380 F   0  0  0  0  0  0  0  0  0  0  0  0
  -22.7720  -13.5960   21.2260 C   0  0  0  0  0  0  0  0  0  0  0  0
  -22.0560  -12.9030   22.1050 N   0  0  0  0  0  0  0  0  0  0  0  0
  -22.3320  -14.6280   20.7200 O   0  0  0  0  0  0  0  0  0  0  0  0
  -22.4230  -12.0670   22.5360 H   0  0  0  0  0  0  0  0  0  0  0  0
  -21.1250  -13.2110   22.3500 H   0  0  0  0  0  0  0  0  0  0  0  0
  -25.4000  -15.2460   20.3670 N   0  0  0  0  0  0  0  0  0  0  0  0
  -24.6410  -15.9070   20.4980 H   0  0  0  0  0  0  0  0  0  0  0  0
  -26.2510  -15.6850   20.0420 H   0  0  0  0  0  0  0  0  0  0  0  0
  -29.7310  -24.9340   19.8750 C   0  0  0  0  0  3  0  0  0  0  0  0
  -29.9560  -23.7780   20.5070 C   0  0  0  0  0  3  0  0  0  0  0  0
  -28.3620  -25.5010   19.6720 C   0  0  0  0  0  2  0  0  0  0  0  0
  -28.3470  -26.8320   20.1290 O   0  0  0  0  0  0  0  0  0  0  0  0
  -24.5390  -31.8900   23.2150 C   0  0  0  0  0  0  0  0  0  0  0  0
  -27.1410  -27.4780   20.1290 C   0  0  0  0  0  0  0  0  0  0  0  0
  -23.3050  -30.4840   21.5930 C   0  0  0  0  0  3  0  0  0  0  0  0
  -24.7380  -28.9470   20.1590 C   0  0  0  0  0  0  0  0  0  0  0  0
  -25.8230  -30.8560   21.3540 C   0  0  0  0  0  2  0  0  0  0  0  0
  -25.9000  -29.4860   20.7260 C   0  0  0  0  0  0  0  0  0  0  0  0
  -27.1010  -28.7550   20.7150 C   0  0  0  0  0  3  0  0  0  0  0  0
  -25.9570  -26.9330   19.5720 C   0  0  0  0  0  3  0  0  0  0  0  0
  -24.7570  -27.6640   19.5880 C   0  0  0  0  0  3  0  0  0  0  0  0
  -23.4920  -29.7980   20.2140 C   0  0  0  0  0  2  0  0  0  0  0  0
  -24.5750  -31.0890   22.1150 N   0  0  0  0  0  0  0  0  0  0  0  0
  -23.4660  -32.1640   23.7700 O   0  0  0  0  0  0  0  0  0  0  0  0
  -22.6710  -29.4640   22.5640 C   0  0  0  0  0  0  0  0  0  0  0  0
  -21.3460  -29.2740   22.4460 N   0  0  0  0  0  0  0  0  0  0  0  0
  -23.3670  -28.8450   23.3740 O   0  0  0  0  0  0  0  0  0  0  0  0
  -20.8490  -29.8250   21.7600 H   0  0  0  0  0  0  0  0  0  0  0  0
  -17.9830  -28.0780   22.9530 C   0  0  0  0  0  0  0  0  0  0  0  0
  -20.5380  -28.3400   23.2260 C   0  0  0  0  0  3  0  0  0  0  0  0
  -20.6450  -26.9030   22.6600 C   0  0  0  0  0  2  0  0  0  0  0  0
  -19.5450  -26.5710   21.6500 C   0  0  0  0  0  2  0  0  0  0  0  0
  -18.1630  -26.7220   22.2920 C   0  0  0  0  0  2  0  0  0  0  0  0
  -19.0990  -28.8450   23.3770 C   0  0  0  0  0  0  0  0  0  0  0  0
  -18.8790  -30.1180   23.9480 C   0  0  0  0  0  3  0  0  0  0  0  0
  -17.5740  -30.6210   24.1050 C   0  0  0  0  0  3  0  0  0  0  0  0
  -16.4720  -29.8480   23.7020 C   0  0  0  0  0  3  0  0  0  0  0  0
  -16.6760  -28.5780   23.1320 C   0  0  0  0  0  3  0  0  0  0  0  0
  -25.8370  -32.5180   23.8140 C   0  0  0  0  0  3  0  0  0  0  0  0
  -26.3810  -31.7380   25.0720 C   0  0  1  0  0  0  0  0  0  0  0  0
  -25.3110  -31.4870   26.1600 C   0  0  0  0  0  1  0  0  0  0  0  0
  -26.9570  -30.3690   24.6480 C   0  0  0  0  0  1  0  0  0  0  0  0
  -27.5460  -32.5260   25.7170 C   0  0  0  0  0  1  0  0  0  0  0  0
  -25.5330  -33.9130   24.1590 N   0  0  0  0  0  0  0  0  0  0  0  0
  -25.8570  -34.9690   23.4030 C   0  0  0  0  0  0  0  0  0  0  0  0
  -26.5140  -34.8730   22.3630 O   0  0  0  0  0  0  0  0  0  0  0  0
  -24.9480  -34.0620   24.9680 H   0  0  0  0  0  0  0  0  0  0  0  0
  -24.1190  -36.7550   23.0790 C   0  0  0  0  0  1  0  0  0  0  0  0
  -25.3720  -36.3530   23.8740 C   0  0  0  0  0  3  0  0  0  0  0  0
  -27.5170  -37.2300   24.6810 C   0  0  0  0  0  1  0  0  0  0  0  0
  -26.4010  -37.4090   23.7560 N   0  0  0  0  0  0  0  0  0  0  0  0
  -25.9950  -38.3260   23.9220 H   0  0  0  0  0  0  0  0  0  0  0  0
  2  1  1  0
  3  4  1  0
  3  5  1  0
  3  2  1  0
  6  3  1  0
  7  8  1  0
  7  6  1  0
  8  9  1  0
  9 10  1  0
 10 11  1  0
 11 12  1  0
 13 12  1  0
 14 19  1  0
 15 16  1  0
 15 14  1  0
 17 16  1  0
 17 24  1  0
 17 18  1  0
 19 13  1  0
 19 18  1  0
 20 13  2  0
 21 22  2  0
 22 41  1  0
 23 22  1  0
 23 26  1  0
 24 21  1  0
 24 25  1  0
 25 23  2  0
 26 27  1  0
 27 28  2  0
 29 32  1  0
 29 28  1  0
 30 29  2  0
 31 30  1  0
 31 26  2  0
 32 33  1  0
 33 34  1  0
 34 35  2  0
 36 35  1  0
 36 40  1  0
 37 36  2  0
 38 33  2  0
 38 37  1  0
 39 38  1  0
 41 42  1  0
 42 45  1  0
 42 44  1  0
 43 41  2  0
 46 47  1  0
 46 21  1  0
 48 46  1  0
 49 50  2  0
 50  2  1  0
 51 49  1  0
 51 52  1  0
 52 54  1  0
 53 64  2  0
 54 59  1  0
 55 63  1  0
 55 65  1  0
 56 62  1  0
 56 58  1  0
 57 63  1  0
 58 57  1  0
 59 58  2  0
 60 61  1  0
 60 54  2  0
 61 56  2  0
 62 55  1  0
 63 53  1  0
 65 67  2  0
 66 65  1  0
 68 66  1  0
 69 78  2  0
 69 74  1  0
 70 66  1  0
 70 74  1  0
 71 70  1  0
 72 73  1  0
 72 71  1  0
 73 69  1  0
 74 75  2  0
 75 76  1  0
 77 76  2  0
 78 77  1  0
 79 53  1  0
 79 84  1  0
 79 80  1  0
 80 83  1  1
 80 81  1  0
 82 80  1  0
 84 87  1  0
 85 89  1  0
 85 84  1  0
 86 85  2  0
 89 88  1  0
 91 89  1  0
 91 92  1  0
 91 90  1  0
M  ISO  4  12 100  13 100  51 101  52 101
M  END
>  <TORSDO>  (36) 
F 26

>  <SCORE>  (36) 
-11.263

>  <name>  (36) 
35

>  <ligand_id>  (36) 
35

>  <original_smiles>  (36) 
[H]C(=C([H])C([H])(C([H])([H])[H])[N+]([H])([H])C([H])([H])C([H])([H])C([H])([H])C([H])([H])C([H])([H])C([H])([H])C([H])([H])C(=O)N1C([H])([H])C([H])([H])C([H])([H])C([H])(n2nc(-c3c([H])c([H])c(Oc4c([H])c([H])c(F)c([H])c4F)c([H])c3[H])c(C(=O)N([H])[H])c2N([H])[H])C1([H])[H])C([H])([H])Oc1c([H])c([H])c2c(c1[H])C([H])([H])N(C(=O)C([H])(N([H])C(=O)C([H])(N([H])C([H])([H])[H])C([H])([H])[H])C(C([H])([H])[H])(C([H])([H])[H])C([H])([H])[H])C([H])(C(=O)N([H])C1([H])c3c([H])c([H])c([H])c([H])c3C([H])([H])C([H])([H])C1([H])[H])C2([H])[H]

>  <smiles>  (36) 
[H]C(=C([H])C([H])(C([H])([H])[H])[N+]([H])([H])C([H])([H])C([H])([H])C([H])([H])C([H])([H])C([H])([H])C([H])([H])C([H])([H])C(=O)N1C([H])([H])C([H])([H])C([H])([H])C([H])(n2nc(-c3c([H])c([H])c(Oc4c([H])c([H])c(F)c([H])c4F)c([H])c3[H])c(C(=O)N([H])[H])c2N([H])[H])C1([H])[H])C([H])([H])Oc1c([H])c([H])c2c(c1[H])C([H])([H])N(C(=O)C([H])(N([H])C(=O)C([H])(N([H])C([H])([H])[H])C([H])([H])[H])C(C([H])([H])[H])(C([H])([H])[H])C([H])([H])[H])C([H])(C(=O)N([H])C1([H])c3c([H])c([H])c([H])c([H])c3C([H])([H])C([H])([H])C1([H])[H])C2([H])[H]

$$$$
36:0:0
     RDKit          3D

 96104  0  0  1  0  0  0  0  0999 V2000
  -26.1610  -24.2460   25.5490 C   0  0  0  0  0  3  0  0  0  0  0  0
  -26.9090  -25.1010   26.3820 C   0  0  0  0  0  3  0  0  0  0  0  0
  -26.5110  -24.0930   24.1920 C   0  0  0  0  0  3  0  0  0  0  0  0
  -28.3690  -25.6400   24.5030 C   0  0  0  0  0  3  0  0  0  0  0  0
  -28.0240  -25.7930   25.8630 C   0  0  0  0  0  0  0  0  0  0  0  0
  -27.6080  -24.7990   23.6560 C   0  0  0  0  0  0  0  0  0  0  0  0
  -27.9590  -26.0030   21.4470 C   0  0  0  0  0  1  0  0  0  0  0  0
  -27.9590  -24.6410   22.1790 C   0  0  0  0  0  3  0  0  0  0  0  0
  -29.2490  -23.9180   22.0760 N   0  0  0  0  0  4  0  0  0  0  0  0
  -29.9250  -24.4190   22.6280 H   0  0  0  0  0  0  0  0  0  0  0  0
  -29.1270  -23.0130   22.5020 H   0  0  0  0  0  0  0  0  0  0  0  0
  -29.7930  -23.7210   20.7130 C   0  0  0  0  0  2  0  0  0  0  0  0
  -31.2660  -23.2440   20.7460 C   0  0  0  0  0  2  0  0  0  0  0  0
  -32.0720  -23.8070   19.5650 C   0  0  0  0  0  2  0  0  0  0  0  0
  -33.6100  -23.7880   19.7240 C   0  0  0  0  0  2  0  0  0  0  0  0
  -34.2200  -24.9410   18.8970 C   0  0  0  0  0  2  0  0  0  0  0  0
  -35.6730  -24.8250   18.4040 C   0  0  0  0  0  0  0  0  0  0  0  0
  -36.9030  -24.5760   16.2920 C   0  0  0  0  0  2  0  0  0  0  0  0
  -36.1100  -25.3060   15.1870 C   0  0  0  0  0  2  0  0  0  0  0  0
  -35.0460  -24.3820   14.5590 C   0  0  0  0  0  2  0  0  0  0  0  0
  -34.1810  -23.6650   15.6240 C   0  0  0  0  0  3  0  0  0  0  0  0
  -35.0630  -23.0520   16.7360 C   0  0  0  0  0  2  0  0  0  0  0  0
  -35.9330  -24.1000   17.2860 N   0  0  0  0  0  0  0  0  0  0  0  0
  -36.4850  -25.6200   18.8860 O   0  0  0  0  0  0  0  0  0  0  0  0
  -31.9020  -22.6150   15.0660 C   0  0  0  0  0  0  0  0  0  0  0  0
  -31.5600  -21.5310   14.3020 C   0  0  0  0  0  0  0  0  0  0  0  0
  -32.7890  -20.9770   13.8340 C   0  0  0  0  0  0  0  0  0  0  0  0
  -33.2870  -22.6730   15.0370 N   0  0  0  0  0  0  0  0  0  0  0  0
  -33.8200  -21.6410   14.3360 N   0  0  0  0  0  0  0  0  0  0  0  0
  -33.0460  -19.8820   12.8900 C   0  0  0  0  0  0  0  0  0  0  0  0
  -33.9300  -18.8270   13.2070 C   0  0  0  0  0  3  0  0  0  0  0  0
  -34.1520  -17.7800   12.2880 C   0  0  0  0  0  3  0  0  0  0  0  0
  -33.4830  -17.7780   11.0410 C   0  0  0  0  0  0  0  0  0  0  0  0
  -32.6210  -18.8420   10.7210 C   0  0  0  0  0  3  0  0  0  0  0  0
  -32.4060  -19.8870   11.6360 C   0  0  0  0  0  3  0  0  0  0  0  0
  -33.6540  -16.8140   10.0780 O   0  0  0  0  0  0  0  0  0  0  0  0
  -34.0440  -15.5380   10.3990 C   0  0  0  0  0  0  0  0  0  0  0  0
  -33.3260  -14.7500   11.3260 C   0  0  0  0  0  3  0  0  0  0  0  0
  -33.7210  -13.4200   11.5720 C   0  0  0  0  0  3  0  0  0  0  0  0
  -34.8220  -12.8730   10.8880 C   0  0  0  0  0  0  0  0  0  0  0  0
  -35.5340  -13.6540    9.9600 C   0  0  0  0  0  3  0  0  0  0  0  0
  -35.1420  -14.9820    9.7140 C   0  0  0  0  0  0  0  0  0  0  0  0
  -35.8190  -15.7220    8.8040 F   0  0  0  0  0  0  0  0  0  0  0  0
  -35.1960  -11.5920   11.1190 F   0  0  0  0  0  0  0  0  0  0  0  0
  -30.1690  -21.0950   13.9410 C   0  0  0  0  0  0  0  0  0  0  0  0
  -29.9710  -19.7990   13.7250 N   0  0  0  0  0  0  0  0  0  0  0  0
  -29.2370  -21.8970   13.8960 O   0  0  0  0  0  0  0  0  0  0  0  0
  -30.7270  -19.1360   13.7800 H   0  0  0  0  0  0  0  0  0  0  0  0
  -29.0440  -19.4660   13.5020 H   0  0  0  0  0  0  0  0  0  0  0  0
  -31.1520  -23.5650   15.7520 N   0  0  0  0  0  0  0  0  0  0  0  0
  -30.1400  -23.5820   15.6970 H   0  0  0  0  0  0  0  0  0  0  0  0
  -31.5410  -24.3840   16.1990 H   0  0  0  0  0  0  0  0  0  0  0  0
  -28.8690  -26.6730   26.7730 C   0  0  0  0  0  2  0  0  0  0  0  0
  -28.3870  -28.1300   26.8800 C   0  0  0  0  0  2  0  0  0  0  0  0
  -28.5960  -28.9740   25.6050 C   0  0  0  0  0  2  0  0  0  0  0  0
  -28.2450  -30.3440   25.8200 O   0  0  0  0  0  0  0  0  0  0  0  0
  -21.9820  -28.6510   28.6400 C   0  0  0  0  0  0  0  0  0  0  0  0
  -26.8910  -30.5520   25.7930 C   0  0  0  0  0  0  0  0  0  0  0  0
  -21.9000  -29.8480   26.4770 C   0  0  0  0  0  3  0  0  0  0  0  0
  -24.0990  -30.8810   25.6960 C   0  0  0  0  0  0  0  0  0  0  0  0
  -23.8440  -30.2100   28.0940 C   0  0  0  0  0  2  0  0  0  0  0  0
  -24.7160  -30.4800   26.8880 C   0  0  0  0  0  0  0  0  0  0  0  0
  -26.1140  -30.3260   26.9460 C   0  0  0  0  0  3  0  0  0  0  0  0
  -26.2690  -30.9630   24.5960 C   0  0  0  0  0  3  0  0  0  0  0  0
  -24.8710  -31.1280   24.5450 C   0  0  0  0  0  3  0  0  0  0  0  0
  -22.5930  -31.0170   25.7240 C   0  0  0  0  0  2  0  0  0  0  0  0
  -22.5760  -29.5160   27.7720 N   0  0  0  0  0  0  0  0  0  0  0  0
  -20.8670  -28.1670   28.4010 O   0  0  0  0  0  0  0  0  0  0  0  0
  -21.7840  -28.6440   25.5180 C   0  0  0  0  0  0  0  0  0  0  0  0
  -20.8110  -28.7120   24.5940 N   0  0  0  0  0  0  0  0  0  0  0  0
  -22.5690  -27.6970   25.5910 O   0  0  0  0  0  0  0  0  0  0  0  0
  -20.2070  -29.5220   24.6020 H   0  0  0  0  0  0  0  0  0  0  0  0
  -18.6530  -27.9290   21.8080 C   0  0  0  0  0  0  0  0  0  0  0  0
  -20.5350  -27.7120   23.5640 C   0  0  0  0  0  3  0  0  0  0  0  0
  -21.5190  -27.8420   22.3770 C   0  0  0  0  0  2  0  0  0  0  0  0
  -20.9880  -28.7310   21.2480 C   0  0  0  0  0  2  0  0  0  0  0  0
  -19.6680  -28.1750   20.7060 C   0  0  0  0  0  2  0  0  0  0  0  0
  -19.0600  -27.7270   23.1530 C   0  0  0  0  0  0  0  0  0  0  0  0
  -18.0740  -27.5380   24.1460 C   0  0  0  0  0  3  0  0  0  0  0  0
  -16.7060  -27.5400   23.8110 C   0  0  0  0  0  3  0  0  0  0  0  0
  -16.3100  -27.7210   22.4750 C   0  0  0  0  0  3  0  0  0  0  0  0
  -17.2820  -27.9140   21.4760 C   0  0  0  0  0  3  0  0  0  0  0  0
  -22.6610  -28.2490   29.9870 C   0  0  0  0  0  3  0  0  0  0  0  0
  -23.4320  -26.8740   29.9050 C   0  0  1  0  0  0  0  0  0  0  0  0
  -22.5790  -25.7180   29.3350 C   0  0  0  0  0  1  0  0  0  0  0  0
  -24.6960  -27.0110   29.0240 C   0  0  0  0  0  1  0  0  0  0  0  0
  -23.9150  -26.4590   31.3160 C   0  0  0  0  0  1  0  0  0  0  0  0
  -21.6130  -28.2000   31.0140 N   0  0  0  0  0  0  0  0  0  0  0  0
  -21.3880  -29.1640   31.9160 C   0  0  0  0  0  0  0  0  0  0  0  0
  -22.1000  -30.1680   32.0150 O   0  0  0  0  0  0  0  0  0  0  0  0
  -20.9580  -27.4350   30.9550 H   0  0  0  0  0  0  0  0  0  0  0  0
  -19.0040  -29.8310   32.3430 C   0  0  0  0  0  1  0  0  0  0  0  0
  -20.1820  -28.9890   32.8590 C   0  0  0  0  0  3  0  0  0  0  0  0
  -21.4090  -28.4230   34.9100 C   0  0  0  0  0  1  0  0  0  0  0  0
  -20.4770  -29.3450   34.2640 N   0  0  0  0  0  0  0  0  0  0  0  0
  -19.6250  -29.3710   34.8180 H   0  0  0  0  0  0  0  0  0  0  0  0
  1  2  1  0
  3  1  2  0
  4  5  1  0
  5  2  2  0
  5 53  1  0
  6  3  1  0
  6  4  2  0
  8  7  1  0
  8  6  1  0
  9  8  1  0
  9 11  1  0
  9 10  1  0
 12 13  1  0
 12  9  1  0
 14 15  1  0
 14 13  1  0
 16 15  1  0
 17 24  2  0
 17 16  1  0
 18 23  1  0
 19 18  1  0
 20 19  1  0
 21 20  1  0
 21 22  1  0
 22 23  1  0
 23 17  1  0
 25 50  1  0
 26 25  2  0
 27 26  1  0
 27 29  2  0
 28 25  1  0
 28 21  1  0
 29 28  1  0
 30 31  1  0
 30 27  1  0
 32 31  2  0
 33 32  1  0
 34 33  2  0
 34 35  1  0
 35 30  2  0
 36 37  1  0
 36 33  1  0
 37 38  1  0
 38 39  2  0
 40 44  1  0
 40 39  1  0
 41 40  2  0
 42 41  1  0
 42 37  2  0
 43 42  1  0
 45 26  1  0
 46 48  1  0
 46 45  1  0
 47 45  2  0
 49 46  1  0
 50 52  1  0
 51 50  1  0
 53 54  1  0
 55 56  1  0
 55 54  1  0
 58 56  1  0
 58 63  1  0
 59 69  1  0
 59 67  1  0
 60 66  1  0
 60 62  1  0
 62 63  2  0
 62 61  1  0
 64 58  2  0
 65 64  1  0
 65 60  2  0
 66 59  1  0
 67 61  1  0
 67 57  1  0
 68 57  2  0
 69 71  2  0
 70 72  1  0
 70 69  1  0
 73 78  1  0
 74 70  1  0
 75 74  1  0
 76 75  1  0
 77 76  1  0
 77 73  1  0
 78 74  1  0
 78 79  2  0
 80 79  1  0
 81 80  2  0
 82 73  2  0
 82 81  1  0
 83 57  1  0
 83 88  1  0
 84 83  1  0
 84 87  1  1
 85 84  1  0
 86 84  1  0
 88 89  1  0
 89 90  2  0
 89 93  1  0
 91 88  1  0
 93 92  1  0
 93 95  1  0
 95 96  1  0
 95 94  1  0
M  ISO  4  16 100  17 100  55 101  56 101
M  END
>  <TORSDO>  (37) 
F 26

>  <SCORE>  (37) 
32.034

>  <name>  (37) 
36

>  <ligand_id>  (37) 
36

>  <original_smiles>  (37) 
[H]c1c([H])c([H])c2c(c1[H])C([H])([H])C([H])([H])C([H])([H])C2([H])N([H])C(=O)C1([H])N(C(=O)C([H])(N([H])C(=O)C([H])(N([H])C([H])([H])[H])C([H])([H])[H])C(C([H])([H])[H])(C([H])([H])[H])C([H])([H])[H])C([H])([H])c2c([H])c(OC([H])([H])C([H])([H])C([H])([H])c3c([H])c([H])c([H])c(C([H])(C([H])([H])[H])[N+]([H])([H])C([H])([H])C([H])([H])C([H])([H])C([H])([H])C([H])([H])C(=O)N4C([H])([H])C([H])([H])C([H])([H])C([H])(n5nc(-c6c([H])c([H])c(Oc7c([H])c([H])c(F)c([H])c7F)c([H])c6[H])c(C(=O)N([H])[H])c5N([H])[H])C4([H])[H])c3[H])c([H])c([H])c2C1([H])[H]

>  <smiles>  (37) 
[H]c1c([H])c([H])c2c(c1[H])C([H])([H])C([H])([H])C([H])([H])C2([H])N([H])C(=O)C1([H])N(C(=O)C([H])(N([H])C(=O)C([H])(N([H])C([H])([H])[H])C([H])([H])[H])C(C([H])([H])[H])(C([H])([H])[H])C([H])([H])[H])C([H])([H])c2c([H])c(OC([H])([H])C([H])([H])C([H])([H])c3c([H])c([H])c([H])c(C([H])(C([H])([H])[H])[N+]([H])([H])C([H])([H])C([H])([H])C([H])([H])C([H])([H])C([H])([H])C(=O)N4C([H])([H])C([H])([H])C([H])([H])C([H])(n5nc(-c6c([H])c([H])c(Oc7c([H])c([H])c(F)c([H])c7F)c([H])c6[H])c(C(=O)N([H])[H])c5N([H])[H])C4([H])[H])c3[H])c([H])c([H])c2C1([H])[H]

$$$$
37:0:0
     RDKit          3D

104112  0  0  1  0  0  0  0  0999 V2000
  -24.4920  -24.0660   14.6240 C   0  0  0  0  0  3  0  0  0  0  0  0
  -24.7730  -25.0070   13.6160 C   0  0  0  0  0  3  0  0  0  0  0  0
  -26.2350  -25.0470   15.9980 C   0  0  0  0  0  3  0  0  0  0  0  0
  -25.2300  -24.0690   15.8260 C   0  0  0  0  0  0  0  0  0  0  0  0
  -25.7920  -25.9700   13.7830 C   0  0  0  0  0  0  0  0  0  0  0  0
  -26.5310  -26.0010   14.9970 C   0  0  0  0  0  0  0  0  0  0  0  0
  -24.9430  -23.0560   16.8860 C   0  0  0  0  0  0  0  0  0  0  0  0
  -23.9070  -22.3840   16.9220 O   0  0  0  0  0  0  0  0  0  0  0  0
  -26.0300  -22.8500   17.9480 C   0  0  0  0  0  2  0  0  0  0  0  0
  -26.0710  -21.4600   18.6000 C   0  0  0  0  0  2  0  0  0  0  0  0
  -27.4530  -21.2300   19.2240 C   0  0  0  0  0  2  0  0  0  0  0  0
  -27.6030  -19.8720   19.9160 C   0  0  0  0  0  2  0  0  0  0  0  0
  -29.0610  -19.6240   20.3190 C   0  0  0  0  0  2  0  0  0  0  0  0
  -29.2610  -18.3070   21.0760 C   0  0  0  0  0  2  0  0  0  0  0  0
  -30.7520  -18.0310   21.3350 C   0  0  0  0  0  2  0  0  0  0  0  0
  -31.0320  -16.7470   22.1380 C   0  0  0  0  0  2  0  0  0  0  0  0
  -30.7830  -14.9570   20.4030 C   0  0  0  0  0  0  0  0  0  0  0  0
  -30.4210  -12.9710   18.9860 C   0  0  0  0  0  2  0  0  0  0  0  0
  -29.4470  -13.2440   17.8250 C   0  0  0  0  0  2  0  0  0  0  0  0
  -27.9890  -13.0430   18.2740 C   0  0  0  0  0  2  0  0  0  0  0  0
  -27.6660  -13.7970   19.5890 C   0  0  0  0  0  3  0  0  0  0  0  0
  -28.7370  -13.5060   20.6640 C   0  0  0  0  0  2  0  0  0  0  0  0
  -30.0640  -13.8450   20.1110 N   0  0  0  0  0  0  0  0  0  0  0  0
  -31.7430  -15.3470   19.7290 O   0  0  0  0  0  0  0  0  0  0  0  0
  -30.4240  -15.5600   21.5420 N   0  0  0  0  0  0  0  0  0  0  0  0
  -29.6620  -15.1340   22.0490 H   0  0  0  0  0  0  0  0  0  0  0  0
  -25.2380  -14.3140   20.2830 C   0  0  0  0  0  0  0  0  0  0  0  0
  -24.2040  -13.5000   20.6670 C   0  0  0  0  0  0  0  0  0  0  0  0
  -24.7230  -12.1700   20.6550 C   0  0  0  0  0  0  0  0  0  0  0  0
  -26.3220  -13.4740   20.0690 N   0  0  0  0  0  0  0  0  0  0  0  0
  -26.0130  -12.1810   20.3460 N   0  0  0  0  0  0  0  0  0  0  0  0
  -24.0520  -10.8800   20.8670 C   0  0  0  0  0  0  0  0  0  0  0  0
  -24.4880   -9.9750   21.8590 C   0  0  0  0  0  3  0  0  0  0  0  0
  -23.8170   -8.7480   22.0550 C   0  0  0  0  0  3  0  0  0  0  0  0
  -22.6960   -8.4190   21.2570 C   0  0  0  0  0  0  0  0  0  0  0  0
  -22.2800   -9.3140   20.2560 C   0  0  0  0  0  3  0  0  0  0  0  0
  -22.9520  -10.5310   20.0580 C   0  0  0  0  0  3  0  0  0  0  0  0
  -21.9980   -7.2390   21.3580 O   0  0  0  0  0  0  0  0  0  0  0  0
  -21.8880   -6.5680   22.5500 C   0  0  0  0  0  0  0  0  0  0  0  0
  -21.3190   -7.1670   23.6940 C   0  0  0  0  0  3  0  0  0  0  0  0
  -21.1620   -6.4180   24.8770 C   0  0  0  0  0  3  0  0  0  0  0  0
  -21.5650   -5.0700   24.9160 C   0  0  0  0  0  0  0  0  0  0  0  0
  -22.1290   -4.4700   23.7770 C   0  0  0  0  0  3  0  0  0  0  0  0
  -22.2870   -5.2170   22.5950 C   0  0  0  0  0  0  0  0  0  0  0  0
  -22.8100   -4.6270   21.4930 F   0  0  0  0  0  0  0  0  0  0  0  0
  -21.4090   -4.3470   26.0490 F   0  0  0  0  0  0  0  0  0  0  0  0
  -22.7870  -13.9210   20.9360 C   0  0  0  0  0  0  0  0  0  0  0  0
  -22.0950  -13.2100   21.8200 N   0  0  0  0  0  0  0  0  0  0  0  0
  -22.3010  -14.9140   20.3980 O   0  0  0  0  0  0  0  0  0  0  0  0
  -22.5010  -12.4070   22.2780 H   0  0  0  0  0  0  0  0  0  0  0  0
  -21.1460  -13.4750   22.0430 H   0  0  0  0  0  0  0  0  0  0  0  0
  -25.3440  -15.6870   20.0860 N   0  0  0  0  0  0  0  0  0  0  0  0
  -24.5550  -16.3140   20.1890 H   0  0  0  0  0  0  0  0  0  0  0  0
  -26.1850  -16.1550   19.7720 H   0  0  0  0  0  0  0  0  0  0  0  0
  -26.0400  -26.9500   12.6380 C   0  0  0  0  0  2  0  0  0  0  0  0
  -25.2880  -28.1950   12.8380 N   0  0  0  0  0  4  0  0  0  0  0  0
  -24.3090  -28.0000   12.9190 H   0  0  0  0  0  0  0  0  0  0  0  0
  -25.4300  -28.8080   12.0560 H   0  0  0  0  0  0  0  0  0  0  0  0
  -25.5870  -28.6640   13.6710 H   0  0  0  0  0  0  0  0  0  0  0  0
  -27.6370  -27.0300   15.2710 C   0  0  0  0  0  2  0  0  0  0  0  0
  -27.7900  -27.3880   16.7670 C   0  0  0  0  0  2  0  0  0  0  0  0
  -28.9160  -26.6270   17.5120 C   0  0  0  0  0  2  0  0  0  0  0  0
  -28.6050  -26.1380   18.9500 C   0  0  0  0  0  2  0  0  0  0  0  0
  -28.4570  -27.1810   19.9210 O   0  0  0  0  0  0  0  0  0  0  0  0
  -24.7210  -32.0960   23.4840 C   0  0  0  0  0  0  0  0  0  0  0  0
  -27.2460  -27.8300   20.0610 C   0  0  0  0  0  0  0  0  0  0  0  0
  -23.4520  -30.7760   21.8240 C   0  0  0  0  0  3  0  0  0  0  0  0
  -24.8440  -29.3080   20.2800 C   0  0  0  0  0  0  0  0  0  0  0  0
  -25.9700  -31.1450   21.5480 C   0  0  0  0  0  2  0  0  0  0  0  0
  -26.0260  -29.8070   20.8390 C   0  0  0  0  0  0  0  0  0  0  0  0
  -27.2260  -29.0710   20.7340 C   0  0  0  0  0  3  0  0  0  0  0  0
  -26.0250  -27.3160   19.5610 C   0  0  0  0  0  3  0  0  0  0  0  0
  -24.8350  -28.0560   19.6470 C   0  0  0  0  0  3  0  0  0  0  0  0
  -23.6090  -30.1650   20.4070 C   0  0  0  0  0  2  0  0  0  0  0  0
  -24.7350  -31.3490   22.3440 N   0  0  0  0  0  0  0  0  0  0  0  0
  -23.6600  -32.3420   24.0730 O   0  0  0  0  0  0  0  0  0  0  0  0
  -22.8340  -29.7080   22.7530 C   0  0  0  0  0  0  0  0  0  0  0  0
  -21.5230  -29.4620   22.5920 N   0  0  0  0  0  0  0  0  0  0  0  0
  -23.5300  -29.1030   23.5720 O   0  0  0  0  0  0  0  0  0  0  0  0
  -21.0210  -30.0040   21.9020 H   0  0  0  0  0  0  0  0  0  0  0  0
  -18.2250  -28.0240   22.9150 C   0  0  0  0  0  0  0  0  0  0  0  0
  -20.7370  -28.4740   23.3290 C   0  0  0  0  0  3  0  0  0  0  0  0
  -20.9780  -27.0490   22.7800 C   0  0  0  0  0  2  0  0  0  0  0  0
  -19.9630  -26.6360   21.7100 C   0  0  0  0  0  2  0  0  0  0  0  0
  -18.5390  -26.6840   22.2720 C   0  0  0  0  0  2  0  0  0  0  0  0
  -19.2590  -28.8720   23.3960 C   0  0  0  0  0  0  0  0  0  0  0  0
  -18.9140  -30.1250   23.9520 C   0  0  0  0  0  3  0  0  0  0  0  0
  -17.5690  -30.5310   24.0330 C   0  0  0  0  0  3  0  0  0  0  0  0
  -16.5500  -29.6800   23.5690 C   0  0  0  0  0  3  0  0  0  0  0  0
  -16.8780  -28.4290   23.0170 C   0  0  0  0  0  3  0  0  0  0  0  0
  -26.0300  -32.6940   24.0880 C   0  0  0  0  0  3  0  0  0  0  0  0
  -25.7530  -34.0900   24.4440 N   0  0  0  0  0  0  0  0  0  0  0  0
  -26.0990  -35.1480   23.6990 C   0  0  0  0  0  0  0  0  0  0  0  0
  -26.7560  -35.0480   22.6590 O   0  0  0  0  0  0  0  0  0  0  0  0
  -25.1710  -34.2460   25.2550 H   0  0  0  0  0  0  0  0  0  0  0  0
  -24.4030  -36.9790   23.3870 C   0  0  0  0  0  1  0  0  0  0  0  0
  -25.6420  -36.5380   24.1840 C   0  0  0  0  0  3  0  0  0  0  0  0
  -27.7980  -37.3630   25.0160 C   0  0  0  0  0  1  0  0  0  0  0  0
  -26.6950  -37.5710   24.0820 N   0  0  0  0  0  0  0  0  0  0  0  0
  -26.3090  -38.4950   24.2510 H   0  0  0  0  0  0  0  0  0  0  0  0
  -26.5590  -31.8920   25.3390 C   0  0  1  0  0  0  0  0  0  0  0  0
  -25.4740  -31.6130   26.4050 C   0  0  0  0  0  1  0  0  0  0  0  0
  -27.1510  -30.5310   24.9010 C   0  0  0  0  0  1  0  0  0  0  0  0
  -27.7070  -32.6760   26.0160 C   0  0  0  0  0  1  0  0  0  0  0  0
  1  4  1  0
  2  5  1  0
  2  1  2  0
  4  3  2  0
  4  7  1  0
  5  6  2  0
  6 60  1  0
  6  3  1  0
  7  8  2  0
  7  9  1  0
  9 10  1  0
 10 11  1  0
 11 12  1  0
 12 13  1  0
 13 14  1  0
 14 15  1  0
 15 16  1  0
 17 25  1  0
 18 23  1  0
 19 20  1  0
 19 18  1  0
 21 20  1  0
 21 30  1  0
 21 22  1  0
 23 17  1  0
 23 22  1  0
 24 17  2  0
 25 26  1  0
 25 16  1  0
 27 28  2  0
 28 47  1  0
 29 28  1  0
 29 32  1  0
 30 27  1  0
 30 31  1  0
 31 29  2  0
 32 33  1  0
 33 34  2  0
 35 38  1  0
 35 34  1  0
 36 35  2  0
 37 36  1  0
 37 32  2  0
 38 39  1  0
 39 44  2  0
 39 40  1  0
 40 41  2  0
 41 42  1  0
 42 46  1  0
 43 42  2  0
 44 43  1  0
 45 44  1  0
 47 48  1  0
 48 51  1  0
 48 50  1  0
 49 47  2  0
 52 53  1  0
 52 27  1  0
 54 52  1  0
 55 56  1  0
 55  5  1  0
 56 57  1  0
 56 59  1  0
 58 56  1  0
 60 61  1  0
 61 62  1  0
 62 63  1  0
 63 64  1  0
 64 66  1  0
 65 76  2  0
 66 71  1  0
 67 75  1  0
 67 77  1  0
 68 74  1  0
 68 70  1  0
 69 75  1  0
 70 69  1  0
 71 70  2  0
 72 73  1  0
 72 66  2  0
 73 68  2  0
 74 67  1  0
 75 65  1  0
 77 79  2  0
 78 77  1  0
 80 78  1  0
 81 90  2  0
 81 86  1  0
 82 78  1  0
 82 86  1  0
 83 82  1  0
 84 85  1  0
 84 83  1  0
 85 81  1  0
 86 87  2  0
 87 88  1  0
 89 88  2  0
 90 89  1  0
 91 65  1  0
 91 92  1  0
 91101  1  0
 92 95  1  0
 93 97  1  0
 93 92  1  0
 94 93  2  0
 97 96  1  0
 99 97  1  0
 99100  1  0
 99 98  1  0
101104  1  1
101102  1  0
103101  1  0
M  ISO  4  17 100  25 100  63 101  64 101
M  END
>  <TORSDO>  (38) 
F 31

>  <SCORE>  (38) 
-9.505

>  <name>  (38) 
37

>  <ligand_id>  (38) 
37

>  <original_smiles>  (38) 
[H]c1c([H])c([H])c2c(c1[H])C([H])([H])C([H])([H])C([H])([H])C2([H])N([H])C(=O)C1([H])N(C(=O)C([H])(N([H])C(=O)C([H])(N([H])C([H])([H])[H])C([H])([H])[H])C(C([H])([H])[H])(C([H])([H])[H])C([H])([H])[H])C([H])([H])c2c([H])c(OC([H])([H])C([H])([H])C([H])([H])C([H])([H])c3c([H])c(C(=O)C([H])([H])C([H])([H])C([H])([H])C([H])([H])C([H])([H])C([H])([H])C([H])([H])C([H])([H])N([H])C(=O)N4C([H])([H])C([H])([H])C([H])([H])C([H])(n5nc(-c6c([H])c([H])c(Oc7c([H])c([H])c(F)c([H])c7F)c([H])c6[H])c(C(=O)N([H])[H])c5N([H])[H])C4([H])[H])c([H])c([H])c3C([H])([H])[N+]([H])([H])[H])c([H])c([H])c2C1([H])[H]

>  <smiles>  (38) 
[H]c1c([H])c([H])c2c(c1[H])C([H])([H])C([H])([H])C([H])([H])C2([H])N([H])C(=O)C1([H])N(C(=O)C([H])(N([H])C(=O)C([H])(N([H])C([H])([H])[H])C([H])([H])[H])C(C([H])([H])[H])(C([H])([H])[H])C([H])([H])[H])C([H])([H])c2c([H])c(OC([H])([H])C([H])([H])C([H])([H])C([H])([H])c3c([H])c(C(=O)C([H])([H])C([H])([H])C([H])([H])C([H])([H])C([H])([H])C([H])([H])C([H])([H])C([H])([H])N([H])C(=O)N4C([H])([H])C([H])([H])C([H])([H])C([H])(n5nc(-c6c([H])c([H])c(Oc7c([H])c([H])c(F)c([H])c7F)c([H])c6[H])c(C(=O)N([H])[H])c5N([H])[H])C4([H])[H])c([H])c([H])c3C([H])([H])[N+]([H])([H])[H])c([H])c([H])c2C1([H])[H]

$$$$
38:0:0
     RDKit          3D

 96105  0  0  1  0  0  0  0  0999 V2000
  -30.7530  -22.1040   23.4530 C   0  0  0  0  0  3  0  0  0  0  0  0
  -30.5700  -23.4400   23.0580 C   0  0  0  0  0  3  0  0  0  0  0  0
  -29.3770  -21.3820   21.5870 C   0  0  0  0  0  3  0  0  0  0  0  0
  -30.1770  -21.0640   22.7030 C   0  0  0  0  0  0  0  0  0  0  0  0
  -29.8350  -23.7670   21.9000 C   0  0  0  0  0  0  0  0  0  0  0  0
  -29.2290  -22.7210   21.1420 C   0  0  0  0  0  0  0  0  0  0  0  0
  -28.0720  -21.9740   19.1530 C   0  0  0  0  0  1  0  0  0  0  0  0
  -28.5350  -23.0280   19.9900 O   0  0  0  0  0  0  0  0  0  0  0  0
  -30.4720  -19.6130   23.0700 C   0  0  0  0  0  2  0  0  0  0  0  0
  -30.2970  -17.1310   22.4770 C   0  0  0  0  0  2  0  0  0  0  0  0
  -31.1810  -18.7550   20.6920 C   0  0  0  0  0  2  0  0  0  0  0  0
  -30.2180  -16.0950   21.3460 C   0  0  0  0  0  2  0  0  0  0  0  0
  -32.1270  -17.5740   20.4500 C   0  0  0  0  0  2  0  0  0  0  0  0
  -30.2560  -18.5770   21.9330 C   0  0  0  0  0  3  0  0  0  0  0  0
  -31.3680  -16.2380   20.3180 C   0  0  0  0  0  3  0  0  0  0  0  0
  -32.4420  -14.2100   19.4760 C   0  0  0  0  0  0  0  0  0  0  0  0
  -31.7660  -11.9710   18.6940 C   0  0  0  0  0  2  0  0  0  0  0  0
  -30.7230  -12.0400   17.5660 C   0  0  0  0  0  2  0  0  0  0  0  0
  -29.2980  -12.1370   18.1440 C   0  0  0  0  0  2  0  0  0  0  0  0
  -29.1710  -13.2440   19.2220 C   0  0  0  0  0  3  0  0  0  0  0  0
  -30.3030  -13.1190   20.2630 C   0  0  0  0  0  2  0  0  0  0  0  0
  -31.5980  -13.1500   19.5550 N   0  0  0  0  0  0  0  0  0  0  0  0
  -33.3950  -14.2680   18.6950 O   0  0  0  0  0  0  0  0  0  0  0  0
  -32.3130  -15.1280   20.4400 N   0  0  0  0  0  0  0  0  0  0  0  0
  -33.2160  -15.4680   20.7380 H   0  0  0  0  0  0  0  0  0  0  0  0
  -27.0880  -14.2730   20.3340 C   0  0  0  0  0  0  0  0  0  0  0  0
  -25.9100  -13.7190   20.7570 C   0  0  0  0  0  0  0  0  0  0  0  0
  -26.0210  -12.3180   20.5030 C   0  0  0  0  0  0  0  0  0  0  0  0
  -27.8540  -13.2220   19.8540 N   0  0  0  0  0  0  0  0  0  0  0  0
  -27.2180  -12.0320   20.0080 N   0  0  0  0  0  0  0  0  0  0  0  0
  -25.0360  -11.2390   20.6530 C   0  0  0  0  0  0  0  0  0  0  0  0
  -25.3290  -10.0690   21.3870 C   0  0  0  0  0  3  0  0  0  0  0  0
  -24.3620   -9.0520   21.5270 C   0  0  0  0  0  3  0  0  0  0  0  0
  -23.0850   -9.2000   20.9360 C   0  0  0  0  0  0  0  0  0  0  0  0
  -22.8050  -10.3570   20.1870 C   0  0  0  0  0  3  0  0  0  0  0  0
  -23.7710  -11.3660   20.0440 C   0  0  0  0  0  3  0  0  0  0  0  0
  -22.0910   -8.2530   21.0020 O   0  0  0  0  0  0  0  0  0  0  0  0
  -21.9300   -7.4500   22.1020 C   0  0  0  0  0  0  0  0  0  0  0  0
  -21.7540   -7.9870   23.3960 C   0  0  0  0  0  3  0  0  0  0  0  0
  -21.5160   -7.1270   24.4880 C   0  0  0  0  0  3  0  0  0  0  0  0
  -21.4530   -5.7350   24.2890 C   0  0  0  0  0  0  0  0  0  0  0  0
  -21.6300   -5.2000   23.0000 C   0  0  0  0  0  3  0  0  0  0  0  0
  -21.8620   -6.0560   21.9110 C   0  0  0  0  0  0  0  0  0  0  0  0
  -22.0080   -5.5360   20.6670 F   0  0  0  0  0  0  0  0  0  0  0  0
  -21.2200   -4.9090   25.3360 F   0  0  0  0  0  0  0  0  0  0  0  0
  -24.7110  -14.4530   21.2830 C   0  0  0  0  0  0  0  0  0  0  0  0
  -23.9670  -13.8400   22.1970 N   0  0  0  0  0  0  0  0  0  0  0  0
  -24.4520  -15.5990   20.9180 O   0  0  0  0  0  0  0  0  0  0  0  0
  -24.1890  -12.9060   22.5120 H   0  0  0  0  0  0  0  0  0  0  0  0
  -23.1640  -14.3100   22.5890 H   0  0  0  0  0  0  0  0  0  0  0  0
  -27.5610  -15.5820   20.2990 N   0  0  0  0  0  0  0  0  0  0  0  0
  -27.0000  -16.3690   20.6060 H   0  0  0  0  0  0  0  0  0  0  0  0
  -28.4550  -15.8600   19.9140 H   0  0  0  0  0  0  0  0  0  0  0  0
  -29.7710  -25.2630   21.5550 C   0  0  0  0  0  2  0  0  0  0  0  0
  -28.6900  -25.7270   20.5710 C   0  0  0  0  0  2  0  0  0  0  0  0
  -28.8360  -27.1120   20.2470 O   0  0  0  0  0  0  0  0  0  0  0  0
  -24.6160  -31.9110   23.2850 C   0  0  0  0  0  0  0  0  0  0  0  0
  -27.6350  -27.7740   20.1700 C   0  0  0  0  0  0  0  0  0  0  0  0
  -23.5500  -30.4730   21.5740 C   0  0  0  0  0  3  0  0  0  0  0  0
  -25.1430  -29.0890   20.1480 C   0  0  0  0  0  0  0  0  0  0  0  0
  -26.0450  -31.0240   21.4500 C   0  0  0  0  0  2  0  0  0  0  0  0
  -26.2440  -29.6850   20.7760 C   0  0  0  0  0  0  0  0  0  0  0  0
  -27.4980  -29.0380   20.7780 C   0  0  0  0  0  3  0  0  0  0  0  0
  -26.5220  -27.1880   19.5260 C   0  0  0  0  0  3  0  0  0  0  0  0
  -25.2760  -27.8410   19.5160 C   0  0  0  0  0  3  0  0  0  0  0  0
  -23.8390  -29.8500   20.1830 C   0  0  0  0  0  2  0  0  0  0  0  0
  -24.7530  -31.1500   22.1620 N   0  0  0  0  0  0  0  0  0  0  0  0
  -23.5070  -32.0930   23.8030 O   0  0  0  0  0  0  0  0  0  0  0  0
  -22.9500  -29.3850   22.4910 C   0  0  0  0  0  0  0  0  0  0  0  0
  -21.6430  -29.1230   22.3320 N   0  0  0  0  0  0  0  0  0  0  0  0
  -23.6580  -28.7790   23.3010 O   0  0  0  0  0  0  0  0  0  0  0  0
  -21.1330  -29.6650   21.6480 H   0  0  0  0  0  0  0  0  0  0  0  0
  -18.3450  -27.6980   22.7060 C   0  0  0  0  0  0  0  0  0  0  0  0
  -20.8710  -28.1150   23.0580 C   0  0  0  0  0  3  0  0  0  0  0  0
  -21.0860  -26.7100   22.4510 C   0  0  0  0  0  2  0  0  0  0  0  0
  -20.0350  -26.3410   21.3980 C   0  0  0  0  0  2  0  0  0  0  0  0
  -18.6290  -26.3800   22.0060 C   0  0  0  0  0  2  0  0  0  0  0  0
  -19.3990  -28.5200   23.1860 C   0  0  0  0  0  0  0  0  0  0  0  0
  -19.0820  -29.7520   23.7990 C   0  0  0  0  0  3  0  0  0  0  0  0
  -17.7440  -30.1640   23.9380 C   0  0  0  0  0  3  0  0  0  0  0  0
  -16.7030  -29.3390   23.4760 C   0  0  0  0  0  3  0  0  0  0  0  0
  -17.0050  -28.1090   22.8670 C   0  0  0  0  0  3  0  0  0  0  0  0
  -25.8410  -32.6100   23.9540 C   0  0  0  0  0  3  0  0  0  0  0  0
  -25.4550  -33.9950   24.2510 N   0  0  0  0  0  0  0  0  0  0  0  0
  -25.7890  -35.0540   23.5010 C   0  0  0  0  0  0  0  0  0  0  0  0
  -26.5280  -34.9710   22.5160 O   0  0  0  0  0  0  0  0  0  0  0  0
  -24.8050  -34.1320   25.0110 H   0  0  0  0  0  0  0  0  0  0  0  0
  -24.0110  -36.7610   23.0140 C   0  0  0  0  0  1  0  0  0  0  0  0
  -25.2120  -36.4220   23.9100 C   0  0  0  0  0  3  0  0  0  0  0  0
  -27.2560  -37.3950   24.8580 C   0  0  0  0  0  1  0  0  0  0  0  0
  -26.2030  -37.5180   23.8540 N   0  0  0  0  0  0  0  0  0  0  0  0
  -25.7500  -38.4190   23.9810 H   0  0  0  0  0  0  0  0  0  0  0  0
  -26.3420  -31.8780   25.2590 C   0  0  1  0  0  0  0  0  0  0  0  0
  -25.2120  -31.5670   26.2670 C   0  0  0  0  0  1  0  0  0  0  0  0
  -27.0380  -30.5430   24.9030 C   0  0  0  0  0  1  0  0  0  0  0  0
  -27.3980  -32.7500   25.9780 C   0  0  0  0  0  1  0  0  0  0  0  0
  2  1  1  0
  3  4  1  0
  4  9  1  0
  4  1  2  0
  5  2  2  0
  6  3  2  0
  6  5  1  0
  7  8  1  0
  8  6  1  0
 11 14  1  0
 12 10  1  0
 13 11  1  0
 14 10  1  0
 14  9  1  0
 15 24  1  0
 15 13  1  0
 15 12  1  0
 16 22  1  0
 16 24  1  0
 17 22  1  0
 18 19  1  0
 18 17  1  0
 20 19  1  0
 20 29  1  0
 20 21  1  0
 22 21  1  0
 23 16  2  0
 24 25  1  0
 26 27  2  0
 27 46  1  0
 28 31  1  0
 28 27  1  0
 29 30  1  0
 29 26  1  0
 30 28  2  0
 31 32  1  0
 32 33  2  0
 34 37  1  0
 34 33  1  0
 35 34  2  0
 36 35  1  0
 36 31  2  0
 37 38  1  0
 38 39  1  0
 39 40  2  0
 41 40  1  0
 41 45  1  0
 42 41  2  0
 43 38  2  0
 43 42  1  0
 44 43  1  0
 46 47  1  0
 47 49  1  0
 47 50  1  0
 48 46  2  0
 51 26  1  0
 51 52  1  0
 53 51  1  0
 54  5  1  0
 55 54  1  0
 56 55  1  0
 57 68  2  0
 58 56  1  0
 58 63  1  0
 59 67  1  0
 59 69  1  0
 60 66  1  0
 60 62  1  0
 61 67  1  0
 62 63  2  0
 62 61  1  0
 64 58  2  0
 65 64  1  0
 65 60  2  0
 66 59  1  0
 67 57  1  0
 69 71  2  0
 70 69  1  0
 72 70  1  0
 73 82  2  0
 73 78  1  0
 74 70  1  0
 74 78  1  0
 75 74  1  0
 76 77  1  0
 76 75  1  0
 77 73  1  0
 78 79  2  0
 79 80  1  0
 81 80  2  0
 82 81  1  0
 83 57  1  0
 83 84  1  0
 83 93  1  0
 84 87  1  0
 85 89  1  0
 85 84  1  0
 86 85  2  0
 89 88  1  0
 91 89  1  0
 91 92  1  0
 91 90  1  0
 93 96  1  1
 93 94  1  0
 95 93  1  0
M  ISO  4  16 100  24 100  55 101  56 101
M  END
>  <TORSDO>  (39) 
F 21

>  <SCORE>  (39) 
-10.681

>  <name>  (39) 
38

>  <ligand_id>  (39) 
38

>  <original_smiles>  (39) 
[H]c1c([H])c([H])c2c(c1[H])C([H])([H])C([H])([H])C([H])([H])C2([H])N([H])C(=O)C1([H])N(C(=O)C([H])(N([H])C(=O)C([H])(N([H])C([H])([H])[H])C([H])([H])[H])C(C([H])([H])[H])(C([H])([H])[H])C([H])([H])[H])C([H])([H])c2c([H])c(OC([H])([H])C([H])([H])c3c([H])c([H])c(C([H])([H])C4([H])C([H])([H])C([H])([H])C([H])(N([H])C(=O)N5C([H])([H])C([H])([H])C([H])([H])C([H])(n6nc(-c7c([H])c([H])c(Oc8c([H])c([H])c(F)c([H])c8F)c([H])c7[H])c(C(=O)N([H])[H])c6N([H])[H])C5([H])[H])C([H])([H])C4([H])[H])c([H])c3OC([H])([H])[H])c([H])c([H])c2C1([H])[H]

>  <smiles>  (39) 
[H]c1c([H])c([H])c2c(c1[H])C([H])([H])C([H])([H])C([H])([H])C2([H])N([H])C(=O)C1([H])N(C(=O)C([H])(N([H])C(=O)C([H])(N([H])C([H])([H])[H])C([H])([H])[H])C(C([H])([H])[H])(C([H])([H])[H])C([H])([H])[H])C([H])([H])c2c([H])c(OC([H])([H])C([H])([H])c3c([H])c([H])c(C([H])([H])C4([H])C([H])([H])C([H])([H])C([H])(N([H])C(=O)N5C([H])([H])C([H])([H])C([H])([H])C([H])(n6nc(-c7c([H])c([H])c(Oc8c([H])c([H])c(F)c([H])c8F)c([H])c7[H])c(C(=O)N([H])[H])c6N([H])[H])C5([H])[H])C([H])([H])C4([H])[H])c([H])c3OC([H])([H])[H])c([H])c([H])c2C1([H])[H]

$$$$
39:0:0
     RDKit          3D

 93101  0  0  1  0  0  0  0  0999 V2000
  -30.0820  -22.4400   20.4240 C   0  0  0  0  0  3  0  0  0  0  0  0
  -30.7790  -23.3390   21.1450 C   0  0  0  0  0  3  0  0  0  0  0  0
  -30.8440  -19.0050   21.8370 C   0  0  0  0  0  3  0  0  0  0  0  0
  -30.7240  -20.4010   21.7430 C   0  0  0  0  0  3  0  0  0  0  0  0
  -29.4130  -18.7460   19.8880 C   0  0  0  0  0  3  0  0  0  0  0  0
  -30.2520  -18.1740   20.8670 C   0  0  0  0  0  0  0  0  0  0  0  0
  -30.0180  -20.9890   20.6700 C   0  0  0  0  0  0  0  0  0  0  0  0
  -29.3010  -20.1490   19.7820 C   0  0  0  0  0  0  0  0  0  0  0  0
  -30.6800  -16.7740   20.8090 C   0  0  0  0  0  3  0  0  0  0  0  0
  -29.9750  -15.7060   20.3840 C   0  0  0  0  0  3  0  0  0  0  0  0
  -30.7160  -14.4900   20.0710 C   0  0  0  0  0  0  0  0  0  0  0  0
  -30.3680  -12.2610   19.1120 C   0  0  0  0  0  2  0  0  0  0  0  0
  -29.3970  -12.3820   17.9210 C   0  0  0  0  0  2  0  0  0  0  0  0
  -27.9400  -12.2490   18.4050 C   0  0  0  0  0  2  0  0  0  0  0  0
  -27.6220  -13.1670   19.6160 C   0  0  0  0  0  3  0  0  0  0  0  0
  -28.7190  -13.0740   20.7010 C   0  0  0  0  0  2  0  0  0  0  0  0
  -30.0190  -13.3240   20.0670 N   0  0  0  0  0  0  0  0  0  0  0  0
  -31.8530  -14.5670   19.6020 O   0  0  0  0  0  0  0  0  0  0  0  0
  -25.2780  -13.7730   20.4820 C   0  0  0  0  0  0  0  0  0  0  0  0
  -24.2240  -12.9980   20.8870 C   0  0  0  0  0  0  0  0  0  0  0  0
  -24.6680  -11.6440   20.7880 C   0  0  0  0  0  0  0  0  0  0  0  0
  -26.2980  -12.8890   20.1640 N   0  0  0  0  0  0  0  0  0  0  0  0
  -25.9380  -11.6030   20.4060 N   0  0  0  0  0  0  0  0  0  0  0  0
  -23.9390  -10.3840   20.9780 C   0  0  0  0  0  0  0  0  0  0  0  0
  -24.3700   -9.4140   21.9100 C   0  0  0  0  0  3  0  0  0  0  0  0
  -23.6430   -8.2180   22.0880 C   0  0  0  0  0  3  0  0  0  0  0  0
  -22.4700   -7.9820   21.3320 C   0  0  0  0  0  0  0  0  0  0  0  0
  -22.0580   -8.9390   20.3880 C   0  0  0  0  0  3  0  0  0  0  0  0
  -22.7870  -10.1270   20.2090 C   0  0  0  0  0  3  0  0  0  0  0  0
  -21.7140   -6.8380   21.4180 O   0  0  0  0  0  0  0  0  0  0  0  0
  -21.6020   -6.1360   22.5910 C   0  0  0  0  0  0  0  0  0  0  0  0
  -21.0440   -6.7110   23.7530 C   0  0  0  0  0  3  0  0  0  0  0  0
  -20.8850   -5.9320   24.9180 C   0  0  0  0  0  3  0  0  0  0  0  0
  -21.2740   -4.5800   24.9190 C   0  0  0  0  0  0  0  0  0  0  0  0
  -21.8260   -4.0030   23.7610 C   0  0  0  0  0  3  0  0  0  0  0  0
  -21.9870   -4.7790   22.5990 C   0  0  0  0  0  0  0  0  0  0  0  0
  -22.4990   -4.2150   21.4800 F   0  0  0  0  0  0  0  0  0  0  0  0
  -21.1140   -3.8280   26.0340 F   0  0  0  0  0  0  0  0  0  0  0  0
  -22.8500  -13.4800   21.2520 C   0  0  0  0  0  0  0  0  0  0  0  0
  -22.1680  -12.7700   22.1450 N   0  0  0  0  0  0  0  0  0  0  0  0
  -22.3910  -14.5200   20.7810 O   0  0  0  0  0  0  0  0  0  0  0  0
  -22.5540  -11.9290   22.5470 H   0  0  0  0  0  0  0  0  0  0  0  0
  -21.2480  -13.0740   22.4310 H   0  0  0  0  0  0  0  0  0  0  0  0
  -25.4490  -15.1460   20.3400 N   0  0  0  0  0  0  0  0  0  0  0  0
  -24.6950  -15.8030   20.5130 H   0  0  0  0  0  0  0  0  0  0  0  0
  -26.2840  -15.5870   19.9770 H   0  0  0  0  0  0  0  0  0  0  0  0
  -27.2210  -20.9390   19.1030 C   0  0  0  0  0  1  0  0  0  0  0  0
  -28.5720  -20.6820   18.7520 O   0  0  0  0  0  0  0  0  0  0  0  0
  -30.8460  -24.7340   20.7120 C   0  0  0  0  0  0  0  0  0  0  0  0
  -31.2680  -25.0570   19.5970 O   0  0  0  0  0  0  0  0  0  0  0  0
  -30.3830  -25.7930   21.7110 C   0  0  0  0  0  2  0  0  0  0  0  0
  -29.8210  -27.0710   21.0720 C   0  0  0  0  0  2  0  0  0  0  0  0
  -28.6940  -26.7230   20.2660 O   0  0  0  0  0  0  0  0  0  0  0  0
  -24.6480  -31.8010   23.2450 C   0  0  0  0  0  0  0  0  0  0  0  0
  -27.5490  -27.4860   20.2750 C   0  0  0  0  0  0  0  0  0  0  0  0
  -23.5450  -30.3840   21.5400 C   0  0  0  0  0  3  0  0  0  0  0  0
  -25.0990  -28.8900   20.1790 C   0  0  0  0  0  0  0  0  0  0  0  0
  -26.0590  -30.8200   21.4480 C   0  0  0  0  0  2  0  0  0  0  0  0
  -26.2090  -29.4570   20.8140 C   0  0  0  0  0  0  0  0  0  0  0  0
  -27.4360  -28.7700   20.8580 C   0  0  0  0  0  3  0  0  0  0  0  0
  -26.4220  -26.9250   19.6400 C   0  0  0  0  0  3  0  0  0  0  0  0
  -25.1970  -27.6190   19.5870 C   0  0  0  0  0  3  0  0  0  0  0  0
  -23.8300  -29.7120   20.1680 C   0  0  0  0  0  2  0  0  0  0  0  0
  -24.7660  -31.0150   22.1380 N   0  0  0  0  0  0  0  0  0  0  0  0
  -23.5400  -32.0440   23.7410 O   0  0  0  0  0  0  0  0  0  0  0  0
  -22.8790  -29.3420   22.4660 C   0  0  0  0  0  0  0  0  0  0  0  0
  -21.5580  -29.1660   22.3100 N   0  0  0  0  0  0  0  0  0  0  0  0
  -23.5490  -28.6940   23.2760 O   0  0  0  0  0  0  0  0  0  0  0  0
  -21.0810  -29.7410   21.6270 H   0  0  0  0  0  0  0  0  0  0  0  0
  -18.1570  -28.0550   22.7940 C   0  0  0  0  0  0  0  0  0  0  0  0
  -20.7240  -28.2150   23.0410 C   0  0  0  0  0  3  0  0  0  0  0  0
  -20.7730  -26.8140   22.3880 C   0  0  0  0  0  2  0  0  0  0  0  0
  -19.6480  -26.5830   21.3750 C   0  0  0  0  0  2  0  0  0  0  0  0
  -18.2810  -26.7380   22.0460 C   0  0  0  0  0  2  0  0  0  0  0  0
  -19.3050  -28.7560   23.2470 C   0  0  0  0  0  0  0  0  0  0  0  0
  -19.1360  -29.9940   23.9050 C   0  0  0  0  0  3  0  0  0  0  0  0
  -17.8520  -30.5290   24.1150 C   0  0  0  0  0  3  0  0  0  0  0  0
  -16.7170  -29.8220   23.6780 C   0  0  0  0  0  3  0  0  0  0  0  0
  -16.8710  -28.5880   23.0230 C   0  0  0  0  0  3  0  0  0  0  0  0
  -25.8940  -32.4530   23.9250 C   0  0  0  0  0  3  0  0  0  0  0  0
  -25.5540  -33.8490   24.2210 N   0  0  0  0  0  0  0  0  0  0  0  0
  -25.9070  -34.8940   23.4600 C   0  0  0  0  0  0  0  0  0  0  0  0
  -26.6230  -34.7840   22.4600 O   0  0  0  0  0  0  0  0  0  0  0  0
  -24.9220  -34.0080   24.9920 H   0  0  0  0  0  0  0  0  0  0  0  0
  -24.1710  -36.6540   23.0020 C   0  0  0  0  0  1  0  0  0  0  0  0
  -25.3820  -36.2820   23.8720 C   0  0  0  0  0  3  0  0  0  0  0  0
  -27.4580  -37.2210   24.7870 C   0  0  0  0  0  1  0  0  0  0  0  0
  -26.4040  -37.3470   23.7850 N   0  0  0  0  0  0  0  0  0  0  0  0
  -25.9770  -38.2650   23.8860 H   0  0  0  0  0  0  0  0  0  0  0  0
  -26.3560  -31.6990   25.2320 C   0  0  1  0  0  0  0  0  0  0  0  0
  -25.2110  -31.4430   26.2390 C   0  0  0  0  0  1  0  0  0  0  0  0
  -26.9890  -30.3320   24.8770 C   0  0  0  0  0  1  0  0  0  0  0  0
  -27.4510  -32.5210   25.9530 C   0  0  0  0  0  1  0  0  0  0  0  0
  1  7  1  0
  1  2  2  0
  4  3  1  0
  5  6  1  0
  6  3  2  0
  7  4  2  0
  8  5  2  0
  8  7  1  0
  9  6  1  0
 10  9  2  0
 11 10  1  0
 12 17  1  0
 13 14  1  0
 13 12  1  0
 15 14  1  0
 15 22  1  0
 15 16  1  0
 17 11  1  0
 17 16  1  0
 18 11  2  0
 19 20  2  0
 20 39  1  0
 21 20  1  0
 21 24  1  0
 22 23  1  0
 22 19  1  0
 23 21  2  0
 24 25  1  0
 25 26  2  0
 27 30  1  0
 27 26  1  0
 28 27  2  0
 29 28  1  0
 29 24  2  0
 30 31  1  0
 31 36  2  0
 31 32  1  0
 32 33  2  0
 33 34  1  0
 34 38  1  0
 35 34  2  0
 36 35  1  0
 37 36  1  0
 39 40  1  0
 40 43  1  0
 40 42  1  0
 41 39  2  0
 44 19  1  0
 44 45  1  0
 46 44  1  0
 48 47  1  0
 48  8  1  0
 49  2  1  0
 49 51  1  0
 50 49  2  0
 52 51  1  0
 53 55  1  0
 53 52  1  0
 54 65  2  0
 55 60  1  0
 56 64  1  0
 56 66  1  0
 57 59  1  0
 58 64  1  0
 59 60  2  0
 59 58  1  0
 61 55  2  0
 62 61  1  0
 62 57  2  0
 63 57  1  0
 63 56  1  0
 64 54  1  0
 66 68  2  0
 67 66  1  0
 69 67  1  0
 70 79  2  0
 70 75  1  0
 71 67  1  0
 71 75  1  0
 72 71  1  0
 73 74  1  0
 73 72  1  0
 74 70  1  0
 75 76  2  0
 76 77  1  0
 78 77  2  0
 79 78  1  0
 80 54  1  0
 80 81  1  0
 80 90  1  0
 81 84  1  0
 82 86  1  0
 82 81  1  0
 83 82  2  0
 86 85  1  0
 88 86  1  0
 88 89  1  0
 88 87  1  0
 90 93  1  1
 90 91  1  0
 92 90  1  0
M  ISO  4  10 100  11 100  52 101  53 101
M  END
>  <TORSDO>  (40) 
F 22

>  <SCORE>  (40) 
-13.219

>  <name>  (40) 
39

>  <ligand_id>  (40) 
39

>  <original_smiles>  (40) 
[H]C(C(=O)N1C([H])([H])C([H])([H])C([H])([H])C([H])(n2nc(-c3c([H])c([H])c(Oc4c([H])c([H])c(F)c([H])c4F)c([H])c3[H])c(C(=O)N([H])[H])c2N([H])[H])C1([H])[H])=C([H])c1c([H])c([H])c(C([H])=C([H])C(=O)C([H])([H])C([H])([H])Oc2c([H])c([H])c3c(c2[H])C([H])([H])N(C(=O)C([H])(N([H])C(=O)C([H])(N([H])C([H])([H])[H])C([H])([H])[H])C(C([H])([H])[H])(C([H])([H])[H])C([H])([H])[H])C([H])(C(=O)N([H])C2([H])c4c([H])c([H])c([H])c([H])c4C([H])([H])C([H])([H])C2([H])[H])C3([H])[H])c(OC([H])([H])[H])c1[H]

>  <smiles>  (40) 
[H]C(C(=O)N1C([H])([H])C([H])([H])C([H])([H])C([H])(n2nc(-c3c([H])c([H])c(Oc4c([H])c([H])c(F)c([H])c4F)c([H])c3[H])c(C(=O)N([H])[H])c2N([H])[H])C1([H])[H])=C([H])c1c([H])c([H])c(C([H])=C([H])C(=O)C([H])([H])C([H])([H])Oc2c([H])c([H])c3c(c2[H])C([H])([H])N(C(=O)C([H])(N([H])C(=O)C([H])(N([H])C([H])([H])[H])C([H])([H])[H])C(C([H])([H])[H])(C([H])([H])[H])C([H])([H])[H])C([H])(C(=O)N([H])C2([H])c4c([H])c([H])c([H])c([H])c4C([H])([H])C([H])([H])C2([H])[H])C3([H])[H])c(OC([H])([H])[H])c1[H]

$$$$
40:0:0
     RDKit          3D

 94102  0  0  1  0  0  0  0  0999 V2000
  -30.5520  -23.5330   23.8470 C   0  0  0  0  0  3  0  0  0  0  0  0
  -29.4580  -24.2600   23.3390 C   0  0  0  0  0  3  0  0  0  0  0  0
  -31.1180  -22.4940   23.0860 C   0  0  0  0  0  3  0  0  0  0  0  0
  -29.4550  -22.8600   21.3440 C   0  0  0  0  0  3  0  0  0  0  0  0
  -28.9090  -23.9380   22.0780 C   0  0  0  0  0  0  0  0  0  0  0  0
  -30.5880  -22.1630   21.8220 C   0  0  0  0  0  0  0  0  0  0  0  0
  -27.7690  -24.7790   21.5120 C   0  0  0  0  0  2  0  0  0  0  0  0
  -27.8490  -25.0120   19.9840 C   0  0  0  0  0  2  0  0  0  0  0  0
  -27.8540  -26.3970   19.6650 O   0  0  0  0  0  0  0  0  0  0  0  0
  -24.5660  -31.4730   23.3570 C   0  0  0  0  0  0  0  0  0  0  0  0
  -26.7010  -27.1220   19.8250 C   0  0  0  0  0  0  0  0  0  0  0  0
  -23.1810  -30.3400   21.6440 C   0  0  0  0  0  3  0  0  0  0  0  0
  -24.4400  -28.7970   20.0520 C   0  0  0  0  0  0  0  0  0  0  0  0
  -25.7160  -30.4930   21.3780 C   0  0  0  0  0  2  0  0  0  0  0  0
  -25.6550  -29.1780   20.6320 C   0  0  0  0  0  0  0  0  0  0  0  0
  -26.7880  -28.3490   20.5110 C   0  0  0  0  0  3  0  0  0  0  0  0
  -25.4700  -26.7350   19.2520 C   0  0  0  0  0  3  0  0  0  0  0  0
  -24.3390  -27.5730   19.3610 C   0  0  0  0  0  3  0  0  0  0  0  0
  -23.2840  -29.7580   20.2080 C   0  0  0  0  0  2  0  0  0  0  0  0
  -24.5090  -30.7760   22.1860 N   0  0  0  0  0  0  0  0  0  0  0  0
  -23.5330  -31.7950   23.9600 O   0  0  0  0  0  0  0  0  0  0  0  0
  -22.4630  -29.3060   22.5400 C   0  0  0  0  0  0  0  0  0  0  0  0
  -21.1320  -29.2130   22.3900 N   0  0  0  0  0  0  0  0  0  0  0  0
  -23.0990  -28.5950   23.3210 O   0  0  0  0  0  0  0  0  0  0  0  0
  -20.6870  -29.8360   21.7320 H   0  0  0  0  0  0  0  0  0  0  0  0
  -17.6950  -28.1580   22.7350 C   0  0  0  0  0  0  0  0  0  0  0  0
  -20.2510  -28.2830   23.0950 C   0  0  0  0  0  3  0  0  0  0  0  0
  -20.3080  -26.8750   22.4610 C   0  0  0  0  0  2  0  0  0  0  0  0
  -19.2250  -26.6480   21.4010 C   0  0  0  0  0  2  0  0  0  0  0  0
  -17.8310  -26.8310   22.0080 C   0  0  0  0  0  2  0  0  0  0  0  0
  -18.8330  -28.8480   23.2310 C   0  0  0  0  0  0  0  0  0  0  0  0
  -18.6560  -30.0960   23.8670 C   0  0  0  0  0  3  0  0  0  0  0  0
  -17.3710  -30.6510   24.0170 C   0  0  0  0  0  3  0  0  0  0  0  0
  -16.2460  -29.9590   23.5380 C   0  0  0  0  0  3  0  0  0  0  0  0
  -16.4090  -28.7130   22.9030 C   0  0  0  0  0  3  0  0  0  0  0  0
  -25.9250  -31.9180   23.9810 C   0  0  0  0  0  3  0  0  0  0  0  0
  -25.7780  -33.3140   24.4140 N   0  0  0  0  0  0  0  0  0  0  0  0
  -26.2300  -34.3740   23.7310 C   0  0  0  0  0  0  0  0  0  0  0  0
  -26.8870  -34.2710   22.6910 O   0  0  0  0  0  0  0  0  0  0  0  0
  -25.2000  -33.4750   25.2260 H   0  0  0  0  0  0  0  0  0  0  0  0
  -24.7270  -36.3760   23.5020 C   0  0  0  0  0  1  0  0  0  0  0  0
  -25.9010  -35.7710   24.2900 C   0  0  0  0  0  3  0  0  0  0  0  0
  -28.1040  -36.3400   25.2090 C   0  0  0  0  0  1  0  0  0  0  0  0
  -27.0500  -36.7010   24.2650 N   0  0  0  0  0  0  0  0  0  0  0  0
  -26.7510  -37.6500   24.4730 H   0  0  0  0  0  0  0  0  0  0  0  0
  -26.3900  -31.0050   25.1810 C   0  0  1  0  0  0  0  0  0  0  0  0
  -25.2990  -30.7920   26.2560 C   0  0  0  0  0  1  0  0  0  0  0  0
  -26.8260  -29.6130   24.6650 C   0  0  0  0  0  1  0  0  0  0  0  0
  -27.6250  -31.6290   25.8680 C   0  0  0  0  0  1  0  0  0  0  0  0
  -31.2680  -21.0790   20.9920 C   0  0  0  0  0  3  0  0  0  0  0  0
  -31.9260  -22.6510   19.0570 C   0  0  0  0  0  1  0  0  0  0  0  0
  -31.2280  -21.3470   19.4710 C   0  0  0  0  0  2  0  0  0  0  0  0
  -31.4350  -18.5680   21.1450 C   0  0  0  0  0  3  0  0  0  0  0  0
  -30.7300  -19.7020   21.3170 C   0  0  0  0  0  3  0  0  0  0  0  0
  -30.8780  -17.2530   21.4850 C   0  0  0  0  0  0  0  0  0  0  0  0
  -29.8570  -17.1070   22.1660 O   0  0  0  0  0  0  0  0  0  0  0  0
  -31.6340  -16.0240   20.9820 C   0  0  0  0  0  2  0  0  0  0  0  0
  -30.7570  -14.7490   20.9310 C   0  0  0  0  0  2  0  0  0  0  0  0
  -31.0500  -13.8040   19.7570 C   0  0  0  0  0  0  0  0  0  0  0  0
  -30.5580  -11.6680   18.6070 C   0  0  0  0  0  2  0  0  0  0  0  0
  -29.4820  -11.8280   17.5180 C   0  0  0  0  0  2  0  0  0  0  0  0
  -28.0670  -11.7160   18.1170 C   0  0  0  0  0  2  0  0  0  0  0  0
  -27.8810  -12.6190   19.3650 C   0  0  0  0  0  3  0  0  0  0  0  0
  -29.0450  -12.4190   20.3600 C   0  0  0  0  0  2  0  0  0  0  0  0
  -30.3100  -12.6730   19.6480 N   0  0  0  0  0  0  0  0  0  0  0  0
  -31.9630  -14.0740   18.9680 O   0  0  0  0  0  0  0  0  0  0  0  0
  -25.6130  -13.3060   20.3770 C   0  0  0  0  0  0  0  0  0  0  0  0
  -24.5660  -12.5670   20.8590 C   0  0  0  0  0  0  0  0  0  0  0  0
  -24.9610  -11.2000   20.7400 C   0  0  0  0  0  0  0  0  0  0  0  0
  -26.5830  -12.3900   19.9990 N   0  0  0  0  0  0  0  0  0  0  0  0
  -26.1990  -11.1160   20.2690 N   0  0  0  0  0  0  0  0  0  0  0  0
  -24.2100   -9.9620   20.9910 C   0  0  0  0  0  0  0  0  0  0  0  0
  -24.6290   -9.0300   21.9660 C   0  0  0  0  0  3  0  0  0  0  0  0
  -23.8820   -7.8560   22.2020 C   0  0  0  0  0  3  0  0  0  0  0  0
  -22.7010   -7.6070   21.4620 C   0  0  0  0  0  0  0  0  0  0  0  0
  -22.3010   -8.5270   20.4770 C   0  0  0  0  0  3  0  0  0  0  0  0
  -23.0500   -9.6920   20.2400 C   0  0  0  0  0  3  0  0  0  0  0  0
  -21.9250   -6.4820   21.6050 O   0  0  0  0  0  0  0  0  0  0  0  0
  -21.7740   -5.8610   22.8190 C   0  0  0  0  0  0  0  0  0  0  0  0
  -21.2150   -6.5280   23.9320 C   0  0  0  0  0  3  0  0  0  0  0  0
  -21.0120   -5.8320   25.1400 C   0  0  0  0  0  3  0  0  0  0  0  0
  -21.3580   -4.4710   25.2360 C   0  0  0  0  0  0  0  0  0  0  0  0
  -21.9080   -3.8050   24.1280 C   0  0  0  0  0  3  0  0  0  0  0  0
  -22.1120   -4.4970   22.9210 C   0  0  0  0  0  0  0  0  0  0  0  0
  -22.6230   -3.8450   21.8500 F   0  0  0  0  0  0  0  0  0  0  0  0
  -21.1560   -3.8000   26.3940 F   0  0  0  0  0  0  0  0  0  0  0  0
  -23.2360  -13.0910   21.3170 C   0  0  0  0  0  0  0  0  0  0  0  0
  -22.5950  -12.4030   22.2550 N   0  0  0  0  0  0  0  0  0  0  0  0
  -22.7780  -14.1450   20.8790 O   0  0  0  0  0  0  0  0  0  0  0  0
  -22.9820  -11.5490   22.6320 H   0  0  0  0  0  0  0  0  0  0  0  0
  -21.7050  -12.7320   22.6020 H   0  0  0  0  0  0  0  0  0  0  0  0
  -25.8160  -14.6740   20.2130 N   0  0  0  0  0  0  0  0  0  0  0  0
  -25.1030  -15.3600   20.4320 H   0  0  0  0  0  0  0  0  0  0  0  0
  -26.6520  -15.0850   19.8160 H   0  0  0  0  0  0  0  0  0  0  0  0
  2  1  1  0
  3  1  2  0
  4  6  2  0
  4  5  1  0
  5  2  2  0
  6  3  1  0
  7  5  1  0
  8  7  1  0
  9 11  1  0
  9  8  1  0
 10 21  2  0
 11 16  1  0
 12 20  1  0
 12 22  1  0
 13 19  1  0
 13 15  1  0
 14 20  1  0
 15 14  1  0
 16 15  2  0
 17 18  1  0
 17 11  2  0
 18 13  2  0
 19 12  1  0
 20 10  1  0
 22 24  2  0
 23 22  1  0
 25 23  1  0
 26 35  2  0
 26 31  1  0
 27 23  1  0
 27 31  1  0
 28 27  1  0
 29 30  1  0
 29 28  1  0
 30 26  1  0
 31 32  2  0
 32 33  1  0
 34 33  2  0
 35 34  1  0
 36 10  1  0
 36 37  1  0
 36 46  1  0
 37 40  1  0
 38 42  1  0
 38 37  1  0
 39 38  2  0
 42 41  1  0
 44 42  1  0
 44 45  1  0
 44 43  1  0
 46 49  1  1
 46 47  1  0
 48 46  1  0
 50 52  1  0
 50 54  1  0
 50  6  1  0
 51 52  1  0
 53 54  2  0
 53 55  1  0
 55 56  2  0
 57 55  1  0
 58 57  1  0
 59 58  1  0
 60 65  1  0
 61 62  1  0
 61 60  1  0
 63 62  1  0
 63 70  1  0
 63 64  1  0
 65 59  1  0
 65 64  1  0
 66 59  2  0
 67 68  2  0
 68 87  1  0
 69 68  1  0
 69 72  1  0
 70 71  1  0
 70 67  1  0
 71 69  2  0
 72 73  1  0
 73 74  2  0
 75 78  1  0
 75 74  1  0
 76 75  2  0
 77 76  1  0
 77 72  2  0
 78 79  1  0
 79 84  2  0
 79 80  1  0
 80 81  2  0
 81 82  1  0
 82 86  1  0
 83 82  2  0
 84 83  1  0
 85 84  1  0
 87 88  1  0
 88 91  1  0
 88 90  1  0
 89 87  2  0
 92 67  1  0
 92 93  1  0
 94 92  1  0
M  ISO  4   8 101   9 101  58 100  59 100
M  END
>  <TORSDO>  (41) 
F 24

>  <SCORE>  (41) 
-9.729

>  <name>  (41) 
40

>  <ligand_id>  (41) 
40

>  <original_smiles>  (41) 
[H]C(C(=O)C([H])([H])C([H])([H])C(=O)N1C([H])([H])C([H])([H])C([H])([H])C([H])(n2nc(-c3c([H])c([H])c(Oc4c([H])c([H])c(F)c([H])c4F)c([H])c3[H])c(C(=O)N([H])[H])c2N([H])[H])C1([H])[H])=C([H])C([H])(c1c([H])c([H])c([H])c(C([H])([H])C([H])([H])Oc2c([H])c([H])c3c(c2[H])C([H])([H])N(C(=O)C([H])(N([H])C(=O)C([H])(N([H])C([H])([H])[H])C([H])([H])[H])C(C([H])([H])[H])(C([H])([H])[H])C([H])([H])[H])C([H])(C(=O)N([H])C2([H])c4c([H])c([H])c([H])c([H])c4C([H])([H])C([H])([H])C2([H])[H])C3([H])[H])c1[H])C([H])([H])C([H])([H])[H]

>  <smiles>  (41) 
[H]C(C(=O)C([H])([H])C([H])([H])C(=O)N1C([H])([H])C([H])([H])C([H])([H])C([H])(n2nc(-c3c([H])c([H])c(Oc4c([H])c([H])c(F)c([H])c4F)c([H])c3[H])c(C(=O)N([H])[H])c2N([H])[H])C1([H])[H])=C([H])C([H])(c1c([H])c([H])c([H])c(C([H])([H])C([H])([H])Oc2c([H])c([H])c3c(c2[H])C([H])([H])N(C(=O)C([H])(N([H])C(=O)C([H])(N([H])C([H])([H])[H])C([H])([H])[H])C(C([H])([H])[H])(C([H])([H])[H])C([H])([H])[H])C([H])(C(=O)N([H])C2([H])c4c([H])c([H])c([H])c([H])c4C([H])([H])C([H])([H])C2([H])[H])C3([H])[H])c1[H])C([H])([H])C([H])([H])[H]

$$$$
41:0:0
     RDKit          3D

 91 98  0  0  1  0  0  0  0  0999 V2000
  -30.3450  -24.0870   21.8380 C   0  0  0  0  0  3  0  0  0  0  0  0
  -29.8310  -22.7990   21.3220 N   0  0  0  0  0  4  0  0  0  0  0  0
  -28.9910  -22.6170   21.8540 H   0  0  0  0  0  0  0  0  0  0  0  0
  -29.5910  -22.8860   20.3480 H   0  0  0  0  0  0  0  0  0  0  0  0
  -30.7700  -21.6640   21.4840 C   0  0  0  0  0  2  0  0  0  0  0  0
  -30.1340  -20.3220   21.0800 C   0  0  0  0  0  2  0  0  0  0  0  0
  -31.0430  -19.1200   21.3850 C   0  0  0  0  0  2  0  0  0  0  0  0
  -30.3720  -17.7790   21.0480 C   0  0  0  0  0  2  0  0  0  0  0  0
  -31.0830  -16.5780   21.6950 C   0  0  0  0  0  2  0  0  0  0  0  0
  -30.3060  -15.2530   21.5280 C   0  0  0  0  0  2  0  0  0  0  0  0
  -30.6760  -14.3890   20.3050 C   0  0  0  0  0  0  0  0  0  0  0  0
  -30.2550  -12.3490   18.9650 C   0  0  0  0  0  2  0  0  0  0  0  0
  -29.2430  -12.6040   17.8340 C   0  0  0  0  0  2  0  0  0  0  0  0
  -27.7940  -12.4650   18.3430 C   0  0  0  0  0  2  0  0  0  0  0  0
  -27.5450  -13.2590   19.6530 C   0  0  0  0  0  3  0  0  0  0  0  0
  -28.6500  -12.9500   20.6860 C   0  0  0  0  0  2  0  0  0  0  0  0
  -29.9490  -13.2670   20.0690 N   0  0  0  0  0  0  0  0  0  0  0  0
  -31.6440  -14.7080   19.6050 O   0  0  0  0  0  0  0  0  0  0  0  0
  -25.1830  -13.8850   20.4730 C   0  0  0  0  0  0  0  0  0  0  0  0
  -24.1270  -13.1170   20.8870 C   0  0  0  0  0  0  0  0  0  0  0  0
  -24.5740  -11.7630   20.8230 C   0  0  0  0  0  0  0  0  0  0  0  0
  -26.2100  -12.9970   20.1890 N   0  0  0  0  0  0  0  0  0  0  0  0
  -25.8470  -11.7150   20.4510 N   0  0  0  0  0  0  0  0  0  0  0  0
  -23.8500  -10.5040   21.0390 C   0  0  0  0  0  0  0  0  0  0  0  0
  -24.3220   -9.5280   21.9430 C   0  0  0  0  0  3  0  0  0  0  0  0
  -23.5980   -8.3330   22.1490 C   0  0  0  0  0  3  0  0  0  0  0  0
  -22.3900   -8.1060   21.4500 C   0  0  0  0  0  0  0  0  0  0  0  0
  -21.9350   -9.0730   20.5350 C   0  0  0  0  0  3  0  0  0  0  0  0
  -22.6590  -10.2590   20.3280 C   0  0  0  0  0  3  0  0  0  0  0  0
  -21.6340   -6.9640   21.5660 O   0  0  0  0  0  0  0  0  0  0  0  0
  -21.6380   -6.2130   22.7130 C   0  0  0  0  0  0  0  0  0  0  0  0
  -21.2970   -6.7650   23.9670 C   0  0  0  0  0  3  0  0  0  0  0  0
  -21.2450   -5.9410   25.1080 C   0  0  0  0  0  3  0  0  0  0  0  0
  -21.5230   -4.5650   24.9980 C   0  0  0  0  0  0  0  0  0  0  0  0
  -21.8580   -4.0130   23.7490 C   0  0  0  0  0  3  0  0  0  0  0  0
  -21.9120   -4.8350   22.6100 C   0  0  0  0  0  0  0  0  0  0  0  0
  -22.2130   -4.2930   21.4060 F   0  0  0  0  0  0  0  0  0  0  0  0
  -21.4670   -3.7720   26.0930 F   0  0  0  0  0  0  0  0  0  0  0  0
  -22.7480  -13.6020   21.2340 C   0  0  0  0  0  0  0  0  0  0  0  0
  -22.0610  -12.9030   22.1310 N   0  0  0  0  0  0  0  0  0  0  0  0
  -22.2900  -14.6340   20.7450 O   0  0  0  0  0  0  0  0  0  0  0  0
  -22.4440  -12.0700   22.5510 H   0  0  0  0  0  0  0  0  0  0  0  0
  -21.1370  -13.2080   22.4040 H   0  0  0  0  0  0  0  0  0  0  0  0
  -25.3490  -15.2550   20.2970 N   0  0  0  0  0  0  0  0  0  0  0  0
  -24.5980  -15.9190   20.4520 H   0  0  0  0  0  0  0  0  0  0  0  0
  -26.1950  -15.6890   19.9460 H   0  0  0  0  0  0  0  0  0  0  0  0
  -29.8160  -24.2270   23.2690 C   0  0  0  0  0  3  0  0  0  0  0  0
  -28.7140  -23.7970   23.6240 O   0  0  0  0  0  0  0  0  0  0  0  0
  -29.9590  -25.2940   20.9470 C   0  0  0  0  0  2  0  0  0  0  0  0
  -28.4670  -25.6740   20.8580 C   0  0  0  0  0  2  0  0  0  0  0  0
  -28.4010  -26.8470   20.0610 O   0  0  0  0  0  0  0  0  0  0  0  0
  -24.5560  -31.9090   23.2280 C   0  0  0  0  0  0  0  0  0  0  0  0
  -27.2110  -27.5200   20.1220 C   0  0  0  0  0  0  0  0  0  0  0  0
  -23.3460  -30.5030   21.5870 C   0  0  0  0  0  3  0  0  0  0  0  0
  -24.8000  -28.9720   20.1580 C   0  0  0  0  0  0  0  0  0  0  0  0
  -25.8630  -30.8870   21.3730 C   0  0  0  0  0  2  0  0  0  0  0  0
  -25.9530  -29.5160   20.7360 C   0  0  0  0  0  0  0  0  0  0  0  0
  -27.1640  -28.7960   20.7150 C   0  0  0  0  0  3  0  0  0  0  0  0
  -26.0450  -26.9710   19.5520 C   0  0  0  0  0  3  0  0  0  0  0  0
  -24.8370  -27.6960   19.5660 C   0  0  0  0  0  3  0  0  0  0  0  0
  -23.5510  -29.8220   20.2070 C   0  0  0  0  0  2  0  0  0  0  0  0
  -24.6070  -31.1130   22.1220 N   0  0  0  0  0  0  0  0  0  0  0  0
  -23.4760  -32.1740   23.7750 O   0  0  0  0  0  0  0  0  0  0  0  0
  -22.7070  -29.4770   22.5500 C   0  0  0  0  0  0  0  0  0  0  0  0
  -21.3820  -29.2940   22.4320 N   0  0  0  0  0  0  0  0  0  0  0  0
  -23.3980  -28.8490   23.3560 O   0  0  0  0  0  0  0  0  0  0  0  0
  -20.8860  -29.8540   21.7530 H   0  0  0  0  0  0  0  0  0  0  0  0
  -18.0140  -28.0960   22.9430 C   0  0  0  0  0  0  0  0  0  0  0  0
  -20.5720  -28.3530   23.2040 C   0  0  0  0  0  3  0  0  0  0  0  0
  -20.6720  -26.9250   22.6210 C   0  0  0  0  0  2  0  0  0  0  0  0
  -19.5650  -26.6060   21.6110 C   0  0  0  0  0  2  0  0  0  0  0  0
  -18.1870  -26.7490   22.2630 C   0  0  0  0  0  2  0  0  0  0  0  0
  -19.1340  -28.8560   23.3710 C   0  0  0  0  0  0  0  0  0  0  0  0
  -18.9190  -30.1180   23.9670 C   0  0  0  0  0  3  0  0  0  0  0  0
  -17.6160  -30.6200   24.1390 C   0  0  0  0  0  3  0  0  0  0  0  0
  -16.5090  -29.8560   23.7280 C   0  0  0  0  0  3  0  0  0  0  0  0
  -16.7100  -28.5970   23.1360 C   0  0  0  0  0  3  0  0  0  0  0  0
  -25.8440  -32.5420   23.8410 C   0  0  0  0  0  3  0  0  0  0  0  0
  -26.3830  -31.7600   25.1020 C   0  0  1  0  0  0  0  0  0  0  0  0
  -25.3050  -31.5010   26.1800 C   0  0  0  0  0  1  0  0  0  0  0  0
  -26.9700  -30.3920   24.6840 C   0  0  0  0  0  1  0  0  0  0  0  0
  -27.5360  -32.5530   25.7590 C   0  0  0  0  0  1  0  0  0  0  0  0
  -25.5290  -33.9340   24.1880 N   0  0  0  0  0  0  0  0  0  0  0  0
  -25.8480  -34.9940   23.4340 C   0  0  0  0  0  0  0  0  0  0  0  0
  -26.5090  -34.9050   22.3950 O   0  0  0  0  0  0  0  0  0  0  0  0
  -24.9400  -34.0770   24.9950 H   0  0  0  0  0  0  0  0  0  0  0  0
  -24.1000  -36.7730   23.1120 C   0  0  0  0  0  1  0  0  0  0  0  0
  -25.3540  -36.3750   23.9060 C   0  0  0  0  0  3  0  0  0  0  0  0
  -27.4930  -37.2690   24.7150 C   0  0  0  0  0  1  0  0  0  0  0  0
  -26.3770  -37.4370   23.7890 N   0  0  0  0  0  0  0  0  0  0  0  0
  -25.9660  -38.3530   23.9520 H   0  0  0  0  0  0  0  0  0  0  0  0
  1 49  1  0
  1 47  1  0
  2  5  1  0
  2  1  1  0
  2  3  1  0
  4  2  1  0
  6  7  1  0
  6  5  1  0
  8  7  1  0
  8  9  1  0
 10  9  1  0
 11 10  1  0
 12 17  1  0
 13 14  1  0
 13 12  1  0
 15 14  1  0
 15 22  1  0
 15 16  1  0
 17 11  1  0
 17 16  1  0
 18 11  2  0
 19 20  2  0
 20 39  1  0
 21 20  1  0
 21 24  1  0
 22 23  1  0
 22 19  1  0
 23 21  2  0
 24 25  1  0
 25 26  2  0
 27 30  1  0
 27 26  1  0
 28 27  2  0
 29 28  1  0
 29 24  2  0
 30 31  1  0
 31 32  1  0
 32 33  2  0
 34 33  1  0
 34 38  1  0
 35 34  2  0
 36 31  2  0
 36 35  1  0
 37 36  1  0
 39 40  1  0
 40 43  1  0
 40 42  1  0
 41 39  2  0
 44 45  1  0
 44 19  1  0
 46 44  1  0
 47 48  2  0
 50 49  1  0
 51 53  1  0
 51 50  1  0
 52 63  2  0
 53 58  1  0
 54 62  1  0
 54 64  1  0
 55 61  1  0
 55 57  1  0
 56 62  1  0
 57 56  1  0
 58 57  2  0
 59 60  1  0
 59 53  2  0
 60 55  2  0
 61 54  1  0
 62 52  1  0
 64 66  2  0
 65 64  1  0
 67 65  1  0
 68 77  2  0
 68 73  1  0
 69 65  1  0
 69 73  1  0
 70 69  1  0
 71 72  1  0
 71 70  1  0
 72 68  1  0
 73 74  2  0
 74 75  1  0
 76 75  2  0
 77 76  1  0
 78 52  1  0
 78 83  1  0
 78 79  1  0
 79 82  1  1
 79 80  1  0
 81 79  1  0
 83 86  1  0
 84 88  1  0
 84 83  1  0
 85 84  2  0
 88 87  1  0
 90 88  1  0
 90 91  1  0
 90 89  1  0
M  ISO  4  10 100  11 100  50 101  51 101
M  END
>  <TORSDO>  (42) 
F 26

>  <SCORE>  (42) 
-11.222

>  <name>  (42) 
41

>  <ligand_id>  (42) 
41

>  <original_smiles>  (42) 
[H]C(=O)C([H])(C([H])([H])C([H])([H])Oc1c([H])c([H])c2c(c1[H])C([H])([H])N(C(=O)C([H])(N([H])C(=O)C([H])(N([H])C([H])([H])[H])C([H])([H])[H])C(C([H])([H])[H])(C([H])([H])[H])C([H])([H])[H])C([H])(C(=O)N([H])C1([H])c3c([H])c([H])c([H])c([H])c3C([H])([H])C([H])([H])C1([H])[H])C2([H])[H])[N+]([H])([H])C([H])([H])C([H])([H])C([H])([H])C([H])([H])C([H])([H])C([H])([H])C(=O)N1C([H])([H])C([H])([H])C([H])([H])C([H])(n2nc(-c3c([H])c([H])c(Oc4c([H])c([H])c(F)c([H])c4F)c([H])c3[H])c(C(=O)N([H])[H])c2N([H])[H])C1([H])[H]

>  <smiles>  (42) 
[H]C(=O)C([H])(C([H])([H])C([H])([H])Oc1c([H])c([H])c2c(c1[H])C([H])([H])N(C(=O)C([H])(N([H])C(=O)C([H])(N([H])C([H])([H])[H])C([H])([H])[H])C(C([H])([H])[H])(C([H])([H])[H])C([H])([H])[H])C([H])(C(=O)N([H])C1([H])c3c([H])c([H])c([H])c([H])c3C([H])([H])C([H])([H])C1([H])[H])C2([H])[H])[N+]([H])([H])C([H])([H])C([H])([H])C([H])([H])C([H])([H])C([H])([H])C([H])([H])C(=O)N1C([H])([H])C([H])([H])C([H])([H])C([H])(n2nc(-c3c([H])c([H])c(Oc4c([H])c([H])c(F)c([H])c4F)c([H])c3[H])c(C(=O)N([H])[H])c2N([H])[H])C1([H])[H]

$$$$
42:0:0
     RDKit          3D

 97107  0  0  1  0  0  0  0  0999 V2000
  -26.6850  -24.0040   23.0350 C   0  0  0  0  0  3  0  0  0  0  0  0
  -26.2630  -24.8630   21.9830 C   0  0  0  0  0  3  0  0  0  0  0  0
  -28.5220  -24.9330   20.9090 C   0  0  0  0  0  3  0  0  0  0  0  0
  -28.0330  -23.6460   22.9750 C   0  0  0  0  0  0  0  0  0  0  0  0
  -28.9190  -24.1020   21.9580 C   0  0  0  0  0  0  0  0  0  0  0  0
  -27.1480  -25.3120   20.9430 C   0  0  0  0  0  0  0  0  0  0  0  0
  -29.0820  -22.7820   23.6270 C   0  0  0  0  0  2  0  0  0  0  0  0
  -30.0890  -23.2970   22.4790 C   0  0  0  0  0  3  0  0  0  0  0  0
  -26.5960  -26.1840   19.8280 C   0  0  0  0  0  2  0  0  0  0  0  0
  -26.9940  -25.6690   18.4320 C   0  0  0  0  0  2  0  0  0  0  0  0
  -26.9180  -26.7270   17.3210 C   0  0  0  0  0  2  0  0  0  0  0  0
  -25.5760  -27.1940   17.2190 O   0  0  0  0  0  0  0  0  0  0  0  0
  -25.9390  -30.1220   23.7490 C   0  0  0  0  0  0  0  0  0  0  0  0
  -25.0540  -28.0020   18.2020 C   0  0  0  0  0  0  0  0  0  0  0  0
  -23.8150  -30.4420   22.5160 C   0  0  0  0  0  3  0  0  0  0  0  0
  -23.8500  -29.7530   20.0620 C   0  0  0  0  0  0  0  0  0  0  0  0
  -26.0180  -30.1020   21.2640 C   0  0  0  0  0  2  0  0  0  0  0  0
  -25.2160  -29.4590   20.1560 C   0  0  0  0  0  0  0  0  0  0  0  0
  -25.8240  -28.5850   19.2340 C   0  0  0  0  0  3  0  0  0  0  0  0
  -23.6780  -28.2980   18.1220 C   0  0  0  0  0  3  0  0  0  0  0  0
  -23.0700  -29.1620   19.0530 C   0  0  0  0  0  3  0  0  0  0  0  0
  -23.2910  -30.7200   21.0810 C   0  0  0  0  0  2  0  0  0  0  0  0
  -25.2930  -30.1930   22.5510 N   0  0  0  0  0  0  0  0  0  0  0  0
  -25.3330  -30.3020   24.8130 O   0  0  0  0  0  0  0  0  0  0  0  0
  -22.9870  -29.2870   23.1240 C   0  0  0  0  0  0  0  0  0  0  0  0
  -21.6520  -29.3930   23.0250 N   0  0  0  0  0  0  0  0  0  0  0  0
  -23.5430  -28.3130   23.6390 O   0  0  0  0  0  0  0  0  0  0  0  0
  -21.2720  -30.2260   22.5970 H   0  0  0  0  0  0  0  0  0  0  0  0
  -18.2360  -28.2870   22.6460 C   0  0  0  0  0  0  0  0  0  0  0  0
  -20.6750  -28.4110   23.4930 C   0  0  0  0  0  3  0  0  0  0  0  0
  -20.8810  -27.0460   22.7960 C   0  0  0  0  0  2  0  0  0  0  0  0
  -20.0230  -26.8760   21.5380 C   0  0  0  0  0  2  0  0  0  0  0  0
  -18.5360  -27.0090   21.8810 C   0  0  0  0  0  2  0  0  0  0  0  0
  -19.2450  -28.9530   23.3900 C   0  0  0  0  0  0  0  0  0  0  0  0
  -18.9260  -30.1580   24.0540 C   0  0  0  0  0  3  0  0  0  0  0  0
  -17.6250  -30.6930   23.9870 C   0  0  0  0  0  3  0  0  0  0  0  0
  -16.6250  -30.0190   23.2640 C   0  0  0  0  0  3  0  0  0  0  0  0
  -16.9310  -28.8180   22.5980 C   0  0  0  0  0  3  0  0  0  0  0  0
  -27.4720  -29.8380   23.8370 C   0  0  0  0  0  3  0  0  0  0  0  0
  -28.0800  -30.9350   24.6010 N   0  0  0  0  0  0  0  0  0  0  0  0
  -28.8970  -31.8620   24.0840 C   0  0  0  0  0  0  0  0  0  0  0  0
  -29.2780  -31.8390   22.9100 O   0  0  0  0  0  0  0  0  0  0  0  0
  -27.7660  -31.0480   25.5540 H   0  0  0  0  0  0  0  0  0  0  0  0
  -28.6040  -34.2890   24.6780 C   0  0  0  0  0  1  0  0  0  0  0  0
  -29.3630  -32.9960   25.0160 C   0  0  0  0  0  3  0  0  0  0  0  0
  -31.6160  -32.1450   25.4890 C   0  0  0  0  0  1  0  0  0  0  0  0
  -30.8190  -33.2450   24.9560 N   0  0  0  0  0  0  0  0  0  0  0  0
  -31.0620  -34.0890   25.4680 H   0  0  0  0  0  0  0  0  0  0  0  0
  -27.8120  -28.4430   24.4930 C   0  0  1  0  0  0  0  0  0  0  0  0
  -27.1070  -28.2040   25.8470 C   0  0  0  0  0  1  0  0  0  0  0  0
  -27.4190  -27.2830   23.5480 C   0  0  0  0  0  1  0  0  0  0  0  0
  -29.3370  -28.3270   24.7240 C   0  0  0  0  0  1  0  0  0  0  0  0
  -30.6860  -22.3470   21.4370 C   0  0  0  0  0  2  0  0  0  0  0  0
  -29.6580  -21.7590   20.4510 C   0  0  0  0  0  2  0  0  0  0  0  0
  -30.2770  -20.8070   19.4130 C   0  0  0  0  0  2  0  0  0  0  0  0
  -31.9760  -15.4060   19.2850 C   0  0  0  0  0  0  0  0  0  0  0  0
  -31.7390  -12.9760   18.8830 C   0  0  0  0  0  2  0  0  0  0  0  0
  -30.7740  -12.7220   17.7080 C   0  0  0  0  0  2  0  0  0  0  0  0
  -29.3120  -12.6690   18.2000 C   0  0  0  0  0  2  0  0  0  0  0  0
  -28.9480  -13.8620   19.1210 C   0  0  0  0  0  3  0  0  0  0  0  0
  -30.0300  -14.0820   20.2050 C   0  0  0  0  0  2  0  0  0  0  0  0
  -31.3310  -14.2310   19.5320 N   0  0  0  0  0  0  0  0  0  0  0  0
  -33.0960  -15.4510   18.7630 O   0  0  0  0  0  0  0  0  0  0  0  0
  -31.0580  -18.7480   20.7950 C   0  0  0  0  0  2  0  0  0  0  0  0
  -30.1890  -18.4740   18.4230 C   0  0  0  0  0  2  0  0  0  0  0  0
  -32.0240  -17.6570   20.2700 C   0  0  0  0  0  2  0  0  0  0  0  0
  -30.2000  -16.9730   18.7350 C   0  0  0  0  0  2  0  0  0  0  0  0
  -30.0950  -19.3010   19.7130 C   0  0  0  0  0  3  0  0  0  0  0  0
  -31.3130  -16.5470   19.6090 N   0  0  0  0  0  0  0  0  0  0  0  0
  -26.7130  -14.7140   20.0700 C   0  0  0  0  0  0  0  0  0  0  0  0
  -25.5940  -14.0530   20.4950 C   0  0  0  0  0  0  0  0  0  0  0  0
  -25.8800  -12.6600   20.3560 C   0  0  0  0  0  0  0  0  0  0  0  0
  -27.6190  -13.7270   19.7060 N   0  0  0  0  0  0  0  0  0  0  0  0
  -27.1250  -12.4850   19.9340 N   0  0  0  0  0  0  0  0  0  0  0  0
  -25.0250  -11.4830   20.5420 C   0  0  0  0  0  0  0  0  0  0  0  0
  -25.3630  -10.4640   21.4580 C   0  0  0  0  0  3  0  0  0  0  0  0
  -24.5140   -9.3500   21.6340 C   0  0  0  0  0  3  0  0  0  0  0  0
  -23.3140   -9.2500   20.8890 C   0  0  0  0  0  0  0  0  0  0  0  0
  -22.9940  -10.2570   19.9600 C   0  0  0  0  0  3  0  0  0  0  0  0
  -23.8430  -11.3610   19.7840 C   0  0  0  0  0  3  0  0  0  0  0  0
  -22.4440   -8.1900   20.9730 O   0  0  0  0  0  0  0  0  0  0  0  0
  -22.1760   -7.5690   22.1680 C   0  0  0  0  0  0  0  0  0  0  0  0
  -21.6630   -8.2790   23.2770 C   0  0  0  0  0  3  0  0  0  0  0  0
  -21.3410   -7.5920   24.4650 C   0  0  0  0  0  3  0  0  0  0  0  0
  -21.5180   -6.1990   24.5440 C   0  0  0  0  0  0  0  0  0  0  0  0
  -22.0220   -5.4890   23.4390 C   0  0  0  0  0  3  0  0  0  0  0  0
  -22.3490   -6.1730   22.2540 C   0  0  0  0  0  0  0  0  0  0  0  0
  -22.8160   -5.4820   21.1870 F   0  0  0  0  0  0  0  0  0  0  0  0
  -21.1960   -5.5390   25.6810 F   0  0  0  0  0  0  0  0  0  0  0  0
  -24.2910  -14.6750   20.9080 C   0  0  0  0  0  0  0  0  0  0  0  0
  -23.5630  -14.0290   21.8110 N   0  0  0  0  0  0  0  0  0  0  0  0
  -23.9340  -15.7660   20.4640 O   0  0  0  0  0  0  0  0  0  0  0  0
  -23.8680  -13.1480   22.1980 H   0  0  0  0  0  0  0  0  0  0  0  0
  -22.6920  -14.4270   22.1300 H   0  0  0  0  0  0  0  0  0  0  0  0
  -27.0240  -16.0650   19.9400 N   0  0  0  0  0  0  0  0  0  0  0  0
  -26.3450  -16.7890   20.1470 H   0  0  0  0  0  0  0  0  0  0  0  0
  -27.8890  -16.4290   19.5610 H   0  0  0  0  0  0  0  0  0  0  0  0
  2  1  2  0
  3  6  2  0
  3  5  1  0
  4  1  1  0
  4  7  1  0
  5  8  1  0
  5  4  2  0
  6  2  1  0
  8 53  1  0
  8  7  1  0
  9  6  1  0
 10  9  1  0
 11 10  1  0
 12 11  1  0
 12 14  1  0
 13 24  2  0
 14 19  1  0
 15 23  1  0
 15 25  1  0
 16 18  1  0
 16 22  1  0
 17 23  1  0
 18 17  1  0
 19 18  2  0
 20 14  2  0
 20 21  1  0
 21 16  2  0
 22 15  1  0
 23 13  1  0
 25 27  2  0
 26 25  1  0
 28 26  1  0
 29 34  1  0
 30 26  1  0
 31 30  1  0
 32 33  1  0
 32 31  1  0
 33 29  1  0
 34 30  1  0
 34 35  2  0
 36 35  1  0
 37 36  2  0
 38 29  2  0
 38 37  1  0
 39 13  1  0
 39 49  1  0
 39 40  1  0
 40 43  1  0
 41 40  1  0
 41 45  1  0
 42 41  2  0
 45 44  1  0
 47 45  1  0
 47 48  1  0
 47 46  1  0
 49 52  1  1
 49 50  1  0
 51 49  1  0
 54 53  1  0
 55 54  1  0
 56 62  1  0
 56 69  1  0
 57 62  1  0
 58 59  1  0
 58 57  1  0
 60 59  1  0
 60 73  1  0
 60 61  1  0
 62 61  1  0
 63 56  2  0
 65 67  1  0
 65 68  1  0
 66 64  1  0
 67 69  1  0
 68 55  1  0
 68 64  1  0
 69 66  1  0
 70 71  2  0
 71 90  1  0
 72 71  1  0
 72 75  1  0
 73 74  1  0
 73 70  1  0
 74 72  2  0
 75 76  1  0
 76 77  2  0
 78 81  1  0
 78 77  1  0
 79 78  2  0
 80 79  1  0
 80 75  2  0
 81 82  1  0
 82 87  2  0
 82 83  1  0
 83 84  2  0
 84 85  1  0
 85 89  1  0
 86 85  2  0
 87 86  1  0
 88 87  1  0
 90 91  1  0
 91 94  1  0
 91 93  1  0
 92 90  2  0
 95 70  1  0
 95 96  1  0
 97 95  1  0
M  ISO  4  11 101  12 101  56 100  69 100
M  END
>  <TORSDO>  (43) 
F 22

>  <SCORE>  (43) 
-6.877

>  <name>  (43) 
42

>  <ligand_id>  (43) 
42

>  <original_smiles>  (43) 
[H]c1c([H])c([H])c2c(c1[H])C([H])([H])C([H])([H])C([H])([H])C2([H])N([H])C(=O)C1([H])N(C(=O)C([H])(N([H])C(=O)C([H])(N([H])C([H])([H])[H])C([H])([H])[H])C(C([H])([H])[H])(C([H])([H])[H])C([H])([H])[H])C([H])([H])c2c([H])c(OC([H])([H])C([H])([H])C([H])([H])c3c([H])c([H])c4c(c3[H])C([H])(C([H])([H])C([H])([H])C([H])([H])C3([H])C([H])([H])C([H])([H])N(C(=O)N5C([H])([H])C([H])([H])C([H])([H])C([H])(n6nc(-c7c([H])c([H])c(Oc8c([H])c([H])c(F)c([H])c8F)c([H])c7[H])c(C(=O)N([H])[H])c6N([H])[H])C5([H])[H])C([H])([H])C3([H])[H])C4([H])[H])c([H])c([H])c2C1([H])[H]

>  <smiles>  (43) 
[H]c1c([H])c([H])c2c(c1[H])C([H])([H])C([H])([H])C([H])([H])C2([H])N([H])C(=O)C1([H])N(C(=O)C([H])(N([H])C(=O)C([H])(N([H])C([H])([H])[H])C([H])([H])[H])C(C([H])([H])[H])(C([H])([H])[H])C([H])([H])[H])C([H])([H])c2c([H])c(OC([H])([H])C([H])([H])C([H])([H])c3c([H])c([H])c4c(c3[H])C([H])(C([H])([H])C([H])([H])C([H])([H])C3([H])C([H])([H])C([H])([H])N(C(=O)N5C([H])([H])C([H])([H])C([H])([H])C([H])(n6nc(-c7c([H])c([H])c(Oc8c([H])c([H])c(F)c([H])c8F)c([H])c7[H])c(C(=O)N([H])[H])c6N([H])[H])C5([H])[H])C([H])([H])C3([H])[H])C4([H])[H])c([H])c([H])c2C1([H])[H]

$$$$
43:0:0
     RDKit          3D

 92100  0  0  1  0  0  0  0  0999 V2000
  -29.3780  -18.0800   20.7880 C   0  0  0  0  0  0  0  0  0  0  0  0
  -30.4160  -16.9570   20.5730 C   0  0  0  0  0  0  0  0  0  0  0  0
  -29.8080  -19.5840   20.9860 C   0  0  0  0  0  0  0  0  0  0  0  0
  -31.8550  -17.4950   20.4490 C   0  0  0  0  0  2  0  0  0  0  0  0
  -32.0560  -18.3840   19.2030 C   0  0  0  0  0  2  0  0  0  0  0  0
  -31.8520  -19.8930   19.4700 C   0  0  0  0  0  2  0  0  0  0  0  0
  -30.4160  -20.3920   19.8010 C   0  0  0  0  0  3  0  0  0  0  0  0
  -30.0440  -15.7090   20.5120 N   0  0  0  0  0  0  0  0  0  0  0  0
  -28.1660  -17.8200   20.8320 O   0  0  0  0  0  0  0  0  0  0  0  0
  -29.6270  -20.1260   22.0850 O   0  0  0  0  0  0  0  0  0  0  0  0
  -30.8260  -14.6370   20.0470 C   0  0  0  0  0  0  0  0  0  0  0  0
  -30.4610  -12.4470   18.9530 C   0  0  0  0  0  2  0  0  0  0  0  0
  -29.4730  -12.6710   17.7860 C   0  0  0  0  0  2  0  0  0  0  0  0
  -28.0140  -12.5660   18.2750 C   0  0  0  0  0  2  0  0  0  0  0  0
  -27.7490  -13.4080   19.5520 C   0  0  0  0  0  3  0  0  0  0  0  0
  -28.8480  -13.1680   20.6110 C   0  0  0  0  0  2  0  0  0  0  0  0
  -30.1530  -13.4490   19.9900 N   0  0  0  0  0  0  0  0  0  0  0  0
  -31.9490  -14.7280   19.5510 O   0  0  0  0  0  0  0  0  0  0  0  0
  -25.4120  -14.0730   20.3960 C   0  0  0  0  0  0  0  0  0  0  0  0
  -24.3350  -13.3260   20.7950 C   0  0  0  0  0  0  0  0  0  0  0  0
  -24.7480  -11.9620   20.7100 C   0  0  0  0  0  0  0  0  0  0  0  0
  -26.4130  -13.1640   20.0910 N   0  0  0  0  0  0  0  0  0  0  0  0
  -26.0200  -11.8870   20.3370 N   0  0  0  0  0  0  0  0  0  0  0  0
  -23.9900  -10.7190   20.9050 C   0  0  0  0  0  0  0  0  0  0  0  0
  -24.4380   -9.7100   21.7870 C   0  0  0  0  0  3  0  0  0  0  0  0
  -23.6820   -8.5340   21.9710 C   0  0  0  0  0  3  0  0  0  0  0  0
  -22.4620   -8.3570   21.2760 C   0  0  0  0  0  0  0  0  0  0  0  0
  -22.0310   -9.3540   20.3830 C   0  0  0  0  0  3  0  0  0  0  0  0
  -22.7880  -10.5230   20.1960 C   0  0  0  0  0  3  0  0  0  0  0  0
  -21.6740   -7.2360   21.3730 O   0  0  0  0  0  0  0  0  0  0  0  0
  -21.6740   -6.4510   22.4990 C   0  0  0  0  0  0  0  0  0  0  0  0
  -21.3120   -6.9620   23.7640 C   0  0  0  0  0  3  0  0  0  0  0  0
  -21.2590   -6.1040   24.8810 C   0  0  0  0  0  3  0  0  0  0  0  0
  -21.5570   -4.7370   24.7340 C   0  0  0  0  0  0  0  0  0  0  0  0
  -21.9130   -4.2250   23.4740 C   0  0  0  0  0  3  0  0  0  0  0  0
  -21.9680   -5.0790   22.3590 C   0  0  0  0  0  0  0  0  0  0  0  0
  -22.2900   -4.5770   21.1420 F   0  0  0  0  0  0  0  0  0  0  0  0
  -21.4990   -3.9110   25.8050 F   0  0  0  0  0  0  0  0  0  0  0  0
  -22.9700  -13.8430   21.1500 C   0  0  0  0  0  0  0  0  0  0  0  0
  -22.2680  -13.1530   22.0410 N   0  0  0  0  0  0  0  0  0  0  0  0
  -22.5390  -14.8900   20.6710 O   0  0  0  0  0  0  0  0  0  0  0  0
  -22.6300  -12.3040   22.4490 H   0  0  0  0  0  0  0  0  0  0  0  0
  -21.3530  -13.4800   22.3220 H   0  0  0  0  0  0  0  0  0  0  0  0
  -25.6180  -15.4420   20.2520 N   0  0  0  0  0  0  0  0  0  0  0  0
  -24.8980  -16.1260   20.4560 H   0  0  0  0  0  0  0  0  0  0  0  0
  -26.5080  -15.8640   20.0100 H   0  0  0  0  0  0  0  0  0  0  0  0
  -30.4970  -21.9530   20.0330 C   0  0  0  0  0  3  0  0  0  0  0  0
  -29.2180  -22.8290   19.8510 C   0  0  0  0  0  3  0  0  0  0  0  0
  -29.8470  -24.7160   21.4790 C   0  0  0  0  0  1  0  0  0  0  0  0
  -29.4380  -24.3780   20.0340 C   0  0  0  0  0  3  0  0  0  0  0  0
  -28.1980  -25.2300   19.6240 C   0  0  0  0  0  2  0  0  0  0  0  0
  -28.3450  -26.6670   19.7940 O   0  0  0  0  0  0  0  0  0  0  0  0
  -24.5080  -31.6990   23.1240 C   0  0  0  0  0  0  0  0  0  0  0  0
  -27.1780  -27.4220   19.8010 C   0  0  0  0  0  0  0  0  0  0  0  0
  -23.3030  -30.3490   21.4420 C   0  0  0  0  0  3  0  0  0  0  0  0
  -24.7600  -28.9120   19.9180 C   0  0  0  0  0  0  0  0  0  0  0  0
  -25.8210  -30.7600   21.2190 C   0  0  0  0  0  2  0  0  0  0  0  0
  -25.9230  -29.4210   20.5100 C   0  0  0  0  0  0  0  0  0  0  0  0
  -27.1340  -28.6850   20.4460 C   0  0  0  0  0  3  0  0  0  0  0  0
  -25.9930  -26.9490   19.1890 C   0  0  0  0  0  3  0  0  0  0  0  0
  -24.7930  -27.6780   19.2520 C   0  0  0  0  0  3  0  0  0  0  0  0
  -23.5010  -29.7430   20.0270 C   0  0  0  0  0  2  0  0  0  0  0  0
  -24.5640  -30.9500   21.9860 N   0  0  0  0  0  0  0  0  0  0  0  0
  -23.4300  -31.9220   23.6930 O   0  0  0  0  0  0  0  0  0  0  0  0
  -22.6900  -29.2700   22.3640 C   0  0  0  0  0  0  0  0  0  0  0  0
  -21.3720  -29.0480   22.2370 N   0  0  0  0  0  0  0  0  0  0  0  0
  -23.3980  -28.6360   23.1520 O   0  0  0  0  0  0  0  0  0  0  0  0
  -20.8580  -29.6150   21.5760 H   0  0  0  0  0  0  0  0  0  0  0  0
  -18.0450  -27.7070   22.6870 C   0  0  0  0  0  0  0  0  0  0  0  0
  -20.5900  -28.0540   22.9740 C   0  0  0  0  0  3  0  0  0  0  0  0
  -20.7500  -26.6470   22.3530 C   0  0  0  0  0  2  0  0  0  0  0  0
  -19.6630  -26.3160   21.3260 C   0  0  0  0  0  2  0  0  0  0  0  0
  -18.2750  -26.3860   21.9700 C   0  0  0  0  0  2  0  0  0  0  0  0
  -19.1330  -28.4970   23.1450 C   0  0  0  0  0  0  0  0  0  0  0  0
  -18.8640  -29.7310   23.7750 C   0  0  0  0  0  3  0  0  0  0  0  0
  -17.5410  -30.1770   23.9520 C   0  0  0  0  0  3  0  0  0  0  0  0
  -16.4680  -29.3830   23.5110 C   0  0  0  0  0  3  0  0  0  0  0  0
  -16.7210  -28.1500   22.8850 C   0  0  0  0  0  3  0  0  0  0  0  0
  -25.7910  -32.3310   23.7490 C   0  0  0  0  0  3  0  0  0  0  0  0
  -26.3180  -31.5450   25.0120 C   0  0  1  0  0  0  0  0  0  0  0  0
  -25.2330  -31.2920   26.0840 C   0  0  0  0  0  1  0  0  0  0  0  0
  -26.9000  -30.1740   24.5980 C   0  0  0  0  0  1  0  0  0  0  0  0
  -27.4710  -32.3330   25.6760 C   0  0  0  0  0  1  0  0  0  0  0  0
  -25.4730  -33.7220   24.0970 N   0  0  0  0  0  0  0  0  0  0  0  0
  -25.7950  -34.7860   23.3500 C   0  0  0  0  0  0  0  0  0  0  0  0
  -26.4630  -34.7000   22.3150 O   0  0  0  0  0  0  0  0  0  0  0  0
  -24.8800  -33.8630   24.9010 H   0  0  0  0  0  0  0  0  0  0  0  0
  -24.0500  -36.5680   23.0240 C   0  0  0  0  0  1  0  0  0  0  0  0
  -25.2990  -36.1660   23.8250 C   0  0  0  0  0  3  0  0  0  0  0  0
  -27.4240  -37.0650   24.6650 C   0  0  0  0  0  1  0  0  0  0  0  0
  -26.3230  -37.2280   23.7200 N   0  0  0  0  0  0  0  0  0  0  0  0
  -25.9070  -38.1440   23.8720 H   0  0  0  0  0  0  0  0  0  0  0  0
  1  9  2  0
  1  3  1  0
  2  1  1  0
  3 10  2  0
  4  2  1  0
  5  6  1  0
  5  4  1  0
  6  7  1  0
  7 47  1  0
  7  3  1  0
  8  2  2  0
 11  8  1  0
 12 17  1  0
 13 14  1  0
 13 12  1  0
 15 14  1  0
 15 22  1  0
 15 16  1  0
 17 11  1  0
 17 16  1  0
 18 11  2  0
 19 20  2  0
 20 39  1  0
 21 20  1  0
 21 24  1  0
 22 23  1  0
 22 19  1  0
 23 21  2  0
 24 25  1  0
 25 26  2  0
 27 30  1  0
 27 26  1  0
 28 27  2  0
 29 28  1  0
 29 24  2  0
 30 31  1  0
 31 32  1  0
 32 33  2  0
 34 33  1  0
 34 38  1  0
 35 34  2  0
 36 31  2  0
 36 35  1  0
 37 36  1  0
 39 40  1  0
 40 43  1  0
 40 42  1  0
 41 39  2  0
 44 19  1  0
 44 45  1  0
 46 44  1  0
 48 47  2  0
 48 50  1  0
 50 49  1  0
 51 52  1  0
 51 50  1  0
 52 54  1  0
 53 64  2  0
 54 59  1  0
 55 63  1  0
 55 65  1  0
 56 62  1  0
 56 58  1  0
 57 63  1  0
 58 57  1  0
 59 58  2  0
 60 61  1  0
 60 54  2  0
 61 56  2  0
 62 55  1  0
 63 53  1  0
 65 67  2  0
 66 65  1  0
 68 66  1  0
 69 78  2  0
 69 74  1  0
 70 66  1  0
 70 74  1  0
 71 70  1  0
 72 73  1  0
 72 71  1  0
 73 69  1  0
 74 75  2  0
 75 76  1  0
 77 76  2  0
 78 77  1  0
 79 53  1  0
 79 84  1  0
 79 80  1  0
 80 83  1  1
 80 81  1  0
 82 80  1  0
 84 87  1  0
 85 89  1  0
 85 84  1  0
 86 85  2  0
 89 88  1  0
 91 89  1  0
 91 92  1  0
 91 90  1  0
M  ISO  4   8 100  11 100  51 101  52 101
M  END
>  <TORSDO>  (44) 
F 20

>  <SCORE>  (44) 
-13.180

>  <name>  (44) 
43

>  <ligand_id>  (44) 
43

>  <original_smiles>  (44) 
[H]c1c([H])c([H])c2c(c1[H])C([H])([H])C([H])([H])C([H])([H])C2([H])N([H])C(=O)C1([H])N(C(=O)C([H])(N([H])C(=O)C([H])(N([H])C([H])([H])[H])C([H])([H])[H])C(C([H])([H])[H])(C([H])([H])[H])C([H])([H])[H])C([H])([H])c2c([H])c(OC([H])([H])C([H])(C([H])([H])[H])C([H])([H])C([H])([H])C3([H])C(=O)C(=O)C(=NC(=O)N4C([H])([H])C([H])([H])C([H])([H])C([H])(n5nc(-c6c([H])c([H])c(Oc7c([H])c([H])c(F)c([H])c7F)c([H])c6[H])c(C(=O)N([H])[H])c5N([H])[H])C4([H])[H])C([H])([H])C([H])([H])C3([H])[H])c([H])c([H])c2C1([H])[H]

>  <smiles>  (44) 
[H]c1c([H])c([H])c2c(c1[H])C([H])([H])C([H])([H])C([H])([H])C2([H])N([H])C(=O)C1([H])N(C(=O)C([H])(N([H])C(=O)C([H])(N([H])C([H])([H])[H])C([H])([H])[H])C(C([H])([H])[H])(C([H])([H])[H])C([H])([H])[H])C([H])([H])c2c([H])c(OC([H])([H])C([H])(C([H])([H])[H])C([H])([H])C([H])([H])C3([H])C(=O)C(=O)C(=NC(=O)N4C([H])([H])C([H])([H])C([H])([H])C([H])(n5nc(-c6c([H])c([H])c(Oc7c([H])c([H])c(F)c([H])c7F)c([H])c6[H])c(C(=O)N([H])[H])c5N([H])[H])C4([H])[H])C([H])([H])C([H])([H])C3([H])[H])c([H])c([H])c2C1([H])[H]

$$$$
44:0:0
     RDKit          3D

 92 99  0  0  1  0  0  0  0  0999 V2000
  -27.0880  -20.8610   20.5760 C   0  0  0  0  0  1  0  0  0  0  0  0
  -28.5510  -21.3190   20.7350 C   0  0  0  0  0  3  0  0  0  0  0  0
  -28.8210  -22.6050   19.9560 N   0  0  0  0  0  4  0  0  0  0  0  0
  -29.8220  -22.7010   19.8780 H   0  0  0  0  0  0  0  0  0  0  0  0
  -28.4760  -22.4770   19.0180 H   0  0  0  0  0  0  0  0  0  0  0  0
  -28.2850  -23.9310   20.5130 C   0  0  0  0  0  3  0  0  0  0  0  0
  -28.5640  -25.2560   19.6570 C   0  0  0  0  0  3  0  0  0  0  0  0
  -28.4500  -26.6070   20.2680 O   0  0  0  0  0  0  0  0  0  0  0  0
  -24.6100  -31.9440   23.2300 C   0  0  0  0  0  0  0  0  0  0  0  0
  -27.2990  -27.4080   20.1990 C   0  0  0  0  0  0  0  0  0  0  0  0
  -23.4390  -30.5330   21.5780 C   0  0  0  0  0  3  0  0  0  0  0  0
  -24.9170  -28.9930   20.1700 C   0  0  0  0  0  0  0  0  0  0  0  0
  -25.9790  -30.8760   21.4230 C   0  0  0  0  0  2  0  0  0  0  0  0
  -26.0740  -29.4980   20.7760 C   0  0  0  0  0  0  0  0  0  0  0  0
  -27.2670  -28.7160   20.7760 C   0  0  0  0  0  3  0  0  0  0  0  0
  -26.1120  -26.9460   19.5900 C   0  0  0  0  0  3  0  0  0  0  0  0
  -24.9380  -27.7240   19.5700 C   0  0  0  0  0  3  0  0  0  0  0  0
  -23.6710  -29.8540   20.2010 C   0  0  0  0  0  2  0  0  0  0  0  0
  -24.6950  -31.1350   22.1330 N   0  0  0  0  0  0  0  0  0  0  0  0
  -23.5180  -32.2120   23.7520 O   0  0  0  0  0  0  0  0  0  0  0  0
  -22.7770  -29.5100   22.5330 C   0  0  0  0  0  0  0  0  0  0  0  0
  -21.4520  -29.3260   22.3950 N   0  0  0  0  0  0  0  0  0  0  0  0
  -23.4540  -28.8840   23.3520 O   0  0  0  0  0  0  0  0  0  0  0  0
  -20.9670  -29.8840   21.7070 H   0  0  0  0  0  0  0  0  0  0  0  0
  -18.0720  -28.1280   22.8810 C   0  0  0  0  0  0  0  0  0  0  0  0
  -20.6310  -28.3830   23.1570 C   0  0  0  0  0  3  0  0  0  0  0  0
  -20.7330  -26.9560   22.5700 C   0  0  0  0  0  2  0  0  0  0  0  0
  -19.6320  -26.6410   21.5520 C   0  0  0  0  0  2  0  0  0  0  0  0
  -18.2480  -26.7830   22.1950 C   0  0  0  0  0  2  0  0  0  0  0  0
  -19.1910  -28.8850   23.3180 C   0  0  0  0  0  0  0  0  0  0  0  0
  -18.9720  -30.1450   23.9200 C   0  0  0  0  0  3  0  0  0  0  0  0
  -17.6680  -30.6430   24.0900 C   0  0  0  0  0  3  0  0  0  0  0  0
  -16.5630  -29.8840   23.6670 C   0  0  0  0  0  3  0  0  0  0  0  0
  -16.7670  -28.6270   23.0700 C   0  0  0  0  0  3  0  0  0  0  0  0
  -25.8790  -32.5880   23.8690 C   0  0  0  0  0  3  0  0  0  0  0  0
  -25.5530  -33.9870   24.1800 N   0  0  0  0  0  0  0  0  0  0  0  0
  -25.8920  -35.0370   23.4200 C   0  0  0  0  0  0  0  0  0  0  0  0
  -26.5790  -34.9300   22.4000 O   0  0  0  0  0  0  0  0  0  0  0  0
  -24.9450  -34.1450   24.9710 H   0  0  0  0  0  0  0  0  0  0  0  0
  -24.1630  -36.8220   23.0230 C   0  0  0  0  0  1  0  0  0  0  0  0
  -25.3910  -36.4270   23.8600 C   0  0  0  0  0  3  0  0  0  0  0  0
  -27.5020  -37.3300   24.7280 C   0  0  0  0  0  1  0  0  0  0  0  0
  -26.4200  -37.4840   23.7590 N   0  0  0  0  0  0  0  0  0  0  0  0
  -26.0070  -38.4040   23.8870 H   0  0  0  0  0  0  0  0  0  0  0  0
  -26.3750  -31.8340   25.1640 C   0  0  1  0  0  0  0  0  0  0  0  0
  -25.2610  -31.6000   26.2130 C   0  0  0  0  0  1  0  0  0  0  0  0
  -26.9770  -30.4570   24.8020 C   0  0  0  0  0  1  0  0  0  0  0  0
  -27.5070  -32.6450   25.8400 C   0  0  0  0  0  1  0  0  0  0  0  0
  -29.5650  -20.1250   20.5300 C   0  0  0  0  0  3  0  0  0  0  0  0
  -29.3360  -18.7660   20.4400 C   0  0  0  0  0  3  0  0  0  0  0  0
  -31.4720  -17.8570   21.4100 C   0  0  0  0  0  1  0  0  0  0  0  0
  -30.4040  -17.6020   20.3240 C   0  0  1  0  0  0  0  0  0  0  0  0
  -29.8220  -16.1100   20.5460 C   0  0  0  0  0  2  0  0  0  0  0  0
  -30.6710  -14.7870   20.2400 C   0  0  0  0  0  0  0  0  0  0  0  0
  -30.4480  -12.5470   19.1820 C   0  0  0  0  0  2  0  0  0  0  0  0
  -29.4820  -12.7060   17.9880 C   0  0  0  0  0  2  0  0  0  0  0  0
  -28.0170  -12.5370   18.4360 C   0  0  0  0  0  2  0  0  0  0  0  0
  -27.6810  -13.3710   19.6980 C   0  0  0  0  0  3  0  0  0  0  0  0
  -28.7660  -13.2260   20.7870 C   0  0  0  0  0  2  0  0  0  0  0  0
  -30.0630  -13.5580   20.1880 N   0  0  0  0  0  0  0  0  0  0  0  0
  -31.8500  -14.8930   19.8900 O   0  0  0  0  0  0  0  0  0  0  0  0
  -25.3140  -13.9560   20.4920 C   0  0  0  0  0  0  0  0  0  0  0  0
  -24.2600  -13.1770   20.8800 C   0  0  0  0  0  0  0  0  0  0  0  0
  -24.7250  -11.8260   20.8290 C   0  0  0  0  0  0  0  0  0  0  0  0
  -26.3520  -13.0790   20.2200 N   0  0  0  0  0  0  0  0  0  0  0  0
  -26.0060  -11.7930   20.4850 N   0  0  0  0  0  0  0  0  0  0  0  0
  -24.0080  -10.5620   21.0300 C   0  0  0  0  0  0  0  0  0  0  0  0
  -24.4530   -9.5990   21.9620 C   0  0  0  0  0  3  0  0  0  0  0  0
  -23.7360   -8.3990   22.1490 C   0  0  0  0  0  3  0  0  0  0  0  0
  -22.5600   -8.1510   21.4010 C   0  0  0  0  0  0  0  0  0  0  0  0
  -22.1350   -9.1020   20.4570 C   0  0  0  0  0  3  0  0  0  0  0  0
  -22.8530  -10.2960   20.2700 C   0  0  0  0  0  3  0  0  0  0  0  0
  -21.8150   -7.0000   21.4950 O   0  0  0  0  0  0  0  0  0  0  0  0
  -21.7650   -6.2680   22.6520 C   0  0  0  0  0  0  0  0  0  0  0  0
  -21.3050   -6.8230   23.8660 C   0  0  0  0  0  3  0  0  0  0  0  0
  -21.2030   -6.0150   25.0160 C   0  0  0  0  0  3  0  0  0  0  0  0
  -21.5520   -4.6520   24.9540 C   0  0  0  0  0  0  0  0  0  0  0  0
  -22.0050   -4.0970   23.7450 C   0  0  0  0  0  3  0  0  0  0  0  0
  -22.1070   -4.9020   22.5970 C   0  0  0  0  0  0  0  0  0  0  0  0
  -22.5250   -4.3560   21.4300 F   0  0  0  0  0  0  0  0  0  0  0  0
  -21.4470   -3.8760   26.0570 F   0  0  0  0  0  0  0  0  0  0  0  0
  -22.8690  -13.6470   21.1860 C   0  0  0  0  0  0  0  0  0  0  0  0
  -22.1640  -12.9430   22.0660 N   0  0  0  0  0  0  0  0  0  0  0  0
  -22.4130  -14.6740   20.6850 O   0  0  0  0  0  0  0  0  0  0  0  0
  -22.5480  -12.1150   22.4970 H   0  0  0  0  0  0  0  0  0  0  0  0
  -21.2310  -13.2390   22.3120 H   0  0  0  0  0  0  0  0  0  0  0  0
  -25.4740  -15.3290   20.3220 N   0  0  0  0  0  0  0  0  0  0  0  0
  -24.7150  -15.9890   20.4560 H   0  0  0  0  0  0  0  0  0  0  0  0
  -26.3210  -15.7680   19.9820 H   0  0  0  0  0  0  0  0  0  0  0  0
  -31.0770  -17.7150   18.9320 C   0  0  0  0  0  2  0  0  0  0  0  0
  -30.1500  -17.4760   17.8870 O   0  0  0  0  0  0  0  0  0  0  0  0
  -30.6260  -17.5290   17.0630 H   0  0  0  0  0  0  0  0  0  0  0  0
  2  1  1  0
  3  6  1  0
  3  2  1  0
  4  3  1  0
  5  3  1  0
  7  8  1  0
  7  6  2  0
  9 20  2  0
 10  8  1  0
 10 15  1  0
 11 19  1  0
 11 21  1  0
 12 18  1  0
 12 14  1  0
 13 19  1  0
 14 15  2  0
 14 13  1  0
 16 10  2  0
 17 16  1  0
 17 12  2  0
 18 11  1  0
 19  9  1  0
 21 23  2  0
 22 21  1  0
 24 22  1  0
 25 34  2  0
 25 30  1  0
 26 22  1  0
 26 30  1  0
 27 26  1  0
 28 29  1  0
 28 27  1  0
 29 25  1  0
 30 31  2  0
 31 32  1  0
 33 32  2  0
 34 33  1  0
 35  9  1  0
 35 36  1  0
 35 45  1  0
 36 39  1  0
 37 41  1  0
 37 36  1  0
 38 37  2  0
 41 40  1  0
 43 41  1  0
 43 44  1  0
 43 42  1  0
 45 48  1  1
 45 46  1  0
 47 45  1  0
 49  2  1  0
 50 49  2  0
 52 50  1  0
 52 53  1  0
 52 51  1  1
 54 53  1  0
 55 60  1  0
 56 57  1  0
 56 55  1  0
 58 57  1  0
 58 65  1  0
 58 59  1  0
 60 54  1  0
 60 59  1  0
 61 54  2  0
 62 63  2  0
 63 82  1  0
 64 63  1  0
 64 67  1  0
 65 66  1  0
 65 62  1  0
 66 64  2  0
 67 68  1  0
 68 69  2  0
 70 73  1  0
 70 69  1  0
 71 70  2  0
 72 71  1  0
 72 67  2  0
 73 74  1  0
 74 75  1  0
 75 76  2  0
 77 76  1  0
 77 81  1  0
 78 77  2  0
 79 74  2  0
 79 78  1  0
 80 79  1  0
 82 83  1  0
 83 86  1  0
 83 85  1  0
 84 82  2  0
 87 88  1  0
 87 62  1  0
 89 87  1  0
 90 52  1  0
 91 90  1  0
 92 91  1  0
M  ISO  4   7 101   8 101  53 100  54 100
M  END
>  <TORSDO>  (45) 
F 24

>  <SCORE>  (45) 
-12.157

>  <name>  (45) 
44

>  <ligand_id>  (45) 
44

>  <original_smiles>  (45) 
[H]OC([H])([H])C(C([H])=C([H])C([H])(C([H])([H])[H])[N+]([H])([H])C([H])([H])C([H])([H])Oc1c([H])c([H])c2c(c1[H])C([H])([H])N(C(=O)C([H])(N([H])C(=O)C([H])(N([H])C([H])([H])[H])C([H])([H])[H])C(C([H])([H])[H])(C([H])([H])[H])C([H])([H])[H])C([H])(C(=O)N([H])C1([H])c3c([H])c([H])c([H])c([H])c3C([H])([H])C([H])([H])C1([H])[H])C2([H])[H])(C([H])([H])[H])C([H])([H])C(=O)N1C([H])([H])C([H])([H])C([H])([H])C([H])(n2nc(-c3c([H])c([H])c(Oc4c([H])c([H])c(F)c([H])c4F)c([H])c3[H])c(C(=O)N([H])[H])c2N([H])[H])C1([H])[H]

>  <smiles>  (45) 
[H]OC([H])([H])C(C([H])=C([H])C([H])(C([H])([H])[H])[N+]([H])([H])C([H])([H])C([H])([H])Oc1c([H])c([H])c2c(c1[H])C([H])([H])N(C(=O)C([H])(N([H])C(=O)C([H])(N([H])C([H])([H])[H])C([H])([H])[H])C(C([H])([H])[H])(C([H])([H])[H])C([H])([H])[H])C([H])(C(=O)N([H])C1([H])c3c([H])c([H])c([H])c([H])c3C([H])([H])C([H])([H])C1([H])[H])C2([H])[H])(C([H])([H])[H])C([H])([H])C(=O)N1C([H])([H])C([H])([H])C([H])([H])C([H])(n2nc(-c3c([H])c([H])c(Oc4c([H])c([H])c(F)c([H])c4F)c([H])c3[H])c(C(=O)N([H])[H])c2N([H])[H])C1([H])[H]

$$$$
45:0:0
     RDKit          3D

 95103  0  0  1  0  0  0  0  0999 V2000
  -30.2380  -23.7860   22.1880 C   0  0  0  0  0  3  0  0  0  0  0  0
  -29.8560  -22.6350   24.2900 C   0  0  0  0  0  3  0  0  0  0  0  0
  -30.4070  -22.6470   22.9940 C   0  0  0  0  0  0  0  0  0  0  0  0
  -29.4910  -24.8950   22.6370 C   0  0  0  0  0  0  0  0  0  0  0  0
  -29.1490  -23.7560   24.7810 C   0  0  0  0  0  0  0  0  0  0  0  0
  -28.9680  -24.9020   23.9600 C   0  0  0  0  0  0  0  0  0  0  0  0
  -28.5870  -23.6840   26.1910 C   0  0  0  0  0  1  0  0  0  0  0  0
  -28.2080  -26.1230   24.4810 C   0  0  0  0  0  1  0  0  0  0  0  0
  -29.3180  -26.0220   21.6810 C   0  0  0  0  0  0  0  0  0  0  0  0
  -29.7740  -27.1560   21.8680 O   0  0  0  0  0  0  0  0  0  0  0  0
  -28.4880  -25.6930   20.4290 C   0  0  0  0  0  2  0  0  0  0  0  0
  -28.4070  -26.8210   19.5640 O   0  0  0  0  0  0  0  0  0  0  0  0
  -24.5790  -31.6820   23.0480 C   0  0  0  0  0  0  0  0  0  0  0  0
  -27.2260  -27.5010   19.6680 C   0  0  0  0  0  0  0  0  0  0  0  0
  -23.3610  -30.3740   21.3340 C   0  0  0  0  0  3  0  0  0  0  0  0
  -24.8100  -28.9370   19.8060 C   0  0  0  0  0  0  0  0  0  0  0  0
  -25.8760  -30.7770   21.1280 C   0  0  0  0  0  2  0  0  0  0  0  0
  -25.9660  -29.4500   20.4100 C   0  0  0  0  0  0  0  0  0  0  0  0
  -27.1790  -28.7370   20.3410 C   0  0  0  0  0  3  0  0  0  0  0  0
  -26.0600  -26.9840   19.0700 C   0  0  0  0  0  3  0  0  0  0  0  0
  -24.8480  -27.6990   19.1370 C   0  0  0  0  0  3  0  0  0  0  0  0
  -23.5590  -29.7770   19.9140 C   0  0  0  0  0  2  0  0  0  0  0  0
  -24.6230  -30.9550   21.8980 N   0  0  0  0  0  0  0  0  0  0  0  0
  -23.5030  -31.9140   23.6170 O   0  0  0  0  0  0  0  0  0  0  0  0
  -22.7290  -29.2930   22.2370 C   0  0  0  0  0  0  0  0  0  0  0  0
  -21.3980  -29.1400   22.1440 N   0  0  0  0  0  0  0  0  0  0  0  0
  -23.4290  -28.5970   22.9770 O   0  0  0  0  0  0  0  0  0  0  0  0
  -20.8970  -29.7570   21.5190 H   0  0  0  0  0  0  0  0  0  0  0  0
  -18.0160  -28.0030   22.7020 C   0  0  0  0  0  0  0  0  0  0  0  0
  -20.5910  -28.1600   22.8670 C   0  0  0  0  0  3  0  0  0  0  0  0
  -20.6170  -26.7860   22.1580 C   0  0  0  0  0  2  0  0  0  0  0  0
  -19.4570  -26.5910   21.1760 C   0  0  0  0  0  2  0  0  0  0  0  0
  -18.1140  -26.7150   21.9000 C   0  0  0  0  0  2  0  0  0  0  0  0
  -19.1790  -28.6890   23.1410 C   0  0  0  0  0  0  0  0  0  0  0  0
  -19.0320  -29.9000   23.8520 C   0  0  0  0  0  3  0  0  0  0  0  0
  -17.7560  -30.4240   24.1270 C   0  0  0  0  0  3  0  0  0  0  0  0
  -16.6070  -29.7320   23.7040 C   0  0  0  0  0  3  0  0  0  0  0  0
  -16.7380  -28.5240   22.9970 C   0  0  0  0  0  3  0  0  0  0  0  0
  -25.8700  -32.2780   23.6930 C   0  0  0  0  0  3  0  0  0  0  0  0
  -25.5710  -33.6610   24.0830 N   0  0  0  0  0  0  0  0  0  0  0  0
  -25.9100  -34.7420   23.3660 C   0  0  0  0  0  0  0  0  0  0  0  0
  -26.5780  -34.6780   22.3310 O   0  0  0  0  0  0  0  0  0  0  0  0
  -24.9770  -33.7870   24.8900 H   0  0  0  0  0  0  0  0  0  0  0  0
  -24.1860  -36.5520   23.0900 C   0  0  0  0  0  1  0  0  0  0  0  0
  -25.4280  -36.1120   23.8810 C   0  0  0  0  0  3  0  0  0  0  0  0
  -27.5720  -36.9530   24.7330 C   0  0  0  0  0  1  0  0  0  0  0  0
  -26.4650  -37.1650   23.8050 N   0  0  0  0  0  0  0  0  0  0  0  0
  -26.0660  -38.0790   23.9920 H   0  0  0  0  0  0  0  0  0  0  0  0
  -26.3910  -31.4470   24.9300 C   0  0  1  0  0  0  0  0  0  0  0  0
  -25.3020  -31.1710   25.9940 C   0  0  0  0  0  1  0  0  0  0  0  0
  -26.9590  -30.0840   24.4690 C   0  0  0  0  0  1  0  0  0  0  0  0
  -27.5530  -32.2020   25.6170 C   0  0  0  0  0  1  0  0  0  0  0  0
  -31.1970  -21.5090   22.4620 C   0  0  0  0  0  0  0  0  0  0  0  0
  -31.9930  -21.6330   21.5230 O   0  0  0  0  0  0  0  0  0  0  0  0
  -30.9210  -20.1270   23.0660 C   0  0  0  0  0  2  0  0  0  0  0  0
  -31.2160  -18.9810   22.0820 C   0  0  0  0  0  2  0  0  0  0  0  0
  -30.5930  -17.6330   22.4730 C   0  0  0  0  0  2  0  0  0  0  0  0
  -30.9540  -16.5820   21.4140 C   0  0  0  0  0  2  0  0  0  0  0  0
  -30.2120  -15.2340   21.5300 C   0  0  0  0  0  2  0  0  0  0  0  0
  -30.6560  -14.2470   20.4330 C   0  0  0  0  0  0  0  0  0  0  0  0
  -30.2340  -12.2400   19.0630 C   0  0  0  0  0  2  0  0  0  0  0  0
  -29.2480  -12.5640   17.9250 C   0  0  0  0  0  2  0  0  0  0  0  0
  -27.7950  -12.4050   18.4090 C   0  0  0  0  0  2  0  0  0  0  0  0
  -27.5260  -13.1510   19.7440 C   0  0  0  0  0  3  0  0  0  0  0  0
  -28.6180  -12.8190   20.7870 C   0  0  0  0  0  2  0  0  0  0  0  0
  -29.9270  -13.1300   20.1910 N   0  0  0  0  0  0  0  0  0  0  0  0
  -31.6720  -14.5160   19.7820 O   0  0  0  0  0  0  0  0  0  0  0  0
  -25.1420  -13.7330   20.5230 C   0  0  0  0  0  0  0  0  0  0  0  0
  -24.0880  -12.9460   20.9070 C   0  0  0  0  0  0  0  0  0  0  0  0
  -24.5570  -11.5980   20.8400 C   0  0  0  0  0  0  0  0  0  0  0  0
  -26.1870  -12.8630   20.2510 N   0  0  0  0  0  0  0  0  0  0  0  0
  -25.8380  -11.5730   20.4950 N   0  0  0  0  0  0  0  0  0  0  0  0
  -23.8460  -10.3280   21.0310 C   0  0  0  0  0  0  0  0  0  0  0  0
  -24.3050   -9.3550   21.9470 C   0  0  0  0  0  3  0  0  0  0  0  0
  -23.5930   -8.1500   22.1260 C   0  0  0  0  0  3  0  0  0  0  0  0
  -22.4110   -7.9070   21.3870 C   0  0  0  0  0  0  0  0  0  0  0  0
  -21.9720   -8.8680   20.4610 C   0  0  0  0  0  3  0  0  0  0  0  0
  -22.6840  -10.0660   20.2800 C   0  0  0  0  0  3  0  0  0  0  0  0
  -21.6690   -6.7530   21.4760 O   0  0  0  0  0  0  0  0  0  0  0  0
  -21.6340   -6.0060   22.6260 C   0  0  0  0  0  0  0  0  0  0  0  0
  -21.2220   -6.5580   23.8590 C   0  0  0  0  0  3  0  0  0  0  0  0
  -21.1340   -5.7380   25.0030 C   0  0  0  0  0  3  0  0  0  0  0  0
  -21.4480   -4.3680   24.9140 C   0  0  0  0  0  0  0  0  0  0  0  0
  -21.8530   -3.8170   23.6840 C   0  0  0  0  0  3  0  0  0  0  0  0
  -21.9430   -4.6340   22.5440 C   0  0  0  0  0  0  0  0  0  0  0  0
  -22.3140   -4.0940   21.3570 F   0  0  0  0  0  0  0  0  0  0  0  0
  -21.3560   -3.5790   26.0090 F   0  0  0  0  0  0  0  0  0  0  0  0
  -22.6960  -13.4070   21.2310 C   0  0  0  0  0  0  0  0  0  0  0  0
  -22.0070  -12.7000   22.1200 N   0  0  0  0  0  0  0  0  0  0  0  0
  -22.2300  -14.4300   20.7320 O   0  0  0  0  0  0  0  0  0  0  0  0
  -22.3980  -11.8720   22.5440 H   0  0  0  0  0  0  0  0  0  0  0  0
  -21.0750  -12.9920   22.3810 H   0  0  0  0  0  0  0  0  0  0  0  0
  -25.2890  -15.1080   20.3640 N   0  0  0  0  0  0  0  0  0  0  0  0
  -24.5200  -15.7530   20.5060 H   0  0  0  0  0  0  0  0  0  0  0  0
  -26.1330  -15.5630   20.0410 H   0  0  0  0  0  0  0  0  0  0  0  0
  1  4  2  0
  1  3  1  0
  2  5  1  0
  3  2  2  0
  4  6  1  0
  5  7  1  0
  6  8  1  0
  6  5  2  0
  9 10  2  0
  9  4  1  0
 11  9  1  0
 12 14  1  0
 12 11  1  0
 13 24  2  0
 14 19  1  0
 15 23  1  0
 15 25  1  0
 16 22  1  0
 16 18  1  0
 17 23  1  0
 18 17  1  0
 19 18  2  0
 20 21  1  0
 20 14  2  0
 21 16  2  0
 22 15  1  0
 23 13  1  0
 25 27  2  0
 26 25  1  0
 28 26  1  0
 29 38  2  0
 29 34  1  0
 30 26  1  0
 30 34  1  0
 31 30  1  0
 32 33  1  0
 32 31  1  0
 33 29  1  0
 34 35  2  0
 35 36  1  0
 37 36  2  0
 38 37  1  0
 39 13  1  0
 39 40  1  0
 39 49  1  0
 40 43  1  0
 41 45  1  0
 41 40  1  0
 42 41  2  0
 45 44  1  0
 47 45  1  0
 47 48  1  0
 47 46  1  0
 49 52  1  1
 49 50  1  0
 51 49  1  0
 53  3  1  0
 53 55  1  0
 54 53  2  0
 56 57  1  0
 56 55  1  0
 58 59  1  0
 58 57  1  0
 60 59  1  0
 61 66  1  0
 62 63  1  0
 62 61  1  0
 64 63  1  0
 64 71  1  0
 64 65  1  0
 66 60  1  0
 66 65  1  0
 67 60  2  0
 68 69  2  0
 69 88  1  0
 70 69  1  0
 70 73  1  0
 71 72  1  0
 71 68  1  0
 72 70  2  0
 73 74  1  0
 74 75  2  0
 76 79  1  0
 76 75  1  0
 77 76  2  0
 78 77  1  0
 78 73  2  0
 79 80  1  0
 80 81  1  0
 81 82  2  0
 83 82  1  0
 83 87  1  0
 84 83  2  0
 85 80  2  0
 85 84  1  0
 86 85  1  0
 88 89  1  0
 89 92  1  0
 89 91  1  0
 90 88  2  0
 93 94  1  0
 93 68  1  0
 95 93  1  0
M  ISO  4  11 101  12 101  59 100  60 100
M  END
>  <TORSDO>  (46) 
F 24

>  <SCORE>  (46) 
-8.094

>  <name>  (46) 
45

>  <ligand_id>  (46) 
45

>  <original_smiles>  (46) 
[H]c1c([H])c([H])c2c(c1[H])C([H])([H])C([H])([H])C([H])([H])C2([H])N([H])C(=O)C1([H])N(C(=O)C([H])(N([H])C(=O)C([H])(N([H])C([H])([H])[H])C([H])([H])[H])C(C([H])([H])[H])(C([H])([H])[H])C([H])([H])[H])C([H])([H])c2c([H])c(OC([H])([H])C(=O)c3c([H])c(C(=O)C([H])([H])C([H])([H])C([H])([H])C([H])([H])C([H])([H])C(=O)N4C([H])([H])C([H])([H])C([H])([H])C([H])(n5nc(-c6c([H])c([H])c(Oc7c([H])c([H])c(F)c([H])c7F)c([H])c6[H])c(C(=O)N([H])[H])c5N([H])[H])C4([H])[H])c([H])c(C([H])([H])[H])c3C([H])([H])[H])c([H])c([H])c2C1([H])[H]

>  <smiles>  (46) 
[H]c1c([H])c([H])c2c(c1[H])C([H])([H])C([H])([H])C([H])([H])C2([H])N([H])C(=O)C1([H])N(C(=O)C([H])(N([H])C(=O)C([H])(N([H])C([H])([H])[H])C([H])([H])[H])C(C([H])([H])[H])(C([H])([H])[H])C([H])([H])[H])C([H])([H])c2c([H])c(OC([H])([H])C(=O)c3c([H])c(C(=O)C([H])([H])C([H])([H])C([H])([H])C([H])([H])C([H])([H])C(=O)N4C([H])([H])C([H])([H])C([H])([H])C([H])(n5nc(-c6c([H])c([H])c(Oc7c([H])c([H])c(F)c([H])c7F)c([H])c6[H])c(C(=O)N([H])[H])c5N([H])[H])C4([H])[H])c([H])c(C([H])([H])[H])c3C([H])([H])[H])c([H])c([H])c2C1([H])[H]

$$$$
46:0:0
     RDKit          3D

 98105  0  0  1  0  0  0  0  0999 V2000
  -29.3460  -32.0040   23.8120 C   0  0  0  0  0  2  0  0  0  0  0  0
  -28.4920  -32.7540   25.3000 C   0  0  0  0  0  2  0  0  0  0  0  0
  -27.1620  -32.4780   26.5810 C   0  0  0  0  0  2  0  0  0  0  0  0
  -25.3530  -32.1210   26.6960 C   0  0  0  0  0  3  0  0  0  0  0  0
  -24.1350  -30.9550   26.0550 C   0  0  0  0  0  3  0  0  0  0  0  0
  -24.0350  -29.3800   25.2070 C   0  0  0  0  0  2  0  0  0  0  0  0
  -24.7140  -27.7690   24.9200 C   0  0  0  0  0  2  0  0  0  0  0  0
  -24.9600  -26.8390   23.4380 C   0  0  0  0  0  3  0  0  0  0  0  0
  -26.0100  -25.6110   22.9500 C   0  0  0  0  0  3  0  0  0  0  0  0
  -26.2340  -24.8940   21.5610 O   0  0  0  0  0  0  0  0  0  0  0  0
  -24.4930  -30.7150   22.2520 C   0  0  0  0  0  0  0  0  0  0  0  0
  -25.7440  -25.5190   20.4730 C   0  0  0  0  0  0  0  0  0  0  0  0
  -22.7770  -29.3430   21.0490 C   0  0  0  0  0  3  0  0  0  0  0  0
  -23.7710  -27.3290   19.8590 C   0  0  0  0  0  0  0  0  0  0  0  0
  -25.2730  -29.1930   20.5280 C   0  0  0  0  0  2  0  0  0  0  0  0
  -25.0550  -27.7600   20.1980 C   0  0  0  0  0  0  0  0  0  0  0  0
  -26.0900  -26.8560   20.3800 C   0  0  0  0  0  3  0  0  0  0  0  0
  -24.5390  -25.0440   19.9330 C   0  0  0  0  0  3  0  0  0  0  0  0
  -23.5270  -25.9660   19.6210 C   0  0  0  0  0  3  0  0  0  0  0  0
  -22.7110  -28.4030   19.8230 C   0  0  0  0  0  2  0  0  0  0  0  0
  -24.2080  -29.7180   21.3860 N   0  0  0  0  0  0  0  0  0  0  0  0
  -23.5320  -31.4380   22.5630 O   0  0  0  0  0  0  0  0  0  0  0  0
  -21.9120  -28.6490   22.1460 C   0  0  0  0  0  0  0  0  0  0  0  0
  -20.5910  -28.8120   22.2280 N   0  0  0  0  0  0  0  0  0  0  0  0
  -22.3570  -27.8210   22.9020 O   0  0  0  0  0  0  0  0  0  0  0  0
  -20.0930  -29.4190   21.5940 H   0  0  0  0  0  0  0  0  0  0  0  0
  -17.2230  -28.2180   23.2210 C   0  0  0  0  0  0  0  0  0  0  0  0
  -19.7770  -28.1400   23.2480 C   0  0  0  0  0  3  0  0  0  0  0  0
  -19.6250  -26.6120   23.0060 C   0  0  0  0  0  2  0  0  0  0  0  0
  -18.4110  -26.2530   22.1530 C   0  0  0  0  0  2  0  0  0  0  0  0
  -17.1400  -26.7510   22.8410 C   0  0  0  0  0  2  0  0  0  0  0  0
  -18.4620  -28.8700   23.4260 C   0  0  0  0  0  0  0  0  0  0  0  0
  -18.4880  -30.2390   23.7660 C   0  0  0  0  0  3  0  0  0  0  0  0
  -17.2910  -30.9640   23.8870 C   0  0  0  0  0  3  0  0  0  0  0  0
  -16.0590  -30.3180   23.6630 C   0  0  0  0  0  3  0  0  0  0  0  0
  -16.0260  -28.9470   23.3370 C   0  0  0  0  0  3  0  0  0  0  0  0
  -25.9430  -30.9330   22.9200 C   0  0  0  0  0  3  0  0  0  0  0  0
  -25.6380  -32.3290   23.4290 N   0  0  0  0  0  0  0  0  0  0  0  0
  -25.7860  -33.5810   22.9810 C   0  0  0  0  0  0  0  0  0  0  0  0
  -26.3170  -33.8260   21.9030 O   0  0  0  0  0  0  0  0  0  0  0  0
  -25.2690  -32.2470   24.3680 H   0  0  0  0  0  0  0  0  0  0  0  0
  -23.9520  -35.3040   23.4270 C   0  0  0  0  0  1  0  0  0  0  0  0
  -25.3070  -34.7440   23.8940 C   0  0  0  0  0  3  0  0  0  0  0  0
  -27.4840  -35.6090   24.6920 C   0  0  0  0  0  1  0  0  0  0  0  0
  -26.2510  -35.8790   23.9610 N   0  0  0  0  0  0  0  0  0  0  0  0
  -25.7870  -36.6750   24.3790 H   0  0  0  0  0  0  0  0  0  0  0  0
  -26.7870  -29.5640   23.8720 C   0  0  1  0  0  0  0  0  0  0  0  0
  -26.5270  -28.7110   25.3380 C   0  0  0  0  0  1  0  0  0  0  0  0
  -27.1190  -28.7310   22.6730 C   0  0  0  0  0  1  0  0  0  0  0  0
  -28.2690  -29.3600   24.4570 C   0  0  0  0  0  1  0  0  0  0  0  0
  -30.3530  -30.5770   23.2380 C   0  0  0  0  0  2  0  0  0  0  0  0
  -30.0370  -29.0720   22.3250 C   0  0  0  0  0  2  0  0  0  0  0  0
  -30.3980  -27.3700   22.5650 C   0  0  0  0  0  3  0  0  0  0  0  0
  -30.1280  -26.0140   21.4670 C   0  0  0  0  0  3  0  0  0  0  0  0
  -30.7550  -24.4170   21.3610 C   0  0  0  0  0  0  0  0  0  0  0  0
  -30.2880  -23.2450   20.6120 N   0  0  0  0  0  0  0  0  0  0  0  0
  -31.8110  -24.2740   21.9750 O   0  0  0  0  0  0  0  0  0  0  0  0
  -29.4050  -23.4230   20.1520 H   0  0  0  0  0  0  0  0  0  0  0  0
  -30.9000  -21.7540   20.2550 C   0  0  0  0  0  3  0  0  0  0  0  0
  -30.1420  -20.2110   19.7900 C   0  0  0  0  0  3  0  0  0  0  0  0
  -30.7950  -18.5740   19.5090 C   0  0  0  0  0  3  0  0  0  0  0  0
  -30.0690  -16.9390   19.4840 C   0  0  0  0  0  3  0  0  0  0  0  0
  -30.7030  -15.3380   19.2100 C   0  0  0  0  0  0  0  0  0  0  0  0
  -30.5470  -12.7850   18.6460 C   0  0  0  0  0  2  0  0  0  0  0  0
  -29.5120  -12.3790   17.5580 C   0  0  0  0  0  2  0  0  0  0  0  0
  -28.1320  -12.1270   18.1760 C   0  0  0  0  0  2  0  0  0  0  0  0
  -27.7490  -13.2510   19.1670 C   0  0  0  0  0  3  0  0  0  0  0  0
  -28.9040  -13.6400   20.1390 C   0  0  0  0  0  2  0  0  0  0  0  0
  -30.1020  -14.0460   19.3650 N   0  0  0  0  0  0  0  0  0  0  0  0
  -31.8200  -15.2700   18.6840 O   0  0  0  0  0  0  0  0  0  0  0  0
  -25.5410  -13.8740   20.3130 C   0  0  0  0  0  0  0  0  0  0  0  0
  -24.5100  -13.1420   20.8030 C   0  0  0  0  0  0  0  0  0  0  0  0
  -24.8800  -11.7640   20.6320 C   0  0  0  0  0  0  0  0  0  0  0  0
  -26.4940  -12.9730   19.8660 N   0  0  0  0  0  0  0  0  0  0  0  0
  -26.1070  -11.6890   20.1140 N   0  0  0  0  0  0  0  0  0  0  0  0
  -24.1130  -10.5340   20.8740 C   0  0  0  0  0  0  0  0  0  0  0  0
  -24.5600   -9.5460   21.7820 C   0  0  0  0  0  3  0  0  0  0  0  0
  -23.7940   -8.3860   22.0180 C   0  0  0  0  0  3  0  0  0  0  0  0
  -22.5610   -8.2000   21.3450 C   0  0  0  0  0  0  0  0  0  0  0  0
  -22.1300   -9.1720   20.4230 C   0  0  0  0  0  3  0  0  0  0  0  0
  -22.8980  -10.3230   20.1870 C   0  0  0  0  0  3  0  0  0  0  0  0
  -21.7640   -7.0920   21.4900 O   0  0  0  0  0  0  0  0  0  0  0  0
  -21.7040   -6.3960   22.6700 C   0  0  0  0  0  0  0  0  0  0  0  0
  -21.2860   -7.0040   23.8740 C   0  0  0  0  0  3  0  0  0  0  0  0
  -21.1740   -6.2360   25.0500 C   0  0  0  0  0  3  0  0  0  0  0  0
  -21.4690   -4.8600   25.0220 C   0  0  0  0  0  0  0  0  0  0  0  0
  -21.8820   -4.2510   23.8250 C   0  0  0  0  0  3  0  0  0  0  0  0
  -21.9960   -5.0160   22.6520 C   0  0  0  0  0  0  0  0  0  0  0  0
  -22.3720   -4.4200   21.4940 F   0  0  0  0  0  0  0  0  0  0  0  0
  -21.3530   -4.1180   26.1500 F   0  0  0  0  0  0  0  0  0  0  0  0
  -23.1990  -13.6630   21.3260 C   0  0  0  0  0  0  0  0  0  0  0  0
  -22.5980  -12.9810   22.2840 N   0  0  0  0  0  0  0  0  0  0  0  0
  -22.7360  -14.7300   20.9100 O   0  0  0  0  0  0  0  0  0  0  0  0
  -22.9930  -12.1200   22.6380 H   0  0  0  0  0  0  0  0  0  0  0  0
  -21.7280  -13.3190   22.6720 H   0  0  0  0  0  0  0  0  0  0  0  0
  -25.7560  -15.2510   20.1830 N   0  0  0  0  0  0  0  0  0  0  0  0
  -25.0580  -15.9300   20.4580 H   0  0  0  0  0  0  0  0  0  0  0  0
  -26.5740  -15.6660   19.7610 H   0  0  0  0  0  0  0  0  0  0  0  0
  1  2  1  0
  2  3  1  0
  3  4  1  0
  5  4  2  0
  6  5  1  0
  7  6  1  0
  8  7  1  0
  9  8  2  0
 10  9  1  0
 11 22  2  0
 12 10  1  0
 13 21  1  0
 13 23  1  0
 14 16  1  0
 15 21  1  0
 16 17  2  0
 16 15  1  0
 17 12  1  0
 18 12  2  0
 19 14  2  0
 19 18  1  0
 20 14  1  0
 20 13  1  0
 21 11  1  0
 23 24  1  0
 23 25  2  0
 26 24  1  0
 27 36  2  0
 27 32  1  0
 28 24  1  0
 28 32  1  0
 29 28  1  0
 30 31  1  0
 30 29  1  0
 31 27  1  0
 32 33  2  0
 33 34  1  0
 35 34  2  0
 36 35  1  0
 37 11  1  0
 37 38  1  0
 37 47  1  0
 38 41  1  0
 39 38  1  0
 39 43  1  0
 40 39  2  0
 43 42  1  0
 43 45  1  0
 45 46  1  0
 45 44  1  0
 47 50  1  1
 47 48  1  0
 49 47  1  0
 51  1  1  0
 52 53  1  0
 52 51  1  0
 54 53  2  0
 55 54  1  0
 55 57  2  0
 56 55  1  0
 58 56  1  0
 59 56  1  0
 60 59  2  0
 61 60  1  0
 62 61  2  0
 63 69  1  0
 63 62  1  0
 64 69  1  0
 65 66  1  0
 65 64  1  0
 67 66  1  0
 67 74  1  0
 67 68  1  0
 69 68  1  0
 70 63  2  0
 71 72  2  0
 72 91  1  0
 73 72  1  0
 73 76  1  0
 74 75  1  0
 74 71  1  0
 75 73  2  0
 76 77  1  0
 77 78  2  0
 79 82  1  0
 79 78  1  0
 80 79  2  0
 81 80  1  0
 81 76  2  0
 82 83  1  0
 83 84  1  0
 84 85  2  0
 86 85  1  0
 86 90  1  0
 87 86  2  0
 88 83  2  0
 88 87  1  0
 89 88  1  0
 91 92  1  0
 92 94  1  0
 92 95  1  0
 93 91  2  0
 96 71  1  0
 96 97  1  0
 98 96  1  0
M  ISO  4   9 101  10 101  62 100  63 100
M  END
>  <TORSDO>  (47) 
F 33

>  <SCORE>  (47) 
-10.706

>  <name>  (47) 
46

>  <ligand_id>  (47) 
46

>  <original_smiles>  (47) 
[H]c1c([H])c([H])c2c(c1[H])C([H])([H])C([H])([H])C([H])([H])C2([H])N([H])C(=O)C1([H])N(C(=O)C([H])(N([H])C(=O)C([H])(N([H])C([H])([H])[H])C([H])([H])[H])C(C([H])([H])[H])(C([H])([H])[H])C([H])([H])[H])C([H])([H])c2c([H])c(OC([H])([H])C([H])([H])C([H])([H])C([H])([H])C([H])([H])C([H])([H])C([H])([H])C([H])([H])C([H])([H])C([H])([H])C([H])([H])C([H])([H])C([H])([H])C(=O)N([H])C([H])([H])C([H])([H])C([H])([H])C([H])([H])C(=O)N3C([H])([H])C([H])([H])C([H])([H])C([H])(n4nc(-c5c([H])c([H])c(Oc6c([H])c([H])c(F)c([H])c6F)c([H])c5[H])c(C(=O)N([H])[H])c4N([H])[H])C3([H])[H])c([H])c([H])c2C1([H])[H]

>  <smiles>  (47) 
[H]c1c([H])c([H])c2c(c1[H])C([H])([H])C([H])([H])C([H])([H])C2([H])N([H])C(=O)C1([H])N(C(=O)C([H])(N([H])C(=O)C([H])(N([H])C([H])([H])[H])C([H])([H])[H])C(C([H])([H])[H])(C([H])([H])[H])C([H])([H])[H])C([H])([H])c2c([H])c(OC([H])([H])C([H])([H])C([H])([H])C([H])([H])C([H])([H])C([H])([H])C([H])([H])C([H])([H])C([H])([H])C([H])([H])C([H])([H])C([H])([H])C([H])([H])C(=O)N([H])C([H])([H])C([H])([H])C([H])([H])C([H])([H])C(=O)N3C([H])([H])C([H])([H])C([H])([H])C([H])(n4nc(-c5c([H])c([H])c(Oc6c([H])c([H])c(F)c([H])c6F)c([H])c5[H])c(C(=O)N([H])[H])c4N([H])[H])C3([H])[H])c([H])c([H])c2C1([H])[H]

$$$$
47:0:0
     RDKit          3D

 99107  0  0  1  0  0  0  0  0999 V2000
  -31.2060  -22.9160   13.5040 C   0  0  0  0  0  3  0  0  0  0  0  0
  -31.2890  -23.5570   14.7540 C   0  0  0  0  0  3  0  0  0  0  0  0
  -30.9760  -21.5280   13.4380 C   0  0  0  0  0  3  0  0  0  0  0  0
  -30.9550  -21.4150   15.8700 C   0  0  0  0  0  3  0  0  0  0  0  0
  -31.1480  -22.8110   15.9420 C   0  0  0  0  0  0  0  0  0  0  0  0
  -30.8500  -20.7650   14.6180 C   0  0  0  0  0  0  0  0  0  0  0  0
  -31.3750  -18.4520   15.3320 C   0  0  0  0  0  1  0  0  0  0  0  0
  -30.5920  -19.3860   14.5260 N   0  0  0  0  0  0  0  0  0  0  0  0
  -29.3540  -18.9720   13.8650 C   0  0  0  0  0  2  0  0  0  0  0  0
  -28.0650  -19.2720   14.6680 C   0  0  0  0  0  2  0  0  0  0  0  0
  -27.7410  -18.2690   15.7930 C   0  0  0  0  0  2  0  0  0  0  0  0
  -28.4040  -18.6070   17.1400 C   0  0  0  0  0  2  0  0  0  0  0  0
  -28.4620  -17.4070   18.0950 C   0  0  0  0  0  2  0  0  0  0  0  0
  -29.4800  -17.6130   19.2260 C   0  0  0  0  0  2  0  0  0  0  0  0
  -29.6570  -16.3430   20.0630 C   0  0  0  0  0  2  0  0  0  0  0  0
  -30.8700  -16.3770   21.0080 C   0  0  0  0  0  2  0  0  0  0  0  0
  -31.1220  -15.0320   21.7280 C   0  0  0  0  0  2  0  0  0  0  0  0
  -31.5430  -13.9040   20.7610 C   0  0  0  0  0  0  0  0  0  0  0  0
  -31.0240  -11.9150   19.3920 C   0  0  0  0  0  2  0  0  0  0  0  0
  -30.1330  -12.3000   18.1930 C   0  0  0  0  0  2  0  0  0  0  0  0
  -28.6440  -12.2680   18.5840 C   0  0  0  0  0  2  0  0  0  0  0  0
  -28.3630  -13.0550   19.8890 C   0  0  0  0  0  3  0  0  0  0  0  0
  -29.3580  -12.6430   20.9970 C   0  0  0  0  0  2  0  0  0  0  0  0
  -30.7270  -12.8470   20.4950 N   0  0  0  0  0  0  0  0  0  0  0  0
  -32.6340  -14.0420   20.2010 O   0  0  0  0  0  0  0  0  0  0  0  0
  -26.0150  -13.8830   20.5500 C   0  0  0  0  0  0  0  0  0  0  0  0
  -24.8660  -13.2100   20.8670 C   0  0  0  0  0  0  0  0  0  0  0  0
  -25.1940  -11.8210   20.8020 C   0  0  0  0  0  0  0  0  0  0  0  0
  -26.9760  -12.9080   20.3210 N   0  0  0  0  0  0  0  0  0  0  0  0
  -26.4800  -11.6620   20.5260 N   0  0  0  0  0  0  0  0  0  0  0  0
  -24.3440  -10.6320   20.9330 C   0  0  0  0  0  0  0  0  0  0  0  0
  -24.6660   -9.5890   21.8280 C   0  0  0  0  0  3  0  0  0  0  0  0
  -23.8240   -8.4610   21.9440 C   0  0  0  0  0  3  0  0  0  0  0  0
  -22.6470   -8.3720   21.1650 C   0  0  0  0  0  0  0  0  0  0  0  0
  -22.3430   -9.4030   20.2590 C   0  0  0  0  0  3  0  0  0  0  0  0
  -23.1840  -10.5210   20.1390 C   0  0  0  0  0  3  0  0  0  0  0  0
  -21.7820   -7.3060   21.1960 O   0  0  0  0  0  0  0  0  0  0  0  0
  -21.6280   -6.5370   22.3210 C   0  0  0  0  0  0  0  0  0  0  0  0
  -21.2490   -7.0970   23.5610 C   0  0  0  0  0  3  0  0  0  0  0  0
  -21.0350   -6.2610   24.6750 C   0  0  0  0  0  3  0  0  0  0  0  0
  -21.1910   -4.8680   24.5490 C   0  0  0  0  0  0  0  0  0  0  0  0
  -21.5640   -4.3070   23.3150 C   0  0  0  0  0  3  0  0  0  0  0  0
  -21.7790   -5.1400   22.2030 C   0  0  0  0  0  0  0  0  0  0  0  0
  -22.1190   -4.5940   21.0110 F   0  0  0  0  0  0  0  0  0  0  0  0
  -20.9780   -4.0640   25.6180 F   0  0  0  0  0  0  0  0  0  0  0  0
  -23.5150  -13.8140   21.1210 C   0  0  0  0  0  0  0  0  0  0  0  0
  -22.7030  -13.1740   21.9540 N   0  0  0  0  0  0  0  0  0  0  0  0
  -23.1900  -14.8890   20.6170 O   0  0  0  0  0  0  0  0  0  0  0  0
  -22.9740  -12.3010   22.3840 H   0  0  0  0  0  0  0  0  0  0  0  0
  -21.7950  -13.5620   22.1650 H   0  0  0  0  0  0  0  0  0  0  0  0
  -26.3140  -15.2360   20.4210 N   0  0  0  0  0  0  0  0  0  0  0  0
  -25.6060  -15.9550   20.5140 H   0  0  0  0  0  0  0  0  0  0  0  0
  -27.2090  -15.5980   20.1220 H   0  0  0  0  0  0  0  0  0  0  0  0
  -31.1450  -23.5180   17.2860 C   0  0  0  0  0  2  0  0  0  0  0  0
  -29.9000  -24.4140   17.4240 C   0  0  0  0  0  2  0  0  0  0  0  0
  -29.7670  -25.1460   18.7600 C   0  0  0  0  0  0  0  0  0  0  0  0
  -30.3010  -24.7290   19.7930 O   0  0  0  0  0  0  0  0  0  0  0  0
  -28.9150  -26.4180   18.7330 C   0  0  0  0  0  2  0  0  0  0  0  0
  -28.4730  -26.7790   20.0440 O   0  0  0  0  0  0  0  0  0  0  0  0
  -24.5170  -31.7920   23.2010 C   0  0  0  0  0  0  0  0  0  0  0  0
  -27.2840  -27.4680   20.0700 C   0  0  0  0  0  0  0  0  0  0  0  0
  -23.3670  -30.4260   21.4870 C   0  0  0  0  0  3  0  0  0  0  0  0
  -24.8710  -28.9290   20.0750 C   0  0  0  0  0  0  0  0  0  0  0  0
  -25.8940  -30.8030   21.3760 C   0  0  0  0  0  2  0  0  0  0  0  0
  -26.0040  -29.4480   20.7120 C   0  0  0  0  0  0  0  0  0  0  0  0
  -27.2110  -28.7170   20.7210 C   0  0  0  0  0  3  0  0  0  0  0  0
  -26.1260  -26.9420   19.4550 C   0  0  0  0  0  3  0  0  0  0  0  0
  -24.9220  -27.6690   19.4520 C   0  0  0  0  0  3  0  0  0  0  0  0
  -23.6210  -29.7800   20.1000 C   0  0  0  0  0  2  0  0  0  0  0  0
  -24.6090  -31.0210   22.0800 N   0  0  0  0  0  0  0  0  0  0  0  0
  -23.4190  -32.0470   23.7130 O   0  0  0  0  0  0  0  0  0  0  0  0
  -22.6920  -29.3800   22.4010 C   0  0  0  0  0  0  0  0  0  0  0  0
  -21.3700  -29.2120   22.2420 N   0  0  0  0  0  0  0  0  0  0  0  0
  -23.3570  -28.7220   23.2070 O   0  0  0  0  0  0  0  0  0  0  0  0
  -20.8970  -29.7950   21.5660 H   0  0  0  0  0  0  0  0  0  0  0  0
  -17.9770  -28.0370   22.6360 C   0  0  0  0  0  0  0  0  0  0  0  0
  -20.5320  -28.2560   22.9640 C   0  0  0  0  0  3  0  0  0  0  0  0
  -20.6300  -26.8450   22.3390 C   0  0  0  0  0  2  0  0  0  0  0  0
  -19.5430  -26.5700   21.2950 C   0  0  0  0  0  2  0  0  0  0  0  0
  -18.1520  -26.7090   21.9190 C   0  0  0  0  0  2  0  0  0  0  0  0
  -19.0960  -28.7710   23.1140 C   0  0  0  0  0  0  0  0  0  0  0  0
  -18.8790  -30.0160   23.7430 C   0  0  0  0  0  3  0  0  0  0  0  0
  -17.5780  -30.5270   23.9000 C   0  0  0  0  0  3  0  0  0  0  0  0
  -16.4730  -29.7880   23.4410 C   0  0  0  0  0  3  0  0  0  0  0  0
  -16.6740  -28.5460   22.8160 C   0  0  0  0  0  3  0  0  0  0  0  0
  -25.7820  -32.4100   23.8740 C   0  0  0  0  0  3  0  0  0  0  0  0
  -25.4590  -33.7960   24.2340 N   0  0  0  0  0  0  0  0  0  0  0  0
  -25.8090  -34.8700   23.5130 C   0  0  0  0  0  0  0  0  0  0  0  0
  -26.5110  -34.7960   22.5000 O   0  0  0  0  0  0  0  0  0  0  0  0
  -24.8400  -33.9270   25.0210 H   0  0  0  0  0  0  0  0  0  0  0  0
  -24.0810  -36.6620   23.1540 C   0  0  0  0  0  1  0  0  0  0  0  0
  -25.3000  -36.2420   23.9910 C   0  0  0  0  0  3  0  0  0  0  0  0
  -27.4070  -37.1130   24.9040 C   0  0  0  0  0  1  0  0  0  0  0  0
  -26.3310  -37.3030   23.9360 N   0  0  0  0  0  0  0  0  0  0  0  0
  -25.9160  -38.2170   24.0980 H   0  0  0  0  0  0  0  0  0  0  0  0
  -26.2700  -31.6030   25.1400 C   0  0  1  0  0  0  0  0  0  0  0  0
  -25.1500  -31.3290   26.1710 C   0  0  0  0  0  1  0  0  0  0  0  0
  -26.8690  -30.2410   24.7200 C   0  0  0  0  0  1  0  0  0  0  0  0
  -27.3990  -32.3810   25.8560 C   0  0  0  0  0  1  0  0  0  0  0  0
  1  2  1  0
  2  5  2  0
  3  1  2  0
  3  6  1  0
  4  5  1  0
  5 54  1  0
  6  4  2  0
  8  6  1  0
  8  7  1  0
  9  8  1  0
  9 10  1  0
 10 11  1  0
 11 12  1  0
 12 13  1  0
 13 14  1  0
 14 15  1  0
 15 16  1  0
 16 17  1  0
 18 17  1  0
 19 24  1  0
 20 21  1  0
 20 19  1  0
 22 21  1  0
 22 29  1  0
 22 23  1  0
 24 18  1  0
 24 23  1  0
 25 18  2  0
 26 27  2  0
 27 46  1  0
 28 27  1  0
 28 31  1  0
 29 30  1  0
 29 26  1  0
 30 28  2  0
 31 32  1  0
 32 33  2  0
 34 37  1  0
 34 33  1  0
 35 34  2  0
 36 35  1  0
 36 31  2  0
 37 38  1  0
 38 39  1  0
 39 40  2  0
 41 40  1  0
 41 45  1  0
 42 41  2  0
 43 38  2  0
 43 42  1  0
 44 43  1  0
 46 47  1  0
 47 50  1  0
 47 49  1  0
 48 46  2  0
 51 52  1  0
 51 26  1  0
 53 51  1  0
 54 55  1  0
 55 56  1  0
 56 57  2  0
 58 56  1  0
 58 59  1  0
 59 61  1  0
 60 71  2  0
 61 66  1  0
 62 70  1  0
 62 72  1  0
 63 69  1  0
 63 65  1  0
 64 70  1  0
 65 66  2  0
 65 64  1  0
 67 61  2  0
 68 67  1  0
 68 63  2  0
 69 62  1  0
 70 60  1  0
 72 74  2  0
 73 72  1  0
 75 73  1  0
 76 85  2  0
 76 81  1  0
 77 73  1  0
 77 81  1  0
 78 77  1  0
 79 80  1  0
 79 78  1  0
 80 76  1  0
 81 82  2  0
 82 83  1  0
 84 83  2  0
 85 84  1  0
 86 60  1  0
 86 87  1  0
 86 96  1  0
 87 90  1  0
 88 92  1  0
 88 87  1  0
 89 88  2  0
 92 91  1  0
 94 92  1  0
 94 95  1  0
 94 93  1  0
 96 99  1  1
 96 97  1  0
 98 96  1  0
M  ISO  4  17 100  18 100  58 101  59 101
M  END
>  <TORSDO>  (48) 
F 30

>  <SCORE>  (48) 
-9.375

>  <name>  (48) 
47

>  <ligand_id>  (48) 
47

>  <original_smiles>  (48) 
[H]c1c([H])c(N(C([H])([H])[H])C([H])([H])C([H])([H])C([H])([H])C([H])([H])C([H])([H])C([H])([H])C([H])([H])C([H])([H])C([H])([H])C(=O)N2C([H])([H])C([H])([H])C([H])([H])C([H])(n3nc(-c4c([H])c([H])c(Oc5c([H])c([H])c(F)c([H])c5F)c([H])c4[H])c(C(=O)N([H])[H])c3N([H])[H])C2([H])[H])c([H])c(C([H])([H])C([H])([H])C(=O)C([H])([H])Oc2c([H])c([H])c3c(c2[H])C([H])([H])N(C(=O)C([H])(N([H])C(=O)C([H])(N([H])C([H])([H])[H])C([H])([H])[H])C(C([H])([H])[H])(C([H])([H])[H])C([H])([H])[H])C([H])(C(=O)N([H])C2([H])c4c([H])c([H])c([H])c([H])c4C([H])([H])C([H])([H])C2([H])[H])C3([H])[H])c1[H]

>  <smiles>  (48) 
[H]c1c([H])c(N(C([H])([H])[H])C([H])([H])C([H])([H])C([H])([H])C([H])([H])C([H])([H])C([H])([H])C([H])([H])C([H])([H])C([H])([H])C(=O)N2C([H])([H])C([H])([H])C([H])([H])C([H])(n3nc(-c4c([H])c([H])c(Oc5c([H])c([H])c(F)c([H])c5F)c([H])c4[H])c(C(=O)N([H])[H])c3N([H])[H])C2([H])[H])c([H])c(C([H])([H])C([H])([H])C(=O)C([H])([H])Oc2c([H])c([H])c3c(c2[H])C([H])([H])N(C(=O)C([H])(N([H])C(=O)C([H])(N([H])C([H])([H])[H])C([H])([H])[H])C(C([H])([H])[H])(C([H])([H])[H])C([H])([H])[H])C([H])(C(=O)N([H])C2([H])c4c([H])c([H])c([H])c([H])c4C([H])([H])C([H])([H])C2([H])[H])C3([H])[H])c1[H]

$$$$
48:0:0
     RDKit          3D

 94103  0  0  1  0  0  0  0  0999 V2000
  -27.5750  -24.6900   17.7170 C   0  0  0  0  0  3  0  0  0  0  0  0
  -27.2280  -25.8330   16.9640 C   0  0  0  0  0  3  0  0  0  0  0  0
  -29.4620  -25.8990   18.6720 C   0  0  0  0  0  3  0  0  0  0  0  0
  -28.6910  -24.7220   18.5820 C   0  0  0  0  0  0  0  0  0  0  0  0
  -27.9970  -27.0140   17.0650 C   0  0  0  0  0  0  0  0  0  0  0  0
  -29.1240  -27.0360   17.9160 C   0  0  0  0  0  0  0  0  0  0  0  0
  -29.8800  -28.1540   18.0210 F   0  0  0  0  0  0  0  0  0  0  0  0
  -29.0920  -23.5020   19.4000 C   0  0  0  0  0  2  0  0  0  0  0  0
  -28.0440  -23.1050   20.4630 C   0  0  0  0  0  2  0  0  0  0  0  0
  -28.6060  -22.2740   21.4840 O   0  0  0  0  0  0  0  0  0  0  0  0
  -34.9570  -19.4320   20.1100 C   0  0  0  0  0  0  0  0  0  0  0  0
  -29.2840  -21.1430   21.0930 C   0  0  0  0  0  0  0  0  0  0  0  0
  -33.0050  -18.0650   19.4440 C   0  0  0  0  0  3  0  0  0  0  0  0
  -30.7490  -18.8530   20.3290 C   0  0  0  0  0  0  0  0  0  0  0  0
  -32.8430  -19.7210   21.3890 C   0  0  0  0  0  2  0  0  0  0  0  0
  -31.3740  -19.8730   21.0560 C   0  0  0  0  0  0  0  0  0  0  0  0
  -30.6430  -21.0140   21.4500 C   0  0  0  0  0  3  0  0  0  0  0  0
  -28.6630  -20.1050   20.3630 C   0  0  0  0  0  3  0  0  0  0  0  0
  -29.3910  -18.9640   19.9800 C   0  0  0  0  0  3  0  0  0  0  0  0
  -31.5990  -17.6600   19.9560 C   0  0  0  0  0  2  0  0  0  0  0  0
  -33.6470  -19.1130   20.3030 N   0  0  0  0  0  0  0  0  0  0  0  0
  -35.6430  -18.8420   19.2640 O   0  0  0  0  0  0  0  0  0  0  0  0
  -32.8940  -18.4780   17.9610 C   0  0  0  0  0  0  0  0  0  0  0  0
  -33.4290  -17.6320   17.0640 N   0  0  0  0  0  0  0  0  0  0  0  0
  -32.3180  -19.5200   17.6350 O   0  0  0  0  0  0  0  0  0  0  0  0
  -33.8870  -16.8040   17.4140 H   0  0  0  0  0  0  0  0  0  0  0  0
  -35.0620  -16.6200   14.0060 C   0  0  0  0  0  0  0  0  0  0  0  0
  -33.4120  -17.7940   15.6120 C   0  0  0  0  0  3  0  0  0  0  0  0
  -32.3170  -16.9140   14.9680 C   0  0  0  0  0  2  0  0  0  0  0  0
  -32.8310  -15.5420   14.5190 C   0  0  0  0  0  2  0  0  0  0  0  0
  -33.9650  -15.6990   13.5010 C   0  0  0  0  0  2  0  0  0  0  0  0
  -34.8070  -17.5930   15.0080 C   0  0  0  0  0  0  0  0  0  0  0  0
  -35.8690  -18.3990   15.4700 C   0  0  0  0  0  3  0  0  0  0  0  0
  -37.1660  -18.2490   14.9450 C   0  0  0  0  0  3  0  0  0  0  0  0
  -37.4110  -17.2970   13.9400 C   0  0  0  0  0  3  0  0  0  0  0  0
  -36.3610  -16.4870   13.4700 C   0  0  0  0  0  3  0  0  0  0  0  0
  -35.6640  -20.5360   20.9600 C   0  0  0  0  0  3  0  0  0  0  0  0
  -35.9030  -21.8770   20.1640 C   0  0  1  0  0  0  0  0  0  0  0  0
  -37.0930  -21.8100   19.1780 C   0  0  0  0  0  1  0  0  0  0  0  0
  -34.6410  -22.2690   19.3610 C   0  0  0  0  0  1  0  0  0  0  0  0
  -36.1740  -23.0360   21.1540 C   0  0  0  0  0  1  0  0  0  0  0  0
  -36.9370  -19.9780   21.4320 N   0  0  0  0  0  0  0  0  0  0  0  0
  -37.0970  -19.3150   22.5840 C   0  0  0  0  0  0  0  0  0  0  0  0
  -36.1880  -19.1700   23.4070 O   0  0  0  0  0  0  0  0  0  0  0  0
  -37.7120  -20.0130   20.7860 H   0  0  0  0  0  0  0  0  0  0  0  0
  -38.3820  -17.1880   22.9600 C   0  0  0  0  0  1  0  0  0  0  0  0
  -38.4870  -18.7180   22.8730 C   0  0  0  0  0  3  0  0  0  0  0  0
  -39.6510  -20.5960   23.9450 C   0  0  0  0  0  1  0  0  0  0  0  0
  -39.1110  -19.2480   24.1060 N   0  0  0  0  0  0  0  0  0  0  0  0
  -39.8640  -18.6410   24.4180 H   0  0  0  0  0  0  0  0  0  0  0  0
  -27.6150  -28.2560   16.2730 C   0  0  0  0  0  2  0  0  0  0  0  0
  -27.1000  -27.9040   14.8650 C   0  0  0  0  0  2  0  0  0  0  0  0
  -27.2980  -28.0310    9.9680 C   0  0  0  0  0  0  0  0  0  0  0  0
  -26.8250  -27.2270    7.6890 C   0  0  0  0  0  2  0  0  0  0  0  0
  -25.5490  -26.3710    7.5870 C   0  0  0  0  0  2  0  0  0  0  0  0
  -25.8910  -24.8910    7.8020 C   0  0  0  0  0  2  0  0  0  0  0  0
  -26.6910  -24.6810    9.1040 C   0  0  0  0  0  3  0  0  0  0  0  0
  -27.8720  -25.6610    9.2300 C   0  0  0  0  0  2  0  0  0  0  0  0
  -27.4540  -27.0610    9.0180 N   0  0  0  0  0  0  0  0  0  0  0  0
  -26.4000  -28.8730    9.8520 O   0  0  0  0  0  0  0  0  0  0  0  0
  -27.5410  -29.3930   12.8690 C   0  0  0  0  0  2  0  0  0  0  0  0
  -28.4260  -26.9750   12.8540 C   0  0  0  0  0  2  0  0  0  0  0  0
  -28.3280  -29.5930   11.5560 C   0  0  0  0  0  2  0  0  0  0  0  0
  -29.1960  -27.3990   11.5840 C   0  0  0  0  0  2  0  0  0  0  0  0
  -28.0860  -28.2180   13.7210 C   0  0  0  0  0  3  0  0  0  0  0  0
  -28.3360  -28.3140   10.8190 N   0  0  0  0  0  0  0  0  0  0  0  0
  -26.4180  -22.1520    9.5210 C   0  0  0  0  0  0  0  0  0  0  0  0
  -27.3110  -21.1140    9.4750 C   0  0  0  0  0  0  0  0  0  0  0  0
  -28.5780  -21.6990    9.1690 C   0  0  0  0  0  0  0  0  0  0  0  0
  -27.1490  -23.2960    9.2420 N   0  0  0  0  0  0  0  0  0  0  0  0
  -28.4700  -23.0190    9.0900 N   0  0  0  0  0  0  0  0  0  0  0  0
  -29.8760  -21.0730    8.8840 C   0  0  0  0  0  0  0  0  0  0  0  0
  -30.9790  -21.2260    9.7530 C   0  0  0  0  0  3  0  0  0  0  0  0
  -32.2110  -20.6000    9.4640 C   0  0  0  0  0  3  0  0  0  0  0  0
  -32.3500  -19.8110    8.2980 C   0  0  0  0  0  0  0  0  0  0  0  0
  -31.2570  -19.6800    7.4240 C   0  0  0  0  0  3  0  0  0  0  0  0
  -30.0320  -20.3070    7.7110 C   0  0  0  0  0  3  0  0  0  0  0  0
  -33.5170  -19.1890    7.9210 O   0  0  0  0  0  0  0  0  0  0  0  0
  -34.0220  -18.1230    8.6210 C   0  0  0  0  0  0  0  0  0  0  0  0
  -33.3070  -16.9120    8.7540 C   0  0  0  0  0  3  0  0  0  0  0  0
  -33.8930  -15.8180    9.4230 C   0  0  0  0  0  3  0  0  0  0  0  0
  -35.1930  -15.9300    9.9510 C   0  0  0  0  0  0  0  0  0  0  0  0
  -35.9090  -17.1330    9.8140 C   0  0  0  0  0  3  0  0  0  0  0  0
  -35.3250  -18.2250    9.1490 C   0  0  0  0  0  0  0  0  0  0  0  0
  -36.0260  -19.3750    9.0020 F   0  0  0  0  0  0  0  0  0  0  0  0
  -35.7600  -14.8770   10.5860 F   0  0  0  0  0  0  0  0  0  0  0  0
  -26.9960  -19.6520    9.6110 C   0  0  0  0  0  0  0  0  0  0  0  0
  -27.8100  -18.9140   10.3570 N   0  0  0  0  0  0  0  0  0  0  0  0
  -25.9920  -19.1650    9.0910 O   0  0  0  0  0  0  0  0  0  0  0  0
  -28.6250  -19.3160   10.7940 H   0  0  0  0  0  0  0  0  0  0  0  0
  -27.6160  -17.9320   10.4910 H   0  0  0  0  0  0  0  0  0  0  0  0
  -25.0480  -22.2180    9.7530 N   0  0  0  0  0  0  0  0  0  0  0  0
  -24.4760  -21.3950    9.9040 H   0  0  0  0  0  0  0  0  0  0  0  0
  -24.5070  -23.0740    9.7240 H   0  0  0  0  0  0  0  0  0  0  0  0
  1  4  1  0
  2  5  1  0
  2  1  2  0
  4  3  2  0
  4  8  1  0
  5  6  2  0
  6  7  1  0
  6  3  1  0
  8  9  1  0
  9 10  1  0
 11 21  1  0
 12 17  1  0
 12 10  1  0
 13 23  1  0
 13 20  1  0
 13 21  1  0
 14 16  1  0
 16 15  1  0
 16 17  2  0
 18 12  2  0
 19 14  2  0
 19 18  1  0
 20 14  1  0
 21 15  1  0
 22 11  2  0
 24 26  1  0
 24 23  1  0
 25 23  2  0
 27 32  1  0
 28 24  1  0
 29 28  1  0
 30 29  1  0
 31 27  1  0
 31 30  1  0
 32 33  2  0
 32 28  1  0
 34 33  1  0
 35 34  2  0
 36 35  1  0
 36 27  2  0
 37 11  1  0
 37 42  1  0
 38 37  1  0
 38 41  1  1
 39 38  1  0
 40 38  1  0
 42 43  1  0
 43 47  1  0
 43 44  2  0
 45 42  1  0
 47 46  1  0
 47 49  1  0
 48 49  1  0
 49 50  1  0
 51  5  1  0
 52 51  1  0
 53 66  1  0
 54 59  1  0
 55 54  1  0
 55 56  1  0
 57 56  1  0
 57 58  1  0
 57 70  1  0
 59 58  1  0
 59 53  1  0
 60 53  2  0
 61 65  1  0
 62 65  1  0
 63 61  1  0
 64 62  1  0
 65 52  1  0
 66 63  1  0
 66 64  1  0
 67 92  1  0
 68 67  2  0
 68 87  1  0
 69 68  1  0
 70 67  1  0
 71 69  2  0
 71 70  1  0
 72 69  1  0
 72 73  1  0
 74 73  2  0
 75 74  1  0
 76 77  1  0
 76 75  2  0
 77 72  2  0
 78 75  1  0
 78 79  1  0
 79 80  2  0
 79 84  1  0
 80 81  1  0
 81 82  2  0
 82 86  1  0
 83 82  1  0
 84 83  2  0
 85 84  1  0
 87 88  1  0
 88 91  1  0
 88 90  1  0
 89 87  2  0
 92 93  1  0
 94 92  1  0
M  ISO  4   9 101  10 101  53 100  66 100
M  END
>  <TORSDO>  (49) 
F 20

>  <SCORE>  (49) 
-4.766

>  <name>  (49) 
48

>  <ligand_id>  (49) 
48

>  <original_smiles>  (49) 
[H]c1c([H])c([H])c2c(c1[H])C([H])([H])C([H])([H])C([H])([H])C2([H])N([H])C(=O)C1([H])N(C(=O)C([H])(N([H])C(=O)C([H])(N([H])C([H])([H])[H])C([H])([H])[H])C(C([H])([H])[H])(C([H])([H])[H])C([H])([H])[H])C([H])([H])c2c([H])c(OC([H])([H])C([H])([H])c3c([H])c([H])c(C([H])([H])C([H])([H])C4([H])C([H])([H])C([H])([H])N(C(=O)N5C([H])([H])C([H])([H])C([H])([H])C([H])(n6nc(-c7c([H])c([H])c(Oc8c([H])c([H])c(F)c([H])c8F)c([H])c7[H])c(C(=O)N([H])[H])c6N([H])[H])C5([H])[H])C([H])([H])C4([H])[H])c(F)c3[H])c([H])c([H])c2C1([H])[H]

>  <smiles>  (49) 
[H]c1c([H])c([H])c2c(c1[H])C([H])([H])C([H])([H])C([H])([H])C2([H])N([H])C(=O)C1([H])N(C(=O)C([H])(N([H])C(=O)C([H])(N([H])C([H])([H])[H])C([H])([H])[H])C(C([H])([H])[H])(C([H])([H])[H])C([H])([H])[H])C([H])([H])c2c([H])c(OC([H])([H])C([H])([H])c3c([H])c([H])c(C([H])([H])C([H])([H])C4([H])C([H])([H])C([H])([H])N(C(=O)N5C([H])([H])C([H])([H])C([H])([H])C([H])(n6nc(-c7c([H])c([H])c(Oc8c([H])c([H])c(F)c([H])c8F)c([H])c7[H])c(C(=O)N([H])[H])c6N([H])[H])C5([H])[H])C([H])([H])C4([H])[H])c(F)c3[H])c([H])c([H])c2C1([H])[H]

$$$$
49:0:0
     RDKit          3D

 95105  0  0  1  0  0  0  0  0999 V2000
  -30.7640  -14.5250   20.5130 C   0  0  0  0  0  0  0  0  0  0  0  0
  -30.4570  -12.3520   19.3490 C   0  0  0  0  0  2  0  0  0  0  0  0
  -29.5350  -12.4830   18.1180 C   0  0  0  0  0  2  0  0  0  0  0  0
  -28.0570  -12.3240   18.5210 C   0  0  0  0  0  2  0  0  0  0  0  0
  -27.6910  -13.2040   19.7350 C   0  0  0  0  0  3  0  0  0  0  0  0
  -28.7280  -12.9800   20.8770 C   0  0  0  0  0  2  0  0  0  0  0  0
  -30.0470  -13.3610   20.3540 N   0  0  0  0  0  0  0  0  0  0  0  0
  -31.8910  -14.6150   20.0150 O   0  0  0  0  0  0  0  0  0  0  0  0
  -27.4130  -21.0860   18.7830 C   0  0  0  0  0  3  0  0  0  0  0  0
  -27.5790  -19.7050   18.9750 C   0  0  0  0  0  3  0  0  0  0  0  0
  -29.6650  -21.5170   19.6650 C   0  0  0  0  0  3  0  0  0  0  0  0
  -28.4400  -22.0040   19.1250 C   0  0  0  0  0  0  0  0  0  0  0  0
  -28.8000  -19.2470   19.4970 C   0  0  0  0  0  0  0  0  0  0  0  0
  -29.8210  -20.1230   19.8340 C   0  0  0  0  0  0  0  0  0  0  0  0
  -31.0190  -19.3730   20.3740 C   0  0  0  0  0  2  0  0  0  0  0  0
  -28.3870  -17.3520   21.0230 C   0  0  0  0  0  2  0  0  0  0  0  0
  -28.8370  -15.9550   21.5030 C   0  0  0  0  0  2  0  0  0  0  0  0
  -31.0480  -16.8790   21.2720 C   0  0  0  0  0  2  0  0  0  0  0  0
  -30.6800  -17.8690   20.1230 C   0  0  0  0  0  3  0  0  0  0  0  0
  -29.1580  -17.8160   19.7720 C   0  0  2  0  0  0  0  0  0  0  0  0
  -28.8710  -16.9460   18.5270 C   0  0  0  0  0  1  0  0  0  0  0  0
  -30.2420  -15.6310   21.1540 N   0  0  0  0  0  0  0  0  0  0  0  0
  -25.2920  -13.8920   20.3790 C   0  0  0  0  0  0  0  0  0  0  0  0
  -24.2030  -13.1500   20.7410 C   0  0  0  0  0  0  0  0  0  0  0  0
  -24.6390  -11.7910   20.7520 C   0  0  0  0  0  0  0  0  0  0  0  0
  -26.3240  -12.9830   20.1910 N   0  0  0  0  0  0  0  0  0  0  0  0
  -25.9330  -11.7180   20.4760 N   0  0  0  0  0  0  0  0  0  0  0  0
  -23.8880  -10.5460   20.9500 C   0  0  0  0  0  0  0  0  0  0  0  0
  -24.2960   -9.5870   21.9030 C   0  0  0  0  0  3  0  0  0  0  0  0
  -23.5560   -8.4010   22.0860 C   0  0  0  0  0  3  0  0  0  0  0  0
  -22.3930   -8.1660   21.3170 C   0  0  0  0  0  0  0  0  0  0  0  0
  -22.0000   -9.1150   20.3560 C   0  0  0  0  0  3  0  0  0  0  0  0
  -22.7400  -10.2940   20.1700 C   0  0  0  0  0  3  0  0  0  0  0  0
  -21.6250   -7.0310   21.4110 O   0  0  0  0  0  0  0  0  0  0  0  0
  -21.5580   -6.3050   22.5730 C   0  0  0  0  0  0  0  0  0  0  0  0
  -21.1400   -6.8830   23.7910 C   0  0  0  0  0  3  0  0  0  0  0  0
  -21.0240   -6.0850   24.9460 C   0  0  0  0  0  3  0  0  0  0  0  0
  -21.3110   -4.7080   24.8800 C   0  0  0  0  0  0  0  0  0  0  0  0
  -21.7190   -4.1280   23.6670 C   0  0  0  0  0  3  0  0  0  0  0  0
  -21.8420   -4.9240   22.5150 C   0  0  0  0  0  0  0  0  0  0  0  0
  -22.2160   -4.3590   21.3420 F   0  0  0  0  0  0  0  0  0  0  0  0
  -21.1870   -3.9360   25.9860 F   0  0  0  0  0  0  0  0  0  0  0  0
  -22.8070  -13.6570   20.9650 C   0  0  0  0  0  0  0  0  0  0  0  0
  -22.0540  -13.0070   21.8430 N   0  0  0  0  0  0  0  0  0  0  0  0
  -22.3920  -14.6670   20.3960 O   0  0  0  0  0  0  0  0  0  0  0  0
  -22.4000  -12.1910   22.3280 H   0  0  0  0  0  0  0  0  0  0  0  0
  -21.1150  -13.3300   22.0330 H   0  0  0  0  0  0  0  0  0  0  0  0
  -25.4820  -15.2520   20.1670 N   0  0  0  0  0  0  0  0  0  0  0  0
  -24.7320  -15.9260   20.2670 H   0  0  0  0  0  0  0  0  0  0  0  0
  -26.3530  -15.6640   19.8620 H   0  0  0  0  0  0  0  0  0  0  0  0
  -28.1580  -23.4500   18.8840 C   0  0  0  0  0  0  0  0  0  0  0  0
  -27.1110  -23.8210   18.3460 O   0  0  0  0  0  0  0  0  0  0  0  0
  -29.2070  -24.4860   19.3020 C   0  0  0  0  0  2  0  0  0  0  0  0
  -28.9270  -25.9270   18.8120 C   0  0  0  0  0  2  0  0  0  0  0  0
  -28.5400  -26.7830   19.8900 O   0  0  0  0  0  0  0  0  0  0  0  0
  -24.5200  -31.6940   23.0500 C   0  0  0  0  0  0  0  0  0  0  0  0
  -27.3220  -27.4310   19.8640 C   0  0  0  0  0  0  0  0  0  0  0  0
  -23.3680  -30.3120   21.3520 C   0  0  0  0  0  3  0  0  0  0  0  0
  -24.8770  -28.8550   19.9030 C   0  0  0  0  0  0  0  0  0  0  0  0
  -25.8850  -30.7400   21.1970 C   0  0  0  0  0  2  0  0  0  0  0  0
  -26.0090  -29.3920   20.5230 C   0  0  0  0  0  0  0  0  0  0  0  0
  -27.2290  -28.6810   20.5120 C   0  0  0  0  0  3  0  0  0  0  0  0
  -26.1650  -26.8990   19.2500 C   0  0  0  0  0  3  0  0  0  0  0  0
  -24.9450  -27.6040   19.2690 C   0  0  0  0  0  3  0  0  0  0  0  0
  -23.6100  -29.6760   19.9560 C   0  0  0  0  0  2  0  0  0  0  0  0
  -24.6090  -30.9290   21.9240 N   0  0  0  0  0  0  0  0  0  0  0  0
  -23.4270  -31.9260   23.5830 O   0  0  0  0  0  0  0  0  0  0  0  0
  -22.7320  -29.2470   22.2730 C   0  0  0  0  0  0  0  0  0  0  0  0
  -21.4050  -29.0750   22.1580 N   0  0  0  0  0  0  0  0  0  0  0  0
  -23.4260  -28.5830   23.0460 O   0  0  0  0  0  0  0  0  0  0  0  0
  -20.9060  -29.6660   21.5090 H   0  0  0  0  0  0  0  0  0  0  0  0
  -18.0290  -27.9000   22.6800 C   0  0  0  0  0  0  0  0  0  0  0  0
  -20.5970  -28.1040   22.8940 C   0  0  0  0  0  3  0  0  0  0  0  0
  -20.6600  -26.7080   22.2310 C   0  0  0  0  0  2  0  0  0  0  0  0
  -19.5250  -26.4630   21.2320 C   0  0  0  0  0  2  0  0  0  0  0  0
  -18.1650  -26.5900   21.9220 C   0  0  0  0  0  2  0  0  0  0  0  0
  -19.1710  -28.6190   23.1220 C   0  0  0  0  0  0  0  0  0  0  0  0
  -18.9890  -29.8500   23.7900 C   0  0  0  0  0  3  0  0  0  0  0  0
  -17.6980  -30.3610   24.0210 C   0  0  0  0  0  3  0  0  0  0  0  0
  -16.5700  -29.6370   23.5950 C   0  0  0  0  0  3  0  0  0  0  0  0
  -16.7370  -28.4090   22.9290 C   0  0  0  0  0  3  0  0  0  0  0  0
  -25.7850  -32.3350   23.7040 C   0  0  0  0  0  3  0  0  0  0  0  0
  -25.4370  -33.7120   24.0800 N   0  0  0  0  0  0  0  0  0  0  0  0
  -25.7430  -34.7970   23.3580 C   0  0  0  0  0  0  0  0  0  0  0  0
  -26.4210  -34.7460   22.3270 O   0  0  0  0  0  0  0  0  0  0  0  0
  -24.8370  -33.8230   24.8840 H   0  0  0  0  0  0  0  0  0  0  0  0
  -23.9640  -36.5460   23.0570 C   0  0  0  0  0  1  0  0  0  0  0  0
  -25.2160  -36.1550   23.8580 C   0  0  0  0  0  3  0  0  0  0  0  0
  -27.3230  -37.0740   24.7180 C   0  0  0  0  0  1  0  0  0  0  0  0
  -26.2170  -37.2400   23.7790 N   0  0  0  0  0  0  0  0  0  0  0  0
  -25.7850  -38.1430   23.9570 H   0  0  0  0  0  0  0  0  0  0  0  0
  -26.3150  -31.5300   24.9540 C   0  0  1  0  0  0  0  0  0  0  0  0
  -25.2230  -31.2250   26.0060 C   0  0  0  0  0  1  0  0  0  0  0  0
  -26.9350  -30.1840   24.5130 C   0  0  0  0  0  1  0  0  0  0  0  0
  -27.4440  -32.3250   25.6490 C   0  0  0  0  0  1  0  0  0  0  0  0
  1 22  1  0
  2  7  1  0
  3  4  1  0
  3  2  1  0
  5  4  1  0
  5 26  1  0
  5  6  1  0
  7  1  1  0
  7  6  1  0
  8  1  2  0
  9 10  2  0
  9 12  1  0
 10 13  1  0
 11 14  1  0
 12 11  2  0
 13 20  1  0
 13 14  2  0
 14 15  1  0
 16 17  1  0
 19 15  1  0
 19 18  1  0
 20 21  1  6
 20 19  1  0
 20 16  1  0
 22 18  1  0
 22 17  1  0
 23 24  2  0
 24 25  1  0
 24 43  1  0
 25 28  1  0
 26 23  1  0
 26 27  1  0
 27 25  2  0
 28 29  1  0
 29 30  2  0
 31 34  1  0
 31 30  1  0
 32 31  2  0
 33 32  1  0
 33 28  2  0
 34 35  1  0
 35 36  1  0
 36 37  2  0
 38 37  1  0
 38 42  1  0
 39 38  2  0
 40 35  2  0
 40 39  1  0
 41 40  1  0
 43 44  1  0
 44 47  1  0
 44 46  1  0
 45 43  2  0
 48 49  1  0
 48 23  1  0
 50 48  1  0
 51 12  1  0
 51 53  1  0
 52 51  2  0
 54 53  1  0
 54 55  1  0
 56 67  2  0
 57 55  1  0
 57 62  1  0
 58 66  1  0
 58 68  1  0
 59 65  1  0
 59 61  1  0
 60 66  1  0
 61 60  1  0
 62 61  2  0
 63 64  1  0
 63 57  2  0
 64 59  2  0
 65 58  1  0
 66 56  1  0
 68 70  2  0
 69 68  1  0
 71 69  1  0
 72 81  2  0
 72 77  1  0
 73 69  1  0
 73 77  1  0
 74 73  1  0
 75 76  1  0
 75 74  1  0
 76 72  1  0
 77 78  2  0
 78 79  1  0
 80 79  2  0
 81 80  1  0
 82 56  1  0
 82 83  1  0
 82 92  1  0
 83 86  1  0
 84 88  1  0
 84 83  1  0
 85 84  2  0
 88 87  1  0
 90 88  1  0
 90 91  1  0
 90 89  1  0
 92 95  1  1
 92 93  1  0
 94 92  1  0
M  ISO  4   1 100  22 100  54 101  55 101
M  END
>  <TORSDO>  (50) 
F 18

>  <SCORE>  (50) 
-13.742

>  <name>  (50) 
49

>  <ligand_id>  (50) 
49

>  <original_smiles>  (50) 
[H]c1c([H])c([H])c2c(c1[H])C([H])([H])C([H])([H])C([H])([H])C2([H])N([H])C(=O)C1([H])N(C(=O)C([H])(N([H])C(=O)C([H])(N([H])C([H])([H])[H])C([H])([H])[H])C(C([H])([H])[H])(C([H])([H])[H])C([H])([H])[H])C([H])([H])c2c([H])c(OC([H])([H])C([H])([H])C(=O)c3c([H])c([H])c4c(c3[H])C([H])([H])C3([H])C([H])([H])N(C(=O)N5C([H])([H])C([H])([H])C([H])([H])C([H])(n6nc(-c7c([H])c([H])c(Oc8c([H])c([H])c(F)c([H])c8F)c([H])c7[H])c(C(=O)N([H])[H])c6N([H])[H])C5([H])[H])C([H])([H])C([H])([H])C43C([H])([H])[H])c([H])c([H])c2C1([H])[H]

>  <smiles>  (50) 
[H]c1c([H])c([H])c2c(c1[H])C([H])([H])C([H])([H])C([H])([H])C2([H])N([H])C(=O)C1([H])N(C(=O)C([H])(N([H])C(=O)C([H])(N([H])C([H])([H])[H])C([H])([H])[H])C(C([H])([H])[H])(C([H])([H])[H])C([H])([H])[H])C([H])([H])c2c([H])c(OC([H])([H])C([H])([H])C(=O)c3c([H])c([H])c4c(c3[H])C([H])([H])C3([H])C([H])([H])N(C(=O)N5C([H])([H])C([H])([H])C([H])([H])C([H])(n6nc(-c7c([H])c([H])c(Oc8c([H])c([H])c(F)c([H])c8F)c([H])c7[H])c(C(=O)N([H])[H])c6N([H])[H])C5([H])[H])C([H])([H])C([H])([H])C43C([H])([H])[H])c([H])c([H])c2C1([H])[H]

$$$$
50:0:0
     RDKit          3D

 97105  0  0  1  0  0  0  0  0999 V2000
  -28.1200  -24.2990   25.8700 C   0  0  0  0  0  3  0  0  0  0  0  0
  -27.0040  -22.1360   25.6830 C   0  0  0  0  0  3  0  0  0  0  0  0
  -27.0020  -24.9250   25.2860 C   0  0  0  0  0  3  0  0  0  0  0  0
  -25.8960  -22.7560   25.0770 C   0  0  0  0  0  3  0  0  0  0  0  0
  -28.1300  -22.9010   26.0550 C   0  0  0  0  0  0  0  0  0  0  0  0
  -25.8990  -24.1510   24.8720 C   0  0  0  0  0  0  0  0  0  0  0  0
  -29.2770  -22.2280   26.7050 C   0  0  0  0  0  0  0  0  0  0  0  0
  -29.2600  -21.8740   27.8880 O   0  0  0  0  0  0  0  0  0  0  0  0
  -30.5060  -21.9470   25.8350 C   0  0  0  0  0  2  0  0  0  0  0  0
  -30.7930  -20.4380   25.6260 C   0  0  0  0  0  2  0  0  0  0  0  0
  -30.2880  -19.8570   24.2860 C   0  0  0  0  0  2  0  0  0  0  0  0
  -30.4940  -18.3280   24.1520 C   0  0  0  0  0  2  0  0  0  0  0  0
  -30.0250  -17.7350   22.8000 C   0  0  0  0  0  2  0  0  0  0  0  0
  -30.4400  -16.2590   22.5560 C   0  0  0  0  0  2  0  0  0  0  0  0
  -29.9060  -15.6980   21.2120 C   0  0  0  0  0  2  0  0  0  0  0  0
  -30.6630  -14.4730   20.6270 C   0  0  0  0  0  0  0  0  0  0  0  0
  -30.4300  -12.3190   19.4340 C   0  0  0  0  0  2  0  0  0  0  0  0
  -29.5110  -12.5320   18.2110 C   0  0  0  0  0  2  0  0  0  0  0  0
  -28.0230  -12.3930   18.6050 C   0  0  0  0  0  2  0  0  0  0  0  0
  -27.6620  -13.2090   19.8760 C   0  0  0  0  0  3  0  0  0  0  0  0
  -28.6930  -12.9680   21.0010 C   0  0  0  0  0  2  0  0  0  0  0  0
  -30.0230  -13.2830   20.4700 N   0  0  0  0  0  0  0  0  0  0  0  0
  -31.7920  -14.6690   20.1650 O   0  0  0  0  0  0  0  0  0  0  0  0
  -25.2580  -13.8190   20.5630 C   0  0  0  0  0  0  0  0  0  0  0  0
  -24.1860  -13.0480   20.9150 C   0  0  0  0  0  0  0  0  0  0  0  0
  -24.6400  -11.6930   20.8700 C   0  0  0  0  0  0  0  0  0  0  0  0
  -26.3020  -12.9350   20.3310 N   0  0  0  0  0  0  0  0  0  0  0  0
  -25.9320  -11.6520   20.5720 N   0  0  0  0  0  0  0  0  0  0  0  0
  -23.9090  -10.4320   21.0390 C   0  0  0  0  0  0  0  0  0  0  0  0
  -24.3640   -9.4230   21.9150 C   0  0  0  0  0  3  0  0  0  0  0  0
  -23.6320   -8.2280   22.0760 C   0  0  0  0  0  3  0  0  0  0  0  0
  -22.4290   -8.0310   21.3570 C   0  0  0  0  0  0  0  0  0  0  0  0
  -21.9910   -9.0280   20.4680 C   0  0  0  0  0  3  0  0  0  0  0  0
  -22.7260  -10.2150   20.3060 C   0  0  0  0  0  3  0  0  0  0  0  0
  -21.6670   -6.8900   21.4260 O   0  0  0  0  0  0  0  0  0  0  0  0
  -21.6870   -6.0760   22.5300 C   0  0  0  0  0  0  0  0  0  0  0  0
  -21.4020   -6.5650   23.8230 C   0  0  0  0  0  3  0  0  0  0  0  0
  -21.3650   -5.6800   24.9180 C   0  0  0  0  0  3  0  0  0  0  0  0
  -21.6050   -4.3070   24.7220 C   0  0  0  0  0  0  0  0  0  0  0  0
  -21.8820   -3.8170   23.4340 C   0  0  0  0  0  3  0  0  0  0  0  0
  -21.9190   -4.6990   22.3410 C   0  0  0  0  0  0  0  0  0  0  0  0
  -22.1660   -4.2190   21.0980 F   0  0  0  0  0  0  0  0  0  0  0  0
  -21.5620   -3.4530   25.7730 F   0  0  0  0  0  0  0  0  0  0  0  0
  -22.7870  -13.5270   21.1820 C   0  0  0  0  0  0  0  0  0  0  0  0
  -22.0520  -12.8280   22.0390 N   0  0  0  0  0  0  0  0  0  0  0  0
  -22.3570  -14.5570   20.6640 O   0  0  0  0  0  0  0  0  0  0  0  0
  -22.4130  -11.9940   22.4790 H   0  0  0  0  0  0  0  0  0  0  0  0
  -21.1150  -13.1310   22.2590 H   0  0  0  0  0  0  0  0  0  0  0  0
  -25.4330  -15.1920   20.4080 N   0  0  0  0  0  0  0  0  0  0  0  0
  -24.6690  -15.8470   20.5240 H   0  0  0  0  0  0  0  0  0  0  0  0
  -26.2920  -15.6340   20.1050 H   0  0  0  0  0  0  0  0  0  0  0  0
  -24.7350  -24.8050   24.1580 C   0  0  0  0  0  2  0  0  0  0  0  0
  -24.6930  -24.4150   22.6720 C   0  0  0  0  0  2  0  0  0  0  0  0
  -25.6260  -25.2010   21.7330 C   0  0  0  0  0  2  0  0  0  0  0  0
  -27.1540  -24.9120   21.7870 C   0  0  0  0  0  2  0  0  0  0  0  0
  -27.9870  -25.2350   20.4970 C   0  0  0  0  0  2  0  0  0  0  0  0
  -28.2880  -26.6240   20.2290 O   0  0  0  0  0  0  0  0  0  0  0  0
  -24.6070  -31.8620   23.2220 C   0  0  0  0  0  0  0  0  0  0  0  0
  -27.1990  -27.4460   20.0840 C   0  0  0  0  0  0  0  0  0  0  0  0
  -23.3980  -30.5010   21.5510 C   0  0  0  0  0  3  0  0  0  0  0  0
  -24.8420  -28.9910   20.0880 C   0  0  0  0  0  0  0  0  0  0  0  0
  -25.9280  -30.8370   21.3820 C   0  0  0  0  0  2  0  0  0  0  0  0
  -26.0010  -29.4830   20.7060 C   0  0  0  0  0  0  0  0  0  0  0  0
  -27.1850  -28.7120   20.7080 C   0  0  0  0  0  3  0  0  0  0  0  0
  -26.0550  -27.0200   19.3740 C   0  0  0  0  0  3  0  0  0  0  0  0
  -24.8660  -27.7640   19.4100 C   0  0  0  0  0  3  0  0  0  0  0  0
  -23.6030  -29.8490   20.1590 C   0  0  0  0  0  2  0  0  0  0  0  0
  -24.6610  -31.0810   22.1080 N   0  0  0  0  0  0  0  0  0  0  0  0
  -23.5280  -32.1290   23.7680 O   0  0  0  0  0  0  0  0  0  0  0  0
  -22.7390  -29.4700   22.4920 C   0  0  0  0  0  0  0  0  0  0  0  0
  -21.4110  -29.3050   22.3670 N   0  0  0  0  0  0  0  0  0  0  0  0
  -23.4170  -28.8220   23.2960 O   0  0  0  0  0  0  0  0  0  0  0  0
  -20.9240  -29.8780   21.6900 H   0  0  0  0  0  0  0  0  0  0  0  0
  -18.0300  -28.1370   22.8530 C   0  0  0  0  0  0  0  0  0  0  0  0
  -20.5880  -28.3680   23.1300 C   0  0  0  0  0  3  0  0  0  0  0  0
  -20.6810  -26.9420   22.5420 C   0  0  0  0  0  2  0  0  0  0  0  0
  -19.5780  -26.6370   21.5240 C   0  0  0  0  0  2  0  0  0  0  0  0
  -18.1950  -26.7920   22.1650 C   0  0  0  0  0  2  0  0  0  0  0  0
  -19.1540  -28.8840   23.2930 C   0  0  0  0  0  0  0  0  0  0  0  0
  -18.9480  -30.1450   23.8960 C   0  0  0  0  0  3  0  0  0  0  0  0
  -17.6490  -30.6600   24.0590 C   0  0  0  0  0  3  0  0  0  0  0  0
  -16.5370  -29.9110   23.6330 C   0  0  0  0  0  3  0  0  0  0  0  0
  -16.7290  -28.6490   23.0390 C   0  0  0  0  0  3  0  0  0  0  0  0
  -25.8920  -32.4840   23.8460 C   0  0  0  0  0  3  0  0  0  0  0  0
  -25.5730  -33.8640   24.2330 N   0  0  0  0  0  0  0  0  0  0  0  0
  -25.8940  -34.9480   23.5160 C   0  0  0  0  0  0  0  0  0  0  0  0
  -26.5560  -34.8950   22.4770 O   0  0  0  0  0  0  0  0  0  0  0  0
  -25.0020  -33.9840   25.0590 H   0  0  0  0  0  0  0  0  0  0  0  0
  -24.1400  -36.7270   23.2640 C   0  0  0  0  0  1  0  0  0  0  0  0
  -25.4010  -36.3100   24.0350 C   0  0  0  0  0  3  0  0  0  0  0  0
  -27.5550  -37.1790   24.8430 C   0  0  0  0  0  1  0  0  0  0  0  0
  -26.4210  -37.3770   23.9440 N   0  0  0  0  0  0  0  0  0  0  0  0
  -26.0070  -38.2820   24.1500 H   0  0  0  0  0  0  0  0  0  0  0  0
  -26.4370  -31.6750   25.0860 C   0  0  1  0  0  0  0  0  0  0  0  0
  -25.3690  -31.3920   26.1620 C   0  0  0  0  0  1  0  0  0  0  0  0
  -27.0400  -30.3170   24.6540 C   0  0  0  0  0  1  0  0  0  0  0  0
  -27.5810  -32.4750   25.7580 C   0  0  0  0  0  1  0  0  0  0  0  0
  1  5  1  0
  2  5  2  0
  3  1  2  0
  4  2  1  0
  5  7  1  0
  6  4  2  0
  6  3  1  0
  7  8  2  0
  9  7  1  0
 10  9  1  0
 11 10  1  0
 12 11  1  0
 13 12  1  0
 14 13  1  0
 15 14  1  0
 16 15  1  0
 17 22  1  0
 18 19  1  0
 18 17  1  0
 20 19  1  0
 20 27  1  0
 20 21  1  0
 22 16  1  0
 22 21  1  0
 23 16  2  0
 24 25  2  0
 25 44  1  0
 26 25  1  0
 26 29  1  0
 27 24  1  0
 27 28  1  0
 28 26  2  0
 29 30  1  0
 30 31  2  0
 32 35  1  0
 32 31  1  0
 33 32  2  0
 34 33  1  0
 34 29  2  0
 35 36  1  0
 36 37  1  0
 37 38  2  0
 39 38  1  0
 39 43  1  0
 40 39  2  0
 41 36  2  0
 41 40  1  0
 42 41  1  0
 44 45  1  0
 45 48  1  0
 45 47  1  0
 46 44  2  0
 49 50  1  0
 49 24  1  0
 51 49  1  0
 52  6  1  0
 53 52  1  0
 54 55  1  0
 54 53  1  0
 56 55  1  0
 57 56  1  0
 58 69  2  0
 59 57  1  0
 59 64  1  0
 60 68  1  0
 60 70  1  0
 61 67  1  0
 61 63  1  0
 62 68  1  0
 63 64  2  0
 63 62  1  0
 65 66  1  0
 65 59  2  0
 66 61  2  0
 67 60  1  0
 68 58  1  0
 70 72  2  0
 71 70  1  0
 73 71  1  0
 74 83  2  0
 74 79  1  0
 75 71  1  0
 75 79  1  0
 76 75  1  0
 77 78  1  0
 77 76  1  0
 78 74  1  0
 79 80  2  0
 80 81  1  0
 82 81  2  0
 83 82  1  0
 84 58  1  0
 84 85  1  0
 84 94  1  0
 85 88  1  0
 86 90  1  0
 86 85  1  0
 87 86  2  0
 90 89  1  0
 92 90  1  0
 92 93  1  0
 92 91  1  0
 94 97  1  1
 94 95  1  0
 96 94  1  0
M  ISO  4  15 100  16 100  56 101  57 101
M  END
>  <TORSDO>  (51) 
F 29

>  <SCORE>  (51) 
30.169

>  <name>  (51) 
50

>  <ligand_id>  (51) 
50

>  <original_smiles>  (51) 
[H]c1c([H])c([H])c2c(c1[H])C([H])([H])C([H])([H])C([H])([H])C2([H])N([H])C(=O)C1([H])N(C(=O)C([H])(N([H])C(=O)C([H])(N([H])C([H])([H])[H])C([H])([H])[H])C(C([H])([H])[H])(C([H])([H])[H])C([H])([H])[H])C([H])([H])c2c([H])c(OC([H])([H])C([H])([H])C([H])([H])C([H])([H])C([H])([H])c3c([H])c([H])c(C(=O)C([H])([H])C([H])([H])C([H])([H])C([H])([H])C([H])([H])C([H])([H])C([H])([H])C(=O)N4C([H])([H])C([H])([H])C([H])([H])C([H])(n5nc(-c6c([H])c([H])c(Oc7c([H])c([H])c(F)c([H])c7F)c([H])c6[H])c(C(=O)N([H])[H])c5N([H])[H])C4([H])[H])c([H])c3[H])c([H])c([H])c2C1([H])[H]

>  <smiles>  (51) 
[H]c1c([H])c([H])c2c(c1[H])C([H])([H])C([H])([H])C([H])([H])C2([H])N([H])C(=O)C1([H])N(C(=O)C([H])(N([H])C(=O)C([H])(N([H])C([H])([H])[H])C([H])([H])[H])C(C([H])([H])[H])(C([H])([H])[H])C([H])([H])[H])C([H])([H])c2c([H])c(OC([H])([H])C([H])([H])C([H])([H])C([H])([H])C([H])([H])c3c([H])c([H])c(C(=O)C([H])([H])C([H])([H])C([H])([H])C([H])([H])C([H])([H])C([H])([H])C([H])([H])C(=O)N4C([H])([H])C([H])([H])C([H])([H])C([H])(n5nc(-c6c([H])c([H])c(Oc7c([H])c([H])c(F)c([H])c7F)c([H])c6[H])c(C(=O)N([H])[H])c5N([H])[H])C4([H])[H])c([H])c3[H])c([H])c([H])c2C1([H])[H]

$$$$
51:0:0
     RDKit          3D

101108  0  0  1  0  0  0  0  0999 V2000
  -29.2640  -21.2880   19.8590 C   0  0  0  0  0  3  0  0  0  0  0  0
  -29.2070  -19.7430   20.4630 N   0  0  0  0  0  4  0  0  0  0  0  0
  -29.4280  -19.8470   21.4390 H   0  0  0  0  0  0  0  0  0  0  0  0
  -28.2350  -19.4840   20.4400 H   0  0  0  0  0  0  0  0  0  0  0  0
  -30.0360  -18.3830   19.9950 C   0  0  0  0  0  2  0  0  0  0  0  0
  -30.1900  -16.8290   22.1230 C   0  0  0  0  0  1  0  0  0  0  0  0
  -29.9070  -16.7230   20.6140 C   0  0  0  0  0  3  0  0  0  0  0  0
  -30.6660  -15.2380   20.1110 C   0  0  0  0  0  0  0  0  0  0  0  0
  -30.5720  -12.8610   19.0860 C   0  0  0  0  0  2  0  0  0  0  0  0
  -29.5880  -12.7810   17.8900 C   0  0  0  0  0  2  0  0  0  0  0  0
  -28.1490  -12.5210   18.3750 C   0  0  0  0  0  2  0  0  0  0  0  0
  -27.7770  -13.4160   19.5840 C   0  0  0  0  0  3  0  0  0  0  0  0
  -28.8760  -13.4390   20.6650 C   0  0  0  0  0  2  0  0  0  0  0  0
  -30.1070  -13.9370   20.0290 N   0  0  0  0  0  0  0  0  0  0  0  0
  -31.8430  -15.2750   19.7250 O   0  0  0  0  0  0  0  0  0  0  0  0
  -25.4360  -13.9630   20.4440 C   0  0  0  0  0  0  0  0  0  0  0  0
  -24.3870  -13.1790   20.8380 C   0  0  0  0  0  0  0  0  0  0  0  0
  -24.8510  -11.8290   20.7570 C   0  0  0  0  0  0  0  0  0  0  0  0
  -26.4660  -13.0930   20.1360 N   0  0  0  0  0  0  0  0  0  0  0  0
  -26.1290  -11.8020   20.3920 N   0  0  0  0  0  0  0  0  0  0  0  0
  -24.1310  -10.5620   20.9480 C   0  0  0  0  0  0  0  0  0  0  0  0
  -24.5530   -9.6060   21.8980 C   0  0  0  0  0  3  0  0  0  0  0  0
  -23.8290   -8.4080   22.0780 C   0  0  0  0  0  3  0  0  0  0  0  0
  -22.6700   -8.1550   21.3070 C   0  0  0  0  0  0  0  0  0  0  0  0
  -22.2660   -9.1000   20.3480 C   0  0  0  0  0  3  0  0  0  0  0  0
  -22.9900  -10.2910   20.1660 C   0  0  0  0  0  3  0  0  0  0  0  0
  -21.9200   -7.0070   21.3940 O   0  0  0  0  0  0  0  0  0  0  0  0
  -21.8010   -6.3110   22.5710 C   0  0  0  0  0  0  0  0  0  0  0  0
  -21.2700   -6.9050   23.7360 C   0  0  0  0  0  3  0  0  0  0  0  0
  -21.1010   -6.1360   24.9040 C   0  0  0  0  0  3  0  0  0  0  0  0
  -21.4540   -4.7730   24.9070 C   0  0  0  0  0  0  0  0  0  0  0  0
  -21.9790   -4.1790   23.7460 C   0  0  0  0  0  3  0  0  0  0  0  0
  -22.1490   -4.9450   22.5800 C   0  0  0  0  0  0  0  0  0  0  0  0
  -22.6350   -4.3620   21.4570 F   0  0  0  0  0  0  0  0  0  0  0  0
  -21.2840   -4.0300   26.0260 F   0  0  0  0  0  0  0  0  0  0  0  0
  -23.0030  -13.6500   21.1710 C   0  0  0  0  0  0  0  0  0  0  0  0
  -22.3090  -12.9390   22.0530 N   0  0  0  0  0  0  0  0  0  0  0  0
  -22.5480  -14.6840   20.6860 O   0  0  0  0  0  0  0  0  0  0  0  0
  -22.6920  -12.1040   22.4680 H   0  0  0  0  0  0  0  0  0  0  0  0
  -21.3810  -13.2370   22.3180 H   0  0  0  0  0  0  0  0  0  0  0  0
  -25.5910  -15.3380   20.2940 N   0  0  0  0  0  0  0  0  0  0  0  0
  -24.8260  -15.9840   20.4540 H   0  0  0  0  0  0  0  0  0  0  0  0
  -26.4220  -15.7890   19.9340 H   0  0  0  0  0  0  0  0  0  0  0  0
  -28.6190  -22.7910   20.5660 C   0  0  0  0  0  2  0  0  0  0  0  0
  -28.2650  -24.3850   19.8550 C   0  0  0  0  0  2  0  0  0  0  0  0
  -28.2150  -25.9280   20.3740 O   0  0  0  0  0  0  0  0  0  0  0  0
  -24.6310  -31.8570   23.1890 C   0  0  0  0  0  0  0  0  0  0  0  0
  -27.1830  -26.9790   20.2310 C   0  0  0  0  0  0  0  0  0  0  0  0
  -23.4290  -30.4390   21.5740 C   0  0  0  0  0  3  0  0  0  0  0  0
  -24.8720  -28.8220   20.1630 C   0  0  0  0  0  0  0  0  0  0  0  0
  -25.9920  -30.6590   21.4130 C   0  0  0  0  0  2  0  0  0  0  0  0
  -26.0580  -29.2460   20.7770 C   0  0  0  0  0  0  0  0  0  0  0  0
  -27.2030  -28.3420   20.7910 C   0  0  0  0  0  3  0  0  0  0  0  0
  -25.9700  -26.6930   19.5610 C   0  0  0  0  0  3  0  0  0  0  0  0
  -24.8520  -27.5660   19.5360 C   0  0  0  0  0  3  0  0  0  0  0  0
  -23.6510  -29.7370   20.2060 C   0  0  0  0  0  2  0  0  0  0  0  0
  -24.7050  -31.0110   22.1120 N   0  0  0  0  0  0  0  0  0  0  0  0
  -23.5450  -32.1560   23.7110 O   0  0  0  0  0  0  0  0  0  0  0  0
  -22.7400  -29.4560   22.5540 C   0  0  0  0  0  0  0  0  0  0  0  0
  -21.4120  -29.2840   22.4270 N   0  0  0  0  0  0  0  0  0  0  0  0
  -23.4070  -28.8490   23.3950 O   0  0  0  0  0  0  0  0  0  0  0  0
  -20.9280  -29.8250   21.7250 H   0  0  0  0  0  0  0  0  0  0  0  0
  -18.0330  -28.0740   22.9460 C   0  0  0  0  0  0  0  0  0  0  0  0
  -20.5910  -28.3590   23.2150 C   0  0  0  0  0  3  0  0  0  0  0  0
  -20.7020  -26.9150   22.6700 C   0  0  0  0  0  2  0  0  0  0  0  0
  -19.6070  -26.5670   21.6590 C   0  0  0  0  0  2  0  0  0  0  0  0
  -18.2200  -26.7140   22.2940 C   0  0  0  0  0  2  0  0  0  0  0  0
  -19.1450  -28.8530   23.3630 C   0  0  0  0  0  0  0  0  0  0  0  0
  -18.9140  -30.1240   23.9330 C   0  0  0  0  0  3  0  0  0  0  0  0
  -17.6040  -30.6150   24.0930 C   0  0  0  0  0  3  0  0  0  0  0  0
  -16.5070  -29.8330   23.6890 C   0  0  0  0  0  3  0  0  0  0  0  0
  -16.7220  -28.5660   23.1200 C   0  0  0  0  0  3  0  0  0  0  0  0
  -25.9070  -32.5060   23.8080 C   0  0  0  0  0  3  0  0  0  0  0  0
  -26.4310  -31.7420   25.0880 C   0  0  1  0  0  0  0  0  0  0  0  0
  -25.3430  -31.4960   26.1600 C   0  0  0  0  0  1  0  0  0  0  0  0
  -27.0260  -30.3680   24.7050 C   0  0  0  0  0  1  0  0  0  0  0  0
  -27.5750  -32.5500   25.7440 C   0  0  0  0  0  1  0  0  0  0  0  0
  -25.5830  -33.9020   24.1490 N   0  0  0  0  0  0  0  0  0  0  0  0
  -25.9030  -34.9680   23.4030 C   0  0  0  0  0  0  0  0  0  0  0  0
  -26.5640  -34.8800   22.3670 O   0  0  0  0  0  0  0  0  0  0  0  0
  -24.9890  -34.0410   24.9520 H   0  0  0  0  0  0  0  0  0  0  0  0
  -24.1670  -36.7660   23.0890 C   0  0  0  0  0  1  0  0  0  0  0  0
  -25.4150  -36.3510   23.8840 C   0  0  0  0  0  3  0  0  0  0  0  0
  -27.5480  -37.2410   24.7150 C   0  0  0  0  0  1  0  0  0  0  0  0
  -26.4430  -37.4100   23.7760 N   0  0  0  0  0  0  0  0  0  0  0  0
  -26.0330  -38.3260   23.9350 H   0  0  0  0  0  0  0  0  0  0  0  0
  -28.8450  -21.3250   18.3650 C   0  0  0  0  0  2  0  0  0  0  0  0
  -30.9660  -20.4900   17.2310 C   0  0  0  0  0  3  0  0  0  0  0  0
  -29.6300  -20.4250   17.4170 C   0  0  0  0  0  0  0  0  0  0  0  0
  -28.7830  -19.4350   16.6380 C   0  0  0  0  0  1  0  0  0  0  0  0
  -31.9370  -21.4730   17.8660 C   0  0  0  0  0  2  0  0  0  0  0  0
  -32.8820  -22.0800   16.8170 C   0  0  0  0  0  2  0  0  0  0  0  0
  -33.7620  -23.2410   17.3270 C   0  0  0  0  0  2  0  0  0  0  0  0
  -33.8870  -25.6750   18.0870 C   0  0  0  0  0  1  0  0  0  0  0  0
  -32.9740  -24.4790   17.7960 C   0  0  0  0  0  3  0  0  0  0  0  0
  -32.0760  -24.8470   16.7570 O   0  0  0  0  0  0  0  0  0  0  0  0
  -30.7580  -25.1250   17.2150 C   0  0  0  0  0  2  0  0  0  0  0  0
  -28.3800  -25.6010   16.5670 C   0  0  0  0  0  1  0  0  0  0  0  0
  -29.7370  -24.0130   15.1890 C   0  0  0  0  0  1  0  0  0  0  0  0
  -30.2500  -26.4830   15.1450 C   0  0  0  0  0  1  0  0  0  0  0  0
  -29.7920  -25.3070   16.0250 C   0  0  2  0  0  0  0  0  0  0  0  0
  1 87  1  0
  1  2  1  0
  1 44  1  0
  2  3  1  0
  4  2  1  0
  5  2  1  0
  5  7  1  0
  7  6  1  0
  8  7  1  0
  9 14  1  0
 10 11  1  0
 10  9  1  0
 12 11  1  0
 12 19  1  0
 12 13  1  0
 14  8  1  0
 14 13  1  0
 15  8  2  0
 16 17  2  0
 17 36  1  0
 18 17  1  0
 18 21  1  0
 19 20  1  0
 19 16  1  0
 20 18  2  0
 21 22  1  0
 22 23  2  0
 24 27  1  0
 24 23  1  0
 25 24  2  0
 26 25  1  0
 26 21  2  0
 27 28  1  0
 28 33  2  0
 28 29  1  0
 29 30  2  0
 30 31  1  0
 31 35  1  0
 32 31  2  0
 33 32  1  0
 34 33  1  0
 36 37  1  0
 37 40  1  0
 37 39  1  0
 38 36  2  0
 41 16  1  0
 41 42  1  0
 43 41  1  0
 45 46  1  0
 45 44  1  0
 47 58  2  0
 48 46  1  0
 48 53  1  0
 49 57  1  0
 49 59  1  0
 50 56  1  0
 50 52  1  0
 51 57  1  0
 52 53  2  0
 52 51  1  0
 54 48  2  0
 55 54  1  0
 55 50  2  0
 56 49  1  0
 57 47  1  0
 59 61  2  0
 60 59  1  0
 62 60  1  0
 63 72  2  0
 63 68  1  0
 64 60  1  0
 64 68  1  0
 65 64  1  0
 66 67  1  0
 66 65  1  0
 67 63  1  0
 68 69  2  0
 69 70  1  0
 71 70  2  0
 72 71  1  0
 73 47  1  0
 73 78  1  0
 73 74  1  0
 74 77  1  1
 74 75  1  0
 76 74  1  0
 78 81  1  0
 79 83  1  0
 79 78  1  0
 80 79  2  0
 83 82  1  0
 85 83  1  0
 85 86  1  0
 85 84  1  0
 88 89  2  0
 88 91  1  0
 89 87  1  0
 90 89  1  0
 92 93  1  0
 92 91  1  0
 93 95  1  0
 95 94  1  0
 96 97  1  0
 96 95  1  0
101 99  1  6
100101  1  0
101 98  1  0
101 97  1  0
M  ISO  4   7 100   8 100  45 101  46 101
M  END
>  <TORSDO>  (52) 
F 30

>  <SCORE>  (52) 
-12.203

>  <name>  (52) 
51

>  <ligand_id>  (52) 
51

>  <original_smiles>  (52) 
[H]C(=C(C([H])([H])[H])C([H])([H])C([H])(C([H])([H])C([H])([H])Oc1c([H])c([H])c2c(c1[H])C([H])([H])N(C(=O)C([H])(N([H])C(=O)C([H])(N([H])C([H])([H])[H])C([H])([H])[H])C(C([H])([H])[H])(C([H])([H])[H])C([H])([H])[H])C([H])(C(=O)N([H])C1([H])c3c([H])c([H])c([H])c([H])c3C([H])([H])C([H])([H])C1([H])[H])C2([H])[H])[N+]([H])([H])C([H])([H])C([H])(C(=O)N1C([H])([H])C([H])([H])C([H])([H])C([H])(n2nc(-c3c([H])c([H])c(Oc4c([H])c([H])c(F)c([H])c4F)c([H])c3[H])c(C(=O)N([H])[H])c2N([H])[H])C1([H])[H])C([H])([H])[H])C([H])([H])C([H])([H])C([H])([H])C([H])(OC([H])([H])C(C([H])([H])[H])(C([H])([H])[H])C([H])([H])[H])C([H])([H])[H]

>  <smiles>  (52) 
[H]C(=C(C([H])([H])[H])C([H])([H])C([H])(C([H])([H])C([H])([H])Oc1c([H])c([H])c2c(c1[H])C([H])([H])N(C(=O)C([H])(N([H])C(=O)C([H])(N([H])C([H])([H])[H])C([H])([H])[H])C(C([H])([H])[H])(C([H])([H])[H])C([H])([H])[H])C([H])(C(=O)N([H])C1([H])c3c([H])c([H])c([H])c([H])c3C([H])([H])C([H])([H])C1([H])[H])C2([H])[H])[N+]([H])([H])C([H])([H])C([H])(C(=O)N1C([H])([H])C([H])([H])C([H])([H])C([H])(n2nc(-c3c([H])c([H])c(Oc4c([H])c([H])c(F)c([H])c4F)c([H])c3[H])c(C(=O)N([H])[H])c2N([H])[H])C1([H])[H])C([H])([H])[H])C([H])([H])C([H])([H])C([H])([H])C([H])(OC([H])([H])C(C([H])([H])[H])(C([H])([H])[H])C([H])([H])[H])C([H])([H])[H]

$$$$
52:0:0
     RDKit          3D

 88 95  0  0  1  0  0  0  0  0999 V2000
  -29.1570  -22.9460   21.1530 C   0  0  0  0  0  0  0  0  0  0  0  0
  -28.7170  -22.8620   22.3050 O   0  0  0  0  0  0  0  0  0  0  0  0
  -29.4520  -21.6340   20.3340 C   0  0  0  0  0  0  0  0  0  0  0  0
  -29.7640  -21.6900   19.1390 O   0  0  0  0  0  0  0  0  0  0  0  0
  -29.3310  -20.2680   21.0720 C   0  0  0  0  0  2  0  0  0  0  0  0
  -29.1610  -18.9730   20.2070 C   0  0  0  0  0  2  0  0  0  0  0  0
  -30.4230  -18.0880   19.9830 C   0  0  0  0  0  2  0  0  0  0  0  0
  -30.7790  -17.0930   21.1260 C   0  0  0  0  0  2  0  0  0  0  0  0
  -30.0480  -15.7060   21.1320 C   0  0  0  0  0  2  0  0  0  0  0  0
  -30.7020  -14.5410   20.3340 C   0  0  0  0  0  0  0  0  0  0  0  0
  -30.3920  -12.3930   19.1320 C   0  0  0  0  0  2  0  0  0  0  0  0
  -29.4340  -12.6150   17.9420 C   0  0  0  0  0  2  0  0  0  0  0  0
  -27.9660  -12.4670   18.3890 C   0  0  0  0  0  2  0  0  0  0  0  0
  -27.6470  -13.2900   19.6640 C   0  0  0  0  0  3  0  0  0  0  0  0
  -28.7160  -13.0580   20.7560 C   0  0  0  0  0  2  0  0  0  0  0  0
  -30.0330  -13.3630   20.1780 N   0  0  0  0  0  0  0  0  0  0  0  0
  -31.7950  -14.7360   19.7930 O   0  0  0  0  0  0  0  0  0  0  0  0
  -25.2540  -13.9020   20.3900 C   0  0  0  0  0  0  0  0  0  0  0  0
  -24.1900  -13.1320   20.7740 C   0  0  0  0  0  0  0  0  0  0  0  0
  -24.6510  -11.7800   20.7510 C   0  0  0  0  0  0  0  0  0  0  0  0
  -26.2980  -13.0190   20.1560 N   0  0  0  0  0  0  0  0  0  0  0  0
  -25.9380  -11.7390   20.4300 N   0  0  0  0  0  0  0  0  0  0  0  0
  -23.9280  -10.5190   20.9590 C   0  0  0  0  0  0  0  0  0  0  0  0
  -24.3720   -9.5590   21.8950 C   0  0  0  0  0  3  0  0  0  0  0  0
  -23.6490   -8.3620   22.0900 C   0  0  0  0  0  3  0  0  0  0  0  0
  -22.4680   -8.1170   21.3510 C   0  0  0  0  0  0  0  0  0  0  0  0
  -22.0420   -9.0670   20.4050 C   0  0  0  0  0  3  0  0  0  0  0  0
  -22.7660  -10.2550   20.2080 C   0  0  0  0  0  3  0  0  0  0  0  0
  -21.7160   -6.9720   21.4530 O   0  0  0  0  0  0  0  0  0  0  0  0
  -21.6840   -6.2350   22.6090 C   0  0  0  0  0  0  0  0  0  0  0  0
  -21.2760   -6.7960   23.8390 C   0  0  0  0  0  3  0  0  0  0  0  0
  -21.1910   -5.9850   24.9890 C   0  0  0  0  0  3  0  0  0  0  0  0
  -21.5040   -4.6150   24.9100 C   0  0  0  0  0  0  0  0  0  0  0  0
  -21.9040   -4.0530   23.6850 C   0  0  0  0  0  3  0  0  0  0  0  0
  -21.9900   -4.8610   22.5370 C   0  0  0  0  0  0  0  0  0  0  0  0
  -22.3580   -4.3100   21.3540 F   0  0  0  0  0  0  0  0  0  0  0  0
  -21.4140   -3.8340   26.0120 F   0  0  0  0  0  0  0  0  0  0  0  0
  -22.7950  -13.6110   21.0550 C   0  0  0  0  0  0  0  0  0  0  0  0
  -22.0760  -12.9220   21.9340 N   0  0  0  0  0  0  0  0  0  0  0  0
  -22.3490  -14.6300   20.5290 O   0  0  0  0  0  0  0  0  0  0  0  0
  -22.4510  -12.0970   22.3780 H   0  0  0  0  0  0  0  0  0  0  0  0
  -21.1400  -13.2210   22.1650 H   0  0  0  0  0  0  0  0  0  0  0  0
  -25.4190  -15.2710   20.2020 N   0  0  0  0  0  0  0  0  0  0  0  0
  -24.6570  -15.9310   20.3180 H   0  0  0  0  0  0  0  0  0  0  0  0
  -26.2740  -15.7040   19.8770 H   0  0  0  0  0  0  0  0  0  0  0  0
  -29.4230  -24.3500   20.5420 C   0  0  0  0  0  2  0  0  0  0  0  0
  -28.1460  -25.2230   20.3890 C   0  0  0  0  0  2  0  0  0  0  0  0
  -28.3640  -26.6490   20.2050 O   0  0  0  0  0  0  0  0  0  0  0  0
  -24.5890  -31.9000   23.2550 C   0  0  0  0  0  0  0  0  0  0  0  0
  -27.2150  -27.4290   20.1710 C   0  0  0  0  0  0  0  0  0  0  0  0
  -23.3800  -30.5050   21.6130 C   0  0  0  0  0  3  0  0  0  0  0  0
  -24.8310  -28.9760   20.1760 C   0  0  0  0  0  0  0  0  0  0  0  0
  -25.9110  -30.8530   21.4160 C   0  0  0  0  0  2  0  0  0  0  0  0
  -25.9940  -29.4840   20.7680 C   0  0  0  0  0  0  0  0  0  0  0  0
  -27.1900  -28.7210   20.7580 C   0  0  0  0  0  3  0  0  0  0  0  0
  -26.0280  -26.9550   19.5620 C   0  0  0  0  0  3  0  0  0  0  0  0
  -24.8460  -27.7140   19.5650 C   0  0  0  0  0  3  0  0  0  0  0  0
  -23.5890  -29.8350   20.2280 C   0  0  0  0  0  2  0  0  0  0  0  0
  -24.6450  -31.1010   22.1520 N   0  0  0  0  0  0  0  0  0  0  0  0
  -23.5090  -32.1710   23.7970 O   0  0  0  0  0  0  0  0  0  0  0  0
  -22.7310  -29.4790   22.5690 C   0  0  0  0  0  0  0  0  0  0  0  0
  -21.4050  -29.3000   22.4470 N   0  0  0  0  0  0  0  0  0  0  0  0
  -23.4160  -28.8490   23.3800 O   0  0  0  0  0  0  0  0  0  0  0  0
  -20.9140  -29.8590   21.7620 H   0  0  0  0  0  0  0  0  0  0  0  0
  -18.0310  -28.1070   22.9490 C   0  0  0  0  0  0  0  0  0  0  0  0
  -20.5890  -28.3630   23.2170 C   0  0  0  0  0  3  0  0  0  0  0  0
  -20.6900  -26.9320   22.6390 C   0  0  0  0  0  2  0  0  0  0  0  0
  -19.5860  -26.6120   21.6260 C   0  0  0  0  0  2  0  0  0  0  0  0
  -18.2050  -26.7570   22.2720 C   0  0  0  0  0  2  0  0  0  0  0  0
  -19.1510  -28.8670   23.3790 C   0  0  0  0  0  0  0  0  0  0  0  0
  -18.9350  -30.1300   23.9710 C   0  0  0  0  0  3  0  0  0  0  0  0
  -17.6300  -30.6330   24.1390 C   0  0  0  0  0  3  0  0  0  0  0  0
  -16.5250  -29.8690   23.7260 C   0  0  0  0  0  3  0  0  0  0  0  0
  -16.7260  -28.6090   23.1370 C   0  0  0  0  0  3  0  0  0  0  0  0
  -25.8770  -32.5280   23.8730 C   0  0  0  0  0  3  0  0  0  0  0  0
  -25.5720  -33.9270   24.2000 N   0  0  0  0  0  0  0  0  0  0  0  0
  -25.9110  -34.9780   23.4410 C   0  0  0  0  0  0  0  0  0  0  0  0
  -26.5860  -34.8710   22.4140 O   0  0  0  0  0  0  0  0  0  0  0  0
  -24.9720  -34.0840   24.9970 H   0  0  0  0  0  0  0  0  0  0  0  0
  -24.1920  -36.7770   23.0730 C   0  0  0  0  0  1  0  0  0  0  0  0
  -25.4250  -36.3680   23.8950 C   0  0  0  0  0  3  0  0  0  0  0  0
  -27.5560  -37.2420   24.7460 C   0  0  0  0  0  1  0  0  0  0  0  0
  -26.4630  -37.4170   23.7930 N   0  0  0  0  0  0  0  0  0  0  0  0
  -26.0590  -38.3370   23.9400 H   0  0  0  0  0  0  0  0  0  0  0  0
  -26.3960  -31.7560   25.1480 C   0  0  1  0  0  0  0  0  0  0  0  0
  -25.3050  -31.5210   26.2180 C   0  0  0  0  0  1  0  0  0  0  0  0
  -26.9760  -30.3760   24.7550 C   0  0  0  0  0  1  0  0  0  0  0  0
  -27.5490  -32.5490   25.8070 C   0  0  0  0  0  1  0  0  0  0  0  0
  1  2  2  0
  3  5  1  0
  3  1  1  0
  4  3  2  0
  6  5  1  0
  7  6  1  0
  7  8  1  0
  8  9  1  0
 10  9  1  0
 11 16  1  0
 12 13  1  0
 12 11  1  0
 14 13  1  0
 14 21  1  0
 14 15  1  0
 16 10  1  0
 16 15  1  0
 17 10  2  0
 18 19  2  0
 19 38  1  0
 20 19  1  0
 20 23  1  0
 21 18  1  0
 21 22  1  0
 22 20  2  0
 23 24  1  0
 24 25  2  0
 26 29  1  0
 26 25  1  0
 27 26  2  0
 28 27  1  0
 28 23  2  0
 29 30  1  0
 30 31  1  0
 31 32  2  0
 33 32  1  0
 33 37  1  0
 34 33  2  0
 35 30  2  0
 35 34  1  0
 36 35  1  0
 38 39  1  0
 39 42  1  0
 39 41  1  0
 40 38  2  0
 43 44  1  0
 43 18  1  0
 45 43  1  0
 46  1  1  0
 47 46  1  0
 48 47  1  0
 49 60  2  0
 50 48  1  0
 50 55  1  0
 51 59  1  0
 51 61  1  0
 52 58  1  0
 52 54  1  0
 53 59  1  0
 54 53  1  0
 55 54  2  0
 56 57  1  0
 56 50  2  0
 57 52  2  0
 58 51  1  0
 59 49  1  0
 61 63  2  0
 62 61  1  0
 64 62  1  0
 65 74  2  0
 65 70  1  0
 66 62  1  0
 66 70  1  0
 67 66  1  0
 68 69  1  0
 68 67  1  0
 69 65  1  0
 70 71  2  0
 71 72  1  0
 73 72  2  0
 74 73  1  0
 75 49  1  0
 75 76  1  0
 75 85  1  0
 76 79  1  0
 77 81  1  0
 77 76  1  0
 78 77  2  0
 81 80  1  0
 83 81  1  0
 83 84  1  0
 83 82  1  0
 85 88  1  1
 85 86  1  0
 87 85  1  0
M  ISO  4   9 100  10 100  47 101  48 101
M  END
>  <TORSDO>  (53) 
F 24

>  <SCORE>  (53) 
-12.450

>  <name>  (53) 
52

>  <ligand_id>  (53) 
52

>  <original_smiles>  (53) 
[H]c1c([H])c([H])c2c(c1[H])C([H])([H])C([H])([H])C([H])([H])C2([H])N([H])C(=O)C1([H])N(C(=O)C([H])(N([H])C(=O)C([H])(N([H])C([H])([H])[H])C([H])([H])[H])C(C([H])([H])[H])(C([H])([H])[H])C([H])([H])[H])C([H])([H])c2c([H])c(OC([H])([H])C([H])([H])C(=O)C(=O)C([H])([H])C([H])([H])C([H])([H])C([H])([H])C([H])([H])C(=O)N3C([H])([H])C([H])([H])C([H])([H])C([H])(n4nc(-c5c([H])c([H])c(Oc6c([H])c([H])c(F)c([H])c6F)c([H])c5[H])c(C(=O)N([H])[H])c4N([H])[H])C3([H])[H])c([H])c([H])c2C1([H])[H]

>  <smiles>  (53) 
[H]c1c([H])c([H])c2c(c1[H])C([H])([H])C([H])([H])C([H])([H])C2([H])N([H])C(=O)C1([H])N(C(=O)C([H])(N([H])C(=O)C([H])(N([H])C([H])([H])[H])C([H])([H])[H])C(C([H])([H])[H])(C([H])([H])[H])C([H])([H])[H])C([H])([H])c2c([H])c(OC([H])([H])C([H])([H])C(=O)C(=O)C([H])([H])C([H])([H])C([H])([H])C([H])([H])C([H])([H])C(=O)N3C([H])([H])C([H])([H])C([H])([H])C([H])(n4nc(-c5c([H])c([H])c(Oc6c([H])c([H])c(F)c([H])c6F)c([H])c5[H])c(C(=O)N([H])[H])c4N([H])[H])C3([H])[H])c([H])c([H])c2C1([H])[H]

$$$$
53:0:0
     RDKit          3D

100109  0  0  1  0  0  0  0  0999 V2000
  -28.6080  -20.4440   19.7350 C   0  0  0  0  0  2  0  0  0  0  0  0
  -30.9290  -18.9330   21.9530 C   0  0  0  0  0  2  0  0  0  0  0  0
  -30.4130  -18.6810   20.5810 C   0  0  0  0  0  3  0  0  0  0  0  0
  -28.9470  -19.0710   20.2960 C   0  0  0  0  0  3  0  0  0  0  0  0
  -28.8100  -17.7500   19.5570 C   0  0  0  0  0  3  0  0  0  0  0  0
  -30.0960  -17.9550   22.7770 C   0  0  0  0  0  3  0  0  0  0  0  0
  -29.9680  -17.2200   20.4810 C   0  0  2  0  0  0  0  0  0  0  0  0
  -30.8740  -17.3840   23.9640 C   0  0  0  0  0  1  0  0  0  0  0  0
  -29.6060  -16.9510   21.8540 O   0  0  0  0  0  0  0  0  0  0  0  0
  -26.3690  -17.9060   18.7460 C   0  0  0  0  0  1  0  0  0  0  0  0
  -27.4330  -17.0620   19.4710 C   0  0  0  0  0  3  0  0  0  0  0  0
  -27.5170  -15.6760   18.8210 C   0  0  0  0  0  3  0  0  0  0  0  0
  -26.5950  -14.8630   18.9200 O   0  0  0  0  0  0  0  0  0  0  0  0
  -30.8080  -16.0600   19.8940 C   0  0  0  0  0  2  0  0  0  0  0  0
  -31.5680  -15.0050   20.7490 C   0  0  0  0  0  0  0  0  0  0  0  0
  -31.4580  -12.7260   19.8950 C   0  0  0  0  0  2  0  0  0  0  0  0
  -30.5260  -12.7750   18.6640 C   0  0  0  0  0  2  0  0  0  0  0  0
  -29.0420  -12.6380   19.0740 C   0  0  0  0  0  2  0  0  0  0  0  0
  -28.6370  -13.4990   20.3040 C   0  0  0  0  0  3  0  0  0  0  0  0
  -29.7090  -13.4410   21.4110 C   0  0  0  0  0  2  0  0  0  0  0  0
  -31.0190  -13.7640   20.8330 N   0  0  0  0  0  0  0  0  0  0  0  0
  -32.7890  -15.1740   20.7720 O   0  0  0  0  0  0  0  0  0  0  0  0
  -26.2770  -13.9810   21.2340 C   0  0  0  0  0  0  0  0  0  0  0  0
  -25.2200  -13.1550   21.5030 C   0  0  0  0  0  0  0  0  0  0  0  0
  -25.6850  -11.8280   21.2580 C   0  0  0  0  0  0  0  0  0  0  0  0
  -27.3110  -13.1510   20.8170 N   0  0  0  0  0  0  0  0  0  0  0  0
  -26.9610  -11.8430   20.8990 N   0  0  0  0  0  0  0  0  0  0  0  0
  -24.9680  -10.5460   21.2780 C   0  0  0  0  0  0  0  0  0  0  0  0
  -25.3190   -9.5130   22.1750 C   0  0  0  0  0  3  0  0  0  0  0  0
  -24.5930   -8.3010   22.1870 C   0  0  0  0  0  3  0  0  0  0  0  0
  -23.5110   -8.1130   21.2990 C   0  0  0  0  0  0  0  0  0  0  0  0
  -23.1830   -9.1360   20.3910 C   0  0  0  0  0  3  0  0  0  0  0  0
  -23.9060  -10.3400   20.3780 C   0  0  0  0  0  3  0  0  0  0  0  0
  -22.7610   -6.9630   21.2270 O   0  0  0  0  0  0  0  0  0  0  0  0
  -22.3770   -6.2820   22.3540 C   0  0  0  0  0  0  0  0  0  0  0  0
  -21.6300   -6.8970   23.3820 C   0  0  0  0  0  3  0  0  0  0  0  0
  -21.1990   -6.1390   24.4900 C   0  0  0  0  0  3  0  0  0  0  0  0
  -21.5090   -4.7660   24.5690 C   0  0  0  0  0  0  0  0  0  0  0  0
  -22.2510   -4.1540   23.5430 C   0  0  0  0  0  3  0  0  0  0  0  0
  -22.6810   -4.9090   22.4370 C   0  0  0  0  0  0  0  0  0  0  0  0
  -23.3800   -4.3090   21.4430 F   0  0  0  0  0  0  0  0  0  0  0  0
  -21.0890   -4.0320   25.6260 F   0  0  0  0  0  0  0  0  0  0  0  0
  -23.8330  -13.5810   21.8960 C   0  0  0  0  0  0  0  0  0  0  0  0
  -23.1470  -12.7810   22.7100 N   0  0  0  0  0  0  0  0  0  0  0  0
  -23.3610  -14.6530   21.5210 O   0  0  0  0  0  0  0  0  0  0  0  0
  -23.5400  -11.9140   23.0460 H   0  0  0  0  0  0  0  0  0  0  0  0
  -22.2140  -13.0420   22.9950 H   0  0  0  0  0  0  0  0  0  0  0  0
  -26.4330  -15.3560   21.3030 N   0  0  0  0  0  0  0  0  0  0  0  0
  -25.6830  -15.9450   21.6470 H   0  0  0  0  0  0  0  0  0  0  0  0
  -27.3620  -15.7630   21.4420 H   0  0  0  0  0  0  0  0  0  0  0  0
  -28.2190  -21.3670   20.9110 C   0  0  0  0  0  2  0  0  0  0  0  0
  -27.3120  -22.5370   20.5300 C   0  0  0  0  0  2  0  0  0  0  0  0
  -26.3660  -22.9200   21.6860 C   0  0  0  0  0  2  0  0  0  0  0  0
  -25.8680  -24.3750   21.6300 C   0  0  0  0  0  2  0  0  0  0  0  0
  -26.5580  -25.2600   22.6830 C   0  0  0  0  0  2  0  0  0  0  0  0
  -26.8250  -26.7060   22.2300 C   0  0  0  0  0  2  0  0  0  0  0  0
  -28.3220  -27.0800   22.2040 C   0  0  0  0  0  2  0  0  0  0  0  0
  -29.2180  -26.2290   21.2620 C   0  0  0  0  0  2  0  0  0  0  0  0
  -28.6430  -25.9060   19.8630 C   0  0  0  0  0  2  0  0  0  0  0  0
  -28.4660  -27.0690   19.0470 O   0  0  0  0  0  0  0  0  0  0  0  0
  -24.5160  -31.4500   22.9450 C   0  0  0  0  0  0  0  0  0  0  0  0
  -27.2520  -27.6880   19.1780 C   0  0  0  0  0  0  0  0  0  0  0  0
  -23.2990  -30.1740   21.2070 C   0  0  0  0  0  3  0  0  0  0  0  0
  -24.7560  -28.9630   19.4950 C   0  0  0  0  0  0  0  0  0  0  0  0
  -25.7660  -30.7730   20.9020 C   0  0  0  0  0  2  0  0  0  0  0  0
  -25.9040  -29.5080   20.0830 C   0  0  0  0  0  0  0  0  0  0  0  0
  -27.1540  -28.8830   19.9180 C   0  0  0  0  0  3  0  0  0  0  0  0
  -26.0980  -27.1600   18.5590 C   0  0  0  0  0  3  0  0  0  0  0  0
  -24.8490  -27.7930   18.7160 C   0  0  0  0  0  3  0  0  0  0  0  0
  -23.4550  -29.6950   19.7370 C   0  0  0  0  0  2  0  0  0  0  0  0
  -24.5490  -30.8060   21.7440 N   0  0  0  0  0  0  0  0  0  0  0  0
  -23.4610  -31.5550   23.5860 O   0  0  0  0  0  0  0  0  0  0  0  0
  -22.7930  -28.9900   22.0610 C   0  0  0  0  0  0  0  0  0  0  0  0
  -21.4910  -28.6880   21.9520 N   0  0  0  0  0  0  0  0  0  0  0  0
  -23.5700  -28.3530   22.7770 O   0  0  0  0  0  0  0  0  0  0  0  0
  -20.9170  -29.2530   21.3380 H   0  0  0  0  0  0  0  0  0  0  0  0
  -18.3070  -27.0170   22.3030 C   0  0  0  0  0  0  0  0  0  0  0  0
  -20.8080  -27.5890   22.6330 C   0  0  0  0  0  3  0  0  0  0  0  0
  -21.1110  -26.2400   21.9430 C   0  0  0  0  0  2  0  0  0  0  0  0
  -20.0640  -25.8550   20.8950 C   0  0  0  0  0  2  0  0  0  0  0  0
  -18.6710  -25.7640   21.5230 C   0  0  0  0  0  2  0  0  0  0  0  0
  -19.3150  -27.8800   22.8130 C   0  0  0  0  0  0  0  0  0  0  0  0
  -18.9260  -29.0510   23.5000 C   0  0  0  0  0  3  0  0  0  0  0  0
  -17.5670  -29.3620   23.6880 C   0  0  0  0  0  3  0  0  0  0  0  0
  -16.5760  -28.4960   23.1960 C   0  0  0  0  0  3  0  0  0  0  0  0
  -16.9460  -27.3270   22.5090 C   0  0  0  0  0  3  0  0  0  0  0  0
  -25.7940  -32.1000   23.5600 C   0  0  0  0  0  3  0  0  0  0  0  0
  -25.4400  -33.4560   24.0000 N   0  0  0  0  0  0  0  0  0  0  0  0
  -25.7340  -34.5780   23.3260 C   0  0  0  0  0  0  0  0  0  0  0  0
  -26.4130  -34.5790   22.2940 O   0  0  0  0  0  0  0  0  0  0  0  0
  -24.8470  -33.5230   24.8140 H   0  0  0  0  0  0  0  0  0  0  0  0
  -23.9440  -36.3260   23.0940 C   0  0  0  0  0  1  0  0  0  0  0  0
  -25.1920  -35.9080   23.8870 C   0  0  0  0  0  3  0  0  0  0  0  0
  -27.2860  -36.7920   24.8040 C   0  0  0  0  0  1  0  0  0  0  0  0
  -26.1870  -37.0020   23.8710 N   0  0  0  0  0  0  0  0  0  0  0  0
  -25.7490  -37.8910   24.0990 H   0  0  0  0  0  0  0  0  0  0  0  0
  -26.3980  -31.2670   24.7560 C   0  0  1  0  0  0  0  0  0  0  0  0
  -25.3630  -30.9070   25.8490 C   0  0  0  0  0  1  0  0  0  0  0  0
  -27.0130  -29.9470   24.2380 C   0  0  0  0  0  1  0  0  0  0  0  0
  -27.5430  -32.0610   25.4210 C   0  0  0  0  0  1  0  0  0  0  0  0
  1 51  1  0
  2  6  1  0
  3  2  1  0
  4  1  1  0
  4  3  1  0
  5 11  1  0
  5  4  1  0
  5  7  1  0
  6  8  1  0
  7 14  1  6
  7  3  1  0
  7  9  1  0
  9  6  1  0
 11 10  1  0
 12 13  2  0
 12 11  1  0
 14 15  1  0
 15 22  2  0
 15 21  1  0
 16 21  1  0
 17 18  1  0
 17 16  1  0
 19 18  1  0
 19 26  1  0
 19 20  1  0
 21 20  1  0
 23 48  1  0
 23 24  2  0
 24 43  1  0
 25 28  1  0
 25 24  1  0
 26 27  1  0
 26 23  1  0
 27 25  2  0
 28 29  1  0
 29 30  2  0
 31 30  1  0
 32 31  2  0
 33 32  1  0
 33 28  2  0
 34 31  1  0
 34 35  1  0
 35 40  2  0
 35 36  1  0
 36 37  2  0
 37 38  1  0
 38 42  1  0
 39 38  2  0
 40 39  1  0
 41 40  1  0
 43 44  1  0
 44 47  1  0
 44 46  1  0
 45 43  2  0
 48 50  1  0
 48 49  1  0
 52 51  1  0
 52 53  1  0
 54 53  1  0
 54 55  1  0
 56 55  1  0
 57 56  1  0
 58 57  1  0
 59 58  1  0
 60 62  1  0
 60 59  1  0
 61 72  2  0
 62 67  1  0
 63 71  1  0
 63 73  1  0
 64 70  1  0
 64 66  1  0
 65 71  1  0
 66 65  1  0
 67 66  2  0
 68 69  1  0
 68 62  2  0
 69 64  2  0
 70 63  1  0
 71 61  1  0
 73 75  2  0
 74 73  1  0
 76 74  1  0
 77 86  2  0
 77 82  1  0
 78 74  1  0
 78 82  1  0
 79 78  1  0
 80 81  1  0
 80 79  1  0
 81 77  1  0
 82 83  2  0
 83 84  1  0
 85 84  2  0
 86 85  1  0
 87 61  1  0
 87 88  1  0
 87 97  1  0
 88 91  1  0
 89 93  1  0
 89 88  1  0
 90 89  2  0
 93 92  1  0
 95 93  1  0
 95 96  1  0
 95 94  1  0
 97100  1  1
 97 98  1  0
 99 97  1  0
M  ISO  4  14 100  15 100  59 101  60 101
M  END
>  <TORSDO>  (54) 
F 29

>  <SCORE>  (54) 
-5.807

>  <name>  (54) 
53

>  <ligand_id>  (54) 
53

>  <original_smiles>  (54) 
[H]C(=O)C([H])(C([H])([H])[H])C1([H])C([H])(C([H])([H])C([H])([H])C([H])([H])C([H])([H])C([H])([H])C([H])([H])C([H])([H])C([H])([H])C([H])([H])C([H])([H])Oc2c([H])c([H])c3c(c2[H])C([H])([H])N(C(=O)C([H])(N([H])C(=O)C([H])(N([H])C([H])([H])[H])C([H])([H])[H])C(C([H])([H])[H])(C([H])([H])[H])C([H])([H])[H])C([H])(C(=O)N([H])C2([H])c4c([H])c([H])c([H])c([H])c4C([H])([H])C([H])([H])C2([H])[H])C3([H])[H])C2([H])C([H])([H])C([H])(C([H])([H])[H])OC21C([H])([H])C(=O)N1C([H])([H])C([H])([H])C([H])([H])C([H])(n2nc(-c3c([H])c([H])c(Oc4c([H])c([H])c(F)c([H])c4F)c([H])c3[H])c(C(=O)N([H])[H])c2N([H])[H])C1([H])[H]

>  <smiles>  (54) 
[H]C(=O)C([H])(C([H])([H])[H])C1([H])C([H])(C([H])([H])C([H])([H])C([H])([H])C([H])([H])C([H])([H])C([H])([H])C([H])([H])C([H])([H])C([H])([H])C([H])([H])Oc2c([H])c([H])c3c(c2[H])C([H])([H])N(C(=O)C([H])(N([H])C(=O)C([H])(N([H])C([H])([H])[H])C([H])([H])[H])C(C([H])([H])[H])(C([H])([H])[H])C([H])([H])[H])C([H])(C(=O)N([H])C2([H])c4c([H])c([H])c([H])c([H])c4C([H])([H])C([H])([H])C2([H])[H])C3([H])[H])C2([H])C([H])([H])C([H])(C([H])([H])[H])OC21C([H])([H])C(=O)N1C([H])([H])C([H])([H])C([H])([H])C([H])(n2nc(-c3c([H])c([H])c(Oc4c([H])c([H])c(F)c([H])c4F)c([H])c3[H])c(C(=O)N([H])[H])c2N([H])[H])C1([H])[H]

$$$$
54:0:0
     RDKit          3D

 94103  0  0  1  0  0  0  0  0999 V2000
  -28.1980  -20.9990   21.7120 C   0  0  0  0  0  3  0  0  0  0  0  0
  -28.6220  -20.8920   19.3180 C   0  0  0  0  0  3  0  0  0  0  0  0
  -27.9570  -22.3810   21.6060 C   0  0  0  0  0  3  0  0  0  0  0  0
  -28.3690  -22.2760   19.2100 C   0  0  0  0  0  3  0  0  0  0  0  0
  -28.5470  -20.2470   20.5710 C   0  0  0  0  0  0  0  0  0  0  0  0
  -28.0450  -23.0350   20.3590 C   0  0  0  0  0  0  0  0  0  0  0  0
  -28.8160  -18.7530   20.6890 C   0  0  0  0  0  2  0  0  0  0  0  0
  -30.0440  -18.4210   21.5610 C   0  0  0  0  0  2  0  0  0  0  0  0
  -32.4090  -15.6680   22.1910 C   0  0  0  0  0  2  0  0  0  0  0  0
  -31.3860  -16.6370   22.7860 C   0  0  0  0  0  2  0  0  0  0  0  0
  -32.3800  -15.9650   20.6970 C   0  0  0  0  0  2  0  0  0  0  0  0
  -30.3390  -16.9110   21.6850 C   0  0  0  0  0  3  0  0  0  0  0  0
  -30.9070  -16.2720   20.3940 C   0  0  0  0  0  3  0  0  0  0  0  0
  -30.3360  -14.2970   18.9850 C   0  0  0  0  0  0  0  0  0  0  0  0
  -29.6910  -12.2110   17.8410 C   0  0  0  0  0  2  0  0  0  0  0  0
  -28.5080  -12.4440   16.8840 C   0  0  0  0  0  2  0  0  0  0  0  0
  -27.1700  -12.3000   17.6350 C   0  0  0  0  0  2  0  0  0  0  0  0
  -27.1300  -13.1330   18.9430 C   0  0  0  0  0  3  0  0  0  0  0  0
  -28.4000  -12.8930   19.7890 C   0  0  0  0  0  2  0  0  0  0  0  0
  -29.5830  -13.1690   18.9500 N   0  0  0  0  0  0  0  0  0  0  0  0
  -31.1530  -14.6000   18.1090 O   0  0  0  0  0  0  0  0  0  0  0  0
  -30.1820  -15.0420   20.0830 N   0  0  0  0  0  0  0  0  0  0  0  0
  -29.5180  -14.7100   20.7640 H   0  0  0  0  0  0  0  0  0  0  0  0
  -24.9800  -13.7500   20.2230 C   0  0  0  0  0  0  0  0  0  0  0  0
  -24.0060  -12.9780   20.7970 C   0  0  0  0  0  0  0  0  0  0  0  0
  -24.4040  -11.6210   20.5920 C   0  0  0  0  0  0  0  0  0  0  0  0
  -25.9150  -12.8630   19.7100 N   0  0  0  0  0  0  0  0  0  0  0  0
  -25.5840  -11.5750   19.9850 N   0  0  0  0  0  0  0  0  0  0  0  0
  -23.7050  -10.3640   20.8890 C   0  0  0  0  0  0  0  0  0  0  0  0
  -24.2490   -9.4090   21.7760 C   0  0  0  0  0  3  0  0  0  0  0  0
  -23.5510   -8.2150   22.0590 C   0  0  0  0  0  3  0  0  0  0  0  0
  -22.2950   -7.9690   21.4560 C   0  0  0  0  0  0  0  0  0  0  0  0
  -21.7690   -8.9130   20.5560 C   0  0  0  0  0  3  0  0  0  0  0  0
  -22.4670  -10.0970   20.2720 C   0  0  0  0  0  3  0  0  0  0  0  0
  -21.5570   -6.8260   21.6500 O   0  0  0  0  0  0  0  0  0  0  0  0
  -21.5790   -6.1490   22.8430 C   0  0  0  0  0  0  0  0  0  0  0  0
  -21.1940   -6.7630   24.0550 C   0  0  0  0  0  3  0  0  0  0  0  0
  -21.1650   -6.0100   25.2460 C   0  0  0  0  0  3  0  0  0  0  0  0
  -21.5120   -4.6450   25.2270 C   0  0  0  0  0  0  0  0  0  0  0  0
  -21.8910   -4.0320   24.0200 C   0  0  0  0  0  3  0  0  0  0  0  0
  -21.9210   -4.7820   22.8300 C   0  0  0  0  0  0  0  0  0  0  0  0
  -22.2670   -4.1810   21.6660 F   0  0  0  0  0  0  0  0  0  0  0  0
  -21.4770   -3.9210   26.3690 F   0  0  0  0  0  0  0  0  0  0  0  0
  -22.7270  -13.4650   21.4160 C   0  0  0  0  0  0  0  0  0  0  0  0
  -22.2210  -12.7540   22.4170 N   0  0  0  0  0  0  0  0  0  0  0  0
  -22.1940  -14.5090   21.0430 O   0  0  0  0  0  0  0  0  0  0  0  0
  -22.6670  -11.9060   22.7350 H   0  0  0  0  0  0  0  0  0  0  0  0
  -21.3710  -13.0600   22.8720 H   0  0  0  0  0  0  0  0  0  0  0  0
  -25.1420  -15.1250   20.0800 N   0  0  0  0  0  0  0  0  0  0  0  0
  -24.4480  -15.7880   20.4080 H   0  0  0  0  0  0  0  0  0  0  0  0
  -25.9110  -15.5640   19.5900 H   0  0  0  0  0  0  0  0  0  0  0  0
  -27.8000  -24.5420   20.3270 C   0  0  0  0  0  2  0  0  0  0  0  0
  -28.1100  -25.2730   19.0030 C   0  0  0  0  0  2  0  0  0  0  0  0
  -28.1220  -26.6890   19.1850 O   0  0  0  0  0  0  0  0  0  0  0  0
  -24.7850  -31.5830   23.0780 C   0  0  0  0  0  0  0  0  0  0  0  0
  -26.9430  -27.3790   19.3640 C   0  0  0  0  0  0  0  0  0  0  0  0
  -23.3660  -30.3720   21.4510 C   0  0  0  0  0  3  0  0  0  0  0  0
  -24.6080  -28.9240   19.7610 C   0  0  0  0  0  0  0  0  0  0  0  0
  -25.8660  -30.6800   21.0210 C   0  0  0  0  0  2  0  0  0  0  0  0
  -25.8350  -29.3690   20.2660 C   0  0  0  0  0  0  0  0  0  0  0  0
  -27.0020  -28.6030   20.0640 C   0  0  0  0  0  3  0  0  0  0  0  0
  -25.6940  -26.9380   18.8660 C   0  0  0  0  0  3  0  0  0  0  0  0
  -24.5300  -27.7050   19.0640 C   0  0  0  0  0  3  0  0  0  0  0  0
  -23.4070  -29.8080   20.0060 C   0  0  0  0  0  2  0  0  0  0  0  0
  -24.6980  -30.8870   21.9080 N   0  0  0  0  0  0  0  0  0  0  0  0
  -23.7740  -31.8370   23.7470 O   0  0  0  0  0  0  0  0  0  0  0  0
  -22.7740  -29.2900   22.3830 C   0  0  0  0  0  0  0  0  0  0  0  0
  -21.4520  -29.0800   22.2880 N   0  0  0  0  0  0  0  0  0  0  0  0
  -23.5010  -28.6450   23.1430 O   0  0  0  0  0  0  0  0  0  0  0  0
  -20.9270  -29.6550   21.6430 H   0  0  0  0  0  0  0  0  0  0  0  0
  -18.1470  -27.6900   22.7290 C   0  0  0  0  0  0  0  0  0  0  0  0
  -20.6830  -28.0860   23.0340 C   0  0  0  0  0  3  0  0  0  0  0  0
  -20.8730  -26.6740   22.4350 C   0  0  0  0  0  2  0  0  0  0  0  0
  -19.8000  -26.3050   21.4050 C   0  0  0  0  0  2  0  0  0  0  0  0
  -18.4050  -26.3640   22.0350 C   0  0  0  0  0  2  0  0  0  0  0  0
  -19.2170  -28.5060   23.1840 C   0  0  0  0  0  0  0  0  0  0  0  0
  -18.9240  -29.7460   23.7910 C   0  0  0  0  0  3  0  0  0  0  0  0
  -17.5920  -30.1740   23.9490 C   0  0  0  0  0  3  0  0  0  0  0  0
  -16.5360  -29.3560   23.5130 C   0  0  0  0  0  3  0  0  0  0  0  0
  -16.8130  -28.1160   22.9090 C   0  0  0  0  0  3  0  0  0  0  0  0
  -26.1510  -32.1140   23.6170 C   0  0  0  0  0  3  0  0  0  0  0  0
  -25.9330  -33.4870   24.0930 N   0  0  0  0  0  0  0  0  0  0  0  0
  -26.2400  -34.5910   23.3990 C   0  0  0  0  0  0  0  0  0  0  0  0
  -26.8120  -34.5560   22.3050 O   0  0  0  0  0  0  0  0  0  0  0  0
  -25.4220  -33.5890   24.9570 H   0  0  0  0  0  0  0  0  0  0  0  0
  -24.5650  -36.4650   23.3600 C   0  0  0  0  0  1  0  0  0  0  0  0
  -25.8530  -35.9470   24.0170 C   0  0  0  0  0  3  0  0  0  0  0  0
  -28.0870  -36.6780   24.7260 C   0  0  0  0  0  1  0  0  0  0  0  0
  -26.9160  -36.9690   23.9040 N   0  0  0  0  0  0  0  0  0  0  0  0
  -26.5620  -37.8850   24.1690 H   0  0  0  0  0  0  0  0  0  0  0  0
  -26.7620  -31.2140   24.7610 C   0  0  1  0  0  0  0  0  0  0  0  0
  -25.7600  -30.8770   25.8900 C   0  0  0  0  0  1  0  0  0  0  0  0
  -27.2860  -29.8810   24.1780 C   0  0  0  0  0  1  0  0  0  0  0  0
  -27.9750  -31.9310   25.4000 C   0  0  0  0  0  1  0  0  0  0  0  0
  2  5  1  0
  3  1  1  0
  4  2  2  0
  4  6  1  0
  5  7  1  0
  5  1  2  0
  6  3  2  0
  7  8  1  0
  9 10  1  0
 11  9  1  0
 12  8  1  0
 12 10  1  0
 13 22  1  0
 13 11  1  0
 13 12  1  0
 14 22  1  0
 15 20  1  0
 16 17  1  0
 16 15  1  0
 18 17  1  0
 18 27  1  0
 18 19  1  0
 20 14  1  0
 20 19  1  0
 21 14  2  0
 22 23  1  0
 24 25  2  0
 25 44  1  0
 26 25  1  0
 26 29  1  0
 27 28  1  0
 27 24  1  0
 28 26  2  0
 29 30  1  0
 30 31  2  0
 32 35  1  0
 32 31  1  0
 33 32  2  0
 34 33  1  0
 34 29  2  0
 35 36  1  0
 36 37  1  0
 37 38  2  0
 39 38  1  0
 39 43  1  0
 40 39  2  0
 41 36  2  0
 41 40  1  0
 42 41  1  0
 44 45  1  0
 45 47  1  0
 45 48  1  0
 46 44  2  0
 49 24  1  0
 49 50  1  0
 51 49  1  0
 52  6  1  0
 53 54  1  0
 53 52  1  0
 54 56  1  0
 55 66  2  0
 56 61  1  0
 57 65  1  0
 57 67  1  0
 58 64  1  0
 58 60  1  0
 59 65  1  0
 60 59  1  0
 61 60  2  0
 62 63  1  0
 62 56  2  0
 63 58  2  0
 64 57  1  0
 65 55  1  0
 67 69  2  0
 68 67  1  0
 70 68  1  0
 71 80  2  0
 71 76  1  0
 72 68  1  0
 72 76  1  0
 73 72  1  0
 74 75  1  0
 74 73  1  0
 75 71  1  0
 76 77  2  0
 77 78  1  0
 79 78  2  0
 80 79  1  0
 81 55  1  0
 81 82  1  0
 81 91  1  0
 82 85  1  0
 83 87  1  0
 83 82  1  0
 84 83  2  0
 87 86  1  0
 89 87  1  0
 89 90  1  0
 89 88  1  0
 91 94  1  1
 91 92  1  0
 93 91  1  0
M  ISO  4  14 100  22 100  53 101  54 101
M  END
>  <TORSDO>  (55) 
F 21

>  <SCORE>  (55) 
-5.885

>  <name>  (55) 
54

>  <ligand_id>  (55) 
54

>  <original_smiles>  (55) 
[H]c1c([H])c([H])c2c(c1[H])C([H])([H])C([H])([H])C([H])([H])C2([H])N([H])C(=O)C1([H])N(C(=O)C([H])(N([H])C(=O)C([H])(N([H])C([H])([H])[H])C([H])([H])[H])C(C([H])([H])[H])(C([H])([H])[H])C([H])([H])[H])C([H])([H])c2c([H])c(OC([H])([H])C([H])([H])c3c([H])c([H])c(C([H])([H])C([H])([H])C4([H])C([H])([H])C([H])([H])C([H])([H])C4([H])N([H])C(=O)N4C([H])([H])C([H])([H])C([H])([H])C([H])(n5nc(-c6c([H])c([H])c(Oc7c([H])c([H])c(F)c([H])c7F)c([H])c6[H])c(C(=O)N([H])[H])c5N([H])[H])C4([H])[H])c([H])c3[H])c([H])c([H])c2C1([H])[H]

>  <smiles>  (55) 
[H]c1c([H])c([H])c2c(c1[H])C([H])([H])C([H])([H])C([H])([H])C2([H])N([H])C(=O)C1([H])N(C(=O)C([H])(N([H])C(=O)C([H])(N([H])C([H])([H])[H])C([H])([H])[H])C(C([H])([H])[H])(C([H])([H])[H])C([H])([H])[H])C([H])([H])c2c([H])c(OC([H])([H])C([H])([H])c3c([H])c([H])c(C([H])([H])C([H])([H])C4([H])C([H])([H])C([H])([H])C([H])([H])C4([H])N([H])C(=O)N4C([H])([H])C([H])([H])C([H])([H])C([H])(n5nc(-c6c([H])c([H])c(Oc7c([H])c([H])c(F)c([H])c7F)c([H])c6[H])c(C(=O)N([H])[H])c5N([H])[H])C4([H])[H])c([H])c3[H])c([H])c([H])c2C1([H])[H]

$$$$
55:0:0
     RDKit          3D

 92 99  0  0  1  0  0  0  0  0999 V2000
  -27.6800  -20.6820   16.3340 C   0  0  0  0  0  3  0  0  0  0  0  0
  -27.1290  -21.2680   17.4090 C   0  0  0  0  0  3  0  0  0  0  0  0
  -27.3800  -19.2990   15.9560 C   0  0  0  0  0  0  0  0  0  0  0  0
  -26.2430  -18.8200   15.9380 O   0  0  0  0  0  0  0  0  0  0  0  0
  -28.5780  -18.4190   15.6060 C   0  0  0  0  0  2  0  0  0  0  0  0
  -29.0040  -17.4860   16.7540 C   0  0  0  0  0  2  0  0  0  0  0  0
  -29.3210  -18.1690   18.1040 C   0  0  0  0  0  2  0  0  0  0  0  0
  -30.0630  -17.1930   19.0240 C   0  0  0  0  0  2  0  0  0  0  0  0
  -30.0460  -17.5130   20.5360 C   0  0  0  0  0  2  0  0  0  0  0  0
  -29.9830  -16.2520   21.4440 C   0  0  0  0  0  2  0  0  0  0  0  0
  -30.7580  -15.0520   20.8600 C   0  0  0  0  0  0  0  0  0  0  0  0
  -30.5190  -13.0620   19.4390 C   0  0  0  0  0  2  0  0  0  0  0  0
  -29.5970  -13.4230   18.2550 C   0  0  0  0  0  2  0  0  0  0  0  0
  -28.1100  -13.2380   18.6290 C   0  0  0  0  0  2  0  0  0  0  0  0
  -27.7370  -13.8680   19.9990 C   0  0  0  0  0  3  0  0  0  0  0  0
  -28.7810  -13.5020   21.0800 C   0  0  0  0  0  2  0  0  0  0  0  0
  -30.1130  -13.8880   20.5870 N   0  0  0  0  0  0  0  0  0  0  0  0
  -31.9130  -15.2720   20.4870 O   0  0  0  0  0  0  0  0  0  0  0  0
  -25.3000  -14.3530   20.6640 C   0  0  0  0  0  0  0  0  0  0  0  0
  -24.2430  -13.5240   20.9240 C   0  0  0  0  0  0  0  0  0  0  0  0
  -24.7480  -12.1940   20.7950 C   0  0  0  0  0  0  0  0  0  0  0  0
  -26.3800  -13.5200   20.4030 N   0  0  0  0  0  0  0  0  0  0  0  0
  -26.0480  -12.2130   20.5340 N   0  0  0  0  0  0  0  0  0  0  0  0
  -24.0570  -10.9000   20.8480 C   0  0  0  0  0  0  0  0  0  0  0  0
  -24.4490   -9.8930   21.7580 C   0  0  0  0  0  3  0  0  0  0  0  0
  -23.7590   -8.6630   21.8030 C   0  0  0  0  0  3  0  0  0  0  0  0
  -22.6640   -8.4320   20.9380 C   0  0  0  0  0  0  0  0  0  0  0  0
  -22.2930   -9.4300   20.0180 C   0  0  0  0  0  3  0  0  0  0  0  0
  -22.9850  -10.6510   19.9690 C   0  0  0  0  0  3  0  0  0  0  0  0
  -21.9490   -7.2590   20.8960 O   0  0  0  0  0  0  0  0  0  0  0  0
  -21.6780   -6.5400   22.0330 C   0  0  0  0  0  0  0  0  0  0  0  0
  -20.9980   -7.1120   23.1300 C   0  0  0  0  0  3  0  0  0  0  0  0
  -20.6760   -6.3190   24.2500 C   0  0  0  0  0  3  0  0  0  0  0  0
  -21.0260   -4.9550   24.2710 C   0  0  0  0  0  0  0  0  0  0  0  0
  -21.6990   -4.3840   23.1780 C   0  0  0  0  0  3  0  0  0  0  0  0
  -22.0210   -5.1740   22.0600 C   0  0  0  0  0  0  0  0  0  0  0  0
  -22.6510   -4.6130   21.0000 F   0  0  0  0  0  0  0  0  0  0  0  0
  -20.7110   -4.1910   25.3420 F   0  0  0  0  0  0  0  0  0  0  0  0
  -22.8230  -13.9360   21.1860 C   0  0  0  0  0  0  0  0  0  0  0  0
  -22.0970  -13.1600   21.9850 N   0  0  0  0  0  0  0  0  0  0  0  0
  -22.3630  -14.9790   20.7210 O   0  0  0  0  0  0  0  0  0  0  0  0
  -22.4810  -12.3150   22.3800 H   0  0  0  0  0  0  0  0  0  0  0  0
  -21.1450  -13.4140   22.2010 H   0  0  0  0  0  0  0  0  0  0  0  0
  -25.4290  -15.7390   20.6110 N   0  0  0  0  0  0  0  0  0  0  0  0
  -24.6410  -16.3640   20.7380 H   0  0  0  0  0  0  0  0  0  0  0  0
  -26.2810  -16.2250   20.3640 H   0  0  0  0  0  0  0  0  0  0  0  0
  -27.4530  -22.6820   17.8300 C   0  0  0  0  0  2  0  0  0  0  0  0
  -28.6350  -22.7170   18.8070 C   0  0  0  0  0  2  0  0  0  0  0  0
  -29.3360  -24.0850   18.8120 C   0  0  0  0  0  2  0  0  0  0  0  0
  -29.2140  -24.8340   20.1470 C   0  0  0  0  0  2  0  0  0  0  0  0
  -29.5540  -26.3220   19.9780 C   0  0  0  0  0  2  0  0  0  0  0  0
  -29.0600  -27.1090   21.0540 O   0  0  0  0  0  0  0  0  0  0  0  0
  -24.4560  -31.8550   23.6090 C   0  0  0  0  0  0  0  0  0  0  0  0
  -27.7960  -27.6410   20.9340 C   0  0  0  0  0  0  0  0  0  0  0  0
  -23.5350  -30.2660   21.9500 C   0  0  0  0  0  3  0  0  0  0  0  0
  -25.2490  -28.8440   20.7120 C   0  0  0  0  0  0  0  0  0  0  0  0
  -26.0110  -30.8950   21.9190 C   0  0  0  0  0  2  0  0  0  0  0  0
  -26.2880  -29.5160   21.3660 C   0  0  0  0  0  0  0  0  0  0  0  0
  -27.5550  -28.9100   21.4960 C   0  0  0  0  0  3  0  0  0  0  0  0
  -26.7370  -26.9730   20.2740 C   0  0  0  0  0  3  0  0  0  0  0  0
  -25.4670  -27.5660   20.1700 C   0  0  0  0  0  3  0  0  0  0  0  0
  -23.9210  -29.5570   20.6240 C   0  0  0  0  0  2  0  0  0  0  0  0
  -24.6790  -31.0250   22.5510 N   0  0  0  0  0  0  0  0  0  0  0  0
  -23.3140  -32.0280   24.0550 O   0  0  0  0  0  0  0  0  0  0  0  0
  -22.9240  -29.2170   22.9080 C   0  0  0  0  0  0  0  0  0  0  0  0
  -21.7370  -28.7040   22.5510 N   0  0  0  0  0  0  0  0  0  0  0  0
  -23.5290  -28.8630   23.9240 O   0  0  0  0  0  0  0  0  0  0  0  0
  -21.3030  -29.0540   21.7090 H   0  0  0  0  0  0  0  0  0  0  0  0
  -18.8040  -26.6010   22.4190 C   0  0  0  0  0  0  0  0  0  0  0  0
  -20.9920  -27.6750   23.2770 C   0  0  0  0  0  3  0  0  0  0  0  0
  -21.6330  -26.2820   23.0840 C   0  0  0  0  0  2  0  0  0  0  0  0
  -21.0250  -25.4950   21.9180 C   0  0  0  0  0  2  0  0  0  0  0  0
  -19.5220  -25.2920   22.1340 C   0  0  0  0  0  2  0  0  0  0  0  0
  -19.4970  -27.7240   22.9400 C   0  0  0  0  0  0  0  0  0  0  0  0
  -18.7900  -28.9280   23.1520 C   0  0  0  0  0  3  0  0  0  0  0  0
  -17.4180  -29.0190   22.8540 C   0  0  0  0  0  3  0  0  0  0  0  0
  -16.7310  -27.8980   22.3550 C   0  0  0  0  0  3  0  0  0  0  0  0
  -17.4230  -26.6920   22.1430 C   0  0  0  0  0  3  0  0  0  0  0  0
  -25.6180  -32.6430   24.2910 C   0  0  0  0  0  3  0  0  0  0  0  0
  -25.9830  -32.0970   25.7260 C   0  0  1  0  0  0  0  0  0  0  0  0
  -24.7570  -31.8960   26.6440 C   0  0  0  0  0  1  0  0  0  0  0  0
  -26.7210  -30.7430   25.6180 C   0  0  0  0  0  1  0  0  0  0  0  0
  -26.9540  -33.0750   26.4290 C   0  0  0  0  0  1  0  0  0  0  0  0
  -25.2170  -34.0540   24.3560 N   0  0  0  0  0  0  0  0  0  0  0  0
  -25.6280  -35.0010   23.5040 C   0  0  0  0  0  0  0  0  0  0  0  0
  -26.4540  -34.7870   22.6120 O   0  0  0  0  0  0  0  0  0  0  0  0
  -24.5040  -34.2920   25.0300 H   0  0  0  0  0  0  0  0  0  0  0  0
  -23.9270  -36.6230   22.6130 C   0  0  0  0  0  1  0  0  0  0  0  0
  -25.0270  -36.4100   23.6650 C   0  0  0  0  0  3  0  0  0  0  0  0
  -26.9640  -37.5190   24.6870 C   0  0  0  0  0  1  0  0  0  0  0  0
  -26.0300  -37.4920   23.5640 N   0  0  0  0  0  0  0  0  0  0  0  0
  -25.5750  -38.3990   23.5090 H   0  0  0  0  0  0  0  0  0  0  0  0
  1  2  2  0
  2 47  1  0
  3  1  1  0
  4  3  2  0
  5  3  1  0
  5  6  1  0
  6  7  1  0
  7  8  1  0
  8  9  1  0
  9 10  1  0
 11 10  1  0
 12 17  1  0
 13 14  1  0
 13 12  1  0
 15 14  1  0
 15 22  1  0
 15 16  1  0
 17 11  1  0
 17 16  1  0
 18 11  2  0
 19 20  2  0
 20 39  1  0
 21 24  1  0
 21 20  1  0
 22 23  1  0
 22 19  1  0
 23 21  2  0
 24 25  1  0
 25 26  2  0
 27 26  1  0
 28 27  2  0
 29 28  1  0
 29 24  2  0
 30 27  1  0
 30 31  1  0
 31 36  2  0
 31 32  1  0
 32 33  2  0
 33 34  1  0
 34 38  1  0
 35 34  2  0
 36 35  1  0
 37 36  1  0
 39 40  1  0
 40 43  1  0
 40 42  1  0
 41 39  2  0
 44 19  1  0
 44 45  1  0
 46 44  1  0
 47 48  1  0
 48 49  1  0
 49 50  1  0
 51 50  1  0
 51 52  1  0
 53 64  2  0
 54 52  1  0
 54 59  1  0
 55 63  1  0
 55 65  1  0
 56 58  1  0
 57 63  1  0
 58 59  2  0
 58 57  1  0
 60 54  2  0
 61 60  1  0
 61 56  2  0
 62 56  1  0
 62 55  1  0
 63 53  1  0
 65 67  2  0
 66 65  1  0
 68 66  1  0
 69 74  1  0
 70 66  1  0
 71 70  1  0
 72 73  1  0
 72 71  1  0
 73 69  1  0
 74 75  2  0
 74 70  1  0
 76 75  1  0
 77 76  2  0
 78 77  1  0
 78 69  2  0
 79 53  1  0
 79 84  1  0
 79 80  1  0
 80 83  1  1
 80 81  1  0
 82 80  1  0
 84 87  1  0
 85 89  1  0
 85 84  1  0
 86 85  2  0
 89 88  1  0
 91 89  1  0
 91 90  1  0
 92 91  1  0
M  ISO  4  10 100  11 100  51 101  52 101
M  END
>  <TORSDO>  (56) 
F 28

>  <SCORE>  (56) 
-6.016

>  <name>  (56) 
55

>  <ligand_id>  (56) 
55

>  <original_smiles>  (56) 
[H]C(C(=O)C([H])([H])C([H])([H])C([H])([H])C([H])([H])C([H])([H])C([H])([H])C(=O)N1C([H])([H])C([H])([H])C([H])([H])C([H])(n2nc(-c3c([H])c([H])c(Oc4c([H])c([H])c(F)c([H])c4F)c([H])c3[H])c(C(=O)N([H])[H])c2N([H])[H])C1([H])[H])=C([H])C([H])([H])C([H])([H])C([H])([H])C([H])([H])C([H])([H])Oc1c([H])c([H])c2c(c1[H])C([H])([H])N(C(=O)C([H])(N([H])C(=O)C([H])(N([H])C([H])([H])[H])C([H])([H])[H])C(C([H])([H])[H])(C([H])([H])[H])C([H])([H])[H])C([H])(C(=O)N([H])C1([H])c3c([H])c([H])c([H])c([H])c3C([H])([H])C([H])([H])C1([H])[H])C2([H])[H]

>  <smiles>  (56) 
[H]C(C(=O)C([H])([H])C([H])([H])C([H])([H])C([H])([H])C([H])([H])C([H])([H])C(=O)N1C([H])([H])C([H])([H])C([H])([H])C([H])(n2nc(-c3c([H])c([H])c(Oc4c([H])c([H])c(F)c([H])c4F)c([H])c3[H])c(C(=O)N([H])[H])c2N([H])[H])C1([H])[H])=C([H])C([H])([H])C([H])([H])C([H])([H])C([H])([H])C([H])([H])Oc1c([H])c([H])c2c(c1[H])C([H])([H])N(C(=O)C([H])(N([H])C(=O)C([H])(N([H])C([H])([H])[H])C([H])([H])[H])C(C([H])([H])[H])(C([H])([H])[H])C([H])([H])[H])C([H])(C(=O)N([H])C1([H])c3c([H])c([H])c([H])c([H])c3C([H])([H])C([H])([H])C1([H])[H])C2([H])[H]

$$$$
56:0:0
     RDKit          3D

 90 97  0  0  1  0  0  0  0  0999 V2000
  -28.4640  -21.7030   19.0700 C   0  0  0  0  0  2  0  0  0  0  0  0
  -28.7200  -23.1830   18.7140 C   0  0  0  0  0  2  0  0  0  0  0  0
  -28.0420  -24.2710   19.5730 C   0  0  0  0  0  2  0  0  0  0  0  0
  -28.5410  -25.6750   19.1360 C   0  0  0  0  0  2  0  0  0  0  0  0
  -28.3650  -26.7120   20.1090 O   0  0  0  0  0  0  0  0  0  0  0  0
  -24.5830  -31.8850   23.2360 C   0  0  0  0  0  0  0  0  0  0  0  0
  -27.1860  -27.4290   20.1210 C   0  0  0  0  0  0  0  0  0  0  0  0
  -23.3650  -30.4940   21.5990 C   0  0  0  0  0  3  0  0  0  0  0  0
  -24.8010  -28.9520   20.1680 C   0  0  0  0  0  0  0  0  0  0  0  0
  -25.8960  -30.8280   21.4020 C   0  0  0  0  0  2  0  0  0  0  0  0
  -25.9660  -29.4580   20.7600 C   0  0  0  0  0  0  0  0  0  0  0  0
  -27.1580  -28.6980   20.7480 C   0  0  0  0  0  3  0  0  0  0  0  0
  -26.0000  -26.9400   19.5310 C   0  0  0  0  0  3  0  0  0  0  0  0
  -24.8130  -27.6890   19.5600 C   0  0  0  0  0  3  0  0  0  0  0  0
  -23.5670  -29.8210   20.2160 C   0  0  0  0  0  2  0  0  0  0  0  0
  -24.6320  -31.0830   22.1360 N   0  0  0  0  0  0  0  0  0  0  0  0
  -23.5050  -32.1630   23.7810 O   0  0  0  0  0  0  0  0  0  0  0  0
  -22.7120  -29.4730   22.5560 C   0  0  0  0  0  0  0  0  0  0  0  0
  -21.3900  -29.2890   22.4290 N   0  0  0  0  0  0  0  0  0  0  0  0
  -23.3960  -28.8420   23.3680 O   0  0  0  0  0  0  0  0  0  0  0  0
  -20.9030  -29.8480   21.7420 H   0  0  0  0  0  0  0  0  0  0  0  0
  -18.0260  -28.0710   22.9150 C   0  0  0  0  0  0  0  0  0  0  0  0
  -20.5780  -28.3450   23.2010 C   0  0  0  0  0  3  0  0  0  0  0  0
  -20.6910  -26.9100   22.6340 C   0  0  0  0  0  2  0  0  0  0  0  0
  -19.5990  -26.5820   21.6080 C   0  0  0  0  0  2  0  0  0  0  0  0
  -18.2110  -26.7200   22.2420 C   0  0  0  0  0  2  0  0  0  0  0  0
  -19.1380  -28.8420   23.3500 C   0  0  0  0  0  0  0  0  0  0  0  0
  -18.9120  -30.1070   23.9310 C   0  0  0  0  0  3  0  0  0  0  0  0
  -17.6040  -30.6050   24.0840 C   0  0  0  0  0  3  0  0  0  0  0  0
  -16.5050  -29.8330   23.6670 C   0  0  0  0  0  3  0  0  0  0  0  0
  -16.7190  -28.5700   23.0860 C   0  0  0  0  0  3  0  0  0  0  0  0
  -25.8740  -32.5140   23.8480 C   0  0  0  0  0  3  0  0  0  0  0  0
  -25.5700  -33.9100   24.1880 N   0  0  0  0  0  0  0  0  0  0  0  0
  -25.8980  -34.9650   23.4290 C   0  0  0  0  0  0  0  0  0  0  0  0
  -26.5600  -34.8670   22.3940 O   0  0  0  0  0  0  0  0  0  0  0  0
  -24.9770  -34.0620   24.9910 H   0  0  0  0  0  0  0  0  0  0  0  0
  -24.1660  -36.7590   23.0900 C   0  0  0  0  0  1  0  0  0  0  0  0
  -25.4120  -36.3510   23.8930 C   0  0  0  0  0  3  0  0  0  0  0  0
  -27.5550  -37.2320   24.7040 C   0  0  0  0  0  1  0  0  0  0  0  0
  -26.4440  -37.4050   23.7730 N   0  0  0  0  0  0  0  0  0  0  0  0
  -26.0390  -38.3240   23.9280 H   0  0  0  0  0  0  0  0  0  0  0  0
  -26.4020  -31.7360   25.1160 C   0  0  1  0  0  0  0  0  0  0  0  0
  -25.3190  -31.4960   26.1950 C   0  0  0  0  0  1  0  0  0  0  0  0
  -26.9780  -30.3570   24.7130 C   0  0  0  0  0  1  0  0  0  0  0  0
  -27.5570  -32.5290   25.7740 C   0  0  0  0  0  1  0  0  0  0  0  0
  -28.7330  -21.2860   20.5320 C   0  0  0  0  0  2  0  0  0  0  0  0
  -28.7810  -19.7500   20.7260 C   0  0  0  0  0  2  0  0  0  0  0  0
  -31.3510  -19.5820   20.7180 C   0  0  0  0  0  1  0  0  0  0  0  0
  -30.0300  -19.0440   20.1270 C   0  0  0  0  0  3  0  0  0  0  0  0
  -29.8780  -17.4950   20.1380 C   0  0  0  0  0  2  0  0  0  0  0  0
  -30.5530  -16.9790   22.6060 C   0  0  0  0  0  1  0  0  0  0  0  0
  -30.7430  -16.6540   21.1170 C   0  0  0  0  0  3  0  0  0  0  0  0
  -30.9970  -14.3510   20.1900 C   0  0  0  0  0  0  0  0  0  0  0  0
  -30.6080  -12.2470   18.9860 C   0  0  0  0  0  2  0  0  0  0  0  0
  -29.6320  -12.5020   17.8140 C   0  0  0  0  0  2  0  0  0  0  0  0
  -28.1600  -12.4250   18.2790 C   0  0  0  0  0  2  0  0  0  0  0  0
  -27.8910  -13.2510   19.5660 C   0  0  0  0  0  3  0  0  0  0  0  0
  -28.9620  -12.9390   20.6400 C   0  0  0  0  0  2  0  0  0  0  0  0
  -30.2900  -13.2040   20.0510 N   0  0  0  0  0  0  0  0  0  0  0  0
  -32.0580  -14.5890   19.6040 O   0  0  0  0  0  0  0  0  0  0  0  0
  -30.3860  -15.2600   20.9510 N   0  0  0  0  0  0  0  0  0  0  0  0
  -29.5170  -14.9670   21.3710 H   0  0  0  0  0  0  0  0  0  0  0  0
  -25.5250  -13.9530   20.3200 C   0  0  0  0  0  0  0  0  0  0  0  0
  -24.4380  -13.2160   20.7160 C   0  0  0  0  0  0  0  0  0  0  0  0
  -24.8550  -11.8510   20.6810 C   0  0  0  0  0  0  0  0  0  0  0  0
  -26.5370  -13.0340   20.0750 N   0  0  0  0  0  0  0  0  0  0  0  0
  -26.1380  -11.7660   20.3490 N   0  0  0  0  0  0  0  0  0  0  0  0
  -24.0980  -10.6130   20.9040 C   0  0  0  0  0  0  0  0  0  0  0  0
  -24.5260   -9.6470   21.8400 C   0  0  0  0  0  3  0  0  0  0  0  0
  -23.7710   -8.4710   22.0500 C   0  0  0  0  0  3  0  0  0  0  0  0
  -22.5760   -8.2560   21.3230 C   0  0  0  0  0  0  0  0  0  0  0  0
  -22.1680   -9.2130   20.3770 C   0  0  0  0  0  3  0  0  0  0  0  0
  -22.9210  -10.3800   20.1680 C   0  0  0  0  0  3  0  0  0  0  0  0
  -21.7950   -7.1330   21.4390 O   0  0  0  0  0  0  0  0  0  0  0  0
  -21.7450   -6.4070   22.6020 C   0  0  0  0  0  0  0  0  0  0  0  0
  -21.3670   -6.9940   23.8290 C   0  0  0  0  0  3  0  0  0  0  0  0
  -21.2620   -6.1980   24.9870 C   0  0  0  0  0  3  0  0  0  0  0  0
  -21.5210   -4.8150   24.9180 C   0  0  0  0  0  0  0  0  0  0  0  0
  -21.8830   -4.2300   23.6930 C   0  0  0  0  0  3  0  0  0  0  0  0
  -21.9930   -5.0210   22.5380 C   0  0  0  0  0  0  0  0  0  0  0  0
  -22.3260   -4.4460   21.3580 F   0  0  0  0  0  0  0  0  0  0  0  0
  -21.4100   -4.0490   26.0270 F   0  0  0  0  0  0  0  0  0  0  0  0
  -23.0630  -13.7420   21.0080 C   0  0  0  0  0  0  0  0  0  0  0  0
  -22.3350  -13.0850   21.9050 N   0  0  0  0  0  0  0  0  0  0  0  0
  -22.6420  -14.7710   20.4820 O   0  0  0  0  0  0  0  0  0  0  0  0
  -22.6870  -12.2580   22.3600 H   0  0  0  0  0  0  0  0  0  0  0  0
  -21.4140  -13.4240   22.1430 H   0  0  0  0  0  0  0  0  0  0  0  0
  -25.7330  -15.3150   20.1350 N   0  0  0  0  0  0  0  0  0  0  0  0
  -25.0100  -16.0010   20.3210 H   0  0  0  0  0  0  0  0  0  0  0  0
  -26.6030  -15.7330   19.8270 H   0  0  0  0  0  0  0  0  0  0  0  0
  1 46  1  0
  2  1  1  0
  2  3  1  0
  4  3  1  0
  4  5  1  0
  5  7  1  0
  6 17  2  0
  7 12  1  0
  8 16  1  0
  8 18  1  0
  9 15  1  0
  9 11  1  0
 10 16  1  0
 11 10  1  0
 12 11  2  0
 13 14  1  0
 13  7  2  0
 14  9  2  0
 15  8  1  0
 16  6  1  0
 18 20  2  0
 19 18  1  0
 21 19  1  0
 22 31  2  0
 22 27  1  0
 23 19  1  0
 23 27  1  0
 24 23  1  0
 25 26  1  0
 25 24  1  0
 26 22  1  0
 27 28  2  0
 28 29  1  0
 30 29  2  0
 31 30  1  0
 32  6  1  0
 32 33  1  0
 32 42  1  0
 33 36  1  0
 34 38  1  0
 34 33  1  0
 35 34  2  0
 38 37  1  0
 40 38  1  0
 40 41  1  0
 40 39  1  0
 42 45  1  1
 42 43  1  0
 44 42  1  0
 46 47  1  0
 49 50  1  0
 49 48  1  0
 49 47  1  0
 50 52  1  0
 52 51  1  0
 53 61  1  0
 54 59  1  0
 55 56  1  0
 55 54  1  0
 57 56  1  0
 57 66  1  0
 57 58  1  0
 59 53  1  0
 59 58  1  0
 60 53  2  0
 61 52  1  0
 61 62  1  0
 63 64  2  0
 64 83  1  0
 65 64  1  0
 65 68  1  0
 66 63  1  0
 66 67  1  0
 67 65  2  0
 68 69  1  0
 69 70  2  0
 71 74  1  0
 71 70  1  0
 72 71  2  0
 73 72  1  0
 73 68  2  0
 74 75  1  0
 75 76  1  0
 76 77  2  0
 78 77  1  0
 78 82  1  0
 79 78  2  0
 80 75  2  0
 80 79  1  0
 81 80  1  0
 83 84  1  0
 84 87  1  0
 84 86  1  0
 85 83  2  0
 88 63  1  0
 88 89  1  0
 90 88  1  0
M  ISO  4   4 101   5 101  53 100  61 100
M  END
>  <TORSDO>  (57) 
F 24

>  <SCORE>  (57) 
-12.343

>  <name>  (57) 
56

>  <ligand_id>  (57) 
56

>  <original_smiles>  (57) 
[H]c1c([H])c([H])c2c(c1[H])C([H])([H])C([H])([H])C([H])([H])C2([H])N([H])C(=O)C1([H])N(C(=O)C([H])(N([H])C(=O)C([H])(N([H])C([H])([H])[H])C([H])([H])[H])C(C([H])([H])[H])(C([H])([H])[H])C([H])([H])[H])C([H])([H])c2c([H])c(OC([H])([H])C([H])([H])C([H])([H])C([H])([H])C([H])([H])C([H])([H])C([H])(C([H])([H])[H])C([H])([H])C([H])(N([H])C(=O)N3C([H])([H])C([H])([H])C([H])([H])C([H])(n4nc(-c5c([H])c([H])c(Oc6c([H])c([H])c(F)c([H])c6F)c([H])c5[H])c(C(=O)N([H])[H])c4N([H])[H])C3([H])[H])C([H])([H])[H])c([H])c([H])c2C1([H])[H]

>  <smiles>  (57) 
[H]c1c([H])c([H])c2c(c1[H])C([H])([H])C([H])([H])C([H])([H])C2([H])N([H])C(=O)C1([H])N(C(=O)C([H])(N([H])C(=O)C([H])(N([H])C([H])([H])[H])C([H])([H])[H])C(C([H])([H])[H])(C([H])([H])[H])C([H])([H])[H])C([H])([H])c2c([H])c(OC([H])([H])C([H])([H])C([H])([H])C([H])([H])C([H])([H])C([H])([H])C([H])(C([H])([H])[H])C([H])([H])C([H])(N([H])C(=O)N3C([H])([H])C([H])([H])C([H])([H])C([H])(n4nc(-c5c([H])c([H])c(Oc6c([H])c([H])c(F)c([H])c6F)c([H])c5[H])c(C(=O)N([H])[H])c4N([H])[H])C3([H])[H])C([H])([H])[H])c([H])c([H])c2C1([H])[H]

$$$$
57:0:0
     RDKit          3D

 88 94  0  0  1  0  0  0  0  0999 V2000
  -26.6960  -19.2740   19.9820 C   0  0  0  0  0  3  0  0  0  0  0  0
  -27.0360  -20.6170   19.4120 C   0  0  0  0  0  3  0  0  0  0  0  0
  -26.3230  -17.6840   19.4010 C   0  0  0  0  0  0  0  0  0  0  0  0
  -26.6520  -17.4830   18.2300 O   0  0  0  0  0  0  0  0  0  0  0  0
  -25.5280  -16.2490   20.1210 C   0  0  0  0  0  2  0  0  0  0  0  0
  -25.4030  -14.3170   20.1970 C   0  0  0  0  0  2  0  0  0  0  0  0
  -27.1560  -14.4670   19.6880 C   0  0  0  0  0  2  0  0  0  0  0  0
  -29.8190  -14.1460   21.0000 C   0  0  0  0  0  0  0  0  0  0  0  0
  -30.4440  -12.0490   20.0190 C   0  0  0  0  0  2  0  0  0  0  0  0
  -29.4570  -12.1960   18.8630 C   0  0  0  0  0  2  0  0  0  0  0  0
  -28.0900  -11.8160   19.4280 C   0  0  0  0  0  2  0  0  0  0  0  0
  -27.8130  -12.2230   20.9980 C   0  0  0  0  0  3  0  0  0  0  0  0
  -28.9060  -12.0370   21.9160 C   0  0  0  0  0  2  0  0  0  0  0  0
  -29.8640  -12.7950   21.1390 N   0  0  0  0  0  0  0  0  0  0  0  0
  -30.9280  -14.6780   21.1880 O   0  0  0  0  0  0  0  0  0  0  0  0
  -28.6020  -14.7980   20.4760 N   0  0  0  0  0  0  0  0  0  0  0  0
  -28.7720  -15.7930   20.4640 H   0  0  0  0  0  0  0  0  0  0  0  0
  -25.1390  -13.4570   22.0820 C   0  0  0  0  0  2  0  0  0  0  0  0
  -23.7220  -12.7620   21.3650 C   0  0  0  0  0  3  0  0  0  0  0  0
  -24.1200  -11.3100   20.4690 C   0  0  0  0  0  3  0  0  0  0  0  0
  -26.5600  -12.3000   21.3730 N   0  0  0  0  0  2  0  0  0  0  0  0
  -25.7250  -11.1540   20.3800 N   0  0  0  0  0  2  0  0  0  0  0  0
  -23.6090   -9.8980   21.0220 C   0  0  0  0  0  0  0  0  0  0  0  0
  -24.1760   -9.0230   22.0520 C   0  0  0  0  0  3  0  0  0  0  0  0
  -23.6200   -7.7360   22.4090 C   0  0  0  0  0  3  0  0  0  0  0  0
  -22.4510   -7.2660   21.7550 C   0  0  0  0  0  0  0  0  0  0  0  0
  -21.8770   -8.1310   20.8080 C   0  0  0  0  0  3  0  0  0  0  0  0
  -22.4250   -9.3890   20.4710 C   0  0  0  0  0  3  0  0  0  0  0  0
  -21.8510   -6.0150   21.8530 O   0  0  0  0  0  0  0  0  0  0  0  0
  -21.7870   -5.2360   22.9870 C   0  0  0  0  0  0  0  0  0  0  0  0
  -21.2520   -5.7140   24.2040 C   0  0  0  0  0  3  0  0  0  0  0  0
  -21.1290   -4.8520   25.3150 C   0  0  0  0  0  3  0  0  0  0  0  0
  -21.5290   -3.5050   25.2160 C   0  0  0  0  0  0  0  0  0  0  0  0
  -22.0350   -3.0140   24.0000 C   0  0  0  0  0  3  0  0  0  0  0  0
  -22.1520   -3.8720   22.8900 C   0  0  0  0  0  0  0  0  0  0  0  0
  -22.6070   -3.3710   21.7160 F   0  0  0  0  0  0  0  0  0  0  0  0
  -21.4250   -2.6820   26.2870 F   0  0  0  0  0  0  0  0  0  0  0  0
  -22.3130  -12.9620   21.7010 C   0  0  0  0  0  0  0  0  0  0  0  0
  -21.7420  -12.0590   22.4960 N   0  0  0  0  0  0  0  0  0  0  0  0
  -21.7090  -13.8690   21.1590 O   0  0  0  0  0  0  0  0  0  0  0  0
  -22.2810  -11.3010   22.8890 H   0  0  0  0  0  0  0  0  0  0  0  0
  -20.7610  -12.1330   22.7200 H   0  0  0  0  0  0  0  0  0  0  0  0
  -25.3220  -14.6460   22.6790 N   0  0  0  0  0  0  0  0  0  0  0  0
  -24.5650  -15.2200   23.0270 H   0  0  0  0  0  0  0  0  0  0  0  0
  -26.2320  -14.9640   22.9900 H   0  0  0  0  0  0  0  0  0  0  0  0
  -27.5760  -22.2300   19.9660 C   0  0  0  0  0  3  0  0  0  0  0  0
  -27.3820  -23.9840   19.4230 C   0  0  0  0  0  3  0  0  0  0  0  0
  -28.0320  -25.5290   19.7170 O   0  0  0  0  0  0  0  0  0  0  0  0
  -24.8280  -31.6680   22.9170 C   0  0  0  0  0  0  0  0  0  0  0  0
  -27.2590  -26.8070   19.7010 C   0  0  0  0  0  0  0  0  0  0  0  0
  -23.6530  -30.2810   21.2800 C   0  0  0  0  0  3  0  0  0  0  0  0
  -25.0850  -28.7780   19.7620 C   0  0  0  0  0  0  0  0  0  0  0  0
  -26.2220  -30.5100   21.1150 C   0  0  0  0  0  2  0  0  0  0  0  0
  -26.2820  -29.1190   20.4040 C   0  0  0  0  0  0  0  0  0  0  0  0
  -27.3840  -28.1390   20.3670 C   0  0  0  0  0  3  0  0  0  0  0  0
  -26.0850  -26.7000   18.9560 C   0  0  0  0  0  3  0  0  0  0  0  0
  -25.0190  -27.6030   19.0170 C   0  0  0  0  0  3  0  0  0  0  0  0
  -23.8690  -29.6840   19.8710 C   0  0  0  0  0  2  0  0  0  0  0  0
  -24.9270  -30.8490   21.8200 N   0  0  0  0  0  0  0  0  0  0  0  0
  -23.7350  -31.9130   23.4530 O   0  0  0  0  0  0  0  0  0  0  0  0
  -23.0190  -29.2190   22.2180 C   0  0  0  0  0  0  0  0  0  0  0  0
  -21.6920  -29.0150   22.1200 N   0  0  0  0  0  0  0  0  0  0  0  0
  -23.7240  -28.5880   23.0090 O   0  0  0  0  0  0  0  0  0  0  0  0
  -21.1730  -29.5790   21.4610 H   0  0  0  0  0  0  0  0  0  0  0  0
  -18.3590  -27.6980   22.6820 C   0  0  0  0  0  0  0  0  0  0  0  0
  -20.9170  -28.0350   22.8880 C   0  0  0  0  0  3  0  0  0  0  0  0
  -21.0450  -26.6200   22.2750 C   0  0  0  0  0  2  0  0  0  0  0  0
  -19.9270  -26.2890   21.2820 C   0  0  0  0  0  2  0  0  0  0  0  0
  -18.5590  -26.3730   21.9640 C   0  0  0  0  0  2  0  0  0  0  0  0
  -19.4650  -28.4850   23.1020 C   0  0  0  0  0  0  0  0  0  0  0  0
  -19.2200  -29.7210   23.7390 C   0  0  0  0  0  3  0  0  0  0  0  0
  -17.9050  -30.1730   23.9560 C   0  0  0  0  0  3  0  0  0  0  0  0
  -16.8150  -29.3830   23.5490 C   0  0  0  0  0  3  0  0  0  0  0  0
  -17.0430  -28.1480   22.9190 C   0  0  0  0  0  3  0  0  0  0  0  0
  -26.0820  -32.3500   23.5390 C   0  0  0  0  0  3  0  0  0  0  0  0
  -26.6770  -31.5430   24.7600 C   0  0  1  0  0  0  0  0  0  0  0  0
  -25.6330  -31.1930   25.8470 C   0  0  0  0  0  1  0  0  0  0  0  0
  -27.3210  -30.2190   24.2920 C   0  0  0  0  0  1  0  0  0  0  0  0
  -27.8060  -32.3660   25.4260 C   0  0  0  0  0  1  0  0  0  0  0  0
  -25.6880  -33.7030   23.9750 N   0  0  0  0  0  0  0  0  0  0  0  0
  -25.9480  -34.8340   23.3070 C   0  0  0  0  0  0  0  0  0  0  0  0
  -26.6120  -34.8520   22.2660 O   0  0  0  0  0  0  0  0  0  0  0  0
  -25.0940  -33.7560   24.7880 H   0  0  0  0  0  0  0  0  0  0  0  0
  -24.1220  -36.5590   23.1160 C   0  0  0  0  0  1  0  0  0  0  0  0
  -25.3920  -36.1530   23.8810 C   0  0  0  0  0  3  0  0  0  0  0  0
  -27.4820  -37.0860   24.7740 C   0  0  0  0  0  1  0  0  0  0  0  0
  -26.3650  -37.2680   23.8510 N   0  0  0  0  0  0  0  0  0  0  0  0
  -25.9100  -38.1490   24.0720 H   0  0  0  0  0  0  0  0  0  0  0  0
  2 46  1  0
  2  1  2  0
  3  1  1  0
  3  5  1  0
  4  3  2  0
  5  6  1  0
  7  6  1  0
  7 16  1  0
  8 14  1  0
  8 15  2  0
  9 14  1  0
 10 11  1  0
 10  9  1  0
 11 12  1  0
 12 21  1  0
 12 13  1  0
 14 13  1  0
 16  8  1  0
 17 16  1  0
 18 43  1  0
 19 38  1  0
 19 18  1  0
 20 22  1  0
 20 23  1  0
 20 19  1  0
 22 21  1  0
 23 24  1  0
 24 25  2  0
 26 29  1  0
 26 25  1  0
 27 26  2  0
 28 27  1  0
 28 23  2  0
 29 30  1  0
 30 31  1  0
 31 32  2  0
 33 32  1  0
 33 37  1  0
 34 33  2  0
 35 30  2  0
 35 34  1  0
 36 35  1  0
 38 39  1  0
 39 42  1  0
 39 41  1  0
 40 38  2  0
 43 45  1  0
 43 44  1  0
 47 48  1  0
 47 46  2  0
 49 60  2  0
 50 48  1  0
 50 55  1  0
 51 59  1  0
 51 61  1  0
 52 58  1  0
 52 54  1  0
 53 59  1  0
 54 53  1  0
 55 54  2  0
 56 57  1  0
 56 50  2  0
 57 52  2  0
 58 51  1  0
 59 49  1  0
 61 63  2  0
 62 61  1  0
 64 62  1  0
 65 74  2  0
 65 70  1  0
 66 62  1  0
 66 70  1  0
 67 66  1  0
 68 69  1  0
 68 67  1  0
 69 65  1  0
 70 71  2  0
 71 72  1  0
 73 72  2  0
 74 73  1  0
 75 49  1  0
 75 80  1  0
 75 76  1  0
 76 79  1  1
 76 77  1  0
 78 76  1  0
 80 83  1  0
 81 85  1  0
 81 80  1  0
 82 81  2  0
 85 84  1  0
 87 85  1  0
 87 88  1  0
 87 86  1  0
M  ISO  4   8 100  16 100  47 101  48 101
M  END
>  <TORSDO>  (58) 
F 22

>  <SCORE>  (58) 
-10.855

>  <name>  (58) 
57

>  <ligand_id>  (58) 
57

>  <original_smiles>  (58) 
[H]C(C(=O)C([H])([H])C([H])([H])C([H])([H])N([H])C(=O)N1C([H])([H])C([H])([H])C([H])([H])C([H])(n2nc(-c3c([H])c([H])c(Oc4c([H])c([H])c(F)c([H])c4F)c([H])c3[H])c(C(=O)N([H])[H])c2N([H])[H])C1([H])[H])=C([H])C([H])([H])C([H])([H])Oc1c([H])c([H])c2c(c1[H])C([H])([H])N(C(=O)C([H])(N([H])C(=O)C([H])(N([H])C([H])([H])[H])C([H])([H])[H])C(C([H])([H])[H])(C([H])([H])[H])C([H])([H])[H])C([H])(C(=O)N([H])C1([H])c3c([H])c([H])c([H])c([H])c3C([H])([H])C([H])([H])C1([H])[H])C2([H])[H]

>  <smiles>  (58) 
[H]C(C(=O)C([H])([H])C([H])([H])C([H])([H])N([H])C(=O)N1C([H])([H])C([H])([H])C([H])([H])C([H])(n2nc(-c3c([H])c([H])c(Oc4c([H])c([H])c(F)c([H])c4F)c([H])c3[H])c(C(=O)N([H])[H])c2N([H])[H])C1([H])[H])=C([H])C([H])([H])C([H])([H])Oc1c([H])c([H])c2c(c1[H])C([H])([H])N(C(=O)C([H])(N([H])C(=O)C([H])(N([H])C([H])([H])[H])C([H])([H])[H])C(C([H])([H])[H])(C([H])([H])[H])C([H])([H])[H])C([H])(C(=O)N([H])C1([H])c3c([H])c([H])c([H])c([H])c3C([H])([H])C([H])([H])C1([H])[H])C2([H])[H]

$$$$
59:0:0
     RDKit          3D

 93102  0  0  1  0  0  0  0  0999 V2000
  -28.4910  -22.8350   21.4470 C   0  0  0  0  0  3  0  0  0  0  0  0
  -30.9190  -22.9030   21.2260 C   0  0  0  0  0  3  0  0  0  0  0  0
  -28.5490  -21.4560   21.6900 C   0  0  0  0  0  3  0  0  0  0  0  0
  -30.9760  -21.5160   21.4570 C   0  0  0  0  0  3  0  0  0  0  0  0
  -29.6710  -23.5630   21.1690 C   0  0  0  0  0  0  0  0  0  0  0  0
  -29.7850  -20.7850   21.6580 C   0  0  0  0  0  0  0  0  0  0  0  0
  -30.9080  -18.6540   22.5550 C   0  0  0  0  0  2  0  0  0  0  0  0
  -29.8150  -18.7410   20.2610 C   0  0  0  0  0  2  0  0  0  0  0  0
  -30.8110  -17.1190   22.5350 C   0  0  0  0  0  2  0  0  0  0  0  0
  -29.7060  -17.2210   20.2460 C   0  0  0  0  0  2  0  0  0  0  0  0
  -29.7830  -19.2740   21.7010 C   0  0  0  0  0  3  0  0  0  0  0  0
  -30.8280  -16.5890   21.0910 C   0  0  0  0  0  3  0  0  0  0  0  0
  -30.6040  -15.1930   21.1030 O   0  0  0  0  0  0  0  0  0  0  0  0
  -31.1390  -14.4260   20.1440 C   0  0  0  0  0  0  0  0  0  0  0  0
  -30.6640  -12.3660   18.8450 C   0  0  0  0  0  2  0  0  0  0  0  0
  -29.6810  -12.6710   17.7010 C   0  0  0  0  0  2  0  0  0  0  0  0
  -28.2230  -12.5630   18.1900 C   0  0  0  0  0  2  0  0  0  0  0  0
  -27.9670  -13.3690   19.4910 C   0  0  0  0  0  3  0  0  0  0  0  0
  -29.0430  -13.0490   20.5530 C   0  0  0  0  0  2  0  0  0  0  0  0
  -30.3660  -13.2790   19.9480 N   0  0  0  0  0  0  0  0  0  0  0  0
  -32.1400  -14.7410   19.4940 O   0  0  0  0  0  0  0  0  0  0  0  0
  -25.5980  -14.0320   20.2630 C   0  0  0  0  0  0  0  0  0  0  0  0
  -24.5250  -13.2810   20.6640 C   0  0  0  0  0  0  0  0  0  0  0  0
  -24.9570  -11.9200   20.6160 C   0  0  0  0  0  0  0  0  0  0  0  0
  -26.6190  -13.1290   20.0030 N   0  0  0  0  0  0  0  0  0  0  0  0
  -26.2340  -11.8550   20.2670 N   0  0  0  0  0  0  0  0  0  0  0  0
  -24.2120  -10.6720   20.8280 C   0  0  0  0  0  0  0  0  0  0  0  0
  -24.6150   -9.7280   21.7980 C   0  0  0  0  0  3  0  0  0  0  0  0
  -23.8730   -8.5430   21.9950 C   0  0  0  0  0  3  0  0  0  0  0  0
  -22.7140   -8.2960   21.2220 C   0  0  0  0  0  0  0  0  0  0  0  0
  -22.3300   -9.2280   20.2430 C   0  0  0  0  0  3  0  0  0  0  0  0
  -23.0730  -10.4040   20.0430 C   0  0  0  0  0  3  0  0  0  0  0  0
  -21.9460   -7.1610   21.3270 O   0  0  0  0  0  0  0  0  0  0  0  0
  -21.8130   -6.4880   22.5150 C   0  0  0  0  0  0  0  0  0  0  0  0
  -21.3170   -7.1190   23.6770 C   0  0  0  0  0  3  0  0  0  0  0  0
  -21.1320   -6.3730   24.8570 C   0  0  0  0  0  3  0  0  0  0  0  0
  -21.4320   -4.9970   24.8780 C   0  0  0  0  0  0  0  0  0  0  0  0
  -21.9200   -4.3670   23.7200 C   0  0  0  0  0  3  0  0  0  0  0  0
  -22.1070   -5.1100   22.5410 C   0  0  0  0  0  0  0  0  0  0  0  0
  -22.5580   -4.4930   21.4220 F   0  0  0  0  0  0  0  0  0  0  0  0
  -21.2460   -4.2790   26.0090 F   0  0  0  0  0  0  0  0  0  0  0  0
  -23.1480  -13.7860   20.9850 C   0  0  0  0  0  0  0  0  0  0  0  0
  -22.4470  -13.1180   21.8950 N   0  0  0  0  0  0  0  0  0  0  0  0
  -22.7020  -14.8080   20.4640 O   0  0  0  0  0  0  0  0  0  0  0  0
  -22.8200  -12.2910   22.3390 H   0  0  0  0  0  0  0  0  0  0  0  0
  -21.5250  -13.4380   22.1540 H   0  0  0  0  0  0  0  0  0  0  0  0
  -25.7860  -15.3990   20.0800 N   0  0  0  0  0  0  0  0  0  0  0  0
  -25.0390  -16.0720   20.2130 H   0  0  0  0  0  0  0  0  0  0  0  0
  -26.6420  -15.8170   19.7380 H   0  0  0  0  0  0  0  0  0  0  0  0
  -29.6150  -25.0010   20.8040 C   0  0  0  0  0  0  0  0  0  0  0  0
  -30.5580  -25.7860   20.9700 O   0  0  0  0  0  0  0  0  0  0  0  0
  -28.3210  -25.4620   20.1260 C   0  0  0  0  0  2  0  0  0  0  0  0
  -28.4060  -26.8290   19.7610 O   0  0  0  0  0  0  0  0  0  0  0  0
  -24.6970  -31.8450   23.0900 C   0  0  0  0  0  0  0  0  0  0  0  0
  -27.2140  -27.5010   19.8200 C   0  0  0  0  0  0  0  0  0  0  0  0
  -23.4160  -30.4630   21.4850 C   0  0  0  0  0  3  0  0  0  0  0  0
  -24.8050  -28.9520   19.9750 C   0  0  0  0  0  0  0  0  0  0  0  0
  -25.9230  -30.8460   21.1680 C   0  0  0  0  0  2  0  0  0  0  0  0
  -25.9830  -29.4870   20.5090 C   0  0  0  0  0  0  0  0  0  0  0  0
  -27.1910  -28.7690   20.4270 C   0  0  0  0  0  3  0  0  0  0  0  0
  -26.0190  -26.9620   19.2860 C   0  0  0  0  0  3  0  0  0  0  0  0
  -24.8140  -27.6850   19.3650 C   0  0  0  0  0  3  0  0  0  0  0  0
  -23.5590  -29.8000   20.0890 C   0  0  0  0  0  2  0  0  0  0  0  0
  -24.7000  -31.0630   21.9730 N   0  0  0  0  0  0  0  0  0  0  0  0
  -23.6430  -32.1060   23.6850 O   0  0  0  0  0  0  0  0  0  0  0  0
  -22.8160  -29.4260   22.4600 C   0  0  0  0  0  0  0  0  0  0  0  0
  -21.4910  -29.2240   22.3730 N   0  0  0  0  0  0  0  0  0  0  0  0
  -23.5350  -28.8060   23.2480 O   0  0  0  0  0  0  0  0  0  0  0  0
  -20.9720  -29.7770   21.7050 H   0  0  0  0  0  0  0  0  0  0  0  0
  -18.1580  -27.9510   22.9280 C   0  0  0  0  0  0  0  0  0  0  0  0
  -20.7120  -28.2710   23.1620 C   0  0  0  0  0  3  0  0  0  0  0  0
  -20.8410  -26.8400   22.5920 C   0  0  0  0  0  2  0  0  0  0  0  0
  -19.7320  -26.4830   21.5980 C   0  0  0  0  0  2  0  0  0  0  0  0
  -18.3570  -26.6010   22.2610 C   0  0  0  0  0  2  0  0  0  0  0  0
  -19.2640  -28.7420   23.3370 C   0  0  0  0  0  0  0  0  0  0  0  0
  -19.0250  -30.0050   23.9200 C   0  0  0  0  0  3  0  0  0  0  0  0
  -17.7110  -30.4780   24.1000 C   0  0  0  0  0  3  0  0  0  0  0  0
  -16.6190  -29.6840   23.7100 C   0  0  0  0  0  3  0  0  0  0  0  0
  -16.8440  -28.4220   23.1290 C   0  0  0  0  0  3  0  0  0  0  0  0
  -26.0120  -32.4670   23.6560 C   0  0  0  0  0  3  0  0  0  0  0  0
  -26.6070  -31.6600   24.8750 C   0  0  1  0  0  0  0  0  0  0  0  0
  -25.5790  -31.3770   25.9940 C   0  0  0  0  0  1  0  0  0  0  0  0
  -27.1780  -30.3030   24.4000 C   0  0  0  0  0  1  0  0  0  0  0  0
  -27.7870  -32.4430   25.4970 C   0  0  0  0  0  1  0  0  0  0  0  0
  -25.7140  -33.8510   24.0450 N   0  0  0  0  0  0  0  0  0  0  0  0
  -26.0350  -34.9290   23.3180 C   0  0  0  0  0  0  0  0  0  0  0  0
  -26.6860  -34.8620   22.2710 O   0  0  0  0  0  0  0  0  0  0  0  0
  -25.1340  -33.9770   24.8620 H   0  0  0  0  0  0  0  0  0  0  0  0
  -24.3220  -36.7470   23.0360 C   0  0  0  0  0  1  0  0  0  0  0  0
  -25.5580  -36.2990   23.8340 C   0  0  0  0  0  3  0  0  0  0  0  0
  -27.6970  -37.1280   24.7050 C   0  0  0  0  0  1  0  0  0  0  0  0
  -26.5980  -37.3480   23.7690 N   0  0  0  0  0  0  0  0  0  0  0  0
  -26.2000  -38.2640   23.9560 H   0  0  0  0  0  0  0  0  0  0  0  0
  1  3  1  0
  2  4  2  0
  4  6  1  0
  5  2  1  0
  5  1  2  0
  6  3  2  0
  8 11  1  0
  9  7  1  0
 10  8  1  0
 10 12  1  0
 11  6  1  0
 11  7  1  0
 12 13  1  0
 12  9  1  0
 14 13  1  0
 15 20  1  0
 16 17  1  0
 16 15  1  0
 18 17  1  0
 18 25  1  0
 18 19  1  0
 20 14  1  0
 20 19  1  0
 21 14  2  0
 22 23  2  0
 23 42  1  0
 24 23  1  0
 24 27  1  0
 25 22  1  0
 25 26  1  0
 26 24  2  0
 27 28  1  0
 28 29  2  0
 30 33  1  0
 30 29  1  0
 31 30  2  0
 32 31  1  0
 32 27  2  0
 33 34  1  0
 34 39  2  0
 34 35  1  0
 35 36  2  0
 36 37  1  0
 37 41  1  0
 38 37  2  0
 39 38  1  0
 40 39  1  0
 42 43  1  0
 43 46  1  0
 43 45  1  0
 44 42  2  0
 47 48  1  0
 47 22  1  0
 49 47  1  0
 50 51  2  0
 50  5  1  0
 52 50  1  0
 53 55  1  0
 53 52  1  0
 54 65  2  0
 55 60  1  0
 56 64  1  0
 56 66  1  0
 57 63  1  0
 57 59  1  0
 58 64  1  0
 59 58  1  0
 60 59  2  0
 61 62  1  0
 61 55  2  0
 62 57  2  0
 63 56  1  0
 64 54  1  0
 66 68  2  0
 67 66  1  0
 69 67  1  0
 70 79  2  0
 70 75  1  0
 71 67  1  0
 71 75  1  0
 72 71  1  0
 73 74  1  0
 73 72  1  0
 74 70  1  0
 75 76  2  0
 76 77  1  0
 78 77  2  0
 79 78  1  0
 80 54  1  0
 80 85  1  0
 80 81  1  0
 81 84  1  1
 81 82  1  0
 83 81  1  0
 85 88  1  0
 86 90  1  0
 86 85  1  0
 87 86  2  0
 90 89  1  0
 92 90  1  0
 92 93  1  0
 92 91  1  0
M  ISO  4  13 100  14 100  52 101  53 101
M  END
>  <TORSDO>  (59) 
F 20

>  <SCORE>  (59) 
-12.952

>  <name>  (59) 
59

>  <ligand_id>  (59) 
59

>  <original_smiles>  (59) 
[H]c1c([H])c([H])c2c(c1[H])C([H])([H])C([H])([H])C([H])([H])C2([H])N([H])C(=O)C1([H])N(C(=O)C([H])(N([H])C(=O)C([H])(N([H])C([H])([H])[H])C([H])([H])[H])C(C([H])([H])[H])(C([H])([H])[H])C([H])([H])[H])C([H])([H])c2c([H])c(OC([H])([H])C(=O)c3c([H])c([H])c(C4([H])C([H])([H])C([H])([H])C([H])(OC(=O)N5C([H])([H])C([H])([H])C([H])([H])C([H])(n6nc(-c7c([H])c([H])c(Oc8c([H])c([H])c(F)c([H])c8F)c([H])c7[H])c(C(=O)N([H])[H])c6N([H])[H])C5([H])[H])C([H])([H])C4([H])[H])c([H])c3[H])c([H])c([H])c2C1([H])[H]

>  <smiles>  (59) 
[H]c1c([H])c([H])c2c(c1[H])C([H])([H])C([H])([H])C([H])([H])C2([H])N([H])C(=O)C1([H])N(C(=O)C([H])(N([H])C(=O)C([H])(N([H])C([H])([H])[H])C([H])([H])[H])C(C([H])([H])[H])(C([H])([H])[H])C([H])([H])[H])C([H])([H])c2c([H])c(OC([H])([H])C(=O)c3c([H])c([H])c(C4([H])C([H])([H])C([H])([H])C([H])(OC(=O)N5C([H])([H])C([H])([H])C([H])([H])C([H])(n6nc(-c7c([H])c([H])c(Oc8c([H])c([H])c(F)c([H])c8F)c([H])c7[H])c(C(=O)N([H])[H])c6N([H])[H])C5([H])[H])C([H])([H])C4([H])[H])c([H])c3[H])c([H])c([H])c2C1([H])[H]

$$$$
60:0:0
     RDKit          3D

 99107  0  0  1  0  0  0  0  0999 V2000
  -31.7100  -25.8290   14.5300 C   0  0  0  0  0  3  0  0  0  0  0  0
  -31.2000  -27.0930   14.8630 C   0  0  0  0  0  3  0  0  0  0  0  0
  -31.1830  -24.6840   15.1450 C   0  0  0  0  0  3  0  0  0  0  0  0
  -30.1850  -27.2350   15.8340 C   0  0  0  0  0  0  0  0  0  0  0  0
  -30.1650  -24.7880   16.1180 C   0  0  0  0  0  0  0  0  0  0  0  0
  -29.6800  -26.0760   16.5050 C   0  0  0  0  0  0  0  0  0  0  0  0
  -29.6440  -28.6210   16.0750 C   0  0  0  0  0  0  0  0  0  0  0  0
  -30.5510  -29.5620   16.3030 N   0  0  0  0  0  0  0  0  0  0  0  0
  -28.4390  -28.8680   16.0710 O   0  0  0  0  0  0  0  0  0  0  0  0
  -31.5310  -29.3240   16.3150 H   0  0  0  0  0  0  0  0  0  0  0  0
  -30.2650  -30.5150   16.4720 H   0  0  0  0  0  0  0  0  0  0  0  0
  -29.5670  -23.4690   16.6210 C   0  0  0  0  0  2  0  0  0  0  0  0
  -30.2780  -22.8020   17.8080 C   0  0  0  0  0  0  0  0  0  0  0  0
  -30.7650  -23.4480   18.7390 O   0  0  0  0  0  0  0  0  0  0  0  0
  -30.3380  -21.2700   17.7640 C   0  0  0  0  0  2  0  0  0  0  0  0
  -30.3050  -20.5510   19.1290 C   0  0  0  0  0  2  0  0  0  0  0  0
  -30.0020  -19.0500   18.9470 C   0  0  0  0  0  2  0  0  0  0  0  0
  -30.0540  -18.2060   20.2360 C   0  0  0  0  0  2  0  0  0  0  0  0
  -29.7070  -16.7300   19.9480 C   0  0  0  0  0  2  0  0  0  0  0  0
  -30.0130  -15.7280   21.0950 C   0  0  0  0  0  2  0  0  0  0  0  0
  -30.6810  -14.4500   20.5440 C   0  0  0  0  0  0  0  0  0  0  0  0
  -30.3660  -12.2990   19.3950 C   0  0  0  0  0  2  0  0  0  0  0  0
  -29.4420  -12.5310   18.1820 C   0  0  0  0  0  2  0  0  0  0  0  0
  -27.9610  -12.4090   18.5940 C   0  0  0  0  0  2  0  0  0  0  0  0
  -27.6220  -13.2410   19.8600 C   0  0  0  0  0  3  0  0  0  0  0  0
  -28.6640  -12.9960   20.9740 C   0  0  0  0  0  2  0  0  0  0  0  0
  -29.9980  -13.2820   20.4260 N   0  0  0  0  0  0  0  0  0  0  0  0
  -31.8170  -14.5930   20.0810 O   0  0  0  0  0  0  0  0  0  0  0  0
  -25.2150  -13.8590   20.5300 C   0  0  0  0  0  0  0  0  0  0  0  0
  -24.1390  -13.0920   20.8910 C   0  0  0  0  0  0  0  0  0  0  0  0
  -24.5970  -11.7400   20.8790 C   0  0  0  0  0  0  0  0  0  0  0  0
  -26.2610  -12.9740   20.3240 N   0  0  0  0  0  0  0  0  0  0  0  0
  -25.8910  -11.6930   20.5880 N   0  0  0  0  0  0  0  0  0  0  0  0
  -23.8640  -10.4820   21.0730 C   0  0  0  0  0  0  0  0  0  0  0  0
  -24.3000   -9.5100   21.9990 C   0  0  0  0  0  3  0  0  0  0  0  0
  -23.5720   -8.3150   22.1800 C   0  0  0  0  0  3  0  0  0  0  0  0
  -22.3920   -8.0840   21.4340 C   0  0  0  0  0  0  0  0  0  0  0  0
  -21.9730   -9.0460   20.4980 C   0  0  0  0  0  3  0  0  0  0  0  0
  -22.7030  -10.2330   20.3160 C   0  0  0  0  0  3  0  0  0  0  0  0
  -21.6320   -6.9420   21.5250 O   0  0  0  0  0  0  0  0  0  0  0  0
  -21.6070   -6.1830   22.6670 C   0  0  0  0  0  0  0  0  0  0  0  0
  -21.2370   -6.7280   23.9160 C   0  0  0  0  0  3  0  0  0  0  0  0
  -21.1570   -5.8980   25.0500 C   0  0  0  0  0  3  0  0  0  0  0  0
  -21.4360   -4.5220   24.9390 C   0  0  0  0  0  0  0  0  0  0  0  0
  -21.7990   -3.9760   23.6950 C   0  0  0  0  0  3  0  0  0  0  0  0
  -21.8810   -4.8050   22.5610 C   0  0  0  0  0  0  0  0  0  0  0  0
  -22.2110   -4.2710   21.3610 F   0  0  0  0  0  0  0  0  0  0  0  0
  -21.3520   -3.7210   26.0270 F   0  0  0  0  0  0  0  0  0  0  0  0
  -22.7410  -13.5770   21.1420 C   0  0  0  0  0  0  0  0  0  0  0  0
  -22.0030  -12.8910   22.0090 N   0  0  0  0  0  0  0  0  0  0  0  0
  -22.3090  -14.5970   20.6080 O   0  0  0  0  0  0  0  0  0  0  0  0
  -22.3650  -12.0660   22.4640 H   0  0  0  0  0  0  0  0  0  0  0  0
  -21.0620  -13.1950   22.2180 H   0  0  0  0  0  0  0  0  0  0  0  0
  -25.3860  -15.2270   20.3430 N   0  0  0  0  0  0  0  0  0  0  0  0
  -24.6240  -15.8890   20.4400 H   0  0  0  0  0  0  0  0  0  0  0  0
  -26.2510  -15.6610   20.0450 H   0  0  0  0  0  0  0  0  0  0  0  0
  -28.6470  -26.2110   17.6350 C   0  0  0  0  0  2  0  0  0  0  0  0
  -29.2070  -26.8920   18.9040 C   0  0  0  0  0  2  0  0  0  0  0  0
  -28.3620  -26.7000   20.0320 O   0  0  0  0  0  0  0  0  0  0  0  0
  -24.5940  -31.8380   23.1870 C   0  0  0  0  0  0  0  0  0  0  0  0
  -27.2090  -27.4430   20.0430 C   0  0  0  0  0  0  0  0  0  0  0  0
  -23.3710  -30.4510   21.5440 C   0  0  0  0  0  3  0  0  0  0  0  0
  -24.8110  -28.9210   20.1000 C   0  0  0  0  0  0  0  0  0  0  0  0
  -25.8920  -30.8140   21.3250 C   0  0  0  0  0  2  0  0  0  0  0  0
  -25.9720  -29.4480   20.6780 C   0  0  0  0  0  0  0  0  0  0  0  0
  -27.1760  -28.7130   20.6540 C   0  0  0  0  0  3  0  0  0  0  0  0
  -26.0300  -26.9080   19.4860 C   0  0  0  0  0  3  0  0  0  0  0  0
  -24.8310  -27.6460   19.5040 C   0  0  0  0  0  3  0  0  0  0  0  0
  -23.5670  -29.7790   20.1580 C   0  0  0  0  0  2  0  0  0  0  0  0
  -24.6370  -31.0470   22.0780 N   0  0  0  0  0  0  0  0  0  0  0  0
  -23.5170  -32.1090   23.7370 O   0  0  0  0  0  0  0  0  0  0  0  0
  -22.7240  -29.4250   22.5020 C   0  0  0  0  0  0  0  0  0  0  0  0
  -21.3970  -29.2560   22.3910 N   0  0  0  0  0  0  0  0  0  0  0  0
  -23.4130  -28.7820   23.2980 O   0  0  0  0  0  0  0  0  0  0  0  0
  -20.9030  -29.8260   21.7190 H   0  0  0  0  0  0  0  0  0  0  0  0
  -18.0180  -28.0960   22.9240 C   0  0  0  0  0  0  0  0  0  0  0  0
  -20.5810  -28.3190   23.1610 C   0  0  0  0  0  3  0  0  0  0  0  0
  -20.6590  -26.8940   22.5660 C   0  0  0  0  0  2  0  0  0  0  0  0
  -19.5400  -26.5990   21.5630 C   0  0  0  0  0  2  0  0  0  0  0  0
  -18.1680  -26.7540   22.2300 C   0  0  0  0  0  2  0  0  0  0  0  0
  -19.1520  -28.8380   23.3490 C   0  0  0  0  0  0  0  0  0  0  0  0
  -18.9590  -30.0960   23.9570 C   0  0  0  0  0  3  0  0  0  0  0  0
  -17.6640  -30.6140   24.1460 C   0  0  0  0  0  3  0  0  0  0  0  0
  -16.5440  -29.8680   23.7390 C   0  0  0  0  0  3  0  0  0  0  0  0
  -16.7220  -28.6120   23.1350 C   0  0  0  0  0  3  0  0  0  0  0  0
  -25.8870  -32.4590   23.8010 C   0  0  0  0  0  3  0  0  0  0  0  0
  -25.5840  -33.8540   24.1500 N   0  0  0  0  0  0  0  0  0  0  0  0
  -25.9140  -34.9130   23.3990 C   0  0  0  0  0  0  0  0  0  0  0  0
  -26.5780  -34.8190   22.3640 O   0  0  0  0  0  0  0  0  0  0  0  0
  -24.9960  -34.0000   24.9570 H   0  0  0  0  0  0  0  0  0  0  0  0
  -24.1860  -36.7100   23.0750 C   0  0  0  0  0  1  0  0  0  0  0  0
  -25.4320  -36.2970   23.8750 C   0  0  0  0  0  3  0  0  0  0  0  0
  -27.5760  -37.1650   24.6970 C   0  0  0  0  0  1  0  0  0  0  0  0
  -26.4650  -37.3500   23.7660 N   0  0  0  0  0  0  0  0  0  0  0  0
  -26.0630  -38.2680   23.9310 H   0  0  0  0  0  0  0  0  0  0  0  0
  -26.4190  -31.6700   25.0600 C   0  0  1  0  0  0  0  0  0  0  0  0
  -25.3400  -31.4180   26.1390 C   0  0  0  0  0  1  0  0  0  0  0  0
  -26.9940  -30.2980   24.6390 C   0  0  0  0  0  1  0  0  0  0  0  0
  -27.5820  -32.4510   25.7170 C   0  0  0  0  0  1  0  0  0  0  0  0
  1  2  2  0
  1  3  1  0
  2  4  1  0
  3  5  2  0
  4  7  1  0
  4  6  2  0
  5  6  1  0
  5 12  1  0
  6 57  1  0
  7  8  1  0
  8 10  1  0
  8 11  1  0
  9  7  2  0
 12 13  1  0
 13 14  2  0
 15 13  1  0
 15 16  1  0
 17 16  1  0
 17 18  1  0
 19 18  1  0
 19 20  1  0
 21 20  1  0
 22 27  1  0
 23 24  1  0
 23 22  1  0
 25 24  1  0
 25 32  1  0
 25 26  1  0
 27 21  1  0
 27 26  1  0
 28 21  2  0
 29 30  2  0
 30 49  1  0
 31 30  1  0
 31 34  1  0
 32 29  1  0
 32 33  1  0
 33 31  2  0
 34 35  1  0
 35 36  2  0
 37 40  1  0
 37 36  1  0
 38 37  2  0
 39 38  1  0
 39 34  2  0
 40 41  1  0
 41 42  1  0
 42 43  2  0
 44 43  1  0
 44 48  1  0
 45 44  2  0
 46 41  2  0
 46 45  1  0
 47 46  1  0
 49 50  1  0
 50 53  1  0
 50 52  1  0
 51 49  2  0
 54 55  1  0
 54 29  1  0
 56 54  1  0
 57 58  1  0
 58 59  1  0
 59 61  1  0
 60 71  2  0
 61 66  1  0
 62 70  1  0
 62 72  1  0
 63 69  1  0
 63 65  1  0
 64 70  1  0
 65 64  1  0
 66 65  2  0
 67 68  1  0
 67 61  2  0
 68 63  2  0
 69 62  1  0
 70 60  1  0
 72 74  2  0
 73 72  1  0
 75 73  1  0
 76 85  2  0
 76 81  1  0
 77 73  1  0
 77 81  1  0
 78 77  1  0
 79 80  1  0
 79 78  1  0
 80 76  1  0
 81 82  2  0
 82 83  1  0
 84 83  2  0
 85 84  1  0
 86 60  1  0
 86 87  1  0
 86 96  1  0
 87 90  1  0
 88 92  1  0
 88 87  1  0
 89 88  2  0
 92 91  1  0
 94 92  1  0
 94 95  1  0
 94 93  1  0
 96 99  1  1
 96 97  1  0
 98 96  1  0
M  ISO  4  20 100  21 100  58 101  59 101
M  END
>  <TORSDO>  (60) 
F 27

>  <SCORE>  (60) 
-11.505

>  <name>  (60) 
60

>  <ligand_id>  (60) 
60

>  <original_smiles>  (60) 
[H]c1c([H])c(C(=O)N([H])[H])c(C([H])([H])C([H])([H])Oc2c([H])c([H])c3c(c2[H])C([H])([H])N(C(=O)C([H])(N([H])C(=O)C([H])(N([H])C([H])([H])[H])C([H])([H])[H])C(C([H])([H])[H])(C([H])([H])[H])C([H])([H])[H])C([H])(C(=O)N([H])C2([H])c4c([H])c([H])c([H])c([H])c4C([H])([H])C([H])([H])C2([H])[H])C3([H])[H])c(C([H])([H])C(=O)C([H])([H])C([H])([H])C([H])([H])C([H])([H])C([H])([H])C([H])([H])C(=O)N2C([H])([H])C([H])([H])C([H])([H])C([H])(n3nc(-c4c([H])c([H])c(Oc5c([H])c([H])c(F)c([H])c5F)c([H])c4[H])c(C(=O)N([H])[H])c3N([H])[H])C2([H])[H])c1[H]

>  <smiles>  (60) 
[H]c1c([H])c(C(=O)N([H])[H])c(C([H])([H])C([H])([H])Oc2c([H])c([H])c3c(c2[H])C([H])([H])N(C(=O)C([H])(N([H])C(=O)C([H])(N([H])C([H])([H])[H])C([H])([H])[H])C(C([H])([H])[H])(C([H])([H])[H])C([H])([H])[H])C([H])(C(=O)N([H])C2([H])c4c([H])c([H])c([H])c([H])c4C([H])([H])C([H])([H])C2([H])[H])C3([H])[H])c(C([H])([H])C(=O)C([H])([H])C([H])([H])C([H])([H])C([H])([H])C([H])([H])C([H])([H])C(=O)N2C([H])([H])C([H])([H])C([H])([H])C([H])(n3nc(-c4c([H])c([H])c(Oc5c([H])c([H])c(F)c([H])c5F)c([H])c4[H])c(C(=O)N([H])[H])c3N([H])[H])C2([H])[H])c1[H]

$$$$
61:0:0
     RDKit          3D

 99108  0  0  1  0  0  0  0  0999 V2000
  -34.2960  -26.2190   21.1930 C   0  0  0  0  0  3  0  0  0  0  0  0
  -33.9420  -27.2960   20.3600 C   0  0  0  0  0  3  0  0  0  0  0  0
  -33.4200  -25.1250   21.3510 C   0  0  0  0  0  3  0  0  0  0  0  0
  -31.8420  -26.1810   19.8310 C   0  0  0  0  0  3  0  0  0  0  0  0
  -32.7280  -27.2640   19.6430 C   0  0  0  0  0  0  0  0  0  0  0  0
  -32.1750  -25.1120   20.6860 C   0  0  0  0  0  0  0  0  0  0  0  0
  -32.3750  -28.3630   18.6920 C   0  0  0  0  0  0  0  0  0  0  0  0
  -31.7900  -27.9420   17.5670 N   0  0  0  0  0  0  0  0  0  0  0  0
  -32.6460  -29.5410   18.9370 O   0  0  0  0  0  0  0  0  0  0  0  0
  -31.6840  -26.9420   17.4640 H   0  0  0  0  0  0  0  0  0  0  0  0
  -31.1710  -28.7820   16.5510 C   0  0  0  0  0  2  0  0  0  0  0  0
  -29.6720  -28.4630   16.4510 C   0  0  0  0  0  2  0  0  0  0  0  0
  -29.2210  -27.9520   17.7060 O   0  0  0  0  0  0  0  0  0  0  0  0
  -24.6860  -30.0420   22.7640 C   0  0  0  0  0  0  0  0  0  0  0  0
  -27.9170  -28.2190   18.0380 C   0  0  0  0  0  0  0  0  0  0  0  0
  -23.6590  -29.2180   20.6690 C   0  0  0  0  0  3  0  0  0  0  0  0
  -25.2590  -28.8640   18.7150 C   0  0  0  0  0  0  0  0  0  0  0  0
  -25.9920  -30.2580   20.6560 C   0  0  0  0  0  2  0  0  0  0  0  0
  -26.3180  -29.3600   19.4850 C   0  0  0  0  0  0  0  0  0  0  0  0
  -27.6490  -29.0240   19.1630 C   0  0  0  0  0  3  0  0  0  0  0  0
  -26.8420  -27.7060   17.2800 C   0  0  0  0  0  3  0  0  0  0  0  0
  -25.5140  -28.0300   17.6120 C   0  0  0  0  0  3  0  0  0  0  0  0
  -23.8630  -29.2700   19.1310 C   0  0  0  0  0  2  0  0  0  0  0  0
  -24.8010  -29.8300   21.4230 N   0  0  0  0  0  0  0  0  0  0  0  0
  -23.6390  -29.7700   23.3690 O   0  0  0  0  0  0  0  0  0  0  0  0
  -23.3730  -27.7560   21.0760 C   0  0  0  0  0  0  0  0  0  0  0  0
  -22.1180  -27.3190   20.8830 N   0  0  0  0  0  0  0  0  0  0  0  0
  -24.2680  -27.0370   21.5260 O   0  0  0  0  0  0  0  0  0  0  0  0
  -21.4390  -27.9710   20.5150 H   0  0  0  0  0  0  0  0  0  0  0  0
  -19.1620  -25.2440   20.8870 C   0  0  0  0  0  0  0  0  0  0  0  0
  -21.6270  -25.9700   21.1600 C   0  0  0  0  0  3  0  0  0  0  0  0
  -21.9330  -25.0140   19.9840 C   0  0  0  0  0  2  0  0  0  0  0  0
  -20.7870  -24.9130   18.9740 C   0  0  0  0  0  2  0  0  0  0  0  0
  -19.5090  -24.4190   19.6580 C   0  0  0  0  0  2  0  0  0  0  0  0
  -20.1540  -25.9850   21.5820 C   0  0  0  0  0  0  0  0  0  0  0  0
  -19.7690  -26.7650   22.6950 C   0  0  0  0  0  3  0  0  0  0  0  0
  -18.4270  -26.8110   23.1130 C   0  0  0  0  0  3  0  0  0  0  0  0
  -17.4520  -26.0630   22.4310 C   0  0  0  0  0  3  0  0  0  0  0  0
  -17.8210  -25.2760   21.3250 C   0  0  0  0  0  3  0  0  0  0  0  0
  -25.8540  -30.6520   23.5980 C   0  0  0  0  0  3  0  0  0  0  0  0
  -25.3770  -31.9200   24.1680 N   0  0  0  0  0  0  0  0  0  0  0  0
  -25.6850  -33.1320   23.6860 C   0  0  0  0  0  0  0  0  0  0  0  0
  -26.4690  -33.3010   22.7480 O   0  0  0  0  0  0  0  0  0  0  0  0
  -24.6930  -31.8550   24.9080 H   0  0  0  0  0  0  0  0  0  0  0  0
  -23.8590  -34.8450   23.4670 C   0  0  0  0  0  1  0  0  0  0  0  0
  -25.0160  -34.3510   24.3500 C   0  0  0  0  0  3  0  0  0  0  0  0
  -26.9380  -35.1550   25.6510 C   0  0  0  0  0  1  0  0  0  0  0  0
  -25.9540  -35.4640   24.6160 N   0  0  0  0  0  0  0  0  0  0  0  0
  -25.4500  -36.3010   24.8960 H   0  0  0  0  0  0  0  0  0  0  0  0
  -26.3790  -29.6910   24.7340 C   0  0  1  0  0  0  0  0  0  0  0  0
  -25.2610  -29.1320   25.6420 C   0  0  0  0  0  1  0  0  0  0  0  0
  -27.1340  -28.4880   24.1200 C   0  0  0  0  0  1  0  0  0  0  0  0
  -27.3950  -30.4420   25.6310 C   0  0  0  0  0  1  0  0  0  0  0  0
  -31.2150  -23.9360   20.8180 C   0  0  0  0  0  2  0  0  0  0  0  0
  -31.7860  -22.7030   20.1050 C   0  0  0  0  0  2  0  0  0  0  0  0
  -32.0770  -19.0620   21.1720 C   0  0  0  0  0  3  0  0  0  0  0  0
  -29.7740  -19.4630   20.5080 C   0  0  0  0  0  3  0  0  0  0  0  0
  -32.3550  -20.4380   21.0610 C   0  0  0  0  0  3  0  0  0  0  0  0
  -30.0460  -20.8460   20.4080 C   0  0  0  0  0  3  0  0  0  0  0  0
  -30.8060  -18.5580   20.8360 C   0  0  0  0  0  0  0  0  0  0  0  0
  -31.3590  -21.3270   20.6120 C   0  0  0  0  0  0  0  0  0  0  0  0
  -30.7870  -17.1580   20.4050 C   0  0  0  0  0  2  0  0  0  0  0  0
  -30.5320  -16.0090   21.0830 C   0  0  0  0  0  2  0  0  0  0  0  0
  -31.0290  -14.7940   20.4380 C   0  0  0  0  0  0  0  0  0  0  0  0
  -30.8780  -12.4040   19.8820 C   0  0  0  0  0  2  0  0  0  0  0  0
  -30.0990  -12.2220   18.5680 C   0  0  0  0  0  2  0  0  0  0  0  0
  -28.6090  -12.0420   18.8940 C   0  0  0  0  0  2  0  0  0  0  0  0
  -28.0670  -13.1530   19.8350 C   0  0  0  0  0  3  0  0  0  0  0  0
  -28.9970  -13.3960   21.0520 C   0  0  0  0  0  2  0  0  0  0  0  0
  -30.3650  -13.6100   20.5630 N   0  0  0  0  0  0  0  0  0  0  0  0
  -32.0960  -14.8470   19.8210 O   0  0  0  0  0  0  0  0  0  0  0  0
  -25.6320  -13.7450   20.4170 C   0  0  0  0  0  0  0  0  0  0  0  0
  -24.5550  -12.9660   20.7460 C   0  0  0  0  0  0  0  0  0  0  0  0
  -25.0250  -11.6160   20.7530 C   0  0  0  0  0  0  0  0  0  0  0  0
  -26.6940  -12.8690   20.2510 N   0  0  0  0  0  0  0  0  0  0  0  0
  -26.3290  -11.5860   20.5110 N   0  0  0  0  0  0  0  0  0  0  0  0
  -24.2940  -10.3530   20.9260 C   0  0  0  0  0  0  0  0  0  0  0  0
  -24.5250   -9.5170   22.0380 C   0  0  0  0  0  3  0  0  0  0  0  0
  -23.8050   -8.3130   22.1960 C   0  0  0  0  0  3  0  0  0  0  0  0
  -22.8350   -7.9370   21.2350 C   0  0  0  0  0  0  0  0  0  0  0  0
  -22.6210   -8.7630   20.1170 C   0  0  0  0  0  3  0  0  0  0  0  0
  -23.3440   -9.9580   19.9610 C   0  0  0  0  0  3  0  0  0  0  0  0
  -22.1010   -6.7760   21.2910 O   0  0  0  0  0  0  0  0  0  0  0  0
  -21.6680   -6.2550   22.4840 C   0  0  0  0  0  0  0  0  0  0  0  0
  -20.8260   -6.9820   23.3530 C   0  0  0  0  0  3  0  0  0  0  0  0
  -20.3470   -6.3830   24.5340 C   0  0  0  0  0  3  0  0  0  0  0  0
  -20.7000   -5.0550   24.8430 C   0  0  0  0  0  0  0  0  0  0  0  0
  -21.5320   -4.3260   23.9780 C   0  0  0  0  0  3  0  0  0  0  0  0
  -22.0110   -4.9250   22.8000 C   0  0  0  0  0  0  0  0  0  0  0  0
  -22.7980   -4.2110   21.9560 F   0  0  0  0  0  0  0  0  0  0  0  0
  -20.2330   -4.4750   25.9760 F   0  0  0  0  0  0  0  0  0  0  0  0
  -23.1410  -13.4340   20.9440 C   0  0  0  0  0  0  0  0  0  0  0  0
  -22.3890  -12.7720   21.8150 N   0  0  0  0  0  0  0  0  0  0  0  0
  -22.7070  -14.4230   20.3570 O   0  0  0  0  0  0  0  0  0  0  0  0
  -22.7490  -11.9790   22.3270 H   0  0  0  0  0  0  0  0  0  0  0  0
  -21.4370  -13.0720   21.9770 H   0  0  0  0  0  0  0  0  0  0  0  0
  -25.7970  -15.1150   20.2300 N   0  0  0  0  0  0  0  0  0  0  0  0
  -25.0320  -15.7780   20.3080 H   0  0  0  0  0  0  0  0  0  0  0  0
  -26.6720  -15.5520   19.9670 H   0  0  0  0  0  0  0  0  0  0  0  0
  1  3  1  0
  2  1  2  0
  4  6  1  0
  5  4  2  0
  5  2  1  0
  6 54  1  0
  6  3  2  0
  7  9  2  0
  7  5  1  0
  8  7  1  0
 10  8  1  0
 11  8  1  0
 12 11  1  0
 12 13  1  0
 13 15  1  0
 14 25  2  0
 15 20  1  0
 16 26  1  0
 16 24  1  0
 17 23  1  0
 17 19  1  0
 18 24  1  0
 19 18  1  0
 20 19  2  0
 21 22  1  0
 21 15  2  0
 22 17  2  0
 23 16  1  0
 24 14  1  0
 26 28  2  0
 27 26  1  0
 29 27  1  0
 30 39  2  0
 30 35  1  0
 31 27  1  0
 31 35  1  0
 32 31  1  0
 33 34  1  0
 33 32  1  0
 34 30  1  0
 35 36  2  0
 36 37  1  0
 38 37  2  0
 39 38  1  0
 40 14  1  0
 40 41  1  0
 40 50  1  0
 41 44  1  0
 42 41  1  0
 42 46  1  0
 43 42  2  0
 46 45  1  0
 46 48  1  0
 48 49  1  0
 48 47  1  0
 50 53  1  1
 50 51  1  0
 52 50  1  0
 55 61  1  0
 55 54  1  0
 57 60  1  0
 58 56  1  0
 59 57  2  0
 59 61  1  0
 60 56  2  0
 61 58  2  0
 62 60  1  0
 62 63  1  0
 64 70  1  0
 64 63  1  0
 65 70  1  0
 66 67  1  0
 66 65  1  0
 68 67  1  0
 68 75  1  0
 68 69  1  0
 70 69  1  0
 71 64  2  0
 72 73  2  0
 73 74  1  0
 73 92  1  0
 74 77  1  0
 75 72  1  0
 75 76  1  0
 76 74  2  0
 77 78  1  0
 78 79  2  0
 80 83  1  0
 80 79  1  0
 81 80  2  0
 82 81  1  0
 82 77  2  0
 83 84  1  0
 84 89  2  0
 84 85  1  0
 85 86  2  0
 86 87  1  0
 87 91  1  0
 88 87  2  0
 89 88  1  0
 90 89  1  0
 92 93  1  0
 93 96  1  0
 93 95  1  0
 94 92  2  0
 97 98  1  0
 97 72  1  0
 99 97  1  0
M  ISO  4  12 101  13 101  63 100  64 100
M  END
>  <TORSDO>  (61) 
F 23

>  <SCORE>  (61) 
-4.983

>  <name>  (61) 
61

>  <ligand_id>  (61) 
61

>  <original_smiles>  (61) 
[H]C(C(=O)N1C([H])([H])C([H])([H])C([H])([H])C([H])(n2nc(-c3c([H])c([H])c(Oc4c([H])c([H])c(F)c([H])c4F)c([H])c3[H])c(C(=O)N([H])[H])c2N([H])[H])C1([H])[H])=C([H])c1c([H])c([H])c(C([H])([H])C([H])([H])c2c([H])c([H])c([H])c(C(=O)N([H])C([H])([H])C([H])([H])Oc3c([H])c([H])c4c(c3[H])C([H])([H])N(C(=O)C([H])(N([H])C(=O)C([H])(N([H])C([H])([H])[H])C([H])([H])[H])C(C([H])([H])[H])(C([H])([H])[H])C([H])([H])[H])C([H])(C(=O)N([H])C3([H])c5c([H])c([H])c([H])c([H])c5C([H])([H])C([H])([H])C3([H])[H])C4([H])[H])c2[H])c([H])c1[H]

>  <smiles>  (61) 
[H]C(C(=O)N1C([H])([H])C([H])([H])C([H])([H])C([H])(n2nc(-c3c([H])c([H])c(Oc4c([H])c([H])c(F)c([H])c4F)c([H])c3[H])c(C(=O)N([H])[H])c2N([H])[H])C1([H])[H])=C([H])c1c([H])c([H])c(C([H])([H])C([H])([H])c2c([H])c([H])c([H])c(C(=O)N([H])C([H])([H])C([H])([H])Oc3c([H])c([H])c4c(c3[H])C([H])([H])N(C(=O)C([H])(N([H])C(=O)C([H])(N([H])C([H])([H])[H])C([H])([H])[H])C(C([H])([H])[H])(C([H])([H])[H])C([H])([H])[H])C([H])(C(=O)N([H])C3([H])c5c([H])c([H])c([H])c([H])c5C([H])([H])C([H])([H])C3([H])[H])C4([H])[H])c2[H])c([H])c1[H]

$$$$
62:0:0
     RDKit          3D

 92 99  0  0  1  0  0  0  0  0999 V2000
  -28.7140  -24.5060   20.2770 C   0  0  0  0  0  3  0  0  0  0  0  0
  -29.3630  -23.2940   19.6840 N   0  0  0  0  0  4  0  0  0  0  0  0
  -30.3580  -23.4410   19.5980 H   0  0  0  0  0  0  0  0  0  0  0  0
  -29.0110  -23.2070   18.7420 H   0  0  0  0  0  0  0  0  0  0  0  0
  -29.1010  -21.9800   20.3250 C   0  0  0  0  0  2  0  0  0  0  0  0
  -29.5700  -20.8030   19.4350 C   0  0  0  0  0  2  0  0  0  0  0  0
  -29.0300  -19.4040   19.8380 C   0  0  0  0  0  2  0  0  0  0  0  0
  -30.0350  -18.4520   20.5320 C   0  0  0  0  0  2  0  0  0  0  0  0
  -29.5810  -16.9670   20.4840 C   0  0  0  0  0  2  0  0  0  0  0  0
  -30.4570  -15.9700   21.3020 C   0  0  0  0  0  2  0  0  0  0  0  0
  -30.9630  -14.7470   20.4910 C   0  0  0  0  0  0  0  0  0  0  0  0
  -30.5970  -12.5820   19.3450 C   0  0  0  0  0  2  0  0  0  0  0  0
  -29.7400  -12.7790   18.0720 C   0  0  0  0  0  2  0  0  0  0  0  0
  -28.2360  -13.0100   18.3590 C   0  0  0  0  0  2  0  0  0  0  0  0
  -27.9060  -12.9520   19.8530 C   0  0  0  0  0  3  0  0  0  0  0  0
  -28.8860  -13.4520   20.9070 C   0  0  0  0  0  2  0  0  0  0  0  0
  -30.2270  -13.6160   20.3330 N   0  0  0  0  0  0  0  0  0  0  0  0
  -32.0610  -14.8750   19.9510 O   0  0  0  0  0  0  0  0  0  0  0  0
  -25.4920  -13.9320   20.3820 C   0  0  0  0  0  0  0  0  0  0  0  0
  -24.3760  -13.2140   20.7520 C   0  0  0  0  0  0  0  0  0  0  0  0
  -24.7850  -11.8510   20.7750 C   0  0  0  0  0  0  0  0  0  0  0  0
  -26.5000  -12.9740   20.2240 N   0  0  0  0  0  0  0  0  0  0  0  0
  -26.0510  -11.7430   20.4920 N   0  0  0  0  0  0  0  0  0  0  0  0
  -24.0750  -10.6000   20.9830 C   0  0  0  0  0  0  0  0  0  0  0  0
  -24.5050   -9.6750   21.9600 C   0  0  0  0  0  3  0  0  0  0  0  0
  -23.8140   -8.4610   22.1370 C   0  0  0  0  0  3  0  0  0  0  0  0
  -22.6850   -8.1700   21.3350 C   0  0  0  0  0  0  0  0  0  0  0  0
  -22.2880   -9.0820   20.3400 C   0  0  0  0  0  3  0  0  0  0  0  0
  -22.9800  -10.2880   20.1610 C   0  0  0  0  0  3  0  0  0  0  0  0
  -21.9610   -7.0100   21.4270 O   0  0  0  0  0  0  0  0  0  0  0  0
  -21.8480   -6.3300   22.6120 C   0  0  0  0  0  0  0  0  0  0  0  0
  -21.2920   -6.9240   23.7650 C   0  0  0  0  0  3  0  0  0  0  0  0
  -21.1370   -6.1620   24.9420 C   0  0  0  0  0  3  0  0  0  0  0  0
  -21.5200   -4.8080   24.9600 C   0  0  0  0  0  0  0  0  0  0  0  0
  -22.0670   -4.2140   23.8090 C   0  0  0  0  0  3  0  0  0  0  0  0
  -22.2300   -4.9740   22.6380 C   0  0  0  0  0  0  0  0  0  0  0  0
  -22.7400   -4.3950   21.5250 F   0  0  0  0  0  0  0  0  0  0  0  0
  -21.3570   -4.0740   26.0850 F   0  0  0  0  0  0  0  0  0  0  0  0
  -22.9810  -13.7140   20.9980 C   0  0  0  0  0  0  0  0  0  0  0  0
  -22.2350  -13.0320   21.8610 N   0  0  0  0  0  0  0  0  0  0  0  0
  -22.5550  -14.7310   20.4540 O   0  0  0  0  0  0  0  0  0  0  0  0
  -22.5900  -12.2060   22.3180 H   0  0  0  0  0  0  0  0  0  0  0  0
  -21.2960  -13.3410   22.0710 H   0  0  0  0  0  0  0  0  0  0  0  0
  -25.7220  -15.2880   20.1710 N   0  0  0  0  0  0  0  0  0  0  0  0
  -26.6090  -15.6520   19.8440 H   0  0  0  0  0  0  0  0  0  0  0  0
  -24.9990  -15.9960   20.2360 H   0  0  0  0  0  0  0  0  0  0  0  0
  -28.5630  -25.5670   19.1390 C   0  0  0  0  0  2  0  0  0  0  0  0
  -28.4150  -26.9240   19.5870 O   0  0  0  0  0  0  0  0  0  0  0  0
  -24.5900  -31.7950   23.0890 C   0  0  0  0  0  0  0  0  0  0  0  0
  -27.1850  -27.5420   19.7000 C   0  0  0  0  0  0  0  0  0  0  0  0
  -23.3370  -30.4350   21.4490 C   0  0  0  0  0  3  0  0  0  0  0  0
  -24.7550  -28.9850   19.9010 C   0  0  0  0  0  0  0  0  0  0  0  0
  -25.8410  -30.8590   21.1480 C   0  0  0  0  0  2  0  0  0  0  0  0
  -25.9270  -29.5110   20.4590 C   0  0  0  0  0  0  0  0  0  0  0  0
  -27.1390  -28.7920   20.3650 C   0  0  0  0  0  3  0  0  0  0  0  0
  -25.9870  -27.0180   19.1630 C   0  0  0  0  0  3  0  0  0  0  0  0
  -24.7800  -27.7360   19.2580 C   0  0  0  0  0  3  0  0  0  0  0  0
  -23.5000  -29.8170   20.0340 C   0  0  0  0  0  2  0  0  0  0  0  0
  -24.6110  -31.0410   21.9550 N   0  0  0  0  0  0  0  0  0  0  0  0
  -23.5300  -32.0270   23.6870 O   0  0  0  0  0  0  0  0  0  0  0  0
  -22.7530  -29.3600   22.3930 C   0  0  0  0  0  0  0  0  0  0  0  0
  -21.4380  -29.1130   22.2790 N   0  0  0  0  0  0  0  0  0  0  0  0
  -23.4790  -28.7520   23.1840 O   0  0  0  0  0  0  0  0  0  0  0  0
  -20.9110  -29.6610   21.6130 H   0  0  0  0  0  0  0  0  0  0  0  0
  -18.1410  -27.7140   22.7400 C   0  0  0  0  0  0  0  0  0  0  0  0
  -20.6750  -28.1200   23.0360 C   0  0  0  0  0  3  0  0  0  0  0  0
  -20.8700  -26.7030   22.4490 C   0  0  0  0  0  2  0  0  0  0  0  0
  -19.7960  -26.3250   21.4240 C   0  0  0  0  0  2  0  0  0  0  0  0
  -18.4030  -26.3820   22.0570 C   0  0  0  0  0  2  0  0  0  0  0  0
  -19.2080  -28.5370   23.1850 C   0  0  0  0  0  0  0  0  0  0  0  0
  -18.9110  -29.7830   23.7790 C   0  0  0  0  0  3  0  0  0  0  0  0
  -17.5770  -30.2060   23.9330 C   0  0  0  0  0  3  0  0  0  0  0  0
  -16.5240  -29.3800   23.5050 C   0  0  0  0  0  3  0  0  0  0  0  0
  -16.8060  -28.1340   22.9140 C   0  0  0  0  0  3  0  0  0  0  0  0
  -25.8920  -32.4260   23.6750 C   0  0  0  0  0  3  0  0  0  0  0  0
  -26.4740  -31.6220   24.9010 C   0  0  1  0  0  0  0  0  0  0  0  0
  -25.4320  -31.3360   26.0050 C   0  0  0  0  0  1  0  0  0  0  0  0
  -27.0580  -30.2660   24.4390 C   0  0  0  0  0  1  0  0  0  0  0  0
  -27.6400  -32.4110   25.5380 C   0  0  0  0  0  1  0  0  0  0  0  0
  -25.5800  -33.8090   24.0560 N   0  0  0  0  0  0  0  0  0  0  0  0
  -25.9010  -34.8870   23.3270 C   0  0  0  0  0  0  0  0  0  0  0  0
  -26.5610  -34.8190   22.2870 O   0  0  0  0  0  0  0  0  0  0  0  0
  -24.9850  -33.9330   24.8620 H   0  0  0  0  0  0  0  0  0  0  0  0
  -24.1810  -36.6940   23.0200 C   0  0  0  0  0  1  0  0  0  0  0  0
  -25.4110  -36.2560   23.8320 C   0  0  0  0  0  3  0  0  0  0  0  0
  -27.5340  -37.1100   24.7250 C   0  0  0  0  0  1  0  0  0  0  0  0
  -26.4460  -37.3120   23.7710 N   0  0  0  0  0  0  0  0  0  0  0  0
  -26.0390  -38.2260   23.9420 H   0  0  0  0  0  0  0  0  0  0  0  0
  -29.5030  -25.0740   21.5080 C   0  0  0  0  0  2  0  0  0  0  0  0
  -27.6760  -24.2900   23.2390 C   0  0  0  0  0  1  0  0  0  0  0  0
  -30.1080  -23.6150   23.5960 C   0  0  0  0  0  1  0  0  0  0  0  0
  -29.1500  -24.6400   22.9650 C   0  0  0  0  0  3  0  0  0  0  0  0
  1 47  1  0
  1 89  1  0
  2  1  1  0
  2  5  1  0
  3  2  1  0
  4  2  1  0
  6  7  1  0
  6  5  1  0
  7  8  1  0
  9  8  1  0
  9 10  1  0
 11 10  1  0
 12 17  1  0
 13 14  1  0
 13 12  1  0
 15 14  1  0
 15 22  1  0
 15 16  1  0
 17 11  1  0
 17 16  1  0
 18 11  2  0
 19 20  2  0
 20 21  1  0
 20 39  1  0
 21 24  1  0
 22 19  1  0
 22 23  1  0
 23 21  2  0
 24 25  1  0
 25 26  2  0
 27 30  1  0
 27 26  1  0
 28 27  2  0
 29 28  1  0
 29 24  2  0
 30 31  1  0
 31 36  2  0
 31 32  1  0
 32 33  2  0
 33 34  1  0
 34 38  1  0
 35 34  2  0
 36 35  1  0
 37 36  1  0
 39 40  1  0
 40 43  1  0
 40 42  1  0
 41 39  2  0
 44 46  1  0
 44 19  1  0
 45 44  1  0
 47 48  1  0
 48 50  1  0
 49 60  2  0
 50 55  1  0
 51 59  1  0
 51 61  1  0
 52 58  1  0
 52 54  1  0
 53 59  1  0
 54 53  1  0
 55 54  2  0
 56 57  1  0
 56 50  2  0
 57 52  2  0
 58 51  1  0
 59 49  1  0
 61 63  2  0
 62 61  1  0
 64 62  1  0
 65 74  2  0
 65 70  1  0
 66 62  1  0
 66 70  1  0
 67 66  1  0
 68 69  1  0
 68 67  1  0
 69 65  1  0
 70 71  2  0
 71 72  1  0
 73 72  2  0
 74 73  1  0
 75 49  1  0
 75 80  1  0
 75 76  1  0
 76 79  1  1
 76 77  1  0
 78 76  1  0
 80 83  1  0
 81 85  1  0
 81 80  1  0
 82 81  2  0
 85 84  1  0
 87 85  1  0
 87 88  1  0
 87 86  1  0
 89 92  1  0
 92 90  1  0
 92 91  1  0
M  ISO  4  10 100  11 100  47 101  48 101
M  END
>  <TORSDO>  (62) 
F 26

>  <SCORE>  (62) 
-10.507

>  <name>  (62) 
62

>  <ligand_id>  (62) 
62

>  <original_smiles>  (62) 
[H]c1c([H])c([H])c2c(c1[H])C([H])([H])C([H])([H])C([H])([H])C2([H])N([H])C(=O)C1([H])N(C(=O)C([H])(N([H])C(=O)C([H])(N([H])C([H])([H])[H])C([H])([H])[H])C(C([H])([H])[H])(C([H])([H])[H])C([H])([H])[H])C([H])([H])c2c([H])c(OC([H])([H])C([H])(C([H])([H])C([H])(C([H])([H])[H])C([H])([H])[H])[N+]([H])([H])C([H])([H])C([H])([H])C([H])([H])C([H])([H])C([H])([H])C([H])([H])C(=O)N3C([H])([H])C([H])([H])C([H])([H])C([H])(n4nc(-c5c([H])c([H])c(Oc6c([H])c([H])c(F)c([H])c6F)c([H])c5[H])c(C(=O)N([H])[H])c4N([H])[H])C3([H])[H])c([H])c([H])c2C1([H])[H]

>  <smiles>  (62) 
[H]c1c([H])c([H])c2c(c1[H])C([H])([H])C([H])([H])C([H])([H])C2([H])N([H])C(=O)C1([H])N(C(=O)C([H])(N([H])C(=O)C([H])(N([H])C([H])([H])[H])C([H])([H])[H])C(C([H])([H])[H])(C([H])([H])[H])C([H])([H])[H])C([H])([H])c2c([H])c(OC([H])([H])C([H])(C([H])([H])C([H])(C([H])([H])[H])C([H])([H])[H])[N+]([H])([H])C([H])([H])C([H])([H])C([H])([H])C([H])([H])C([H])([H])C([H])([H])C(=O)N3C([H])([H])C([H])([H])C([H])([H])C([H])(n4nc(-c5c([H])c([H])c(Oc6c([H])c([H])c(F)c([H])c6F)c([H])c5[H])c(C(=O)N([H])[H])c4N([H])[H])C3([H])[H])c([H])c([H])c2C1([H])[H]

$$$$
63:0:0
     RDKit          3D

 89 84  0  0  1  0  0  0  0  0999 V2000
  -25.2750  -30.7600   25.8190 C   0  0  0  0  0  2  0  0  0  0  0  0
  -24.4130  -31.2920   26.5200 O   0  0  0  0  0  0  0  0  0  0  0  0
  -26.9450  -33.4420   25.8850 C   0  0  0  0  0  1  0  0  0  0  0  0
  -26.9330  -32.0070   25.2580 C   0  0  0  0  0  1  0  0  0  0  0  0
  -28.0700  -31.5350   23.1320 C   0  0  0  0  0 15  0  0  0  0  0  0
  -28.2240  -29.8350   22.0700 O   0  0  0  0  0  1  0  0  0  0  0  0
  -24.3400  -31.3650   22.9880 C   0  0  0  0  0  0  0  0  0  0  0  0
  -27.4490  -29.0090   21.0130 C   0  0  0  0  0  3  0  0  0  0  0  0
  -23.0810  -30.2820   21.2620 C   0  0  0  0  0  3  0  0  0  0  0  0
  -24.8890  -29.0210   20.0170 C   0  0  0  0  0  3  0  0  0  0  0  0
  -25.2230  -31.3820   20.6600 C   0  0  0  0  0  2  0  0  0  0  0  0
  -25.7620  -30.0780   20.1890 C   0  0  0  0  0  3  0  0  0  0  0  0
  -27.1160  -29.9270   20.1340 C   0  0  0  0  0  2  0  0  0  0  0  0
  -26.7680  -27.7050   20.6750 C   0  0  0  0  0  2  0  0  0  0  0  0
  -25.4550  -27.7310   20.0450 C   0  0  0  0  0  2  0  0  0  0  0  0
  -23.4350  -29.4420   20.0080 C   0  0  0  0  0  2  0  0  0  0  0  0
  -24.1850  -31.1230   21.6850 N   0  0  0  0  0  0  0  0  0  0  0  0
  -23.4250  -31.7770   23.7290 O   0  0  0  0  0  0  0  0  0  0  0  0
  -22.5620  -29.3200   22.3160 C   0  0  0  0  0  0  0  0  0  0  0  0
  -21.2510  -29.2370   22.3660 N   0  0  0  0  0  0  0  0  0  0  0  0
  -23.3260  -28.6340   22.9830 O   0  0  0  0  0  0  0  0  0  0  0  0
  -20.7050  -29.8310   21.7580 H   0  0  0  0  0  0  0  0  0  0  0  0
  -17.9850  -28.1190   22.8640 C   0  0  0  0  0  0  0  0  0  0  0  0
  -20.5170  -28.3070   23.1790 C   0  0  0  0  0  3  0  0  0  0  0  0
  -20.6140  -26.8830   22.5900 C   0  0  0  0  0  2  0  0  0  0  0  0
  -19.5370  -26.6160   21.5390 C   0  0  0  0  0  2  0  0  0  0  0  0
  -18.1480  -26.7810   22.1610 C   0  0  0  0  0  2  0  0  0  0  0  0
  -19.1060  -28.8430   23.3330 C   0  0  0  0  0  0  0  0  0  0  0  0
  -18.9200  -30.1120   23.9220 C   0  0  0  0  0  3  0  0  0  0  0  0
  -17.6280  -30.6510   24.0630 C   0  0  0  0  0  3  0  0  0  0  0  0
  -16.5120  -29.9140   23.6280 C   0  0  0  0  0  3  0  0  0  0  0  0
  -16.6920  -28.6520   23.0330 C   0  0  0  0  0  3  0  0  0  0  0  0
  -25.7670  -31.2890   23.3980 C   0  0  0  0  0  2  0  0  0  0  0  0
  -27.2110  -29.8610   24.5810 C   0  0  0  0  0  3  0  0  0  0  0  0
  -27.3390  -29.5130   26.3150 C   0  0  0  0  0  1  0  0  0  0  0  0
  -27.4450  -28.5930   24.0320 C   0  0  0  0  0  1  0  0  0  0  0  0
  -28.8160  -30.2920   25.1040 C   0  0  0  0  0  1  0  0  0  0  0  0
  -25.5380  -33.0460   23.5270 N   0  0  0  0  0  0  0  0  0  0  0  0
  -25.9510  -34.3880   23.2000 C   0  0  0  0  0  0  0  0  0  0  0  0
  -26.7710  -34.5850   22.3140 O   0  0  0  0  0  0  0  0  0  0  0  0
  -24.7150  -33.1420   24.1170 H   0  0  0  0  0  0  0  0  0  0  0  0
  -24.1370  -36.3390   23.2420 C   0  0  0  0  0  1  0  0  0  0  0  0
  -25.4320  -35.7830   23.8830 C   0  0  0  0  0  3  0  0  0  0  0  0
  -27.4800  -36.9860   24.8120 C   0  0  0  0  0  1  0  0  0  0  0  0
  -26.3710  -36.9730   23.8600 N   0  0  0  0  0  0  0  0  0  0  0  0
  -25.8480  -37.8320   23.9930 H   0  0  0  0  0  0  0  0  0  0  0  0
  -25.0030  -28.7360   25.3600 C   0  0  0  0  0 15  0  0  0  0  0  0
  -25.7490  -26.7070   25.1150 C   0  0  0  0  0 15  0  0  0  0  0  0
  -26.3950  -25.0450   23.9410 C   0  0  0  0  0 15  0  0  0  0  0  0
  -27.2820  -23.1020   23.8170 C   0  0  0  0  0 15  0  0  0  0  0  0
  -27.6380  -21.2810   22.7410 C   0  0  0  0  0 15  0  0  0  0  0  0
  -28.7360  -19.4650   22.4590 C   0  0  0  0  0 15  0  0  0  0  0  0
  -28.8800  -17.5260   21.5780 C   0  0  0  0  0 15  0  0  0  0  0  0
  -29.9330  -15.8830   20.9910 C   0  0  0  0  0  2  0  0  0  0  0  0
  -30.3770  -13.3580   19.8120 C   0  0  0  0  0  2  0  0  0  0  0  0
  -29.6050  -12.8480   18.5260 C   0  0  0  0  0  2  0  0  0  0  0  0
  -28.1900  -12.3650   18.8600 C   0  0  0  0  0  2  0  0  0  0  0  0
  -27.5800  -13.3290   19.8940 C   0  0  0  0  0  3  0  0  0  0  0  0
  -28.4770  -13.6250   21.1190 C   0  0  0  0  0  2  0  0  0  0  0  0
  -29.6210  -14.4380   20.6770 N   0  0  0  0  0  0  0  0  0  0  0  0
  -31.1480  -15.9270   20.6440 O   0  0  0  0  0  1  0  0  0  0  0  0
  -25.2090  -13.8280   20.5730 C   0  0  0  0  0  0  0  0  0  0  0  0
  -24.1520  -13.0390   20.9200 C   0  0  0  0  0  0  0  0  0  0  0  0
  -24.6260  -11.6920   20.8670 C   0  0  0  0  0  0  0  0  0  0  0  0
  -26.2510  -12.9630   20.3200 N   0  0  0  0  0  0  0  0  0  0  0  0
  -25.9180  -11.6680   20.5580 N   0  0  0  0  0  0  0  0  0  0  0  0
  -23.9020  -10.4260   21.0350 C   0  0  0  0  0  0  0  0  0  0  0  0
  -24.3600   -9.4200   21.9140 C   0  0  0  0  0  3  0  0  0  0  0  0
  -23.6290   -8.2230   22.0720 C   0  0  0  0  0  3  0  0  0  0  0  0
  -22.4280   -8.0270   21.3520 C   0  0  0  0  0  0  0  0  0  0  0  0
  -21.9900   -9.0210   20.4620 C   0  0  0  0  0  3  0  0  0  0  0  0
  -22.7200  -10.2090   20.3010 C   0  0  0  0  0  3  0  0  0  0  0  0
  -21.6630   -6.8870   21.4250 O   0  0  0  0  0  0  0  0  0  0  0  0
  -21.6850   -6.0740   22.5290 C   0  0  0  0  0  0  0  0  0  0  0  0
  -21.4020   -6.5640   23.8220 C   0  0  0  0  0  3  0  0  0  0  0  0
  -21.3660   -5.6790   24.9180 C   0  0  0  0  0  3  0  0  0  0  0  0
  -21.6040   -4.3050   24.7230 C   0  0  0  0  0  0  0  0  0  0  0  0
  -21.8810   -3.8140   23.4340 C   0  0  0  0  0  3  0  0  0  0  0  0
  -21.9190   -4.6970   22.3410 C   0  0  0  0  0  0  0  0  0  0  0  0
  -22.1660   -4.2150   21.0980 F   0  0  0  0  0  0  0  0  0  0  0  0
  -21.5640   -3.4530   25.7730 F   0  0  0  0  0  0  0  0  0  0  0  0
  -22.7570  -13.5120   21.1930 C   0  0  0  0  0  0  0  0  0  0  0  0
  -22.0270  -12.8090   22.0510 N   0  0  0  0  0  0  0  0  0  0  0  0
  -22.3230  -14.5440   20.6790 O   0  0  0  0  0  0  0  0  0  0  0  0
  -22.3930  -11.9760   22.4890 H   0  0  0  0  0  0  0  0  0  0  0  0
  -21.0880  -13.1090   22.2750 H   0  0  0  0  0  0  0  0  0  0  0  0
  -25.3730  -15.2060   20.4330 N   0  0  0  0  0  0  0  0  0  0  0  0
  -24.6080  -15.8620   20.5510 H   0  0  0  0  0  0  0  0  0  0  0  0
  -26.2230  -15.6480   20.1100 H   0  0  0  0  0  0  0  0  0  0  0  0
  1  2  2  0
  4  3  1  0
  7 33  1  0
  7 18  2  0
  8  6  1  0
  9 17  1  0
  9 19  1  0
 10 16  1  0
 10 15  1  0
 10 12  1  0
 11 17  1  0
 12 13  1  0
 12 11  1  0
 13  8  1  0
 14  8  1  0
 15 14  1  0
 16  9  1  0
 17  7  1  0
 19 20  1  0
 19 21  2  0
 22 20  1  0
 23 32  2  0
 23 28  1  0
 24 20  1  0
 24 28  1  0
 25 24  1  0
 26 27  1  0
 26 25  1  0
 27 23  1  0
 28 29  2  0
 29 30  1  0
 31 30  2  0
 32 31  1  0
 33 38  1  0
 34 37  1  0
 34 35  1  0
 36 34  1  0
 38 41  1  0
 39 38  1  0
 39 43  1  0
 40 39  2  0
 43 42  1  0
 45 43  1  0
 45 46  1  0
 45 44  1  0
 55 60  1  0
 56 57  1  0
 56 55  1  0
 58 57  1  0
 58 65  1  0
 58 59  1  0
 60 54  1  0
 60 59  1  0
 61 54  1  0
 62 63  2  0
 63 82  1  0
 64 63  1  0
 64 67  1  0
 65 66  1  0
 65 62  1  0
 66 64  2  0
 67 68  1  0
 68 69  2  0
 70 73  1  0
 70 69  1  0
 71 70  2  0
 72 71  1  0
 72 67  2  0
 73 74  1  0
 74 75  1  0
 75 76  2  0
 77 76  1  0
 77 81  1  0
 78 77  2  0
 79 74  2  0
 79 78  1  0
 80 79  1  0
 82 83  1  0
 83 86  1  0
 83 85  1  0
 84 82  2  0
 87 88  1  0
 87 62  1  0
 89 87  1  0
M  ISO  4   5 101   6 101  53 100  54 100
M  END
>  <TORSDO>  (63) 
F 25

>  <SCORE>  (63) 
1.910

>  <name>  (63) 
63

>  <ligand_id>  (63) 
63

>  <original_smiles>  (63) 
[H]c1c([H])c([H])c2c(c1[H])C([H])([H])C([H])([H])C([H])([H])C2([H])N([H])C(=O)C1([H])N(C(=O)C([H])(N([H])C(=O)C([H])(N([H])C([H])([H])[H])C([H])([H])[H])C(C([H])([H])[H])(C([H])([H])[H])C([H])([H])[H])C([H])([H])c2c([H])c(OC([H])([H])C([H])(C(=O)C([H])([H])C([H])([H])C([H])([H])C([H])([H])C([H])([H])C([H])([H])C([H])([H])C(=O)N3C([H])([H])C([H])([H])C([H])([H])C([H])(n4nc(-c5c([H])c([H])c(Oc6c([H])c([H])c(F)c([H])c6F)c([H])c5[H])c(C(=O)N([H])[H])c4N([H])[H])C3([H])[H])C([H])([H])[H])c([H])c([H])c2C1([H])[H]

>  <smiles>  (63) 
[H]c1c([H])c([H])c2c(c1[H])C([H])([H])C([H])([H])C([H])([H])C2([H])N([H])C(=O)C1([H])N(C(=O)C([H])(N([H])C(=O)C([H])(N([H])C([H])([H])[H])C([H])([H])[H])C(C([H])([H])[H])(C([H])([H])[H])C([H])([H])[H])C([H])([H])c2c([H])c(OC([H])([H])C([H])(C(=O)C([H])([H])C([H])([H])C([H])([H])C([H])([H])C([H])([H])C([H])([H])C([H])([H])C(=O)N3C([H])([H])C([H])([H])C([H])([H])C([H])(n4nc(-c5c([H])c([H])c(Oc6c([H])c([H])c(F)c([H])c6F)c([H])c5[H])c(C(=O)N([H])[H])c4N([H])[H])C3([H])[H])C([H])([H])[H])c([H])c([H])c2C1([H])[H]

$$$$
64:0:0
     RDKit          3D

 99108  0  0  1  0  0  0  0  0999 V2000
  -31.0810  -22.0620   24.5990 C   0  0  0  0  0  3  0  0  0  0  0  0
  -30.0190  -22.9700   24.7430 C   0  0  0  0  0  3  0  0  0  0  0  0
  -31.3950  -21.5530   23.3260 C   0  0  0  0  0  3  0  0  0  0  0  0
  -29.2800  -23.3710   23.6140 C   0  0  0  0  0  3  0  0  0  0  0  0
  -30.6490  -21.9300   22.1870 C   0  0  0  0  0  0  0  0  0  0  0  0
  -29.5830  -22.8620   22.3310 C   0  0  0  0  0  0  0  0  0  0  0  0
  -31.0550  -21.3170   20.8470 C   0  0  0  0  0  2  0  0  0  0  0  0
  -32.5440  -19.2060   20.5430 C   0  0  0  0  0  0  0  0  0  0  0  0
  -30.0480  -19.1130   19.9840 C   0  0  0  0  0  2  0  0  0  0  0  0
  -29.6580  -17.6660   20.3500 C   0  0  0  0  0  2  0  0  0  0  0  0
  -31.9270  -16.8720   21.2190 C   0  0  0  0  0  2  0  0  0  0  0  0
  -31.1340  -19.7530   20.8870 C   0  0  0  0  0  3  0  0  0  0  0  0
  -30.7980  -16.6470   20.1910 C   0  0  0  0  0  3  0  0  0  0  0  0
  -32.8370  -17.9240   20.7890 N   0  0  0  0  0  0  0  0  0  0  0  0
  -33.4140  -19.9330   20.0660 O   0  0  0  0  0  0  0  0  0  0  0  0
  -33.7820  -17.6300   20.5770 H   0  0  0  0  0  0  0  0  0  0  0  0
  -30.7990  -14.2270   19.6120 C   0  0  0  0  0  0  0  0  0  0  0  0
  -30.4620  -11.8920   18.9040 C   0  0  0  0  0  2  0  0  0  0  0  0
  -29.4250  -11.8140   17.7680 C   0  0  0  0  0  2  0  0  0  0  0  0
  -28.0000  -11.7170   18.3420 C   0  0  0  0  0  2  0  0  0  0  0  0
  -27.7170  -12.7960   19.4220 C   0  0  0  0  0  3  0  0  0  0  0  0
  -28.8580  -12.8470   20.4630 C   0  0  0  0  0  2  0  0  0  0  0  0
  -30.1310  -13.0510   19.7470 N   0  0  0  0  0  0  0  0  0  0  0  0
  -31.7940  -14.3530   18.8950 O   0  0  0  0  0  0  0  0  0  0  0  0
  -30.2890  -15.2740   20.2780 N   0  0  0  0  0  0  0  0  0  0  0  0
  -29.4740  -15.1050   20.8500 H   0  0  0  0  0  0  0  0  0  0  0  0
  -25.5290  -13.5120   20.5760 C   0  0  0  0  0  0  0  0  0  0  0  0
  -24.4340  -12.8000   20.9840 C   0  0  0  0  0  0  0  0  0  0  0  0
  -24.7150  -11.4330   20.6760 C   0  0  0  0  0  0  0  0  0  0  0  0
  -26.4160  -12.5830   20.0550 N   0  0  0  0  0  0  0  0  0  0  0  0
  -25.9350  -11.3180   20.1680 N   0  0  0  0  0  0  0  0  0  0  0  0
  -23.8720  -10.2360   20.7820 C   0  0  0  0  0  0  0  0  0  0  0  0
  -24.2050   -9.1720   21.6510 C   0  0  0  0  0  3  0  0  0  0  0  0
  -23.3690   -8.0400   21.7490 C   0  0  0  0  0  3  0  0  0  0  0  0
  -22.1850   -7.9620   20.9780 C   0  0  0  0  0  0  0  0  0  0  0  0
  -21.8700   -9.0120   20.0970 C   0  0  0  0  0  3  0  0  0  0  0  0
  -22.7060  -10.1360   19.9970 C   0  0  0  0  0  3  0  0  0  0  0  0
  -21.3260   -6.8900   20.9890 O   0  0  0  0  0  0  0  0  0  0  0  0
  -21.0660   -6.1870   22.1400 C   0  0  0  0  0  0  0  0  0  0  0  0
  -20.4980   -6.8040   23.2750 C   0  0  0  0  0  3  0  0  0  0  0  0
  -20.1810   -6.0320   24.4120 C   0  0  0  0  0  3  0  0  0  0  0  0
  -20.4250   -4.6450   24.4110 C   0  0  0  0  0  0  0  0  0  0  0  0
  -20.9860   -4.0290   23.2790 C   0  0  0  0  0  3  0  0  0  0  0  0
  -21.3030   -4.7980   22.1450 C   0  0  0  0  0  0  0  0  0  0  0  0
  -21.8250   -4.1960   21.0490 F   0  0  0  0  0  0  0  0  0  0  0  0
  -20.1150   -3.9020   25.4980 F   0  0  0  0  0  0  0  0  0  0  0  0
  -23.1570  -13.3590   21.5420 C   0  0  0  0  0  0  0  0  0  0  0  0
  -22.5070  -12.6280   22.4410 N   0  0  0  0  0  0  0  0  0  0  0  0
  -22.7520  -14.4750   21.2180 O   0  0  0  0  0  0  0  0  0  0  0  0
  -22.8510  -11.7210   22.7230 H   0  0  0  0  0  0  0  0  0  0  0  0
  -21.6560  -12.9790   22.8540 H   0  0  0  0  0  0  0  0  0  0  0  0
  -25.8360  -14.8700   20.5850 N   0  0  0  0  0  0  0  0  0  0  0  0
  -25.1800  -15.5730   20.9090 H   0  0  0  0  0  0  0  0  0  0  0  0
  -26.6880  -15.2670   20.2080 H   0  0  0  0  0  0  0  0  0  0  0  0
  -28.7550  -23.3750   21.1560 C   0  0  0  0  0  2  0  0  0  0  0  0
  -29.3920  -24.6190   20.5100 C   0  0  0  0  0  2  0  0  0  0  0  0
  -28.5030  -25.2970   19.4520 C   0  0  0  0  0  2  0  0  0  0  0  0
  -29.0860  -26.6340   18.9550 C   0  0  0  0  0  2  0  0  0  0  0  0
  -28.2090  -27.2290   17.9990 O   0  0  0  0  0  0  0  0  0  0  0  0
  -24.8260  -30.5270   23.3520 C   0  0  0  0  0  0  0  0  0  0  0  0
  -27.0640  -27.8010   18.4970 C   0  0  0  0  0  0  0  0  0  0  0  0
  -23.4110  -29.7650   21.4690 C   0  0  0  0  0  3  0  0  0  0  0  0
  -24.6650  -28.9880   19.3870 C   0  0  0  0  0  0  0  0  0  0  0  0
  -25.8660  -30.3630   21.0960 C   0  0  0  0  0  2  0  0  0  0  0  0
  -25.8830  -29.3400   19.9830 C   0  0  0  0  0  0  0  0  0  0  0  0
  -27.0860  -28.7470   19.5430 C   0  0  0  0  0  3  0  0  0  0  0  0
  -25.8350  -27.4620   17.8960 C   0  0  0  0  0  3  0  0  0  0  0  0
  -24.6330  -28.0450   18.3430 C   0  0  0  0  0  3  0  0  0  0  0  0
  -23.4240  -29.6690   19.9190 C   0  0  0  0  0  2  0  0  0  0  0  0
  -24.7270  -30.2100   22.0300 N   0  0  0  0  0  0  0  0  0  0  0  0
  -23.8350  -30.4950   24.0950 O   0  0  0  0  0  0  0  0  0  0  0  0
  -22.9290  -28.4130   22.0420 C   0  0  0  0  0  0  0  0  0  0  0  0
  -21.6300  -28.1180   21.8650 N   0  0  0  0  0  0  0  0  0  0  0  0
  -23.7170  -27.6470   22.6010 O   0  0  0  0  0  0  0  0  0  0  0  0
  -21.0500  -28.8010   21.3980 H   0  0  0  0  0  0  0  0  0  0  0  0
  -18.4980  -26.3220   21.7580 C   0  0  0  0  0  0  0  0  0  0  0  0
  -20.9640  -26.8860   22.2840 C   0  0  0  0  0  3  0  0  0  0  0  0
  -21.3280  -25.7130   21.3470 C   0  0  0  0  0  2  0  0  0  0  0  0
  -20.3280  -25.5230   20.2020 C   0  0  0  0  0  2  0  0  0  0  0  0
  -18.9230  -25.2640   20.7530 C   0  0  0  0  0  2  0  0  0  0  0  0
  -19.4570  -27.0950   22.4650 C   0  0  0  0  0  0  0  0  0  0  0  0
  -19.0110  -28.0890   23.3610 C   0  0  0  0  0  3  0  0  0  0  0  0
  -17.6370  -28.3190   23.5550 C   0  0  0  0  0  3  0  0  0  0  0  0
  -16.6900  -27.5410   22.8660 C   0  0  0  0  0  3  0  0  0  0  0  0
  -17.1210  -26.5430   21.9740 C   0  0  0  0  0  3  0  0  0  0  0  0
  -26.1820  -30.9680   23.9890 C   0  0  0  0  0  3  0  0  0  0  0  0
  -25.9970  -32.3230   24.5230 N   0  0  0  0  0  0  0  0  0  0  0  0
  -26.4440  -33.4400   23.9330 C   0  0  0  0  0  0  0  0  0  0  0  0
  -27.1250  -33.4270   22.9040 O   0  0  0  0  0  0  0  0  0  0  0  0
  -25.4030  -32.4130   25.3350 H   0  0  0  0  0  0  0  0  0  0  0  0
  -24.8990  -35.4200   23.8330 C   0  0  0  0  0  1  0  0  0  0  0  0
  -26.0770  -34.7850   24.5880 C   0  0  0  0  0  3  0  0  0  0  0  0
  -28.2630  -35.3260   25.5660 C   0  0  0  0  0  1  0  0  0  0  0  0
  -27.2060  -35.7380   24.6450 N   0  0  0  0  0  0  0  0  0  0  0  0
  -26.8840  -36.6610   24.9260 H   0  0  0  0  0  0  0  0  0  0  0  0
  -26.6890  -29.9850   25.1150 C   0  0  1  0  0  0  0  0  0  0  0  0
  -25.6220  -29.6680   26.1890 C   0  0  0  0  0  1  0  0  0  0  0  0
  -27.1530  -28.6440   24.4980 C   0  0  0  0  0  1  0  0  0  0  0  0
  -27.9200  -30.5950   25.8270 C   0  0  0  0  0  1  0  0  0  0  0  0
  1  2  1  0
  3  1  2  0
  4  2  2  0
  5  6  2  0
  5  3  1  0
  6  4  1  0
  7  5  1  0
  8 14  1  0
  8 12  1  0
  9 10  1  0
  9 12  1  0
 12  7  1  0
 13 25  1  0
 13 10  1  0
 13 11  1  0
 14 11  1  0
 15  8  2  0
 16 14  1  0
 17 23  1  0
 17 25  1  0
 18 23  1  0
 19 20  1  0
 19 18  1  0
 21 20  1  0
 21 30  1  0
 21 22  1  0
 23 22  1  0
 24 17  2  0
 25 26  1  0
 27 52  1  0
 27 28  2  0
 28 47  1  0
 29 32  1  0
 29 28  1  0
 30 31  1  0
 30 27  1  0
 31 29  2  0
 32 33  1  0
 33 34  2  0
 35 38  1  0
 35 34  1  0
 36 35  2  0
 37 36  1  0
 37 32  2  0
 38 39  1  0
 39 44  2  0
 39 40  1  0
 40 41  2  0
 42 41  1  0
 42 46  1  0
 43 42  2  0
 44 43  1  0
 45 44  1  0
 47 48  1  0
 48 50  1  0
 48 51  1  0
 49 47  2  0
 52 53  1  0
 54 52  1  0
 55  6  1  0
 56 55  1  0
 57 56  1  0
 58 57  1  0
 59 61  1  0
 59 58  1  0
 60 71  2  0
 61 66  1  0
 62 70  1  0
 62 72  1  0
 63 69  1  0
 63 65  1  0
 64 70  1  0
 65 64  1  0
 66 65  2  0
 67 68  1  0
 67 61  2  0
 68 63  2  0
 69 62  1  0
 70 60  1  0
 72 74  2  0
 73 72  1  0
 75 73  1  0
 76 85  2  0
 76 81  1  0
 77 73  1  0
 77 81  1  0
 78 77  1  0
 79 80  1  0
 79 78  1  0
 80 76  1  0
 81 82  2  0
 82 83  1  0
 84 83  2  0
 85 84  1  0
 86 60  1  0
 86 87  1  0
 86 96  1  0
 87 90  1  0
 88 87  1  0
 88 92  1  0
 89 88  2  0
 92 91  1  0
 92 94  1  0
 94 95  1  0
 94 93  1  0
 96 99  1  1
 96 97  1  0
 98 96  1  0
M  ISO  4  17 100  25 100  58 101  59 101
M  END
>  <TORSDO>  (64) 
F 22

>  <SCORE>  (64) 
-8.550

>  <name>  (64) 
64

>  <ligand_id>  (64) 
64

>  <original_smiles>  (64) 
[H]c1c([H])c([H])c(C([H])([H])C2([H])C(=O)N([H])C([H])([H])C([H])(N([H])C(=O)N3C([H])([H])C([H])([H])C([H])([H])C([H])(n4nc(-c5c([H])c([H])c(Oc6c([H])c([H])c(F)c([H])c6F)c([H])c5[H])c(C(=O)N([H])[H])c4N([H])[H])C3([H])[H])C([H])([H])C2([H])[H])c(C([H])([H])C([H])([H])C([H])([H])C([H])([H])Oc2c([H])c([H])c3c(c2[H])C([H])([H])N(C(=O)C([H])(N([H])C(=O)C([H])(N([H])C([H])([H])[H])C([H])([H])[H])C(C([H])([H])[H])(C([H])([H])[H])C([H])([H])[H])C([H])(C(=O)N([H])C2([H])c4c([H])c([H])c([H])c([H])c4C([H])([H])C([H])([H])C2([H])[H])C3([H])[H])c1[H]

>  <smiles>  (64) 
[H]c1c([H])c([H])c(C([H])([H])C2([H])C(=O)N([H])C([H])([H])C([H])(N([H])C(=O)N3C([H])([H])C([H])([H])C([H])([H])C([H])(n4nc(-c5c([H])c([H])c(Oc6c([H])c([H])c(F)c([H])c6F)c([H])c5[H])c(C(=O)N([H])[H])c4N([H])[H])C3([H])[H])C([H])([H])C2([H])[H])c(C([H])([H])C([H])([H])C([H])([H])C([H])([H])Oc2c([H])c([H])c3c(c2[H])C([H])([H])N(C(=O)C([H])(N([H])C(=O)C([H])(N([H])C([H])([H])[H])C([H])([H])[H])C(C([H])([H])[H])(C([H])([H])[H])C([H])([H])[H])C([H])(C(=O)N([H])C2([H])c4c([H])c([H])c([H])c([H])c4C([H])([H])C([H])([H])C2([H])[H])C3([H])[H])c1[H]

$$$$
65:0:0
     RDKit          3D

 96104  0  0  1  0  0  0  0  0999 V2000
  -25.3240  -24.3520   16.8750 C   0  0  0  0  0  3  0  0  0  0  0  0
  -27.0850  -22.7740   17.4280 C   0  0  0  0  0  3  0  0  0  0  0  0
  -26.2850  -25.3720   16.7250 C   0  0  0  0  0  3  0  0  0  0  0  0
  -28.0480  -23.7930   17.2860 C   0  0  0  0  0  3  0  0  0  0  0  0
  -25.7100  -23.0520   17.2680 C   0  0  0  0  0  0  0  0  0  0  0  0
  -27.6510  -25.1080   16.9720 C   0  0  0  0  0  0  0  0  0  0  0  0
  -24.6780  -21.9990   17.4580 C   0  0  0  0  0  0  0  0  0  0  0  0
  -23.7100  -21.8530   16.7060 O   0  0  0  0  0  0  0  0  0  0  0  0
  -24.7960  -21.1190   18.7050 C   0  0  0  0  0  2  0  0  0  0  0  0
  -25.4190  -19.7290   18.4500 C   0  0  0  0  0  2  0  0  0  0  0  0
  -26.7290  -19.5370   19.2310 C   0  0  0  0  0  2  0  0  0  0  0  0
  -27.1710  -18.0790   19.3750 C   0  0  0  0  0  2  0  0  0  0  0  0
  -28.5600  -18.0080   20.0180 C   0  0  0  0  0  2  0  0  0  0  0  0
  -29.0900  -16.5830   20.2080 C   0  0  0  0  0  2  0  0  0  0  0  0
  -30.4110  -16.5770   20.9910 C   0  0  0  0  0  2  0  0  0  0  0  0
  -30.8830  -15.1940   21.4880 C   0  0  0  0  0  2  0  0  0  0  0  0
  -31.1980  -14.2120   20.3510 C   0  0  0  0  0  0  0  0  0  0  0  0
  -30.7770  -12.1180   19.1050 C   0  0  0  0  0  2  0  0  0  0  0  0
  -29.8120  -12.3040   17.9210 C   0  0  0  0  0  2  0  0  0  0  0  0
  -28.3470  -12.1920   18.3780 C   0  0  0  0  0  2  0  0  0  0  0  0
  -28.0470  -13.0790   19.6110 C   0  0  0  0  0  3  0  0  0  0  0  0
  -29.1040  -12.8380   20.7130 C   0  0  0  0  0  2  0  0  0  0  0  0
  -30.4390  -13.1030   20.1450 N   0  0  0  0  0  0  0  0  0  0  0  0
  -32.1950  -14.4590   19.6650 O   0  0  0  0  0  0  0  0  0  0  0  0
  -25.6690  -13.7890   20.3110 C   0  0  0  0  0  0  0  0  0  0  0  0
  -24.5760  -13.0680   20.7010 C   0  0  0  0  0  0  0  0  0  0  0  0
  -24.9910  -11.7010   20.6920 C   0  0  0  0  0  0  0  0  0  0  0  0
  -26.6860  -12.8710   20.1010 N   0  0  0  0  0  0  0  0  0  0  0  0
  -26.2780  -11.6090   20.3860 N   0  0  0  0  0  0  0  0  0  0  0  0
  -24.2220  -10.4700   20.9010 C   0  0  0  0  0  0  0  0  0  0  0  0
  -24.6080   -9.5100   21.8610 C   0  0  0  0  0  3  0  0  0  0  0  0
  -23.8360   -8.3440   22.0540 C   0  0  0  0  0  3  0  0  0  0  0  0
  -22.6680   -8.1300   21.2860 C   0  0  0  0  0  0  0  0  0  0  0  0
  -22.3040   -9.0780   20.3120 C   0  0  0  0  0  3  0  0  0  0  0  0
  -23.0740  -10.2340   20.1170 C   0  0  0  0  0  3  0  0  0  0  0  0
  -21.8740   -7.0130   21.3880 O   0  0  0  0  0  0  0  0  0  0  0  0
  -21.7630   -6.3180   22.5670 C   0  0  0  0  0  0  0  0  0  0  0  0
  -21.3140   -6.9360   23.7550 C   0  0  0  0  0  3  0  0  0  0  0  0
  -21.1460   -6.1690   24.9260 C   0  0  0  0  0  3  0  0  0  0  0  0
  -21.4170   -4.7880   24.9080 C   0  0  0  0  0  0  0  0  0  0  0  0
  -21.8560   -4.1700   23.7230 C   0  0  0  0  0  3  0  0  0  0  0  0
  -22.0270   -4.9340   22.5560 C   0  0  0  0  0  0  0  0  0  0  0  0
  -22.4330   -4.3300   21.4120 F   0  0  0  0  0  0  0  0  0  0  0  0
  -21.2460   -4.0500   26.0310 F   0  0  0  0  0  0  0  0  0  0  0  0
  -23.1960  -13.5980   20.9680 C   0  0  0  0  0  0  0  0  0  0  0  0
  -22.4570  -12.9550   21.8630 N   0  0  0  0  0  0  0  0  0  0  0  0
  -22.7840  -14.6210   20.4180 O   0  0  0  0  0  0  0  0  0  0  0  0
  -22.8130  -12.1340   22.3310 H   0  0  0  0  0  0  0  0  0  0  0  0
  -21.5260  -13.2840   22.0840 H   0  0  0  0  0  0  0  0  0  0  0  0
  -25.8710  -15.1440   20.0950 N   0  0  0  0  0  0  0  0  0  0  0  0
  -25.1150  -15.8130   20.1740 H   0  0  0  0  0  0  0  0  0  0  0  0
  -26.7410  -15.5550   19.7840 H   0  0  0  0  0  0  0  0  0  0  0  0
  -28.6940  -26.2110   16.8500 C   0  0  0  0  0  2  0  0  0  0  0  0
  -29.6480  -26.3740   18.0590 C   0  0  0  0  0  2  0  0  0  0  0  0
  -29.2460  -27.4340   19.1050 C   0  0  0  0  0  2  0  0  0  0  0  0
  -28.3790  -26.8900   20.0970 O   0  0  0  0  0  0  0  0  0  0  0  0
  -24.5600  -31.9800   23.3460 C   0  0  0  0  0  0  0  0  0  0  0  0
  -27.2120  -27.5930   20.2260 C   0  0  0  0  0  0  0  0  0  0  0  0
  -23.3490  -30.5700   21.7120 C   0  0  0  0  0  3  0  0  0  0  0  0
  -24.8030  -29.0450   20.2780 C   0  0  0  0  0  0  0  0  0  0  0  0
  -25.8650  -30.9630   21.4810 C   0  0  0  0  0  2  0  0  0  0  0  0
  -25.9600  -29.5940   20.8450 C   0  0  0  0  0  0  0  0  0  0  0  0
  -27.1760  -28.8770   20.8120 C   0  0  0  0  0  3  0  0  0  0  0  0
  -26.0310  -27.0270   19.7190 C   0  0  0  0  0  3  0  0  0  0  0  0
  -24.8290  -27.7580   19.7180 C   0  0  0  0  0  3  0  0  0  0  0  0
  -23.5530  -29.8940   20.3310 C   0  0  0  0  0  2  0  0  0  0  0  0
  -24.6120  -31.1820   22.2420 N   0  0  0  0  0  0  0  0  0  0  0  0
  -23.4820  -32.2460   23.8940 O   0  0  0  0  0  0  0  0  0  0  0  0
  -22.7170  -29.5410   22.6730 C   0  0  0  0  0  0  0  0  0  0  0  0
  -21.4010  -29.3220   22.5280 N   0  0  0  0  0  0  0  0  0  0  0  0
  -23.4050  -28.9410   23.5060 O   0  0  0  0  0  0  0  0  0  0  0  0
  -20.9100  -29.8600   21.8290 H   0  0  0  0  0  0  0  0  0  0  0  0
  -18.0620  -28.0150   22.9410 C   0  0  0  0  0  0  0  0  0  0  0  0
  -20.5940  -28.3780   23.2990 C   0  0  0  0  0  3  0  0  0  0  0  0
  -20.7720  -26.9370   22.7710 C   0  0  0  0  0  2  0  0  0  0  0  0
  -19.7250  -26.5490   21.7240 C   0  0  0  0  0  2  0  0  0  0  0  0
  -18.3110  -26.6580   22.3040 C   0  0  0  0  0  2  0  0  0  0  0  0
  -19.1330  -28.8320   23.3860 C   0  0  0  0  0  0  0  0  0  0  0  0
  -18.8470  -30.1020   23.9300 C   0  0  0  0  0  3  0  0  0  0  0  0
  -17.5200  -30.5560   24.0400 C   0  0  0  0  0  3  0  0  0  0  0  0
  -16.4610  -29.7360   23.6130 C   0  0  0  0  0  3  0  0  0  0  0  0
  -16.7320  -28.4680   23.0680 C   0  0  0  0  0  3  0  0  0  0  0  0
  -25.8470  -32.6180   23.9590 C   0  0  0  0  0  3  0  0  0  0  0  0
  -26.3530  -31.8700   25.2520 C   0  0  1  0  0  0  0  0  0  0  0  0
  -25.2540  -31.6560   26.3170 C   0  0  0  0  0  1  0  0  0  0  0  0
  -26.9290  -30.4830   24.8820 C   0  0  0  0  0  1  0  0  0  0  0  0
  -27.5060  -32.6680   25.9010 C   0  0  0  0  0  1  0  0  0  0  0  0
  -25.5510  -34.0280   24.2500 N   0  0  0  0  0  0  0  0  0  0  0  0
  -25.9010  -35.0550   23.4670 C   0  0  0  0  0  0  0  0  0  0  0  0
  -26.5820  -34.9170   22.4460 O   0  0  0  0  0  0  0  0  0  0  0  0
  -24.9540  -34.2180   25.0440 H   0  0  0  0  0  0  0  0  0  0  0  0
  -24.1930  -36.8480   23.0440 C   0  0  0  0  0  1  0  0  0  0  0  0
  -25.4190  -36.4590   23.8850 C   0  0  0  0  0  3  0  0  0  0  0  0
  -27.5510  -37.3390   24.7210 C   0  0  0  0  0  1  0  0  0  0  0  0
  -26.4630  -37.4980   23.7600 N   0  0  0  0  0  0  0  0  0  0  0  0
  -26.0660  -38.4270   23.8810 H   0  0  0  0  0  0  0  0  0  0  0  0
  1  5  1  0
  3  1  2  0
  3  6  1  0
  4  2  1  0
  5  2  2  0
  5  7  1  0
  6  4  2  0
  7  9  1  0
  8  7  2  0
 10  9  1  0
 10 11  1  0
 11 12  1  0
 12 13  1  0
 13 14  1  0
 14 15  1  0
 15 16  1  0
 17 16  1  0
 18 23  1  0
 19 20  1  0
 19 18  1  0
 21 20  1  0
 21 28  1  0
 21 22  1  0
 23 17  1  0
 23 22  1  0
 24 17  2  0
 25 26  2  0
 26 45  1  0
 27 26  1  0
 27 30  1  0
 28 25  1  0
 28 29  1  0
 29 27  2  0
 30 31  1  0
 31 32  2  0
 33 36  1  0
 33 32  1  0
 34 33  2  0
 35 34  1  0
 35 30  2  0
 36 37  1  0
 37 38  1  0
 38 39  2  0
 40 39  1  0
 40 44  1  0
 41 40  2  0
 42 37  2  0
 42 41  1  0
 43 42  1  0
 45 46  1  0
 46 49  1  0
 46 48  1  0
 47 45  2  0
 50 51  1  0
 50 25  1  0
 52 50  1  0
 53  6  1  0
 53 54  1  0
 54 55  1  0
 55 56  1  0
 56 58  1  0
 57 68  2  0
 58 63  1  0
 59 67  1  0
 59 69  1  0
 60 66  1  0
 60 62  1  0
 61 67  1  0
 62 61  1  0
 63 62  2  0
 64 58  2  0
 65 64  1  0
 65 60  2  0
 66 59  1  0
 67 57  1  0
 69 71  2  0
 70 69  1  0
 72 70  1  0
 73 82  2  0
 73 78  1  0
 74 70  1  0
 74 78  1  0
 75 74  1  0
 76 77  1  0
 76 75  1  0
 77 73  1  0
 78 79  2  0
 79 80  1  0
 81 80  2  0
 82 81  1  0
 83 57  1  0
 83 88  1  0
 83 84  1  0
 84 87  1  1
 84 85  1  0
 86 84  1  0
 88 91  1  0
 89 93  1  0
 89 88  1  0
 90 89  2  0
 93 92  1  0
 95 96  1  0
 95 93  1  0
 95 94  1  0
M  ISO  4  16 100  17 100  55 101  56 101
M  END
>  <TORSDO>  (65) 
F 28

>  <SCORE>  (65) 
-10.243

>  <name>  (65) 
65

>  <ligand_id>  (65) 
65

>  <original_smiles>  (65) 
[H]c1c([H])c([H])c2c(c1[H])C([H])([H])C([H])([H])C([H])([H])C2([H])N([H])C(=O)C1([H])N(C(=O)C([H])(N([H])C(=O)C([H])(N([H])C([H])([H])[H])C([H])([H])[H])C(C([H])([H])[H])(C([H])([H])[H])C([H])([H])[H])C([H])([H])c2c([H])c(OC([H])([H])C([H])([H])C([H])([H])c3c([H])c([H])c(C(=O)C([H])([H])C([H])([H])C([H])([H])C([H])([H])C([H])([H])C([H])([H])C([H])([H])C([H])([H])C(=O)N4C([H])([H])C([H])([H])C([H])([H])C([H])(n5nc(-c6c([H])c([H])c(Oc7c([H])c([H])c(F)c([H])c7F)c([H])c6[H])c(C(=O)N([H])[H])c5N([H])[H])C4([H])[H])c([H])c3[H])c([H])c([H])c2C1([H])[H]

>  <smiles>  (65) 
[H]c1c([H])c([H])c2c(c1[H])C([H])([H])C([H])([H])C([H])([H])C2([H])N([H])C(=O)C1([H])N(C(=O)C([H])(N([H])C(=O)C([H])(N([H])C([H])([H])[H])C([H])([H])[H])C(C([H])([H])[H])(C([H])([H])[H])C([H])([H])[H])C([H])([H])c2c([H])c(OC([H])([H])C([H])([H])C([H])([H])c3c([H])c([H])c(C(=O)C([H])([H])C([H])([H])C([H])([H])C([H])([H])C([H])([H])C([H])([H])C([H])([H])C([H])([H])C(=O)N4C([H])([H])C([H])([H])C([H])([H])C([H])(n5nc(-c6c([H])c([H])c(Oc7c([H])c([H])c(F)c([H])c7F)c([H])c6[H])c(C(=O)N([H])[H])c5N([H])[H])C4([H])[H])c([H])c3[H])c([H])c([H])c2C1([H])[H]

$$$$
66:0:0
     RDKit          3D

 96105  0  0  1  0  0  0  0  0999 V2000
  -26.5820  -23.0870   21.1840 C   0  0  0  0  0  3  0  0  0  0  0  0
  -27.3500  -22.0920   21.8170 C   0  0  0  0  0  3  0  0  0  0  0  0
  -27.0260  -23.6610   19.9800 C   0  0  0  0  0  3  0  0  0  0  0  0
  -29.0010  -22.2360   20.0340 C   0  0  0  0  0  3  0  0  0  0  0  0
  -28.5660  -21.6540   21.2480 C   0  0  0  0  0  0  0  0  0  0  0  0
  -28.2390  -23.2360   19.3930 C   0  0  0  0  0  0  0  0  0  0  0  0
  -29.3750  -20.6320   21.9740 C   0  0  0  0  0  0  0  0  0  0  0  0
  -29.5160  -20.6550   23.2020 O   0  0  0  0  0  0  0  0  0  0  0  0
  -30.0460  -19.5210   21.1530 C   0  0  0  0  0  2  0  0  0  0  0  0
  -30.8680  -18.5170   21.9980 C   0  0  0  0  0  2  0  0  0  0  0  0
  -32.4520  -14.1360   18.7820 C   0  0  0  0  0  0  0  0  0  0  0  0
  -31.7110  -11.8630   18.1720 C   0  0  0  0  0  2  0  0  0  0  0  0
  -30.5910  -11.8940   17.1150 C   0  0  0  0  0  2  0  0  0  0  0  0
  -29.2130  -12.0300   17.7850 C   0  0  0  0  0  2  0  0  0  0  0  0
  -29.1680  -13.1820   18.8230 C   0  0  0  0  0  3  0  0  0  0  0  0
  -30.3730  -13.1020   19.7860 C   0  0  0  0  0  2  0  0  0  0  0  0
  -31.6170  -13.0820   18.9890 N   0  0  0  0  0  0  0  0  0  0  0  0
  -33.3180  -14.1430   17.8980 O   0  0  0  0  0  0  0  0  0  0  0  0
  -31.3940  -17.5270   19.6960 C   0  0  0  0  0  2  0  0  0  0  0  0
  -31.8940  -16.2080   21.7910 C   0  0  0  0  0  2  0  0  0  0  0  0
  -32.2990  -16.5530   18.9290 C   0  0  0  0  0  2  0  0  0  0  0  0
  -32.7310  -15.2430   20.9300 C   0  0  0  0  0  2  0  0  0  0  0  0
  -31.8160  -17.6230   21.1770 C   0  0  0  0  0  3  0  0  0  0  0  0
  -32.2360  -15.2260   19.5470 N   0  0  0  0  0  0  0  0  0  0  0  0
  -27.1940  -14.2640   20.0760 C   0  0  0  0  0  0  0  0  0  0  0  0
  -26.0390  -13.7380   20.5910 C   0  0  0  0  0  0  0  0  0  0  0  0
  -26.0970  -12.3340   20.3360 C   0  0  0  0  0  0  0  0  0  0  0  0
  -27.8980  -13.1930   19.5480 N   0  0  0  0  0  0  0  0  0  0  0  0
  -27.2490  -12.0190   19.7560 N   0  0  0  0  0  0  0  0  0  0  0  0
  -25.0990  -11.2800   20.5580 C   0  0  0  0  0  0  0  0  0  0  0  0
  -25.3730  -10.1650   21.3830 C   0  0  0  0  0  3  0  0  0  0  0  0
  -24.3920   -9.1740   21.5960 C   0  0  0  0  0  3  0  0  0  0  0  0
  -23.1200   -9.2910   20.9850 C   0  0  0  0  0  0  0  0  0  0  0  0
  -22.8600  -10.3920   20.1490 C   0  0  0  0  0  3  0  0  0  0  0  0
  -23.8400  -11.3750   19.9340 C   0  0  0  0  0  3  0  0  0  0  0  0
  -22.1140   -8.3640   21.1160 O   0  0  0  0  0  0  0  0  0  0  0  0
  -21.8580   -7.7430   22.3120 C   0  0  0  0  0  0  0  0  0  0  0  0
  -21.6670   -8.4740   23.5050 C   0  0  0  0  0  3  0  0  0  0  0  0
  -21.3350   -7.8000   24.6970 C   0  0  0  0  0  3  0  0  0  0  0  0
  -21.1860   -6.4000   24.6990 C   0  0  0  0  0  0  0  0  0  0  0  0
  -21.3700   -5.6720   23.5110 C   0  0  0  0  0  3  0  0  0  0  0  0
  -21.7020   -6.3420   22.3200 C   0  0  0  0  0  0  0  0  0  0  0  0
  -21.8570   -5.6360   21.1730 F   0  0  0  0  0  0  0  0  0  0  0  0
  -20.8610   -5.7540   25.8420 F   0  0  0  0  0  0  0  0  0  0  0  0
  -24.9010  -14.5040   21.2020 C   0  0  0  0  0  0  0  0  0  0  0  0
  -24.2430  -13.9290   22.2040 N   0  0  0  0  0  0  0  0  0  0  0  0
  -24.6180  -15.6400   20.8250 O   0  0  0  0  0  0  0  0  0  0  0  0
  -24.4890  -13.0050   22.5270 H   0  0  0  0  0  0  0  0  0  0  0  0
  -23.4840  -14.4210   22.6540 H   0  0  0  0  0  0  0  0  0  0  0  0
  -27.6950  -15.5600   19.9950 N   0  0  0  0  0  0  0  0  0  0  0  0
  -27.1760  -16.3640   20.3300 H   0  0  0  0  0  0  0  0  0  0  0  0
  -28.5720  -15.8090   19.5530 H   0  0  0  0  0  0  0  0  0  0  0  0
  -28.7810  -23.8290   18.0950 C   0  0  0  0  0  2  0  0  0  0  0  0
  -28.2110  -25.1900   17.6530 C   0  0  0  0  0  2  0  0  0  0  0  0
  -27.1540  -25.1050   16.5350 C   0  0  0  0  0  2  0  0  0  0  0  0
  -26.6830  -26.4130   16.2240 O   0  0  0  0  0  0  0  0  0  0  0  0
  -26.3600  -28.8700   22.8800 C   0  0  0  0  0  0  0  0  0  0  0  0
  -25.9230  -27.0490   17.1760 C   0  0  0  0  0  0  0  0  0  0  0  0
  -24.2400  -28.9500   21.6050 C   0  0  0  0  0  3  0  0  0  0  0  0
  -24.4320  -28.4630   19.1100 C   0  0  0  0  0  0  0  0  0  0  0  0
  -26.4930  -29.0560   20.4010 C   0  0  0  0  0  2  0  0  0  0  0  0
  -25.8260  -28.3800   19.2230 C   0  0  0  0  0  0  0  0  0  0  0  0
  -26.5760  -27.6830   18.2530 C   0  0  0  0  0  3  0  0  0  0  0  0
  -24.5170  -27.1310   17.0750 C   0  0  0  0  0  3  0  0  0  0  0  0
  -23.7700  -27.8380   18.0380 C   0  0  0  0  0  3  0  0  0  0  0  0
  -23.7080  -29.2500   20.1780 C   0  0  0  0  0  2  0  0  0  0  0  0
  -25.7380  -28.9300   21.6690 N   0  0  0  0  0  0  0  0  0  0  0  0
  -25.7110  -28.8750   23.9340 O   0  0  0  0  0  0  0  0  0  0  0  0
  -23.5900  -27.6410   22.1060 C   0  0  0  0  0  0  0  0  0  0  0  0
  -22.2510  -27.5740   22.0300 N   0  0  0  0  0  0  0  0  0  0  0  0
  -24.2840  -26.7080   22.5200 O   0  0  0  0  0  0  0  0  0  0  0  0
  -21.7570  -28.3850   21.6830 H   0  0  0  0  0  0  0  0  0  0  0  0
  -18.9990  -26.0650   21.5970 C   0  0  0  0  0  0  0  0  0  0  0  0
  -21.4250  -26.4290   22.4070 C   0  0  0  0  0  3  0  0  0  0  0  0
  -21.7860  -25.1830   21.5640 C   0  0  0  0  0  2  0  0  0  0  0  0
  -20.9180  -25.0310   20.3110 C   0  0  0  0  0  2  0  0  0  0  0  0
  -19.4380  -24.9260   20.6930 C   0  0  0  0  0  2  0  0  0  0  0  0
  -19.9340  -26.7810   22.3890 C   0  0  0  0  0  0  0  0  0  0  0  0
  -19.4780  -27.8530   23.1860 C   0  0  0  0  0  3  0  0  0  0  0  0
  -18.1180  -28.2120   23.2010 C   0  0  0  0  0  3  0  0  0  0  0  0
  -17.1930  -27.4910   22.4260 C   0  0  0  0  0  3  0  0  0  0  0  0
  -17.6330  -26.4170   21.6310 C   0  0  0  0  0  3  0  0  0  0  0  0
  -27.9160  -28.8160   22.9990 C   0  0  0  0  0  3  0  0  0  0  0  0
  -28.3110  -29.7660   24.0470 N   0  0  0  0  0  0  0  0  0  0  0  0
  -28.9520  -30.9210   23.8240 C   0  0  0  0  0  0  0  0  0  0  0  0
  -29.3440  -31.2640   22.7050 O   0  0  0  0  0  0  0  0  0  0  0  0
  -27.9730  -29.5760   24.9790 H   0  0  0  0  0  0  0  0  0  0  0  0
  -28.2420  -33.0370   24.9800 C   0  0  0  0  0  1  0  0  0  0  0  0
  -29.2020  -31.8390   25.0350 C   0  0  0  0  0  3  0  0  0  0  0  0
  -31.5550  -31.2690   25.4460 C   0  0  0  0  0  1  0  0  0  0  0  0
  -30.5960  -32.3240   25.1280 N   0  0  0  0  0  0  0  0  0  0  0  0
  -30.6780  -33.0510   25.8340 H   0  0  0  0  0  0  0  0  0  0  0  0
  -28.4670  -27.3720   23.3160 C   0  0  1  0  0  0  0  0  0  0  0  0
  -27.7950  -26.7040   24.5380 C   0  0  0  0  0  1  0  0  0  0  0  0
  -28.2730  -26.4360   22.1010 C   0  0  0  0  0  1  0  0  0  0  0  0
  -29.9890  -27.4390   23.5840 C   0  0  0  0  0  1  0  0  0  0  0  0
  1  2  1  0
  3  1  2  0
  4  5  1  0
  5  2  2  0
  5  7  1  0
  6  3  1  0
  6  4  2  0
  7  8  2  0
  9  7  1  0
  9 10  1  0
 11 17  1  0
 11 24  1  0
 12 17  1  0
 13 14  1  0
 13 12  1  0
 15 14  1  0
 15 28  1  0
 15 16  1  0
 17 16  1  0
 18 11  2  0
 19 23  1  0
 21 24  1  0
 21 19  1  0
 22 20  1  0
 23 20  1  0
 23 10  1  0
 24 22  1  0
 25 26  2  0
 26 45  1  0
 27 30  1  0
 27 26  1  0
 28 29  1  0
 28 25  1  0
 29 27  2  0
 30 31  1  0
 31 32  2  0
 33 36  1  0
 33 32  1  0
 34 33  2  0
 35 34  1  0
 35 30  2  0
 36 37  1  0
 37 42  2  0
 37 38  1  0
 38 39  2  0
 39 40  1  0
 40 44  1  0
 41 40  2  0
 42 41  1  0
 43 42  1  0
 45 46  1  0
 46 48  1  0
 46 49  1  0
 47 45  2  0
 50 25  1  0
 50 51  1  0
 52 50  1  0
 53  6  1  0
 54 53  1  0
 55 54  1  0
 56 55  1  0
 56 58  1  0
 57 68  2  0
 58 63  1  0
 59 67  1  0
 59 69  1  0
 60 62  1  0
 60 66  1  0
 61 67  1  0
 62 61  1  0
 63 62  2  0
 64 58  2  0
 64 65  1  0
 65 60  2  0
 66 59  1  0
 67 57  1  0
 69 71  2  0
 70 69  1  0
 72 70  1  0
 73 82  2  0
 73 78  1  0
 74 70  1  0
 75 74  1  0
 76 77  1  0
 76 75  1  0
 77 73  1  0
 78 74  1  0
 78 79  2  0
 79 80  1  0
 81 80  2  0
 82 81  1  0
 83 57  1  0
 83 93  1  0
 83 84  1  0
 84 87  1  0
 85 84  1  0
 85 89  1  0
 86 85  2  0
 89 88  1  0
 89 91  1  0
 91 90  1  0
 91 92  1  0
 93 96  1  1
 93 94  1  0
 95 93  1  0
M  ISO  4  11 100  24 100  55 101  56 101
M  END
>  <TORSDO>  (66) 
F 22

>  <SCORE>  (66) 
-4.702

>  <name>  (66) 
66

>  <ligand_id>  (66) 
66

>  <original_smiles>  (66) 
[H]c1c([H])c(C(=O)C([H])([H])C([H])([H])C2([H])C([H])([H])C([H])([H])N(C(=O)N3C([H])([H])C([H])([H])C([H])([H])C([H])(n4nc(-c5c([H])c([H])c(Oc6c([H])c([H])c(F)c([H])c6F)c([H])c5[H])c(C(=O)N([H])[H])c4N([H])[H])C3([H])[H])C([H])([H])C2([H])[H])c([H])c(C([H])([H])C([H])([H])C([H])([H])Oc2c([H])c([H])c3c(c2[H])C([H])([H])N(C(=O)C([H])(N([H])C(=O)C([H])(N([H])C([H])([H])[H])C([H])([H])[H])C(C([H])([H])[H])(C([H])([H])[H])C([H])([H])[H])C([H])(C(=O)N([H])C2([H])c4c([H])c([H])c([H])c([H])c4C([H])([H])C([H])([H])C2([H])[H])C3([H])[H])c1[H]

>  <smiles>  (66) 
[H]c1c([H])c(C(=O)C([H])([H])C([H])([H])C2([H])C([H])([H])C([H])([H])N(C(=O)N3C([H])([H])C([H])([H])C([H])([H])C([H])(n4nc(-c5c([H])c([H])c(Oc6c([H])c([H])c(F)c([H])c6F)c([H])c5[H])c(C(=O)N([H])[H])c4N([H])[H])C3([H])[H])C([H])([H])C2([H])[H])c([H])c(C([H])([H])C([H])([H])C([H])([H])Oc2c([H])c([H])c3c(c2[H])C([H])([H])N(C(=O)C([H])(N([H])C(=O)C([H])(N([H])C([H])([H])[H])C([H])([H])[H])C(C([H])([H])[H])(C([H])([H])[H])C([H])([H])[H])C([H])(C(=O)N([H])C2([H])c4c([H])c([H])c([H])c([H])c4C([H])([H])C([H])([H])C2([H])[H])C3([H])[H])c1[H]

$$$$
67:0:0
     RDKit          3D

 99108  0  0  1  0  0  0  0  0999 V2000
  -32.3530  -21.8310   20.0640 C   0  0  0  0  0  2  0  0  0  0  0  0
  -31.6470  -22.8150   19.1170 C   0  0  0  0  0  2  0  0  0  0  0  0
  -31.7450  -22.0520   21.4630 C   0  0  0  0  0  3  0  0  0  0  0  0
  -30.5080  -22.9370   21.2300 C   0  0  0  0  0  3  0  0  0  0  0  0
  -30.8910  -23.7980   20.0230 C   0  0  0  0  0  3  0  0  0  0  0  0
  -31.8650  -19.3350   24.1750 C   0  0  0  0  0  3  0  0  0  0  0  0
  -32.1260  -20.5150   23.4520 C   0  0  0  0  0  3  0  0  0  0  0  0
  -30.9300  -18.4020   23.6900 C   0  0  0  0  0  3  0  0  0  0  0  0
  -30.5080  -19.8330   21.7590 C   0  0  0  0  0  3  0  0  0  0  0  0
  -31.4520  -20.7710   22.2380 C   0  0  0  0  0  0  0  0  0  0  0  0
  -30.2470  -18.6490   22.4800 C   0  0  0  0  0  0  0  0  0  0  0  0
  -29.2450  -17.6380   21.9540 C   0  0  0  0  0  2  0  0  0  0  0  0
  -29.2330  -15.4300   20.7230 C   0  0  0  0  0  3  0  0  0  0  0  0
  -29.8980  -16.5010   21.1960 C   0  0  0  0  0  3  0  0  0  0  0  0
  -29.9420  -14.3870   19.9890 C   0  0  0  0  0  0  0  0  0  0  0  0
  -29.8990  -12.0500   19.1900 C   0  0  0  0  0  2  0  0  0  0  0  0
  -28.8950  -11.8910   18.0320 C   0  0  0  0  0  2  0  0  0  0  0  0
  -27.4730  -11.6260   18.5660 C   0  0  0  0  0  2  0  0  0  0  0  0
  -27.0600  -12.6240   19.6830 C   0  0  0  0  0  3  0  0  0  0  0  0
  -28.1750  -12.7260   20.7470 C   0  0  0  0  0  2  0  0  0  0  0  0
  -29.4130  -13.1320   20.0600 N   0  0  0  0  0  0  0  0  0  0  0  0
  -30.9390  -14.6340   19.3010 O   0  0  0  0  0  0  0  0  0  0  0  0
  -24.7050  -13.0690   20.6280 C   0  0  0  0  0  0  0  0  0  0  0  0
  -23.7240  -12.2230   21.0730 C   0  0  0  0  0  0  0  0  0  0  0  0
  -24.2580  -10.9040   20.9540 C   0  0  0  0  0  0  0  0  0  0  0  0
  -25.7740  -12.2590   20.2740 N   0  0  0  0  0  0  0  0  0  0  0  0
  -25.5110  -10.9500   20.5200 N   0  0  0  0  0  0  0  0  0  0  0  0
  -23.6300   -9.5940   21.1710 C   0  0  0  0  0  0  0  0  0  0  0  0
  -24.1450   -8.6750   22.1120 C   0  0  0  0  0  3  0  0  0  0  0  0
  -23.5140   -7.4290   22.3160 C   0  0  0  0  0  3  0  0  0  0  0  0
  -22.3530   -7.0930   21.5820 C   0  0  0  0  0  0  0  0  0  0  0  0
  -21.8570   -8.0020   20.6300 C   0  0  0  0  0  3  0  0  0  0  0  0
  -22.4890   -9.2400   20.4230 C   0  0  0  0  0  3  0  0  0  0  0  0
  -21.6860   -5.8970   21.6960 O   0  0  0  0  0  0  0  0  0  0  0  0
  -21.6350   -5.2120   22.8820 C   0  0  0  0  0  0  0  0  0  0  0  0
  -21.0890   -5.7870   24.0510 C   0  0  0  0  0  3  0  0  0  0  0  0
  -20.9930   -5.0240   25.2320 C   0  0  0  0  0  3  0  0  0  0  0  0
  -21.4310   -3.6860   25.2440 C   0  0  0  0  0  0  0  0  0  0  0  0
  -21.9700   -3.1100   24.0790 C   0  0  0  0  0  3  0  0  0  0  0  0
  -22.0680   -3.8710   22.9010 C   0  0  0  0  0  0  0  0  0  0  0  0
  -22.5690   -3.3050   21.7770 F   0  0  0  0  0  0  0  0  0  0  0  0
  -21.3310   -2.9490   26.3750 F   0  0  0  0  0  0  0  0  0  0  0  0
  -22.3360  -12.6050   21.4970 C   0  0  0  0  0  0  0  0  0  0  0  0
  -21.7380  -11.8430   22.4080 N   0  0  0  0  0  0  0  0  0  0  0  0
  -21.7880  -13.6160   21.0560 O   0  0  0  0  0  0  0  0  0  0  0  0
  -22.1950  -11.0270   22.7860 H   0  0  0  0  0  0  0  0  0  0  0  0
  -20.8110  -12.0810   22.7300 H   0  0  0  0  0  0  0  0  0  0  0  0
  -24.7700  -14.4510   20.4800 N   0  0  0  0  0  0  0  0  0  0  0  0
  -23.9830  -15.0580   20.6850 H   0  0  0  0  0  0  0  0  0  0  0  0
  -25.5660  -14.9510   20.1010 H   0  0  0  0  0  0  0  0  0  0  0  0
  -29.6930  -24.4010   19.4090 N   0  0  0  0  0  4  0  0  0  0  0  0
  -29.2210  -24.8990   20.1490 H   0  0  0  0  0  0  0  0  0  0  0  0
  -29.0750  -23.6600   19.1160 H   0  0  0  0  0  0  0  0  0  0  0  0
  -29.9510  -25.3240   18.2780 C   0  0  0  0  0  2  0  0  0  0  0  0
  -28.7230  -26.1930   17.9800 C   0  0  0  0  0  2  0  0  0  0  0  0
  -28.5380  -27.1120   19.0550 O   0  0  0  0  0  0  0  0  0  0  0  0
  -24.6050  -31.5570   22.9550 C   0  0  0  0  0  0  0  0  0  0  0  0
  -27.3100  -27.7270   19.1850 C   0  0  0  0  0  0  0  0  0  0  0  0
  -23.3920  -30.3390   21.1770 C   0  0  0  0  0  3  0  0  0  0  0  0
  -24.8480  -29.0820   19.5060 C   0  0  0  0  0  0  0  0  0  0  0  0
  -25.8890  -30.8400   20.9460 C   0  0  0  0  0  2  0  0  0  0  0  0
  -26.0030  -29.5750   20.1230 C   0  0  0  0  0  0  0  0  0  0  0  0
  -27.2320  -28.8970   19.9720 C   0  0  0  0  0  3  0  0  0  0  0  0
  -26.1290  -27.2400   18.5720 C   0  0  0  0  0  3  0  0  0  0  0  0
  -24.9040  -27.9100   18.7340 C   0  0  0  0  0  3  0  0  0  0  0  0
  -23.5730  -29.8660   19.7110 C   0  0  0  0  0  2  0  0  0  0  0  0
  -24.6490  -30.9200   21.7520 N   0  0  0  0  0  0  0  0  0  0  0  0
  -23.5370  -31.7020   23.5650 O   0  0  0  0  0  0  0  0  0  0  0  0
  -22.8250  -29.1650   22.0070 C   0  0  0  0  0  0  0  0  0  0  0  0
  -21.4990  -28.9660   21.9310 N   0  0  0  0  0  0  0  0  0  0  0  0
  -23.5710  -28.4440   22.6740 O   0  0  0  0  0  0  0  0  0  0  0  0
  -20.9570  -29.6050   21.3670 H   0  0  0  0  0  0  0  0  0  0  0  0
  -18.1830  -27.6350   22.4600 C   0  0  0  0  0  0  0  0  0  0  0  0
  -20.7500  -27.9000   22.5960 C   0  0  0  0  0  3  0  0  0  0  0  0
  -20.8270  -26.5820   21.7930 C   0  0  0  0  0  2  0  0  0  0  0  0
  -19.6600  -26.4000   20.8170 C   0  0  0  0  0  2  0  0  0  0  0  0
  -18.3260  -26.4130   21.5680 C   0  0  0  0  0  2  0  0  0  0  0  0
  -19.3220  -28.3430   22.9280 C   0  0  0  0  0  0  0  0  0  0  0  0
  -19.1330  -29.4940   23.7240 C   0  0  0  0  0  3  0  0  0  0  0  0
  -17.8370  -29.9370   24.0530 C   0  0  0  0  0  3  0  0  0  0  0  0
  -16.7140  -29.2240   23.6000 C   0  0  0  0  0  3  0  0  0  0  0  0
  -16.8890  -28.0740   22.8090 C   0  0  0  0  0  3  0  0  0  0  0  0
  -25.8890  -32.1550   23.6110 C   0  0  0  0  0  3  0  0  0  0  0  0
  -25.5730  -33.5270   24.0320 N   0  0  0  0  0  0  0  0  0  0  0  0
  -25.9300  -34.6280   23.3600 C   0  0  0  0  0  0  0  0  0  0  0  0
  -26.6320  -34.5970   22.3440 O   0  0  0  0  0  0  0  0  0  0  0  0
  -24.9550  -33.6260   24.8240 H   0  0  0  0  0  0  0  0  0  0  0  0
  -24.2170  -36.4460   23.0760 C   0  0  0  0  0  1  0  0  0  0  0  0
  -25.4280  -35.9810   23.8990 C   0  0  0  0  0  3  0  0  0  0  0  0
  -27.5350  -36.7930   24.8610 C   0  0  0  0  0  1  0  0  0  0  0  0
  -26.4650  -37.0360   23.8980 N   0  0  0  0  0  0  0  0  0  0  0  0
  -26.0560  -37.9440   24.1000 H   0  0  0  0  0  0  0  0  0  0  0  0
  -26.4200  -31.3040   24.8300 C   0  0  1  0  0  0  0  0  0  0  0  0
  -25.3360  -30.9950   25.8890 C   0  0  0  0  0  1  0  0  0  0  0  0
  -27.0010  -29.9560   24.3420 C   0  0  0  0  0  1  0  0  0  0  0  0
  -27.5750  -32.0560   25.5310 C   0  0  0  0  0  1  0  0  0  0  0  0
  -30.1790  -23.7560   22.3850 N   0  0  0  0  0  0  0  0  0  0  0  0
  -31.0160  -24.2350   22.7020 H   0  0  0  0  0  0  0  0  0  0  0  0
  -29.9570  -23.1300   23.1530 H   0  0  0  0  0  0  0  0  0  0  0  0
  1  3  1  0
  2  5  1  0
  2  1  1  0
  3 10  1  0
  4  3  1  0
  4 97  1  0
  5 51  1  0
  5  4  1  0
  7  6  2  0
  8  6  1  0
  9 10  2  0
  9 11  1  0
 10  7  1  0
 11  8  2  0
 12 11  1  0
 13 14  2  0
 14 12  1  0
 15 21  1  0
 15 13  1  0
 16 21  1  0
 17 18  1  0
 17 16  1  0
 19 18  1  0
 19 26  1  0
 19 20  1  0
 21 20  1  0
 22 15  2  0
 23 24  2  0
 24 43  1  0
 25 24  1  0
 25 28  1  0
 26 27  1  0
 26 23  1  0
 27 25  2  0
 28 29  1  0
 29 30  2  0
 31 34  1  0
 31 30  1  0
 32 31  2  0
 33 32  1  0
 33 28  2  0
 34 35  1  0
 35 40  2  0
 35 36  1  0
 36 37  2  0
 37 38  1  0
 38 42  1  0
 39 38  2  0
 40 39  1  0
 41 40  1  0
 43 44  1  0
 44 47  1  0
 44 46  1  0
 45 43  2  0
 48 23  1  0
 48 49  1  0
 50 48  1  0
 51 52  1  0
 53 51  1  0
 54 51  1  0
 55 54  1  0
 55 56  1  0
 56 58  1  0
 57 68  2  0
 58 63  1  0
 59 67  1  0
 59 69  1  0
 60 66  1  0
 60 62  1  0
 61 67  1  0
 62 61  1  0
 63 62  2  0
 64 65  1  0
 64 58  2  0
 65 60  2  0
 66 59  1  0
 67 57  1  0
 69 71  2  0
 70 69  1  0
 72 70  1  0
 73 82  2  0
 73 78  1  0
 74 70  1  0
 74 78  1  0
 75 74  1  0
 76 77  1  0
 76 75  1  0
 77 73  1  0
 78 79  2  0
 79 80  1  0
 81 80  2  0
 82 81  1  0
 83 57  1  0
 83 84  1  0
 83 93  1  0
 84 87  1  0
 85 89  1  0
 85 84  1  0
 86 85  2  0
 89 88  1  0
 91 89  1  0
 91 92  1  0
 91 90  1  0
 93 96  1  1
 93 94  1  0
 95 93  1  0
 97 98  1  0
 97 99  1  0
M  ISO  4  13 100  15 100  55 101  56 101
M  END
>  <TORSDO>  (67) 
F 23

>  <SCORE>  (67) 
-7.370

>  <name>  (67) 
67

>  <ligand_id>  (67) 
67

>  <original_smiles>  (67) 
[H]C(C(=O)N1C([H])([H])C([H])([H])C([H])([H])C([H])(n2nc(-c3c([H])c([H])c(Oc4c([H])c([H])c(F)c([H])c4F)c([H])c3[H])c(C(=O)N([H])[H])c2N([H])[H])C1([H])[H])=C([H])C([H])([H])c1c([H])c([H])c([H])c(C2([H])C([H])([H])C([H])([H])C([H])([N+]([H])([H])C([H])([H])C([H])([H])Oc3c([H])c([H])c4c(c3[H])C([H])([H])N(C(=O)C([H])(N([H])C(=O)C([H])(N([H])C([H])([H])[H])C([H])([H])[H])C(C([H])([H])[H])(C([H])([H])[H])C([H])([H])[H])C([H])(C(=O)N([H])C3([H])c5c([H])c([H])c([H])c([H])c5C([H])([H])C([H])([H])C3([H])[H])C4([H])[H])C2([H])N([H])[H])c1[H]

>  <smiles>  (67) 
[H]C(C(=O)N1C([H])([H])C([H])([H])C([H])([H])C([H])(n2nc(-c3c([H])c([H])c(Oc4c([H])c([H])c(F)c([H])c4F)c([H])c3[H])c(C(=O)N([H])[H])c2N([H])[H])C1([H])[H])=C([H])C([H])([H])c1c([H])c([H])c([H])c(C2([H])C([H])([H])C([H])([H])C([H])([N+]([H])([H])C([H])([H])C([H])([H])Oc3c([H])c([H])c4c(c3[H])C([H])([H])N(C(=O)C([H])(N([H])C(=O)C([H])(N([H])C([H])([H])[H])C([H])([H])[H])C(C([H])([H])[H])(C([H])([H])[H])C([H])([H])[H])C([H])(C(=O)N([H])C3([H])c5c([H])c([H])c([H])c([H])c5C([H])([H])C([H])([H])C3([H])[H])C4([H])[H])C2([H])N([H])[H])c1[H]

$$$$
68:0:0
     RDKit          3D

101109  0  0  1  0  0  0  0  0999 V2000
  -31.1830  -27.5580   25.4760 C   0  0  0  0  0  1  0  0  0  0  0  0
  -29.9090  -28.2390   24.9460 C   0  0  0  0  0  3  0  0  0  0  0  0
  -27.1900  -26.1820   23.1670 C   0  0  0  0  0  3  0  0  0  0  0  0
  -29.1770  -26.1990   21.7620 C   0  0  0  0  0  3  0  0  0  0  0  0
  -27.8600  -26.9750   24.1210 C   0  0  0  0  0  3  0  0  0  0  0  0
  -29.8450  -26.9900   22.7150 C   0  0  0  0  0  3  0  0  0  0  0  0
  -27.8380  -25.8000   21.9670 C   0  0  0  0  0  0  0  0  0  0  0  0
  -29.1910  -27.3870   23.9020 C   0  0  0  0  0  0  0  0  0  0  0  0
  -27.1670  -24.9640   20.9300 C   0  0  0  0  0  0  0  0  0  0  0  0
  -27.7380  -24.5980   19.8960 O   0  0  0  0  0  0  0  0  0  0  0  0
  -25.6960  -24.5880   21.1450 C   0  0  0  0  0  2  0  0  0  0  0  0
  -24.8610  -24.6750   19.8560 C   0  0  0  0  0  2  0  0  0  0  0  0
  -23.3780  -24.3630   20.1020 C   0  0  0  0  0  2  0  0  0  0  0  0
  -22.5200  -24.6190   18.8540 C   0  0  0  0  0  2  0  0  0  0  0  0
  -21.0210  -24.3550   19.0960 C   0  0  0  0  0  2  0  0  0  0  0  0
  -20.1360  -24.6460   17.8710 C   0  0  0  0  0  0  0  0  0  0  0  0
  -17.8880  -24.7250   16.8460 C   0  0  0  0  0  2  0  0  0  0  0  0
  -17.1910  -26.0690   17.1230 C   0  0  0  0  0  2  0  0  0  0  0  0
  -16.4560  -26.0320   18.4760 C   0  0  0  0  0  2  0  0  0  0  0  0
  -17.3560  -25.5090   19.6270 C   0  0  0  0  0  3  0  0  0  0  0  0
  -18.0620  -24.1980   19.2140 C   0  0  0  0  0  2  0  0  0  0  0  0
  -18.7980  -24.4450   17.9640 N   0  0  0  0  0  0  0  0  0  0  0  0
  -20.6740  -25.0460   16.8310 O   0  0  0  0  0  0  0  0  0  0  0  0
  -16.7800  -25.9570   22.0980 C   0  0  0  0  0  0  0  0  0  0  0  0
  -15.7550  -25.5150   22.8920 C   0  0  0  0  0  0  0  0  0  0  0  0
  -14.9710  -24.6450   22.0750 C   0  0  0  0  0  0  0  0  0  0  0  0
  -16.5950  -25.3500   20.8650 N   0  0  0  0  0  0  0  0  0  0  0  0
  -15.5240  -24.5160   20.8760 N   0  0  0  0  0  0  0  0  0  0  0  0
  -13.6950  -23.9690   22.3480 C   0  0  0  0  0  0  0  0  0  0  0  0
  -13.5550  -22.5710   22.2020 C   0  0  0  0  0  3  0  0  0  0  0  0
  -12.3230  -21.9420   22.4860 C   0  0  0  0  0  3  0  0  0  0  0  0
  -11.2180  -22.7110   22.9230 C   0  0  0  0  0  0  0  0  0  0  0  0
  -11.3560  -24.1050   23.0440 C   0  0  0  0  0  3  0  0  0  0  0  0
  -12.5820  -24.7300   22.7570 C   0  0  0  0  0  3  0  0  0  0  0  0
   -9.9770  -22.1890   23.1970 O   0  0  0  0  0  0  0  0  0  0  0  0
   -9.8180  -20.8960   23.6260 C   0  0  0  0  0  0  0  0  0  0  0  0
  -10.4510  -20.4150   24.7920 C   0  0  0  0  0  3  0  0  0  0  0  0
  -10.2060  -19.1000   25.2350 C   0  0  0  0  0  3  0  0  0  0  0  0
   -9.3210  -18.2690   24.5220 C   0  0  0  0  0  0  0  0  0  0  0  0
   -8.6860  -18.7480   23.3620 C   0  0  0  0  0  3  0  0  0  0  0  0
   -8.9310  -20.0600   22.9180 C   0  0  0  0  0  0  0  0  0  0  0  0
   -8.2990  -20.5240   21.8130 F   0  0  0  0  0  0  0  0  0  0  0  0
   -9.0790  -17.0090   24.9510 F   0  0  0  0  0  0  0  0  0  0  0  0
  -15.4610  -25.9480   24.3000 C   0  0  0  0  0  0  0  0  0  0  0  0
  -14.9230  -25.0500   25.1190 N   0  0  0  0  0  0  0  0  0  0  0  0
  -15.7550  -27.0760   24.6970 O   0  0  0  0  0  0  0  0  0  0  0  0
  -14.7000  -24.1190   24.8000 H   0  0  0  0  0  0  0  0  0  0  0  0
  -14.7330  -25.2990   26.0790 H   0  0  0  0  0  0  0  0  0  0  0  0
  -17.8390  -26.8330   22.3150 N   0  0  0  0  0  0  0  0  0  0  0  0
  -17.9690  -27.3240   23.1930 H   0  0  0  0  0  0  0  0  0  0  0  0
  -18.5140  -27.1000   21.6080 H   0  0  0  0  0  0  0  0  0  0  0  0
  -30.2160  -29.5880   24.4100 N   0  0  0  0  0  4  0  0  0  0  0  0
  -30.5400  -29.4700   23.4630 H   0  0  0  0  0  0  0  0  0  0  0  0
  -30.9920  -29.9500   24.9440 H   0  0  0  0  0  0  0  0  0  0  0  0
  -29.1170  -30.5950   24.4200 C   0  0  0  0  0  3  0  0  0  0  0  0
  -27.5890  -30.8470   26.4280 C   0  0  0  0  0  3  0  0  0  0  0  0
  -28.7930  -31.0020   25.8540 C   0  0  0  0  0  3  0  0  0  0  0  0
  -26.6940  -30.0500   28.6430 C   0  0  0  0  0  1  0  0  0  0  0  0
  -27.2630  -31.2330   27.8540 C   0  0  0  0  0  2  0  0  0  0  0  0
  -29.4670  -31.7980   23.4950 C   0  0  0  0  0  2  0  0  0  0  0  0
  -28.4720  -32.8330   23.4760 O   0  0  0  0  0  0  0  0  0  0  0  0
  -32.2980  -36.3560   28.3530 C   0  0  0  0  0  0  0  0  0  0  0  0
  -28.6300  -33.9450   24.2770 C   0  0  0  0  0  0  0  0  0  0  0  0
  -29.9820  -37.1650   27.9990 C   0  0  0  0  0  3  0  0  0  0  0  0
  -28.7810  -36.2160   25.9580 C   0  0  0  0  0  0  0  0  0  0  0  0
  -31.2750  -36.0450   26.1060 C   0  0  0  0  0  2  0  0  0  0  0  0
  -29.9480  -35.5400   25.5860 C   0  0  0  0  0  0  0  0  0  0  0  0
  -29.8820  -34.4150   24.7470 C   0  0  0  0  0  3  0  0  0  0  0  0
  -27.4630  -34.6430   24.6520 C   0  0  0  0  0  3  0  0  0  0  0  0
  -27.5310  -35.7710   25.4940 C   0  0  0  0  0  3  0  0  0  0  0  0
  -28.9560  -37.4160   26.8600 C   0  0  0  0  0  2  0  0  0  0  0  0
  -31.2290  -36.4840   27.5180 N   0  0  0  0  0  0  0  0  0  0  0  0
  -32.2800  -36.8380   29.4950 O   0  0  0  0  0  0  0  0  0  0  0  0
  -29.2730  -36.4040   29.1400 C   0  0  0  0  0  0  0  0  0  0  0  0
  -28.7140  -37.1590   30.0990 N   0  0  0  0  0  0  0  0  0  0  0  0
  -29.2090  -35.1730   29.1350 O   0  0  0  0  0  0  0  0  0  0  0  0
  -28.8230  -38.1610   30.0350 H   0  0  0  0  0  0  0  0  0  0  0  0
  -27.1020  -38.1760   33.1640 C   0  0  0  0  0  0  0  0  0  0  0  0
  -27.9550  -36.6680   31.2480 C   0  0  0  0  0  3  0  0  0  0  0  0
  -26.4660  -36.4610   30.8830 C   0  0  0  0  0  2  0  0  0  0  0  0
  -25.5940  -37.6810   31.1910 C   0  0  0  0  0  2  0  0  0  0  0  0
  -25.6680  -38.0320   32.6800 C   0  0  0  0  0  2  0  0  0  0  0  0
  -28.1770  -37.5470   32.4820 C   0  0  0  0  0  0  0  0  0  0  0  0
  -29.4950  -37.7420   32.9510 C   0  0  0  0  0  3  0  0  0  0  0  0
  -29.7460  -38.5440   34.0800 C   0  0  0  0  0  3  0  0  0  0  0  0
  -28.6770  -39.1500   34.7620 C   0  0  0  0  0  3  0  0  0  0  0  0
  -27.3590  -38.9620   34.3080 C   0  0  0  0  0  3  0  0  0  0  0  0
  -33.6040  -35.6200   27.9100 C   0  0  0  0  0  3  0  0  0  0  0  0
  -34.7420  -36.4300   28.3630 N   0  0  0  0  0  0  0  0  0  0  0  0
  -35.4330  -37.2720   27.5830 C   0  0  0  0  0  0  0  0  0  0  0  0
  -35.2180  -37.3950   26.3740 O   0  0  0  0  0  0  0  0  0  0  0  0
  -34.9340  -36.4270   29.3540 H   0  0  0  0  0  0  0  0  0  0  0  0
  -36.0180  -39.5340   28.5140 C   0  0  0  0  0  1  0  0  0  0  0  0
  -36.5390  -38.1130   28.2510 C   0  0  0  0  0  3  0  0  0  0  0  0
  -38.4960  -36.9040   27.3910 C   0  0  0  0  0  1  0  0  0  0  0  0
  -37.7870  -38.1790   27.4610 N   0  0  0  0  0  0  0  0  0  0  0  0
  -38.4220  -38.8720   27.8470 H   0  0  0  0  0  0  0  0  0  0  0  0
  -33.7050  -34.1470   28.4680 C   0  0  1  0  0  0  0  0  0  0  0  0
  -33.4090  -34.0370   29.9830 C   0  0  0  0  0  1  0  0  0  0  0  0
  -32.7160  -33.2210   27.7220 C   0  0  0  0  0  1  0  0  0  0  0  0
  -35.1230  -33.5860   28.2150 C   0  0  0  0  0  1  0  0  0  0  0  0
  2  1  1  0
  3  5  1  0
  4  7  1  0
  4  6  2  0
  6  8  1  0
  7  3  2  0
  8  5  2  0
  8  2  1  0
  9 11  1  0
  9  7  1  0
 10  9  2  0
 12 13  1  0
 12 11  1  0
 14 15  1  0
 14 13  1  0
 16 22  1  0
 16 15  1  0
 17 18  1  0
 17 22  1  0
 18 19  1  0
 20 19  1  0
 20 27  1  0
 21 20  1  0
 22 21  1  0
 23 16  2  0
 24 49  1  0
 24 25  2  0
 25 44  1  0
 26 29  1  0
 26 25  1  0
 27 28  1  0
 27 24  1  0
 28 26  2  0
 29 34  1  0
 30 29  2  0
 30 31  1  0
 31 32  2  0
 32 33  1  0
 32 35  1  0
 34 33  2  0
 35 36  1  0
 36 37  1  0
 37 38  2  0
 39 43  1  0
 39 38  1  0
 40 39  2  0
 41 40  1  0
 41 36  2  0
 42 41  1  0
 44 46  2  0
 44 45  1  0
 45 48  1  0
 47 45  1  0
 49 50  1  0
 51 49  1  0
 52 55  1  0
 52 54  1  0
 52  2  1  0
 53 52  1  0
 55 60  1  0
 55 57  1  0
 56 59  1  0
 57 56  2  0
 59 58  1  0
 61 60  1  0
 61 63  1  0
 62 73  2  0
 63 69  2  0
 63 68  1  0
 64 74  1  0
 65 71  1  0
 66 72  1  0
 67 65  1  0
 67 66  1  0
 68 67  2  0
 69 70  1  0
 70 65  2  0
 71 64  1  0
 72 64  1  0
 72 62  1  0
 74 75  1  0
 76 74  2  0
 77 75  1  0
 78 87  1  0
 79 75  1  0
 79 83  1  0
 80 81  1  0
 80 79  1  0
 81 82  1  0
 82 78  1  0
 83 84  1  0
 83 78  2  0
 84 85  2  0
 85 86  1  0
 87 86  2  0
 88 62  1  0
 88 89  1  0
 88 98  1  0
 89 92  1  0
 90 94  1  0
 90 89  1  0
 91 90  2  0
 94 93  1  0
 95 96  1  0
 96 97  1  0
 96 94  1  0
 98 99  1  1
100 98  1  0
101 98  1  0
M  ISO  4  15 100  16 100  60 101  61 101
M  END
>  <TORSDO>  (68) 
F 28

>  <SCORE>  (68) 
-5.250

>  <name>  (68) 
68

>  <ligand_id>  (68) 
68

>  <original_smiles>  (68) 
[H]C(=C([H])C([H])(C([H])([H])Oc1c([H])c([H])c2c(c1[H])C([H])([H])N(C(=O)C([H])(N([H])C(=O)C([H])(N([H])C([H])([H])[H])C([H])([H])[H])C(C([H])([H])[H])(C([H])([H])[H])C([H])([H])[H])C([H])(C(=O)N([H])C1([H])c3c([H])c([H])c([H])c([H])c3C([H])([H])C([H])([H])C1([H])[H])C2([H])[H])[N+]([H])([H])C([H])(c1c([H])c([H])c(C(=O)C([H])([H])C([H])([H])C([H])([H])C([H])([H])C([H])([H])C(=O)N2C([H])([H])C([H])([H])C([H])([H])C([H])(n3nc(-c4c([H])c([H])c(Oc5c([H])c([H])c(F)c([H])c5F)c([H])c4[H])c(C(=O)N([H])[H])c3N([H])[H])C2([H])[H])c([H])c1[H])C([H])([H])[H])C([H])([H])C([H])([H])[H]

>  <smiles>  (68) 
[H]C(=C([H])C([H])(C([H])([H])Oc1c([H])c([H])c2c(c1[H])C([H])([H])N(C(=O)C([H])(N([H])C(=O)C([H])(N([H])C([H])([H])[H])C([H])([H])[H])C(C([H])([H])[H])(C([H])([H])[H])C([H])([H])[H])C([H])(C(=O)N([H])C1([H])c3c([H])c([H])c([H])c([H])c3C([H])([H])C([H])([H])C1([H])[H])C2([H])[H])[N+]([H])([H])C([H])(c1c([H])c([H])c(C(=O)C([H])([H])C([H])([H])C([H])([H])C([H])([H])C([H])([H])C(=O)N2C([H])([H])C([H])([H])C([H])([H])C([H])(n3nc(-c4c([H])c([H])c(Oc5c([H])c([H])c(F)c([H])c5F)c([H])c4[H])c(C(=O)N([H])[H])c3N([H])[H])C2([H])[H])c([H])c1[H])C([H])([H])[H])C([H])([H])C([H])([H])[H]

$$$$
69:0:0
     RDKit          3D

 94101  0  0  1  0  0  0  0  0999 V2000
  -27.3690  -23.8650   23.1970 C   0  0  0  0  0  0  0  0  0  0  0  0
  -27.2420  -22.9280   22.2510 N   0  0  0  0  0  0  0  0  0  0  0  0
  -26.4410  -24.6030   23.5290 O   0  0  0  0  0  0  0  0  0  0  0  0
  -28.0560  -22.3500   22.0870 H   0  0  0  0  0  0  0  0  0  0  0  0
  -26.1090  -22.7290   21.3510 C   0  0  0  0  0  2  0  0  0  0  0  0
  -26.1440  -23.6980   20.1500 C   0  0  0  0  0  2  0  0  0  0  0  0
  -27.4560  -23.6500   19.3260 C   0  0  0  0  0  2  0  0  0  0  0  0
  -27.8130  -24.9860   18.6500 C   0  0  0  0  0  2  0  0  0  0  0  0
  -28.2010  -26.0860   19.6640 C   0  0  0  0  0  2  0  0  0  0  0  0
  -28.1150  -27.4060   19.1340 O   0  0  0  0  0  0  0  0  0  0  0  0
  -24.5420  -31.9270   23.3060 C   0  0  0  0  0  0  0  0  0  0  0  0
  -26.9310  -28.0650   19.3710 C   0  0  0  0  0  0  0  0  0  0  0  0
  -23.1990  -30.7670   21.5810 C   0  0  0  0  0  3  0  0  0  0  0  0
  -24.5290  -29.4820   19.8280 C   0  0  0  0  0  0  0  0  0  0  0  0
  -25.6950  -31.1990   21.2220 C   0  0  0  0  0  2  0  0  0  0  0  0
  -25.7310  -29.9420   20.3810 C   0  0  0  0  0  0  0  0  0  0  0  0
  -26.9360  -29.2440   20.1470 C   0  0  0  0  0  3  0  0  0  0  0  0
  -25.7100  -27.6090   18.8280 C   0  0  0  0  0  3  0  0  0  0  0  0
  -24.5120  -28.3130   19.0500 C   0  0  0  0  0  3  0  0  0  0  0  0
  -23.2910  -30.3040   20.1020 C   0  0  0  0  0  2  0  0  0  0  0  0
  -24.5020  -31.3030   22.0950 N   0  0  0  0  0  0  0  0  0  0  0  0
  -23.5120  -32.0970   23.9730 O   0  0  0  0  0  0  0  0  0  0  0  0
  -22.6400  -29.6030   22.4300 C   0  0  0  0  0  0  0  0  0  0  0  0
  -21.3220  -29.3670   22.3270 N   0  0  0  0  0  0  0  0  0  0  0  0
  -23.3860  -28.9190   23.1350 O   0  0  0  0  0  0  0  0  0  0  0  0
  -20.7780  -29.9780   21.7330 H   0  0  0  0  0  0  0  0  0  0  0  0
  -18.0530  -27.8780   22.7040 C   0  0  0  0  0  0  0  0  0  0  0  0
  -20.5850  -28.3010   23.0040 C   0  0  0  0  0  3  0  0  0  0  0  0
  -20.7940  -26.9430   22.2960 C   0  0  0  0  0  2  0  0  0  0  0  0
  -19.7140  -26.6350   21.2530 C   0  0  0  0  0  2  0  0  0  0  0  0
  -18.3280  -26.6150   21.9050 C   0  0  0  0  0  2  0  0  0  0  0  0
  -19.1120  -28.6770   23.2080 C   0  0  0  0  0  0  0  0  0  0  0  0
  -18.8040  -29.8600   23.9140 C   0  0  0  0  0  3  0  0  0  0  0  0
  -17.4660  -30.2460   24.1200 C   0  0  0  0  0  3  0  0  0  0  0  0
  -16.4210  -29.4430   23.6320 C   0  0  0  0  0  3  0  0  0  0  0  0
  -16.7150  -28.2600   22.9310 C   0  0  0  0  0  3  0  0  0  0  0  0
  -25.8770  -32.4770   23.8990 C   0  0  0  0  0  3  0  0  0  0  0  0
  -25.6060  -33.8210   24.4260 N   0  0  0  0  0  0  0  0  0  0  0  0
  -25.9110  -34.9620   23.7930 C   0  0  0  0  0  0  0  0  0  0  0  0
  -26.5260  -34.9900   22.7230 O   0  0  0  0  0  0  0  0  0  0  0  0
  -25.0620  -33.8720   25.2750 H   0  0  0  0  0  0  0  0  0  0  0  0
  -24.1990  -36.8020   23.7510 C   0  0  0  0  0  1  0  0  0  0  0  0
  -25.4640  -36.2800   24.4520 C   0  0  0  0  0  3  0  0  0  0  0  0
  -27.6430  -37.0170   25.3070 C   0  0  0  0  0  1  0  0  0  0  0  0
  -26.5080  -37.3270   24.4420 N   0  0  0  0  0  0  0  0  0  0  0  0
  -26.1240  -38.2230   24.7310 H   0  0  0  0  0  0  0  0  0  0  0  0
  -26.4870  -31.5520   25.0210 C   0  0  1  0  0  0  0  0  0  0  0  0
  -25.4820  -31.1830   26.1360 C   0  0  0  0  0  1  0  0  0  0  0  0
  -27.0230  -30.2360   24.4100 C   0  0  0  0  0  1  0  0  0  0  0  0
  -27.6970  -32.2550   25.6810 C   0  0  0  0  0  1  0  0  0  0  0  0
  -28.7500  -24.0360   23.8470 C   0  0  0  0  0  2  0  0  0  0  0  0
  -29.5760  -22.7380   24.0070 C   0  0  0  0  0  2  0  0  0  0  0  0
  -30.2390  -22.2190   22.7110 C   0  0  0  0  0  2  0  0  0  0  0  0
  -30.9010  -20.8510   22.9250 C   0  0  0  0  0  2  0  0  0  0  0  0
  -31.1420  -20.0630   21.6260 C   0  0  0  0  0  2  0  0  0  0  0  0
  -31.3380  -18.5700   21.9240 C   0  0  0  0  0  2  0  0  0  0  0  0
  -31.5660  -17.6860   20.6830 C   0  0  0  0  0  2  0  0  0  0  0  0
  -31.0540  -16.2610   20.9650 C   0  0  0  0  0  2  0  0  0  0  0  0
  -31.7120  -15.1080   20.1870 C   0  0  0  0  0  0  0  0  0  0  0  0
  -31.5250  -12.7780   19.3640 C   0  0  0  0  0  2  0  0  0  0  0  0
  -30.6720  -12.7090   18.0840 C   0  0  0  0  0  2  0  0  0  0  0  0
  -29.1670  -12.6360   18.4170 C   0  0  0  0  0  2  0  0  0  0  0  0
  -28.7320  -13.7110   19.4480 C   0  0  0  0  0  3  0  0  0  0  0  0
  -29.6890  -13.7000   20.6610 C   0  0  0  0  0  2  0  0  0  0  0  0
  -31.0580  -13.9190   20.1600 N   0  0  0  0  0  0  0  0  0  0  0  0
  -32.7940  -15.2900   19.6170 O   0  0  0  0  0  0  0  0  0  0  0  0
  -26.3070  -14.4610   19.9030 C   0  0  0  0  0  0  0  0  0  0  0  0
  -25.1910  -13.7630   20.2780 C   0  0  0  0  0  0  0  0  0  0  0  0
  -25.6080  -12.4050   20.4310 C   0  0  0  0  0  0  0  0  0  0  0  0
  -27.3380  -13.5340   19.8510 N   0  0  0  0  0  0  0  0  0  0  0  0
  -26.9140  -12.2990   20.2210 N   0  0  0  0  0  0  0  0  0  0  0  0
  -24.8310  -11.1910   20.7100 C   0  0  0  0  0  0  0  0  0  0  0  0
  -25.1310  -10.3620   21.8130 C   0  0  0  0  0  3  0  0  0  0  0  0
  -24.3590   -9.2080   22.0720 C   0  0  0  0  0  3  0  0  0  0  0  0
  -23.2740   -8.8760   21.2260 C   0  0  0  0  0  0  0  0  0  0  0  0
  -22.9950   -9.6930   20.1160 C   0  0  0  0  0  3  0  0  0  0  0  0
  -23.7660  -10.8380   19.8570 C   0  0  0  0  0  3  0  0  0  0  0  0
  -22.4870   -7.7620   21.3830 O   0  0  0  0  0  0  0  0  0  0  0  0
  -22.1730   -7.2720   22.6260 C   0  0  0  0  0  0  0  0  0  0  0  0
  -21.5560   -8.0740   23.6100 C   0  0  0  0  0  3  0  0  0  0  0  0
  -21.1890   -7.5110   24.8490 C   0  0  0  0  0  3  0  0  0  0  0  0
  -21.4290   -6.1480   25.1020 C   0  0  0  0  0  0  0  0  0  0  0  0
  -22.0380   -5.3460   24.1210 C   0  0  0  0  0  3  0  0  0  0  0  0
  -22.4070   -5.9060   22.8850 C   0  0  0  0  0  0  0  0  0  0  0  0
  -22.9740   -5.1240   21.9360 F   0  0  0  0  0  0  0  0  0  0  0  0
  -21.0690   -5.6050   26.2880 F   0  0  0  0  0  0  0  0  0  0  0  0
  -23.7930  -14.3020   20.3980 C   0  0  0  0  0  0  0  0  0  0  0  0
  -22.9970  -13.7450   21.3040 N   0  0  0  0  0  0  0  0  0  0  0  0
  -23.4160  -15.2550   19.7190 O   0  0  0  0  0  0  0  0  0  0  0  0
  -23.3130  -12.9750   21.8760 H   0  0  0  0  0  0  0  0  0  0  0  0
  -22.0570  -14.0940   21.4260 H   0  0  0  0  0  0  0  0  0  0  0  0
  -26.5260  -15.7980   19.5850 N   0  0  0  0  0  0  0  0  0  0  0  0
  -25.7760  -16.4800   19.5640 H   0  0  0  0  0  0  0  0  0  0  0  0
  -27.4160  -16.1790   19.2850 H   0  0  0  0  0  0  0  0  0  0  0  0
  1  3  2  0
  1 51  1  0
  2  1  1  0
  4  2  1  0
  5  2  1  0
  6  5  1  0
  7  6  1  0
  8  7  1  0
  8  9  1  0
 10 12  1  0
 10  9  1  0
 11 22  2  0
 12 17  1  0
 13 21  1  0
 13 23  1  0
 14 20  1  0
 14 16  1  0
 15 21  1  0
 16 15  1  0
 17 16  2  0
 18 19  1  0
 18 12  2  0
 19 14  2  0
 20 13  1  0
 21 11  1  0
 23 25  2  0
 24 23  1  0
 26 24  1  0
 27 36  2  0
 27 32  1  0
 28 24  1  0
 28 32  1  0
 29 28  1  0
 30 31  1  0
 30 29  1  0
 31 27  1  0
 32 33  2  0
 33 34  1  0
 35 34  2  0
 36 35  1  0
 37 11  1  0
 37 38  1  0
 37 47  1  0
 38 41  1  0
 39 38  1  0
 39 43  1  0
 40 39  2  0
 43 42  1  0
 45 43  1  0
 45 46  1  0
 45 44  1  0
 47 50  1  1
 47 48  1  0
 49 47  1  0
 51 52  1  0
 53 54  1  0
 53 52  1  0
 55 56  1  0
 55 54  1  0
 57 58  1  0
 57 56  1  0
 59 58  1  0
 60 65  1  0
 61 62  1  0
 61 60  1  0
 63 62  1  0
 63 70  1  0
 63 64  1  0
 65 59  1  0
 65 64  1  0
 66 59  2  0
 67 68  2  0
 68 87  1  0
 68 69  1  0
 69 72  1  0
 70 67  1  0
 70 71  1  0
 71 69  2  0
 72 73  1  0
 73 74  2  0
 75 78  1  0
 75 74  1  0
 76 75  2  0
 77 76  1  0
 77 72  2  0
 78 79  1  0
 79 84  2  0
 79 80  1  0
 80 81  2  0
 81 82  1  0
 82 86  1  0
 83 82  2  0
 84 83  1  0
 85 84  1  0
 87 88  1  0
 88 91  1  0
 88 90  1  0
 89 87  2  0
 92 67  1  0
 93 92  1  0
 94 92  1  0
M  ISO  4   9 101  10 101  58 100  59 100
M  END
>  <TORSDO>  (69) 
F 29

>  <SCORE>  (69) 
-5.556

>  <name>  (69) 
69

>  <ligand_id>  (69) 
69

>  <original_smiles>  (69) 
[H]c1c([H])c([H])c2c(c1[H])C([H])([H])C([H])([H])C([H])([H])C2([H])N([H])C(=O)C1([H])N(C(=O)C([H])(N([H])C(=O)C([H])(N([H])C([H])([H])[H])C([H])([H])[H])C(C([H])([H])[H])(C([H])([H])[H])C([H])([H])[H])C([H])([H])c2c([H])c(OC([H])([H])C([H])([H])C([H])([H])C([H])([H])C([H])([H])N([H])C(=O)C([H])([H])C([H])([H])C([H])([H])C([H])([H])C([H])([H])C([H])([H])C([H])([H])C([H])([H])C(=O)N3C([H])([H])C([H])([H])C([H])([H])C([H])(n4nc(-c5c([H])c([H])c(Oc6c([H])c([H])c(F)c([H])c6F)c([H])c5[H])c(C(=O)N([H])[H])c4N([H])[H])C3([H])[H])c([H])c([H])c2C1([H])[H]

>  <smiles>  (69) 
[H]c1c([H])c([H])c2c(c1[H])C([H])([H])C([H])([H])C([H])([H])C2([H])N([H])C(=O)C1([H])N(C(=O)C([H])(N([H])C(=O)C([H])(N([H])C([H])([H])[H])C([H])([H])[H])C(C([H])([H])[H])(C([H])([H])[H])C([H])([H])[H])C([H])([H])c2c([H])c(OC([H])([H])C([H])([H])C([H])([H])C([H])([H])C([H])([H])N([H])C(=O)C([H])([H])C([H])([H])C([H])([H])C([H])([H])C([H])([H])C([H])([H])C([H])([H])C([H])([H])C(=O)N3C([H])([H])C([H])([H])C([H])([H])C([H])(n4nc(-c5c([H])c([H])c(Oc6c([H])c([H])c(F)c([H])c6F)c([H])c5[H])c(C(=O)N([H])[H])c4N([H])[H])C3([H])[H])c([H])c([H])c2C1([H])[H]

$$$$
70:0:0
     RDKit          3D

 96103  0  0  1  0  0  0  0  0999 V2000
  -32.4850  -20.2920   17.9030 C   0  0  0  0  0  2  0  0  0  0  0  0
  -32.5440  -21.3840   18.9840 C   0  0  0  0  0  2  0  0  0  0  0  0
  -31.4700  -22.4680   18.7960 C   0  0  0  0  0  2  0  0  0  0  0  0
  -31.7140  -23.7120   19.6660 C   0  0  0  0  0  2  0  0  0  0  0  0
  -30.4440  -24.5560   19.8520 C   0  0  0  0  0  2  0  0  0  0  0  0
  -30.7230  -25.9420   20.4660 C   0  0  0  0  0  2  0  0  0  0  0  0
  -29.4520  -26.6890   20.8990 C   0  0  0  0  0  2  0  0  0  0  0  0
  -28.4960  -26.6040   19.8520 O   0  0  0  0  0  0  0  0  0  0  0  0
  -24.6110  -31.6330   23.1420 C   0  0  0  0  0  0  0  0  0  0  0  0
  -27.3380  -27.3400   19.9620 C   0  0  0  0  0  0  0  0  0  0  0  0
  -23.4280  -30.2650   21.4500 C   0  0  0  0  0  3  0  0  0  0  0  0
  -24.9080  -28.7780   20.0010 C   0  0  0  0  0  0  0  0  0  0  0  0
  -25.9440  -30.6640   21.2780 C   0  0  0  0  0  2  0  0  0  0  0  0
  -26.0490  -29.3080   20.6170 C   0  0  0  0  0  0  0  0  0  0  0  0
  -27.2620  -28.5950   20.6080 C   0  0  0  0  0  3  0  0  0  0  0  0
  -26.1840  -26.8160   19.3450 C   0  0  0  0  0  3  0  0  0  0  0  0
  -24.9650  -27.5230   19.3690 C   0  0  0  0  0  3  0  0  0  0  0  0
  -23.6530  -29.6200   20.0560 C   0  0  0  0  0  2  0  0  0  0  0  0
  -24.6790  -30.8670   22.0160 N   0  0  0  0  0  0  0  0  0  0  0  0
  -23.5240  -31.8810   23.6820 O   0  0  0  0  0  0  0  0  0  0  0  0
  -22.7810  -29.2130   22.3790 C   0  0  0  0  0  0  0  0  0  0  0  0
  -21.4590  -29.0240   22.2350 N   0  0  0  0  0  0  0  0  0  0  0  0
  -23.4650  -28.5700   23.1800 O   0  0  0  0  0  0  0  0  0  0  0  0
  -20.9720  -29.5950   21.5590 H   0  0  0  0  0  0  0  0  0  0  0  0
  -18.0890  -27.8050   22.6750 C   0  0  0  0  0  0  0  0  0  0  0  0
  -20.6440  -28.0610   22.9740 C   0  0  0  0  0  3  0  0  0  0  0  0
  -20.7560  -26.6490   22.3560 C   0  0  0  0  0  2  0  0  0  0  0  0
  -19.6630  -26.3540   21.3250 C   0  0  0  0  0  2  0  0  0  0  0  0
  -18.2760  -26.4760   21.9630 C   0  0  0  0  0  2  0  0  0  0  0  0
  -19.2020  -28.5570   23.1360 C   0  0  0  0  0  0  0  0  0  0  0  0
  -18.9770  -29.8030   23.7600 C   0  0  0  0  0  3  0  0  0  0  0  0
  -17.6700  -30.2970   23.9310 C   0  0  0  0  0  3  0  0  0  0  0  0
  -16.5710  -29.5410   23.4860 C   0  0  0  0  0  3  0  0  0  0  0  0
  -16.7830  -28.2980   22.8660 C   0  0  0  0  0  3  0  0  0  0  0  0
  -25.8900  -32.2540   23.7870 C   0  0  0  0  0  3  0  0  0  0  0  0
  -25.5800  -33.6470   24.1300 N   0  0  0  0  0  0  0  0  0  0  0  0
  -25.9280  -34.7070   23.3880 C   0  0  0  0  0  0  0  0  0  0  0  0
  -26.6170  -34.6140   22.3670 O   0  0  0  0  0  0  0  0  0  0  0  0
  -24.9690  -33.7920   24.9200 H   0  0  0  0  0  0  0  0  0  0  0  0
  -24.2090  -36.5050   23.0190 C   0  0  0  0  0  1  0  0  0  0  0  0
  -25.4340  -36.0900   23.8500 C   0  0  0  0  0  3  0  0  0  0  0  0
  -27.5480  -36.9660   24.7380 C   0  0  0  0  0  1  0  0  0  0  0  0
  -26.4700  -37.1420   23.7680 N   0  0  0  0  0  0  0  0  0  0  0  0
  -26.0620  -38.0610   23.9090 H   0  0  0  0  0  0  0  0  0  0  0  0
  -26.3940  -31.4630   25.0560 C   0  0  1  0  0  0  0  0  0  0  0  0
  -25.2900  -31.2140   26.1090 C   0  0  0  0  0  1  0  0  0  0  0  0
  -26.9780  -30.0900   24.6470 C   0  0  0  0  0  1  0  0  0  0  0  0
  -27.5400  -32.2450   25.7390 C   0  0  0  0  0  1  0  0  0  0  0  0
  -33.2340  -19.0030   18.2930 C   0  0  0  0  0  2  0  0  0  0  0  0
  -31.5760  -17.5080   19.4120 C   0  0  0  0  0  0  0  0  0  0  0  0
  -32.6240  -18.3420   19.4480 N   0  0  0  0  0  0  0  0  0  0  0  0
  -31.0290  -17.1700   18.3580 O   0  0  0  0  0  0  0  0  0  0  0  0
  -33.0420  -18.5320   20.3500 H   0  0  0  0  0  0  0  0  0  0  0  0
  -31.0290  -16.9910   20.7620 C   0  0  0  0  0  3  0  0  0  0  0  0
  -31.2040  -14.5240   20.1480 C   0  0  0  0  0  0  0  0  0  0  0  0
  -30.7790  -12.3770   19.0070 C   0  0  0  0  0  2  0  0  0  0  0  0
  -29.8330  -12.6180   17.8120 C   0  0  0  0  0  2  0  0  0  0  0  0
  -28.3620  -12.5300   18.2630 C   0  0  0  0  0  2  0  0  0  0  0  0
  -28.0760  -13.3930   19.5230 C   0  0  0  0  0  3  0  0  0  0  0  0
  -29.1380  -13.1480   20.6210 C   0  0  0  0  0  2  0  0  0  0  0  0
  -30.4640  -13.3840   20.0320 N   0  0  0  0  0  0  0  0  0  0  0  0
  -32.3310  -14.6250   19.6680 O   0  0  0  0  0  0  0  0  0  0  0  0
  -30.5720  -15.5780   20.7120 N   0  0  0  0  0  0  0  0  0  0  0  0
  -29.6440  -15.3900   21.0540 H   0  0  0  0  0  0  0  0  0  0  0  0
  -25.7170  -14.1050   20.2680 C   0  0  0  0  0  0  0  0  0  0  0  0
  -24.6240  -13.3790   20.6520 C   0  0  0  0  0  0  0  0  0  0  0  0
  -25.0300  -12.0090   20.6310 C   0  0  0  0  0  0  0  0  0  0  0  0
  -26.7190  -13.1780   20.0230 N   0  0  0  0  0  0  0  0  0  0  0  0
  -26.3110  -11.9160   20.3020 N   0  0  0  0  0  0  0  0  0  0  0  0
  -24.2580  -10.7800   20.8490 C   0  0  0  0  0  0  0  0  0  0  0  0
  -24.6460   -9.8270   21.8160 C   0  0  0  0  0  3  0  0  0  0  0  0
  -23.8780   -8.6620   22.0200 C   0  0  0  0  0  3  0  0  0  0  0  0
  -22.7060   -8.4420   21.2590 C   0  0  0  0  0  0  0  0  0  0  0  0
  -22.3370   -9.3850   20.2830 C   0  0  0  0  0  3  0  0  0  0  0  0
  -23.1050  -10.5440   20.0750 C   0  0  0  0  0  3  0  0  0  0  0  0
  -21.9110   -7.3240   21.3710 O   0  0  0  0  0  0  0  0  0  0  0  0
  -21.8090   -6.6280   22.5480 C   0  0  0  0  0  0  0  0  0  0  0  0
  -21.3500   -7.2380   23.7360 C   0  0  0  0  0  3  0  0  0  0  0  0
  -21.1940   -6.4710   24.9080 C   0  0  0  0  0  3  0  0  0  0  0  0
  -21.4840   -5.0940   24.8900 C   0  0  0  0  0  0  0  0  0  0  0  0
  -21.9380   -4.4820   23.7090 C   0  0  0  0  0  3  0  0  0  0  0  0
  -22.0980   -5.2460   22.5390 C   0  0  0  0  0  0  0  0  0  0  0  0
  -22.5130   -4.6460   21.3950 F   0  0  0  0  0  0  0  0  0  0  0  0
  -21.3280   -4.3550   26.0170 F   0  0  0  0  0  0  0  0  0  0  0  0
  -23.2500  -13.9130   20.9410 C   0  0  0  0  0  0  0  0  0  0  0  0
  -22.5140  -13.2620   21.8360 N   0  0  0  0  0  0  0  0  0  0  0  0
  -22.8420  -14.9430   20.4110 O   0  0  0  0  0  0  0  0  0  0  0  0
  -22.8550  -12.4260   22.2890 H   0  0  0  0  0  0  0  0  0  0  0  0
  -21.5930  -13.6020   22.0700 H   0  0  0  0  0  0  0  0  0  0  0  0
  -25.9500  -15.4690   20.1010 N   0  0  0  0  0  0  0  0  0  0  0  0
  -25.2590  -16.1750   20.3230 H   0  0  0  0  0  0  0  0  0  0  0  0
  -26.8650  -15.8590   19.9210 H   0  0  0  0  0  0  0  0  0  0  0  0
  -29.8980  -17.9080   21.3340 C   0  0  0  0  0  2  0  0  0  0  0  0
  -30.9830  -20.2180   21.7840 C   0  0  0  0  0  1  0  0  0  0  0  0
  -28.5620  -20.0920   21.1240 C   0  0  0  0  0  1  0  0  0  0  0  0
  -29.9420  -19.4250   20.9730 C   0  0  0  0  0  3  0  0  0  0  0  0
  1 49  1  0
  1  2  1  0
  3  2  1  0
  3  4  1  0
  4  5  1  0
  5  6  1  0
  6  7  1  0
  8 10  1  0
  8  7  1  0
  9 20  2  0
 10 15  1  0
 11 19  1  0
 11 21  1  0
 12 18  1  0
 12 14  1  0
 13 19  1  0
 14 13  1  0
 15 14  2  0
 16 17  1  0
 16 10  2  0
 17 12  2  0
 18 11  1  0
 19  9  1  0
 21 23  2  0
 22 21  1  0
 24 22  1  0
 25 34  2  0
 25 30  1  0
 26 22  1  0
 26 30  1  0
 27 26  1  0
 28 29  1  0
 28 27  1  0
 29 25  1  0
 30 31  2  0
 31 32  1  0
 33 32  2  0
 34 33  1  0
 35  9  1  0
 35 36  1  0
 35 45  1  0
 36 39  1  0
 37 41  1  0
 37 36  1  0
 38 37  2  0
 41 40  1  0
 43 41  1  0
 43 44  1  0
 43 42  1  0
 45 48  1  1
 45 46  1  0
 47 45  1  0
 49 51  1  0
 50 51  1  0
 50 54  1  0
 51 53  1  0
 52 50  2  0
 54 93  1  0
 55 63  1  0
 56 61  1  0
 57 58  1  0
 57 56  1  0
 59 58  1  0
 59 68  1  0
 59 60  1  0
 61 55  1  0
 61 60  1  0
 62 55  2  0
 63 54  1  0
 63 64  1  0
 65 66  2  0
 66 85  1  0
 67 66  1  0
 67 70  1  0
 68 65  1  0
 68 69  1  0
 69 67  2  0
 70 71  1  0
 71 72  2  0
 73 76  1  0
 73 72  1  0
 74 73  2  0
 75 74  1  0
 75 70  2  0
 76 77  1  0
 77 78  1  0
 78 79  2  0
 80 79  1  0
 80 84  1  0
 81 80  2  0
 82 77  2  0
 82 81  1  0
 83 82  1  0
 85 86  1  0
 86 89  1  0
 86 88  1  0
 87 85  2  0
 90 65  1  0
 90 91  1  0
 92 90  1  0
 96 95  1  0
 96 93  1  0
 96 94  1  0
M  ISO  4   7 101   8 101  55 100  63 100
M  END
>  <TORSDO>  (70) 
F 27

>  <SCORE>  (70) 
-10.929

>  <name>  (70) 
70

>  <ligand_id>  (70) 
70

>  <original_smiles>  (70) 
[H]c1c([H])c([H])c2c(c1[H])C([H])([H])C([H])([H])C([H])([H])C2([H])N([H])C(=O)C1([H])N(C(=O)C([H])(N([H])C(=O)C([H])(N([H])C([H])([H])[H])C([H])([H])[H])C(C([H])([H])[H])(C([H])([H])[H])C([H])([H])[H])C([H])([H])c2c([H])c(OC([H])([H])C([H])([H])C([H])([H])C([H])([H])C([H])([H])C([H])([H])C([H])([H])C([H])([H])N([H])C(=O)C([H])(N([H])C(=O)N3C([H])([H])C([H])([H])C([H])([H])C([H])(n4nc(-c5c([H])c([H])c(Oc6c([H])c([H])c(F)c([H])c6F)c([H])c5[H])c(C(=O)N([H])[H])c4N([H])[H])C3([H])[H])C([H])([H])C([H])(C([H])([H])[H])C([H])([H])[H])c([H])c([H])c2C1([H])[H]

>  <smiles>  (70) 
[H]c1c([H])c([H])c2c(c1[H])C([H])([H])C([H])([H])C([H])([H])C2([H])N([H])C(=O)C1([H])N(C(=O)C([H])(N([H])C(=O)C([H])(N([H])C([H])([H])[H])C([H])([H])[H])C(C([H])([H])[H])(C([H])([H])[H])C([H])([H])[H])C([H])([H])c2c([H])c(OC([H])([H])C([H])([H])C([H])([H])C([H])([H])C([H])([H])C([H])([H])C([H])([H])C([H])([H])N([H])C(=O)C([H])(N([H])C(=O)N3C([H])([H])C([H])([H])C([H])([H])C([H])(n4nc(-c5c([H])c([H])c(Oc6c([H])c([H])c(F)c([H])c6F)c([H])c5[H])c(C(=O)N([H])[H])c4N([H])[H])C3([H])[H])C([H])([H])C([H])(C([H])([H])[H])C([H])([H])[H])c([H])c([H])c2C1([H])[H]

$$$$
71:0:0
     RDKit          3D

103111  0  0  1  0  0  0  0  0999 V2000
  -22.3690  -21.2070   21.1250 C   0  0  0  0  0  2  0  0  0  0  0  0
  -22.5030  -22.4050   22.0800 C   0  0  0  0  0  2  0  0  0  0  0  0
  -20.7100  -24.0370   21.1060 C   0  0  0  0  0  1  0  0  0  0  0  0
  -22.1630  -23.8230   21.5730 C   0  0  0  0  0  3  0  0  0  0  0  0
  -23.2170  -24.4730   20.6370 C   0  0  0  0  0  2  0  0  0  0  0  0
  -23.5270  -25.9350   21.0190 C   0  0  0  0  0  0  0  0  0  0  0  0
  -23.7840  -26.8220   20.0480 N   0  0  0  0  0  0  0  0  0  0  0  0
  -23.6050  -26.2490   22.2080 O   0  0  0  0  0  0  0  0  0  0  0  0
  -23.7000  -26.5420   19.0790 H   0  0  0  0  0  0  0  0  0  0  0  0
  -24.3880  -28.1250   20.3250 C   0  0  0  0  0  2  0  0  0  0  0  0
  -23.5160  -29.3200   19.8920 C   0  0  0  0  0  2  0  0  0  0  0  0
  -24.1500  -30.5530   20.2540 O   0  0  0  0  0  0  0  0  0  0  0  0
  -28.6950  -32.0280   25.5120 C   0  0  0  0  0  0  0  0  0  0  0  0
  -24.2870  -30.8560   21.5940 C   0  0  0  0  0  0  0  0  0  0  0  0
  -26.3570  -31.6260   26.2090 C   0  0  0  0  0  3  0  0  0  0  0  0
  -24.6440  -31.5240   24.3200 C   0  0  0  0  0  0  0  0  0  0  0  0
  -26.8850  -32.5390   23.8840 C   0  0  0  0  0  2  0  0  0  0  0  0
  -25.6290  -31.8530   23.3840 C   0  0  0  0  0  0  0  0  0  0  0  0
  -25.4510  -31.5310   22.0210 C   0  0  0  0  0  3  0  0  0  0  0  0
  -23.3040  -30.5250   22.5550 C   0  0  0  0  0  3  0  0  0  0  0  0
  -23.4770  -30.8550   23.9110 C   0  0  0  0  0  3  0  0  0  0  0  0
  -24.8980  -31.9040   25.7610 C   0  0  0  0  0  2  0  0  0  0  0  0
  -27.3710  -32.0410   25.1890 N   0  0  0  0  0  0  0  0  0  0  0  0
  -29.0730  -31.7190   26.6510 O   0  0  0  0  0  0  0  0  0  0  0  0
  -26.4650  -30.1390   26.6020 C   0  0  0  0  0  0  0  0  0  0  0  0
  -26.1920  -29.8400   27.8830 N   0  0  0  0  0  0  0  0  0  0  0  0
  -26.7540  -29.2810   25.7620 O   0  0  0  0  0  0  0  0  0  0  0  0
  -25.9810  -30.6010   28.5160 H   0  0  0  0  0  0  0  0  0  0  0  0
  -25.8070  -28.0450   30.9780 C   0  0  0  0  0  0  0  0  0  0  0  0
  -26.1790  -28.5030   28.4670 C   0  0  0  0  0  3  0  0  0  0  0  0
  -24.8170  -27.8110   28.2360 C   0  0  0  0  0  2  0  0  0  0  0  0
  -23.8310  -28.0150   29.3890 C   0  0  0  0  0  2  0  0  0  0  0  0
  -24.4230  -27.4800   30.7000 C   0  0  0  0  0  2  0  0  0  0  0  0
  -26.6250  -28.5390   29.9300 C   0  0  0  0  0  0  0  0  0  0  0  0
  -27.8880  -29.0880   30.2430 C   0  0  0  0  0  3  0  0  0  0  0  0
  -28.3420  -29.1370   31.5730 C   0  0  0  0  0  3  0  0  0  0  0  0
  -27.5400  -28.6210   32.6050 C   0  0  0  0  0  3  0  0  0  0  0  0
  -26.2750  -28.0770   32.3090 C   0  0  0  0  0  3  0  0  0  0  0  0
  -29.7960  -32.4240   24.4780 C   0  0  0  0  0  3  0  0  0  0  0  0
  -30.7940  -33.2340   25.1880 N   0  0  0  0  0  0  0  0  0  0  0  0
  -30.8660  -34.5700   25.1360 C   0  0  0  0  0  0  0  0  0  0  0  0
  -30.1250  -35.2540   24.4260 O   0  0  0  0  0  0  0  0  0  0  0  0
  -31.3900  -32.7500   25.8450 H   0  0  0  0  0  0  0  0  0  0  0  0
  -31.2620  -35.7920   27.2950 C   0  0  0  0  0  1  0  0  0  0  0  0
  -31.9240  -35.2550   26.0170 C   0  0  0  0  0  3  0  0  0  0  0  0
  -33.5160  -35.8760   24.2570 C   0  0  0  0  0  1  0  0  0  0  0  0
  -32.6450  -36.3480   25.3300 N   0  0  0  0  0  0  0  0  0  0  0  0
  -33.2160  -36.8710   25.9900 H   0  0  0  0  0  0  0  0  0  0  0  0
  -30.4680  -31.1800   23.7830 C   0  0  1  0  0  0  0  0  0  0  0  0
  -31.0840  -30.1750   24.7820 C   0  0  0  0  0  1  0  0  0  0  0  0
  -29.4410  -30.4130   22.9210 C   0  0  0  0  0  1  0  0  0  0  0  0
  -31.5890  -31.6510   22.8260 C   0  0  0  0  0  1  0  0  0  0  0  0
  -23.4660  -21.0780   20.0500 C   0  0  0  0  0  2  0  0  0  0  0  0
  -23.0020  -21.3660   18.6080 C   0  0  0  0  0  2  0  0  0  0  0  0
  -24.6420  -24.7930   17.9930 C   0  0  0  0  0  3  0  0  0  0  0  0
  -22.4610  -24.7580   16.9110 C   0  0  0  0  0  3  0  0  0  0  0  0
  -24.4510  -23.4650   18.4190 C   0  0  0  0  0  3  0  0  0  0  0  0
  -22.2590  -23.4410   17.3620 C   0  0  0  0  0  3  0  0  0  0  0  0
  -23.6480  -25.4550   17.2330 C   0  0  0  0  0  0  0  0  0  0  0  0
  -23.2460  -22.7910   18.1300 C   0  0  0  0  0  0  0  0  0  0  0  0
  -23.7860  -26.8780   16.8110 C   0  0  0  0  0  0  0  0  0  0  0  0
  -22.8930  -27.4850   16.2090 O   0  0  0  0  0  0  0  0  0  0  0  0
  -25.0850  -27.6150   17.1560 C   0  0  0  0  0  2  0  0  0  0  0  0
  -25.3620  -28.8240   16.2430 C   0  0  0  0  0  2  0  0  0  0  0  0
  -26.7130  -29.5000   16.5280 C   0  0  0  0  0  2  0  0  0  0  0  0
  -28.2310  -28.3630   14.9230 C   0  0  0  0  0  0  0  0  0  0  0  0
  -30.2020  -28.0100   13.4850 C   0  0  0  0  0  2  0  0  0  0  0  0
  -30.3000  -26.5870   12.9130 C   0  0  0  0  0  2  0  0  0  0  0  0
  -31.0490  -25.6750   13.8980 C   0  0  0  0  0  2  0  0  0  0  0  0
  -30.4690  -25.7530   15.3310 C   0  0  0  0  0  3  0  0  0  0  0  0
  -30.3000  -27.2190   15.7940 C   0  0  0  0  0  2  0  0  0  0  0  0
  -29.5170  -27.9570   14.7860 N   0  0  0  0  0  0  0  0  0  0  0  0
  -27.4980  -28.6320   13.9660 O   0  0  0  0  0  0  0  0  0  0  0  0
  -27.8630  -28.6590   16.1770 N   0  0  0  0  0  0  0  0  0  0  0  0
  -28.5380  -28.4600   16.9060 H   0  0  0  0  0  0  0  0  0  0  0  0
  -30.9520  -23.8390   16.9890 C   0  0  0  0  0  0  0  0  0  0  0  0
  -32.0810  -23.4750   17.6660 C   0  0  0  0  0  0  0  0  0  0  0  0
  -33.0800  -24.4340   17.3050 C   0  0  0  0  0  0  0  0  0  0  0  0
  -31.2790  -24.9790   16.2720 N   0  0  0  0  0  0  0  0  0  0  0  0
  -32.5610  -25.3620   16.5100 N   0  0  0  0  0  0  0  0  0  0  0  0
  -34.5110  -24.4870   17.6220 C   0  0  0  0  0  0  0  0  0  0  0  0
  -35.1240  -25.6810   18.0630 C   0  0  0  0  0  3  0  0  0  0  0  0
  -36.4990  -25.7030   18.3810 C   0  0  0  0  0  3  0  0  0  0  0  0
  -37.2740  -24.5250   18.2620 C   0  0  0  0  0  0  0  0  0  0  0  0
  -36.6630  -23.3450   17.8010 C   0  0  0  0  0  3  0  0  0  0  0  0
  -35.2960  -23.3270   17.4810 C   0  0  0  0  0  3  0  0  0  0  0  0
  -38.6210  -24.4580   18.5200 O   0  0  0  0  0  0  0  0  0  0  0  0
  -39.2540  -25.3960   19.2980 C   0  0  0  0  0  0  0  0  0  0  0  0
  -38.8250  -25.6820   20.6130 C   0  0  0  0  0  3  0  0  0  0  0  0
  -39.5450  -26.6000   21.4030 C   0  0  0  0  0  3  0  0  0  0  0  0
  -40.6960  -27.2270   20.8830 C   0  0  0  0  0  0  0  0  0  0  0  0
  -41.1230  -26.9390   19.5750 C   0  0  0  0  0  3  0  0  0  0  0  0
  -40.4060  -26.0230   18.7870 C   0  0  0  0  0  0  0  0  0  0  0  0
  -40.8370  -25.7330   17.5350 F   0  0  0  0  0  0  0  0  0  0  0  0
  -41.3910  -28.1030   21.6420 F   0  0  0  0  0  0  0  0  0  0  0  0
  -32.2590  -22.2570   18.5260 C   0  0  0  0  0  0  0  0  0  0  0  0
  -33.0930  -22.3460   19.5540 N   0  0  0  0  0  0  0  0  0  0  0  0
  -31.6180  -21.2250   18.3130 O   0  0  0  0  0  0  0  0  0  0  0  0
  -33.6000  -23.1990   19.7400 H   0  0  0  0  0  0  0  0  0  0  0  0
  -33.2280  -21.5530   20.1640 H   0  0  0  0  0  0  0  0  0  0  0  0
  -29.6780  -23.2830   16.9060 N   0  0  0  0  0  0  0  0  0  0  0  0
  -29.4240  -22.4430   17.4110 H   0  0  0  0  0  0  0  0  0  0  0  0
  -28.9190  -23.6470   16.3420 H   0  0  0  0  0  0  0  0  0  0  0  0
  1  2  1  0
  4  3  1  0
  4  2  1  0
  5  6  1  0
  5  4  1  0
  6  8  2  0
  7 10  1  0
  7  6  1  0
  9  7  1  0
 11 12  1  0
 11 10  1  0
 12 14  1  0
 13 24  2  0
 14 19  2  0
 14 20  1  0
 15 25  1  0
 16 22  1  0
 17 23  1  0
 18 17  1  0
 18 16  2  0
 19 18  1  0
 20 21  2  0
 21 16  1  0
 22 15  1  0
 23 13  1  0
 23 15  1  0
 25 26  1  0
 26 28  1  0
 27 25  2  0
 29 38  1  0
 30 26  1  0
 30 34  1  0
 31 30  1  0
 31 32  1  0
 32 33  1  0
 33 29  1  0
 34 35  1  0
 34 29  2  0
 35 36  2  0
 36 37  1  0
 38 37  2  0
 39 40  1  0
 39 13  1  0
 40 43  1  0
 41 40  1  0
 41 45  1  0
 42 41  2  0
 45 44  1  0
 46 47  1  0
 47 48  1  0
 47 45  1  0
 49 39  1  0
 49 50  1  1
 51 49  1  0
 52 49  1  0
 53  1  1  0
 54 53  1  0
 55 57  1  0
 56 59  1  0
 56 58  2  0
 58 60  1  0
 59 55  2  0
 60 57  2  0
 60 54  1  0
 61 63  1  0
 61 59  1  0
 62 61  2  0
 64 65  1  0
 64 63  1  0
 66 74  1  0
 67 72  1  0
 68 67  1  0
 68 69  1  0
 70 69  1  0
 70 71  1  0
 70 79  1  0
 72 66  1  0
 72 71  1  0
 73 66  2  0
 74 65  1  0
 74 75  1  0
 76 77  2  0
 77 96  1  0
 78 81  1  0
 78 77  1  0
 79 80  1  0
 79 76  1  0
 80 78  2  0
 81 82  1  0
 82 83  2  0
 84 83  1  0
 84 87  1  0
 85 84  2  0
 86 81  2  0
 86 85  1  0
 87 88  1  0
 88 89  1  0
 89 90  2  0
 91 90  1  0
 91 95  1  0
 92 91  2  0
 93 88  2  0
 93 92  1  0
 94 93  1  0
 96 97  1  0
 97 99  1  0
 97100  1  0
 98 96  2  0
101 76  1  0
101102  1  0
103101  1  0
M  ISO  4  11 101  12 101  66 100  74 100
M  END
>  <TORSDO>  (71) 
F 29

>  <SCORE>  (71) 
8.545

>  <name>  (71) 
71

>  <ligand_id>  (71) 
71

>  <original_smiles>  (71) 
[H]c1c([H])c([H])c2c(c1[H])C([H])([H])C([H])([H])C([H])([H])C2([H])N([H])C(=O)C1([H])N(C(=O)C([H])(N([H])C(=O)C([H])(N([H])C([H])([H])[H])C([H])([H])[H])C(C([H])([H])[H])(C([H])([H])[H])C([H])([H])[H])C([H])([H])c2c([H])c(OC([H])([H])C([H])([H])N([H])C(=O)C([H])([H])C([H])(C([H])([H])[H])C([H])([H])C([H])([H])C([H])([H])C([H])([H])c3c([H])c([H])c(C(=O)C([H])([H])C([H])([H])C([H])([H])N([H])C(=O)N4C([H])([H])C([H])([H])C([H])([H])C([H])(n5nc(-c6c([H])c([H])c(Oc7c([H])c([H])c(F)c([H])c7F)c([H])c6[H])c(C(=O)N([H])[H])c5N([H])[H])C4([H])[H])c([H])c3[H])c([H])c([H])c2C1([H])[H]

>  <smiles>  (71) 
[H]c1c([H])c([H])c2c(c1[H])C([H])([H])C([H])([H])C([H])([H])C2([H])N([H])C(=O)C1([H])N(C(=O)C([H])(N([H])C(=O)C([H])(N([H])C([H])([H])[H])C([H])([H])[H])C(C([H])([H])[H])(C([H])([H])[H])C([H])([H])[H])C([H])([H])c2c([H])c(OC([H])([H])C([H])([H])N([H])C(=O)C([H])([H])C([H])(C([H])([H])[H])C([H])([H])C([H])([H])C([H])([H])C([H])([H])c3c([H])c([H])c(C(=O)C([H])([H])C([H])([H])C([H])([H])N([H])C(=O)N4C([H])([H])C([H])([H])C([H])([H])C([H])(n5nc(-c6c([H])c([H])c(Oc7c([H])c([H])c(F)c([H])c7F)c([H])c6[H])c(C(=O)N([H])[H])c5N([H])[H])C4([H])[H])c([H])c3[H])c([H])c([H])c2C1([H])[H]

$$$$
72:0:0
     RDKit          3D

 89 96  0  0  1  0  0  0  0  0999 V2000
  -30.6640  -24.8930   20.4390 C   0  0  0  0  0  2  0  0  0  0  0  0
  -29.9850  -25.6410   21.5900 C   0  0  0  0  0  0  0  0  0  0  0  0
  -30.0670  -25.2410   22.7560 O   0  0  0  0  0  0  0  0  0  0  0  0
  -29.2040  -26.9160   21.2540 C   0  0  0  0  0  2  0  0  0  0  0  0
  -28.3500  -26.7270   20.1180 O   0  0  0  0  0  0  0  0  0  0  0  0
  -24.5600  -31.8750   23.2300 C   0  0  0  0  0  0  0  0  0  0  0  0
  -27.2020  -27.4930   20.1160 C   0  0  0  0  0  0  0  0  0  0  0  0
  -23.3370  -30.4850   21.5850 C   0  0  0  0  0  3  0  0  0  0  0  0
  -24.7810  -28.9580   20.1370 C   0  0  0  0  0  0  0  0  0  0  0  0
  -25.8490  -30.8680   21.3560 C   0  0  0  0  0  2  0  0  0  0  0  0
  -25.9350  -29.5000   20.7180 C   0  0  0  0  0  0  0  0  0  0  0  0
  -27.1440  -28.7800   20.7030 C   0  0  0  0  0  3  0  0  0  0  0  0
  -26.0390  -26.9660   19.5170 C   0  0  0  0  0  3  0  0  0  0  0  0
  -24.8270  -27.6890   19.5300 C   0  0  0  0  0  3  0  0  0  0  0  0
  -23.5310  -29.8050   20.2000 C   0  0  0  0  0  2  0  0  0  0  0  0
  -24.6010  -31.0880   22.1180 N   0  0  0  0  0  0  0  0  0  0  0  0
  -23.4870  -32.1430   23.7870 O   0  0  0  0  0  0  0  0  0  0  0  0
  -22.6960  -29.4600   22.5470 C   0  0  0  0  0  0  0  0  0  0  0  0
  -21.3700  -29.2800   22.4310 N   0  0  0  0  0  0  0  0  0  0  0  0
  -23.3860  -28.8290   23.3520 O   0  0  0  0  0  0  0  0  0  0  0  0
  -20.8750  -29.8420   21.7540 H   0  0  0  0  0  0  0  0  0  0  0  0
  -18.0010  -28.0790   22.9370 C   0  0  0  0  0  0  0  0  0  0  0  0
  -20.5600  -28.3390   23.2050 C   0  0  0  0  0  3  0  0  0  0  0  0
  -20.6630  -26.9100   22.6260 C   0  0  0  0  0  2  0  0  0  0  0  0
  -19.5560  -26.5880   21.6140 C   0  0  0  0  0  2  0  0  0  0  0  0
  -18.1750  -26.7300   22.2620 C   0  0  0  0  0  2  0  0  0  0  0  0
  -19.1200  -28.8410   23.3670 C   0  0  0  0  0  0  0  0  0  0  0  0
  -18.9000  -30.1020   23.9590 C   0  0  0  0  0  3  0  0  0  0  0  0
  -17.5960  -30.6030   24.1280 C   0  0  0  0  0  3  0  0  0  0  0  0
  -16.4920  -29.8380   23.7140 C   0  0  0  0  0  3  0  0  0  0  0  0
  -16.6950  -28.5800   23.1230 C   0  0  0  0  0  3  0  0  0  0  0  0
  -25.8540  -32.5000   23.8410 C   0  0  0  0  0  3  0  0  0  0  0  0
  -26.3930  -31.7110   25.0960 C   0  0  1  0  0  0  0  0  0  0  0  0
  -25.3180  -31.4600   26.1780 C   0  0  0  0  0  1  0  0  0  0  0  0
  -26.9650  -30.3380   24.6700 C   0  0  0  0  0  1  0  0  0  0  0  0
  -27.5510  -32.4980   25.7510 C   0  0  0  0  0  1  0  0  0  0  0  0
  -25.5470  -33.8930   24.1910 N   0  0  0  0  0  0  0  0  0  0  0  0
  -25.8750  -34.9550   23.4440 C   0  0  0  0  0  0  0  0  0  0  0  0
  -26.5360  -34.8650   22.4050 O   0  0  0  0  0  0  0  0  0  0  0  0
  -24.9490  -34.0340   24.9940 H   0  0  0  0  0  0  0  0  0  0  0  0
  -24.1410  -36.7480   23.1300 C   0  0  0  0  0  1  0  0  0  0  0  0
  -25.3930  -36.3370   23.9210 C   0  0  0  0  0  3  0  0  0  0  0  0
  -27.5420  -37.2110   24.7270 C   0  0  0  0  0  1  0  0  0  0  0  0
  -26.4230  -37.3920   23.8050 N   0  0  0  0  0  0  0  0  0  0  0  0
  -26.0190  -38.3100   23.9720 H   0  0  0  0  0  0  0  0  0  0  0  0
  -31.6330  -23.7590   20.8600 C   0  0  0  0  0  2  0  0  0  0  0  0
  -30.9360  -22.4070   21.0980 C   0  0  0  0  0  2  0  0  0  0  0  0
  -31.9160  -21.2540   21.3800 C   0  0  0  0  0  2  0  0  0  0  0  0
  -31.1910  -19.9200   21.6230 C   0  0  0  0  0  2  0  0  0  0  0  0
  -32.1480  -18.7140   21.6510 C   0  0  0  0  0  2  0  0  0  0  0  0
  -31.4620  -17.3610   21.9230 C   0  0  0  0  0  2  0  0  0  0  0  0
  -30.4180  -16.9670   20.8630 C   0  0  0  0  0  2  0  0  0  0  0  0
  -29.8260  -15.5500   21.0550 C   0  0  0  0  0  2  0  0  0  0  0  0
  -30.4590  -14.4400   20.1900 C   0  0  0  0  0  0  0  0  0  0  0  0
  -30.1220  -12.3310   18.9470 C   0  0  0  0  0  2  0  0  0  0  0  0
  -29.1140  -12.5650   17.8050 C   0  0  0  0  0  2  0  0  0  0  0  0
  -27.6660  -12.4000   18.3090 C   0  0  0  0  0  2  0  0  0  0  0  0
  -27.3890  -13.2040   19.6070 C   0  0  0  0  0  3  0  0  0  0  0  0
  -28.4990  -12.9410   20.6520 C   0  0  0  0  0  2  0  0  0  0  0  0
  -29.7920  -13.2660   20.0310 N   0  0  0  0  0  0  0  0  0  0  0  0
  -31.5180  -14.6760   19.5980 O   0  0  0  0  0  0  0  0  0  0  0  0
  -25.0100  -13.7850   20.4090 C   0  0  0  0  0  0  0  0  0  0  0  0
  -23.9680  -12.9990   20.8250 C   0  0  0  0  0  0  0  0  0  0  0  0
  -24.4450  -11.6530   20.7750 C   0  0  0  0  0  0  0  0  0  0  0  0
  -26.0580  -12.9170   20.1400 N   0  0  0  0  0  0  0  0  0  0  0  0
  -25.7200  -11.6300   20.4120 N   0  0  0  0  0  0  0  0  0  0  0  0
  -23.7430  -10.3830   20.9990 C   0  0  0  0  0  0  0  0  0  0  0  0
  -24.2350   -9.4170   21.9040 C   0  0  0  0  0  3  0  0  0  0  0  0
  -23.5360   -8.2100   22.1130 C   0  0  0  0  0  3  0  0  0  0  0  0
  -22.3280   -7.9590   21.4190 C   0  0  0  0  0  0  0  0  0  0  0  0
  -21.8540   -8.9140   20.5020 C   0  0  0  0  0  3  0  0  0  0  0  0
  -22.5540  -10.1130   20.2910 C   0  0  0  0  0  3  0  0  0  0  0  0
  -21.5940   -6.8050   21.5410 O   0  0  0  0  0  0  0  0  0  0  0  0
  -21.6270   -6.0490   22.6850 C   0  0  0  0  0  0  0  0  0  0  0  0
  -21.2930   -6.5900   23.9450 C   0  0  0  0  0  3  0  0  0  0  0  0
  -21.2740   -5.7610   25.0850 C   0  0  0  0  0  3  0  0  0  0  0  0
  -21.5770   -4.3910   24.9660 C   0  0  0  0  0  0  0  0  0  0  0  0
  -21.9070   -3.8500   23.7100 C   0  0  0  0  0  3  0  0  0  0  0  0
  -21.9280   -4.6760   22.5740 C   0  0  0  0  0  0  0  0  0  0  0  0
  -22.2240   -4.1460   21.3620 F   0  0  0  0  0  0  0  0  0  0  0  0
  -21.5520   -3.5920   26.0580 F   0  0  0  0  0  0  0  0  0  0  0  0
  -22.5760  -13.4590   21.1600 C   0  0  0  0  0  0  0  0  0  0  0  0
  -21.8960  -12.7550   22.0570 N   0  0  0  0  0  0  0  0  0  0  0  0
  -22.1020  -14.4760   20.6570 O   0  0  0  0  0  0  0  0  0  0  0  0
  -22.2910  -11.9310   22.4860 H   0  0  0  0  0  0  0  0  0  0  0  0
  -20.9650  -13.0470   22.3210 H   0  0  0  0  0  0  0  0  0  0  0  0
  -25.1460  -15.1560   20.2220 N   0  0  0  0  0  0  0  0  0  0  0  0
  -24.3720  -15.7980   20.3630 H   0  0  0  0  0  0  0  0  0  0  0  0
  -25.9770  -15.6100   19.8590 H   0  0  0  0  0  0  0  0  0  0  0  0
  1 46  1  0
  1  2  1  0
  2  3  2  0
  4  2  1  0
  5  4  1  0
  6 17  2  0
  7  5  1  0
  7 12  1  0
  8 16  1  0
  8 18  1  0
  9 15  1  0
  9 11  1  0
 10 16  1  0
 11 10  1  0
 12 11  2  0
 13 14  1  0
 13  7  2  0
 14  9  2  0
 15  8  1  0
 16  6  1  0
 18 20  2  0
 19 18  1  0
 21 19  1  0
 22 31  2  0
 22 27  1  0
 23 19  1  0
 23 27  1  0
 24 23  1  0
 25 26  1  0
 25 24  1  0
 26 22  1  0
 27 28  2  0
 28 29  1  0
 30 29  2  0
 31 30  1  0
 32  6  1  0
 32 37  1  0
 32 33  1  0
 33 36  1  1
 33 34  1  0
 35 33  1  0
 37 40  1  0
 38 42  1  0
 38 37  1  0
 39 38  2  0
 42 41  1  0
 44 42  1  0
 44 45  1  0
 44 43  1  0
 46 47  1  0
 47 48  1  0
 48 49  1  0
 49 50  1  0
 50 51  1  0
 52 53  1  0
 52 51  1  0
 54 53  1  0
 55 60  1  0
 56 57  1  0
 56 55  1  0
 58 57  1  0
 58 65  1  0
 58 59  1  0
 60 54  1  0
 60 59  1  0
 61 54  2  0
 62 63  2  0
 63 82  1  0
 64 63  1  0
 64 67  1  0
 65 62  1  0
 65 66  1  0
 66 64  2  0
 67 68  1  0
 68 69  2  0
 70 73  1  0
 70 69  1  0
 71 70  2  0
 72 71  1  0
 72 67  2  0
 73 74  1  0
 74 75  1  0
 75 76  2  0
 77 76  1  0
 77 81  1  0
 78 77  2  0
 79 74  2  0
 79 78  1  0
 80 79  1  0
 82 83  1  0
 83 86  1  0
 83 85  1  0
 84 82  2  0
 87 88  1  0
 87 62  1  0
 89 87  1  0
M  ISO  4   4 101   5 101  53 100  54 100
M  END
>  <TORSDO>  (72) 
F 26

>  <SCORE>  (72) 
-11.229

>  <name>  (72) 
72

>  <ligand_id>  (72) 
72

>  <original_smiles>  (72) 
[H]c1c([H])c([H])c2c(c1[H])C([H])([H])C([H])([H])C([H])([H])C2([H])N([H])C(=O)C1([H])N(C(=O)C([H])(N([H])C(=O)C([H])(N([H])C([H])([H])[H])C([H])([H])[H])C(C([H])([H])[H])(C([H])([H])[H])C([H])([H])[H])C([H])([H])c2c([H])c(OC([H])([H])C(=O)C([H])([H])C([H])([H])C([H])([H])C([H])([H])C([H])([H])C([H])([H])C([H])([H])C([H])([H])C([H])([H])C(=O)N3C([H])([H])C([H])([H])C([H])([H])C([H])(n4nc(-c5c([H])c([H])c(Oc6c([H])c([H])c(F)c([H])c6F)c([H])c5[H])c(C(=O)N([H])[H])c4N([H])[H])C3([H])[H])c([H])c([H])c2C1([H])[H]

>  <smiles>  (72) 
[H]c1c([H])c([H])c2c(c1[H])C([H])([H])C([H])([H])C([H])([H])C2([H])N([H])C(=O)C1([H])N(C(=O)C([H])(N([H])C(=O)C([H])(N([H])C([H])([H])[H])C([H])([H])[H])C(C([H])([H])[H])(C([H])([H])[H])C([H])([H])[H])C([H])([H])c2c([H])c(OC([H])([H])C(=O)C([H])([H])C([H])([H])C([H])([H])C([H])([H])C([H])([H])C([H])([H])C([H])([H])C([H])([H])C([H])([H])C(=O)N3C([H])([H])C([H])([H])C([H])([H])C([H])(n4nc(-c5c([H])c([H])c(Oc6c([H])c([H])c(F)c([H])c6F)c([H])c5[H])c(C(=O)N([H])[H])c4N([H])[H])C3([H])[H])c([H])c([H])c2C1([H])[H]

$$$$
73:0:0
     RDKit          3D

 93102  0  0  1  0  0  0  0  0999 V2000
  -29.7960  -22.7790   19.9720 C   0  0  0  0  0  2  0  0  0  0  0  0
  -29.7960  -22.8720   22.4720 C   0  0  0  0  0  2  0  0  0  0  0  0
  -30.0200  -24.3080   19.9070 C   0  0  0  0  0  2  0  0  0  0  0  0
  -30.0620  -24.3900   22.4030 C   0  0  0  0  0  2  0  0  0  0  0  0
  -28.0720  -23.8810   21.1920 C   0  0  0  0  0  2  0  0  0  0  0  0
  -28.9180  -22.6080   21.2300 C   0  0  1  0  0  0  0  0  0  0  0  0
  -29.2690  -24.8320   21.1540 C   0  0  2  0  0  0  0  0  0  0  0  0
  -28.0950  -21.2990   21.2780 C   0  0  0  0  0  2  0  0  0  0  0  0
  -29.0400  -19.0370   20.7460 C   0  0  0  0  0  0  0  0  0  0  0  0
  -28.9220  -20.1180   21.5310 N   0  0  0  0  0  0  0  0  0  0  0  0
  -28.5670  -18.9780   19.6080 O   0  0  0  0  0  0  0  0  0  0  0  0
  -29.3680  -20.0710   22.4380 H   0  0  0  0  0  0  0  0  0  0  0  0
  -29.7700  -17.8370   21.3670 C   0  0  0  0  0  2  0  0  0  0  0  0
  -30.1210  -16.6950   20.3860 C   0  0  0  0  0  2  0  0  0  0  0  0
  -30.7250  -15.4690   21.1150 C   0  0  0  0  0  2  0  0  0  0  0  0
  -31.1400  -14.3330   20.1590 C   0  0  0  0  0  0  0  0  0  0  0  0
  -30.7170  -12.1980   18.9880 C   0  0  0  0  0  2  0  0  0  0  0  0
  -29.7600  -12.4130   17.7990 C   0  0  0  0  0  2  0  0  0  0  0  0
  -28.2930  -12.3290   18.2570 C   0  0  0  0  0  2  0  0  0  0  0  0
  -28.0040  -13.1910   19.5160 C   0  0  0  0  0  3  0  0  0  0  0  0
  -29.0710  -12.9430   20.6030 C   0  0  0  0  0  2  0  0  0  0  0  0
  -30.3980  -13.2000   20.0180 N   0  0  0  0  0  0  0  0  0  0  0  0
  -32.1830  -14.5120   19.5230 O   0  0  0  0  0  0  0  0  0  0  0  0
  -25.6380  -13.8790   20.2660 C   0  0  0  0  0  0  0  0  0  0  0  0
  -24.5540  -13.1410   20.6620 C   0  0  0  0  0  0  0  0  0  0  0  0
  -24.9730  -11.7750   20.6240 C   0  0  0  0  0  0  0  0  0  0  0  0
  -26.6520  -12.9650   20.0200 N   0  0  0  0  0  0  0  0  0  0  0  0
  -26.2550  -11.6960   20.2900 N   0  0  0  0  0  0  0  0  0  0  0  0
  -24.2160  -10.5380   20.8360 C   0  0  0  0  0  0  0  0  0  0  0  0
  -24.5950   -9.5960   21.8190 C   0  0  0  0  0  3  0  0  0  0  0  0
  -23.8350   -8.4240   22.0190 C   0  0  0  0  0  3  0  0  0  0  0  0
  -22.6810   -8.1840   21.2340 C   0  0  0  0  0  0  0  0  0  0  0  0
  -22.3260   -9.1100   20.2380 C   0  0  0  0  0  3  0  0  0  0  0  0
  -23.0850  -10.2750   20.0390 C   0  0  0  0  0  3  0  0  0  0  0  0
  -21.8980   -7.0590   21.3390 O   0  0  0  0  0  0  0  0  0  0  0  0
  -21.7420   -6.3980   22.5290 C   0  0  0  0  0  0  0  0  0  0  0  0
  -21.2330   -7.0430   23.6760 C   0  0  0  0  0  3  0  0  0  0  0  0
  -21.0220   -6.3110   24.8610 C   0  0  0  0  0  3  0  0  0  0  0  0
  -21.3070   -4.9320   24.8980 C   0  0  0  0  0  0  0  0  0  0  0  0
  -21.8110   -4.2870   23.7550 C   0  0  0  0  0  3  0  0  0  0  0  0
  -22.0260   -5.0170   22.5720 C   0  0  0  0  0  0  0  0  0  0  0  0
  -22.4930   -4.3850   21.4670 F   0  0  0  0  0  0  0  0  0  0  0  0
  -21.0970   -4.2260   26.0340 F   0  0  0  0  0  0  0  0  0  0  0  0
  -23.1790  -13.6600   20.9580 C   0  0  0  0  0  0  0  0  0  0  0  0
  -22.4500  -12.9890   21.8440 N   0  0  0  0  0  0  0  0  0  0  0  0
  -22.7570  -14.6940   20.4420 O   0  0  0  0  0  0  0  0  0  0  0  0
  -22.7990  -12.1460   22.2760 H   0  0  0  0  0  0  0  0  0  0  0  0
  -21.5220  -13.3100   22.0760 H   0  0  0  0  0  0  0  0  0  0  0  0
  -25.8410  -15.2420   20.0740 N   0  0  0  0  0  0  0  0  0  0  0  0
  -25.0940  -15.9210   20.1700 H   0  0  0  0  0  0  0  0  0  0  0  0
  -26.6800  -15.6400   19.6700 H   0  0  0  0  0  0  0  0  0  0  0  0
  -28.9180  -26.3410   21.1560 C   0  0  0  0  0  2  0  0  0  0  0  0
  -28.1730  -26.6440   19.9860 O   0  0  0  0  0  0  0  0  0  0  0  0
  -24.5030  -31.9020   23.2130 C   0  0  0  0  0  0  0  0  0  0  0  0
  -27.0430  -27.4110   20.1190 C   0  0  0  0  0  0  0  0  0  0  0  0
  -23.2570  -30.5090   21.5920 C   0  0  0  0  0  3  0  0  0  0  0  0
  -24.6700  -28.9370   20.1650 C   0  0  0  0  0  0  0  0  0  0  0  0
  -25.7860  -30.8220   21.3710 C   0  0  0  0  0  2  0  0  0  0  0  0
  -25.8410  -29.4440   20.7450 C   0  0  0  0  0  0  0  0  0  0  0  0
  -27.0310  -28.6840   20.7360 C   0  0  0  0  0  3  0  0  0  0  0  0
  -25.8610  -26.9140   19.5380 C   0  0  0  0  0  3  0  0  0  0  0  0
  -24.6720  -27.6640   19.5690 C   0  0  0  0  0  3  0  0  0  0  0  0
  -23.4410  -29.8150   20.2160 C   0  0  0  0  0  2  0  0  0  0  0  0
  -24.5330  -31.0960   22.1150 N   0  0  0  0  0  0  0  0  0  0  0  0
  -23.4330  -32.1970   23.7610 O   0  0  0  0  0  0  0  0  0  0  0  0
  -22.5980  -29.5070   22.5650 C   0  0  0  0  0  0  0  0  0  0  0  0
  -21.2700  -29.3450   22.4480 N   0  0  0  0  0  0  0  0  0  0  0  0
  -23.2770  -28.8730   23.3770 O   0  0  0  0  0  0  0  0  0  0  0  0
  -20.7820  -29.9070   21.7650 H   0  0  0  0  0  0  0  0  0  0  0  0
  -17.8800  -28.2170   22.9850 C   0  0  0  0  0  0  0  0  0  0  0  0
  -20.4450  -28.4260   23.2310 C   0  0  0  0  0  3  0  0  0  0  0  0
  -20.5160  -26.9910   22.6610 C   0  0  0  0  0  2  0  0  0  0  0  0
  -19.4000  -26.6840   21.6590 C   0  0  0  0  0  2  0  0  0  0  0  0
  -18.0250  -26.8610   22.3150 C   0  0  0  0  0  2  0  0  0  0  0  0
  -19.0180  -28.9590   23.4000 C   0  0  0  0  0  0  0  0  0  0  0  0
  -18.8280  -30.2300   23.9820 C   0  0  0  0  0  3  0  0  0  0  0  0
  -17.5340  -30.7580   24.1550 C   0  0  0  0  0  3  0  0  0  0  0  0
  -16.4120  -30.0100   23.7600 C   0  0  0  0  0  3  0  0  0  0  0  0
  -16.5870  -28.7420   23.1770 C   0  0  0  0  0  3  0  0  0  0  0  0
  -25.8070  -32.5130   23.8160 C   0  0  0  0  0  3  0  0  0  0  0  0
  -25.5240  -33.9130   24.1570 N   0  0  0  0  0  0  0  0  0  0  0  0
  -25.8710  -34.9630   23.4010 C   0  0  0  0  0  0  0  0  0  0  0  0
  -26.5350  -34.8550   22.3660 O   0  0  0  0  0  0  0  0  0  0  0  0
  -24.9360  -34.0730   24.9620 H   0  0  0  0  0  0  0  0  0  0  0  0
  -24.1740  -36.7870   23.0610 C   0  0  0  0  0  1  0  0  0  0  0  0
  -25.4070  -36.3550   23.8700 C   0  0  0  0  0  3  0  0  0  0  0  0
  -27.5570  -37.1940   24.7090 C   0  0  0  0  0  1  0  0  0  0  0  0
  -26.4570  -37.3920   23.7670 N   0  0  0  0  0  0  0  0  0  0  0  0
  -26.0670  -38.3180   23.9220 H   0  0  0  0  0  0  0  0  0  0  0  0
  -26.3380  -31.7260   25.0760 C   0  0  1  0  0  0  0  0  0  0  0  0
  -25.2600  -31.4870   26.1590 C   0  0  0  0  0  1  0  0  0  0  0  0
  -26.9040  -30.3480   24.6610 C   0  0  0  0  0  1  0  0  0  0  0  0
  -27.5050  -32.5070   25.7250 C   0  0  0  0  0  1  0  0  0  0  0  0
  1  6  1  0
  3  1  1  0
  3  7  1  0
  4  2  1  0
  5  6  1  0
  6  8  1  1
  6  2  1  0
  7 52  1  6
  7  5  1  0
  7  4  1  0
  8 10  1  0
  9 13  1  0
  9 10  1  0
 10 12  1  0
 11  9  2  0
 14 15  1  0
 14 13  1  0
 16 15  1  0
 17 22  1  0
 18 19  1  0
 18 17  1  0
 20 19  1  0
 20 27  1  0
 20 21  1  0
 22 16  1  0
 22 21  1  0
 23 16  2  0
 24 25  2  0
 25 44  1  0
 26 25  1  0
 26 29  1  0
 27 24  1  0
 27 28  1  0
 28 26  2  0
 29 30  1  0
 30 31  2  0
 32 35  1  0
 32 31  1  0
 33 32  2  0
 34 33  1  0
 34 29  2  0
 35 36  1  0
 36 41  2  0
 36 37  1  0
 37 38  2  0
 38 39  1  0
 39 43  1  0
 40 39  2  0
 41 40  1  0
 42 41  1  0
 44 45  1  0
 45 48  1  0
 45 47  1  0
 46 44  2  0
 49 50  1  0
 49 24  1  0
 51 49  1  0
 53 55  1  0
 53 52  1  0
 54 65  2  0
 55 60  1  0
 56 64  1  0
 56 66  1  0
 57 63  1  0
 57 59  1  0
 58 64  1  0
 59 58  1  0
 60 59  2  0
 61 62  1  0
 61 55  2  0
 62 57  2  0
 63 56  1  0
 64 54  1  0
 66 68  2  0
 67 66  1  0
 69 67  1  0
 70 79  2  0
 70 75  1  0
 71 67  1  0
 71 75  1  0
 72 71  1  0
 73 74  1  0
 73 72  1  0
 74 70  1  0
 75 76  2  0
 76 77  1  0
 78 77  2  0
 79 78  1  0
 80 54  1  0
 80 81  1  0
 80 90  1  0
 81 84  1  0
 82 86  1  0
 82 81  1  0
 83 82  2  0
 86 85  1  0
 88 86  1  0
 88 89  1  0
 88 87  1  0
 90 93  1  1
 90 91  1  0
 92 90  1  0
M  ISO  4  15 100  16 100  52 101  53 101
M  END
>  <TORSDO>  (73) 
F 22

>  <SCORE>  (73) 
-12.613

>  <name>  (73) 
73

>  <ligand_id>  (73) 
73

>  <original_smiles>  (73) 
[H]c1c([H])c([H])c2c(c1[H])C([H])([H])C([H])([H])C([H])([H])C2([H])N([H])C(=O)C1([H])N(C(=O)C([H])(N([H])C(=O)C([H])(N([H])C([H])([H])[H])C([H])([H])[H])C(C([H])([H])[H])(C([H])([H])[H])C([H])([H])[H])C([H])([H])c2c([H])c(OC([H])([H])C34C([H])([H])C([H])([H])C(C([H])([H])N([H])C(=O)C([H])([H])C([H])([H])C([H])([H])C(=O)N5C([H])([H])C([H])([H])C([H])([H])C([H])(n6nc(-c7c([H])c([H])c(Oc8c([H])c([H])c(F)c([H])c8F)c([H])c7[H])c(C(=O)N([H])[H])c6N([H])[H])C5([H])[H])(C([H])([H])C3([H])[H])C4([H])[H])c([H])c([H])c2C1([H])[H]

>  <smiles>  (73) 
[H]c1c([H])c([H])c2c(c1[H])C([H])([H])C([H])([H])C([H])([H])C2([H])N([H])C(=O)C1([H])N(C(=O)C([H])(N([H])C(=O)C([H])(N([H])C([H])([H])[H])C([H])([H])[H])C(C([H])([H])[H])(C([H])([H])[H])C([H])([H])[H])C([H])([H])c2c([H])c(OC([H])([H])C34C([H])([H])C([H])([H])C(C([H])([H])N([H])C(=O)C([H])([H])C([H])([H])C([H])([H])C(=O)N5C([H])([H])C([H])([H])C([H])([H])C([H])(n6nc(-c7c([H])c([H])c(Oc8c([H])c([H])c(F)c([H])c8F)c([H])c7[H])c(C(=O)N([H])[H])c6N([H])[H])C5([H])[H])(C([H])([H])C3([H])[H])C4([H])[H])c([H])c([H])c2C1([H])[H]

$$$$
74:0:0
     RDKit          3D

 91100  0  0  1  0  0  0  0  0999 V2000
  -29.0880  -20.4570   21.6960 C   0  0  0  0  0  3  0  0  0  0  0  0
  -29.4880  -19.0970   21.5170 C   0  0  0  0  0  3  0  0  0  0  0  0
  -29.5830  -20.9770   19.3880 C   0  0  0  0  0  3  0  0  0  0  0  0
  -29.1360  -21.4380   20.6560 C   0  0  0  0  0  0  0  0  0  0  0  0
  -29.9510  -18.6700   20.2550 C   0  0  0  0  0  0  0  0  0  0  0  0
  -29.9740  -19.6150   19.2200 C   0  0  0  0  0  0  0  0  0  0  0  0
  -30.5230  -19.0040   17.9580 C   0  0  0  0  0  2  0  0  0  0  0  0
  -30.6910  -17.5000   18.2900 C   0  0  0  0  0  2  0  0  0  0  0  0
  -30.6280  -17.3340   19.8330 C   0  0  0  0  0  3  0  0  0  0  0  0
  -30.8350  -14.8160   19.9950 C   0  0  0  0  0  0  0  0  0  0  0  0
  -30.4860  -12.6140   18.9210 C   0  0  0  0  0  2  0  0  0  0  0  0
  -29.4790  -12.7830   17.7640 C   0  0  0  0  0  2  0  0  0  0  0  0
  -28.0360  -12.6200   18.2810 C   0  0  0  0  0  2  0  0  0  0  0  0
  -27.7580  -13.4560   19.5600 C   0  0  0  0  0  3  0  0  0  0  0  0
  -28.8860  -13.3060   20.6050 C   0  0  0  0  0  2  0  0  0  0  0  0
  -30.1530  -13.6290   19.9410 N   0  0  0  0  0  0  0  0  0  0  0  0
  -31.9970  -14.8890   19.5940 O   0  0  0  0  0  0  0  0  0  0  0  0
  -30.1310  -15.9700   20.2370 N   0  0  0  0  0  0  0  0  0  0  0  0
  -29.1720  -15.8870   20.5350 H   0  0  0  0  0  0  0  0  0  0  0  0
  -25.4210  -14.0240   20.4570 C   0  0  0  0  0  0  0  0  0  0  0  0
  -24.3790  -13.2380   20.8680 C   0  0  0  0  0  0  0  0  0  0  0  0
  -24.8380  -11.8890   20.7650 C   0  0  0  0  0  0  0  0  0  0  0  0
  -26.4460  -13.1540   20.1250 N   0  0  0  0  0  0  0  0  0  0  0  0
  -26.1060  -11.8630   20.3730 N   0  0  0  0  0  0  0  0  0  0  0  0
  -24.1220  -10.6200   20.9590 C   0  0  0  0  0  0  0  0  0  0  0  0
  -24.5670   -9.6560   21.8910 C   0  0  0  0  0  3  0  0  0  0  0  0
  -23.8520   -8.4540   22.0740 C   0  0  0  0  0  3  0  0  0  0  0  0
  -22.6770   -8.2050   21.3260 C   0  0  0  0  0  0  0  0  0  0  0  0
  -22.2500   -9.1580   20.3840 C   0  0  0  0  0  3  0  0  0  0  0  0
  -22.9670  -10.3530   20.1980 C   0  0  0  0  0  3  0  0  0  0  0  0
  -21.9310   -7.0550   21.4180 O   0  0  0  0  0  0  0  0  0  0  0  0
  -21.8370   -6.3510   22.5920 C   0  0  0  0  0  0  0  0  0  0  0  0
  -21.3150   -6.9300   23.7700 C   0  0  0  0  0  3  0  0  0  0  0  0
  -21.1720   -6.1500   24.9340 C   0  0  0  0  0  3  0  0  0  0  0  0
  -21.5400   -4.7920   24.9230 C   0  0  0  0  0  0  0  0  0  0  0  0
  -22.0560   -4.2120   23.7500 C   0  0  0  0  0  3  0  0  0  0  0  0
  -22.2010   -4.9890   22.5870 C   0  0  0  0  0  0  0  0  0  0  0  0
  -22.6780   -4.4200   21.4540 F   0  0  0  0  0  0  0  0  0  0  0  0
  -21.3970   -4.0390   26.0380 F   0  0  0  0  0  0  0  0  0  0  0  0
  -23.0020  -13.7050   21.2430 C   0  0  0  0  0  0  0  0  0  0  0  0
  -22.3280  -12.9790   22.1270 N   0  0  0  0  0  0  0  0  0  0  0  0
  -22.5360  -14.7480   20.7860 O   0  0  0  0  0  0  0  0  0  0  0  0
  -22.7190  -12.1340   22.5180 H   0  0  0  0  0  0  0  0  0  0  0  0
  -21.4060  -13.2730   22.4190 H   0  0  0  0  0  0  0  0  0  0  0  0
  -25.5740  -15.4000   20.3120 N   0  0  0  0  0  0  0  0  0  0  0  0
  -24.8150  -16.0480   20.4920 H   0  0  0  0  0  0  0  0  0  0  0  0
  -26.3940  -15.8510   19.9300 H   0  0  0  0  0  0  0  0  0  0  0  0
  -28.7380  -22.8690   20.9800 C   0  0  0  0  0  3  0  0  0  0  0  0
  -28.7570  -24.0500   20.2830 C   0  0  0  0  0  3  0  0  0  0  0  0
  -28.2510  -25.3990   20.8910 C   0  0  0  0  0  2  0  0  0  0  0  0
  -28.4490  -26.6620   20.1580 O   0  0  0  0  0  0  0  0  0  0  0  0
  -24.6530  -31.9500   23.2510 C   0  0  0  0  0  0  0  0  0  0  0  0
  -27.3350  -27.5030   20.1360 C   0  0  0  0  0  0  0  0  0  0  0  0
  -23.4680  -30.5540   21.5920 C   0  0  0  0  0  3  0  0  0  0  0  0
  -24.9430  -29.0490   20.1430 C   0  0  0  0  0  0  0  0  0  0  0  0
  -25.9980  -30.9260   21.4060 C   0  0  0  0  0  2  0  0  0  0  0  0
  -26.1020  -29.5590   20.7440 C   0  0  0  0  0  0  0  0  0  0  0  0
  -27.3060  -28.7980   20.7300 C   0  0  0  0  0  3  0  0  0  0  0  0
  -26.1590  -27.0360   19.5120 C   0  0  0  0  0  3  0  0  0  0  0  0
  -24.9720  -27.7910   19.5180 C   0  0  0  0  0  3  0  0  0  0  0  0
  -23.6900  -29.8980   20.2030 C   0  0  0  0  0  2  0  0  0  0  0  0
  -24.7240  -31.1590   22.1410 N   0  0  0  0  0  0  0  0  0  0  0  0
  -23.5670  -32.2020   23.7920 O   0  0  0  0  0  0  0  0  0  0  0  0
  -22.8240  -29.5150   22.5390 C   0  0  0  0  0  0  0  0  0  0  0  0
  -21.5000  -29.3210   22.4140 N   0  0  0  0  0  0  0  0  0  0  0  0
  -23.5140  -28.8850   23.3460 O   0  0  0  0  0  0  0  0  0  0  0  0
  -21.0030  -29.8830   21.7360 H   0  0  0  0  0  0  0  0  0  0  0  0
  -18.1350  -28.0940   22.9200 C   0  0  0  0  0  0  0  0  0  0  0  0
  -20.6950  -28.3630   23.1720 C   0  0  0  0  0  3  0  0  0  0  0  0
  -20.8000  -26.9450   22.5660 C   0  0  0  0  0  2  0  0  0  0  0  0
  -19.6900  -26.6370   21.5550 C   0  0  0  0  0  2  0  0  0  0  0  0
  -18.3140  -26.7600   22.2150 C   0  0  0  0  0  2  0  0  0  0  0  0
  -19.2530  -28.8540   23.3550 C   0  0  0  0  0  0  0  0  0  0  0  0
  -19.0330  -30.1030   23.9730 C   0  0  0  0  0  3  0  0  0  0  0  0
  -17.7270  -30.5930   24.1620 C   0  0  0  0  0  3  0  0  0  0  0  0
  -16.6230  -29.8300   23.7430 C   0  0  0  0  0  3  0  0  0  0  0  0
  -16.8290  -28.5830   23.1280 C   0  0  0  0  0  3  0  0  0  0  0  0
  -25.9270  -32.5920   23.8810 C   0  0  0  0  0  3  0  0  0  0  0  0
  -25.6100  -33.9920   24.1960 N   0  0  0  0  0  0  0  0  0  0  0  0
  -25.9510  -35.0400   23.4330 C   0  0  0  0  0  0  0  0  0  0  0  0
  -26.6370  -34.9290   22.4130 O   0  0  0  0  0  0  0  0  0  0  0  0
  -25.0030  -34.1520   24.9870 H   0  0  0  0  0  0  0  0  0  0  0  0
  -24.2390  -36.8350   23.0230 C   0  0  0  0  0  1  0  0  0  0  0  0
  -25.4550  -36.4310   23.8710 C   0  0  0  0  0  3  0  0  0  0  0  0
  -27.5630  -37.3180   24.7640 C   0  0  0  0  0  1  0  0  0  0  0  0
  -26.4930  -37.4810   23.7840 N   0  0  0  0  0  0  0  0  0  0  0  0
  -26.0850  -38.4020   23.9110 H   0  0  0  0  0  0  0  0  0  0  0  0
  -26.4320  -31.8340   25.1700 C   0  0  1  0  0  0  0  0  0  0  0  0
  -25.3270  -31.5930   26.2240 C   0  0  0  0  0  1  0  0  0  0  0  0
  -27.0330  -30.4590   24.7940 C   0  0  0  0  0  1  0  0  0  0  0  0
  -27.5670  -32.6430   25.8420 C   0  0  0  0  0  1  0  0  0  0  0  0
  2  1  1  0
  3  4  1  0
  4 48  1  0
  4  1  2  0
  5  2  2  0
  6  3  2  0
  6  5  1  0
  7  8  1  0
  7  6  1  0
  8  9  1  0
  9 18  1  0
  9  5  1  0
 10 18  1  0
 11 16  1  0
 12 13  1  0
 12 11  1  0
 14 13  1  0
 14 23  1  0
 14 15  1  0
 16 10  1  0
 16 15  1  0
 17 10  2  0
 18 19  1  0
 20 21  2  0
 21 40  1  0
 22 21  1  0
 22 25  1  0
 23 24  1  0
 23 20  1  0
 24 22  2  0
 25 26  1  0
 26 27  2  0
 28 31  1  0
 28 27  1  0
 29 28  2  0
 30 29  1  0
 30 25  2  0
 31 32  1  0
 32 33  1  0
 33 34  2  0
 35 34  1  0
 35 39  1  0
 36 35  2  0
 37 32  2  0
 37 36  1  0
 38 37  1  0
 40 41  1  0
 41 44  1  0
 41 43  1  0
 42 40  2  0
 45 20  1  0
 45 46  1  0
 47 45  1  0
 49 50  1  0
 49 48  2  0
 51 50  1  0
 52 63  2  0
 53 51  1  0
 53 58  1  0
 54 62  1  0
 54 64  1  0
 55 61  1  0
 55 57  1  0
 56 62  1  0
 57 56  1  0
 58 57  2  0
 59 60  1  0
 59 53  2  0
 60 55  2  0
 61 54  1  0
 62 52  1  0
 64 66  2  0
 65 64  1  0
 67 65  1  0
 68 77  2  0
 68 73  1  0
 69 65  1  0
 69 73  1  0
 70 69  1  0
 71 72  1  0
 71 70  1  0
 72 68  1  0
 73 74  2  0
 74 75  1  0
 76 75  2  0
 77 76  1  0
 78 52  1  0
 78 79  1  0
 78 88  1  0
 79 82  1  0
 80 84  1  0
 80 79  1  0
 81 80  2  0
 84 83  1  0
 86 84  1  0
 86 87  1  0
 86 85  1  0
 88 91  1  1
 88 89  1  0
 90 88  1  0
M  ISO  4  10 100  18 100  50 101  51 101
M  END
>  <TORSDO>  (74) 
F 18

>  <SCORE>  (74) 
-13.493

>  <name>  (74) 
74

>  <ligand_id>  (74) 
74

>  <original_smiles>  (74) 
[H]C(=C([H])C([H])([H])Oc1c([H])c([H])c2c(c1[H])C([H])([H])N(C(=O)C([H])(N([H])C(=O)C([H])(N([H])C([H])([H])[H])C([H])([H])[H])C(C([H])([H])[H])(C([H])([H])[H])C([H])([H])[H])C([H])(C(=O)N([H])C1([H])c3c([H])c([H])c([H])c([H])c3C([H])([H])C([H])([H])C1([H])[H])C2([H])[H])c1c([H])c([H])c2c(c1[H])C([H])([H])C([H])([H])C2([H])N([H])C(=O)N1C([H])([H])C([H])([H])C([H])([H])C([H])(n2nc(-c3c([H])c([H])c(Oc4c([H])c([H])c(F)c([H])c4F)c([H])c3[H])c(C(=O)N([H])[H])c2N([H])[H])C1([H])[H]

>  <smiles>  (74) 
[H]C(=C([H])C([H])([H])Oc1c([H])c([H])c2c(c1[H])C([H])([H])N(C(=O)C([H])(N([H])C(=O)C([H])(N([H])C([H])([H])[H])C([H])([H])[H])C(C([H])([H])[H])(C([H])([H])[H])C([H])([H])[H])C([H])(C(=O)N([H])C1([H])c3c([H])c([H])c([H])c([H])c3C([H])([H])C([H])([H])C1([H])[H])C2([H])[H])c1c([H])c([H])c2c(c1[H])C([H])([H])C([H])([H])C2([H])N([H])C(=O)N1C([H])([H])C([H])([H])C([H])([H])C([H])(n2nc(-c3c([H])c([H])c(Oc4c([H])c([H])c(F)c([H])c4F)c([H])c3[H])c(C(=O)N([H])[H])c2N([H])[H])C1([H])[H]

$$$$
75:0:0
     RDKit          3D

 94102  0  0  1  0  0  0  0  0999 V2000
  -28.1750  -21.5780   22.1850 C   0  0  0  0  0  3  0  0  0  0  0  0
  -28.2990  -22.9350   22.5380 C   0  0  0  0  0  3  0  0  0  0  0  0
  -29.4410  -22.0020   20.1380 C   0  0  0  0  0  3  0  0  0  0  0  0
  -28.7910  -21.0990   21.0090 C   0  0  0  0  0  0  0  0  0  0  0  0
  -29.0010  -23.8210   21.6960 C   0  0  0  0  0  0  0  0  0  0  0  0
  -29.5360  -23.3600   20.4760 C   0  0  0  0  0  0  0  0  0  0  0  0
  -30.1590  -24.2160   19.6310 F   0  0  0  0  0  0  0  0  0  0  0  0
  -28.7560  -19.6620   20.6880 C   0  0  0  0  0  0  0  0  0  0  0  0
  -27.7300  -18.9770   20.7100 O   0  0  0  0  0  0  0  0  0  0  0  0
  -30.1260  -19.0440   20.4160 C   0  0  0  0  0  2  0  0  0  0  0  0
  -30.2020  -17.5420   20.7020 C   0  0  0  0  0  2  0  0  0  0  0  0
  -31.6090  -16.9930   20.4380 C   0  0  0  0  0  2  0  0  0  0  0  0
  -32.0620  -14.6360   19.8920 C   0  0  0  0  0  0  0  0  0  0  0  0
  -31.6330  -12.3790   19.0130 C   0  0  0  0  0  2  0  0  0  0  0  0
  -30.6660  -12.4470   17.8170 C   0  0  0  0  0  2  0  0  0  0  0  0
  -29.1940  -12.4560   18.2820 C   0  0  0  0  0  2  0  0  0  0  0  0
  -28.9300  -13.4970   19.4010 C   0  0  0  0  0  3  0  0  0  0  0  0
  -29.9890  -13.3550   20.5160 C   0  0  0  0  0  2  0  0  0  0  0  0
  -31.3340  -13.4930   19.9160 N   0  0  0  0  0  0  0  0  0  0  0  0
  -33.0430  -14.8230   19.1630 O   0  0  0  0  0  0  0  0  0  0  0  0
  -31.5950  -15.5710   20.7150 N   0  0  0  0  0  0  0  0  0  0  0  0
  -30.8870  -15.2480   21.3570 H   0  0  0  0  0  0  0  0  0  0  0  0
  -26.6470  -14.3790   20.2180 C   0  0  0  0  0  0  0  0  0  0  0  0
  -25.5110  -13.7290   20.6220 C   0  0  0  0  0  0  0  0  0  0  0  0
  -25.8040  -12.3340   20.5440 C   0  0  0  0  0  0  0  0  0  0  0  0
  -27.5710  -13.3840   19.9270 N   0  0  0  0  0  0  0  0  0  0  0  0
  -27.0650  -12.1490   20.1740 N   0  0  0  0  0  0  0  0  0  0  0  0
  -24.9440  -11.1610   20.7440 C   0  0  0  0  0  0  0  0  0  0  0  0
  -25.2620  -10.1660   21.6970 C   0  0  0  0  0  3  0  0  0  0  0  0
  -24.4130   -9.0540   21.8820 C   0  0  0  0  0  3  0  0  0  0  0  0
  -23.2290   -8.9300   21.1170 C   0  0  0  0  0  0  0  0  0  0  0  0
  -22.9300   -9.9110   20.1540 C   0  0  0  0  0  3  0  0  0  0  0  0
  -23.7790  -11.0140   19.9660 C   0  0  0  0  0  3  0  0  0  0  0  0
  -22.3550   -7.8750   21.2130 O   0  0  0  0  0  0  0  0  0  0  0  0
  -22.1440   -7.2210   22.4000 C   0  0  0  0  0  0  0  0  0  0  0  0
  -21.7120   -7.9020   23.5590 C   0  0  0  0  0  3  0  0  0  0  0  0
  -21.4410   -7.1810   24.7400 C   0  0  0  0  0  3  0  0  0  0  0  0
  -21.5880   -5.7810   24.7600 C   0  0  0  0  0  0  0  0  0  0  0  0
  -22.0090   -5.0990   23.6050 C   0  0  0  0  0  3  0  0  0  0  0  0
  -22.2830   -5.8190   22.4270 C   0  0  0  0  0  0  0  0  0  0  0  0
  -22.6690   -5.1540   21.3110 F   0  0  0  0  0  0  0  0  0  0  0  0
  -21.3170   -5.0880   25.8910 F   0  0  0  0  0  0  0  0  0  0  0  0
  -24.1920  -14.3610   20.9690 C   0  0  0  0  0  0  0  0  0  0  0  0
  -23.4470  -13.7580   21.8880 N   0  0  0  0  0  0  0  0  0  0  0  0
  -23.8380  -15.4210   20.4560 O   0  0  0  0  0  0  0  0  0  0  0  0
  -23.7430  -12.8990   22.3270 H   0  0  0  0  0  0  0  0  0  0  0  0
  -22.5620  -14.1630   22.1590 H   0  0  0  0  0  0  0  0  0  0  0  0
  -26.9670  -15.7240   20.0550 N   0  0  0  0  0  0  0  0  0  0  0  0
  -26.3000  -16.4680   20.2280 H   0  0  0  0  0  0  0  0  0  0  0  0
  -27.8550  -16.0590   19.7030 H   0  0  0  0  0  0  0  0  0  0  0  0
  -29.1870  -25.2680   22.0950 C   0  0  0  0  0  2  0  0  0  0  0  0
  -30.6750  -25.6740   22.1070 C   0  0  0  0  0  2  0  0  0  0  0  0
  -30.8810  -27.1510   21.7690 C   0  0  0  0  0  2  0  0  0  0  0  0
  -30.3440  -27.3650   20.4600 O   0  0  0  0  0  0  0  0  0  0  0  0
  -25.2230  -31.3720   23.3320 C   0  0  0  0  0  0  0  0  0  0  0  0
  -29.0550  -27.8320   20.4000 C   0  0  0  0  0  0  0  0  0  0  0  0
  -24.5120  -29.8480   21.5140 C   0  0  0  0  0  3  0  0  0  0  0  0
  -26.3950  -28.7370   20.2000 C   0  0  0  0  0  0  0  0  0  0  0  0
  -26.8960  -30.7580   21.5970 C   0  0  0  0  0  2  0  0  0  0  0  0
  -27.3350  -29.4780   20.9260 C   0  0  0  0  0  0  0  0  0  0  0  0
  -28.6650  -29.0330   21.0290 C   0  0  0  0  0  3  0  0  0  0  0  0
  -28.1100  -27.0970   19.6570 C   0  0  0  0  0  3  0  0  0  0  0  0
  -26.7740  -27.5380   19.5630 C   0  0  0  0  0  3  0  0  0  0  0  0
  -24.9960  -29.2990   20.1420 C   0  0  0  0  0  2  0  0  0  0  0  0
  -25.5520  -30.6730   22.2100 N   0  0  0  0  0  0  0  0  0  0  0  0
  -24.0620  -31.3790   23.7630 O   0  0  0  0  0  0  0  0  0  0  0  0
  -24.0020  -28.6620   22.3620 C   0  0  0  0  0  0  0  0  0  0  0  0
  -22.7800  -28.1950   22.0570 N   0  0  0  0  0  0  0  0  0  0  0  0
  -24.7060  -28.1650   23.2440 O   0  0  0  0  0  0  0  0  0  0  0  0
  -22.2530  -28.6710   21.3360 H   0  0  0  0  0  0  0  0  0  0  0  0
  -19.7420  -26.2340   22.0850 C   0  0  0  0  0  0  0  0  0  0  0  0
  -22.1200  -27.0460   22.6750 C   0  0  0  0  0  3  0  0  0  0  0  0
  -22.6230  -25.7230   22.0510 C   0  0  0  0  0  2  0  0  0  0  0  0
  -21.7320  -25.2100   20.9170 C   0  0  0  0  0  2  0  0  0  0  0  0
  -20.3040  -24.9890   21.4200 C   0  0  0  0  0  2  0  0  0  0  0  0
  -20.5970  -27.2060   22.6670 C   0  0  0  0  0  0  0  0  0  0  0  0
  -20.0260  -28.3600   23.2470 C   0  0  0  0  0  3  0  0  0  0  0  0
  -18.6330  -28.5530   23.2500 C   0  0  0  0  0  3  0  0  0  0  0  0
  -17.7900  -27.5790   22.6840 C   0  0  0  0  0  3  0  0  0  0  0  0
  -18.3440  -26.4230   22.1090 C   0  0  0  0  0  3  0  0  0  0  0  0
  -26.2840  -32.2130   24.1130 C   0  0  0  0  0  3  0  0  0  0  0  0
  -25.7210  -33.5540   24.3140 N   0  0  0  0  0  0  0  0  0  0  0  0
  -26.0160  -34.6210   23.5580 C   0  0  0  0  0  0  0  0  0  0  0  0
  -26.8550  -34.5870   22.6540 O   0  0  0  0  0  0  0  0  0  0  0  0
  -24.9880  -33.6390   25.0020 H   0  0  0  0  0  0  0  0  0  0  0  0
  -24.1240  -36.1060   22.8270 C   0  0  0  0  0  1  0  0  0  0  0  0
  -25.2560  -35.9300   23.8510 C   0  0  0  0  0  3  0  0  0  0  0  0
  -27.0730  -37.1590   24.9550 C   0  0  0  0  0  1  0  0  0  0  0  0
  -26.1250  -37.1270   23.8450 N   0  0  0  0  0  0  0  0  0  0  0  0
  -25.5670  -37.9760   23.8810 H   0  0  0  0  0  0  0  0  0  0  0  0
  -26.6960  -31.5660   25.4930 C   0  0  1  0  0  0  0  0  0  0  0  0
  -25.4930  -31.1630   26.3760 C   0  0  0  0  0  1  0  0  0  0  0  0
  -27.5610  -30.3040   25.2660 C   0  0  0  0  0  1  0  0  0  0  0  0
  -27.5660  -32.5600   26.2980 C   0  0  0  0  0  1  0  0  0  0  0  0
  1  2  1  0
  3  6  2  0
  3  4  1  0
  4  1  2  0
  5 51  1  0
  5  2  2  0
  6  5  1  0
  7  6  1  0
  8  9  2  0
  8  4  1  0
 10  8  1  0
 10 11  1  0
 12 11  1  0
 12 21  1  0
 13 19  1  0
 13 21  1  0
 14 19  1  0
 15 16  1  0
 15 14  1  0
 17 16  1  0
 17 26  1  0
 17 18  1  0
 19 18  1  0
 20 13  2  0
 21 22  1  0
 23 24  2  0
 24 43  1  0
 25 24  1  0
 25 28  1  0
 26 27  1  0
 26 23  1  0
 27 25  2  0
 28 29  1  0
 29 30  2  0
 31 34  1  0
 31 30  1  0
 32 31  2  0
 33 32  1  0
 33 28  2  0
 34 35  1  0
 35 40  2  0
 35 36  1  0
 36 37  2  0
 37 38  1  0
 38 42  1  0
 39 38  2  0
 40 39  1  0
 41 40  1  0
 43 44  1  0
 44 47  1  0
 44 46  1  0
 45 43  2  0
 48 23  1  0
 48 49  1  0
 50 48  1  0
 51 52  1  0
 53 52  1  0
 54 53  1  0
 55 66  2  0
 56 54  1  0
 56 61  1  0
 57 65  1  0
 57 67  1  0
 58 60  1  0
 59 65  1  0
 60 61  2  0
 60 59  1  0
 62 56  2  0
 63 62  1  0
 63 58  2  0
 64 58  1  0
 64 57  1  0
 65 55  1  0
 67 69  2  0
 68 67  1  0
 70 68  1  0
 71 80  2  0
 71 76  1  0
 72 68  1  0
 73 72  1  0
 74 75  1  0
 74 73  1  0
 75 71  1  0
 76 72  1  0
 76 77  2  0
 77 78  1  0
 79 78  2  0
 80 79  1  0
 81 55  1  0
 81 82  1  0
 81 91  1  0
 82 85  1  0
 83 87  1  0
 83 82  1  0
 84 83  2  0
 87 86  1  0
 89 87  1  0
 89 90  1  0
 89 88  1  0
 91 94  1  1
 91 92  1  0
 93 91  1  0
M  ISO  4  13 100  21 100  53 101  54 101
M  END
>  <TORSDO>  (75) 
F 23

>  <SCORE>  (75) 
-8.385

>  <name>  (75) 
75

>  <ligand_id>  (75) 
75

>  <original_smiles>  (75) 
[H]c1c([H])c([H])c2c(c1[H])C([H])([H])C([H])([H])C([H])([H])C2([H])N([H])C(=O)C1([H])N(C(=O)C([H])(N([H])C(=O)C([H])(N([H])C([H])([H])[H])C([H])([H])[H])C(C([H])([H])[H])(C([H])([H])[H])C([H])([H])[H])C([H])([H])c2c([H])c(OC([H])([H])C([H])([H])C([H])([H])c3c([H])c([H])c(C(=O)C([H])([H])C([H])([H])C([H])([H])N([H])C(=O)N4C([H])([H])C([H])([H])C([H])([H])C([H])(n5nc(-c6c([H])c([H])c(Oc7c([H])c([H])c(F)c([H])c7F)c([H])c6[H])c(C(=O)N([H])[H])c5N([H])[H])C4([H])[H])c([H])c3F)c([H])c([H])c2C1([H])[H]

>  <smiles>  (75) 
[H]c1c([H])c([H])c2c(c1[H])C([H])([H])C([H])([H])C([H])([H])C2([H])N([H])C(=O)C1([H])N(C(=O)C([H])(N([H])C(=O)C([H])(N([H])C([H])([H])[H])C([H])([H])[H])C(C([H])([H])[H])(C([H])([H])[H])C([H])([H])[H])C([H])([H])c2c([H])c(OC([H])([H])C([H])([H])C([H])([H])c3c([H])c([H])c(C(=O)C([H])([H])C([H])([H])C([H])([H])N([H])C(=O)N4C([H])([H])C([H])([H])C([H])([H])C([H])(n5nc(-c6c([H])c([H])c(Oc7c([H])c([H])c(F)c([H])c7F)c([H])c6[H])c(C(=O)N([H])[H])c5N([H])[H])C4([H])[H])c([H])c3F)c([H])c([H])c2C1([H])[H]

$$$$
76:0:0
     RDKit          3D

 86 93  0  0  1  0  0  0  0  0999 V2000
  -28.9890  -23.4930   20.3190 C   0  0  0  0  0  3  0  0  0  0  0  0
  -28.0020  -21.7470   18.6700 C   0  0  0  0  0  1  0  0  0  0  0  0
  -28.5630  -21.8960   20.0960 C   0  0  0  0  0  3  0  0  0  0  0  0
  -29.5970  -20.6200   20.3840 C   0  0  0  0  0  2  0  0  0  0  0  0
  -29.1460  -19.0470   20.3910 C   0  0  0  0  0  0  0  0  0  0  0  0
  -27.9390  -18.7970   20.4080 O   0  0  0  0  0  0  0  0  0  0  0  0
  -30.1670  -17.7760   20.3960 C   0  0  0  0  0  3  0  0  0  0  0  0
  -29.6660  -16.2310   20.7220 C   0  0  0  0  0  3  0  0  0  0  0  0
  -30.5110  -14.8730   20.3800 C   0  0  0  0  0  0  0  0  0  0  0  0
  -30.3850  -12.5550   19.3880 C   0  0  0  0  0  2  0  0  0  0  0  0
  -29.4570  -12.5970   18.1510 C   0  0  0  0  0  2  0  0  0  0  0  0
  -27.9840  -12.4080   18.5610 C   0  0  0  0  0  2  0  0  0  0  0  0
  -27.5880  -13.3040   19.7630 C   0  0  0  0  0  3  0  0  0  0  0  0
  -28.6330  -13.2440   20.8970 C   0  0  0  0  0  2  0  0  0  0  0  0
  -29.9340  -13.6140   20.3280 N   0  0  0  0  0  0  0  0  0  0  0  0
  -31.6920  -14.9810   20.0350 O   0  0  0  0  0  0  0  0  0  0  0  0
  -25.1940  -13.8980   20.4610 C   0  0  0  0  0  0  0  0  0  0  0  0
  -24.1240  -13.1260   20.8240 C   0  0  0  0  0  0  0  0  0  0  0  0
  -24.5890  -11.7750   20.8150 C   0  0  0  0  0  0  0  0  0  0  0  0
  -26.2400  -13.0170   20.2440 N   0  0  0  0  0  0  0  0  0  0  0  0
  -25.8840  -11.7350   20.5220 N   0  0  0  0  0  0  0  0  0  0  0  0
  -23.8610  -10.5150   21.0090 C   0  0  0  0  0  0  0  0  0  0  0  0
  -24.2810   -9.5560   21.9560 C   0  0  0  0  0  3  0  0  0  0  0  0
  -23.5510   -8.3610   22.1380 C   0  0  0  0  0  3  0  0  0  0  0  0
  -22.3870   -8.1160   21.3710 C   0  0  0  0  0  0  0  0  0  0  0  0
  -21.9860   -9.0640   20.4120 C   0  0  0  0  0  3  0  0  0  0  0  0
  -22.7170  -10.2500   20.2290 C   0  0  0  0  0  3  0  0  0  0  0  0
  -21.6300   -6.9740   21.4600 O   0  0  0  0  0  0  0  0  0  0  0  0
  -21.5660   -6.2420   22.6190 C   0  0  0  0  0  0  0  0  0  0  0  0
  -21.1260   -6.8080   23.8360 C   0  0  0  0  0  3  0  0  0  0  0  0
  -21.0090   -6.0040   24.9860 C   0  0  0  0  0  3  0  0  0  0  0  0
  -21.3240   -4.6320   24.9210 C   0  0  0  0  0  0  0  0  0  0  0  0
  -21.7560   -4.0650   23.7100 C   0  0  0  0  0  3  0  0  0  0  0  0
  -21.8740   -4.8670   22.5620 C   0  0  0  0  0  0  0  0  0  0  0  0
  -22.2710   -4.3120   21.3920 F   0  0  0  0  0  0  0  0  0  0  0  0
  -21.2030   -3.8560   26.0250 F   0  0  0  0  0  0  0  0  0  0  0  0
  -22.7230  -13.6060   21.0730 C   0  0  0  0  0  0  0  0  0  0  0  0
  -21.9870  -12.9210   21.9410 N   0  0  0  0  0  0  0  0  0  0  0  0
  -22.2900  -14.6220   20.5320 O   0  0  0  0  0  0  0  0  0  0  0  0
  -22.3500  -12.0990   22.4010 H   0  0  0  0  0  0  0  0  0  0  0  0
  -21.0470  -13.2260   22.1520 H   0  0  0  0  0  0  0  0  0  0  0  0
  -25.3580  -15.2680   20.2760 N   0  0  0  0  0  0  0  0  0  0  0  0
  -24.5910  -15.9230   20.3840 H   0  0  0  0  0  0  0  0  0  0  0  0
  -26.2180  -15.7130   19.9810 H   0  0  0  0  0  0  0  0  0  0  0  0
  -27.9590  -24.7680   20.0500 C   0  0  0  0  0  3  0  0  0  0  0  0
  -28.2440  -26.2640   20.2520 O   0  0  0  0  0  0  0  0  0  0  0  0
  -24.6200  -31.8810   23.2520 C   0  0  0  0  0  0  0  0  0  0  0  0
  -27.1780  -27.2170   20.1880 C   0  0  0  0  0  0  0  0  0  0  0  0
  -23.4080  -30.4950   21.6130 C   0  0  0  0  0  3  0  0  0  0  0  0
  -24.8450  -28.9340   20.1750 C   0  0  0  0  0  0  0  0  0  0  0  0
  -25.9580  -30.7710   21.4340 C   0  0  0  0  0  2  0  0  0  0  0  0
  -26.0270  -29.3860   20.7750 C   0  0  0  0  0  0  0  0  0  0  0  0
  -27.1960  -28.5440   20.7670 C   0  0  0  0  0  3  0  0  0  0  0  0
  -25.9680  -26.8560   19.5530 C   0  0  0  0  0  3  0  0  0  0  0  0
  -24.8260  -27.6800   19.5500 C   0  0  0  0  0  3  0  0  0  0  0  0
  -23.6180  -29.8260   20.2300 C   0  0  0  0  0  2  0  0  0  0  0  0
  -24.6820  -31.0690   22.1550 N   0  0  0  0  0  0  0  0  0  0  0  0
  -23.5380  -32.1660   23.7880 O   0  0  0  0  0  0  0  0  0  0  0  0
  -22.7350  -29.4820   22.5730 C   0  0  0  0  0  0  0  0  0  0  0  0
  -21.4070  -29.3130   22.4500 N   0  0  0  0  0  0  0  0  0  0  0  0
  -23.4100  -28.8500   23.3910 O   0  0  0  0  0  0  0  0  0  0  0  0
  -20.9200  -29.8730   21.7630 H   0  0  0  0  0  0  0  0  0  0  0  0
  -18.0250  -28.1200   22.9540 C   0  0  0  0  0  0  0  0  0  0  0  0
  -20.5850  -28.3780   23.2210 C   0  0  0  0  0  3  0  0  0  0  0  0
  -20.6840  -26.9460   22.6470 C   0  0  0  0  0  2  0  0  0  0  0  0
  -19.5810  -26.6250   21.6330 C   0  0  0  0  0  2  0  0  0  0  0  0
  -18.1990  -26.7720   22.2760 C   0  0  0  0  0  2  0  0  0  0  0  0
  -19.1460  -28.8820   23.3820 C   0  0  0  0  0  0  0  0  0  0  0  0
  -18.9280  -30.1440   23.9760 C   0  0  0  0  0  3  0  0  0  0  0  0
  -17.6240  -30.6460   24.1460 C   0  0  0  0  0  3  0  0  0  0  0  0
  -16.5190  -29.8820   23.7330 C   0  0  0  0  0  3  0  0  0  0  0  0
  -16.7200  -28.6210   23.1420 C   0  0  0  0  0  3  0  0  0  0  0  0
  -25.9050  -32.5090   23.8740 C   0  0  0  0  0  3  0  0  0  0  0  0
  -26.4190  -31.7330   25.1490 C   0  0  1  0  0  0  0  0  0  0  0  0
  -25.3260  -31.5000   26.2180 C   0  0  0  0  0  1  0  0  0  0  0  0
  -26.9970  -30.3530   24.7580 C   0  0  0  0  0  1  0  0  0  0  0  0
  -27.5720  -32.5240   25.8120 C   0  0  0  0  0  1  0  0  0  0  0  0
  -25.5980  -33.9070   24.2140 N   0  0  0  0  0  0  0  0  0  0  0  0
  -25.9070  -34.9640   23.4510 C   0  0  0  0  0  0  0  0  0  0  0  0
  -26.5500  -34.8660   22.4020 O   0  0  0  0  0  0  0  0  0  0  0  0
  -25.0240  -34.0570   25.0310 H   0  0  0  0  0  0  0  0  0  0  0  0
  -24.1540  -36.7460   23.1670 C   0  0  0  0  0  1  0  0  0  0  0  0
  -25.4290  -36.3500   23.9280 C   0  0  0  0  0  3  0  0  0  0  0  0
  -27.5900  -37.2500   24.6710 C   0  0  0  0  0  1  0  0  0  0  0  0
  -26.4490  -37.4110   23.7720 N   0  0  0  0  0  0  0  0  0  0  0  0
  -26.0430  -38.3270   23.9380 H   0  0  0  0  0  0  0  0  0  0  0  0
  3  2  1  0
  3  1  1  0
  3  4  1  0
  4  5  1  0
  5  7  1  0
  5  6  2  0
  7  8  2  0
  9  8  1  0
 10 15  1  0
 11 12  1  0
 11 10  1  0
 13 12  1  0
 13 20  1  0
 13 14  1  0
 15  9  1  0
 15 14  1  0
 16  9  2  0
 17 18  2  0
 18 37  1  0
 19 18  1  0
 19 22  1  0
 20 17  1  0
 20 21  1  0
 21 19  2  0
 22 23  1  0
 23 24  2  0
 25 28  1  0
 25 24  1  0
 26 25  2  0
 27 26  1  0
 27 22  2  0
 28 29  1  0
 29 30  1  0
 30 31  2  0
 32 31  1  0
 32 36  1  0
 33 32  2  0
 34 29  2  0
 34 33  1  0
 35 34  1  0
 37 38  1  0
 38 41  1  0
 38 40  1  0
 39 37  2  0
 42 43  1  0
 42 17  1  0
 44 42  1  0
 45 46  1  0
 45  1  2  0
 47 58  2  0
 48 46  1  0
 48 53  1  0
 49 57  1  0
 49 59  1  0
 50 56  1  0
 50 52  1  0
 51 57  1  0
 52 51  1  0
 53 52  2  0
 54 48  2  0
 55 54  1  0
 55 50  2  0
 56 49  1  0
 57 47  1  0
 59 61  2  0
 60 59  1  0
 62 60  1  0
 63 72  2  0
 63 68  1  0
 64 60  1  0
 64 68  1  0
 65 64  1  0
 66 67  1  0
 66 65  1  0
 67 63  1  0
 68 69  2  0
 69 70  1  0
 71 70  2  0
 72 71  1  0
 73 47  1  0
 73 78  1  0
 73 74  1  0
 74 77  1  1
 74 75  1  0
 76 74  1  0
 78 81  1  0
 79 83  1  0
 79 78  1  0
 80 79  2  0
 83 82  1  0
 85 83  1  0
 85 86  1  0
 85 84  1  0
M  ISO  4   8 100   9 100  45 101  46 101
M  END
>  <TORSDO>  (76) 
F 22

>  <SCORE>  (76) 
-13.015

>  <name>  (76) 
76

>  <ligand_id>  (76) 
76

>  <original_smiles>  (76) 
[H]c1c([H])c([H])c2c(c1[H])C([H])([H])C([H])([H])C([H])([H])C2([H])N([H])C(=O)C1([H])N(C(=O)C([H])(N([H])C(=O)C([H])(N([H])C([H])([H])[H])C([H])([H])[H])C(C([H])([H])[H])(C([H])([H])[H])C([H])([H])[H])C([H])([H])c2c([H])c(OC([H])([H])C([H])([H])C([H])(C([H])([H])[H])C([H])([H])C(=O)C([H])([H])C([H])([H])C(=O)N3C([H])([H])C([H])([H])C([H])([H])C([H])(n4nc(-c5c([H])c([H])c(Oc6c([H])c([H])c(F)c([H])c6F)c([H])c5[H])c(C(=O)N([H])[H])c4N([H])[H])C3([H])[H])c([H])c([H])c2C1([H])[H]

>  <smiles>  (76) 
[H]c1c([H])c([H])c2c(c1[H])C([H])([H])C([H])([H])C([H])([H])C2([H])N([H])C(=O)C1([H])N(C(=O)C([H])(N([H])C(=O)C([H])(N([H])C([H])([H])[H])C([H])([H])[H])C(C([H])([H])[H])(C([H])([H])[H])C([H])([H])[H])C([H])([H])c2c([H])c(OC([H])([H])C([H])([H])C([H])(C([H])([H])[H])C([H])([H])C(=O)C([H])([H])C([H])([H])C(=O)N3C([H])([H])C([H])([H])C([H])([H])C([H])(n4nc(-c5c([H])c([H])c(Oc6c([H])c([H])c(F)c([H])c6F)c([H])c5[H])c(C(=O)N([H])[H])c4N([H])[H])C3([H])[H])c([H])c([H])c2C1([H])[H]

$$$$
77:0:0
     RDKit          3D

 98106  0  0  1  0  0  0  0  0999 V2000
  -30.2120  -20.0630   19.2990 C   0  0  0  0  0  3  0  0  0  0  0  0
  -32.8950  -20.4580   22.0060 C   0  0  0  0  0  3  0  0  0  0  0  0
  -32.5470  -19.4770   22.9430 C   0  0  0  0  0  3  0  0  0  0  0  0
  -32.1210  -20.6070   20.8480 C   0  0  0  0  0  3  0  0  0  0  0  0
  -31.4360  -18.6380   22.7320 C   0  0  0  0  0  0  0  0  0  0  0  0
  -31.0000  -19.7770   20.5930 C   0  0  0  0  0  0  0  0  0  0  0  0
  -30.6580  -18.7480   21.5400 C   0  0  0  0  0  0  0  0  0  0  0  0
  -31.1150  -17.6560   23.8520 C   0  0  0  0  0  1  0  0  0  0  0  0
  -29.4170  -17.8430   21.3770 C   0  0  0  0  0  2  0  0  0  0  0  0
  -29.6280  -16.2900   21.3230 C   0  0  0  0  0  2  0  0  0  0  0  0
  -31.0650  -14.6070   20.1460 C   0  0  0  0  0  0  0  0  0  0  0  0
  -30.7050  -12.4750   18.9720 C   0  0  0  0  0  2  0  0  0  0  0  0
  -29.7440  -12.7260   17.7910 C   0  0  0  0  0  2  0  0  0  0  0  0
  -28.2700  -12.6430   18.2390 C   0  0  0  0  0  2  0  0  0  0  0  0
  -27.9810  -13.4540   19.5320 C   0  0  0  0  0  3  0  0  0  0  0  0
  -29.0490  -13.1550   20.6110 C   0  0  0  0  0  2  0  0  0  0  0  0
  -30.3650  -13.4450   20.0240 N   0  0  0  0  0  0  0  0  0  0  0  0
  -32.2390  -14.7080   19.7710 O   0  0  0  0  0  0  0  0  0  0  0  0
  -30.3090  -16.5420   18.9200 C   0  0  0  0  0  1  0  0  0  0  0  0
  -30.2870  -15.7200   20.1290 N   0  0  0  0  0  0  0  0  0  0  0  0
  -25.6010  -14.1300   20.2410 C   0  0  0  0  0  0  0  0  0  0  0  0
  -24.5180  -13.3860   20.6270 C   0  0  0  0  0  0  0  0  0  0  0  0
  -24.9490  -12.0250   20.6130 C   0  0  0  0  0  0  0  0  0  0  0  0
  -26.6260  -13.2210   20.0230 N   0  0  0  0  0  0  0  0  0  0  0  0
  -26.2370  -11.9510   20.3040 N   0  0  0  0  0  0  0  0  0  0  0  0
  -24.1970  -10.7820   20.8220 C   0  0  0  0  0  0  0  0  0  0  0  0
  -24.5860   -9.8420   21.8030 C   0  0  0  0  0  3  0  0  0  0  0  0
  -23.8370   -8.6630   22.0020 C   0  0  0  0  0  3  0  0  0  0  0  0
  -22.6850   -8.4120   21.2210 C   0  0  0  0  0  0  0  0  0  0  0  0
  -22.3150   -9.3400   20.2320 C   0  0  0  0  0  3  0  0  0  0  0  0
  -23.0630  -10.5100   20.0300 C   0  0  0  0  0  3  0  0  0  0  0  0
  -21.9120   -7.2810   21.3250 O   0  0  0  0  0  0  0  0  0  0  0  0
  -21.7710   -6.6130   22.5140 C   0  0  0  0  0  0  0  0  0  0  0  0
  -21.2600   -7.2460   23.6690 C   0  0  0  0  0  3  0  0  0  0  0  0
  -21.0670   -6.5040   24.8520 C   0  0  0  0  0  3  0  0  0  0  0  0
  -21.3730   -5.1310   24.8800 C   0  0  0  0  0  0  0  0  0  0  0  0
  -21.8780   -4.4970   23.7300 C   0  0  0  0  0  3  0  0  0  0  0  0
  -22.0730   -5.2370   22.5500 C   0  0  0  0  0  0  0  0  0  0  0  0
  -22.5370   -4.6160   21.4380 F   0  0  0  0  0  0  0  0  0  0  0  0
  -21.1820   -4.4150   26.0130 F   0  0  0  0  0  0  0  0  0  0  0  0
  -23.1310  -13.8970   20.8940 C   0  0  0  0  0  0  0  0  0  0  0  0
  -22.3920  -13.2360   21.7810 N   0  0  0  0  0  0  0  0  0  0  0  0
  -22.7080  -14.9140   20.3500 O   0  0  0  0  0  0  0  0  0  0  0  0
  -22.7410  -12.4090   22.2430 H   0  0  0  0  0  0  0  0  0  0  0  0
  -21.4630  -13.5650   22.0000 H   0  0  0  0  0  0  0  0  0  0  0  0
  -25.7940  -15.4950   20.0390 N   0  0  0  0  0  0  0  0  0  0  0  0
  -25.0420  -16.1690   20.1460 H   0  0  0  0  0  0  0  0  0  0  0  0
  -26.6550  -15.9130   19.7080 H   0  0  0  0  0  0  0  0  0  0  0  0
  -31.0950  -20.0940   18.1160 N   0  0  0  0  0  4  0  0  0  0  0  0
  -31.7460  -20.8550   18.1710 H   0  0  0  0  0  0  0  0  0  0  0  0
  -30.5540  -20.2000   17.2750 H   0  0  0  0  0  0  0  0  0  0  0  0
  -31.6200  -19.2410   18.0500 H   0  0  0  0  0  0  0  0  0  0  0  0
  -29.2880  -21.3080   19.3680 C   0  0  0  0  0  2  0  0  0  0  0  0
  -29.9840  -22.6860   19.4300 C   0  0  0  0  0  2  0  0  0  0  0  0
  -29.0060  -23.8600   19.2190 C   0  0  0  0  0  2  0  0  0  0  0  0
  -29.7160  -25.1940   18.9230 C   0  0  0  0  0  2  0  0  0  0  0  0
  -28.7420  -26.3530   18.6370 C   0  0  0  0  0  2  0  0  0  0  0  0
  -28.2670  -26.8770   19.8730 O   0  0  0  0  0  0  0  0  0  0  0  0
  -24.5330  -31.9120   23.1720 C   0  0  0  0  0  0  0  0  0  0  0  0
  -27.0910  -27.5910   19.8690 C   0  0  0  0  0  0  0  0  0  0  0  0
  -23.2750  -30.5630   21.5210 C   0  0  0  0  0  3  0  0  0  0  0  0
  -24.6850  -29.0690   20.0040 C   0  0  0  0  0  0  0  0  0  0  0  0
  -25.7910  -30.9280   21.2620 C   0  0  0  0  0  2  0  0  0  0  0  0
  -25.8550  -29.5790   20.5800 C   0  0  0  0  0  0  0  0  0  0  0  0
  -27.0540  -28.8390   20.5230 C   0  0  0  0  0  3  0  0  0  0  0  0
  -25.9040  -27.0810   19.2970 C   0  0  0  0  0  3  0  0  0  0  0  0
  -24.7020  -27.8150   19.3660 C   0  0  0  0  0  3  0  0  0  0  0  0
  -23.4400  -29.9220   20.1160 C   0  0  0  0  0  2  0  0  0  0  0  0
  -24.5520  -31.1480   22.0430 N   0  0  0  0  0  0  0  0  0  0  0  0
  -23.4700  -32.1690   23.7540 O   0  0  0  0  0  0  0  0  0  0  0  0
  -22.6500  -29.5150   22.4690 C   0  0  0  0  0  0  0  0  0  0  0  0
  -21.3270  -29.3200   22.3540 N   0  0  0  0  0  0  0  0  0  0  0  0
  -23.3520  -28.8820   23.2620 O   0  0  0  0  0  0  0  0  0  0  0  0
  -20.8220  -29.8840   21.6850 H   0  0  0  0  0  0  0  0  0  0  0  0
  -17.9790  -28.0550   22.8410 C   0  0  0  0  0  0  0  0  0  0  0  0
  -20.5310  -28.3580   23.1150 C   0  0  0  0  0  3  0  0  0  0  0  0
  -20.6610  -26.9370   22.5200 C   0  0  0  0  0  2  0  0  0  0  0  0
  -19.5650  -26.6060   21.5030 C   0  0  0  0  0  2  0  0  0  0  0  0
  -18.1810  -26.7170   22.1490 C   0  0  0  0  0  2  0  0  0  0  0  0
  -19.0840  -28.8320   23.2800 C   0  0  0  0  0  0  0  0  0  0  0  0
  -18.8430  -30.0850   23.8850 C   0  0  0  0  0  3  0  0  0  0  0  0
  -17.5290  -30.5610   24.0570 C   0  0  0  0  0  3  0  0  0  0  0  0
  -16.4380  -29.7800   23.6360 C   0  0  0  0  0  3  0  0  0  0  0  0
  -16.6650  -28.5290   23.0330 C   0  0  0  0  0  3  0  0  0  0  0  0
  -25.8410  -32.5180   23.7730 C   0  0  0  0  0  3  0  0  0  0  0  0
  -26.3800  -31.7220   25.0250 C   0  0  1  0  0  0  0  0  0  0  0  0
  -25.3100  -31.4800   26.1140 C   0  0  0  0  0  1  0  0  0  0  0  0
  -26.9380  -30.3440   24.5970 C   0  0  0  0  0  1  0  0  0  0  0  0
  -27.5550  -32.4930   25.6710 C   0  0  0  0  0  1  0  0  0  0  0  0
  -25.5590  -33.9150   24.1270 N   0  0  0  0  0  0  0  0  0  0  0  0
  -25.9030  -34.9740   23.3820 C   0  0  0  0  0  0  0  0  0  0  0  0
  -26.5650  -34.8740   22.3440 O   0  0  0  0  0  0  0  0  0  0  0  0
  -24.9730  -34.0670   24.9350 H   0  0  0  0  0  0  0  0  0  0  0  0
  -24.2030  -36.7980   23.0600 C   0  0  0  0  0  1  0  0  0  0  0  0
  -25.4410  -36.3610   23.8620 C   0  0  0  0  0  3  0  0  0  0  0  0
  -27.5910  -37.1960   24.7020 C   0  0  0  0  0  1  0  0  0  0  0  0
  -26.4900  -37.3980   23.7640 N   0  0  0  0  0  0  0  0  0  0  0  0
  -26.1010  -38.3230   23.9260 H   0  0  0  0  0  0  0  0  0  0  0  0
  1 53  1  0
  1  6  1  0
  2  3  1  0
  4  2  2  0
  5  3  2  0
  5  8  1  0
  6  4  1  0
  6  7  2  0
  7  5  1  0
  9  7  1  0
 10  9  1  0
 12 17  1  0
 13 14  1  0
 13 12  1  0
 15 14  1  0
 15 24  1  0
 15 16  1  0
 17 11  1  0
 17 16  1  0
 18 11  2  0
 19 20  1  0
 20 11  1  0
 20 10  1  0
 21 22  2  0
 22 41  1  0
 23 22  1  0
 23 26  1  0
 24 21  1  0
 24 25  1  0
 25 23  2  0
 26 27  1  0
 27 28  2  0
 29 32  1  0
 29 28  1  0
 30 29  2  0
 31 30  1  0
 31 26  2  0
 32 33  1  0
 33 38  2  0
 33 34  1  0
 34 35  2  0
 35 36  1  0
 36 40  1  0
 37 36  2  0
 38 37  1  0
 39 38  1  0
 41 42  1  0
 42 45  1  0
 42 44  1  0
 43 41  2  0
 46 47  1  0
 46 21  1  0
 48 46  1  0
 49 50  1  0
 49  1  1  0
 51 49  1  0
 52 49  1  0
 53 54  1  0
 55 54  1  0
 56 55  1  0
 57 56  1  0
 57 58  1  0
 59 70  2  0
 60 58  1  0
 60 65  1  0
 61 69  1  0
 61 71  1  0
 62 68  1  0
 62 64  1  0
 63 69  1  0
 64 63  1  0
 65 64  2  0
 66 67  1  0
 66 60  2  0
 67 62  2  0
 68 61  1  0
 69 59  1  0
 71 73  2  0
 72 71  1  0
 74 72  1  0
 75 84  2  0
 75 80  1  0
 76 72  1  0
 76 80  1  0
 77 76  1  0
 78 79  1  0
 78 77  1  0
 79 75  1  0
 80 81  2  0
 81 82  1  0
 83 82  2  0
 84 83  1  0
 85 59  1  0
 85 90  1  0
 85 86  1  0
 86 89  1  1
 86 87  1  0
 88 86  1  0
 90 93  1  0
 91 95  1  0
 91 90  1  0
 92 91  2  0
 95 94  1  0
 97 95  1  0
 97 98  1  0
 97 96  1  0
M  ISO  4  11 100  20 100  57 101  58 101
M  END
>  <TORSDO>  (77) 
F 25

>  <SCORE>  (77) 
-10.789

>  <name>  (77) 
77

>  <ligand_id>  (77) 
77

>  <original_smiles>  (77) 
[H]c1c([H])c([H])c2c(c1[H])C([H])([H])C([H])([H])C([H])([H])C2([H])N([H])C(=O)C1([H])N(C(=O)C([H])(N([H])C(=O)C([H])(N([H])C([H])([H])[H])C([H])([H])[H])C(C([H])([H])[H])(C([H])([H])[H])C([H])([H])[H])C([H])([H])c2c([H])c(OC([H])([H])C([H])([H])C([H])([H])C([H])([H])C([H])([H])C([H])(c3c([H])c([H])c([H])c(C([H])([H])[H])c3C([H])([H])C([H])([H])N(C(=O)N3C([H])([H])C([H])([H])C([H])([H])C([H])(n4nc(-c5c([H])c([H])c(Oc6c([H])c([H])c(F)c([H])c6F)c([H])c5[H])c(C(=O)N([H])[H])c4N([H])[H])C3([H])[H])C([H])([H])[H])[N+]([H])([H])[H])c([H])c([H])c2C1([H])[H]

>  <smiles>  (77) 
[H]c1c([H])c([H])c2c(c1[H])C([H])([H])C([H])([H])C([H])([H])C2([H])N([H])C(=O)C1([H])N(C(=O)C([H])(N([H])C(=O)C([H])(N([H])C([H])([H])[H])C([H])([H])[H])C(C([H])([H])[H])(C([H])([H])[H])C([H])([H])[H])C([H])([H])c2c([H])c(OC([H])([H])C([H])([H])C([H])([H])C([H])([H])C([H])([H])C([H])(c3c([H])c([H])c([H])c(C([H])([H])[H])c3C([H])([H])C([H])([H])N(C(=O)N3C([H])([H])C([H])([H])C([H])([H])C([H])(n4nc(-c5c([H])c([H])c(Oc6c([H])c([H])c(F)c([H])c6F)c([H])c5[H])c(C(=O)N([H])[H])c4N([H])[H])C3([H])[H])C([H])([H])[H])[N+]([H])([H])[H])c([H])c([H])c2C1([H])[H]

$$$$
78:0:0
     RDKit          3D

 91100  0  0  1  0  0  0  0  0999 V2000
  -30.6400  -14.7710   20.4260 C   0  0  0  0  0  0  0  0  0  0  0  0
  -30.4260  -12.4930   19.4330 C   0  0  0  0  0  2  0  0  0  0  0  0
  -29.5030  -12.5160   18.1920 C   0  0  0  0  0  2  0  0  0  0  0  0
  -28.0200  -12.4160   18.6010 C   0  0  0  0  0  2  0  0  0  0  0  0
  -27.6370  -13.3260   19.7990 C   0  0  0  0  0  3  0  0  0  0  0  0
  -28.6780  -13.2490   20.9340 C   0  0  0  0  0  2  0  0  0  0  0  0
  -29.9830  -13.5650   20.3460 N   0  0  0  0  0  0  0  0  0  0  0  0
  -31.8640  -14.8180   20.2770 O   0  0  0  0  0  0  0  0  0  0  0  0
  -29.8910  -21.1560   19.0870 C   0  0  0  0  0  3  0  0  0  0  0  0
  -30.2880  -19.9700   18.4320 C   0  0  0  0  0  3  0  0  0  0  0  0
  -29.3680  -19.8300   21.0580 C   0  0  0  0  0  3  0  0  0  0  0  0
  -29.4070  -21.1320   20.4130 C   0  0  0  0  0  0  0  0  0  0  0  0
  -30.2190  -18.7140   19.0750 C   0  0  0  0  0  0  0  0  0  0  0  0
  -29.7830  -18.6030   20.4100 C   0  0  0  0  0  0  0  0  0  0  0  0
  -30.5660  -17.4480   18.3220 C   0  0  0  0  0  2  0  0  0  0  0  0
  -29.7810  -17.1590   21.0750 C   0  0  0  0  0  2  0  0  0  0  0  0
  -29.6820  -16.2710   18.7790 C   0  0  0  0  0  2  0  0  0  0  0  0
  -29.8850  -15.9170   20.1970 N   0  0  0  0  0  0  0  0  0  0  0  0
  -25.2370  -13.9440   20.4700 C   0  0  0  0  0  0  0  0  0  0  0  0
  -24.1580  -13.1810   20.8240 C   0  0  0  0  0  0  0  0  0  0  0  0
  -24.6160  -11.8270   20.8280 C   0  0  0  0  0  0  0  0  0  0  0  0
  -26.2830  -13.0560   20.2730 N   0  0  0  0  0  0  0  0  0  0  0  0
  -25.9140  -11.7790   20.5550 N   0  0  0  0  0  0  0  0  0  0  0  0
  -23.8790  -10.5690   21.0190 C   0  0  0  0  0  0  0  0  0  0  0  0
  -24.2990   -9.6030   21.9590 C   0  0  0  0  0  3  0  0  0  0  0  0
  -23.5650   -8.4100   22.1360 C   0  0  0  0  0  3  0  0  0  0  0  0
  -22.3970   -8.1750   21.3730 C   0  0  0  0  0  0  0  0  0  0  0  0
  -21.9960   -9.1310   20.4220 C   0  0  0  0  0  3  0  0  0  0  0  0
  -22.7310  -10.3140   20.2430 C   0  0  0  0  0  3  0  0  0  0  0  0
  -21.6340   -7.0360   21.4610 O   0  0  0  0  0  0  0  0  0  0  0  0
  -21.5850   -6.2910   22.6110 C   0  0  0  0  0  0  0  0  0  0  0  0
  -21.1750   -6.8480   23.8420 C   0  0  0  0  0  3  0  0  0  0  0  0
  -21.0700   -6.0290   24.9840 C   0  0  0  0  0  3  0  0  0  0  0  0
  -21.3650   -4.6550   24.8970 C   0  0  0  0  0  0  0  0  0  0  0  0
  -21.7680   -4.0980   23.6710 C   0  0  0  0  0  3  0  0  0  0  0  0
  -21.8740   -4.9140   22.5310 C   0  0  0  0  0  0  0  0  0  0  0  0
  -22.2420   -4.3680   21.3470 F   0  0  0  0  0  0  0  0  0  0  0  0
  -21.2570   -3.8670   25.9930 F   0  0  0  0  0  0  0  0  0  0  0  0
  -22.7560  -13.6670   21.0500 C   0  0  0  0  0  0  0  0  0  0  0  0
  -22.0030  -12.9900   21.9100 N   0  0  0  0  0  0  0  0  0  0  0  0
  -22.3340  -14.6840   20.5000 O   0  0  0  0  0  0  0  0  0  0  0  0
  -22.3580  -12.1690   22.3790 H   0  0  0  0  0  0  0  0  0  0  0  0
  -21.0610  -13.2990   22.1060 H   0  0  0  0  0  0  0  0  0  0  0  0
  -25.4160  -15.3100   20.2760 N   0  0  0  0  0  0  0  0  0  0  0  0
  -24.6570  -15.9760   20.3630 H   0  0  0  0  0  0  0  0  0  0  0  0
  -26.2860  -15.7370   19.9850 H   0  0  0  0  0  0  0  0  0  0  0  0
  -28.8640  -22.4340   21.0520 C   0  0  0  0  0  0  0  0  0  0  0  0
  -28.1020  -22.3650   22.0220 O   0  0  0  0  0  0  0  0  0  0  0  0
  -29.2770  -23.8970   20.5750 C   0  0  0  0  0  2  0  0  0  0  0  0
  -28.1250  -24.9820   20.3240 C   0  0  0  0  0  2  0  0  0  0  0  0
  -28.3950  -26.4550   20.3150 O   0  0  0  0  0  0  0  0  0  0  0  0
  -24.6150  -31.8870   23.2480 C   0  0  0  0  0  0  0  0  0  0  0  0
  -27.2850  -27.3230   20.2380 C   0  0  0  0  0  0  0  0  0  0  0  0
  -23.4370  -30.4730   21.6040 C   0  0  0  0  0  3  0  0  0  0  0  0
  -24.9130  -28.9340   20.1940 C   0  0  0  0  0  0  0  0  0  0  0  0
  -25.9780  -30.8100   21.4400 C   0  0  0  0  0  2  0  0  0  0  0  0
  -26.0750  -29.4290   20.7980 C   0  0  0  0  0  0  0  0  0  0  0  0
  -27.2660  -28.6380   20.8070 C   0  0  0  0  0  3  0  0  0  0  0  0
  -26.0960  -26.8920   19.6040 C   0  0  0  0  0  3  0  0  0  0  0  0
  -24.9280  -27.6720   19.5850 C   0  0  0  0  0  3  0  0  0  0  0  0
  -23.6680  -29.7980   20.2280 C   0  0  0  0  0  2  0  0  0  0  0  0
  -24.6950  -31.0750   22.1540 N   0  0  0  0  0  0  0  0  0  0  0  0
  -23.5250  -32.1570   23.7720 O   0  0  0  0  0  0  0  0  0  0  0  0
  -22.7760  -29.4530   22.5630 C   0  0  0  0  0  0  0  0  0  0  0  0
  -21.4500  -29.2720   22.4330 N   0  0  0  0  0  0  0  0  0  0  0  0
  -23.4540  -28.8280   23.3830 O   0  0  0  0  0  0  0  0  0  0  0  0
  -20.9630  -29.8290   21.7440 H   0  0  0  0  0  0  0  0  0  0  0  0
  -18.0700  -28.0870   22.9430 C   0  0  0  0  0  0  0  0  0  0  0  0
  -20.6300  -28.3340   23.2030 C   0  0  0  0  0  3  0  0  0  0  0  0
  -20.7220  -26.9060   22.6170 C   0  0  0  0  0  2  0  0  0  0  0  0
  -19.6140  -26.5940   21.6070 C   0  0  0  0  0  2  0  0  0  0  0  0
  -18.2360  -26.7400   22.2590 C   0  0  0  0  0  2  0  0  0  0  0  0
  -19.1930  -28.8410   23.3720 C   0  0  0  0  0  0  0  0  0  0  0  0
  -18.9820  -30.1010   23.9740 C   0  0  0  0  0  3  0  0  0  0  0  0
  -17.6810  -30.6060   24.1510 C   0  0  0  0  0  3  0  0  0  0  0  0
  -16.5710  -29.8480   23.7390 C   0  0  0  0  0  3  0  0  0  0  0  0
  -16.7670  -28.5910   23.1400 C   0  0  0  0  0  3  0  0  0  0  0  0
  -25.8870  -32.5340   23.8780 C   0  0  0  0  0  3  0  0  0  0  0  0
  -25.5610  -33.9300   24.2000 N   0  0  0  0  0  0  0  0  0  0  0  0
  -25.8850  -34.9840   23.4390 C   0  0  0  0  0  0  0  0  0  0  0  0
  -26.5590  -34.8830   22.4100 O   0  0  0  0  0  0  0  0  0  0  0  0
  -24.9600  -34.0810   24.9970 H   0  0  0  0  0  0  0  0  0  0  0  0
  -24.1400  -36.7600   23.0740 C   0  0  0  0  0  1  0  0  0  0  0  0
  -25.3840  -36.3700   23.8890 C   0  0  0  0  0  3  0  0  0  0  0  0
  -27.5070  -37.2810   24.7220 C   0  0  0  0  0  1  0  0  0  0  0  0
  -26.4070  -37.4310   23.7720 N   0  0  0  0  0  0  0  0  0  0  0  0
  -25.9930  -38.3490   23.9070 H   0  0  0  0  0  0  0  0  0  0  0  0
  -26.3980  -31.7720   25.1630 C   0  0  1  0  0  0  0  0  0  0  0  0
  -25.2980  -31.5300   26.2230 C   0  0  0  0  0  1  0  0  0  0  0  0
  -26.9960  -30.3970   24.7840 C   0  0  0  0  0  1  0  0  0  0  0  0
  -27.5360  -32.5790   25.8300 C   0  0  0  0  0  1  0  0  0  0  0  0
  2  7  1  0
  3  4  1  0
  3  2  1  0
  5  4  1  0
  5 22  1  0
  5  6  1  0
  7  1  1  0
  7  6  1  0
  8  1  2  0
  9 12  1  0
 10 13  1  0
 10  9  2  0
 12 47  1  0
 12 11  2  0
 13 14  2  0
 14 11  1  0
 14 16  1  0
 15 17  1  0
 15 13  1  0
 17 18  1  0
 18  1  1  0
 18 16  1  0
 19 20  2  0
 20 21  1  0
 20 39  1  0
 21 24  1  0
 22 19  1  0
 22 23  1  0
 23 21  2  0
 24 25  1  0
 25 26  2  0
 27 30  1  0
 27 26  1  0
 28 27  2  0
 29 28  1  0
 29 24  2  0
 30 31  1  0
 31 32  1  0
 32 33  2  0
 34 33  1  0
 34 38  1  0
 35 34  2  0
 36 31  2  0
 36 35  1  0
 37 36  1  0
 39 40  1  0
 40 43  1  0
 40 42  1  0
 41 39  2  0
 44 45  1  0
 44 19  1  0
 46 44  1  0
 47 48  2  0
 49 47  1  0
 50 49  1  0
 51 50  1  0
 52 63  2  0
 53 51  1  0
 53 58  1  0
 54 62  1  0
 54 64  1  0
 55 61  1  0
 55 57  1  0
 56 62  1  0
 57 58  2  0
 57 56  1  0
 59 53  2  0
 60 59  1  0
 60 55  2  0
 61 54  1  0
 62 52  1  0
 64 66  2  0
 65 64  1  0
 67 65  1  0
 68 77  2  0
 68 73  1  0
 69 65  1  0
 69 73  1  0
 70 69  1  0
 71 72  1  0
 71 70  1  0
 72 68  1  0
 73 74  2  0
 74 75  1  0
 76 75  2  0
 77 76  1  0
 78 52  1  0
 78 79  1  0
 78 88  1  0
 79 82  1  0
 80 84  1  0
 80 79  1  0
 81 80  2  0
 84 83  1  0
 86 84  1  0
 86 87  1  0
 86 85  1  0
 88 91  1  1
 88 89  1  0
 90 88  1  0
M  ISO  4   1 100  18 100  50 101  51 101
M  END
>  <TORSDO>  (78) 
F 18

>  <SCORE>  (78) 
-14.512

>  <name>  (78) 
78

>  <ligand_id>  (78) 
78

>  <original_smiles>  (78) 
[H]c1c([H])c([H])c2c(c1[H])C([H])([H])C([H])([H])C([H])([H])C2([H])N([H])C(=O)C1([H])N(C(=O)C([H])(N([H])C(=O)C([H])(N([H])C([H])([H])[H])C([H])([H])[H])C(C([H])([H])[H])(C([H])([H])[H])C([H])([H])[H])C([H])([H])c2c([H])c(OC([H])([H])C([H])([H])C(=O)c3c([H])c([H])c4c(c3[H])C([H])([H])N(C(=O)N3C([H])([H])C([H])([H])C([H])([H])C([H])(n5nc(-c6c([H])c([H])c(Oc7c([H])c([H])c(F)c([H])c7F)c([H])c6[H])c(C(=O)N([H])[H])c5N([H])[H])C3([H])[H])C([H])([H])C4([H])[H])c([H])c([H])c2C1([H])[H]

>  <smiles>  (78) 
[H]c1c([H])c([H])c2c(c1[H])C([H])([H])C([H])([H])C([H])([H])C2([H])N([H])C(=O)C1([H])N(C(=O)C([H])(N([H])C(=O)C([H])(N([H])C([H])([H])[H])C([H])([H])[H])C(C([H])([H])[H])(C([H])([H])[H])C([H])([H])[H])C([H])([H])c2c([H])c(OC([H])([H])C([H])([H])C(=O)c3c([H])c([H])c4c(c3[H])C([H])([H])N(C(=O)N3C([H])([H])C([H])([H])C([H])([H])C([H])(n5nc(-c6c([H])c([H])c(Oc7c([H])c([H])c(F)c([H])c7F)c([H])c6[H])c(C(=O)N([H])[H])c5N([H])[H])C3([H])[H])C([H])([H])C4([H])[H])c([H])c([H])c2C1([H])[H]

$$$$
79:0:0
     RDKit          3D

102111  0  0  1  0  0  0  0  0999 V2000
  -28.1170  -22.6490   21.1120 C   0  0  0  0  0  3  0  0  0  0  0  0
  -28.7690  -21.4620   21.4720 C   0  0  0  0  0  3  0  0  0  0  0  0
  -28.3400  -23.8430   21.8260 C   0  0  0  0  0  0  0  0  0  0  0  0
  -29.6910  -21.4380   22.5340 C   0  0  0  0  0  0  0  0  0  0  0  0
  -29.2000  -23.8160   22.9660 C   0  0  0  0  0  0  0  0  0  0  0  0
  -29.8600  -22.6080   23.3120 C   0  0  0  0  0  0  0  0  0  0  0  0
  -29.4260  -25.0350   23.8580 C   0  0  0  0  0  1  0  0  0  0  0  0
  -30.6330  -22.5700   24.4260 F   0  0  0  0  0  0  0  0  0  0  0  0
  -30.4550  -20.1480   22.8460 C   0  0  0  0  0  2  0  0  0  0  0  0
  -31.6390  -19.8180   21.8940 C   0  0  0  0  0  3  0  0  0  0  0  0
  -33.3790  -21.4430   22.9720 C   0  0  0  0  0  1  0  0  0  0  0  0
  -32.6190  -21.0010   21.7110 C   0  0  0  0  0  2  0  0  0  0  0  0
  -31.2370  -19.2640   20.4880 C   0  0  0  0  0  2  0  0  0  0  0  0
  -30.8440  -13.9320   19.2570 C   0  0  0  0  0  0  0  0  0  0  0  0
  -30.3950  -11.6130   18.4930 C   0  0  0  0  0  2  0  0  0  0  0  0
  -29.2960  -11.5310   17.4130 C   0  0  0  0  0  2  0  0  0  0  0  0
  -27.9010  -11.4720   18.0600 C   0  0  0  0  0  2  0  0  0  0  0  0
  -27.7010  -12.5820   19.1200 C   0  0  0  0  0  3  0  0  0  0  0  0
  -28.8780  -12.5860   20.1170 C   0  0  0  0  0  2  0  0  0  0  0  0
  -30.1260  -12.7750   19.3600 N   0  0  0  0  0  0  0  0  0  0  0  0
  -31.7840  -14.0430   18.4600 O   0  0  0  0  0  0  0  0  0  0  0  0
  -29.7530  -17.2080   19.7300 C   0  0  0  0  0  2  0  0  0  0  0  0
  -31.5870  -16.8740   21.4550 C   0  0  0  0  0  2  0  0  0  0  0  0
  -29.4270  -15.7620   20.1810 C   0  0  0  0  0  2  0  0  0  0  0  0
  -31.7340  -15.3950   21.0300 C   0  0  0  0  0  2  0  0  0  0  0  0
  -31.1020  -17.7280   20.2720 C   0  0  0  0  0  3  0  0  0  0  0  0
  -30.6130  -14.8770   20.2140 N   0  0  0  0  0  0  0  0  0  0  0  0
  -25.5250  -13.4180   20.2040 C   0  0  0  0  0  0  0  0  0  0  0  0
  -24.4580  -12.7460   20.7470 C   0  0  0  0  0  0  0  0  0  0  0  0
  -24.7790  -11.3580   20.6440 C   0  0  0  0  0  0  0  0  0  0  0  0
  -26.4220  -12.4400   19.8070 N   0  0  0  0  0  0  0  0  0  0  0  0
  -25.9880  -11.1960   20.1310 N   0  0  0  0  0  0  0  0  0  0  0  0
  -23.9770  -10.1670   20.9540 C   0  0  0  0  0  0  0  0  0  0  0  0
  -24.4430   -9.1780   21.8490 C   0  0  0  0  0  3  0  0  0  0  0  0
  -23.6500   -8.0480   22.1430 C   0  0  0  0  0  3  0  0  0  0  0  0
  -22.3770   -7.9010   21.5430 C   0  0  0  0  0  0  0  0  0  0  0  0
  -21.9290   -8.8760   20.6340 C   0  0  0  0  0  3  0  0  0  0  0  0
  -22.7230   -9.9960   20.3390 C   0  0  0  0  0  3  0  0  0  0  0  0
  -21.5490   -6.8240   21.7490 O   0  0  0  0  0  0  0  0  0  0  0  0
  -21.5720   -6.1120   22.9200 C   0  0  0  0  0  0  0  0  0  0  0  0
  -21.3020   -6.7180   24.1670 C   0  0  0  0  0  3  0  0  0  0  0  0
  -21.2710   -5.9360   25.3380 C   0  0  0  0  0  3  0  0  0  0  0  0
  -21.4980   -4.5480   25.2640 C   0  0  0  0  0  0  0  0  0  0  0  0
  -21.7580   -3.9410   24.0220 C   0  0  0  0  0  3  0  0  0  0  0  0
  -21.7930   -4.7220   22.8530 C   0  0  0  0  0  0  0  0  0  0  0  0
  -22.0260   -4.1320   21.6570 F   0  0  0  0  0  0  0  0  0  0  0  0
  -21.4600   -3.7910   26.3860 F   0  0  0  0  0  0  0  0  0  0  0  0
  -23.1790  -13.3470   21.2420 C   0  0  0  0  0  0  0  0  0  0  0  0
  -22.5610  -12.7310   22.2460 N   0  0  0  0  0  0  0  0  0  0  0  0
  -22.7390  -14.3970   20.7740 O   0  0  0  0  0  0  0  0  0  0  0  0
  -22.9310  -11.8780   22.6400 H   0  0  0  0  0  0  0  0  0  0  0  0
  -21.7100  -13.1170   22.6270 H   0  0  0  0  0  0  0  0  0  0  0  0
  -25.7920  -14.7660   19.9940 N   0  0  0  0  0  0  0  0  0  0  0  0
  -25.1310  -15.4990   20.2300 H   0  0  0  0  0  0  0  0  0  0  0  0
  -26.6110  -15.1140   19.5110 H   0  0  0  0  0  0  0  0  0  0  0  0
  -27.5940  -25.0810   21.3220 C   0  0  0  0  0  3  0  0  0  0  0  0
  -26.6000  -25.5230   22.3220 N   0  0  0  0  0  4  0  0  0  0  0  0
  -26.0320  -26.2670   21.9460 H   0  0  0  0  0  0  0  0  0  0  0  0
  -27.0370  -25.8220   23.1780 H   0  0  0  0  0  0  0  0  0  0  0  0
  -25.9940  -24.7480   22.5400 H   0  0  0  0  0  0  0  0  0  0  0  0
  -28.5200  -26.2080   20.7580 C   0  0  0  0  0  2  0  0  0  0  0  0
  -28.1830  -26.6480   19.4240 O   0  0  0  0  0  0  0  0  0  0  0  0
  -24.5060  -31.5060   22.9820 C   0  0  0  0  0  0  0  0  0  0  0  0
  -27.0640  -27.4300   19.4260 C   0  0  0  0  0  0  0  0  0  0  0  0
  -23.2390  -30.2000   21.3070 C   0  0  0  0  0  3  0  0  0  0  0  0
  -24.6440  -28.8430   19.6590 C   0  0  0  0  0  0  0  0  0  0  0  0
  -25.7290  -30.6700   20.9840 C   0  0  0  0  0  2  0  0  0  0  0  0
  -25.8150  -29.3560   20.2370 C   0  0  0  0  0  0  0  0  0  0  0  0
  -27.0320  -28.6540   20.1250 C   0  0  0  0  0  3  0  0  0  0  0  0
  -25.9030  -26.9590   18.7860 C   0  0  0  0  0  3  0  0  0  0  0  0
  -24.6860  -27.6510   18.9150 C   0  0  0  0  0  3  0  0  0  0  0  0
  -23.3750  -29.6440   19.8620 C   0  0  0  0  0  2  0  0  0  0  0  0
  -24.5130  -30.8000   21.8180 N   0  0  0  0  0  0  0  0  0  0  0  0
  -23.4510  -31.7000   23.6020 O   0  0  0  0  0  0  0  0  0  0  0  0
  -22.6870  -29.0790   22.2170 C   0  0  0  0  0  0  0  0  0  0  0  0
  -21.3710  -28.8300   22.1240 N   0  0  0  0  0  0  0  0  0  0  0  0
  -23.4380  -28.4410   22.9570 O   0  0  0  0  0  0  0  0  0  0  0  0
  -20.8250  -29.4100   21.5020 H   0  0  0  0  0  0  0  0  0  0  0  0
  -18.1030  -27.3450   22.5410 C   0  0  0  0  0  0  0  0  0  0  0  0
  -20.6300  -27.7990   22.8500 C   0  0  0  0  0  3  0  0  0  0  0  0
  -20.8540  -26.4090   22.2150 C   0  0  0  0  0  2  0  0  0  0  0  0
  -19.7860  -26.0410   21.1790 C   0  0  0  0  0  2  0  0  0  0  0  0
  -18.3960  -26.0410   21.8180 C   0  0  0  0  0  2  0  0  0  0  0  0
  -19.1520  -28.1790   23.0110 C   0  0  0  0  0  0  0  0  0  0  0  0
  -18.8270  -29.3980   23.6450 C   0  0  0  0  0  3  0  0  0  0  0  0
  -17.4850  -29.7880   23.8120 C   0  0  0  0  0  3  0  0  0  0  0  0
  -16.4490  -28.9510   23.3610 C   0  0  0  0  0  3  0  0  0  0  0  0
  -16.7600  -27.7310   22.7340 C   0  0  0  0  0  3  0  0  0  0  0  0
  -25.8110  -32.1300   23.5740 C   0  0  0  0  0  3  0  0  0  0  0  0
  -26.3920  -31.3040   24.7880 C   0  0  1  0  0  0  0  0  0  0  0  0
  -25.3510  -31.0090   25.8950 C   0  0  0  0  0  1  0  0  0  0  0  0
  -26.9630  -29.9480   24.3080 C   0  0  0  0  0  1  0  0  0  0  0  0
  -27.5710  -32.0700   25.4310 C   0  0  0  0  0  1  0  0  0  0  0  0
  -25.4970  -33.5070   23.9790 N   0  0  0  0  0  0  0  0  0  0  0  0
  -25.8620  -34.5980   23.2920 C   0  0  0  0  0  0  0  0  0  0  0  0
  -26.5630  -34.5490   22.2780 O   0  0  0  0  0  0  0  0  0  0  0  0
  -24.8710  -33.6190   24.7620 H   0  0  0  0  0  0  0  0  0  0  0  0
  -24.1950  -36.4510   22.9460 C   0  0  0  0  0  1  0  0  0  0  0  0
  -25.3660  -35.9610   23.8130 C   0  0  0  0  0  3  0  0  0  0  0  0
  -27.4500  -36.7360   24.8590 C   0  0  0  0  0  1  0  0  0  0  0  0
  -26.4230  -36.9940   23.8520 N   0  0  0  0  0  0  0  0  0  0  0  0
  -26.0260  -37.9120   24.0310 H   0  0  0  0  0  0  0  0  0  0  0  0
  1  2  2  0
  1  3  1  0
  2  4  1  0
  3  5  2  0
  4  9  1  0
  4  6  2  0
  5  6  1  0
  5  7  1  0
  6  8  1  0
 10 13  1  0
 10  9  1  0
 12 10  1  0
 12 11  1  0
 14 20  1  0
 14 27  1  0
 15 20  1  0
 16 17  1  0
 16 15  1  0
 18 17  1  0
 18 31  1  0
 18 19  1  0
 20 19  1  0
 21 14  2  0
 22 24  1  0
 22 26  1  0
 24 27  1  0
 25 23  1  0
 26 13  1  0
 26 23  1  0
 27 25  1  0
 28 29  2  0
 29 48  1  0
 30 29  1  0
 30 33  1  0
 31 32  1  0
 31 28  1  0
 32 30  2  0
 33 34  1  0
 34 35  2  0
 36 39  1  0
 36 35  1  0
 37 36  2  0
 38 37  1  0
 38 33  2  0
 39 40  1  0
 40 41  1  0
 41 42  2  0
 43 42  1  0
 43 47  1  0
 44 43  2  0
 45 40  2  0
 45 44  1  0
 46 45  1  0
 48 49  1  0
 49 52  1  0
 49 51  1  0
 50 48  2  0
 53 28  1  0
 53 54  1  0
 55 53  1  0
 56 61  1  0
 56  3  1  0
 56 57  1  0
 57 60  1  0
 57 59  1  0
 58 57  1  0
 62 64  1  0
 62 61  1  0
 63 74  2  0
 64 69  1  0
 65 73  1  0
 65 75  1  0
 66 72  1  0
 66 68  1  0
 67 73  1  0
 68 67  1  0
 69 68  2  0
 70 71  1  0
 70 64  2  0
 71 66  2  0
 72 65  1  0
 73 63  1  0
 75 77  2  0
 76 75  1  0
 78 76  1  0
 79 88  2  0
 79 84  1  0
 80 76  1  0
 80 84  1  0
 81 80  1  0
 82 83  1  0
 82 81  1  0
 83 79  1  0
 84 85  2  0
 85 86  1  0
 87 86  2  0
 88 87  1  0
 89 63  1  0
 89 94  1  0
 89 90  1  0
 90 93  1  1
 90 91  1  0
 92 90  1  0
 94 97  1  0
 95 99  1  0
 95 94  1  0
 96 95  2  0
 99 98  1  0
 99101  1  0
101102  1  0
101100  1  0
M  ISO  4  14 100  27 100  61 101  62 101
M  END
>  <TORSDO>  (79) 
F 23

>  <SCORE>  (79) 
-10.646

>  <name>  (79) 
79

>  <ligand_id>  (79) 
79

>  <original_smiles>  (79) 
[H]c1c([H])c([H])c2c(c1[H])C([H])([H])C([H])([H])C([H])([H])C2([H])N([H])C(=O)C1([H])N(C(=O)C([H])(N([H])C(=O)C([H])(N([H])C([H])([H])[H])C([H])([H])[H])C(C([H])([H])[H])(C([H])([H])[H])C([H])([H])[H])C([H])([H])c2c([H])c(OC([H])([H])C([H])(c3c([H])c([H])c(C([H])([H])C([H])(C([H])([H])C([H])([H])[H])C([H])([H])C4([H])C([H])([H])C([H])([H])N(C(=O)N5C([H])([H])C([H])([H])C([H])([H])C([H])(n6nc(-c7c([H])c([H])c(Oc8c([H])c([H])c(F)c([H])c8F)c([H])c7[H])c(C(=O)N([H])[H])c6N([H])[H])C5([H])[H])C([H])([H])C4([H])[H])c(F)c3C([H])([H])[H])[N+]([H])([H])[H])c([H])c([H])c2C1([H])[H]

>  <smiles>  (79) 
[H]c1c([H])c([H])c2c(c1[H])C([H])([H])C([H])([H])C([H])([H])C2([H])N([H])C(=O)C1([H])N(C(=O)C([H])(N([H])C(=O)C([H])(N([H])C([H])([H])[H])C([H])([H])[H])C(C([H])([H])[H])(C([H])([H])[H])C([H])([H])[H])C([H])([H])c2c([H])c(OC([H])([H])C([H])(c3c([H])c([H])c(C([H])([H])C([H])(C([H])([H])C([H])([H])[H])C([H])([H])C4([H])C([H])([H])C([H])([H])N(C(=O)N5C([H])([H])C([H])([H])C([H])([H])C([H])(n6nc(-c7c([H])c([H])c(Oc8c([H])c([H])c(F)c([H])c8F)c([H])c7[H])c(C(=O)N([H])[H])c6N([H])[H])C5([H])[H])C([H])([H])C4([H])[H])c(F)c3C([H])([H])[H])[N+]([H])([H])[H])c([H])c([H])c2C1([H])[H]

$$$$
80:0:0
     RDKit          3D

 97105  0  0  1  0  0  0  0  0999 V2000
  -28.0270  -24.7220   21.3880 C   0  0  0  0  0  3  0  0  0  0  0  0
  -26.6400  -22.9190   20.5160 C   0  0  0  0  0  3  0  0  0  0  0  0
  -28.1690  -24.1030   19.0330 C   0  0  0  0  0  3  0  0  0  0  0  0
  -27.0540  -23.7240   21.5940 C   0  0  0  0  0  0  0  0  0  0  0  0
  -28.5810  -24.9190   20.1080 C   0  0  0  0  0  0  0  0  0  0  0  0
  -27.1810  -23.1150   19.2260 C   0  0  0  0  0  0  0  0  0  0  0  0
  -26.4340  -23.5270   22.9610 C   0  0  0  0  0  1  0  0  0  0  0  0
  -29.6000  -26.0290   19.8860 C   0  0  0  0  0  2  0  0  0  0  0  0
  -29.3090  -27.2110   20.6310 O   0  0  0  0  0  0  0  0  0  0  0  0
  -24.8440  -31.9740   23.4160 C   0  0  0  0  0  0  0  0  0  0  0  0
  -28.0600  -27.7900   20.5320 C   0  0  0  0  0  0  0  0  0  0  0  0
  -23.8840  -30.5200   21.6610 C   0  0  0  0  0  3  0  0  0  0  0  0
  -25.5570  -29.1040   20.3660 C   0  0  0  0  0  0  0  0  0  0  0  0
  -26.3870  -31.0500   21.6960 C   0  0  0  0  0  2  0  0  0  0  0  0
  -26.6190  -29.6990   21.0560 C   0  0  0  0  0  0  0  0  0  0  0  0
  -27.8660  -29.0470   21.1440 C   0  0  0  0  0  3  0  0  0  0  0  0
  -26.9720  -27.1980   19.8430 C   0  0  0  0  0  3  0  0  0  0  0  0
  -25.7270  -27.8460   19.7620 C   0  0  0  0  0  3  0  0  0  0  0  0
  -24.2600  -29.8760   20.3020 C   0  0  0  0  0  2  0  0  0  0  0  0
  -25.0490  -31.1960   22.3170 N   0  0  0  0  0  0  0  0  0  0  0  0
  -23.7050  -32.1700   23.8590 O   0  0  0  0  0  0  0  0  0  0  0  0
  -23.2240  -29.4400   22.5500 C   0  0  0  0  0  0  0  0  0  0  0  0
  -21.9150  -29.2190   22.3480 N   0  0  0  0  0  0  0  0  0  0  0  0
  -23.8880  -28.8070   23.3760 O   0  0  0  0  0  0  0  0  0  0  0  0
  -21.4420  -29.7830   21.6560 H   0  0  0  0  0  0  0  0  0  0  0  0
  -18.5450  -27.9760   22.7100 C   0  0  0  0  0  0  0  0  0  0  0  0
  -21.0940  -28.2300   23.0440 C   0  0  0  0  0  3  0  0  0  0  0  0
  -21.2180  -26.8380   22.3810 C   0  0  0  0  0  2  0  0  0  0  0  0
  -20.1370  -26.5740   21.3290 C   0  0  0  0  0  2  0  0  0  0  0  0
  -18.7420  -26.6720   21.9540 C   0  0  0  0  0  2  0  0  0  0  0  0
  -19.6510  -28.7150   23.2060 C   0  0  0  0  0  0  0  0  0  0  0  0
  -19.4160  -29.9390   23.8680 C   0  0  0  0  0  3  0  0  0  0  0  0
  -18.1060  -30.4250   24.0400 C   0  0  0  0  0  3  0  0  0  0  0  0
  -17.0140  -29.6840   23.5610 C   0  0  0  0  0  3  0  0  0  0  0  0
  -17.2330  -28.4600   22.9020 C   0  0  0  0  0  3  0  0  0  0  0  0
  -26.0270  -32.6780   24.1520 C   0  0  0  0  0  3  0  0  0  0  0  0
  -26.4280  -31.9740   25.5070 C   0  0  1  0  0  0  0  0  0  0  0  0
  -25.2290  -31.7100   26.4460 C   0  0  0  0  0  1  0  0  0  0  0  0
  -27.1240  -30.6170   25.2370 C   0  0  0  0  0  1  0  0  0  0  0  0
  -27.4440  -32.8520   26.2750 C   0  0  0  0  0  1  0  0  0  0  0  0
  -25.6350  -34.0740   24.3870 N   0  0  0  0  0  0  0  0  0  0  0  0
  -25.9930  -35.1040   23.6090 C   0  0  0  0  0  0  0  0  0  0  0  0
  -26.7620  -34.9870   22.6520 O   0  0  0  0  0  0  0  0  0  0  0  0
  -24.9670  -34.2400   25.1240 H   0  0  0  0  0  0  0  0  0  0  0  0
  -24.2180  -36.7860   23.0170 C   0  0  0  0  0  1  0  0  0  0  0  0
  -25.4040  -36.4860   23.9480 C   0  0  0  0  0  3  0  0  0  0  0  0
  -27.4180  -37.5140   24.9030 C   0  0  0  0  0  1  0  0  0  0  0  0
  -26.3890  -37.5860   23.8670 N   0  0  0  0  0  0  0  0  0  0  0  0
  -25.9270  -38.4880   23.9400 H   0  0  0  0  0  0  0  0  0  0  0  0
  -26.7060  -22.2670   18.0510 C   0  0  0  0  0  3  0  0  0  0  0  0
  -27.0210  -20.8570   18.3570 N   0  0  0  0  0  4  0  0  0  0  0  0
  -27.8540  -20.8820   18.9210 H   0  0  0  0  0  0  0  0  0  0  0  0
  -26.2910  -20.4590   18.9240 H   0  0  0  0  0  0  0  0  0  0  0  0
  -27.3280  -19.9800   17.2070 C   0  0  0  0  0  2  0  0  0  0  0  0
  -28.0470  -18.7000   17.6760 C   0  0  0  0  0  2  0  0  0  0  0  0
  -29.4660  -18.9360   18.2470 C   0  0  0  0  0  2  0  0  0  0  0  0
  -29.7000  -18.3060   19.6360 C   0  0  0  0  0  2  0  0  0  0  0  0
  -29.7610  -16.7670   19.6070 C   0  0  0  0  0  2  0  0  0  0  0  0
  -30.2650  -16.1340   20.9270 C   0  0  0  0  0  2  0  0  0  0  0  0
  -30.9430  -14.7770   20.6620 C   0  0  0  0  0  0  0  0  0  0  0  0
  -30.6380  -12.4920   19.8070 C   0  0  0  0  0  2  0  0  0  0  0  0
  -29.8370  -12.5360   18.4810 C   0  0  0  0  0  2  0  0  0  0  0  0
  -28.3370  -12.8750   18.6630 C   0  0  0  0  0  2  0  0  0  0  0  0
  -27.9260  -12.9370   20.1320 C   0  0  0  0  0  3  0  0  0  0  0  0
  -28.8590  -13.5250   21.1840 C   0  0  0  0  0  2  0  0  0  0  0  0
  -30.2240  -13.6300   20.6520 N   0  0  0  0  0  0  0  0  0  0  0  0
  -32.1160  -14.8220   20.2950 O   0  0  0  0  0  0  0  0  0  0  0  0
  -25.5150  -13.9890   20.5420 C   0  0  0  0  0  0  0  0  0  0  0  0
  -24.3590  -13.3010   20.8240 C   0  0  0  0  0  0  0  0  0  0  0  0
  -24.7210  -11.9240   20.8320 C   0  0  0  0  0  0  0  0  0  0  0  0
  -26.5020  -13.0030   20.4230 N   0  0  0  0  0  0  0  0  0  0  0  0
  -25.9970  -11.7810   20.6310 N   0  0  0  0  0  0  0  0  0  0  0  0
  -23.9590  -10.6920   20.9590 C   0  0  0  0  0  0  0  0  0  0  0  0
  -24.3440   -9.6990   21.8860 C   0  0  0  0  0  3  0  0  0  0  0  0
  -23.6030   -8.5070   21.9890 C   0  0  0  0  0  3  0  0  0  0  0  0
  -22.4730   -8.3070   21.1640 C   0  0  0  0  0  0  0  0  0  0  0  0
  -22.1190   -9.2870   20.2220 C   0  0  0  0  0  3  0  0  0  0  0  0
  -22.8590  -10.4730   20.1150 C   0  0  0  0  0  3  0  0  0  0  0  0
  -21.7030   -7.1730   21.1850 O   0  0  0  0  0  0  0  0  0  0  0  0
  -21.5870   -6.4090   22.3170 C   0  0  0  0  0  0  0  0  0  0  0  0
  -21.1350   -6.9490   23.5400 C   0  0  0  0  0  3  0  0  0  0  0  0
  -20.9560   -6.1080   24.6570 C   0  0  0  0  0  3  0  0  0  0  0  0
  -21.2280   -4.7310   24.5520 C   0  0  0  0  0  0  0  0  0  0  0  0
  -21.6770   -4.1930   23.3330 C   0  0  0  0  0  3  0  0  0  0  0  0
  -21.8520   -5.0290   22.2190 C   0  0  0  0  0  0  0  0  0  0  0  0
  -22.2670   -4.5050   21.0410 F   0  0  0  0  0  0  0  0  0  0  0  0
  -21.0480   -3.9170   25.6200 F   0  0  0  0  0  0  0  0  0  0  0  0
  -22.9690  -13.8430   21.0000 C   0  0  0  0  0  0  0  0  0  0  0  0
  -22.1560  -13.1720   21.8090 N   0  0  0  0  0  0  0  0  0  0  0  0
  -22.6050  -14.8790   20.4440 O   0  0  0  0  0  0  0  0  0  0  0  0
  -22.4620  -12.3380   22.2880 H   0  0  0  0  0  0  0  0  0  0  0  0
  -21.2140  -13.5030   21.9620 H   0  0  0  0  0  0  0  0  0  0  0  0
  -25.7880  -15.3420   20.3820 N   0  0  0  0  0  0  0  0  0  0  0  0
  -25.0640  -16.0470   20.4270 H   0  0  0  0  0  0  0  0  0  0  0  0
  -26.6930  -15.7020   20.1110 H   0  0  0  0  0  0  0  0  0  0  0  0
  -24.8040  -23.9610   17.5320 C   0  0  0  0  0  1  0  0  0  0  0  0
  -25.2070  -22.4850   17.7210 C   0  0  0  0  0  2  0  0  0  0  0  0
  1  4  1  0
  2  4  2  0
  3  6  2  0
  3  5  1  0
  4  7  1  0
  5  1  2  0
  6  2  1  0
  8  5  1  0
  8  9  1  0
 10 21  2  0
 11  9  1  0
 11 16  1  0
 12 20  1  0
 12 22  1  0
 13 15  1  0
 14 20  1  0
 15 16  2  0
 15 14  1  0
 17 11  2  0
 18 17  1  0
 18 13  2  0
 19 13  1  0
 19 12  1  0
 20 10  1  0
 22 24  2  0
 23 22  1  0
 25 23  1  0
 26 35  2  0
 26 31  1  0
 27 23  1  0
 27 31  1  0
 28 27  1  0
 29 30  1  0
 29 28  1  0
 30 26  1  0
 31 32  2  0
 32 33  1  0
 34 33  2  0
 35 34  1  0
 36 10  1  0
 36 41  1  0
 36 37  1  0
 37 40  1  1
 37 38  1  0
 39 37  1  0
 41 44  1  0
 42 46  1  0
 42 41  1  0
 43 42  2  0
 46 45  1  0
 48 49  1  0
 48 46  1  0
 48 47  1  0
 50 97  1  0
 50 51  1  0
 50  6  1  0
 51 52  1  0
 51 53  1  0
 54 55  1  0
 54 51  1  0
 55 56  1  0
 56 57  1  0
 58 57  1  0
 58 59  1  0
 60 59  1  0
 61 66  1  0
 62 63  1  0
 62 61  1  0
 64 63  1  0
 64 71  1  0
 64 65  1  0
 66 60  1  0
 66 65  1  0
 67 60  2  0
 68 69  2  0
 69 70  1  0
 69 88  1  0
 70 73  1  0
 71 68  1  0
 71 72  1  0
 72 70  2  0
 73 74  1  0
 74 75  2  0
 76 79  1  0
 76 75  1  0
 77 76  2  0
 78 77  1  0
 78 73  2  0
 79 80  1  0
 80 81  1  0
 81 82  2  0
 83 82  1  0
 83 87  1  0
 84 83  2  0
 85 80  2  0
 85 84  1  0
 86 85  1  0
 88 89  1  0
 89 92  1  0
 89 91  1  0
 90 88  2  0
 93 94  1  0
 93 68  1  0
 95 93  1  0
 96 97  1  0
M  ISO  4   8 101   9 101  59 100  60 100
M  END
>  <TORSDO>  (80) 
F 26

>  <SCORE>  (80) 
-10.388

>  <name>  (80) 
80

>  <ligand_id>  (80) 
80

>  <original_smiles>  (80) 
[H]c1c([H])c([H])c2c(c1[H])C([H])([H])C([H])([H])C([H])([H])C2([H])N([H])C(=O)C1([H])N(C(=O)C([H])(N([H])C(=O)C([H])(N([H])C([H])([H])[H])C([H])([H])[H])C(C([H])([H])[H])(C([H])([H])[H])C([H])([H])[H])C([H])([H])c2c([H])c(OC([H])([H])c3c([H])c(C([H])([H])[H])c([H])c(C([H])(C([H])([H])C([H])([H])[H])[N+]([H])([H])C([H])([H])C([H])([H])C([H])([H])C([H])([H])C([H])([H])C([H])([H])C(=O)N4C([H])([H])C([H])([H])C([H])([H])C([H])(n5nc(-c6c([H])c([H])c(Oc7c([H])c([H])c(F)c([H])c7F)c([H])c6[H])c(C(=O)N([H])[H])c5N([H])[H])C4([H])[H])c3[H])c([H])c([H])c2C1([H])[H]

>  <smiles>  (80) 
[H]c1c([H])c([H])c2c(c1[H])C([H])([H])C([H])([H])C([H])([H])C2([H])N([H])C(=O)C1([H])N(C(=O)C([H])(N([H])C(=O)C([H])(N([H])C([H])([H])[H])C([H])([H])[H])C(C([H])([H])[H])(C([H])([H])[H])C([H])([H])[H])C([H])([H])c2c([H])c(OC([H])([H])c3c([H])c(C([H])([H])[H])c([H])c(C([H])(C([H])([H])C([H])([H])[H])[N+]([H])([H])C([H])([H])C([H])([H])C([H])([H])C([H])([H])C([H])([H])C([H])([H])C(=O)N4C([H])([H])C([H])([H])C([H])([H])C([H])(n5nc(-c6c([H])c([H])c(Oc7c([H])c([H])c(F)c([H])c7F)c([H])c6[H])c(C(=O)N([H])[H])c5N([H])[H])C4([H])[H])c3[H])c([H])c([H])c2C1([H])[H]

$$$$
81:0:0
     RDKit          3D

 94102  0  0  1  0  0  0  0  0999 V2000
  -29.1050  -26.3800   24.6310 C   0  0  0  0  0  3  0  0  0  0  0  0
  -29.0500  -24.9840   24.4920 C   0  0  0  0  0  3  0  0  0  0  0  0
  -29.5780  -27.1680   23.5700 C   0  0  0  0  0  3  0  0  0  0  0  0
  -29.9780  -25.1530   22.2410 C   0  0  0  0  0  3  0  0  0  0  0  0
  -29.4810  -24.3530   23.3030 C   0  0  0  0  0  0  0  0  0  0  0  0
  -30.0110  -26.5670   22.3680 C   0  0  0  0  0  0  0  0  0  0  0  0
  -29.3090  -22.8730   23.2090 C   0  0  0  0  0  0  0  0  0  0  0  0
  -28.4810  -22.2790   23.9100 O   0  0  0  0  0  0  0  0  0  0  0  0
  -30.2070  -22.0540   22.2560 C   0  0  0  0  0  2  0  0  0  0  0  0
  -29.9970  -20.5300   22.4530 C   0  0  0  0  0  2  0  0  0  0  0  0
  -30.8260  -19.5860   21.5640 C   0  0  0  0  0  2  0  0  0  0  0  0
  -30.4720  -18.1160   21.8770 C   0  0  0  0  0  2  0  0  0  0  0  0
  -31.1780  -17.0670   20.9980 C   0  0  0  0  0  2  0  0  0  0  0  0
  -30.6690  -15.6330   21.2880 C   0  0  0  0  0  2  0  0  0  0  0  0
  -31.2140  -14.5540   20.3270 C   0  0  0  0  0  0  0  0  0  0  0  0
  -30.7740  -12.5520   18.9470 C   0  0  0  0  0  2  0  0  0  0  0  0
  -29.8110  -12.9170   17.8000 C   0  0  0  0  0  2  0  0  0  0  0  0
  -28.3420  -12.8170   18.2580 C   0  0  0  0  0  2  0  0  0  0  0  0
  -28.0840  -13.5490   19.6030 C   0  0  0  0  0  3  0  0  0  0  0  0
  -29.1510  -13.1510   20.6500 C   0  0  0  0  0  2  0  0  0  0  0  0
  -30.4770  -13.4400   20.0800 N   0  0  0  0  0  0  0  0  0  0  0  0
  -32.2910  -14.7680   19.7610 O   0  0  0  0  0  0  0  0  0  0  0  0
  -25.7170  -14.2210   20.3640 C   0  0  0  0  0  0  0  0  0  0  0  0
  -24.6240  -13.4760   20.7200 C   0  0  0  0  0  0  0  0  0  0  0  0
  -25.0330  -12.1090   20.6290 C   0  0  0  0  0  0  0  0  0  0  0  0
  -26.7260  -13.3100   20.0880 N   0  0  0  0  0  0  0  0  0  0  0  0
  -26.3160  -12.0330   20.3010 N   0  0  0  0  0  0  0  0  0  0  0  0
  -24.2620  -10.8690   20.7830 C   0  0  0  0  0  0  0  0  0  0  0  0
  -24.6650   -9.8570   21.6820 C   0  0  0  0  0  3  0  0  0  0  0  0
  -23.8980   -8.6800   21.8250 C   0  0  0  0  0  3  0  0  0  0  0  0
  -22.7130   -8.5090   21.0700 C   0  0  0  0  0  0  0  0  0  0  0  0
  -22.3290   -9.5090   20.1600 C   0  0  0  0  0  3  0  0  0  0  0  0
  -23.0960  -10.6770   20.0150 C   0  0  0  0  0  3  0  0  0  0  0  0
  -21.9180   -7.3890   21.1250 O   0  0  0  0  0  0  0  0  0  0  0  0
  -21.8270   -6.6260   22.2620 C   0  0  0  0  0  0  0  0  0  0  0  0
  -21.4390   -7.1810   23.5010 C   0  0  0  0  0  3  0  0  0  0  0  0
  -21.2900   -6.3480   24.6280 C   0  0  0  0  0  3  0  0  0  0  0  0
  -21.5190   -4.9630   24.5180 C   0  0  0  0  0  0  0  0  0  0  0  0
  -21.9010   -4.4090   23.2830 C   0  0  0  0  0  3  0  0  0  0  0  0
  -22.0510   -5.2390   22.1580 C   0  0  0  0  0  0  0  0  0  0  0  0
  -22.3980   -4.6970   20.9660 F   0  0  0  0  0  0  0  0  0  0  0  0
  -21.3690   -4.1630   25.5990 F   0  0  0  0  0  0  0  0  0  0  0  0
  -23.2490  -13.9930   21.0330 C   0  0  0  0  0  0  0  0  0  0  0  0
  -22.5180  -13.3050   21.9020 N   0  0  0  0  0  0  0  0  0  0  0  0
  -22.8350  -15.0440   20.5450 O   0  0  0  0  0  0  0  0  0  0  0  0
  -22.8650  -12.4540   22.3190 H   0  0  0  0  0  0  0  0  0  0  0  0
  -21.5970  -13.6330   22.1560 H   0  0  0  0  0  0  0  0  0  0  0  0
  -25.9310  -15.5900   20.2360 N   0  0  0  0  0  0  0  0  0  0  0  0
  -25.1930  -16.2710   20.3810 H   0  0  0  0  0  0  0  0  0  0  0  0
  -26.7990  -16.0080   19.9280 H   0  0  0  0  0  0  0  0  0  0  0  0
  -32.0460  -27.4390   21.1670 C   0  0  0  0  0  1  0  0  0  0  0  0
  -30.5120  -27.4830   21.2510 C   0  0  0  0  0  3  0  0  0  0  0  0
  -29.8730  -27.2430   19.8630 C   0  0  0  0  0  2  0  0  0  0  0  0
  -28.5710  -26.6720   19.8800 O   0  0  0  0  0  0  0  0  0  0  0  0
  -24.7710  -31.7740   23.1780 C   0  0  0  0  0  0  0  0  0  0  0  0
  -27.4500  -27.4630   19.9680 C   0  0  0  0  0  0  0  0  0  0  0  0
  -23.5580  -30.3760   21.5350 C   0  0  0  0  0  3  0  0  0  0  0  0
  -25.0150  -28.8930   20.0600 C   0  0  0  0  0  0  0  0  0  0  0  0
  -26.0700  -30.7980   21.2910 C   0  0  0  0  0  2  0  0  0  0  0  0
  -26.1740  -29.4430   20.6250 C   0  0  0  0  0  0  0  0  0  0  0  0
  -27.3980  -28.7390   20.5750 C   0  0  0  0  0  3  0  0  0  0  0  0
  -26.2710  -26.9160   19.4240 C   0  0  0  0  0  3  0  0  0  0  0  0
  -25.0560  -27.6250   19.4570 C   0  0  0  0  0  3  0  0  0  0  0  0
  -23.7540  -29.7220   20.1410 C   0  0  0  0  0  2  0  0  0  0  0  0
  -24.8190  -30.9960   22.0590 N   0  0  0  0  0  0  0  0  0  0  0  0
  -23.6960  -32.0170   23.7430 O   0  0  0  0  0  0  0  0  0  0  0  0
  -22.9450  -29.3280   22.4910 C   0  0  0  0  0  0  0  0  0  0  0  0
  -21.6180  -29.1440   22.4020 N   0  0  0  0  0  0  0  0  0  0  0  0
  -23.6580  -28.6860   23.2660 O   0  0  0  0  0  0  0  0  0  0  0  0
  -21.1040  -29.7140   21.7460 H   0  0  0  0  0  0  0  0  0  0  0  0
  -18.2630  -27.9380   22.9900 C   0  0  0  0  0  0  0  0  0  0  0  0
  -20.8300  -28.1840   23.1750 C   0  0  0  0  0  3  0  0  0  0  0  0
  -20.9080  -26.7720   22.5510 C   0  0  0  0  0  2  0  0  0  0  0  0
  -19.7680  -26.4810   21.5710 C   0  0  0  0  0  2  0  0  0  0  0  0
  -18.4110  -26.6090   22.2710 C   0  0  0  0  0  2  0  0  0  0  0  0
  -19.3990  -28.6850   23.4020 C   0  0  0  0  0  0  0  0  0  0  0  0
  -19.2080  -29.9310   24.0370 C   0  0  0  0  0  3  0  0  0  0  0  0
  -17.9110  -30.4300   24.2650 C   0  0  0  0  0  3  0  0  0  0  0  0
  -16.7900  -29.6800   23.8710 C   0  0  0  0  0  3  0  0  0  0  0  0
  -16.9670  -28.4350   23.2380 C   0  0  0  0  0  3  0  0  0  0  0  0
  -26.0590  -32.4150   23.7820 C   0  0  0  0  0  3  0  0  0  0  0  0
  -26.6100  -31.6390   25.0400 C   0  0  1  0  0  0  0  0  0  0  0  0
  -25.5390  -31.3810   26.1260 C   0  0  0  0  0  1  0  0  0  0  0  0
  -27.2020  -30.2710   24.6210 C   0  0  0  0  0  1  0  0  0  0  0  0
  -27.7610  -32.4430   25.6890 C   0  0  0  0  0  1  0  0  0  0  0  0
  -25.7400  -33.8070   24.1270 N   0  0  0  0  0  0  0  0  0  0  0  0
  -26.0540  -34.8680   23.3730 C   0  0  0  0  0  0  0  0  0  0  0  0
  -26.7140  -34.7800   22.3350 O   0  0  0  0  0  0  0  0  0  0  0  0
  -25.1500  -33.9490   24.9350 H   0  0  0  0  0  0  0  0  0  0  0  0
  -24.2970  -36.6370   23.0520 C   0  0  0  0  0  1  0  0  0  0  0  0
  -25.5540  -36.2460   23.8460 C   0  0  0  0  0  3  0  0  0  0  0  0
  -27.6890  -37.1500   24.6500 C   0  0  0  0  0  1  0  0  0  0  0  0
  -26.5700  -37.3140   23.7260 N   0  0  0  0  0  0  0  0  0  0  0  0
  -26.1530  -38.2260   23.8890 H   0  0  0  0  0  0  0  0  0  0  0  0
  2  1  1  0
  3  1  2  0
  4  6  2  0
  4  5  1  0
  5  2  2  0
  6  3  1  0
  7  5  1  0
  7  8  2  0
  9 10  1  0
  9  7  1  0
 11 12  1  0
 11 10  1  0
 13 14  1  0
 13 12  1  0
 15 14  1  0
 16 21  1  0
 17 18  1  0
 17 16  1  0
 19 18  1  0
 19 26  1  0
 19 20  1  0
 21 15  1  0
 21 20  1  0
 22 15  2  0
 23 24  2  0
 24 43  1  0
 25 24  1  0
 25 28  1  0
 26 27  1  0
 26 23  1  0
 27 25  2  0
 28 29  1  0
 29 30  2  0
 31 34  1  0
 31 30  1  0
 32 31  2  0
 33 32  1  0
 33 28  2  0
 34 35  1  0
 35 36  1  0
 36 37  2  0
 38 37  1  0
 38 42  1  0
 39 38  2  0
 40 35  2  0
 40 39  1  0
 41 40  1  0
 43 44  1  0
 44 47  1  0
 44 46  1  0
 45 43  2  0
 48 23  1  0
 48 49  1  0
 50 48  1  0
 52 51  1  0
 52  6  1  0
 53 54  1  0
 53 52  1  0
 54 56  1  0
 55 66  2  0
 56 61  1  0
 57 65  1  0
 57 67  1  0
 58 64  1  0
 58 60  1  0
 59 65  1  0
 60 59  1  0
 61 60  2  0
 62 63  1  0
 62 56  2  0
 63 58  2  0
 64 57  1  0
 65 55  1  0
 67 69  2  0
 68 67  1  0
 70 68  1  0
 71 80  2  0
 71 76  1  0
 72 68  1  0
 72 76  1  0
 73 72  1  0
 74 75  1  0
 74 73  1  0
 75 71  1  0
 76 77  2  0
 77 78  1  0
 79 78  2  0
 80 79  1  0
 81 55  1  0
 81 86  1  0
 81 82  1  0
 82 85  1  1
 82 83  1  0
 84 82  1  0
 86 89  1  0
 87 91  1  0
 87 86  1  0
 88 87  2  0
 91 90  1  0
 93 91  1  0
 93 94  1  0
 93 92  1  0
M  ISO  4  14 100  15 100  53 101  54 101
M  END
>  <TORSDO>  (81) 
F 25

>  <SCORE>  (81) 
-9.094

>  <name>  (81) 
81

>  <ligand_id>  (81) 
81

>  <original_smiles>  (81) 
[H]c1c([H])c([H])c2c(c1[H])C([H])([H])C([H])([H])C([H])([H])C2([H])N([H])C(=O)C1([H])N(C(=O)C([H])(N([H])C(=O)C([H])(N([H])C([H])([H])[H])C([H])([H])[H])C(C([H])([H])[H])(C([H])([H])[H])C([H])([H])[H])C([H])([H])c2c([H])c(OC([H])([H])C([H])(c3c([H])c([H])c([H])c(C(=O)C([H])([H])C([H])([H])C([H])([H])C([H])([H])C([H])([H])C([H])([H])C(=O)N4C([H])([H])C([H])([H])C([H])([H])C([H])(n5nc(-c6c([H])c([H])c(Oc7c([H])c([H])c(F)c([H])c7F)c([H])c6[H])c(C(=O)N([H])[H])c5N([H])[H])C4([H])[H])c3[H])C([H])([H])[H])c([H])c([H])c2C1([H])[H]

>  <smiles>  (81) 
[H]c1c([H])c([H])c2c(c1[H])C([H])([H])C([H])([H])C([H])([H])C2([H])N([H])C(=O)C1([H])N(C(=O)C([H])(N([H])C(=O)C([H])(N([H])C([H])([H])[H])C([H])([H])[H])C(C([H])([H])[H])(C([H])([H])[H])C([H])([H])[H])C([H])([H])c2c([H])c(OC([H])([H])C([H])(c3c([H])c([H])c([H])c(C(=O)C([H])([H])C([H])([H])C([H])([H])C([H])([H])C([H])([H])C([H])([H])C(=O)N4C([H])([H])C([H])([H])C([H])([H])C([H])(n5nc(-c6c([H])c([H])c(Oc7c([H])c([H])c(F)c([H])c7F)c([H])c6[H])c(C(=O)N([H])[H])c5N([H])[H])C4([H])[H])c3[H])C([H])([H])[H])c([H])c([H])c2C1([H])[H]

$$$$
82:0:0
     RDKit          3D

 99107  0  0  1  0  0  0  0  0999 V2000
  -28.7100  -28.7330   21.4100 C   0  0  0  0  0  3  0  0  0  0  0  0
  -27.3970  -29.5650   20.7840 C   0  0  0  0  0  3  0  0  0  0  0  0
  -27.4400  -26.7540   22.9640 C   0  0  0  0  0  3  0  0  0  0  0  0
  -28.7330  -27.2970   22.2570 C   0  0  0  0  0  3  0  0  0  0  0  0
  -25.7570  -29.1160   21.1770 C   0  0  0  0  0  0  0  0  0  0  0  0
  -25.8850  -27.2290   22.6700 C   0  0  0  0  0  0  0  0  0  0  0  0
  -29.8400  -26.0020   21.9520 C   0  0  0  0  0  0  0  0  0  0  0  0
  -31.0250  -26.2580   22.1820 O   0  0  0  0  0  0  0  0  0  0  0  0
  -29.6160  -24.3750   21.3020 C   0  0  0  0  0  3  0  0  0  0  0  0
  -30.6240  -22.8580   21.2570 C   0  0  0  0  0  3  0  0  0  0  0  0
  -30.4480  -21.1940   20.5240 C   0  0  0  0  0  3  0  0  0  0  0  0
  -31.1030  -19.5240   20.8700 C   0  0  0  0  0  3  0  0  0  0  0  0
  -31.1540  -17.8950   20.0340 C   0  0  0  0  0  2  0  0  0  0  0  0
  -30.9260  -16.1430   20.5170 C   0  0  0  0  0  2  0  0  0  0  0  0
  -31.4320  -14.5340   19.9430 C   0  0  0  0  0  0  0  0  0  0  0  0
  -31.0740  -12.0960   19.0120 C   0  0  0  0  0  2  0  0  0  0  0  0
  -30.0710  -11.9710   17.8280 C   0  0  0  0  0  2  0  0  0  0  0  0
  -28.6250  -11.8670   18.3360 C   0  0  0  0  0  2  0  0  0  0  0  0
  -28.3450  -12.8940   19.4570 C   0  0  0  0  0  3  0  0  0  0  0  0
  -29.4500  -12.9210   20.5420 C   0  0  0  0  0  2  0  0  0  0  0  0
  -30.7220  -13.2860   19.8920 N   0  0  0  0  0  0  0  0  0  0  0  0
  -32.5750  -14.4080   19.4830 O   0  0  0  0  0  0  0  0  0  0  0  0
  -26.1350  -13.7530   20.4020 C   0  0  0  0  0  0  0  0  0  0  0  0
  -24.9870  -13.1220   20.7960 C   0  0  0  0  0  0  0  0  0  0  0  0
  -25.2290  -11.7230   20.6430 C   0  0  0  0  0  0  0  0  0  0  0  0
  -27.0100  -12.7480   20.0270 N   0  0  0  0  0  0  0  0  0  0  0  0
  -26.4780  -11.5140   20.2330 N   0  0  0  0  0  0  0  0  0  0  0  0
  -24.3220  -10.5770   20.8050 C   0  0  0  0  0  0  0  0  0  0  0  0
  -24.6610   -9.4730   21.6180 C   0  0  0  0  0  3  0  0  0  0  0  0
  -23.7620   -8.3950   21.7750 C   0  0  0  0  0  3  0  0  0  0  0  0
  -22.5070   -8.4170   21.1200 C   0  0  0  0  0  0  0  0  0  0  0  0
  -22.1840   -9.5070   20.2950 C   0  0  0  0  0  3  0  0  0  0  0  0
  -23.0820  -10.5750   20.1350 C   0  0  0  0  0  3  0  0  0  0  0  0
  -21.5830   -7.4020   21.1940 O   0  0  0  0  0  0  0  0  0  0  0  0
  -21.4890   -6.5920   22.2980 C   0  0  0  0  0  0  0  0  0  0  0  0
  -21.2330   -7.1130   23.5860 C   0  0  0  0  0  3  0  0  0  0  0  0
  -21.0750   -6.2400   24.6800 C   0  0  0  0  0  3  0  0  0  0  0  0
  -21.1620   -4.8480   24.4890 C   0  0  0  0  0  0  0  0  0  0  0  0
  -21.4100   -4.3270   23.2070 C   0  0  0  0  0  3  0  0  0  0  0  0
  -21.5710   -5.1970   22.1150 C   0  0  0  0  0  0  0  0  0  0  0  0
  -21.7890   -4.6880   20.8780 F   0  0  0  0  0  0  0  0  0  0  0  0
  -21.0020   -4.0100   25.5390 F   0  0  0  0  0  0  0  0  0  0  0  0
  -23.7040  -13.7880   21.1990 C   0  0  0  0  0  0  0  0  0  0  0  0
  -22.9530  -13.1760   22.1080 N   0  0  0  0  0  0  0  0  0  0  0  0
  -23.3870  -14.8860   20.7440 O   0  0  0  0  0  0  0  0  0  0  0  0
  -23.2220  -12.2830   22.4940 H   0  0  0  0  0  0  0  0  0  0  0  0
  -22.0970  -13.6080   22.4230 H   0  0  0  0  0  0  0  0  0  0  0  0
  -26.5070  -15.0910   20.3070 N   0  0  0  0  0  0  0  0  0  0  0  0
  -25.8700  -15.8510   20.5210 H   0  0  0  0  0  0  0  0  0  0  0  0
  -27.3950  -15.4090   19.9410 H   0  0  0  0  0  0  0  0  0  0  0  0
  -25.5290  -25.1590   24.3940 C   0  0  0  0  0  1  0  0  0  0  0  0
  -25.3150  -25.7210   22.9280 C   0  0  0  0  0  3  0  0  0  0  0  0
  -25.6390  -23.3490   22.2320 C   0  0  0  0  0  1  0  0  0  0  0  0
  -25.9720  -24.7350   22.0990 O   0  0  0  0  0  0  0  0  0  0  0  0
  -25.0920  -29.5880   19.7820 C   0  0  0  0  0  2  0  0  0  0  0  0
  -25.4090  -28.7860   18.3650 C   0  0  0  0  0  2  0  0  0  0  0  0
  -24.9290  -27.5720   17.3800 C   0  0  0  0  0  2  0  0  0  0  0  0
  -25.6270  -26.1020   17.2720 C   0  0  0  0  0  2  0  0  0  0  0  0
  -25.0130  -24.8330   17.7680 O   0  0  0  0  0  0  0  0  0  0  0  0
  -23.5870  -30.2180   23.8550 C   0  0  0  0  0  0  0  0  0  0  0  0
  -24.1050  -25.1360   18.6690 C   0  0  0  0  0  0  0  0  0  0  0  0
  -21.9260  -29.4320   21.9480 C   0  0  0  0  0  3  0  0  0  0  0  0
  -22.5320  -27.1190   19.7070 C   0  0  0  0  0  0  0  0  0  0  0  0
  -24.8250  -28.3730   22.4980 C   0  0  0  0  0  0  0  0  0  0  0  0
  -24.0480  -26.6910   20.1820 C   0  0  0  0  0  3  0  0  0  0  0  0
  -24.7700  -25.8240   19.5210 C   0  0  0  0  0  3  0  0  0  0  0  0
  -22.7310  -25.1930   18.4160 C   0  0  0  0  0  3  0  0  0  0  0  0
  -21.9260  -26.2410   18.8720 C   0  0  0  0  0  3  0  0  0  0  0  0
  -21.5710  -28.4760   20.4050 C   0  0  0  0  0  2  0  0  0  0  0  0
  -23.4480  -29.4560   22.8040 N   0  0  0  0  0  0  0  0  0  0  0  0
  -22.6450  -30.8600   24.3380 O   0  0  0  0  0  0  0  0  0  0  0  0
  -20.8450  -28.8940   22.9470 C   0  0  0  0  0  0  0  0  0  0  0  0
  -19.5670  -28.6680   22.5980 N   0  0  0  0  0  0  0  0  0  0  0  0
  -21.2310  -28.4920   24.0350 O   0  0  0  0  0  0  0  0  0  0  0  0
  -19.2470  -28.9810   21.6930 H   0  0  0  0  0  0  0  0  0  0  0  0
  -16.0790  -27.8080   22.9950 C   0  0  0  0  0  0  0  0  0  0  0  0
  -18.6210  -27.8650   23.4060 C   0  0  0  0  0  3  0  0  0  0  0  0
  -18.5910  -26.3730   22.9850 C   0  0  0  0  0  2  0  0  0  0  0  0
  -17.5500  -26.0640   21.9140 C   0  0  0  0  0  2  0  0  0  0  0  0
  -16.1540  -26.3970   22.4350 C   0  0  0  0  0  2  0  0  0  0  0  0
  -17.2360  -28.4960   23.4520 C   0  0  0  0  0  0  0  0  0  0  0  0
  -17.1100  -29.8120   23.9500 C   0  0  0  0  0  3  0  0  0  0  0  0
  -15.8580  -30.4500   23.9740 C   0  0  0  0  0  3  0  0  0  0  0  0
  -14.7150  -29.7670   23.5210 C   0  0  0  0  0  3  0  0  0  0  0  0
  -14.8250  -28.4480   23.0420 C   0  0  0  0  0  3  0  0  0  0  0  0
  -24.9990  -30.2760   24.4660 C   0  0  0  0  0  3  0  0  0  0  0  0
  -25.3120  -31.6940   24.5370 N   0  0  0  0  0  0  0  0  0  0  0  0
  -26.0630  -32.3580   23.6480 C   0  0  0  0  0  0  0  0  0  0  0  0
  -26.6380  -31.8290   22.6880 O   0  0  0  0  0  0  0  0  0  0  0  0
  -24.8420  -32.2250   25.2540 H   0  0  0  0  0  0  0  0  0  0  0  0
  -25.3280  -34.6410   22.9020 C   0  0  0  0  0  1  0  0  0  0  0  0
  -26.2050  -33.8640   23.8940 C   0  0  0  0  0  3  0  0  0  0  0  0
  -28.4440  -33.8110   24.8950 C   0  0  0  0  0  1  0  0  0  0  0  0
  -27.6020  -34.3310   23.8210 N   0  0  0  0  0  0  0  0  0  0  0  0
  -27.6390  -35.3480   23.8420 H   0  0  0  0  0  0  0  0  0  0  0  0
  -25.1450  -29.5130   25.8460 C   0  0  1  0  0  0  0  0  0  0  0  0
  -24.0800  -30.0030   26.8290 C   0  0  0  0  0  1  0  0  0  0  0  0
  -24.9990  -27.9700   26.0050 C   0  0  0  0  0  1  0  0  0  0  0  0
  -26.5810  -29.7820   26.3290 C   0  0  0  0  0  1  0  0  0  0  0  0
  1  4  1  0
  2  5  1  0
  2  1  2  0
  4  7  1  0
  4  3  1  0
  5 64  2  0
  6 52  1  0
  6  3  2  0
  7  8  2  0
  9  7  1  0
 10  9  2  0
 11 12  2  0
 11 10  1  0
 13 14  1  0
 13 12  1  0
 15 14  1  0
 16 21  1  0
 17 18  1  0
 17 16  1  0
 19 18  1  0
 19 26  1  0
 19 20  1  0
 21 15  1  0
 21 20  1  0
 22 15  2  0
 23 24  2  0
 24 43  1  0
 25 24  1  0
 25 28  1  0
 26 27  1  0
 26 23  1  0
 27 25  2  0
 28 29  1  0
 29 30  2  0
 31 34  1  0
 31 30  1  0
 32 31  2  0
 33 32  1  0
 33 28  2  0
 34 35  1  0
 35 36  1  0
 36 37  2  0
 38 37  1  0
 38 42  1  0
 39 38  2  0
 40 35  2  0
 40 39  1  0
 41 40  1  0
 43 44  1  0
 44 47  1  0
 44 46  1  0
 45 43  2  0
 48 23  1  0
 48 49  1  0
 50 48  1  0
 52 51  1  0
 54 53  1  0
 54 52  1  0
 55  5  1  0
 56 55  1  0
 57 56  1  0
 58 57  1  0
 58 59  1  0
 59 61  1  0
 60 71  2  0
 61 66  1  0
 62 70  1  0
 62 72  1  0
 63 65  1  0
 63 69  1  0
 64  6  1  0
 64 70  1  0
 66 65  2  0
 67 61  2  0
 67 68  1  0
 68 63  2  0
 69 62  1  0
 70 60  1  0
 72 74  2  0
 73 72  1  0
 75 73  1  0
 76 85  2  0
 76 81  1  0
 77 73  1  0
 77 81  1  0
 78 77  1  0
 79 80  1  0
 79 78  1  0
 80 76  1  0
 81 82  2  0
 82 83  1  0
 84 83  2  0
 85 84  1  0
 86 60  1  0
 86 87  1  0
 86 96  1  0
 87 90  1  0
 88 92  1  0
 88 87  1  0
 89 88  2  0
 92 91  1  0
 94 95  1  0
 94 92  1  0
 94 93  1  0
 96 98  1  6
 96 99  1  0
 96 97  1  0
M  ISO  4  14 100  15 100  58 101  59 101
M  END
>  <TORSDO>  (82) 
F 29

>  <SCORE>  (82) 
-8.718

>  <name>  (82) 
82

>  <ligand_id>  (82) 
82

>  <original_smiles>  (82) 
[H]c1c([H])c([H])c2c(c1[H])C([H])([H])C([H])([H])C([H])([H])C2([H])N([H])C(=O)C1([H])N(C(=O)C([H])(N([H])C(=O)C([H])(N([H])C([H])([H])[H])C([H])([H])[H])C(C([H])([H])[H])(C([H])([H])[H])C([H])([H])[H])C([H])([H])c2c([H])c(OC([H])([H])C([H])([H])C([H])([H])C([H])([H])c3c([H])c([H])c(C(=O)C([H])([H])C([H])([H])C([H])([H])C([H])([H])C([H])([H])C([H])([H])C(=O)N4C([H])([H])C([H])([H])C([H])([H])C([H])(n5nc(-c6c([H])c([H])c(Oc7c([H])c([H])c(F)c([H])c7F)c([H])c6[H])c(C(=O)N([H])[H])c5N([H])[H])C4([H])[H])c([H])c3C([H])(OC([H])([H])[H])C([H])([H])[H])c([H])c([H])c2C1([H])[H]

>  <smiles>  (82) 
[H]c1c([H])c([H])c2c(c1[H])C([H])([H])C([H])([H])C([H])([H])C2([H])N([H])C(=O)C1([H])N(C(=O)C([H])(N([H])C(=O)C([H])(N([H])C([H])([H])[H])C([H])([H])[H])C(C([H])([H])[H])(C([H])([H])[H])C([H])([H])[H])C([H])([H])c2c([H])c(OC([H])([H])C([H])([H])C([H])([H])C([H])([H])c3c([H])c([H])c(C(=O)C([H])([H])C([H])([H])C([H])([H])C([H])([H])C([H])([H])C([H])([H])C(=O)N4C([H])([H])C([H])([H])C([H])([H])C([H])(n5nc(-c6c([H])c([H])c(Oc7c([H])c([H])c(F)c([H])c7F)c([H])c6[H])c(C(=O)N([H])[H])c5N([H])[H])C4([H])[H])c([H])c3C([H])(OC([H])([H])[H])C([H])([H])[H])c([H])c([H])c2C1([H])[H]

$$$$
83:0:0
     RDKit          3D

 94101  0  0  1  0  0  0  0  0999 V2000
  -30.0820  -23.2170   24.2120 N   0  0  0  0  0  4  0  0  0  0  0  0
  -30.8930  -22.8360   24.6760 H   0  0  0  0  0  0  0  0  0  0  0  0
  -29.2760  -22.7350   24.5780 H   0  0  0  0  0  0  0  0  0  0  0  0
  -29.9750  -24.6460   24.5880 C   0  0  0  0  0  2  0  0  0  0  0  0
  -28.5830  -25.2380   24.2730 C   0  0  0  0  0  2  0  0  0  0  0  0
  -28.2620  -26.5270   25.0400 C   0  0  0  0  0  2  0  0  0  0  0  0
  -26.8730  -27.0690   24.6770 C   0  0  0  0  0  2  0  0  0  0  0  0
  -26.7690  -28.3820   25.1960 O   0  0  0  0  0  0  0  0  0  0  0  0
  -25.5650  -29.8350   32.0510 C   0  0  0  0  0  0  0  0  0  0  0  0
  -25.8460  -28.6060   26.1850 C   0  0  0  0  0  0  0  0  0  0  0  0
  -23.5460  -29.5150   30.6510 C   0  0  0  0  0  3  0  0  0  0  0  0
  -23.9600  -29.3550   28.1400 C   0  0  0  0  0  0  0  0  0  0  0  0
  -25.7370  -30.3180   29.6150 C   0  0  0  0  0  2  0  0  0  0  0  0
  -25.3200  -29.6180   28.3410 C   0  0  0  0  0  0  0  0  0  0  0  0
  -26.2680  -29.2430   27.3660 C   0  0  0  0  0  3  0  0  0  0  0  0
  -24.4750  -28.3200   25.9960 C   0  0  0  0  0  3  0  0  0  0  0  0
  -23.5290  -28.6890   26.9750 C   0  0  0  0  0  3  0  0  0  0  0  0
  -23.0120  -29.8160   29.2250 C   0  0  0  0  0  2  0  0  0  0  0  0
  -24.9940  -29.8670   30.8130 N   0  0  0  0  0  0  0  0  0  0  0  0
  -24.8960  -29.5610   33.0560 O   0  0  0  0  0  0  0  0  0  0  0  0
  -23.2360  -28.0400   30.9860 C   0  0  0  0  0  0  0  0  0  0  0  0
  -22.5120  -27.8220   32.0960 N   0  0  0  0  0  0  0  0  0  0  0  0
  -23.6130  -27.1300   30.2440 O   0  0  0  0  0  0  0  0  0  0  0  0
  -22.2480  -28.6210   32.6540 H   0  0  0  0  0  0  0  0  0  0  0  0
  -21.5440  -26.0080   35.0640 C   0  0  0  0  0  0  0  0  0  0  0  0
  -22.0610  -26.5200   32.5850 C   0  0  0  0  0  3  0  0  0  0  0  0
  -20.5490  -26.3260   32.3340 C   0  0  0  0  0  2  0  0  0  0  0  0
  -19.6810  -26.7540   33.5210 C   0  0  0  0  0  2  0  0  0  0  0  0
  -20.0530  -25.9550   34.7750 C   0  0  0  0  0  2  0  0  0  0  0  0
  -22.4850  -26.2880   34.0380 C   0  0  0  0  0  0  0  0  0  0  0  0
  -23.8560  -26.3620   34.3660 C   0  0  0  0  0  3  0  0  0  0  0  0
  -24.2920  -26.1630   35.6890 C   0  0  0  0  0  3  0  0  0  0  0  0
  -23.3590  -25.8670   36.6970 C   0  0  0  0  0  3  0  0  0  0  0  0
  -21.9910  -25.7820   36.3830 C   0  0  0  0  0  3  0  0  0  0  0  0
  -27.0780  -30.1620   32.2650 C   0  0  0  0  0  3  0  0  0  0  0  0
  -27.9970  -28.8780   32.2800 C   0  0  1  0  0  0  0  0  0  0  0  0
  -27.3460  -27.6550   32.9670 C   0  0  0  0  0  1  0  0  0  0  0  0
  -28.3750  -28.4630   30.8390 C   0  0  0  0  0  1  0  0  0  0  0  0
  -29.3210  -29.1850   33.0200 C   0  0  0  0  0  1  0  0  0  0  0  0
  -27.1950  -30.9020   33.5280 N   0  0  0  0  0  0  0  0  0  0  0  0
  -27.3070  -32.2340   33.6210 C   0  0  0  0  0  0  0  0  0  0  0  0
  -27.3960  -32.9690   32.6330 O   0  0  0  0  0  0  0  0  0  0  0  0
  -27.0840  -30.3670   34.3760 H   0  0  0  0  0  0  0  0  0  0  0  0
  -25.9870  -33.5590   35.2980 C   0  0  0  0  0  1  0  0  0  0  0  0
  -27.3210  -32.8470   35.0330 C   0  0  0  0  0  3  0  0  0  0  0  0
  -29.7370  -33.1220   35.3800 C   0  0  0  0  0  1  0  0  0  0  0  0
  -28.4430  -33.7860   35.2590 N   0  0  0  0  0  0  0  0  0  0  0  0
  -28.2870  -34.3320   36.1020 H   0  0  0  0  0  0  0  0  0  0  0  0
  -30.1960  -22.9790   22.7550 C   0  0  0  0  0  2  0  0  0  0  0  0
  -29.4900  -21.7000   22.2580 C   0  0  0  0  0  2  0  0  0  0  0  0
  -29.0500  -21.9000   20.7990 C   0  0  0  0  0  2  0  0  0  0  0  0
  -28.1040  -20.8310   20.2360 C   0  0  0  0  0  2  0  0  0  0  0  0
  -27.4380  -21.3190   18.9410 C   0  0  0  0  0  2  0  0  0  0  0  0
  -26.3500  -20.3660   18.4320 C   0  0  0  0  0  2  0  0  0  0  0  0
  -25.7660  -20.8070   17.0790 C   0  0  0  0  0  2  0  0  0  0  0  0
  -24.3120  -21.3070   17.1280 C   0  0  0  0  0  2  0  0  0  0  0  0
  -24.0220  -23.7450   17.0820 C   0  0  0  0  0  0  0  0  0  0  0  0
  -22.0980  -24.6600   15.8700 C   0  0  0  0  0  2  0  0  0  0  0  0
  -21.7990  -26.1590   15.9810 C   0  0  0  0  0  2  0  0  0  0  0  0
  -20.9470  -26.4390   17.2280 C   0  0  0  0  0  2  0  0  0  0  0  0
  -21.5540  -25.8180   18.5100 C   0  0  0  0  0  3  0  0  0  0  0  0
  -21.9090  -24.3310   18.2990 C   0  0  0  0  0  2  0  0  0  0  0  0
  -22.7540  -24.2080   17.1000 N   0  0  0  0  0  0  0  0  0  0  0  0
  -24.8650  -24.0590   16.2340 O   0  0  0  0  0  0  0  0  0  0  0  0
  -24.1010  -22.6040   17.7760 N   0  0  0  0  0  0  0  0  0  0  0  0
  -23.4000  -22.5640   18.5030 H   0  0  0  0  0  0  0  0  0  0  0  0
  -20.6970  -26.9660   20.6490 C   0  0  0  0  0  0  0  0  0  0  0  0
  -19.5980  -26.7400   21.4310 C   0  0  0  0  0  0  0  0  0  0  0  0
  -18.9280  -25.6160   20.8550 C   0  0  0  0  0  0  0  0  0  0  0  0
  -20.6660  -26.0000   19.6560 N   0  0  0  0  0  0  0  0  0  0  0  0
  -19.6190  -25.1490   19.8220 N   0  0  0  0  0  0  0  0  0  0  0  0
  -17.6430  -24.9910   21.1930 C   0  0  0  0  0  0  0  0  0  0  0  0
  -17.5290  -23.5970   21.4010 C   0  0  0  0  0  3  0  0  0  0  0  0
  -16.2850  -23.0250   21.7420 C   0  0  0  0  0  3  0  0  0  0  0  0
  -15.1400  -23.8440   21.8820 C   0  0  0  0  0  0  0  0  0  0  0  0
  -15.2550  -25.2260   21.6530 C   0  0  0  0  0  3  0  0  0  0  0  0
  -16.4910  -25.7940   21.3070 C   0  0  0  0  0  3  0  0  0  0  0  0
  -13.8870  -23.3710   22.1860 O   0  0  0  0  0  0  0  0  0  0  0  0
  -13.7080  -22.1990   22.8770 C   0  0  0  0  0  0  0  0  0  0  0  0
  -14.2470  -22.0040   24.1680 C   0  0  0  0  0  3  0  0  0  0  0  0
  -13.9780  -20.8120   24.8690 C   0  0  0  0  0  3  0  0  0  0  0  0
  -13.1670  -19.8190   24.2890 C   0  0  0  0  0  0  0  0  0  0  0  0
  -12.6230  -20.0150   23.0070 C   0  0  0  0  0  3  0  0  0  0  0  0
  -12.8910  -21.2020   22.3040 C   0  0  0  0  0  0  0  0  0  0  0  0
  -12.3480  -21.3930   21.0770 F   0  0  0  0  0  0  0  0  0  0  0  0
  -12.9010  -18.6780   24.9670 F   0  0  0  0  0  0  0  0  0  0  0  0
  -19.1330  -27.5770   22.5870 C   0  0  0  0  0  0  0  0  0  0  0  0
  -18.4320  -26.9760   23.5410 N   0  0  0  0  0  0  0  0  0  0  0  0
  -19.4390  -28.7660   22.6760 O   0  0  0  0  0  0  0  0  0  0  0  0
  -18.1950  -25.9970   23.4790 H   0  0  0  0  0  0  0  0  0  0  0  0
  -18.1280  -27.5060   24.3470 H   0  0  0  0  0  0  0  0  0  0  0  0
  -21.7080  -27.9240   20.6850 N   0  0  0  0  0  0  0  0  0  0  0  0
  -21.7260  -28.6680   21.3740 H   0  0  0  0  0  0  0  0  0  0  0  0
  -22.4550  -27.9910   20.0070 H   0  0  0  0  0  0  0  0  0  0  0  0
  1  3  1  0
  1  4  1  0
  1  2  1  0
  5  4  1  0
  5  6  1  0
  7  6  1  0
  7  8  1  0
  8 10  1  0
  9 20  2  0
 10 15  1  0
 11 19  1  0
 11 21  1  0
 12 14  1  0
 12 18  1  0
 13 19  1  0
 14 13  1  0
 15 14  2  0
 16 10  2  0
 16 17  1  0
 17 12  2  0
 18 11  1  0
 19  9  1  0
 21 22  1  0
 22 24  1  0
 23 21  2  0
 25 34  1  0
 26 22  1  0
 26 30  1  0
 27 26  1  0
 27 28  1  0
 28 29  1  0
 29 25  1  0
 30 31  1  0
 30 25  2  0
 31 32  2  0
 32 33  1  0
 34 33  2  0
 35  9  1  0
 35 36  1  0
 35 40  1  0
 36 37  1  1
 36 39  1  0
 38 36  1  0
 40 41  1  0
 40 43  1  0
 41 45  1  0
 42 41  2  0
 45 47  1  0
 45 44  1  0
 47 46  1  0
 47 48  1  0
 49  1  1  0
 50 49  1  0
 51 50  1  0
 52 51  1  0
 53 52  1  0
 54 53  1  0
 55 56  1  0
 55 54  1  0
 56 65  1  0
 57 63  1  0
 57 65  1  0
 58 59  1  0
 58 63  1  0
 59 60  1  0
 61 60  1  0
 61 70  1  0
 62 61  1  0
 63 62  1  0
 64 57  2  0
 65 66  1  0
 67 92  1  0
 67 68  2  0
 68 87  1  0
 69 72  1  0
 69 68  1  0
 70 71  1  0
 70 67  1  0
 71 69  2  0
 72 77  2  0
 72 73  1  0
 73 74  2  0
 74 75  1  0
 75 78  1  0
 76 75  2  0
 77 76  1  0
 78 79  1  0
 79 80  1  0
 80 81  2  0
 82 81  1  0
 82 86  1  0
 83 82  2  0
 84 79  2  0
 84 83  1  0
 85 84  1  0
 87 89  2  0
 87 88  1  0
 88 91  1  0
 90 88  1  0
 92 93  1  0
 94 92  1  0
M  ISO  4   7 101   8 101  57 100  65 100
M  END
>  <TORSDO>  (83) 
F 28

>  <SCORE>  (83) 
-1.143

>  <name>  (83) 
83

>  <ligand_id>  (83) 
83

>  <original_smiles>  (83) 
[H]c1c([H])c([H])c2c(c1[H])C([H])([H])C([H])([H])C([H])([H])C2([H])N([H])C(=O)C1([H])N(C(=O)C([H])(N([H])C(=O)C([H])(N([H])C([H])([H])[H])C([H])([H])[H])C(C([H])([H])[H])(C([H])([H])[H])C([H])([H])[H])C([H])([H])c2c([H])c(OC([H])([H])C([H])([H])C([H])([H])C([H])([H])[N+]([H])([H])C([H])([H])C([H])([H])C([H])([H])C([H])([H])C([H])([H])C([H])([H])C([H])([H])C([H])([H])N([H])C(=O)N3C([H])([H])C([H])([H])C([H])([H])C([H])(n4nc(-c5c([H])c([H])c(Oc6c([H])c([H])c(F)c([H])c6F)c([H])c5[H])c(C(=O)N([H])[H])c4N([H])[H])C3([H])[H])c([H])c([H])c2C1([H])[H]

>  <smiles>  (83) 
[H]c1c([H])c([H])c2c(c1[H])C([H])([H])C([H])([H])C([H])([H])C2([H])N([H])C(=O)C1([H])N(C(=O)C([H])(N([H])C(=O)C([H])(N([H])C([H])([H])[H])C([H])([H])[H])C(C([H])([H])[H])(C([H])([H])[H])C([H])([H])[H])C([H])([H])c2c([H])c(OC([H])([H])C([H])([H])C([H])([H])C([H])([H])[N+]([H])([H])C([H])([H])C([H])([H])C([H])([H])C([H])([H])C([H])([H])C([H])([H])C([H])([H])C([H])([H])N([H])C(=O)N3C([H])([H])C([H])([H])C([H])([H])C([H])(n4nc(-c5c([H])c([H])c(Oc6c([H])c([H])c(F)c([H])c6F)c([H])c5[H])c(C(=O)N([H])[H])c4N([H])[H])C3([H])[H])c([H])c([H])c2C1([H])[H]

$$$$
84:0:0
     RDKit          3D

 92100  0  0  1  0  0  0  0  0999 V2000
  -29.0180  -20.3980   21.4960 C   0  0  0  0  0  3  0  0  0  0  0  0
  -29.2030  -21.7860   21.3500 C   0  0  0  0  0  3  0  0  0  0  0  0
  -30.8490  -19.9730   19.9750 C   0  0  0  0  0  3  0  0  0  0  0  0
  -29.8400  -19.4560   20.8290 C   0  0  0  0  0  0  0  0  0  0  0  0
  -30.2280  -22.2990   20.5310 C   0  0  0  0  0  0  0  0  0  0  0  0
  -31.0490  -21.3740   19.8300 C   0  0  0  0  0  0  0  0  0  0  0  0
  -32.1680  -21.8580   18.9270 C   0  0  0  0  0  1  0  0  0  0  0  0
  -29.5930  -17.9820   21.0830 C   0  0  0  0  0  0  0  0  0  0  0  0
  -28.7260  -17.6530   21.9000 O   0  0  0  0  0  0  0  0  0  0  0  0
  -30.3600  -16.9180   20.3690 C   0  0  0  0  0  3  0  0  0  0  0  0
  -30.2010  -15.6080   20.6980 C   0  0  0  0  0  3  0  0  0  0  0  0
  -30.9040  -14.5260   19.9990 C   0  0  0  0  0  0  0  0  0  0  0  0
  -30.5580  -12.3550   18.8580 C   0  0  0  0  0  2  0  0  0  0  0  0
  -29.5420  -12.5750   17.7170 C   0  0  0  0  0  2  0  0  0  0  0  0
  -28.0930  -12.4290   18.2280 C   0  0  0  0  0  2  0  0  0  0  0  0
  -27.8400  -13.2390   19.5290 C   0  0  0  0  0  3  0  0  0  0  0  0
  -28.9630  -12.9780   20.5560 C   0  0  0  0  0  2  0  0  0  0  0  0
  -30.2490  -13.3270   19.9230 N   0  0  0  0  0  0  0  0  0  0  0  0
  -31.9790  -14.7090   19.4190 O   0  0  0  0  0  0  0  0  0  0  0  0
  -25.5060  -13.8510   20.4240 C   0  0  0  0  0  0  0  0  0  0  0  0
  -24.4560  -13.0810   20.8430 C   0  0  0  0  0  0  0  0  0  0  0  0
  -24.8890  -11.7260   20.7210 C   0  0  0  0  0  0  0  0  0  0  0  0
  -26.5190  -12.9660   20.0880 N   0  0  0  0  0  0  0  0  0  0  0  0
  -26.1540  -11.6780   20.3190 N   0  0  0  0  0  0  0  0  0  0  0  0
  -24.1550  -10.4680   20.9140 C   0  0  0  0  0  0  0  0  0  0  0  0
  -24.5720   -9.5110   21.8640 C   0  0  0  0  0  3  0  0  0  0  0  0
  -23.8410   -8.3170   22.0450 C   0  0  0  0  0  3  0  0  0  0  0  0
  -22.6790   -8.0730   21.2750 C   0  0  0  0  0  0  0  0  0  0  0  0
  -22.2800   -9.0210   20.3150 C   0  0  0  0  0  3  0  0  0  0  0  0
  -23.0110  -10.2060   20.1330 C   0  0  0  0  0  3  0  0  0  0  0  0
  -21.9210   -6.9310   21.3620 O   0  0  0  0  0  0  0  0  0  0  0  0
  -21.7600   -6.2620   22.5490 C   0  0  0  0  0  0  0  0  0  0  0  0
  -21.1940   -6.8840   23.6840 C   0  0  0  0  0  3  0  0  0  0  0  0
  -20.9850   -6.1410   24.8630 C   0  0  0  0  0  3  0  0  0  0  0  0
  -21.3290   -4.7770   24.9060 C   0  0  0  0  0  0  0  0  0  0  0  0
  -21.8840   -4.1540   23.7740 C   0  0  0  0  0  3  0  0  0  0  0  0
  -22.0970   -4.8950   22.5990 C   0  0  0  0  0  0  0  0  0  0  0  0
  -22.6140   -4.2860   21.5050 F   0  0  0  0  0  0  0  0  0  0  0  0
  -21.1190   -4.0600   26.0340 F   0  0  0  0  0  0  0  0  0  0  0  0
  -23.0930  -13.5690   21.2410 C   0  0  0  0  0  0  0  0  0  0  0  0
  -22.4230  -12.8490   22.1330 N   0  0  0  0  0  0  0  0  0  0  0  0
  -22.6370  -14.6230   20.8000 O   0  0  0  0  0  0  0  0  0  0  0  0
  -22.8100  -11.9960   22.5100 H   0  0  0  0  0  0  0  0  0  0  0  0
  -21.5130  -13.1560   22.4450 H   0  0  0  0  0  0  0  0  0  0  0  0
  -25.6760  -15.2250   20.2870 N   0  0  0  0  0  0  0  0  0  0  0  0
  -24.9110  -15.8740   20.4400 H   0  0  0  0  0  0  0  0  0  0  0  0
  -26.5140  -15.6710   19.9380 H   0  0  0  0  0  0  0  0  0  0  0  0
  -30.4580  -23.8250   20.5020 C   0  0  0  0  0  2  0  0  0  0  0  0
  -31.1470  -25.4720   18.6520 C   0  0  0  0  0  1  0  0  0  0  0  0
  -30.0340  -24.5640   19.2000 C   0  0  0  0  0  3  0  0  0  0  0  0
  -28.6880  -25.3310   19.2860 C   0  0  0  0  0  2  0  0  0  0  0  0
  -28.7130  -26.6500   19.8760 O   0  0  0  0  0  0  0  0  0  0  0  0
  -24.6970  -31.5980   23.1420 C   0  0  0  0  0  0  0  0  0  0  0  0
  -27.5110  -27.3520   19.8970 C   0  0  0  0  0  0  0  0  0  0  0  0
  -23.5510  -30.2200   21.4410 C   0  0  0  0  0  3  0  0  0  0  0  0
  -25.0610  -28.7970   19.9660 C   0  0  0  0  0  0  0  0  0  0  0  0
  -26.0680  -30.6670   21.2760 C   0  0  0  0  0  2  0  0  0  0  0  0
  -26.2030  -29.3270   20.5790 C   0  0  0  0  0  0  0  0  0  0  0  0
  -27.4290  -28.6140   20.5420 C   0  0  0  0  0  3  0  0  0  0  0  0
  -26.3320  -26.8420   19.2940 C   0  0  0  0  0  3  0  0  0  0  0  0
  -25.1230  -27.5520   19.3250 C   0  0  0  0  0  3  0  0  0  0  0  0
  -23.7890  -29.6080   20.0360 C   0  0  0  0  0  2  0  0  0  0  0  0
  -24.7880  -30.8430   22.0090 N   0  0  0  0  0  0  0  0  0  0  0  0
  -23.6040  -31.8090   23.6850 O   0  0  0  0  0  0  0  0  0  0  0  0
  -22.9330  -29.1360   22.3550 C   0  0  0  0  0  0  0  0  0  0  0  0
  -21.6250  -28.8840   22.1860 N   0  0  0  0  0  0  0  0  0  0  0  0
  -23.6280  -28.5270   23.1720 O   0  0  0  0  0  0  0  0  0  0  0  0
  -21.1210  -29.4300   21.5000 H   0  0  0  0  0  0  0  0  0  0  0  0
  -18.3180  -27.4710   22.5420 C   0  0  0  0  0  0  0  0  0  0  0  0
  -20.8440  -27.8820   22.9100 C   0  0  0  0  0  3  0  0  0  0  0  0
  -21.0570  -26.4700   22.3180 C   0  0  0  0  0  2  0  0  0  0  0  0
  -20.0150  -26.0980   21.2580 C   0  0  0  0  0  2  0  0  0  0  0  0
  -18.6040  -26.1460   21.8520 C   0  0  0  0  0  2  0  0  0  0  0  0
  -19.3710  -28.2920   23.0240 C   0  0  0  0  0  0  0  0  0  0  0  0
  -19.0550  -29.5290   23.6270 C   0  0  0  0  0  3  0  0  0  0  0  0
  -17.7160  -29.9480   23.7510 C   0  0  0  0  0  3  0  0  0  0  0  0
  -16.6760  -29.1260   23.2840 C   0  0  0  0  0  3  0  0  0  0  0  0
  -16.9770  -27.8880   22.6860 C   0  0  0  0  0  3  0  0  0  0  0  0
  -25.9560  -32.2510   23.7900 C   0  0  0  0  0  3  0  0  0  0  0  0
  -25.6070  -33.6350   24.1330 N   0  0  0  0  0  0  0  0  0  0  0  0
  -25.9350  -34.7080   23.3990 C   0  0  0  0  0  0  0  0  0  0  0  0
  -26.6340  -34.6360   22.3850 O   0  0  0  0  0  0  0  0  0  0  0  0
  -24.9860  -33.7640   24.9170 H   0  0  0  0  0  0  0  0  0  0  0  0
  -24.1790  -36.4660   23.0220 C   0  0  0  0  0  1  0  0  0  0  0  0
  -25.4010  -36.0760   23.8670 C   0  0  0  0  0  3  0  0  0  0  0  0
  -27.4840  -36.9900   24.7890 C   0  0  0  0  0  1  0  0  0  0  0  0
  -26.4140  -37.1520   23.8090 N   0  0  0  0  0  0  0  0  0  0  0  0
  -25.9820  -38.0600   23.9580 H   0  0  0  0  0  0  0  0  0  0  0  0
  -26.4730  -31.4740   25.0620 C   0  0  1  0  0  0  0  0  0  0  0  0
  -25.3680  -31.1860   26.1030 C   0  0  0  0  0  1  0  0  0  0  0  0
  -27.1040  -30.1220   24.6570 C   0  0  0  0  0  1  0  0  0  0  0  0
  -27.5840  -32.2920   25.7580 C   0  0  0  0  0  1  0  0  0  0  0  0
  2  1  1  0
  3  4  1  0
  4  8  1  0
  4  1  2  0
  5  2  2  0
  6  3  2  0
  6  5  1  0
  7  6  1  0
  8  9  2  0
 10 11  2  0
 10  8  1  0
 12 11  1  0
 13 18  1  0
 14 15  1  0
 14 13  1  0
 16 15  1  0
 16 23  1  0
 16 17  1  0
 18 12  1  0
 18 17  1  0
 19 12  2  0
 20 21  2  0
 21 40  1  0
 22 21  1  0
 22 25  1  0
 23 24  1  0
 23 20  1  0
 24 22  2  0
 25 26  1  0
 26 27  2  0
 28 31  1  0
 28 27  1  0
 29 28  2  0
 30 29  1  0
 30 25  2  0
 31 32  1  0
 32 37  2  0
 32 33  1  0
 33 34  2  0
 34 35  1  0
 35 39  1  0
 36 35  2  0
 37 36  1  0
 38 37  1  0
 40 41  1  0
 41 44  1  0
 41 43  1  0
 42 40  2  0
 45 20  1  0
 45 46  1  0
 47 45  1  0
 48  5  1  0
 50 49  1  0
 50 51  1  0
 50 48  1  0
 51 52  1  0
 52 54  1  0
 53 64  2  0
 54 59  1  0
 55 63  1  0
 55 65  1  0
 56 62  1  0
 56 58  1  0
 57 63  1  0
 58 57  1  0
 59 58  2  0
 60 61  1  0
 60 54  2  0
 61 56  2  0
 62 55  1  0
 63 53  1  0
 65 67  2  0
 66 65  1  0
 68 66  1  0
 69 78  2  0
 69 74  1  0
 70 66  1  0
 70 74  1  0
 71 70  1  0
 72 73  1  0
 72 71  1  0
 73 69  1  0
 74 75  2  0
 75 76  1  0
 77 76  2  0
 78 77  1  0
 79 53  1  0
 79 80  1  0
 79 89  1  0
 80 83  1  0
 81 85  1  0
 81 80  1  0
 82 81  2  0
 85 84  1  0
 87 85  1  0
 87 88  1  0
 87 86  1  0
 89 92  1  1
 89 90  1  0
 91 89  1  0
M  ISO  4  11 100  12 100  51 101  52 101
M  END
>  <TORSDO>  (84) 
F 21

>  <SCORE>  (84) 
-11.500

>  <name>  (84) 
84

>  <ligand_id>  (84) 
84

>  <original_smiles>  (84) 
[H]C(C(=O)c1c([H])c([H])c(C([H])([H])C([H])(C([H])([H])[H])C([H])([H])Oc2c([H])c([H])c3c(c2[H])C([H])([H])N(C(=O)C([H])(N([H])C(=O)C([H])(N([H])C([H])([H])[H])C([H])([H])[H])C(C([H])([H])[H])(C([H])([H])[H])C([H])([H])[H])C([H])(C(=O)N([H])C2([H])c4c([H])c([H])c([H])c([H])c4C([H])([H])C([H])([H])C2([H])[H])C3([H])[H])c(C([H])([H])[H])c1[H])=C([H])C(=O)N1C([H])([H])C([H])([H])C([H])([H])C([H])(n2nc(-c3c([H])c([H])c(Oc4c([H])c([H])c(F)c([H])c4F)c([H])c3[H])c(C(=O)N([H])[H])c2N([H])[H])C1([H])[H]

>  <smiles>  (84) 
[H]C(C(=O)c1c([H])c([H])c(C([H])([H])C([H])(C([H])([H])[H])C([H])([H])Oc2c([H])c([H])c3c(c2[H])C([H])([H])N(C(=O)C([H])(N([H])C(=O)C([H])(N([H])C([H])([H])[H])C([H])([H])[H])C(C([H])([H])[H])(C([H])([H])[H])C([H])([H])[H])C([H])(C(=O)N([H])C2([H])c4c([H])c([H])c([H])c([H])c4C([H])([H])C([H])([H])C2([H])[H])C3([H])[H])c(C([H])([H])[H])c1[H])=C([H])C(=O)N1C([H])([H])C([H])([H])C([H])([H])C([H])(n2nc(-c3c([H])c([H])c(Oc4c([H])c([H])c(F)c([H])c4F)c([H])c3[H])c(C(=O)N([H])[H])c2N([H])[H])C1([H])[H]

$$$$
85:0:0
     RDKit          3D

 90 97  0  0  1  0  0  0  0  0999 V2000
  -31.2160  -21.8170   19.7560 C   0  0  0  0  0  2  0  0  0  0  0  0
  -31.3830  -23.2940   19.3640 C   0  0  0  0  0  2  0  0  0  0  0  0
  -30.0860  -24.1020   19.5570 C   0  0  0  0  0  2  0  0  0  0  0  0
  -30.1530  -25.5090   18.9350 C   0  0  0  0  0  2  0  0  0  0  0  0
  -28.7870  -26.2140   18.8580 C   0  0  0  0  0  2  0  0  0  0  0  0
  -28.4230  -26.7770   20.1190 O   0  0  0  0  0  0  0  0  0  0  0  0
  -24.5960  -31.9120   23.2320 C   0  0  0  0  0  0  0  0  0  0  0  0
  -27.2340  -27.4700   20.1450 C   0  0  0  0  0  0  0  0  0  0  0  0
  -23.3790  -30.4970   21.6090 C   0  0  0  0  0  3  0  0  0  0  0  0
  -24.8250  -28.9490   20.1890 C   0  0  0  0  0  0  0  0  0  0  0  0
  -25.9020  -30.8560   21.3930 C   0  0  0  0  0  2  0  0  0  0  0  0
  -25.9830  -29.4800   20.7690 C   0  0  0  0  0  0  0  0  0  0  0  0
  -27.1860  -28.7400   20.7600 C   0  0  0  0  0  3  0  0  0  0  0  0
  -26.0510  -26.9380   19.5840 C   0  0  0  0  0  3  0  0  0  0  0  0
  -24.8500  -27.6710   19.6040 C   0  0  0  0  0  3  0  0  0  0  0  0
  -23.5800  -29.8050   20.2340 C   0  0  0  0  0  2  0  0  0  0  0  0
  -24.6450  -31.1040   22.1360 N   0  0  0  0  0  0  0  0  0  0  0  0
  -23.5190  -32.1890   23.7770 O   0  0  0  0  0  0  0  0  0  0  0  0
  -22.7350  -29.4840   22.5810 C   0  0  0  0  0  0  0  0  0  0  0  0
  -21.4100  -29.3010   22.4610 N   0  0  0  0  0  0  0  0  0  0  0  0
  -23.4240  -28.8630   23.3950 O   0  0  0  0  0  0  0  0  0  0  0  0
  -20.9160  -29.8500   21.7720 H   0  0  0  0  0  0  0  0  0  0  0  0
  -18.0400  -28.1070   22.9730 C   0  0  0  0  0  0  0  0  0  0  0  0
  -20.5960  -28.3690   23.2420 C   0  0  0  0  0  3  0  0  0  0  0  0
  -20.7010  -26.9340   22.6800 C   0  0  0  0  0  2  0  0  0  0  0  0
  -19.5980  -26.5990   21.6700 C   0  0  0  0  0  2  0  0  0  0  0  0
  -18.2170  -26.7510   22.3130 C   0  0  0  0  0  2  0  0  0  0  0  0
  -19.1570  -28.8740   23.3950 C   0  0  0  0  0  0  0  0  0  0  0  0
  -18.9390  -30.1450   23.9710 C   0  0  0  0  0  3  0  0  0  0  0  0
  -17.6340  -30.6470   24.1300 C   0  0  0  0  0  3  0  0  0  0  0  0
  -16.5300  -29.8770   23.7270 C   0  0  0  0  0  3  0  0  0  0  0  0
  -16.7340  -28.6090   23.1540 C   0  0  0  0  0  3  0  0  0  0  0  0
  -25.8880  -32.5450   23.8380 C   0  0  0  0  0  3  0  0  0  0  0  0
  -26.4280  -31.7690   25.1010 C   0  0  1  0  0  0  0  0  0  0  0  0
  -25.3520  -31.5230   26.1840 C   0  0  0  0  0  1  0  0  0  0  0  0
  -27.0080  -30.3950   24.6900 C   0  0  0  0  0  1  0  0  0  0  0  0
  -27.5870  -32.5630   25.7490 C   0  0  0  0  0  1  0  0  0  0  0  0
  -25.5790  -33.9400   24.1770 N   0  0  0  0  0  0  0  0  0  0  0  0
  -25.8970  -34.9960   23.4160 C   0  0  0  0  0  0  0  0  0  0  0  0
  -26.5550  -34.8990   22.3770 O   0  0  0  0  0  0  0  0  0  0  0  0
  -24.9930  -34.0900   24.9860 H   0  0  0  0  0  0  0  0  0  0  0  0
  -24.1520  -36.7760   23.0910 C   0  0  0  0  0  1  0  0  0  0  0  0
  -25.4080  -36.3790   23.8830 C   0  0  0  0  0  3  0  0  0  0  0  0
  -27.5530  -37.2710   24.6780 C   0  0  0  0  0  1  0  0  0  0  0  0
  -26.4310  -37.4400   23.7570 N   0  0  0  0  0  0  0  0  0  0  0  0
  -26.0220  -38.3560   23.9200 H   0  0  0  0  0  0  0  0  0  0  0  0
  -32.4400  -20.9370   19.4300 C   0  0  0  0  0  2  0  0  0  0  0  0
  -32.1390  -19.4490   19.6740 C   0  0  0  0  0  2  0  0  0  0  0  0
  -33.2880  -18.4800   19.3290 C   0  0  0  0  0  2  0  0  0  0  0  0
  -32.8420  -17.0320   19.5880 C   0  0  0  0  0  3  0  0  0  0  0  0
  -33.8610  -15.9210   19.2670 C   0  0  0  0  0  3  0  0  0  0  0  0
  -33.4510  -14.4670   19.6850 C   0  0  0  0  0  2  0  0  0  0  0  0
  -30.9980  -14.1120   19.8250 C   0  0  0  0  0  0  0  0  0  0  0  0
  -30.0550  -12.0460   18.9000 C   0  0  0  0  0  2  0  0  0  0  0  0
  -29.1140  -12.4740   17.7680 C   0  0  0  0  0  2  0  0  0  0  0  0
  -27.6870  -12.4810   18.3170 C   0  0  0  0  0  2  0  0  0  0  0  0
  -27.5330  -13.2940   19.6330 C   0  0  0  0  0  3  0  0  0  0  0  0
  -28.7460  -13.1040   20.6130 C   0  0  0  0  0  2  0  0  0  0  0  0
  -30.0480  -13.1220   19.8710 N   0  0  0  0  0  0  0  0  0  0  0  0
  -30.9450  -15.1090   20.4790 O   0  0  0  0  0  0  0  0  0  0  0  0
  -32.2750  -13.7280   17.6810 C   0  0  0  0  0  1  0  0  0  0  0  0
  -32.1740  -13.9360   19.1370 N   0  0  0  0  0  0  0  0  0  0  0  0
  -25.1580  -13.8920   20.4860 C   0  0  0  0  0  0  0  0  0  0  0  0
  -24.0990  -13.1200   20.8890 C   0  0  0  0  0  0  0  0  0  0  0  0
  -24.5520  -11.7670   20.8280 C   0  0  0  0  0  0  0  0  0  0  0  0
  -26.2050  -13.0180   20.2210 N   0  0  0  0  0  0  0  0  0  0  0  0
  -25.8370  -11.7320   20.4820 N   0  0  0  0  0  0  0  0  0  0  0  0
  -23.8200  -10.5050   21.0320 C   0  0  0  0  0  0  0  0  0  0  0  0
  -24.2930   -9.5140   21.9220 C   0  0  0  0  0  3  0  0  0  0  0  0
  -23.5650   -8.3200   22.1210 C   0  0  0  0  0  3  0  0  0  0  0  0
  -22.3480   -8.1050   21.4340 C   0  0  0  0  0  0  0  0  0  0  0  0
  -21.8910   -9.0840   20.5320 C   0  0  0  0  0  3  0  0  0  0  0  0
  -22.6210  -10.2690   20.3290 C   0  0  0  0  0  3  0  0  0  0  0  0
  -21.5880   -6.9660   21.5460 O   0  0  0  0  0  0  0  0  0  0  0  0
  -21.6120   -6.1920   22.6790 C   0  0  0  0  0  0  0  0  0  0  0  0
  -21.3100   -6.7240   23.9510 C   0  0  0  0  0  3  0  0  0  0  0  0
  -21.2790   -5.8790   25.0790 C   0  0  0  0  0  3  0  0  0  0  0  0
  -21.5410   -4.5030   24.9380 C   0  0  0  0  0  0  0  0  0  0  0  0
  -21.8360   -3.9710   23.6700 C   0  0  0  0  0  3  0  0  0  0  0  0
  -21.8690   -4.8120   22.5440 C   0  0  0  0  0  0  0  0  0  0  0  0
  -22.1330   -4.2890   21.3230 F   0  0  0  0  0  0  0  0  0  0  0  0
  -21.5050   -3.6900   26.0190 F   0  0  0  0  0  0  0  0  0  0  0  0
  -22.7120  -13.5970   21.2210 C   0  0  0  0  0  0  0  0  0  0  0  0
  -22.0190  -12.8990   22.1150 N   0  0  0  0  0  0  0  0  0  0  0  0
  -22.2510  -14.6250   20.7270 O   0  0  0  0  0  0  0  0  0  0  0  0
  -22.4030  -12.0650   22.5370 H   0  0  0  0  0  0  0  0  0  0  0  0
  -21.0930  -13.2010   22.3810 H   0  0  0  0  0  0  0  0  0  0  0  0
  -25.3100  -15.2620   20.3000 N   0  0  0  0  0  0  0  0  0  0  0  0
  -24.5510  -15.9220   20.4390 H   0  0  0  0  0  0  0  0  0  0  0  0
  -26.1640  -15.7030   19.9800 H   0  0  0  0  0  0  0  0  0  0  0  0
  2  3  1  0
  2  1  1  0
  4  3  1  0
  5  4  1  0
  5  6  1  0
  6  8  1  0
  7 18  2  0
  8 13  1  0
  9 17  1  0
  9 19  1  0
 10 16  1  0
 10 12  1  0
 11 17  1  0
 12 11  1  0
 13 12  2  0
 14 15  1  0
 14  8  2  0
 15 10  2  0
 16  9  1  0
 17  7  1  0
 19 21  2  0
 20 19  1  0
 22 20  1  0
 23 32  2  0
 23 28  1  0
 24 20  1  0
 24 28  1  0
 25 24  1  0
 26 27  1  0
 26 25  1  0
 27 23  1  0
 28 29  2  0
 29 30  1  0
 31 30  2  0
 32 31  1  0
 33  7  1  0
 33 38  1  0
 33 34  1  0
 34 37  1  1
 34 35  1  0
 36 34  1  0
 38 41  1  0
 39 43  1  0
 39 38  1  0
 40 39  2  0
 43 42  1  0
 45 43  1  0
 45 46  1  0
 45 44  1  0
 47 48  1  0
 47  1  1  0
 49 50  1  0
 49 48  1  0
 51 50  2  0
 51 52  1  0
 53 59  1  0
 53 60  2  0
 54 59  1  0
 55 56  1  0
 55 54  1  0
 57 56  1  0
 57 66  1  0
 57 58  1  0
 59 58  1  0
 61 62  1  0
 62 52  1  0
 62 53  1  0
 63 64  2  0
 64 83  1  0
 65 64  1  0
 65 68  1  0
 66 67  1  0
 66 63  1  0
 67 65  2  0
 68 69  1  0
 69 70  2  0
 71 74  1  0
 71 70  1  0
 72 71  2  0
 73 72  1  0
 73 68  2  0
 74 75  1  0
 75 76  1  0
 76 77  2  0
 78 77  1  0
 78 82  1  0
 79 78  2  0
 80 75  2  0
 80 79  1  0
 81 80  1  0
 83 84  1  0
 84 87  1  0
 84 86  1  0
 85 83  2  0
 88 89  1  0
 88 63  1  0
 90 88  1  0
M  ISO  4   5 101   6 101  53 100  62 100
M  END
>  <TORSDO>  (85) 
F 26

>  <SCORE>  (85) 
-11.453

>  <name>  (85) 
85

>  <ligand_id>  (85) 
85

>  <original_smiles>  (85) 
[H]c1c([H])c([H])c2c(c1[H])C([H])([H])C([H])([H])C([H])([H])C2([H])N([H])C(=O)C1([H])N(C(=O)C([H])(N([H])C(=O)C([H])(N([H])C([H])([H])[H])C([H])([H])[H])C(C([H])([H])[H])(C([H])([H])[H])C([H])([H])[H])C([H])([H])c2c([H])c(OC([H])([H])C([H])([H])C([H])([H])C([H])([H])C([H])([H])C([H])([H])C([H])([H])C([H])([H])C([H])([H])C([H])([H])C([H])([H])N(C(=O)N3C([H])([H])C([H])([H])C([H])([H])C([H])(n4nc(-c5c([H])c([H])c(Oc6c([H])c([H])c(F)c([H])c6F)c([H])c5[H])c(C(=O)N([H])[H])c4N([H])[H])C3([H])[H])C([H])([H])[H])c([H])c([H])c2C1([H])[H]

>  <smiles>  (85) 
[H]c1c([H])c([H])c2c(c1[H])C([H])([H])C([H])([H])C([H])([H])C2([H])N([H])C(=O)C1([H])N(C(=O)C([H])(N([H])C(=O)C([H])(N([H])C([H])([H])[H])C([H])([H])[H])C(C([H])([H])[H])(C([H])([H])[H])C([H])([H])[H])C([H])([H])c2c([H])c(OC([H])([H])C([H])([H])C([H])([H])C([H])([H])C([H])([H])C([H])([H])C([H])([H])C([H])([H])C([H])([H])C([H])([H])C([H])([H])N(C(=O)N3C([H])([H])C([H])([H])C([H])([H])C([H])(n4nc(-c5c([H])c([H])c(Oc6c([H])c([H])c(F)c([H])c6F)c([H])c5[H])c(C(=O)N([H])[H])c4N([H])[H])C3([H])[H])C([H])([H])[H])c([H])c([H])c2C1([H])[H]

$$$$
86:0:0
     RDKit          3D

 94103  0  0  1  0  0  0  0  0999 V2000
  -30.8160  -23.3590   21.6120 C   0  0  0  0  0  3  0  0  0  0  0  0
  -32.7400  -23.5240   20.1010 C   0  0  0  0  0  3  0  0  0  0  0  0
  -31.9950  -22.7940   21.0650 C   0  0  0  0  0  0  0  0  0  0  0  0
  -30.4160  -24.6340   21.1760 C   0  0  0  0  0  0  0  0  0  0  0  0
  -31.1410  -25.3350   20.2210 C   0  0  0  0  0  0  0  0  0  0  0  0
  -32.3130  -24.7960   19.6570 C   0  0  0  0  0  0  0  0  0  0  0  0
  -29.2240  -25.4200   21.6550 C   0  0  0  0  0  2  0  0  0  0  0  0
  -30.5220  -26.6790   19.9360 C   0  0  0  0  0  2  0  0  0  0  0  0
  -29.2150  -26.6970   20.7750 C   0  0  0  0  0  3  0  0  0  0  0  0
  -33.0980  -25.5570   18.6070 C   0  0  0  0  0  1  0  0  0  0  0  0
  -32.5000  -21.4700   21.5210 C   0  0  0  0  0  0  0  0  0  0  0  0
  -33.6980  -21.1680   21.4950 O   0  0  0  0  0  0  0  0  0  0  0  0
  -31.4630  -20.4360   21.9840 C   0  0  0  0  0  2  0  0  0  0  0  0
  -31.8800  -18.9940   21.6400 C   0  0  0  0  0  2  0  0  0  0  0  0
  -30.7550  -17.9480   21.7670 C   0  0  0  0  0  2  0  0  0  0  0  0
  -31.2000  -16.6280   21.1230 C   0  0  0  0  0  2  0  0  0  0  0  0
  -30.1740  -15.4630   21.1270 C   0  0  0  0  0  2  0  0  0  0  0  0
  -30.6150  -14.3270   20.1810 C   0  0  0  0  0  0  0  0  0  0  0  0
  -30.1750  -12.2320   18.9610 C   0  0  0  0  0  2  0  0  0  0  0  0
  -29.1840  -12.4850   17.8110 C   0  0  0  0  0  2  0  0  0  0  0  0
  -27.7370  -12.3350   18.3130 C   0  0  0  0  0  2  0  0  0  0  0  0
  -27.4650  -13.1400   19.6110 C   0  0  0  0  0  3  0  0  0  0  0  0
  -28.5790  -12.9220   20.6640 C   0  0  0  0  0  2  0  0  0  0  0  0
  -29.8760  -13.1960   20.0320 N   0  0  0  0  0  0  0  0  0  0  0  0
  -31.6440  -14.5060   19.5250 O   0  0  0  0  0  0  0  0  0  0  0  0
  -25.0870  -13.7000   20.4210 C   0  0  0  0  0  0  0  0  0  0  0  0
  -24.0520  -12.9070   20.8390 C   0  0  0  0  0  0  0  0  0  0  0  0
  -24.5380  -11.5640   20.7930 C   0  0  0  0  0  0  0  0  0  0  0  0
  -26.1400  -12.8400   20.1500 N   0  0  0  0  0  0  0  0  0  0  0  0
  -25.8150  -11.5500   20.4280 N   0  0  0  0  0  0  0  0  0  0  0  0
  -23.8460  -10.2890   21.0190 C   0  0  0  0  0  0  0  0  0  0  0  0
  -24.3250   -9.3450   21.9550 C   0  0  0  0  0  3  0  0  0  0  0  0
  -23.6330   -8.1330   22.1690 C   0  0  0  0  0  3  0  0  0  0  0  0
  -22.4480   -7.8570   21.4480 C   0  0  0  0  0  0  0  0  0  0  0  0
  -21.9880   -8.7890   20.5010 C   0  0  0  0  0  3  0  0  0  0  0  0
  -22.6800   -9.9930   20.2850 C   0  0  0  0  0  3  0  0  0  0  0  0
  -21.7220   -6.6960   21.5710 O   0  0  0  0  0  0  0  0  0  0  0  0
  -21.7130   -5.9730   22.7370 C   0  0  0  0  0  0  0  0  0  0  0  0
  -21.2810   -6.5360   23.9570 C   0  0  0  0  0  3  0  0  0  0  0  0
  -21.2230   -5.7390   25.1190 C   0  0  0  0  0  3  0  0  0  0  0  0
  -21.5830   -4.3790   25.0600 C   0  0  0  0  0  0  0  0  0  0  0  0
  -22.0080   -3.8160   23.8430 C   0  0  0  0  0  3  0  0  0  0  0  0
  -22.0690   -4.6110   22.6850 C   0  0  0  0  0  0  0  0  0  0  0  0
  -22.4590   -4.0580   21.5110 F   0  0  0  0  0  0  0  0  0  0  0  0
  -21.5190   -3.6120   26.1720 F   0  0  0  0  0  0  0  0  0  0  0  0
  -22.6590  -13.3570   21.1720 C   0  0  0  0  0  0  0  0  0  0  0  0
  -21.9830  -12.6470   22.0700 N   0  0  0  0  0  0  0  0  0  0  0  0
  -22.1780  -14.3740   20.6730 O   0  0  0  0  0  0  0  0  0  0  0  0
  -22.3860  -11.8230   22.4920 H   0  0  0  0  0  0  0  0  0  0  0  0
  -21.0510  -12.9300   22.3350 H   0  0  0  0  0  0  0  0  0  0  0  0
  -25.2180  -15.0730   20.2290 N   0  0  0  0  0  0  0  0  0  0  0  0
  -24.4520  -15.7220   20.3720 H   0  0  0  0  0  0  0  0  0  0  0  0
  -26.0560  -15.5190   19.8760 H   0  0  0  0  0  0  0  0  0  0  0  0
  -28.1230  -26.5860   19.8620 O   0  0  0  0  0  0  0  0  0  0  0  0
  -24.5020  -31.8120   23.1850 C   0  0  0  0  0  0  0  0  0  0  0  0
  -27.0030  -27.3760   20.0070 C   0  0  0  0  0  0  0  0  0  0  0  0
  -23.2280  -30.4540   21.5530 C   0  0  0  0  0  3  0  0  0  0  0  0
  -24.6200  -28.8970   20.0900 C   0  0  0  0  0  0  0  0  0  0  0  0
  -25.7480  -30.7710   21.2990 C   0  0  0  0  0  2  0  0  0  0  0  0
  -25.7940  -29.4030   20.6580 C   0  0  0  0  0  0  0  0  0  0  0  0
  -26.9880  -28.6530   20.6190 C   0  0  0  0  0  3  0  0  0  0  0  0
  -25.8110  -26.8820   19.4390 C   0  0  0  0  0  3  0  0  0  0  0  0
  -24.6180  -27.6290   19.4810 C   0  0  0  0  0  3  0  0  0  0  0  0
  -23.3930  -29.7760   20.1650 C   0  0  0  0  0  2  0  0  0  0  0  0
  -24.5120  -31.0250   22.0720 N   0  0  0  0  0  0  0  0  0  0  0  0
  -23.4390  -32.1020   23.7530 O   0  0  0  0  0  0  0  0  0  0  0  0
  -22.5740  -29.4390   22.5180 C   0  0  0  0  0  0  0  0  0  0  0  0
  -21.2540  -29.2440   22.3720 N   0  0  0  0  0  0  0  0  0  0  0  0
  -23.2530  -28.8280   23.3480 O   0  0  0  0  0  0  0  0  0  0  0  0
  -20.7700  -29.7930   21.6760 H   0  0  0  0  0  0  0  0  0  0  0  0
  -17.8960  -27.9780   22.7750 C   0  0  0  0  0  0  0  0  0  0  0  0
  -20.4330  -28.3090   23.1390 C   0  0  0  0  0  3  0  0  0  0  0  0
  -20.5940  -26.8650   22.6100 C   0  0  0  0  0  2  0  0  0  0  0  0
  -19.5410  -26.4840   21.5650 C   0  0  0  0  0  2  0  0  0  0  0  0
  -18.1320  -26.6140   22.1490 C   0  0  0  0  0  2  0  0  0  0  0  0
  -18.9780  -28.7810   23.2250 C   0  0  0  0  0  0  0  0  0  0  0  0
  -18.7060  -30.0580   23.7630 C   0  0  0  0  0  3  0  0  0  0  0  0
  -17.3840  -30.5310   23.8630 C   0  0  0  0  0  3  0  0  0  0  0  0
  -16.3150  -29.7250   23.4330 C   0  0  0  0  0  3  0  0  0  0  0  0
  -16.5720  -28.4520   22.8930 C   0  0  0  0  0  3  0  0  0  0  0  0
  -25.8170  -32.4020   23.7840 C   0  0  0  0  0  3  0  0  0  0  0  0
  -25.5540  -33.8030   24.1390 N   0  0  0  0  0  0  0  0  0  0  0  0
  -25.8840  -34.8540   23.3760 C   0  0  0  0  0  0  0  0  0  0  0  0
  -26.5170  -34.7450   22.3220 O   0  0  0  0  0  0  0  0  0  0  0  0
  -24.9930  -33.9630   24.9620 H   0  0  0  0  0  0  0  0  0  0  0  0
  -24.1800  -36.6800   23.0960 C   0  0  0  0  0  1  0  0  0  0  0  0
  -25.4420  -36.2470   23.8590 C   0  0  0  0  0  3  0  0  0  0  0  0
  -27.6220  -37.0860   24.6190 C   0  0  0  0  0  1  0  0  0  0  0  0
  -26.4900  -37.2810   23.7160 N   0  0  0  0  0  0  0  0  0  0  0  0
  -26.1080  -38.2060   23.8860 H   0  0  0  0  0  0  0  0  0  0  0  0
  -26.3460  -31.5980   25.0350 C   0  0  1  0  0  0  0  0  0  0  0  0
  -25.2740  -31.3670   26.1230 C   0  0  0  0  0  1  0  0  0  0  0  0
  -26.8860  -30.2140   24.6010 C   0  0  0  0  0  1  0  0  0  0  0  0
  -27.5300  -32.3530   25.6840 C   0  0  0  0  0  1  0  0  0  0  0  0
  2  3  1  0
  3 11  1  0
  3  1  2  0
  4  1  1  0
  4  7  1  0
  5  4  2  0
  6  2  2  0
  6  5  1  0
  8  5  1  0
  8  9  1  0
  9 54  1  0
  9  7  1  0
 10  6  1  0
 11 13  1  0
 12 11  2  0
 14 15  1  0
 14 13  1  0
 16 17  1  0
 16 15  1  0
 18 17  1  0
 19 24  1  0
 20 21  1  0
 20 19  1  0
 22 21  1  0
 22 29  1  0
 22 23  1  0
 24 18  1  0
 24 23  1  0
 25 18  2  0
 26 27  2  0
 27 46  1  0
 28 27  1  0
 28 31  1  0
 29 26  1  0
 29 30  1  0
 30 28  2  0
 31 32  1  0
 32 33  2  0
 34 37  1  0
 34 33  1  0
 35 34  2  0
 36 35  1  0
 36 31  2  0
 37 38  1  0
 38 39  1  0
 39 40  2  0
 41 40  1  0
 41 45  1  0
 42 41  2  0
 43 38  2  0
 43 42  1  0
 44 43  1  0
 46 47  1  0
 47 50  1  0
 47 49  1  0
 48 46  2  0
 51 52  1  0
 51 26  1  0
 53 51  1  0
 54 56  1  0
 55 66  2  0
 56 61  1  0
 57 65  1  0
 57 67  1  0
 58 64  1  0
 58 60  1  0
 59 65  1  0
 60 59  1  0
 61 60  2  0
 62 63  1  0
 62 56  2  0
 63 58  2  0
 64 57  1  0
 65 55  1  0
 67 69  2  0
 68 67  1  0
 70 68  1  0
 71 80  2  0
 71 76  1  0
 72 68  1  0
 72 76  1  0
 73 72  1  0
 74 75  1  0
 74 73  1  0
 75 71  1  0
 76 77  2  0
 77 78  1  0
 79 78  2  0
 80 79  1  0
 81 55  1  0
 81 82  1  0
 81 91  1  0
 82 85  1  0
 83 87  1  0
 83 82  1  0
 84 83  2  0
 87 86  1  0
 89 87  1  0
 89 90  1  0
 89 88  1  0
 91 94  1  1
 91 92  1  0
 93 91  1  0
M  ISO  4   9 101  17 100  18 100  54 101
M  END
>  <TORSDO>  (86) 
F 22

>  <SCORE>  (86) 
-12.505

>  <name>  (86) 
86

>  <ligand_id>  (86) 
86

>  <original_smiles>  (86) 
[H]c1c([H])c([H])c2c(c1[H])C([H])([H])C([H])([H])C([H])([H])C2([H])N([H])C(=O)C1([H])N(C(=O)C([H])(N([H])C(=O)C([H])(N([H])C([H])([H])[H])C([H])([H])[H])C(C([H])([H])[H])(C([H])([H])[H])C([H])([H])[H])C([H])([H])c2c([H])c(OC3([H])C([H])([H])c4c([H])c(C(=O)C([H])([H])C([H])([H])C([H])([H])C([H])([H])C([H])([H])C(=O)N5C([H])([H])C([H])([H])C([H])([H])C([H])(n6nc(-c7c([H])c([H])c(Oc8c([H])c([H])c(F)c([H])c8F)c([H])c7[H])c(C(=O)N([H])[H])c6N([H])[H])C5([H])[H])c([H])c(C([H])([H])[H])c4C3([H])[H])c([H])c([H])c2C1([H])[H]

>  <smiles>  (86) 
[H]c1c([H])c([H])c2c(c1[H])C([H])([H])C([H])([H])C([H])([H])C2([H])N([H])C(=O)C1([H])N(C(=O)C([H])(N([H])C(=O)C([H])(N([H])C([H])([H])[H])C([H])([H])[H])C(C([H])([H])[H])(C([H])([H])[H])C([H])([H])[H])C([H])([H])c2c([H])c(OC3([H])C([H])([H])c4c([H])c(C(=O)C([H])([H])C([H])([H])C([H])([H])C([H])([H])C([H])([H])C(=O)N5C([H])([H])C([H])([H])C([H])([H])C([H])(n6nc(-c7c([H])c([H])c(Oc8c([H])c([H])c(F)c([H])c8F)c([H])c7[H])c(C(=O)N([H])[H])c6N([H])[H])C5([H])[H])c([H])c(C([H])([H])[H])c4C3([H])[H])c([H])c([H])c2C1([H])[H]

$$$$
87:0:0
     RDKit          3D

 96103  0  0  1  0  0  0  0  0999 V2000
  -24.7800  -15.3670   18.3610 C   0  0  0  0  0  3  0  0  0  0  0  0
  -23.7570  -16.2990   19.6530 C   0  0  0  0  0  3  0  0  0  0  0  0
  -26.1840  -16.4880   21.6300 C   0  0  0  0  0  2  0  0  0  0  0  0
  -26.6170  -15.0790   18.6830 C   0  0  0  0  0  2  0  0  0  0  0  0
  -24.5210  -17.0210   21.2110 C   0  0  0  0  0  3  0  0  0  0  0  0
  -27.3080  -15.6670   20.4490 C   0  0  0  0  0  3  0  0  0  0  0  0
  -28.4380  -15.4160   21.0750 F   0  0  0  0  0  0  0  0  0  0  0  0
  -27.3940  -15.2010   17.3920 C   0  0  0  0  0  0  0  0  0  0  0  0
  -27.5950  -14.2600   16.6150 O   0  0  0  0  0  0  0  0  0  0  0  0
  -27.5300  -16.6970   16.9320 C   0  0  0  0  0  2  0  0  0  0  0  0
  -28.7240  -17.3160   16.1440 C   0  0  0  0  0  2  0  0  0  0  0  0
  -30.1160  -16.7540   16.4610 C   0  0  0  0  0  2  0  0  0  0  0  0
  -30.7340  -17.2690   17.7950 C   0  0  0  0  0  2  0  0  0  0  0  0
  -31.4950  -16.2140   18.6640 C   0  0  0  0  0  2  0  0  0  0  0  0
  -30.5160  -15.3230   19.4240 C   0  0  0  0  0  2  0  0  0  0  0  0
  -31.0540  -14.1720   20.3450 C   0  0  0  0  0  0  0  0  0  0  0  0
  -30.7160  -11.9940   19.4420 C   0  0  0  0  0  2  0  0  0  0  0  0
  -29.5670  -11.7320   18.4310 C   0  0  0  0  0  2  0  0  0  0  0  0
  -28.0960  -11.7840   18.9510 C   0  0  0  0  0  2  0  0  0  0  0  0
  -27.8920  -12.7830   20.0980 C   0  0  0  0  0  3  0  0  0  0  0  0
  -29.0500  -12.6330   21.1230 C   0  0  0  0  0  2  0  0  0  0  0  0
  -30.3430  -13.0010   20.4410 N   0  0  0  0  0  0  0  0  0  0  0  0
  -32.2650  -14.2160   20.4800 O   0  0  0  0  0  0  0  0  0  0  0  0
  -25.4840  -14.3780   20.6720 C   0  0  0  0  0  3  0  0  0  0  0  0
  -24.4280  -13.3640   21.1050 C   0  0  0  0  0  0  0  0  0  0  0  0
  -24.7790  -11.8940   21.0970 C   0  0  0  0  0  0  0  0  0  0  0  0
  -26.4410  -13.0810   20.5950 N   0  0  0  0  0  0  0  0  0  0  0  0
  -26.0210  -11.8200   20.8740 N   0  0  0  0  0  0  0  0  0  0  0  0
  -24.0680  -10.4990   21.2550 C   0  0  0  0  0  0  0  0  0  0  0  0
  -24.5590   -9.4180   22.0630 C   0  0  0  0  0  3  0  0  0  0  0  0
  -23.8700   -8.1760   22.2140 C   0  0  0  0  0  3  0  0  0  0  0  0
  -22.6440   -7.9340   21.5470 C   0  0  0  0  0  0  0  0  0  0  0  0
  -22.1830   -8.9570   20.6900 C   0  0  0  0  0  3  0  0  0  0  0  0
  -22.8750  -10.1930   20.5470 C   0  0  0  0  0  3  0  0  0  0  0  0
  -21.9040   -6.7590   21.6050 O   0  0  0  0  0  0  0  0  0  0  0  0
  -21.9150   -5.8980   22.6840 C   0  0  0  0  0  0  0  0  0  0  0  0
  -21.6610   -6.3440   24.0000 C   0  0  0  0  0  3  0  0  0  0  0  0
  -21.6210   -5.4270   25.0700 C   0  0  0  0  0  3  0  0  0  0  0  0
  -21.8260   -4.0540   24.8380 C   0  0  0  0  0  0  0  0  0  0  0  0
  -22.0560   -3.5960   23.5300 C   0  0  0  0  0  3  0  0  0  0  0  0
  -22.0940   -4.5100   22.4570 C   0  0  0  0  0  0  0  0  0  0  0  0
  -22.2920   -4.0470   21.2020 F   0  0  0  0  0  0  0  0  0  0  0  0
  -21.7950   -3.1730   25.8690 F   0  0  0  0  0  0  0  0  0  0  0  0
  -22.9670  -13.5420   21.4490 C   0  0  0  0  0  0  0  0  0  0  0  0
  -22.4230  -12.7500   22.3630 N   0  0  0  0  0  0  0  0  0  0  0  0
  -22.2330  -14.3450   20.9120 O   0  0  0  0  0  0  0  0  0  0  0  0
  -22.9660  -12.0630   22.8610 H   0  0  0  0  0  0  0  0  0  0  0  0
  -21.4280  -12.8220   22.5260 H   0  0  0  0  0  0  0  0  0  0  0  0
  -26.0430  -16.8020   19.6950 N   0  0  0  0  0  0  0  0  0  0  0  0
  -25.3420  -17.5280   19.6290 H   0  0  0  0  0  0  0  0  0  0  0  0
  -26.9700  -17.1740   19.5470 H   0  0  0  0  0  0  0  0  0  0  0  0
  -24.6470  -18.8730   21.3790 C   0  0  0  0  0  3  0  0  0  0  0  0
  -25.4060  -20.4260   20.5280 C   0  0  0  0  0  3  0  0  0  0  0  0
  -25.8760  -22.2560   20.9070 C   0  0  0  0  0  3  0  0  0  0  0  0
  -26.6340  -23.7950   20.0480 C   0  0  0  0  0  3  0  0  0  0  0  0
  -27.3470  -25.3720   20.2990 O   0  0  0  0  0  0  0  0  0  0  0  0
  -24.7870  -31.9310   22.8680 C   0  0  0  0  0  0  0  0  0  0  0  0
  -26.8210  -26.7440   20.0220 C   0  0  0  0  0  0  0  0  0  0  0  0
  -23.5490  -30.5580   21.2610 C   0  0  0  0  0  3  0  0  0  0  0  0
  -24.9020  -28.9270   19.8130 C   0  0  0  0  0  0  0  0  0  0  0  0
  -26.1270  -30.6290   21.1310 C   0  0  0  0  0  2  0  0  0  0  0  0
  -26.0990  -29.2040   20.4870 C   0  0  0  0  0  0  0  0  0  0  0  0
  -27.0840  -28.1120   20.5810 C   0  0  0  0  0  3  0  0  0  0  0  0
  -25.7380  -26.7280   19.1480 C   0  0  0  0  0  3  0  0  0  0  0  0
  -24.7610  -27.7290   19.1150 C   0  0  0  0  0  3  0  0  0  0  0  0
  -23.7490  -29.9150   19.8660 C   0  0  0  0  0  2  0  0  0  0  0  0
  -24.8450  -31.0760   21.7970 N   0  0  0  0  0  0  0  0  0  0  0  0
  -23.7050  -32.2510   23.3870 O   0  0  0  0  0  0  0  0  0  0  0  0
  -22.8580  -29.5620   22.2230 C   0  0  0  0  0  0  0  0  0  0  0  0
  -21.5230  -29.4260   22.1230 N   0  0  0  0  0  0  0  0  0  0  0  0
  -23.5220  -28.9250   23.0490 O   0  0  0  0  0  0  0  0  0  0  0  0
  -21.0440  -29.9910   21.4360 H   0  0  0  0  0  0  0  0  0  0  0  0
  -18.1190  -28.3050   22.6790 C   0  0  0  0  0  0  0  0  0  0  0  0
  -20.6880  -28.5190   22.9130 C   0  0  0  0  0  3  0  0  0  0  0  0
  -20.7520  -27.0770   22.3570 C   0  0  0  0  0  2  0  0  0  0  0  0
  -19.6300  -26.7650   21.3600 C   0  0  0  0  0  2  0  0  0  0  0  0
  -18.2590  -26.9470   22.0150 C   0  0  0  0  0  2  0  0  0  0  0  0
  -19.2580  -29.0510   23.0840 C   0  0  0  0  0  0  0  0  0  0  0  0
  -19.0660  -30.3220   23.6690 C   0  0  0  0  0  3  0  0  0  0  0  0
  -17.7710  -30.8430   23.8540 C   0  0  0  0  0  3  0  0  0  0  0  0
  -16.6480  -30.0940   23.4590 C   0  0  0  0  0  3  0  0  0  0  0  0
  -16.8250  -28.8280   22.8760 C   0  0  0  0  0  3  0  0  0  0  0  0
  -26.0710  -32.5610   23.4750 C   0  0  0  0  0  3  0  0  0  0  0  0
  -26.5980  -31.7800   24.7430 C   0  0  1  0  0  0  0  0  0  0  0  0
  -25.5130  -31.5440   25.8210 C   0  0  0  0  0  1  0  0  0  0  0  0
  -27.1720  -30.4010   24.3490 C   0  0  0  0  0  1  0  0  0  0  0  0
  -27.7610  -32.5650   25.3930 C   0  0  0  0  0  1  0  0  0  0  0  0
  -25.7520  -33.9520   23.8420 N   0  0  0  0  0  0  0  0  0  0  0  0
  -26.0650  -35.0330   23.1150 C   0  0  0  0  0  0  0  0  0  0  0  0
  -26.7120  -34.9620   22.0690 O   0  0  0  0  0  0  0  0  0  0  0  0
  -25.1760  -34.0780   24.6590 H   0  0  0  0  0  0  0  0  0  0  0  0
  -24.3140  -36.8340   22.8780 C   0  0  0  0  0  1  0  0  0  0  0  0
  -25.5840  -36.4060   23.6310 C   0  0  0  0  0  3  0  0  0  0  0  0
  -27.7460  -37.2810   24.4050 C   0  0  0  0  0  1  0  0  0  0  0  0
  -26.6020  -37.4740   23.5200 N   0  0  0  0  0  0  0  0  0  0  0  0
  -26.1930  -38.3810   23.7290 H   0  0  0  0  0  0  0  0  0  0  0  0
  1  4  1  0
  1  2  2  0
  5  2  1  0
  5 52  1  0
  5  3  1  0
  6  7  1  0
  6  3  1  0
  8  4  1  0
  9  8  2  0
 10  8  1  0
 11 12  1  0
 11 10  1  0
 12 13  1  0
 13 14  1  0
 14 15  1  0
 15 16  1  0
 16 22  1  0
 16 23  2  0
 17 22  1  0
 18 19  1  0
 18 17  1  0
 20 19  1  0
 20 27  1  0
 20 21  1  0
 22 21  1  0
 24 25  2  0
 25 44  1  0
 26 25  1  0
 26 29  1  0
 27 24  1  0
 27 28  1  0
 28 26  2  0
 29 30  1  0
 30 31  2  0
 32 35  1  0
 32 31  1  0
 33 32  2  0
 34 33  1  0
 34 29  2  0
 35 36  1  0
 36 37  1  0
 37 38  2  0
 39 38  1  0
 39 43  1  0
 40 39  2  0
 41 36  2  0
 41 40  1  0
 42 41  1  0
 44 45  1  0
 45 48  1  0
 45 47  1  0
 46 44  2  0
 49  6  1  0
 50 49  1  0
 51 49  1  0
 53 54  1  0
 53 52  2  0
 55 56  1  0
 55 54  2  0
 57 68  2  0
 58 56  1  0
 58 63  1  0
 59 67  1  0
 59 69  1  0
 60 66  1  0
 60 62  1  0
 61 67  1  0
 62 63  2  0
 62 61  1  0
 64 58  2  0
 65 64  1  0
 65 60  2  0
 66 59  1  0
 67 57  1  0
 69 71  2  0
 70 69  1  0
 72 70  1  0
 73 82  2  0
 73 78  1  0
 74 70  1  0
 74 78  1  0
 75 74  1  0
 76 77  1  0
 76 75  1  0
 77 73  1  0
 78 79  2  0
 79 80  1  0
 81 80  2  0
 82 81  1  0
 83 57  1  0
 83 88  1  0
 83 84  1  0
 84 87  1  1
 84 85  1  0
 86 84  1  0
 88 91  1  0
 89 93  1  0
 89 88  1  0
 90 89  2  0
 93 92  1  0
 95 93  1  0
 95 96  1  0
 95 94  1  0
M  ISO  4  15 100  16 100  55 101  56 101
M  END
>  <TORSDO>  (87) 
F 27

>  <SCORE>  (87) 
27.898

>  <name>  (87) 
87

>  <ligand_id>  (87) 
87

>  <original_smiles>  (87) 
[H]c1c([H])c([H])c2c(c1[H])C([H])([H])C([H])([H])C([H])([H])C2([H])N([H])C(=O)C1([H])N(C(=O)C([H])(N([H])C(=O)C([H])(N([H])C([H])([H])[H])C([H])([H])[H])C(C([H])([H])[H])(C([H])([H])[H])C([H])([H])[H])C([H])([H])c2c([H])c(OC([H])([H])C([H])([H])C([H])([H])C([H])([H])c3c([H])c([H])c(C(=O)C([H])([H])C([H])([H])C([H])([H])C([H])([H])C([H])([H])C([H])([H])C(=O)N4C([H])([H])C([H])([H])C([H])([H])C([H])(n5nc(-c6c([H])c([H])c(Oc7c([H])c([H])c(F)c([H])c7F)c([H])c6[H])c(C(=O)N([H])[H])c5N([H])[H])C4([H])[H])c(F)c3[H])c([H])c([H])c2C1([H])[H]

>  <smiles>  (87) 
[H]c1c([H])c([H])c2c(c1[H])C([H])([H])C([H])([H])C([H])([H])C2([H])N([H])C(=O)C1([H])N(C(=O)C([H])(N([H])C(=O)C([H])(N([H])C([H])([H])[H])C([H])([H])[H])C(C([H])([H])[H])(C([H])([H])[H])C([H])([H])[H])C([H])([H])c2c([H])c(OC([H])([H])C([H])([H])C([H])([H])C([H])([H])c3c([H])c([H])c(C(=O)C([H])([H])C([H])([H])C([H])([H])C([H])([H])C([H])([H])C([H])([H])C(=O)N4C([H])([H])C([H])([H])C([H])([H])C([H])(n5nc(-c6c([H])c([H])c(Oc7c([H])c([H])c(F)c([H])c7F)c([H])c6[H])c(C(=O)N([H])[H])c5N([H])[H])C4([H])[H])c(F)c3[H])c([H])c([H])c2C1([H])[H]

$$$$
88:0:0
     RDKit          3D

 99107  0  0  1  0  0  0  0  0999 V2000
  -33.8070  -21.7020   20.1500 C   0  0  0  0  0  3  0  0  0  0  0  0
  -34.0650  -22.6530   19.1490 C   0  0  0  0  0  3  0  0  0  0  0  0
  -31.4360  -22.2080   20.0160 C   0  0  0  0  0  3  0  0  0  0  0  0
  -32.4920  -21.4730   20.6010 C   0  0  0  0  0  0  0  0  0  0  0  0
  -33.0150  -23.3950   18.5720 C   0  0  0  0  0  0  0  0  0  0  0  0
  -31.6830  -23.1650   19.0060 C   0  0  0  0  0  0  0  0  0  0  0  0
  -32.2820  -20.4960   21.6830 C   0  0  0  0  0  3  0  0  0  0  0  0
  -31.1010  -20.1040   22.1960 C   0  0  0  0  0  3  0  0  0  0  0  0
  -30.9600  -19.1290   23.3550 C   0  0  0  0  0  3  0  0  0  0  0  0
  -30.2290  -17.9130   22.9320 N   0  0  0  0  0  4  0  0  0  0  0  0
  -30.0320  -17.3830   23.7640 H   0  0  0  0  0  0  0  0  0  0  0  0
  -29.3440  -18.1830   22.5310 H   0  0  0  0  0  0  0  0  0  0  0  0
  -30.9460  -17.0160   21.9930 C   0  0  0  0  0  2  0  0  0  0  0  0
  -30.1600  -15.7070   21.7770 C   0  0  0  0  0  2  0  0  0  0  0  0
  -30.7760  -14.7300   20.7590 C   0  0  0  0  0  0  0  0  0  0  0  0
  -30.5770  -12.6020   19.5070 C   0  0  0  0  0  2  0  0  0  0  0  0
  -29.6600  -12.7570   18.2790 C   0  0  0  0  0  2  0  0  0  0  0  0
  -28.1790  -12.5720   18.6650 C   0  0  0  0  0  2  0  0  0  0  0  0
  -27.7760  -13.4170   19.9010 C   0  0  0  0  0  3  0  0  0  0  0  0
  -28.7940  -13.2140   21.0440 C   0  0  0  0  0  2  0  0  0  0  0  0
  -30.1320  -13.5560   20.5310 N   0  0  0  0  0  0  0  0  0  0  0  0
  -31.8220  -15.0390   20.1780 O   0  0  0  0  0  0  0  0  0  0  0  0
  -25.3400  -13.9790   20.5290 C   0  0  0  0  0  0  0  0  0  0  0  0
  -24.2760  -13.1820   20.8600 C   0  0  0  0  0  0  0  0  0  0  0  0
  -24.7650  -11.8400   20.8380 C   0  0  0  0  0  0  0  0  0  0  0  0
  -26.4110  -13.1180   20.3310 N   0  0  0  0  0  0  0  0  0  0  0  0
  -26.0650  -11.8290   20.5710 N   0  0  0  0  0  0  0  0  0  0  0  0
  -24.0600  -10.5630   21.0000 C   0  0  0  0  0  0  0  0  0  0  0  0
  -24.4430   -9.6310   21.9900 C   0  0  0  0  0  3  0  0  0  0  0  0
  -23.7390   -8.4150   22.1380 C   0  0  0  0  0  3  0  0  0  0  0  0
  -22.6400   -8.1250   21.2950 C   0  0  0  0  0  0  0  0  0  0  0  0
  -22.2780   -9.0470   20.2980 C   0  0  0  0  0  3  0  0  0  0  0  0
  -22.9820  -10.2530   20.1480 C   0  0  0  0  0  3  0  0  0  0  0  0
  -21.9140   -6.9600   21.3500 O   0  0  0  0  0  0  0  0  0  0  0  0
  -21.7390   -6.2750   22.5250 C   0  0  0  0  0  0  0  0  0  0  0  0
  -21.1360   -6.8730   23.6530 C   0  0  0  0  0  3  0  0  0  0  0  0
  -20.9120   -6.1120   24.8190 C   0  0  0  0  0  3  0  0  0  0  0  0
  -21.2810   -4.7540   24.8550 C   0  0  0  0  0  0  0  0  0  0  0  0
  -21.8760   -4.1550   23.7310 C   0  0  0  0  0  3  0  0  0  0  0  0
  -22.1010   -4.9130   22.5680 C   0  0  0  0  0  0  0  0  0  0  0  0
  -22.6560   -4.3270   21.4800 F   0  0  0  0  0  0  0  0  0  0  0  0
  -21.0590   -4.0200   25.9700 F   0  0  0  0  0  0  0  0  0  0  0  0
  -22.8600  -13.6290   21.0910 C   0  0  0  0  0  0  0  0  0  0  0  0
  -22.1260  -12.9240   21.9450 N   0  0  0  0  0  0  0  0  0  0  0  0
  -22.4120  -14.6390   20.5500 O   0  0  0  0  0  0  0  0  0  0  0  0
  -22.5010  -12.1070   22.4050 H   0  0  0  0  0  0  0  0  0  0  0  0
  -21.1760  -13.2040   22.1410 H   0  0  0  0  0  0  0  0  0  0  0  0
  -25.4830  -15.3520   20.3610 N   0  0  0  0  0  0  0  0  0  0  0  0
  -24.7000  -15.9920   20.4420 H   0  0  0  0  0  0  0  0  0  0  0  0
  -26.3350  -15.8070   20.0560 H   0  0  0  0  0  0  0  0  0  0  0  0
  -30.8050  -21.1830   24.9110 C   0  0  0  0  0  1  0  0  0  0  0  0
  -30.2480  -19.7960   24.5520 C   0  0  0  0  0  2  0  0  0  0  0  0
  -33.3670  -24.4160   17.4990 C   0  0  0  0  0  2  0  0  0  0  0  0
  -33.9350  -24.7840   15.0420 C   0  0  0  0  0  1  0  0  0  0  0  0
  -33.5070  -23.7730   16.1120 C   0  0  0  0  0  2  0  0  0  0  0  0
  -30.4950  -23.9280   18.4310 C   0  0  0  0  0  2  0  0  0  0  0  0
  -30.1600  -25.1880   19.2470 C   0  0  0  0  0  2  0  0  0  0  0  0
  -28.7980  -25.7900   18.8840 C   0  0  0  0  0  2  0  0  0  0  0  0
  -28.6320  -26.9920   19.6290 O   0  0  0  0  0  0  0  0  0  0  0  0
  -24.5740  -31.7270   23.0060 C   0  0  0  0  0  0  0  0  0  0  0  0
  -27.3970  -27.6010   19.6620 C   0  0  0  0  0  0  0  0  0  0  0  0
  -23.4140  -30.3480   21.3120 C   0  0  0  0  0  3  0  0  0  0  0  0
  -24.9190  -28.9610   19.7930 C   0  0  0  0  0  0  0  0  0  0  0  0
  -25.9120  -30.8470   21.0990 C   0  0  0  0  0  2  0  0  0  0  0  0
  -26.0550  -29.5150   20.3940 C   0  0  0  0  0  0  0  0  0  0  0  0
  -27.2900  -28.8370   20.3350 C   0  0  0  0  0  3  0  0  0  0  0  0
  -26.2390  -27.0520   19.0590 C   0  0  0  0  0  3  0  0  0  0  0  0
  -25.0040  -27.7250   19.1280 C   0  0  0  0  0  3  0  0  0  0  0  0
  -23.6340  -29.7490   19.8970 C   0  0  0  0  0  2  0  0  0  0  0  0
  -24.6520  -30.9870   21.8650 N   0  0  0  0  0  0  0  0  0  0  0  0
  -23.4900  -31.9170   23.5740 O   0  0  0  0  0  0  0  0  0  0  0  0
  -22.8320  -29.2480   22.2270 C   0  0  0  0  0  0  0  0  0  0  0  0
  -21.5090  -29.0380   22.1420 N   0  0  0  0  0  0  0  0  0  0  0  0
  -23.5650  -28.5900   22.9700 O   0  0  0  0  0  0  0  0  0  0  0  0
  -20.9760  -29.6260   21.5170 H   0  0  0  0  0  0  0  0  0  0  0  0
  -18.1830  -27.7530   22.7260 C   0  0  0  0  0  0  0  0  0  0  0  0
  -20.7490  -28.0300   22.8790 C   0  0  0  0  0  3  0  0  0  0  0  0
  -20.8380  -26.6490   22.1880 C   0  0  0  0  0  2  0  0  0  0  0  0
  -19.6860  -26.3860   21.2130 C   0  0  0  0  0  2  0  0  0  0  0  0
  -18.3400  -26.4610   21.9400 C   0  0  0  0  0  2  0  0  0  0  0  0
  -19.3150  -28.4970   23.1530 C   0  0  0  0  0  0  0  0  0  0  0  0
  -19.1150  -29.7090   23.8480 C   0  0  0  0  0  3  0  0  0  0  0  0
  -17.8160  -30.1770   24.1200 C   0  0  0  0  0  3  0  0  0  0  0  0
  -16.7000  -29.4290   23.7080 C   0  0  0  0  0  3  0  0  0  0  0  0
  -16.8840  -28.2180   23.0170 C   0  0  0  0  0  3  0  0  0  0  0  0
  -25.8370  -32.3910   23.6390 C   0  0  0  0  0  3  0  0  0  0  0  0
  -25.4760  -33.7650   24.0100 N   0  0  0  0  0  0  0  0  0  0  0  0
  -25.7720  -34.8510   23.2840 C   0  0  0  0  0  0  0  0  0  0  0  0
  -26.4490  -34.8050   22.2540 O   0  0  0  0  0  0  0  0  0  0  0  0
  -24.8760  -33.8740   24.8150 H   0  0  0  0  0  0  0  0  0  0  0  0
  -23.9810  -36.5870   22.9680 C   0  0  0  0  0  1  0  0  0  0  0  0
  -25.2290  -36.2040   23.7790 C   0  0  0  0  0  3  0  0  0  0  0  0
  -27.3220  -37.1410   24.6580 C   0  0  0  0  0  1  0  0  0  0  0  0
  -26.2210  -37.2990   23.7110 N   0  0  0  0  0  0  0  0  0  0  0  0
  -25.7800  -38.1970   23.8850 H   0  0  0  0  0  0  0  0  0  0  0  0
  -26.3950  -31.6020   24.8880 C   0  0  1  0  0  0  0  0  0  0  0  0
  -25.3230  -31.2950   25.9580 C   0  0  0  0  0  1  0  0  0  0  0  0
  -27.0220  -30.2590   24.4470 C   0  0  0  0  0  1  0  0  0  0  0  0
  -27.5230  -32.4180   25.5620 C   0  0  0  0  0  1  0  0  0  0  0  0
  1  4  1  0
  2  1  2  0
  3  4  2  0
  4  7  1  0
  5  6  2  0
  5  2  1  0
  6  3  1  0
  7  8  2  0
  9  8  1  0
  9 52  1  0
 10  9  1  0
 10 11  1  0
 12 10  1  0
 13 10  1  0
 14 13  1  0
 15 14  1  0
 16 21  1  0
 17 18  1  0
 17 16  1  0
 19 18  1  0
 19 26  1  0
 19 20  1  0
 21 15  1  0
 21 20  1  0
 22 15  2  0
 23 24  2  0
 24 43  1  0
 25 24  1  0
 25 28  1  0
 26 23  1  0
 26 27  1  0
 27 25  2  0
 28 29  1  0
 29 30  2  0
 31 34  1  0
 31 30  1  0
 32 31  2  0
 33 32  1  0
 33 28  2  0
 34 35  1  0
 35 40  2  0
 35 36  1  0
 36 37  2  0
 37 38  1  0
 38 42  1  0
 39 38  2  0
 40 39  1  0
 41 40  1  0
 43 44  1  0
 44 47  1  0
 44 46  1  0
 45 43  2  0
 48 49  1  0
 48 23  1  0
 50 48  1  0
 52 51  1  0
 53  5  1  0
 54 55  1  0
 55 53  1  0
 56  6  1  0
 56 57  1  0
 58 57  1  0
 58 59  1  0
 59 61  1  0
 60 71  2  0
 61 66  1  0
 62 70  1  0
 62 72  1  0
 63 69  1  0
 63 65  1  0
 64 70  1  0
 65 64  1  0
 66 65  2  0
 67 68  1  0
 67 61  2  0
 68 63  2  0
 69 62  1  0
 70 60  1  0
 72 74  2  0
 73 72  1  0
 75 73  1  0
 76 85  2  0
 76 81  1  0
 77 73  1  0
 77 81  1  0
 78 77  1  0
 79 80  1  0
 79 78  1  0
 80 76  1  0
 81 82  2  0
 82 83  1  0
 84 83  2  0
 85 84  1  0
 86 60  1  0
 86 87  1  0
 86 96  1  0
 87 90  1  0
 88 92  1  0
 88 87  1  0
 89 88  2  0
 92 91  1  0
 94 92  1  0
 94 95  1  0
 94 93  1  0
 96 99  1  1
 96 97  1  0
 98 96  1  0
M  ISO  4  14 100  15 100  58 101  59 101
M  END
>  <TORSDO>  (88) 
F 27

>  <SCORE>  (88) 
-10.340

>  <name>  (88) 
88

>  <ligand_id>  (88) 
88

>  <original_smiles>  (88) 
[H]C(=C([H])C([H])(C([H])([H])C([H])([H])[H])[N+]([H])([H])C([H])([H])C([H])([H])C(=O)N1C([H])([H])C([H])([H])C([H])([H])C([H])(n2nc(-c3c([H])c([H])c(Oc4c([H])c([H])c(F)c([H])c4F)c([H])c3[H])c(C(=O)N([H])[H])c2N([H])[H])C1([H])[H])c1c([H])c([H])c(C([H])([H])C([H])([H])C([H])([H])[H])c(C([H])([H])C([H])([H])C([H])([H])Oc2c([H])c([H])c3c(c2[H])C([H])([H])N(C(=O)C([H])(N([H])C(=O)C([H])(N([H])C([H])([H])[H])C([H])([H])[H])C(C([H])([H])[H])(C([H])([H])[H])C([H])([H])[H])C([H])(C(=O)N([H])C2([H])c4c([H])c([H])c([H])c([H])c4C([H])([H])C([H])([H])C2([H])[H])C3([H])[H])c1[H]

>  <smiles>  (88) 
[H]C(=C([H])C([H])(C([H])([H])C([H])([H])[H])[N+]([H])([H])C([H])([H])C([H])([H])C(=O)N1C([H])([H])C([H])([H])C([H])([H])C([H])(n2nc(-c3c([H])c([H])c(Oc4c([H])c([H])c(F)c([H])c4F)c([H])c3[H])c(C(=O)N([H])[H])c2N([H])[H])C1([H])[H])c1c([H])c([H])c(C([H])([H])C([H])([H])C([H])([H])[H])c(C([H])([H])C([H])([H])C([H])([H])Oc2c([H])c([H])c3c(c2[H])C([H])([H])N(C(=O)C([H])(N([H])C(=O)C([H])(N([H])C([H])([H])[H])C([H])([H])[H])C(C([H])([H])[H])(C([H])([H])[H])C([H])([H])[H])C([H])(C(=O)N([H])C2([H])c4c([H])c([H])c([H])c([H])c4C([H])([H])C([H])([H])C2([H])[H])C3([H])[H])c1[H]

$$$$
89:0:0
     RDKit          3D

 93100  0  0  1  0  0  0  0  0999 V2000
  -31.5790  -23.8340   22.1070 C   0  0  0  0  0  0  0  0  0  0  0  0
  -30.4210  -23.8640   21.4290 N   0  0  0  0  0  0  0  0  0  0  0  0
  -32.1140  -24.8720   22.5070 O   0  0  0  0  0  0  0  0  0  0  0  0
  -30.0430  -22.9870   21.0970 H   0  0  0  0  0  0  0  0  0  0  0  0
  -33.3310  -22.1600   21.3390 C   0  0  0  0  0  1  0  0  0  0  0  0
  -32.2690  -22.4860   22.4080 C   0  0  0  0  0  3  0  0  0  0  0  0
  -31.3140  -21.2980   22.6870 C   0  0  0  0  0  2  0  0  0  0  0  0
  -31.9650  -20.1960   23.5540 C   0  0  0  0  0  2  0  0  0  0  0  0
  -31.1550  -18.8880   23.6330 C   0  0  0  0  0  2  0  0  0  0  0  0
  -31.4850  -17.8810   22.5180 C   0  0  0  0  0  2  0  0  0  0  0  0
  -30.8130  -16.5140   22.7310 C   0  0  0  0  0  2  0  0  0  0  0  0
  -31.3040  -15.4530   21.7330 C   0  0  0  0  0  2  0  0  0  0  0  0
  -30.4760  -14.1520   21.7980 C   0  0  0  0  0  2  0  0  0  0  0  0
  -30.8720  -13.1180   20.7320 C   0  0  0  0  0  0  0  0  0  0  0  0
  -30.4850  -10.9340   19.6440 C   0  0  0  0  0  2  0  0  0  0  0  0
  -29.5780  -11.0480   18.4050 C   0  0  0  0  0  2  0  0  0  0  0  0
  -28.0930  -10.9890   18.8110 C   0  0  0  0  0  2  0  0  0  0  0  0
  -27.7510  -11.9610   19.9700 C   0  0  0  0  0  3  0  0  0  0  0  0
  -28.7630  -11.8080   21.1280 C   0  0  0  0  0  2  0  0  0  0  0  0
  -30.1180  -11.9990   20.5850 N   0  0  0  0  0  0  0  0  0  0  0  0
  -31.8910  -13.3190   20.0630 O   0  0  0  0  0  0  0  0  0  0  0  0
  -25.3920  -12.7280   20.6760 C   0  0  0  0  0  0  0  0  0  0  0  0
  -24.2620  -12.0260   21.0020 C   0  0  0  0  0  0  0  0  0  0  0  0
  -24.6180  -10.6460   20.9190 C   0  0  0  0  0  0  0  0  0  0  0  0
  -26.3720  -11.7790   20.4230 N   0  0  0  0  0  0  0  0  0  0  0  0
  -25.9050  -10.5200   20.6210 N   0  0  0  0  0  0  0  0  0  0  0  0
  -23.7940   -9.4360   21.0500 C   0  0  0  0  0  0  0  0  0  0  0  0
  -24.0480   -8.4770   22.0560 C   0  0  0  0  0  3  0  0  0  0  0  0
  -23.2340   -7.3310   22.1730 C   0  0  0  0  0  3  0  0  0  0  0  0
  -22.1510   -7.1360   21.2830 C   0  0  0  0  0  0  0  0  0  0  0  0
  -21.9180   -8.0810   20.2700 C   0  0  0  0  0  3  0  0  0  0  0  0
  -22.7320   -9.2190   20.1510 C   0  0  0  0  0  3  0  0  0  0  0  0
  -21.3230   -6.0390   21.3070 O   0  0  0  0  0  0  0  0  0  0  0  0
  -20.9970   -5.4080   22.4800 C   0  0  0  0  0  0  0  0  0  0  0  0
  -20.2710   -6.0590   23.5010 C   0  0  0  0  0  3  0  0  0  0  0  0
  -19.8970   -5.3520   24.6620 C   0  0  0  0  0  3  0  0  0  0  0  0
  -20.2390   -3.9930   24.7990 C   0  0  0  0  0  0  0  0  0  0  0  0
  -20.9580   -3.3410   23.7820 C   0  0  0  0  0  3  0  0  0  0  0  0
  -21.3340   -4.0450   22.6240 C   0  0  0  0  0  0  0  0  0  0  0  0
  -22.0060   -3.4070   21.6370 F   0  0  0  0  0  0  0  0  0  0  0  0
  -19.8740   -3.3110   25.9100 F   0  0  0  0  0  0  0  0  0  0  0  0
  -22.9010  -12.5980   21.2830 C   0  0  0  0  0  0  0  0  0  0  0  0
  -22.0870  -11.8920   22.0590 N   0  0  0  0  0  0  0  0  0  0  0  0
  -22.5690  -13.7020   20.8510 O   0  0  0  0  0  0  0  0  0  0  0  0
  -22.3640  -10.9960   22.4310 H   0  0  0  0  0  0  0  0  0  0  0  0
  -21.1710  -12.2530   22.2860 H   0  0  0  0  0  0  0  0  0  0  0  0
  -25.6640  -14.0880   20.5550 N   0  0  0  0  0  0  0  0  0  0  0  0
  -24.9590  -14.8030   20.6950 H   0  0  0  0  0  0  0  0  0  0  0  0
  -26.5560  -14.4650   20.2570 H   0  0  0  0  0  0  0  0  0  0  0  0
  -29.6890  -25.1080   21.1520 C   0  0  0  0  0  2  0  0  0  0  0  0
  -28.2000  -24.9080   20.7850 C   0  0  0  0  0  2  0  0  0  0  0  0
  -27.4890  -26.2410   20.4400 C   0  0  0  0  0  2  0  0  0  0  0  0
  -26.1490  -25.9950   20.0010 O   0  0  0  0  0  0  0  0  0  0  0  0
  -23.7570  -31.9400   23.2260 C   0  0  0  0  0  0  0  0  0  0  0  0
  -25.1880  -26.9780   20.1470 C   0  0  0  0  0  0  0  0  0  0  0  0
  -22.1080  -30.6770   21.8790 C   0  0  0  0  0  3  0  0  0  0  0  0
  -23.0750  -28.8540   20.3760 C   0  0  0  0  0  0  0  0  0  0  0  0
  -24.5950  -30.6080   21.2950 C   0  0  0  0  0  2  0  0  0  0  0  0
  -24.3730  -29.2100   20.7600 C   0  0  0  0  0  0  0  0  0  0  0  0
  -25.4330  -28.2800   20.6530 C   0  0  0  0  0  3  0  0  0  0  0  0
  -23.8780  -26.6450   19.7460 C   0  0  0  0  0  3  0  0  0  0  0  0
  -22.8200  -27.5680   19.8660 C   0  0  0  0  0  3  0  0  0  0  0  0
  -21.9970  -29.9040   20.5370 C   0  0  0  0  0  2  0  0  0  0  0  0
  -23.5160  -31.0890   22.1880 N   0  0  0  0  0  0  0  0  0  0  0  0
  -22.8280  -32.4150   23.8930 O   0  0  0  0  0  0  0  0  0  0  0  0
  -21.4600  -29.8270   22.9950 C   0  0  0  0  0  0  0  0  0  0  0  0
  -20.1280  -29.6670   22.9300 N   0  0  0  0  0  0  0  0  0  0  0  0
  -22.1490  -29.3100   23.8770 O   0  0  0  0  0  0  0  0  0  0  0  0
  -19.6380  -30.1260   22.1760 H   0  0  0  0  0  0  0  0  0  0  0  0
  -16.7940  -28.3810   23.4670 C   0  0  0  0  0  0  0  0  0  0  0  0
  -19.3040  -28.8750   23.8400 C   0  0  0  0  0  3  0  0  0  0  0  0
  -19.5290  -27.3600   23.6230 C   0  0  0  0  0  2  0  0  0  0  0  0
  -18.5310  -26.7360   22.6410 C   0  0  0  0  0  2  0  0  0  0  0  0
  -17.0970  -26.9280   23.1410 C   0  0  0  0  0  2  0  0  0  0  0  0
  -17.8320  -29.2990   23.7770 C   0  0  0  0  0  0  0  0  0  0  0  0
  -17.5000  -30.6480   24.0360 C   0  0  0  0  0  3  0  0  0  0  0  0
  -16.1610  -31.0800   23.9910 C   0  0  0  0  0  3  0  0  0  0  0  0
  -15.1360  -30.1620   23.7060 C   0  0  0  0  0  3  0  0  0  0  0  0
  -15.4520  -28.8160   23.4480 C   0  0  0  0  0  3  0  0  0  0  0  0
  -25.2070  -32.3730   23.6080 C   0  0  0  0  0  3  0  0  0  0  0  0
  -25.7820  -31.5930   24.8520 C   0  0  1  0  0  0  0  0  0  0  0  0
  -24.8320  -31.5850   26.0730 C   0  0  0  0  0  1  0  0  0  0  0  0
  -26.0850  -30.1250   24.4750 C   0  0  0  0  0  1  0  0  0  0  0  0
  -27.1290  -32.2190   25.2870 C   0  0  0  0  0  1  0  0  0  0  0  0
  -25.1830  -33.8190   23.8640 N   0  0  0  0  0  0  0  0  0  0  0  0
  -25.7140  -34.7410   23.0500 C   0  0  0  0  0  0  0  0  0  0  0  0
  -26.3420  -34.4500   22.0280 O   0  0  0  0  0  0  0  0  0  0  0  0
  -24.6390  -34.1300   24.6540 H   0  0  0  0  0  0  0  0  0  0  0  0
  -24.4020  -36.8260   22.5600 C   0  0  0  0  0  1  0  0  0  0  0  0
  -25.5150  -36.2200   23.4290 C   0  0  0  0  0  3  0  0  0  0  0  0
  -27.7680  -36.6900   24.2860 C   0  0  0  0  0  1  0  0  0  0  0  0
  -26.7460  -37.0310   23.3020 N   0  0  0  0  0  0  0  0  0  0  0  0
  -26.5370  -38.0200   23.3950 H   0  0  0  0  0  0  0  0  0  0  0  0
  1  6  1  0
  1  3  2  0
  2  1  1  0
  4  2  1  0
  6  5  1  0
  6  7  1  0
  7  8  1  0
  8  9  1  0
 10 11  1  0
 10  9  1  0
 12 13  1  0
 12 11  1  0
 14 13  1  0
 15 20  1  0
 16 17  1  0
 16 15  1  0
 18 17  1  0
 18 25  1  0
 18 19  1  0
 20 14  1  0
 20 19  1  0
 21 14  2  0
 22 23  2  0
 23 42  1  0
 24 23  1  0
 24 27  1  0
 25 26  1  0
 25 22  1  0
 26 24  2  0
 27 28  1  0
 28 29  2  0
 30 33  1  0
 30 29  1  0
 31 30  2  0
 32 31  1  0
 32 27  2  0
 33 34  1  0
 34 39  2  0
 34 35  1  0
 35 36  2  0
 36 37  1  0
 37 41  1  0
 38 37  2  0
 39 38  1  0
 40 39  1  0
 42 43  1  0
 43 46  1  0
 43 45  1  0
 44 42  2  0
 47 22  1  0
 47 48  1  0
 49 47  1  0
 50  2  1  0
 51 50  1  0
 52 51  1  0
 53 55  1  0
 53 52  1  0
 54 65  2  0
 55 60  1  0
 56 64  1  0
 56 66  1  0
 57 63  1  0
 57 59  1  0
 58 64  1  0
 59 58  1  0
 60 59  2  0
 61 62  1  0
 61 55  2  0
 62 57  2  0
 63 56  1  0
 64 54  1  0
 66 68  2  0
 67 66  1  0
 69 67  1  0
 70 75  1  0
 71 67  1  0
 72 71  1  0
 73 74  1  0
 73 72  1  0
 74 70  1  0
 75 71  1  0
 75 76  2  0
 77 76  1  0
 78 77  2  0
 79 70  2  0
 79 78  1  0
 80 54  1  0
 80 85  1  0
 80 81  1  0
 81 84  1  1
 81 82  1  0
 83 81  1  0
 85 88  1  0
 86 90  1  0
 86 85  1  0
 87 86  2  0
 90 89  1  0
 92 93  1  0
 92 90  1  0
 92 91  1  0
M  ISO  4  13 100  14 100  52 101  53 101
M  END
>  <TORSDO>  (89) 
F 27

>  <SCORE>  (89) 
1.794

>  <name>  (89) 
89

>  <ligand_id>  (89) 
89

>  <original_smiles>  (89) 
[H]c1c([H])c([H])c2c(c1[H])C([H])([H])C([H])([H])C([H])([H])C2([H])N([H])C(=O)C1([H])N(C(=O)C([H])(N([H])C(=O)C([H])(N([H])C([H])([H])[H])C([H])([H])[H])C(C([H])([H])[H])(C([H])([H])[H])C([H])([H])[H])C([H])([H])c2c([H])c(OC([H])([H])C([H])([H])C([H])([H])N([H])C(=O)C([H])(C([H])([H])[H])C([H])([H])C([H])([H])C([H])([H])C([H])([H])C([H])([H])C([H])([H])C([H])([H])C(=O)N3C([H])([H])C([H])([H])C([H])([H])C([H])(n4nc(-c5c([H])c([H])c(Oc6c([H])c([H])c(F)c([H])c6F)c([H])c5[H])c(C(=O)N([H])[H])c4N([H])[H])C3([H])[H])c([H])c([H])c2C1([H])[H]

>  <smiles>  (89) 
[H]c1c([H])c([H])c2c(c1[H])C([H])([H])C([H])([H])C([H])([H])C2([H])N([H])C(=O)C1([H])N(C(=O)C([H])(N([H])C(=O)C([H])(N([H])C([H])([H])[H])C([H])([H])[H])C(C([H])([H])[H])(C([H])([H])[H])C([H])([H])[H])C([H])([H])c2c([H])c(OC([H])([H])C([H])([H])C([H])([H])N([H])C(=O)C([H])(C([H])([H])[H])C([H])([H])C([H])([H])C([H])([H])C([H])([H])C([H])([H])C([H])([H])C([H])([H])C(=O)N3C([H])([H])C([H])([H])C([H])([H])C([H])(n4nc(-c5c([H])c([H])c(Oc6c([H])c([H])c(F)c([H])c6F)c([H])c5[H])c(C(=O)N([H])[H])c4N([H])[H])C3([H])[H])c([H])c([H])c2C1([H])[H]

$$$$
90:0:0
     RDKit          3D

 94102  0  0  1  0  0  0  0  0999 V2000
  -26.1270  -19.9320   18.3410 C   0  0  0  0  0  2  0  0  0  0  0  0
  -28.0950  -18.4930   18.8310 C   0  0  0  0  0  0  0  0  0  0  0  0
  -26.9380  -19.0640   19.1890 N   0  0  0  0  0  0  0  0  0  0  0  0
  -28.5350  -18.5260   17.6830 O   0  0  0  0  0  0  0  0  0  0  0  0
  -26.6260  -18.9440   20.1450 H   0  0  0  0  0  0  0  0  0  0  0  0
  -30.7670  -18.0460   21.6200 C   0  0  0  0  0  2  0  0  0  0  0  0
  -29.9870  -18.7340   20.4880 C   0  0  0  0  0  2  0  0  0  0  0  0
  -31.3230  -16.6720   21.1870 C   0  0  0  0  0  2  0  0  0  0  0  0
  -29.5330  -16.4970   19.4430 C   0  0  0  0  0  2  0  0  0  0  0  0
  -28.8900  -17.8050   19.9410 C   0  0  0  0  0  3  0  0  0  0  0  0
  -30.2290  -15.7400   20.5970 C   0  0  2  0  0  0  0  0  0  0  0  0
  -29.3540  -15.5280   21.5790 F   0  0  0  0  0  0  0  0  0  0  0  0
  -30.8230  -14.3980   20.0590 C   0  0  0  0  0  0  0  0  0  0  0  0
  -30.3870  -12.2650   18.9160 C   0  0  0  0  0  2  0  0  0  0  0  0
  -29.3900  -12.5490   17.7710 C   0  0  0  0  0  2  0  0  0  0  0  0
  -27.9320  -12.4480   18.2640 C   0  0  0  0  0  2  0  0  0  0  0  0
  -27.6890  -13.2280   19.5820 C   0  0  0  0  0  3  0  0  0  0  0  0
  -28.8040  -12.9260   20.6070 C   0  0  0  0  0  2  0  0  0  0  0  0
  -30.1030  -13.2350   19.9860 N   0  0  0  0  0  0  0  0  0  0  0  0
  -31.9380  -14.4800   19.5340 O   0  0  0  0  0  0  0  0  0  0  0  0
  -25.3490  -13.9100   20.3990 C   0  0  0  0  0  0  0  0  0  0  0  0
  -24.2780  -13.1700   20.8220 C   0  0  0  0  0  0  0  0  0  0  0  0
  -24.6950  -11.8040   20.7510 C   0  0  0  0  0  0  0  0  0  0  0  0
  -26.3560  -12.9960   20.1200 N   0  0  0  0  0  0  0  0  0  0  0  0
  -25.9680  -11.7250   20.3810 N   0  0  0  0  0  0  0  0  0  0  0  0
  -23.9420  -10.5630   20.9630 C   0  0  0  0  0  0  0  0  0  0  0  0
  -24.3920   -9.5700   21.8620 C   0  0  0  0  0  3  0  0  0  0  0  0
  -23.6410   -8.3930   22.0630 C   0  0  0  0  0  3  0  0  0  0  0  0
  -22.4270   -8.2000   21.3630 C   0  0  0  0  0  0  0  0  0  0  0  0
  -21.9930   -9.1800   20.4520 C   0  0  0  0  0  3  0  0  0  0  0  0
  -22.7450  -10.3490   20.2500 C   0  0  0  0  0  3  0  0  0  0  0  0
  -21.6440   -7.0770   21.4760 O   0  0  0  0  0  0  0  0  0  0  0  0
  -21.6290   -6.3240   22.6220 C   0  0  0  0  0  0  0  0  0  0  0  0
  -21.2990   -6.8810   23.8750 C   0  0  0  0  0  3  0  0  0  0  0  0
  -21.2310   -6.0560   25.0160 C   0  0  0  0  0  3  0  0  0  0  0  0
  -21.4780   -4.6750   24.9010 C   0  0  0  0  0  0  0  0  0  0  0  0
  -21.8010   -4.1190   23.6510 C   0  0  0  0  0  3  0  0  0  0  0  0
  -21.8730   -4.9410   22.5140 C   0  0  0  0  0  0  0  0  0  0  0  0
  -22.1640   -4.3970   21.3070 F   0  0  0  0  0  0  0  0  0  0  0  0
  -21.4050   -3.8800   25.9940 F   0  0  0  0  0  0  0  0  0  0  0  0
  -22.9090  -13.6850   21.1660 C   0  0  0  0  0  0  0  0  0  0  0  0
  -22.2040  -13.0060   22.0640 N   0  0  0  0  0  0  0  0  0  0  0  0
  -22.4750  -14.7290   20.6780 O   0  0  0  0  0  0  0  0  0  0  0  0
  -22.5660  -12.1640   22.4860 H   0  0  0  0  0  0  0  0  0  0  0  0
  -21.2910  -13.3380   22.3390 H   0  0  0  0  0  0  0  0  0  0  0  0
  -25.5340  -15.2730   20.1980 N   0  0  0  0  0  0  0  0  0  0  0  0
  -24.7430  -15.9090   20.2280 H   0  0  0  0  0  0  0  0  0  0  0  0
  -26.3250  -15.6440   19.6880 H   0  0  0  0  0  0  0  0  0  0  0  0
  -26.8410  -21.2610   18.0250 C   0  0  0  0  0  2  0  0  0  0  0  0
  -27.1430  -22.1570   19.2380 C   0  0  0  0  0  2  0  0  0  0  0  0
  -27.9750  -23.3740   18.8090 C   0  0  0  0  0  2  0  0  0  0  0  0
  -28.1920  -24.4230   19.9110 C   0  0  0  0  0  2  0  0  0  0  0  0
  -28.6930  -25.7510   19.3140 C   0  0  0  0  0  2  0  0  0  0  0  0
  -28.4370  -26.8500   20.1710 O   0  0  0  0  0  0  0  0  0  0  0  0
  -24.5510  -31.9060   23.1950 C   0  0  0  0  0  0  0  0  0  0  0  0
  -27.2190  -27.4950   20.1270 C   0  0  0  0  0  0  0  0  0  0  0  0
  -23.3400  -30.4960   21.5580 C   0  0  0  0  0  3  0  0  0  0  0  0
  -24.7950  -28.9580   20.1340 C   0  0  0  0  0  0  0  0  0  0  0  0
  -25.8570  -30.8710   21.3480 C   0  0  0  0  0  2  0  0  0  0  0  0
  -25.9450  -29.4970   20.7220 C   0  0  0  0  0  0  0  0  0  0  0  0
  -27.1500  -28.7690   20.7270 C   0  0  0  0  0  3  0  0  0  0  0  0
  -26.0520  -26.9600   19.5300 C   0  0  0  0  0  3  0  0  0  0  0  0
  -24.8410  -27.6840   19.5380 C   0  0  0  0  0  3  0  0  0  0  0  0
  -23.5440  -29.8030   20.1830 C   0  0  0  0  0  2  0  0  0  0  0  0
  -24.6010  -31.1070   22.0920 N   0  0  0  0  0  0  0  0  0  0  0  0
  -23.4720  -32.1790   23.7390 O   0  0  0  0  0  0  0  0  0  0  0  0
  -22.6940  -29.4810   22.5240 C   0  0  0  0  0  0  0  0  0  0  0  0
  -21.3670  -29.3130   22.4140 N   0  0  0  0  0  0  0  0  0  0  0  0
  -23.3820  -28.8470   23.3260 O   0  0  0  0  0  0  0  0  0  0  0  0
  -20.8740  -29.8750   21.7320 H   0  0  0  0  0  0  0  0  0  0  0  0
  -17.9920  -28.1550   22.9320 C   0  0  0  0  0  0  0  0  0  0  0  0
  -20.5510  -28.3820   23.1890 C   0  0  0  0  0  3  0  0  0  0  0  0
  -20.6320  -26.9510   22.6100 C   0  0  0  0  0  2  0  0  0  0  0  0
  -19.5290  -26.6530   21.5920 C   0  0  0  0  0  2  0  0  0  0  0  0
  -18.1470  -26.8150   22.2350 C   0  0  0  0  0  2  0  0  0  0  0  0
  -19.1210  -28.9020   23.3600 C   0  0  0  0  0  0  0  0  0  0  0  0
  -18.9220  -30.1680   23.9550 C   0  0  0  0  0  3  0  0  0  0  0  0
  -17.6240  -30.6850   24.1310 C   0  0  0  0  0  3  0  0  0  0  0  0
  -16.5080  -29.9310   23.7280 C   0  0  0  0  0  3  0  0  0  0  0  0
  -16.6930  -28.6670   23.1350 C   0  0  0  0  0  3  0  0  0  0  0  0
  -25.8410  -32.5350   23.8100 C   0  0  0  0  0  3  0  0  0  0  0  0
  -25.5310  -33.9270   24.1600 N   0  0  0  0  0  0  0  0  0  0  0  0
  -25.8550  -34.9890   23.4090 C   0  0  0  0  0  0  0  0  0  0  0  0
  -26.5150  -34.9000   22.3700 O   0  0  0  0  0  0  0  0  0  0  0  0
  -24.9400  -34.0700   24.9650 H   0  0  0  0  0  0  0  0  0  0  0  0
  -24.1100  -36.7690   23.0950 C   0  0  0  0  0  1  0  0  0  0  0  0
  -25.3650  -36.3700   23.8850 C   0  0  0  0  0  3  0  0  0  0  0  0
  -27.5080  -37.2570   24.6910 C   0  0  0  0  0  1  0  0  0  0  0  0
  -26.3890  -37.4290   23.7660 N   0  0  0  0  0  0  0  0  0  0  0  0
  -25.9810  -38.3460   23.9280 H   0  0  0  0  0  0  0  0  0  0  0  0
  -26.3790  -31.7500   25.0700 C   0  0  1  0  0  0  0  0  0  0  0  0
  -25.3010  -31.4920   26.1480 C   0  0  0  0  0  1  0  0  0  0  0  0
  -26.9600  -30.3800   24.6500 C   0  0  0  0  0  1  0  0  0  0  0  0
  -27.5360  -32.5380   25.7270 C   0  0  0  0  0  1  0  0  0  0  0  0
  1  3  1  0
  2  3  1  0
  3  5  1  0
  4  2  2  0
  7  6  1  0
  8  6  1  0
  9 10  1  0
  9 11  1  0
 10  2  1  0
 10  7  1  0
 11  8  1  0
 11 12  1  1
 13 11  1  0
 14 19  1  0
 15 16  1  0
 15 14  1  0
 17 16  1  0
 17 24  1  0
 17 18  1  0
 19 13  1  0
 19 18  1  0
 20 13  2  0
 21 22  2  0
 22 41  1  0
 23 22  1  0
 23 26  1  0
 24 25  1  0
 24 21  1  0
 25 23  2  0
 26 27  1  0
 27 28  2  0
 29 32  1  0
 29 28  1  0
 30 29  2  0
 31 30  1  0
 31 26  2  0
 32 33  1  0
 33 34  1  0
 34 35  2  0
 36 35  1  0
 36 40  1  0
 37 36  2  0
 38 33  2  0
 38 37  1  0
 39 38  1  0
 41 42  1  0
 42 45  1  0
 42 44  1  0
 43 41  2  0
 46 47  1  0
 46 21  1  0
 48 46  1  0
 49  1  1  0
 49 50  1  0
 51 50  1  0
 51 52  1  0
 53 52  1  0
 53 54  1  0
 55 66  2  0
 56 54  1  0
 56 61  1  0
 57 65  1  0
 57 67  1  0
 58 64  1  0
 58 60  1  0
 59 65  1  0
 60 61  2  0
 60 59  1  0
 62 63  1  0
 62 56  2  0
 63 58  2  0
 64 57  1  0
 65 55  1  0
 67 69  2  0
 68 67  1  0
 70 68  1  0
 71 80  2  0
 71 76  1  0
 72 68  1  0
 72 76  1  0
 73 72  1  0
 74 75  1  0
 74 73  1  0
 75 71  1  0
 76 77  2  0
 77 78  1  0
 79 78  2  0
 80 79  1  0
 81 55  1  0
 81 82  1  0
 81 91  1  0
 82 85  1  0
 83 87  1  0
 83 82  1  0
 84 83  2  0
 87 86  1  0
 89 87  1  0
 89 90  1  0
 89 88  1  0
 91 94  1  1
 91 92  1  0
 93 91  1  0
M  ISO  4  11 100  13 100  53 101  54 101
M  END
>  <TORSDO>  (90) 
F 23

>  <SCORE>  (90) 
-13.114

>  <name>  (90) 
90

>  <ligand_id>  (90) 
90

>  <original_smiles>  (90) 
[H]c1c([H])c([H])c2c(c1[H])C([H])([H])C([H])([H])C([H])([H])C2([H])N([H])C(=O)C1([H])N(C(=O)C([H])(N([H])C(=O)C([H])(N([H])C([H])([H])[H])C([H])([H])[H])C(C([H])([H])[H])(C([H])([H])[H])C([H])([H])[H])C([H])([H])c2c([H])c(OC([H])([H])C([H])([H])C([H])([H])C([H])([H])C([H])([H])C([H])([H])N([H])C(=O)C3([H])C([H])([H])C([H])([H])C([H])([H])C(F)(C(=O)N4C([H])([H])C([H])([H])C([H])([H])C([H])(n5nc(-c6c([H])c([H])c(Oc7c([H])c([H])c(F)c([H])c7F)c([H])c6[H])c(C(=O)N([H])[H])c5N([H])[H])C4([H])[H])C3([H])[H])c([H])c([H])c2C1([H])[H]

>  <smiles>  (90) 
[H]c1c([H])c([H])c2c(c1[H])C([H])([H])C([H])([H])C([H])([H])C2([H])N([H])C(=O)C1([H])N(C(=O)C([H])(N([H])C(=O)C([H])(N([H])C([H])([H])[H])C([H])([H])[H])C(C([H])([H])[H])(C([H])([H])[H])C([H])([H])[H])C([H])([H])c2c([H])c(OC([H])([H])C([H])([H])C([H])([H])C([H])([H])C([H])([H])C([H])([H])N([H])C(=O)C3([H])C([H])([H])C([H])([H])C([H])([H])C(F)(C(=O)N4C([H])([H])C([H])([H])C([H])([H])C([H])(n5nc(-c6c([H])c([H])c(Oc7c([H])c([H])c(F)c([H])c7F)c([H])c6[H])c(C(=O)N([H])[H])c5N([H])[H])C4([H])[H])C3([H])[H])c([H])c([H])c2C1([H])[H]

$$$$
91:0:0
     RDKit          3D

 97105  0  0  1  0  0  0  0  0999 V2000
  -28.4430  -20.1140   20.7590 C   0  0  0  0  0  3  0  0  0  0  0  0
  -28.5630  -21.4180   21.2720 C   0  0  0  0  0  3  0  0  0  0  0  0
  -27.4100  -21.0090   18.7430 C   0  0  0  0  0  3  0  0  0  0  0  0
  -27.8430  -19.9010   19.5030 C   0  0  0  0  0  0  0  0  0  0  0  0
  -28.0840  -22.5280   20.5420 C   0  0  0  0  0  0  0  0  0  0  0  0
  -27.5060  -22.3210   19.2610 C   0  0  0  0  0  0  0  0  0  0  0  0
  -26.9540  -23.4730   18.4330 C   0  0  0  0  0  1  0  0  0  0  0  0
  -27.6600  -18.5230   18.9910 C   0  0  0  0  0  0  0  0  0  0  0  0
  -27.7930  -18.2090   17.8060 O   0  0  0  0  0  0  0  0  0  0  0  0
  -27.1740  -17.4980   20.0190 C   0  0  0  0  0  2  0  0  0  0  0  0
  -28.1320  -16.3280   20.3210 C   0  0  0  0  0  2  0  0  0  0  0  0
  -29.6120  -16.7190   20.5120 C   0  0  0  0  0  2  0  0  0  0  0  0
  -30.2390  -16.0020   21.7220 C   0  0  0  0  0  2  0  0  0  0  0  0
  -31.7490  -15.6750   21.6070 C   0  0  0  0  0  2  0  0  0  0  0  0
  -32.7080  -13.5770   20.7130 C   0  0  0  0  0  0  0  0  0  0  0  0
  -32.4890  -11.1890   21.3050 C   0  0  0  0  0  2  0  0  0  0  0  0
  -31.9360  -10.3650   20.1230 C   0  0  0  0  0  2  0  0  0  0  0  0
  -30.3960  -10.3940   20.0920 C   0  0  0  0  0  2  0  0  0  0  0  0
  -29.8340  -11.8330   20.2110 C   0  0  0  0  0  3  0  0  0  0  0  0
  -30.4960  -12.5650   21.3940 C   0  0  0  0  0  2  0  0  0  0  0  0
  -31.9570  -12.5560   21.2070 N   0  0  0  0  0  0  0  0  0  0  0  0
  -33.8800  -13.4390   20.3520 O   0  0  0  0  0  0  0  0  0  0  0  0
  -32.0830  -14.7470   20.5230 N   0  0  0  0  0  0  0  0  0  0  0  0
  -32.5100  -15.2430   19.7540 H   0  0  0  0  0  0  0  0  0  0  0  0
  -27.4650  -12.8220   19.9820 C   0  0  0  0  0  0  0  0  0  0  0  0
  -26.2270  -12.2980   20.2400 C   0  0  0  0  0  0  0  0  0  0  0  0
  -26.4560  -10.9810   20.7430 C   0  0  0  0  0  0  0  0  0  0  0  0
  -28.3760  -11.8360   20.3280 N   0  0  0  0  0  0  0  0  0  0  0  0
  -27.7560  -10.7420   20.8370 N   0  0  0  0  0  0  0  0  0  0  0  0
  -25.5120   -9.9070   21.0770 C   0  0  0  0  0  0  0  0  0  0  0  0
  -25.4680   -9.3390   22.3700 C   0  0  0  0  0  3  0  0  0  0  0  0
  -24.5440   -8.3160   22.6700 C   0  0  0  0  0  3  0  0  0  0  0  0
  -23.6480   -7.8560   21.6760 C   0  0  0  0  0  0  0  0  0  0  0  0
  -23.7140   -8.4080   20.3850 C   0  0  0  0  0  3  0  0  0  0  0  0
  -24.6390   -9.4210   20.0850 C   0  0  0  0  0  3  0  0  0  0  0  0
  -22.7280   -6.8550   21.8700 O   0  0  0  0  0  0  0  0  0  0  0  0
  -22.1430   -6.6420   23.0920 C   0  0  0  0  0  0  0  0  0  0  0  0
  -21.4010   -7.6470   23.7510 C   0  0  0  0  0  3  0  0  0  0  0  0
  -20.7600   -7.3610   24.9720 C   0  0  0  0  0  3  0  0  0  0  0  0
  -20.8500   -6.0710   25.5310 C   0  0  0  0  0  0  0  0  0  0  0  0
  -21.5830   -5.0680   24.8730 C   0  0  0  0  0  3  0  0  0  0  0  0
  -22.2250   -5.3520   23.6540 C   0  0  0  0  0  0  0  0  0  0  0  0
  -22.9100   -4.3750   23.0140 F   0  0  0  0  0  0  0  0  0  0  0  0
  -20.2270   -5.7940   26.7010 F   0  0  0  0  0  0  0  0  0  0  0  0
  -24.8990  -12.9390   19.9460 C   0  0  0  0  0  0  0  0  0  0  0  0
  -23.8820  -12.6420   20.7460 N   0  0  0  0  0  0  0  0  0  0  0  0
  -24.7710  -13.7480   19.0290 O   0  0  0  0  0  0  0  0  0  0  0  0
  -23.9900  -11.9940   21.5120 H   0  0  0  0  0  0  0  0  0  0  0  0
  -22.9780  -13.0670   20.5880 H   0  0  0  0  0  0  0  0  0  0  0  0
  -27.8940  -14.0390   19.4640 N   0  0  0  0  0  0  0  0  0  0  0  0
  -27.2680  -14.7990   19.2180 H   0  0  0  0  0  0  0  0  0  0  0  0
  -28.8680  -14.2790   19.3340 H   0  0  0  0  0  0  0  0  0  0  0  0
  -28.1740  -23.9110   21.1850 C   0  0  0  0  0  2  0  0  0  0  0  0
  -30.3220  -24.3780   19.8670 C   0  0  0  0  0  1  0  0  0  0  0  0
  -28.9810  -24.9430   20.3680 C   0  0  0  0  0  3  0  0  0  0  0  0
  -29.1840  -26.2410   21.1720 C   0  0  0  0  0  2  0  0  0  0  0  0
  -29.1220  -27.3740   20.3100 O   0  0  0  0  0  0  0  0  0  0  0  0
  -24.7050  -31.9910   23.4200 C   0  0  0  0  0  0  0  0  0  0  0  0
  -27.9020  -27.9960   20.2970 C   0  0  0  0  0  0  0  0  0  0  0  0
  -23.7320  -30.6260   21.5980 C   0  0  0  0  0  3  0  0  0  0  0  0
  -25.4020  -29.2900   20.2080 C   0  0  0  0  0  0  0  0  0  0  0  0
  -26.2260  -31.1780   21.6270 C   0  0  0  0  0  2  0  0  0  0  0  0
  -26.4620  -29.8610   20.9240 C   0  0  0  0  0  0  0  0  0  0  0  0
  -27.7140  -29.2170   20.9770 C   0  0  0  0  0  3  0  0  0  0  0  0
  -26.8360  -27.4310   19.5710 C   0  0  0  0  0  3  0  0  0  0  0  0
  -25.5800  -28.0680   19.5330 C   0  0  0  0  0  3  0  0  0  0  0  0
  -24.0960  -30.0530   20.2020 C   0  0  0  0  0  2  0  0  0  0  0  0
  -24.9000  -31.2770   22.2770 N   0  0  0  0  0  0  0  0  0  0  0  0
  -23.5700  -32.1520   23.8880 O   0  0  0  0  0  0  0  0  0  0  0  0
  -23.0860  -29.5010   22.4370 C   0  0  0  0  0  0  0  0  0  0  0  0
  -21.7750  -29.2870   22.2400 N   0  0  0  0  0  0  0  0  0  0  0  0
  -23.7610  -28.8270   23.2190 O   0  0  0  0  0  0  0  0  0  0  0  0
  -21.2890  -29.8860   21.5870 H   0  0  0  0  0  0  0  0  0  0  0  0
  -18.4030  -28.0570   22.6220 C   0  0  0  0  0  0  0  0  0  0  0  0
  -20.9660  -28.2570   22.8900 C   0  0  0  0  0  3  0  0  0  0  0  0
  -21.0500  -26.9180   22.1220 C   0  0  0  0  0  2  0  0  0  0  0  0
  -19.9310  -26.7440   21.0910 C   0  0  0  0  0  2  0  0  0  0  0  0
  -18.5600  -26.8100   21.7700 C   0  0  0  0  0  2  0  0  0  0  0  0
  -19.5340  -28.7450   23.1360 C   0  0  0  0  0  0  0  0  0  0  0  0
  -19.3340  -29.9190   23.8940 C   0  0  0  0  0  3  0  0  0  0  0  0
  -18.0360  -30.4030   24.1440 C   0  0  0  0  0  3  0  0  0  0  0  0
  -16.9190  -29.7060   23.6490 C   0  0  0  0  0  3  0  0  0  0  0  0
  -17.1040  -28.5350   22.8940 C   0  0  0  0  0  3  0  0  0  0  0  0
  -25.8930  -32.6620   24.1810 C   0  0  0  0  0  3  0  0  0  0  0  0
  -26.2720  -31.9200   25.5200 C   0  0  1  0  0  0  0  0  0  0  0  0
  -25.0590  -31.6310   26.4340 C   0  0  0  0  0  1  0  0  0  0  0  0
  -26.9680  -30.5710   25.2170 C   0  0  0  0  0  1  0  0  0  0  0  0
  -27.2870  -32.7680   26.3210 C   0  0  0  0  0  1  0  0  0  0  0  0
  -25.5180  -34.0570   24.4460 N   0  0  0  0  0  0  0  0  0  0  0  0
  -25.9080  -35.1030   23.7050 C   0  0  0  0  0  0  0  0  0  0  0  0
  -26.6910  -34.9970   22.7570 O   0  0  0  0  0  0  0  0  0  0  0  0
  -24.8360  -34.2130   25.1740 H   0  0  0  0  0  0  0  0  0  0  0  0
  -24.1770  -36.8320   23.1270 C   0  0  0  0  0  1  0  0  0  0  0  0
  -25.3380  -36.4850   24.0730 C   0  0  0  0  0  3  0  0  0  0  0  0
  -27.3600  -37.4410   25.0840 C   0  0  0  0  0  1  0  0  0  0  0  0
  -26.3460  -37.5650   24.0400 N   0  0  0  0  0  0  0  0  0  0  0  0
  -25.9040  -38.4750   24.1340 H   0  0  0  0  0  0  0  0  0  0  0  0
  1  2  1  0
  3  6  2  0
  3  4  1  0
  4  1  2  0
  5 53  1  0
  5  2  2  0
  6  5  1  0
  7  6  1  0
  8  4  1  0
  8 10  1  0
  9  8  2  0
 10 11  1  0
 11 12  1  0
 12 13  1  0
 14 13  1  0
 15 21  1  0
 17 16  1  0
 18 17  1  0
 19 18  1  0
 19 28  1  0
 19 20  1  0
 21 16  1  0
 21 20  1  0
 22 15  2  0
 23 15  1  0
 23 14  1  0
 24 23  1  0
 25 26  2  0
 25 28  1  0
 26 27  1  0
 27 29  2  0
 27 30  1  0
 28 29  1  0
 30 31  1  0
 31 32  2  0
 33 36  1  0
 33 32  1  0
 34 33  2  0
 35 34  1  0
 35 30  2  0
 36 37  1  0
 37 42  2  0
 37 38  1  0
 38 39  2  0
 39 40  1  0
 40 44  1  0
 41 40  2  0
 42 41  1  0
 43 42  1  0
 45 26  1  0
 45 46  1  0
 46 48  1  0
 47 45  2  0
 49 46  1  0
 50 25  1  0
 51 50  1  0
 52 50  1  0
 55 54  1  0
 55 56  1  0
 55 53  1  0
 57 56  1  0
 58 69  2  0
 59 57  1  0
 59 64  1  0
 60 68  1  0
 60 70  1  0
 61 63  1  0
 62 68  1  0
 63 64  2  0
 63 62  1  0
 65 59  2  0
 66 65  1  0
 66 61  2  0
 67 61  1  0
 67 60  1  0
 68 58  1  0
 70 72  2  0
 71 70  1  0
 73 71  1  0
 74 83  2  0
 74 79  1  0
 75 71  1  0
 75 79  1  0
 76 75  1  0
 77 78  1  0
 77 76  1  0
 78 74  1  0
 79 80  2  0
 80 81  1  0
 82 81  2  0
 83 82  1  0
 84 58  1  0
 84 89  1  0
 84 85  1  0
 85 88  1  1
 85 86  1  0
 87 85  1  0
 89 92  1  0
 90 94  1  0
 90 89  1  0
 91 90  2  0
 94 93  1  0
 96 94  1  0
 96 97  1  0
 96 95  1  0
M  ISO  4  15 100  23 100  56 101  57 101
M  END
>  <TORSDO>  (91) 
F 25

>  <SCORE>  (91) 
-8.420

>  <name>  (91) 
91

>  <ligand_id>  (91) 
91

>  <original_smiles>  (91) 
[H]c1c([H])c([H])c2c(c1[H])C([H])([H])C([H])([H])C([H])([H])C2([H])N([H])C(=O)C1([H])N(C(=O)C([H])(N([H])C(=O)C([H])(N([H])C([H])([H])[H])C([H])([H])[H])C(C([H])([H])[H])(C([H])([H])[H])C([H])([H])[H])C([H])([H])c2c([H])c(OC([H])([H])C([H])(C([H])([H])[H])C([H])([H])c3c([H])c([H])c(C(=O)C([H])([H])C([H])([H])C([H])([H])C([H])([H])C([H])([H])N([H])C(=O)N4C([H])([H])C([H])([H])C([H])([H])C([H])(n5nc(-c6c([H])c([H])c(Oc7c([H])c([H])c(F)c([H])c7F)c([H])c6[H])c(C(=O)N([H])[H])c5N([H])[H])C4([H])[H])c([H])c3C([H])([H])[H])c([H])c([H])c2C1([H])[H]

>  <smiles>  (91) 
[H]c1c([H])c([H])c2c(c1[H])C([H])([H])C([H])([H])C([H])([H])C2([H])N([H])C(=O)C1([H])N(C(=O)C([H])(N([H])C(=O)C([H])(N([H])C([H])([H])[H])C([H])([H])[H])C(C([H])([H])[H])(C([H])([H])[H])C([H])([H])[H])C([H])([H])c2c([H])c(OC([H])([H])C([H])(C([H])([H])[H])C([H])([H])c3c([H])c([H])c(C(=O)C([H])([H])C([H])([H])C([H])([H])C([H])([H])C([H])([H])N([H])C(=O)N4C([H])([H])C([H])([H])C([H])([H])C([H])(n5nc(-c6c([H])c([H])c(Oc7c([H])c([H])c(F)c([H])c7F)c([H])c6[H])c(C(=O)N([H])[H])c5N([H])[H])C4([H])[H])c([H])c3C([H])([H])[H])c([H])c([H])c2C1([H])[H]

$$$$
92:0:0
     RDKit          3D

 95104  0  0  1  0  0  0  0  0999 V2000
  -24.5880  -22.4040   20.3290 C   0  0  0  0  0  3  0  0  0  0  0  0
  -25.4530  -21.2940   20.3520 C   0  0  0  0  0  3  0  0  0  0  0  0
  -25.1140  -23.7090   20.3430 C   0  0  0  0  0  3  0  0  0  0  0  0
  -27.3780  -22.7930   20.4100 C   0  0  0  0  0  3  0  0  0  0  0  0
  -26.8510  -21.4810   20.3940 C   0  0  0  0  0  0  0  0  0  0  0  0
  -26.5100  -23.9100   20.3830 C   0  0  0  0  0  0  0  0  0  0  0  0
  -27.7680  -20.2640   20.4440 C   0  0  0  0  0  2  0  0  0  0  0  0
  -27.8710  -19.5190   19.0970 C   0  0  0  0  0  2  0  0  0  0  0  0
  -29.4070  -18.4100   17.3770 C   0  0  0  0  0  2  0  0  0  0  0  0
  -30.8680  -17.9770   17.3770 C   0  0  0  0  0  2  0  0  0  0  0  0
  -30.3370  -18.8630   19.5820 C   0  0  0  0  0  2  0  0  0  0  0  0
  -29.3070  -19.3850   18.5530 C   0  0  0  0  0  3  0  0  0  0  0  0
  -31.2250  -17.8200   18.8640 C   0  0  0  0  0  3  0  0  0  0  0  0
  -31.6960  -15.3720   19.1730 C   0  0  0  0  0  0  0  0  0  0  0  0
  -31.5050  -12.9260   18.9460 C   0  0  0  0  0  2  0  0  0  0  0  0
  -30.5370  -12.6100   17.7880 C   0  0  0  0  0  2  0  0  0  0  0  0
  -29.0760  -12.5900   18.2830 C   0  0  0  0  0  2  0  0  0  0  0  0
  -28.7140  -13.8340   19.1410 C   0  0  0  0  0  3  0  0  0  0  0  0
  -29.7950  -14.0900   20.2150 C   0  0  0  0  0  2  0  0  0  0  0  0
  -31.0940  -14.2090   19.5310 N   0  0  0  0  0  0  0  0  0  0  0  0
  -32.7890  -15.4230   18.6010 O   0  0  0  0  0  0  0  0  0  0  0  0
  -30.9410  -16.4670   19.3520 N   0  0  0  0  0  0  0  0  0  0  0  0
  -30.0510  -16.3210   19.8040 H   0  0  0  0  0  0  0  0  0  0  0  0
  -26.4990  -14.7000   20.1250 C   0  0  0  0  0  0  0  0  0  0  0  0
  -25.3720  -14.0510   20.5530 C   0  0  0  0  0  0  0  0  0  0  0  0
  -25.6340  -12.6570   20.3870 C   0  0  0  0  0  0  0  0  0  0  0  0
  -27.3850  -13.7080   19.7330 N   0  0  0  0  0  0  0  0  0  0  0  0
  -26.8700  -12.4690   19.9450 N   0  0  0  0  0  0  0  0  0  0  0  0
  -24.7580  -11.4920   20.5690 C   0  0  0  0  0  0  0  0  0  0  0  0
  -25.1170  -10.4270   21.4240 C   0  0  0  0  0  3  0  0  0  0  0  0
  -24.2510   -9.3250   21.5970 C   0  0  0  0  0  3  0  0  0  0  0  0
  -23.0110   -9.2830   20.9160 C   0  0  0  0  0  0  0  0  0  0  0  0
  -22.6690  -10.3350   20.0480 C   0  0  0  0  0  3  0  0  0  0  0  0
  -23.5340  -11.4280   19.8730 C   0  0  0  0  0  3  0  0  0  0  0  0
  -22.1190   -8.2420   21.0040 O   0  0  0  0  0  0  0  0  0  0  0  0
  -21.9990   -7.4910   22.1450 C   0  0  0  0  0  0  0  0  0  0  0  0
  -21.6830   -8.0730   23.3920 C   0  0  0  0  0  3  0  0  0  0  0  0
  -21.5020   -7.2550   24.5250 C   0  0  0  0  0  3  0  0  0  0  0  0
  -21.6260   -5.8570   24.4120 C   0  0  0  0  0  0  0  0  0  0  0  0
  -21.9350   -5.2750   23.1700 C   0  0  0  0  0  3  0  0  0  0  0  0
  -22.1180   -6.0910   22.0400 C   0  0  0  0  0  0  0  0  0  0  0  0
  -22.3960   -5.5230   20.8410 F   0  0  0  0  0  0  0  0  0  0  0  0
  -21.4430   -5.0700   25.4990 F   0  0  0  0  0  0  0  0  0  0  0  0
  -24.0880  -14.6880   21.0000 C   0  0  0  0  0  0  0  0  0  0  0  0
  -23.3670  -14.0410   21.9100 N   0  0  0  0  0  0  0  0  0  0  0  0
  -23.7400  -15.7890   20.5800 O   0  0  0  0  0  0  0  0  0  0  0  0
  -23.6620  -13.1450   22.2700 H   0  0  0  0  0  0  0  0  0  0  0  0
  -22.5070  -14.4460   22.2510 H   0  0  0  0  0  0  0  0  0  0  0  0
  -26.8380  -16.0440   20.0200 N   0  0  0  0  0  0  0  0  0  0  0  0
  -26.1870  -16.7840   20.2570 H   0  0  0  0  0  0  0  0  0  0  0  0
  -27.7100  -16.3880   19.6380 H   0  0  0  0  0  0  0  0  0  0  0  0
  -27.0640  -25.3260   20.3960 C   0  0  0  0  0  2  0  0  0  0  0  0
  -28.0490  -25.5930   19.2460 C   0  0  0  0  0  2  0  0  0  0  0  0
  -28.6530  -27.0110   19.2560 C   0  0  0  0  0  2  0  0  0  0  0  0
  -27.9910  -27.8590   18.3210 O   0  0  0  0  0  0  0  0  0  0  0  0
  -24.8600  -31.5610   23.5410 C   0  0  0  0  0  0  0  0  0  0  0  0
  -26.8710  -28.4930   18.7930 C   0  0  0  0  0  0  0  0  0  0  0  0
  -23.3760  -30.7770   21.7210 C   0  0  0  0  0  3  0  0  0  0  0  0
  -24.5530  -29.8350   19.6620 C   0  0  0  0  0  0  0  0  0  0  0  0
  -25.8520  -31.2320   21.2800 C   0  0  0  0  0  2  0  0  0  0  0  0
  -25.7980  -30.1540   20.2210 C   0  0  0  0  0  0  0  0  0  0  0  0
  -26.9620  -29.4820   19.7950 C   0  0  0  0  0  3  0  0  0  0  0  0
  -25.6190  -28.1870   18.2270 C   0  0  0  0  0  3  0  0  0  0  0  0
  -24.4550  -28.8470   18.6650 C   0  0  0  0  0  3  0  0  0  0  0  0
  -23.3570  -30.6050   20.1770 C   0  0  0  0  0  2  0  0  0  0  0  0
  -24.7230  -31.1850   22.2370 N   0  0  0  0  0  0  0  0  0  0  0  0
  -23.8800  -31.6150   24.2970 O   0  0  0  0  0  0  0  0  0  0  0  0
  -22.8390  -29.4810   22.3680 C   0  0  0  0  0  0  0  0  0  0  0  0
  -21.5210  -29.2530   22.2430 N   0  0  0  0  0  0  0  0  0  0  0  0
  -23.6010  -28.6960   22.9370 O   0  0  0  0  0  0  0  0  0  0  0  0
  -20.9620  -29.9490   21.7690 H   0  0  0  0  0  0  0  0  0  0  0  0
  -18.3060  -27.6050   22.2620 C   0  0  0  0  0  0  0  0  0  0  0  0
  -20.8030  -28.0790   22.7370 C   0  0  0  0  0  3  0  0  0  0  0  0
  -21.1000  -26.8360   21.8660 C   0  0  0  0  0  2  0  0  0  0  0  0
  -20.0790  -26.6260   20.7430 C   0  0  0  0  0  2  0  0  0  0  0  0
  -18.6700  -26.4680   21.3210 C   0  0  0  0  0  2  0  0  0  0  0  0
  -19.3080  -28.3700   22.9160 C   0  0  0  0  0  0  0  0  0  0  0  0
  -18.9180  -29.4370   23.7530 C   0  0  0  0  0  3  0  0  0  0  0  0
  -17.5570  -29.7420   23.9450 C   0  0  0  0  0  3  0  0  0  0  0  0
  -16.5700  -28.9700   23.3080 C   0  0  0  0  0  3  0  0  0  0  0  0
  -16.9440  -27.9040   22.4730 C   0  0  0  0  0  3  0  0  0  0  0  0
  -26.2460  -31.9650   24.1340 C   0  0  0  0  0  3  0  0  0  0  0  0
  -26.0690  -33.2440   24.8340 N   0  0  0  0  0  0  0  0  0  0  0  0
  -26.4410  -34.4360   24.3460 C   0  0  0  0  0  0  0  0  0  0  0  0
  -27.0410  -34.5630   23.2750 O   0  0  0  0  0  0  0  0  0  0  0  0
  -25.5360  -33.2230   25.6910 H   0  0  0  0  0  0  0  0  0  0  0  0
  -24.8580  -36.3760   24.5750 C   0  0  0  0  0  1  0  0  0  0  0  0
  -26.0910  -35.6850   25.1780 C   0  0  0  0  0  3  0  0  0  0  0  0
  -28.3270  -36.1590   26.0770 C   0  0  0  0  0  1  0  0  0  0  0  0
  -27.2040  -36.6520   25.2820 N   0  0  0  0  0  0  0  0  0  0  0  0
  -26.8850  -37.5250   25.6920 H   0  0  0  0  0  0  0  0  0  0  0  0
  -26.8490  -30.8740   25.1020 C   0  0  1  0  0  0  0  0  0  0  0  0
  -25.8730  -30.4170   26.2100 C   0  0  0  0  0  1  0  0  0  0  0  0
  -27.2790  -29.6200   24.3060 C   0  0  0  0  0  1  0  0  0  0  0  0
  -28.1250  -31.4260   25.7820 C   0  0  0  0  0  1  0  0  0  0  0  0
  1  3  2  0
  1  2  1  0
  2  5  2  0
  3  6  1  0
  5  4  1  0
  5  7  1  0
  6 52  1  0
  6  4  2  0
  8  7  1  0
  9 10  1  0
  9 12  1  0
 10 13  1  0
 12  8  1  0
 12 11  1  0
 13 22  1  0
 13 11  1  0
 14 22  1  0
 14 20  1  0
 15 20  1  0
 16 17  1  0
 16 15  1  0
 18 17  1  0
 18 27  1  0
 18 19  1  0
 20 19  1  0
 21 14  2  0
 22 23  1  0
 24 25  2  0
 25 44  1  0
 26 25  1  0
 26 29  1  0
 27 28  1  0
 27 24  1  0
 28 26  2  0
 29 30  1  0
 30 31  2  0
 32 35  1  0
 32 31  1  0
 33 32  2  0
 34 33  1  0
 34 29  2  0
 35 36  1  0
 36 37  1  0
 37 38  2  0
 39 38  1  0
 39 43  1  0
 40 39  2  0
 41 36  2  0
 41 40  1  0
 42 41  1  0
 44 45  1  0
 45 48  1  0
 45 47  1  0
 46 44  2  0
 49 24  1  0
 49 50  1  0
 51 49  1  0
 53 54  1  0
 53 52  1  0
 55 57  1  0
 55 54  1  0
 56 67  2  0
 57 62  1  0
 58 66  1  0
 58 68  1  0
 59 65  1  0
 59 61  1  0
 60 66  1  0
 61 60  1  0
 62 61  2  0
 63 64  1  0
 63 57  2  0
 64 59  2  0
 65 58  1  0
 66 56  1  0
 68 70  2  0
 69 68  1  0
 71 69  1  0
 72 81  2  0
 72 77  1  0
 73 69  1  0
 73 77  1  0
 74 73  1  0
 75 76  1  0
 75 74  1  0
 76 72  1  0
 77 78  2  0
 78 79  1  0
 80 79  2  0
 81 80  1  0
 82 56  1  0
 82 83  1  0
 82 92  1  0
 83 86  1  0
 84 83  1  0
 84 88  1  0
 85 84  2  0
 88 87  1  0
 88 90  1  0
 90 91  1  0
 90 89  1  0
 92 95  1  1
 92 93  1  0
 94 92  1  0
M  ISO  4  14 100  22 100  54 101  55 101
M  END
>  <TORSDO>  (92) 
F 22

>  <SCORE>  (92) 
-4.910

>  <name>  (92) 
92

>  <ligand_id>  (92) 
92

>  <original_smiles>  (92) 
[H]c1c([H])c([H])c2c(c1[H])C([H])([H])C([H])([H])C([H])([H])C2([H])N([H])C(=O)C1([H])N(C(=O)C([H])(N([H])C(=O)C([H])(N([H])C([H])([H])[H])C([H])([H])[H])C(C([H])([H])[H])(C([H])([H])[H])C([H])([H])[H])C([H])([H])c2c([H])c(OC([H])([H])C([H])([H])C([H])([H])c3c([H])c([H])c([H])c(C([H])([H])C([H])([H])C4([H])C([H])([H])C([H])([H])C([H])(N([H])C(=O)N5C([H])([H])C([H])([H])C([H])([H])C([H])(n6nc(-c7c([H])c([H])c(Oc8c([H])c([H])c(F)c([H])c8F)c([H])c7[H])c(C(=O)N([H])[H])c6N([H])[H])C5([H])[H])C4([H])[H])c3[H])c([H])c([H])c2C1([H])[H]

>  <smiles>  (92) 
[H]c1c([H])c([H])c2c(c1[H])C([H])([H])C([H])([H])C([H])([H])C2([H])N([H])C(=O)C1([H])N(C(=O)C([H])(N([H])C(=O)C([H])(N([H])C([H])([H])[H])C([H])([H])[H])C(C([H])([H])[H])(C([H])([H])[H])C([H])([H])[H])C([H])([H])c2c([H])c(OC([H])([H])C([H])([H])C([H])([H])c3c([H])c([H])c([H])c(C([H])([H])C([H])([H])C4([H])C([H])([H])C([H])([H])C([H])(N([H])C(=O)N5C([H])([H])C([H])([H])C([H])([H])C([H])(n6nc(-c7c([H])c([H])c(Oc8c([H])c([H])c(F)c([H])c8F)c([H])c7[H])c(C(=O)N([H])[H])c6N([H])[H])C5([H])[H])C4([H])[H])c3[H])c([H])c([H])c2C1([H])[H]

$$$$
93:0:0
     RDKit          3D

 94102  0  0  1  0  0  0  0  0999 V2000
  -23.6970  -21.3080   18.0210 C   0  0  0  0  0  3  0  0  0  0  0  0
  -24.1960  -20.0550   18.4320 C   0  0  0  0  0  3  0  0  0  0  0  0
  -24.5900  -22.3420   17.6830 C   0  0  0  0  0  3  0  0  0  0  0  0
  -26.4730  -20.8660   18.1510 C   0  0  0  0  0  3  0  0  0  0  0  0
  -25.5890  -19.8200   18.4950 C   0  0  0  0  0  0  0  0  0  0  0  0
  -25.9810  -22.1230   17.7540 C   0  0  0  0  0  0  0  0  0  0  0  0
  -26.0900  -18.5080   18.9910 C   0  0  0  0  0  0  0  0  0  0  0  0
  -25.3410  -17.6580   19.4800 O   0  0  0  0  0  0  0  0  0  0  0  0
  -27.5940  -18.2050   18.8960 C   0  0  0  0  0  2  0  0  0  0  0  0
  -28.3100  -18.3720   20.2490 C   0  0  0  0  0  2  0  0  0  0  0  0
  -29.7680  -17.8790   20.2150 C   0  0  0  0  0  2  0  0  0  0  0  0
  -29.8830  -16.3210   20.1870 C   0  0  0  0  0  2  0  0  0  0  0  0
  -30.8340  -15.3990   21.0200 C   0  0  0  0  0  2  0  0  0  0  0  0
  -31.3160  -14.2030   20.1830 C   0  0  0  0  0  0  0  0  0  0  0  0
  -30.9580  -11.9370   19.2740 C   0  0  0  0  0  2  0  0  0  0  0  0
  -30.0050  -11.9740   18.0640 C   0  0  0  0  0  2  0  0  0  0  0  0
  -28.5370  -11.8980   18.5240 C   0  0  0  0  0  2  0  0  0  0  0  0
  -28.2160  -12.9140   19.6500 C   0  0  0  0  0  3  0  0  0  0  0  0
  -29.2760  -12.8500   20.7710 C   0  0  0  0  0  2  0  0  0  0  0  0
  -30.6050  -13.0460   20.1680 N   0  0  0  0  0  0  0  0  0  0  0  0
  -32.3480  -14.3580   19.5220 O   0  0  0  0  0  0  0  0  0  0  0  0
  -25.8930  -13.6650   20.4650 C   0  0  0  0  0  0  0  0  0  0  0  0
  -24.7820  -12.9670   20.8510 C   0  0  0  0  0  0  0  0  0  0  0  0
  -25.1470  -11.5880   20.7730 C   0  0  0  0  0  0  0  0  0  0  0  0
  -26.8640  -12.7220   20.1740 N   0  0  0  0  0  0  0  0  0  0  0  0
  -26.4180  -11.4630   20.4150 N   0  0  0  0  0  0  0  0  0  0  0  0
  -24.3420  -10.3780   20.9660 C   0  0  0  0  0  0  0  0  0  0  0  0
  -24.7120   -9.3870   21.9000 C   0  0  0  0  0  3  0  0  0  0  0  0
  -23.9140   -8.2380   22.0790 C   0  0  0  0  0  3  0  0  0  0  0  0
  -22.7290   -8.0750   21.3210 C   0  0  0  0  0  0  0  0  0  0  0  0
  -22.3780   -9.0530   20.3750 C   0  0  0  0  0  3  0  0  0  0  0  0
  -23.1760  -10.1950   20.1960 C   0  0  0  0  0  3  0  0  0  0  0  0
  -21.9040   -6.9800   21.4070 O   0  0  0  0  0  0  0  0  0  0  0  0
  -21.7680   -6.2750   22.5740 C   0  0  0  0  0  0  0  0  0  0  0  0
  -21.3270   -6.8880   23.7680 C   0  0  0  0  0  3  0  0  0  0  0  0
  -21.1340   -6.1110   24.9280 C   0  0  0  0  0  3  0  0  0  0  0  0
  -21.3720   -4.7230   24.8940 C   0  0  0  0  0  0  0  0  0  0  0  0
  -21.8060   -4.1120   23.7040 C   0  0  0  0  0  3  0  0  0  0  0  0
  -22.0010   -4.8860   22.5470 C   0  0  0  0  0  0  0  0  0  0  0  0
  -22.3990   -4.2890   21.3980 F   0  0  0  0  0  0  0  0  0  0  0  0
  -21.1790   -3.9740   26.0040 F   0  0  0  0  0  0  0  0  0  0  0  0
  -23.4370  -13.5400   21.1890 C   0  0  0  0  0  0  0  0  0  0  0  0
  -22.7000  -12.8850   22.0800 N   0  0  0  0  0  0  0  0  0  0  0  0
  -23.0480  -14.5980   20.6970 O   0  0  0  0  0  0  0  0  0  0  0  0
  -23.0220  -12.0240   22.4930 H   0  0  0  0  0  0  0  0  0  0  0  0
  -21.7960  -13.2500   22.3460 H   0  0  0  0  0  0  0  0  0  0  0  0
  -26.1630  -15.0130   20.3240 N   0  0  0  0  0  0  0  0  0  0  0  0
  -25.4940  -15.7560   20.5090 H   0  0  0  0  0  0  0  0  0  0  0  0
  -27.0880  -15.3610   20.1130 H   0  0  0  0  0  0  0  0  0  0  0  0
  -26.9650  -23.2510   17.5340 C   0  0  0  0  0  2  0  0  0  0  0  0
  -27.5720  -23.6500   18.8830 C   0  0  0  0  0  2  0  0  0  0  0  0
  -28.4590  -24.8980   18.8510 C   0  0  0  0  0  2  0  0  0  0  0  0
  -28.5420  -25.5200   20.2570 C   0  0  0  0  0  2  0  0  0  0  0  0
  -28.5530  -26.9400   20.2230 O   0  0  0  0  0  0  0  0  0  0  0  0
  -24.5690  -31.9430   23.2810 C   0  0  0  0  0  0  0  0  0  0  0  0
  -27.3350  -27.5850   20.2210 C   0  0  0  0  0  0  0  0  0  0  0  0
  -23.4120  -30.5450   21.6020 C   0  0  0  0  0  3  0  0  0  0  0  0
  -24.9100  -29.0360   20.2030 C   0  0  0  0  0  0  0  0  0  0  0  0
  -25.9350  -30.9420   21.4550 C   0  0  0  0  0  2  0  0  0  0  0  0
  -26.0480  -29.5780   20.8110 C   0  0  0  0  0  0  0  0  0  0  0  0
  -27.2630  -28.8610   20.8140 C   0  0  0  0  0  3  0  0  0  0  0  0
  -26.1690  -27.0410   19.6320 C   0  0  0  0  0  3  0  0  0  0  0  0
  -24.9620  -27.7620   19.6150 C   0  0  0  0  0  3  0  0  0  0  0  0
  -23.6550  -29.8780   20.2220 C   0  0  0  0  0  2  0  0  0  0  0  0
  -24.6560  -31.1550   22.1730 N   0  0  0  0  0  0  0  0  0  0  0  0
  -23.4740  -32.2000   23.7980 O   0  0  0  0  0  0  0  0  0  0  0  0
  -22.7510  -29.5080   22.5360 C   0  0  0  0  0  0  0  0  0  0  0  0
  -21.4350  -29.3050   22.3650 N   0  0  0  0  0  0  0  0  0  0  0  0
  -23.4190  -28.8880   23.3680 O   0  0  0  0  0  0  0  0  0  0  0  0
  -20.9570  -29.8580   21.6690 H   0  0  0  0  0  0  0  0  0  0  0  0
  -18.0720  -28.0410   22.7250 C   0  0  0  0  0  0  0  0  0  0  0  0
  -20.6080  -28.3540   23.1060 C   0  0  0  0  0  3  0  0  0  0  0  0
  -20.7680  -26.9240   22.5400 C   0  0  0  0  0  2  0  0  0  0  0  0
  -19.7180  -26.5740   21.4810 C   0  0  0  0  0  2  0  0  0  0  0  0
  -18.3070  -26.6920   22.0650 C   0  0  0  0  0  2  0  0  0  0  0  0
  -19.1530  -28.8280   23.1990 C   0  0  0  0  0  0  0  0  0  0  0  0
  -18.8840  -30.0900   23.7710 C   0  0  0  0  0  3  0  0  0  0  0  0
  -17.5630  -30.5660   23.8750 C   0  0  0  0  0  3  0  0  0  0  0  0
  -16.4930  -29.7750   23.4210 C   0  0  0  0  0  3  0  0  0  0  0  0
  -16.7490  -28.5150   22.8500 C   0  0  0  0  0  3  0  0  0  0  0  0
  -25.8350  -32.5780   23.9360 C   0  0  0  0  0  3  0  0  0  0  0  0
  -26.3010  -31.8280   25.2440 C   0  0  1  0  0  0  0  0  0  0  0  0
  -25.1690  -31.6160   26.2750 C   0  0  0  0  0  1  0  0  0  0  0  0
  -26.8880  -30.4410   24.8920 C   0  0  0  0  0  1  0  0  0  0  0  0
  -27.4310  -32.6300   25.9330 C   0  0  0  0  0  1  0  0  0  0  0  0
  -25.5260  -33.9850   24.2220 N   0  0  0  0  0  0  0  0  0  0  0  0
  -25.8860  -35.0160   23.4450 C   0  0  0  0  0  0  0  0  0  0  0  0
  -26.5850  -34.8820   22.4370 O   0  0  0  0  0  0  0  0  0  0  0  0
  -24.9150  -34.1640   25.0050 H   0  0  0  0  0  0  0  0  0  0  0  0
  -24.1670  -36.7950   23.0070 C   0  0  0  0  0  1  0  0  0  0  0  0
  -25.3920  -36.4160   23.8520 C   0  0  0  0  0  3  0  0  0  0  0  0
  -27.5130  -37.3240   24.6940 C   0  0  0  0  0  1  0  0  0  0  0  0
  -26.4290  -37.4650   23.7260 N   0  0  0  0  0  0  0  0  0  0  0  0
  -26.0220  -38.3890   23.8390 H   0  0  0  0  0  0  0  0  0  0  0  0
  1  2  1  0
  2  5  2  0
  3  6  1  0
  3  1  2  0
  4  5  1  0
  5  7  1  0
  6  4  2  0
  7  8  2  0
  9  7  1  0
  9 10  1  0
 11 10  1  0
 12 11  1  0
 12 13  1  0
 14 13  1  0
 15 20  1  0
 16 17  1  0
 16 15  1  0
 18 17  1  0
 18 25  1  0
 18 19  1  0
 20 14  1  0
 20 19  1  0
 21 14  2  0
 22 23  2  0
 23 42  1  0
 24 23  1  0
 24 27  1  0
 25 26  1  0
 25 22  1  0
 26 24  2  0
 27 28  1  0
 28 29  2  0
 30 33  1  0
 30 29  1  0
 31 30  2  0
 32 31  1  0
 32 27  2  0
 33 34  1  0
 34 35  1  0
 35 36  2  0
 37 36  1  0
 37 41  1  0
 38 37  2  0
 39 34  2  0
 39 38  1  0
 40 39  1  0
 42 43  1  0
 43 46  1  0
 43 45  1  0
 44 42  2  0
 47 22  1  0
 47 48  1  0
 49 47  1  0
 50  6  1  0
 50 51  1  0
 52 51  1  0
 52 53  1  0
 54 53  1  0
 55 66  2  0
 56 54  1  0
 56 61  1  0
 57 65  1  0
 57 67  1  0
 58 64  1  0
 58 60  1  0
 59 65  1  0
 60 61  2  0
 60 59  1  0
 62 56  2  0
 63 62  1  0
 63 58  2  0
 64 57  1  0
 65 55  1  0
 67 69  2  0
 68 67  1  0
 70 68  1  0
 71 80  2  0
 71 76  1  0
 72 68  1  0
 72 76  1  0
 73 72  1  0
 74 75  1  0
 74 73  1  0
 75 71  1  0
 76 77  2  0
 77 78  1  0
 79 78  2  0
 80 79  1  0
 81 55  1  0
 81 86  1  0
 81 82  1  0
 82 85  1  1
 82 83  1  0
 84 82  1  0
 86 89  1  0
 87 91  1  0
 87 86  1  0
 88 87  2  0
 91 90  1  0
 93 94  1  0
 93 91  1  0
 93 92  1  0
M  ISO  4  13 100  14 100  53 101  54 101
M  END
>  <TORSDO>  (93) 
F 26

>  <SCORE>  (93) 
-9.075

>  <name>  (93) 
93

>  <ligand_id>  (93) 
93

>  <original_smiles>  (93) 
[H]c1c([H])c(C(=O)C([H])([H])C([H])([H])C([H])([H])C([H])([H])C([H])([H])C(=O)N2C([H])([H])C([H])([H])C([H])([H])C([H])(n3nc(-c4c([H])c([H])c(Oc5c([H])c([H])c(F)c([H])c5F)c([H])c4[H])c(C(=O)N([H])[H])c3N([H])[H])C2([H])[H])c([H])c(C([H])([H])C([H])([H])C([H])([H])C([H])([H])Oc2c([H])c([H])c3c(c2[H])C([H])([H])N(C(=O)C([H])(N([H])C(=O)C([H])(N([H])C([H])([H])[H])C([H])([H])[H])C(C([H])([H])[H])(C([H])([H])[H])C([H])([H])[H])C([H])(C(=O)N([H])C2([H])c4c([H])c([H])c([H])c([H])c4C([H])([H])C([H])([H])C2([H])[H])C3([H])[H])c1[H]

>  <smiles>  (93) 
[H]c1c([H])c(C(=O)C([H])([H])C([H])([H])C([H])([H])C([H])([H])C([H])([H])C(=O)N2C([H])([H])C([H])([H])C([H])([H])C([H])(n3nc(-c4c([H])c([H])c(Oc5c([H])c([H])c(F)c([H])c5F)c([H])c4[H])c(C(=O)N([H])[H])c3N([H])[H])C2([H])[H])c([H])c(C([H])([H])C([H])([H])C([H])([H])C([H])([H])Oc2c([H])c([H])c3c(c2[H])C([H])([H])N(C(=O)C([H])(N([H])C(=O)C([H])(N([H])C([H])([H])[H])C([H])([H])[H])C(C([H])([H])[H])(C([H])([H])[H])C([H])([H])[H])C([H])(C(=O)N([H])C2([H])c4c([H])c([H])c([H])c([H])c4C([H])([H])C([H])([H])C2([H])[H])C3([H])[H])c1[H]

$$$$
94:0:0
     RDKit          3D

 99 98  0  0  1  0  0  0  0  0999 V2000
  -25.7690  -30.6920   18.2510 C   0  0  0  0  0  3  0  0  0  0  0  0
  -25.1310  -31.1650   19.7320 C   0  0  0  0  0  3  0  0  0  0  0  0
  -27.7680  -28.4100   20.1490 C   0  0  0  0  0  3  0  0  0  0  0  0
  -27.1390  -28.9730   21.3800 C   0  0  0  0  0  2  0  0  0  0  0  0
  -26.9680  -29.4890   18.0580 C   0  0  0  0  0  2  0  0  0  0  0  0
  -25.5390  -30.5640   21.2430 C   0  0  0  0  0  1  0  0  0  0  0  0
  -28.8350  -27.7040   20.9460 C   0  0  0  0  0  3  0  0  0  0  0  0
  -30.0680  -27.1610   20.8280 C   0  0  0  0  0  2  0  0  0  0  0  0
  -28.1190  -28.1360   22.1670 C   0  0  0  0  0  2  0  0  0  0  0  0
  -31.0480  -26.9410   21.9610 C   0  0  0  0  0  3  0  0  0  0  0  0
  -23.1480  -31.3020   23.0600 C   0  0  0  0  0  1  0  0  0  0  0  0
  -24.6730  -30.9740   23.0710 C   0  0  0  0  0  2  0  0  0  0  0  0
  -25.2790  -29.4380   24.7290 C   0  0  0  0  0 15  0  0  0  0  0  0
  -26.9630  -28.0710   24.8190 C   0  0  0  0  0 15  0  0  0  0  0  0
  -28.4250  -26.7080   23.9730 C   0  0  0  0  0 15  0  0  0  0  0  0
  -30.0650  -26.1650   22.7380 C   0  0  0  0  0  1  0  0  0  0  0  0
  -31.9730  -25.3060   22.4290 C   0  0  0  0  0  1  0  0  0  0  0  0
  -33.4770  -24.6430   21.1050 C   0  0  0  0  0 15  0  0  0  0  0  0
  -35.4790  -24.0600   20.7690 C   0  0  0  0  0 15  0  0  0  0  0  0
  -36.9430  -23.3740   19.4060 C   0  0  0  0  0 15  0  0  0  0  0  0
  -38.8050  -22.7160   18.9750 C   0  0  0  0  0  2  0  0  0  0  0  0
  -41.2550  -22.5920   17.6090 C   0  0  0  0  0  2  0  0  0  0  0  0
  -42.0700  -23.9050   17.2700 C   0  0  0  0  0  2  0  0  0  0  0  0
  -41.4560  -24.6710   16.0910 C   0  0  0  0  0  2  0  0  0  0  0  0
  -39.9230  -24.6100   16.2200 C   0  0  0  0  0  3  0  0  0  0  0  0
  -39.3540  -23.1970   16.4230 C   0  0  0  0  0  2  0  0  0  0  0  0
  -39.7090  -22.8040   17.7850 N   0  0  0  0  0  0  0  0  0  0  0  0
  -39.5430  -22.0700   19.7760 O   0  0  0  0  0  1  0  0  0  0  0  0
  -38.1740  -26.1520   15.2980 C   0  0  0  0  0  0  0  0  0  0  0  0
  -37.8470  -26.5260   14.0300 C   0  0  0  0  0  0  0  0  0  0  0  0
  -38.7210  -25.8010   13.1620 C   0  0  0  0  0  0  0  0  0  0  0  0
  -39.2140  -25.2600   15.1570 N   0  0  0  0  0  0  0  0  0  0  0  0
  -39.5030  -24.9890   13.8630 N   0  0  0  0  0  0  0  0  0  0  0  0
  -38.9090  -25.8840   11.7130 C   0  0  0  0  0  0  0  0  0  0  0  0
  -38.8780  -24.7340   10.8950 C   0  0  0  0  0  3  0  0  0  0  0  0
  -39.0380  -24.8510    9.4980 C   0  0  0  0  0  3  0  0  0  0  0  0
  -39.2300  -26.1240    8.9100 C   0  0  0  0  0  0  0  0  0  0  0  0
  -39.2800  -27.2620    9.7340 C   0  0  0  0  0  3  0  0  0  0  0  0
  -39.1260  -27.1440   11.1250 C   0  0  0  0  0  3  0  0  0  0  0  0
  -39.4160  -26.3320    7.5670 O   0  0  0  0  0  0  0  0  0  0  0  0
  -38.9200  -25.4650    6.6270 C   0  0  0  0  0  0  0  0  0  0  0  0
  -37.5350  -25.2180    6.4960 C   0  0  0  0  0  3  0  0  0  0  0  0
  -37.0670  -24.3710    5.4730 C   0  0  0  0  0  3  0  0  0  0  0  0
  -37.9760  -23.7790    4.5760 C   0  0  0  0  0  0  0  0  0  0  0  0
  -39.3540  -24.0260    4.7040 C   0  0  0  0  0  3  0  0  0  0  0  0
  -39.8250  -24.8690    5.7250 C   0  0  0  0  0  0  0  0  0  0  0  0
  -41.1520  -25.1210    5.8300 F   0  0  0  0  0  0  0  0  0  0  0  0
  -37.5230  -22.9730    3.5880 F   0  0  0  0  0  0  0  0  0  0  0  0
  -36.8430  -27.5720   13.6600 C   0  0  0  0  0  0  0  0  0  0  0  0
  -36.2220  -27.4390   12.4940 N   0  0  0  0  0  0  0  0  0  0  0  0
  -36.5700  -28.4920   14.4300 O   0  0  0  0  0  0  0  0  0  0  0  0
  -36.4300  -26.6720   11.8720 H   0  0  0  0  0  0  0  0  0  0  0  0
  -35.5200  -28.1110   12.2220 H   0  0  0  0  0  0  0  0  0  0  0  0
  -37.7010  -26.5030   16.5610 N   0  0  0  0  0  0  0  0  0  0  0  0
  -36.9940  -27.2130   16.7030 H   0  0  0  0  0  0  0  0  0  0  0  0
  -38.1200  -26.1830   17.4240 H   0  0  0  0  0  0  0  0  0  0  0  0
  -27.6020  -29.4090   16.5700 C   0  0  0  0  0  2  0  0  0  0  0  0
  -28.8230  -28.3490   16.2310 C   0  0  0  0  0  2  0  0  0  0  0  0
  -28.8070  -26.9450   16.6870 O   0  0  0  0  0  0  0  0  0  0  0  0
  -22.7330  -26.5540   21.6280 C   0  0  0  0  0  0  0  0  0  0  0  0
  -27.5720  -26.9470   16.9590 C   0  0  0  0  0  3  0  0  0  0  0  0
  -21.9570  -26.3520   18.1270 C   0  0  0  0  0  2  0  0  0  0  0  0
  -24.0440  -28.0860   16.7970 C   0  0  0  0  0  2  0  0  0  0  0  0
  -24.6840  -27.2170   20.3900 C   0  0  0  0  0  2  0  0  0  0  0  0
  -25.4310  -27.9930   18.9800 C   0  0  0  0  0  2  0  0  0  0  0  0
  -27.0820  -27.3880   18.6400 C   0  0  0  0  0  3  0  0  0  0  0  0
  -26.5670  -27.0420   15.4790 C   0  0  0  0  0  3  0  0  0  0  0  0
  -24.9170  -27.5810   15.4000 C   0  0  0  0  0  3  0  0  0  0  0  0
  -22.5150  -27.4100   16.7230 C   0  0  0  0  0  2  0  0  0  0  0  0
  -23.1250  -26.3050   20.2420 N   0  0  0  0  0  2  0  0  0  0  0  0
  -21.5630  -26.6850   22.0670 O   0  0  0  0  0  0  0  0  0  0  0  0
  -21.1150  -25.5230   17.4620 C   0  0  0  0  0  0  0  0  0  0  0  0
  -19.8280  -25.6660   17.6750 N   0  0  0  0  0  0  0  0  0  0  0  0
  -21.6600  -24.6730   16.8700 O   0  0  0  0  0  0  0  0  0  0  0  0
  -19.4480  -26.4140   18.2350 H   0  0  0  0  0  0  0  0  0  0  0  0
  -16.6390  -25.0410   17.1270 C   0  0  0  0  0  0  0  0  0  0  0  0
  -19.0620  -24.5670   17.3570 C   0  0  0  0  0  3  0  0  0  0  0  0
  -19.0370  -24.4450   15.8090 C   0  0  0  0  0  2  0  0  0  0  0  0
  -18.2200  -25.5590   15.2150 C   0  0  0  0  0  2  0  0  0  0  0  0
  -16.7990  -25.2180   15.6240 C   0  0  0  0  0  2  0  0  0  0  0  0
  -17.7320  -24.8280   17.9830 C   0  0  0  0  0  0  0  0  0  0  0  0
  -17.5730  -24.8690   19.3880 C   0  0  0  0  0  3  0  0  0  0  0  0
  -16.2810  -25.0100   19.9280 C   0  0  0  0  0  3  0  0  0  0  0  0
  -15.1740  -25.0940   19.0640 C   0  0  0  0  0  3  0  0  0  0  0  0
  -15.3560  -25.1260   17.6720 C   0  0  0  0  0  3  0  0  0  0  0  0
  -23.6460  -26.6330   22.8310 C   0  0  0  0  0  3  0  0  0  0  0  0
  -23.8600  -25.1370   23.1610 C   0  0  1  0  0  0  0  0  0  0  0  0
  -22.5830  -24.2410   23.2300 C   0  0  0  0  0  1  0  0  0  0  0  0
  -24.8470  -24.5070   22.1540 C   0  0  0  0  0  1  0  0  0  0  0  0
  -24.5500  -25.0830   24.5200 C   0  0  0  0  0  1  0  0  0  0  0  0
  -22.9600  -27.3700   23.9290 N   0  0  0  0  0  0  0  0  0  0  0  0
  -23.0280  -28.6840   24.1660 C   0  0  0  0  0  3  0  0  0  0  0  0
  -23.8000  -29.4310   23.5630 O   0  0  0  0  0  0  0  0  0  0  0  0
  -22.2970  -26.8310   24.4620 H   0  0  0  0  0  0  0  0  0  0  0  0
  -21.0250  -30.1330   24.7030 C   0  0  0  0  0  1  0  0  0  0  0  0
  -22.1330  -29.2440   25.2920 C   0  0  0  0  0  3  0  0  0  0  0  0
  -23.8080  -29.1600   27.0830 C   0  0  0  0  0  1  0  0  0  0  0  0
  -22.8890  -29.9960   26.3160 N   0  0  0  0  0  0  0  0  0  0  0  0
  -22.2510  -30.4400   26.9710 H   0  0  0  0  0  0  0  0  0  0  0  0
  1  2  2  0
  2  6  1  0
  3 66  1  0
  3  7  1  0
  3  4  1  0
  4  9  1  0
  5  1  1  0
  7  8  1  0
  7  9  1  0
  8 10  1  0
 10 17  1  0
 10 16  1  0
 11 12  1  0
 12 93  1  0
 21 28  1  0
 22 27  1  0
 23 22  1  0
 24 25  1  0
 24 23  1  0
 25 32  1  0
 25 26  1  0
 26 27  1  0
 27 21  1  0
 29 54  1  0
 30 29  2  0
 31 33  2  0
 31 30  1  0
 32 29  1  0
 33 32  1  0
 34 31  1  0
 35 34  2  0
 36 35  1  0
 37 36  2  0
 37 38  1  0
 38 39  2  0
 39 34  1  0
 40 37  1  0
 41 40  1  0
 42 41  1  0
 43 42  2  0
 44 45  2  0
 44 43  1  0
 45 46  1  0
 46 47  1  0
 46 41  2  0
 48 44  1  0
 49 30  1  0
 49 51  2  0
 50 49  1  0
 52 50  1  0
 53 50  1  0
 54 55  1  0
 54 56  1  0
 57  5  1  0
 58 57  1  0
 58 59  1  0
 59 61  1  0
 60 71  2  0
 61 67  1  0
 61 66  1  0
 65 64  1  0
 66 65  1  0
 68 67  2  0
 68 63  1  0
 69 63  1  0
 69 62  1  0
 70 64  1  0
 70 60  1  0
 72 73  1  0
 72 62  1  0
 73 75  1  0
 74 72  2  0
 76 85  2  0
 76 81  1  0
 77 73  1  0
 77 81  1  0
 78 77  1  0
 79 80  1  0
 79 78  1  0
 80 76  1  0
 81 82  2  0
 82 83  1  0
 84 83  2  0
 85 84  1  0
 86 60  1  0
 86 87  1  0
 86 91  1  0
 87 88  1  1
 87 90  1  0
 89 87  1  0
 91 92  1  0
 91 94  1  0
 92 93  1  0
 92 96  1  0
 96 95  1  0
 96 98  1  0
 98 99  1  0
 98 97  1  0
M  ISO  4  20 100  21 100  58 101  59 101
M  END
>  <TORSDO>  (94) 
F 27

>  <SCORE>  (94) 
13.609

>  <name>  (94) 
94

>  <ligand_id>  (94) 
94

>  <original_smiles>  (94) 
[H]C(=C1c2c(c(C([H])(C([H])([H])[H])C([H])([H])C([H])([H])C([H])([H])C([H])([H])C([H])([H])C([H])([H])C([H])([H])C([H])([H])C(=O)N3C([H])([H])C([H])([H])C([H])([H])C([H])(n4nc(-c5c([H])c([H])c(Oc6c([H])c([H])c(F)c([H])c6F)c([H])c5[H])c(C(=O)N([H])[H])c4N([H])[H])C3([H])[H])c([H])c([H])c2C([H])([H])C([H])([H])Oc2c([H])c([H])c3c(c2[H])C([H])([H])N(C(=O)C([H])(N([H])C(=O)C([H])(N([H])C([H])([H])[H])C([H])([H])[H])C(C([H])([H])[H])(C([H])([H])[H])C([H])([H])[H])C([H])(C(=O)N([H])C2([H])c4c([H])c([H])c([H])c([H])c4C([H])([H])C([H])([H])C2([H])[H])C3([H])[H])C1([H])[H])C([H])([H])[H]

>  <smiles>  (94) 
[H]C(=C1c2c(c(C([H])(C([H])([H])[H])C([H])([H])C([H])([H])C([H])([H])C([H])([H])C([H])([H])C([H])([H])C([H])([H])C([H])([H])C(=O)N3C([H])([H])C([H])([H])C([H])([H])C([H])(n4nc(-c5c([H])c([H])c(Oc6c([H])c([H])c(F)c([H])c6F)c([H])c5[H])c(C(=O)N([H])[H])c4N([H])[H])C3([H])[H])c([H])c([H])c2C([H])([H])C([H])([H])Oc2c([H])c([H])c3c(c2[H])C([H])([H])N(C(=O)C([H])(N([H])C(=O)C([H])(N([H])C([H])([H])[H])C([H])([H])[H])C(C([H])([H])[H])(C([H])([H])[H])C([H])([H])[H])C([H])(C(=O)N([H])C2([H])c4c([H])c([H])c([H])c([H])c4C([H])([H])C([H])([H])C2([H])[H])C3([H])[H])C1([H])[H])C([H])([H])[H]

$$$$
95:0:0
     RDKit          3D

 83 90  0  0  1  0  0  0  0  0999 V2000
  -27.8800  -23.8320   20.1910 C   0  0  0  0  0  2  0  0  0  0  0  0
  -28.9470  -22.3010   20.2780 C   0  0  0  0  0  0  0  0  0  0  0  0
  -30.1340  -22.6280   20.3700 O   0  0  0  0  0  0  0  0  0  0  0  0
  -28.7350  -20.5030   20.2630 C   0  0  0  0  0  3  0  0  0  0  0  0
  -29.5440  -19.1880   20.2660 C   0  0  0  0  0  3  0  0  0  0  0  0
  -29.3460  -17.3340   20.3140 C   0  0  0  0  0  2  0  0  0  0  0  0
  -30.2340  -15.6910   20.1300 C   0  0  0  0  0  0  0  0  0  0  0  0
  -30.3710  -13.1520   19.2860 C   0  0  0  0  0  2  0  0  0  0  0  0
  -29.4570  -12.8000   18.0740 C   0  0  0  0  0  2  0  0  0  0  0  0
  -28.0350  -12.4380   18.5350 C   0  0  0  0  0  2  0  0  0  0  0  0
  -27.5430  -13.4080   19.6330 C   0  0  0  0  0  3  0  0  0  0  0  0
  -28.5890  -13.6790   20.7370 C   0  0  0  0  0  2  0  0  0  0  0  0
  -29.7680  -14.3040   20.0950 N   0  0  0  0  0  0  0  0  0  0  0  0
  -31.4570  -15.6660   19.8870 O   0  0  0  0  0  0  0  0  0  0  0  0
  -25.1840  -13.9020   20.4360 C   0  0  0  0  0  0  0  0  0  0  0  0
  -24.1420  -13.1040   20.8160 C   0  0  0  0  0  0  0  0  0  0  0  0
  -24.6320  -11.7630   20.7730 C   0  0  0  0  0  0  0  0  0  0  0  0
  -26.2370  -13.0470   20.1700 N   0  0  0  0  0  0  0  0  0  0  0  0
  -25.9210  -11.7530   20.4400 N   0  0  0  0  0  0  0  0  0  0  0  0
  -23.9260  -10.4880   20.9680 C   0  0  0  0  0  0  0  0  0  0  0  0
  -24.3670   -9.5340   21.9110 C   0  0  0  0  0  3  0  0  0  0  0  0
  -23.6560   -8.3280   22.0970 C   0  0  0  0  0  3  0  0  0  0  0  0
  -22.4900   -8.0670   21.3390 C   0  0  0  0  0  0  0  0  0  0  0  0
  -22.0680   -9.0110   20.3840 C   0  0  0  0  0  3  0  0  0  0  0  0
  -22.7800  -10.2080   20.1980 C   0  0  0  0  0  3  0  0  0  0  0  0
  -21.7500   -6.9120   21.4320 O   0  0  0  0  0  0  0  0  0  0  0  0
  -21.6860   -6.1910   22.5970 C   0  0  0  0  0  0  0  0  0  0  0  0
  -21.1990   -6.7540   23.7960 C   0  0  0  0  0  3  0  0  0  0  0  0
  -21.0840   -5.9580   24.9530 C   0  0  0  0  0  3  0  0  0  0  0  0
  -21.4460   -4.5990   24.9110 C   0  0  0  0  0  0  0  0  0  0  0  0
  -21.9260   -4.0340   23.7160 C   0  0  0  0  0  3  0  0  0  0  0  0
  -22.0410   -4.8280   22.5620 C   0  0  0  0  0  0  0  0  0  0  0  0
  -22.4840   -4.2730   21.4080 F   0  0  0  0  0  0  0  0  0  0  0  0
  -21.3300   -3.8310   26.0200 F   0  0  0  0  0  0  0  0  0  0  0  0
  -22.7410  -13.5580   21.1010 C   0  0  0  0  0  0  0  0  0  0  0  0
  -22.0350  -12.8540   21.9800 N   0  0  0  0  0  0  0  0  0  0  0  0
  -22.2810  -14.5740   20.5820 O   0  0  0  0  0  0  0  0  0  0  0  0
  -22.4220  -12.0340   22.4220 H   0  0  0  0  0  0  0  0  0  0  0  0
  -21.0960  -13.1420   22.2140 H   0  0  0  0  0  0  0  0  0  0  0  0
  -25.3200  -15.2760   20.2650 N   0  0  0  0  0  0  0  0  0  0  0  0
  -24.5460  -15.9180   20.3990 H   0  0  0  0  0  0  0  0  0  0  0  0
  -26.1620  -15.7340   19.9360 H   0  0  0  0  0  0  0  0  0  0  0  0
  -28.1440  -25.5690   20.2910 O   0  0  0  0  0  0  0  0  0  0  0  0
  -24.6620  -31.8700   23.2150 C   0  0  0  0  0  0  0  0  0  0  0  0
  -27.1780  -26.7850   20.2380 C   0  0  0  0  0  0  0  0  0  0  0  0
  -23.4720  -30.4750   21.5780 C   0  0  0  0  0  3  0  0  0  0  0  0
  -24.9160  -28.8210   20.1710 C   0  0  0  0  0  0  0  0  0  0  0  0
  -26.0510  -30.6090   21.4600 C   0  0  0  0  0  2  0  0  0  0  0  0
  -26.1120  -29.1760   20.8060 C   0  0  0  0  0  0  0  0  0  0  0  0
  -27.2280  -28.1880   20.8060 C   0  0  0  0  0  3  0  0  0  0  0  0
  -25.9480  -26.6370   19.5480 C   0  0  0  0  0  3  0  0  0  0  0  0
  -24.8720  -27.5760   19.5180 C   0  0  0  0  0  3  0  0  0  0  0  0
  -23.7120  -29.7750   20.2080 C   0  0  0  0  0  2  0  0  0  0  0  0
  -24.7520  -31.0180   22.1370 N   0  0  0  0  0  0  0  0  0  0  0  0
  -23.5690  -32.1750   23.7220 O   0  0  0  0  0  0  0  0  0  0  0  0
  -22.7500  -29.5010   22.5480 C   0  0  0  0  0  0  0  0  0  0  0  0
  -21.4160  -29.3540   22.4210 N   0  0  0  0  0  0  0  0  0  0  0  0
  -23.4000  -28.8770   23.3890 O   0  0  0  0  0  0  0  0  0  0  0  0
  -20.9410  -29.9070   21.7220 H   0  0  0  0  0  0  0  0  0  0  0  0
  -18.0220  -28.1570   22.9270 C   0  0  0  0  0  0  0  0  0  0  0  0
  -20.5840  -28.4230   23.1930 C   0  0  0  0  0  3  0  0  0  0  0  0
  -20.6810  -26.9870   22.6250 C   0  0  0  0  0  2  0  0  0  0  0  0
  -19.5820  -26.6640   21.6100 C   0  0  0  0  0  2  0  0  0  0  0  0
  -18.1990  -26.8090   22.2500 C   0  0  0  0  0  2  0  0  0  0  0  0
  -19.1400  -28.9220   23.3560 C   0  0  0  0  0  0  0  0  0  0  0  0
  -18.9180  -30.1810   23.9550 C   0  0  0  0  0  3  0  0  0  0  0  0
  -17.6110  -30.6760   24.1270 C   0  0  0  0  0  3  0  0  0  0  0  0
  -16.5090  -29.9100   23.7110 C   0  0  0  0  0  3  0  0  0  0  0  0
  -16.7150  -28.6530   23.1180 C   0  0  0  0  0  3  0  0  0  0  0  0
  -25.9270  -32.5160   23.8570 C   0  0  0  0  0  3  0  0  0  0  0  0
  -26.4220  -31.7520   25.1490 C   0  0  1  0  0  0  0  0  0  0  0  0
  -25.3130  -31.5300   26.2060 C   0  0  0  0  0  1  0  0  0  0  0  0
  -27.0020  -30.3670   24.7870 C   0  0  0  0  0  1  0  0  0  0  0  0
  -27.5680  -32.5450   25.8190 C   0  0  0  0  0  1  0  0  0  0  0  0
  -25.6060  -33.9160   24.1980 N   0  0  0  0  0  0  0  0  0  0  0  0
  -25.9170  -34.9830   23.4500 C   0  0  0  0  0  0  0  0  0  0  0  0
  -26.5610  -34.8930   22.4020 O   0  0  0  0  0  0  0  0  0  0  0  0
  -25.0280  -34.0580   25.0130 H   0  0  0  0  0  0  0  0  0  0  0  0
  -24.1650  -36.7760   23.1880 C   0  0  0  0  0  1  0  0  0  0  0  0
  -25.4440  -36.3700   23.9380 C   0  0  0  0  0  3  0  0  0  0  0  0
  -27.6040  -37.2740   24.6820 C   0  0  0  0  0  1  0  0  0  0  0  0
  -26.4630  -37.4320   23.7840 N   0  0  0  0  0  0  0  0  0  0  0  0
  -26.0550  -38.3480   23.9480 H   0  0  0  0  0  0  0  0  0  0  0  0
  1  2  1  0
  1 43  1  0
  2  3  2  0
  4  5  2  0
  4  2  1  0
  5  6  1  0
  7  6  1  0
  8 13  1  0
  9 10  1  0
  9  8  1  0
 11 10  1  0
 11 18  1  0
 11 12  1  0
 13  7  1  0
 13 12  1  0
 14  7  2  0
 15 16  2  0
 16 35  1  0
 17 16  1  0
 17 20  1  0
 18 15  1  0
 18 19  1  0
 19 17  2  0
 20 21  1  0
 21 22  2  0
 23 26  1  0
 23 22  1  0
 24 23  2  0
 25 24  1  0
 25 20  2  0
 26 27  1  0
 27 28  1  0
 28 29  2  0
 30 29  1  0
 30 34  1  0
 31 30  2  0
 32 27  2  0
 32 31  1  0
 33 32  1  0
 35 36  1  0
 36 39  1  0
 36 38  1  0
 37 35  2  0
 40 41  1  0
 40 15  1  0
 42 40  1  0
 44 55  2  0
 45 43  1  0
 45 50  1  0
 46 54  1  0
 46 56  1  0
 47 53  1  0
 47 49  1  0
 48 54  1  0
 49 48  1  0
 50 49  2  0
 51 45  2  0
 52 51  1  0
 52 47  2  0
 53 46  1  0
 54 44  1  0
 56 58  2  0
 57 56  1  0
 59 57  1  0
 60 69  2  0
 60 65  1  0
 61 57  1  0
 61 65  1  0
 62 61  1  0
 63 64  1  0
 63 62  1  0
 64 60  1  0
 65 66  2  0
 66 67  1  0
 68 67  2  0
 69 68  1  0
 70 44  1  0
 70 75  1  0
 70 71  1  0
 71 74  1  1
 71 72  1  0
 73 71  1  0
 75 78  1  0
 76 80  1  0
 76 75  1  0
 77 76  2  0
 80 79  1  0
 82 80  1  0
 82 83  1  0
 82 81  1  0
M  ISO  4   1 101   6 100   7 100  43 101
M  END
>  <TORSDO>  (95) 
F 19

>  <SCORE>  (95) 
-16.380

>  <name>  (95) 
95

>  <ligand_id>  (95) 
95

>  <original_smiles>  (95) 
[H]C(C(=O)C([H])([H])Oc1c([H])c([H])c2c(c1[H])C([H])([H])N(C(=O)C([H])(N([H])C(=O)C([H])(N([H])C([H])([H])[H])C([H])([H])[H])C(C([H])([H])[H])(C([H])([H])[H])C([H])([H])[H])C([H])(C(=O)N([H])C1([H])c3c([H])c([H])c([H])c([H])c3C([H])([H])C([H])([H])C1([H])[H])C2([H])[H])=C([H])C([H])([H])C(=O)N1C([H])([H])C([H])([H])C([H])([H])C([H])(n2nc(-c3c([H])c([H])c(Oc4c([H])c([H])c(F)c([H])c4F)c([H])c3[H])c(C(=O)N([H])[H])c2N([H])[H])C1([H])[H]

>  <smiles>  (95) 
[H]C(C(=O)C([H])([H])Oc1c([H])c([H])c2c(c1[H])C([H])([H])N(C(=O)C([H])(N([H])C(=O)C([H])(N([H])C([H])([H])[H])C([H])([H])[H])C(C([H])([H])[H])(C([H])([H])[H])C([H])([H])[H])C([H])(C(=O)N([H])C1([H])c3c([H])c([H])c([H])c([H])c3C([H])([H])C([H])([H])C1([H])[H])C2([H])[H])=C([H])C([H])([H])C(=O)N1C([H])([H])C([H])([H])C([H])([H])C([H])(n2nc(-c3c([H])c([H])c(Oc4c([H])c([H])c(F)c([H])c4F)c([H])c3[H])c(C(=O)N([H])[H])c2N([H])[H])C1([H])[H]

$$$$
96:0:0
     RDKit          3D

 95104  0  0  1  0  0  0  0  0999 V2000
  -32.0420  -24.3420   17.3350 C   0  0  0  0  0  3  0  0  0  0  0  0
  -31.4320  -23.1050   17.6220 C   0  0  0  0  0  3  0  0  0  0  0  0
  -31.8560  -25.4390   18.1990 C   0  0  0  0  0  3  0  0  0  0  0  0
  -30.4270  -24.0700   19.6220 C   0  0  0  0  0  3  0  0  0  0  0  0
  -30.6240  -22.9650   18.7700 C   0  0  0  0  0  0  0  0  0  0  0  0
  -31.0520  -25.3010   19.3500 C   0  0  0  0  0  0  0  0  0  0  0  0
  -29.9760  -21.6330   19.1030 C   0  0  0  0  0  2  0  0  0  0  0  0
  -30.5320  -18.7170   21.0540 C   0  0  0  0  0  0  0  0  0  0  0  0
  -29.5890  -19.8650   20.8730 C   0  0  0  0  0  0  0  0  0  0  0  0
  -31.9340  -19.2280   20.7920 C   0  0  0  0  0  2  0  0  0  0  0  0
  -31.8370  -20.7580   20.6790 C   0  0  0  0  0  2  0  0  0  0  0  0
  -30.3500  -21.1320   20.5140 C   0  0  0  0  0  3  0  0  0  0  0  0
  -30.2090  -17.5200   21.3610 N   0  0  0  0  0  0  0  0  0  0  0  0
  -28.3570  -19.8200   20.9800 O   0  0  0  0  0  0  0  0  0  0  0  0
  -31.2160  -16.4780   21.4540 C   0  0  0  0  0  2  0  0  0  0  0  0
  -30.5150  -15.0970   21.4350 C   0  0  0  0  0  2  0  0  0  0  0  0
  -30.8760  -14.1730   20.2550 C   0  0  0  0  0  0  0  0  0  0  0  0
  -30.3890  -12.1570   18.9120 C   0  0  0  0  0  2  0  0  0  0  0  0
  -29.3980  -12.4700   17.7760 C   0  0  0  0  0  2  0  0  0  0  0  0
  -27.9450  -12.3540   18.2740 C   0  0  0  0  0  2  0  0  0  0  0  0
  -27.7050  -13.1430   19.5910 C   0  0  0  0  0  3  0  0  0  0  0  0
  -28.7960  -12.8020   20.6310 C   0  0  0  0  0  2  0  0  0  0  0  0
  -30.1090  -13.0770   20.0220 N   0  0  0  0  0  0  0  0  0  0  0  0
  -31.8670  -14.4360   19.5640 O   0  0  0  0  0  0  0  0  0  0  0  0
  -25.3410  -13.8100   20.3710 C   0  0  0  0  0  0  0  0  0  0  0  0
  -24.2700  -13.0620   20.7820 C   0  0  0  0  0  0  0  0  0  0  0  0
  -24.7000  -11.7010   20.7390 C   0  0  0  0  0  0  0  0  0  0  0  0
  -26.3610  -12.9050   20.1140 N   0  0  0  0  0  0  0  0  0  0  0  0
  -25.9770  -11.6310   20.3870 N   0  0  0  0  0  0  0  0  0  0  0  0
  -23.9560  -10.4540   20.9630 C   0  0  0  0  0  0  0  0  0  0  0  0
  -24.4060   -9.4820   21.8840 C   0  0  0  0  0  3  0  0  0  0  0  0
  -23.6640   -8.3000   22.0950 C   0  0  0  0  0  3  0  0  0  0  0  0
  -22.4600   -8.0810   21.3840 C   0  0  0  0  0  0  0  0  0  0  0  0
  -22.0290   -9.0420   20.4520 C   0  0  0  0  0  3  0  0  0  0  0  0
  -22.7700  -10.2160   20.2400 C   0  0  0  0  0  3  0  0  0  0  0  0
  -21.6870   -6.9510   21.5060 O   0  0  0  0  0  0  0  0  0  0  0  0
  -21.6690   -6.2120   22.6620 C   0  0  0  0  0  0  0  0  0  0  0  0
  -21.3190   -6.7820   23.9050 C   0  0  0  0  0  3  0  0  0  0  0  0
  -21.2460   -5.9700   25.0560 C   0  0  0  0  0  3  0  0  0  0  0  0
  -21.5140   -4.5900   24.9630 C   0  0  0  0  0  0  0  0  0  0  0  0
  -21.8570   -4.0210   23.7240 C   0  0  0  0  0  3  0  0  0  0  0  0
  -21.9320   -4.8300   22.5760 C   0  0  0  0  0  0  0  0  0  0  0  0
  -22.2420   -4.2730   21.3810 F   0  0  0  0  0  0  0  0  0  0  0  0
  -21.4350   -3.8100   26.0650 F   0  0  0  0  0  0  0  0  0  0  0  0
  -22.8940  -13.5690   21.1070 C   0  0  0  0  0  0  0  0  0  0  0  0
  -22.1870  -12.8920   22.0060 N   0  0  0  0  0  0  0  0  0  0  0  0
  -22.4550  -14.5990   20.5990 O   0  0  0  0  0  0  0  0  0  0  0  0
  -22.5560  -12.0580   22.4400 H   0  0  0  0  0  0  0  0  0  0  0  0
  -21.2650  -13.2130   22.2660 H   0  0  0  0  0  0  0  0  0  0  0  0
  -25.5310  -15.1750   20.1800 N   0  0  0  0  0  0  0  0  0  0  0  0
  -24.7900  -15.8560   20.3160 H   0  0  0  0  0  0  0  0  0  0  0  0
  -26.3930  -15.5910   19.8480 H   0  0  0  0  0  0  0  0  0  0  0  0
  -30.8970  -26.4510   20.3270 C   0  0  0  0  0  2  0  0  0  0  0  0
  -29.7030  -27.3730   20.0430 C   0  0  0  0  0  2  0  0  0  0  0  0
  -28.4580  -26.6670   20.1180 O   0  0  0  0  0  0  0  0  0  0  0  0
  -24.6270  -31.8380   23.2090 C   0  0  0  0  0  0  0  0  0  0  0  0
  -27.3000  -27.4150   20.1640 C   0  0  0  0  0  0  0  0  0  0  0  0
  -23.4100  -30.4160   21.5800 C   0  0  0  0  0  3  0  0  0  0  0  0
  -24.8650  -28.8600   20.1730 C   0  0  0  0  0  0  0  0  0  0  0  0
  -25.9240  -30.7930   21.3650 C   0  0  0  0  0  2  0  0  0  0  0  0
  -26.0120  -29.4160   20.7470 C   0  0  0  0  0  0  0  0  0  0  0  0
  -27.2220  -28.6990   20.7510 C   0  0  0  0  0  3  0  0  0  0  0  0
  -26.1270  -26.8550   19.6100 C   0  0  0  0  0  3  0  0  0  0  0  0
  -24.9120  -27.5730   19.6060 C   0  0  0  0  0  3  0  0  0  0  0  0
  -23.6140  -29.7090   20.2100 C   0  0  0  0  0  2  0  0  0  0  0  0
  -24.6720  -31.0310   22.1120 N   0  0  0  0  0  0  0  0  0  0  0  0
  -23.5490  -32.1160   23.7520 O   0  0  0  0  0  0  0  0  0  0  0  0
  -22.7620  -29.4110   22.5560 C   0  0  0  0  0  0  0  0  0  0  0  0
  -21.4370  -29.2360   22.4370 N   0  0  0  0  0  0  0  0  0  0  0  0
  -23.4460  -28.7880   23.3730 O   0  0  0  0  0  0  0  0  0  0  0  0
  -20.9470  -29.7900   21.7480 H   0  0  0  0  0  0  0  0  0  0  0  0
  -18.0570  -28.0740   22.9510 C   0  0  0  0  0  0  0  0  0  0  0  0
  -20.6170  -28.3100   23.2160 C   0  0  0  0  0  3  0  0  0  0  0  0
  -20.7070  -26.8740   22.6480 C   0  0  0  0  0  2  0  0  0  0  0  0
  -19.5990  -26.5540   21.6390 C   0  0  0  0  0  2  0  0  0  0  0  0
  -18.2210  -26.7170   22.2860 C   0  0  0  0  0  2  0  0  0  0  0  0
  -19.1830  -28.8280   23.3730 C   0  0  0  0  0  0  0  0  0  0  0  0
  -18.9790  -30.1000   23.9510 C   0  0  0  0  0  3  0  0  0  0  0  0
  -17.6800  -30.6170   24.1140 C   0  0  0  0  0  3  0  0  0  0  0  0
  -16.5680  -29.8560   23.7120 C   0  0  0  0  0  3  0  0  0  0  0  0
  -16.7570  -28.5870   23.1360 C   0  0  0  0  0  3  0  0  0  0  0  0
  -25.9190  -32.4680   23.8190 C   0  0  0  0  0  3  0  0  0  0  0  0
  -25.6120  -33.8620   24.1650 N   0  0  0  0  0  0  0  0  0  0  0  0
  -25.9300  -34.9220   23.4090 C   0  0  0  0  0  0  0  0  0  0  0  0
  -26.5880  -34.8290   22.3670 O   0  0  0  0  0  0  0  0  0  0  0  0
  -25.0320  -34.0090   24.9780 H   0  0  0  0  0  0  0  0  0  0  0  0
  -24.1870  -36.7040   23.0860 C   0  0  0  0  0  1  0  0  0  0  0  0
  -25.4400  -36.3030   23.8820 C   0  0  0  0  0  3  0  0  0  0  0  0
  -27.5810  -37.1910   24.6900 C   0  0  0  0  0  1  0  0  0  0  0  0
  -26.4640  -37.3630   23.7650 N   0  0  0  0  0  0  0  0  0  0  0  0
  -26.0550  -38.2780   23.9300 H   0  0  0  0  0  0  0  0  0  0  0  0
  -26.4600  -31.6860   25.0780 C   0  0  1  0  0  0  0  0  0  0  0  0
  -25.3850  -31.4270   26.1570 C   0  0  0  0  0  1  0  0  0  0  0  0
  -27.0490  -30.3190   24.6560 C   0  0  0  0  0  1  0  0  0  0  0  0
  -27.6140  -32.4800   25.7360 C   0  0  0  0  0  1  0  0  0  0  0  0
  1  2  2  0
  1  3  1  0
  2  5  1  0
  3  6  2  0
  5  7  1  0
  5  4  2  0
  6  4  1  0
  6 53  1  0
  8 13  2  0
  9 14  2  0
  9  8  1  0
 10  8  1  0
 11 10  1  0
 12  7  1  0
 12 11  1  0
 12  9  1  0
 13 15  1  0
 16 15  1  0
 17 16  1  0
 18 23  1  0
 19 20  1  0
 19 18  1  0
 21 20  1  0
 21 28  1  0
 21 22  1  0
 23 17  1  0
 23 22  1  0
 24 17  2  0
 25 26  2  0
 26 45  1  0
 27 26  1  0
 27 30  1  0
 28 25  1  0
 28 29  1  0
 29 27  2  0
 30 31  1  0
 31 32  2  0
 33 36  1  0
 33 32  1  0
 34 33  2  0
 35 34  1  0
 35 30  2  0
 36 37  1  0
 37 38  1  0
 38 39  2  0
 40 39  1  0
 40 44  1  0
 41 40  2  0
 42 37  2  0
 42 41  1  0
 43 42  1  0
 45 46  1  0
 46 49  1  0
 46 48  1  0
 47 45  2  0
 50 51  1  0
 50 25  1  0
 52 50  1  0
 54 55  1  0
 54 53  1  0
 55 57  1  0
 56 67  2  0
 57 62  1  0
 58 66  1  0
 58 68  1  0
 59 65  1  0
 59 61  1  0
 60 66  1  0
 61 62  2  0
 61 60  1  0
 63 57  2  0
 64 63  1  0
 64 59  2  0
 65 58  1  0
 66 56  1  0
 68 70  2  0
 69 68  1  0
 71 69  1  0
 72 81  2  0
 72 77  1  0
 73 69  1  0
 73 77  1  0
 74 73  1  0
 75 76  1  0
 75 74  1  0
 76 72  1  0
 77 78  2  0
 78 79  1  0
 80 79  2  0
 81 80  1  0
 82 56  1  0
 82 83  1  0
 82 92  1  0
 83 86  1  0
 84 88  1  0
 84 83  1  0
 85 84  2  0
 88 87  1  0
 90 88  1  0
 90 91  1  0
 90 89  1  0
 92 95  1  1
 92 93  1  0
 94 92  1  0
M  ISO  4  16 100  17 100  54 101  55 101
M  END
>  <TORSDO>  (96) 
F 22

>  <SCORE>  (96) 
-13.078

>  <name>  (96) 
96

>  <ligand_id>  (96) 
96

>  <original_smiles>  (96) 
[H]c1c([H])c([H])c2c(c1[H])C([H])([H])C([H])([H])C([H])([H])C2([H])N([H])C(=O)C1([H])N(C(=O)C([H])(N([H])C(=O)C([H])(N([H])C([H])([H])[H])C([H])([H])[H])C(C([H])([H])[H])(C([H])([H])[H])C([H])([H])[H])C([H])([H])c2c([H])c(OC([H])([H])C([H])([H])c3c([H])c([H])c([H])c(C([H])([H])C4([H])C(=O)C(=NC([H])([H])C([H])([H])C(=O)N5C([H])([H])C([H])([H])C([H])([H])C([H])(n6nc(-c7c([H])c([H])c(Oc8c([H])c([H])c(F)c([H])c8F)c([H])c7[H])c(C(=O)N([H])[H])c6N([H])[H])C5([H])[H])C([H])([H])C4([H])[H])c3[H])c([H])c([H])c2C1([H])[H]

>  <smiles>  (96) 
[H]c1c([H])c([H])c2c(c1[H])C([H])([H])C([H])([H])C([H])([H])C2([H])N([H])C(=O)C1([H])N(C(=O)C([H])(N([H])C(=O)C([H])(N([H])C([H])([H])[H])C([H])([H])[H])C(C([H])([H])[H])(C([H])([H])[H])C([H])([H])[H])C([H])([H])c2c([H])c(OC([H])([H])C([H])([H])c3c([H])c([H])c([H])c(C([H])([H])C4([H])C(=O)C(=NC([H])([H])C([H])([H])C(=O)N5C([H])([H])C([H])([H])C([H])([H])C([H])(n6nc(-c7c([H])c([H])c(Oc8c([H])c([H])c(F)c([H])c8F)c([H])c7[H])c(C(=O)N([H])[H])c6N([H])[H])C5([H])[H])C([H])([H])C4([H])[H])c3[H])c([H])c([H])c2C1([H])[H]

$$$$
97:0:0
     RDKit          3D

 91 98  0  0  1  0  0  0  0  0999 V2000
  -27.1730  -23.8020   20.6110 C   0  0  0  0  0  3  0  0  0  0  0  0
  -27.9290  -25.1350   20.8080 C   0  0  0  0  0  0  0  0  0  0  0  0
  -28.1060  -25.6250   21.9270 O   0  0  0  0  0  0  0  0  0  0  0  0
  -28.5050  -25.7980   19.5370 C   0  0  0  0  0  2  0  0  0  0  0  0
  -28.6090  -27.2270   19.6740 O   0  0  0  0  0  0  0  0  0  0  0  0
  -24.7350  -31.9340   23.2810 C   0  0  0  0  0  0  0  0  0  0  0  0
  -27.4240  -27.9270   19.7060 C   0  0  0  0  0  0  0  0  0  0  0  0
  -23.5280  -30.6330   21.5620 C   0  0  0  0  0  3  0  0  0  0  0  0
  -24.9840  -29.3190   19.9410 C   0  0  0  0  0  0  0  0  0  0  0  0
  -26.0290  -31.1240   21.3160 C   0  0  0  0  0  2  0  0  0  0  0  0
  -26.1420  -29.8310   20.5400 C   0  0  0  0  0  0  0  0  0  0  0  0
  -27.3670  -29.1410   20.4220 C   0  0  0  0  0  3  0  0  0  0  0  0
  -26.2560  -27.4500   19.0720 C   0  0  0  0  0  3  0  0  0  0  0  0
  -25.0350  -28.1290   19.2020 C   0  0  0  0  0  3  0  0  0  0  0  0
  -23.7110  -30.1100   20.1170 C   0  0  0  0  0  2  0  0  0  0  0  0
  -24.7840  -31.2410   22.1110 N   0  0  0  0  0  0  0  0  0  0  0  0
  -23.6640  -32.1070   23.8800 O   0  0  0  0  0  0  0  0  0  0  0  0
  -22.9670  -29.4910   22.4390 C   0  0  0  0  0  0  0  0  0  0  0  0
  -21.6680  -29.1910   22.2680 N   0  0  0  0  0  0  0  0  0  0  0  0
  -23.6910  -28.8830   23.2310 O   0  0  0  0  0  0  0  0  0  0  0  0
  -21.1460  -29.7300   21.5950 H   0  0  0  0  0  0  0  0  0  0  0  0
  -18.4310  -27.6180   22.5600 C   0  0  0  0  0  0  0  0  0  0  0  0
  -20.9320  -28.1350   22.9640 C   0  0  0  0  0  3  0  0  0  0  0  0
  -21.2190  -26.7510   22.3370 C   0  0  0  0  0  2  0  0  0  0  0  0
  -20.1950  -26.3480   21.2700 C   0  0  0  0  0  2  0  0  0  0  0  0
  -18.7770  -26.3250   21.8490 C   0  0  0  0  0  2  0  0  0  0  0  0
  -19.4410  -28.4740   23.0730 C   0  0  0  0  0  0  0  0  0  0  0  0
  -19.0600  -29.6820   23.6960 C   0  0  0  0  0  3  0  0  0  0  0  0
  -17.7020  -30.0380   23.8080 C   0  0  0  0  0  3  0  0  0  0  0  0
  -16.7060  -29.1800   23.3130 C   0  0  0  0  0  3  0  0  0  0  0  0
  -17.0710  -27.9690   22.6990 C   0  0  0  0  0  3  0  0  0  0  0  0
  -26.0160  -32.5660   23.9100 C   0  0  0  0  0  3  0  0  0  0  0  0
  -26.5340  -31.7860   25.1810 C   0  0  1  0  0  0  0  0  0  0  0  0
  -25.4420  -31.5300   26.2440 C   0  0  0  0  0  1  0  0  0  0  0  0
  -27.1230  -30.4140   24.7760 C   0  0  0  0  0  1  0  0  0  0  0  0
  -27.6750  -32.5850   25.8520 C   0  0  0  0  0  1  0  0  0  0  0  0
  -25.6990  -33.9610   24.2430 N   0  0  0  0  0  0  0  0  0  0  0  0
  -26.0160  -35.0150   23.4790 C   0  0  0  0  0  0  0  0  0  0  0  0
  -26.6810  -34.9160   22.4450 O   0  0  0  0  0  0  0  0  0  0  0  0
  -25.1250  -34.1120   25.0590 H   0  0  0  0  0  0  0  0  0  0  0  0
  -24.2630  -36.7820   23.1440 C   0  0  0  0  0  1  0  0  0  0  0  0
  -25.5220  -36.3990   23.9360 C   0  0  0  0  0  3  0  0  0  0  0  0
  -27.6620  -37.3180   24.7230 C   0  0  0  0  0  1  0  0  0  0  0  0
  -26.5400  -37.4640   23.7990 N   0  0  0  0  0  0  0  0  0  0  0  0
  -26.1240  -38.3790   23.9480 H   0  0  0  0  0  0  0  0  0  0  0  0
  -24.7260  -24.5440   21.1780 C   0  0  0  0  0  1  0  0  0  0  0  0
  -25.7050  -23.9690   20.1420 C   0  0  0  0  0  2  0  0  0  0  0  0
  -27.2970  -22.8280   21.8140 C   0  0  0  0  0  2  0  0  0  0  0  0
  -27.1850  -21.3490   21.4190 C   0  0  0  0  0  2  0  0  0  0  0  0
  -28.3610  -20.8910   20.5470 C   0  0  0  0  0  2  0  0  0  0  0  0
  -28.5910  -19.3820   20.5960 C   0  0  0  0  0  2  0  0  0  0  0  0
  -29.9740  -19.0480   20.0400 C   0  0  0  0  0  2  0  0  0  0  0  0
  -30.5840  -17.8110   20.6890 C   0  0  0  0  0  2  0  0  0  0  0  0
  -31.8680  -17.3620   19.9570 C   0  0  0  0  0  2  0  0  0  0  0  0
  -32.4410  -16.0380   20.5180 C   0  0  0  0  0  2  0  0  0  0  0  0
  -32.8670  -14.7510   19.7630 C   0  0  0  0  0  0  0  0  0  0  0  0
  -32.5240  -12.3070   19.4930 C   0  0  0  0  0  2  0  0  0  0  0  0
  -31.5690  -11.9870   18.3290 C   0  0  0  0  0  2  0  0  0  0  0  0
  -30.1040  -12.0370   18.8020 C   0  0  0  0  0  2  0  0  0  0  0  0
  -29.7760  -13.3560   19.5550 C   0  0  0  0  0  3  0  0  0  0  0  0
  -30.8260  -13.6080   20.6620 C   0  0  0  0  0  2  0  0  0  0  0  0
  -32.1620  -13.6220   20.0380 N   0  0  0  0  0  0  0  0  0  0  0  0
  -33.8350  -14.7590   18.9850 O   0  0  0  0  0  0  0  0  0  0  0  0
  -27.5830  -14.4070   20.4150 C   0  0  0  0  0  0  0  0  0  0  0  0
  -26.3910  -13.8500   20.7990 C   0  0  0  0  0  0  0  0  0  0  0  0
  -26.5590  -12.4380   20.6720 C   0  0  0  0  0  0  0  0  0  0  0  0
  -28.4130  -13.3450   20.0850 N   0  0  0  0  0  0  0  0  0  0  0  0
  -27.7980  -12.1530   20.2910 N   0  0  0  0  0  0  0  0  0  0  0  0
  -25.5980  -11.3400   20.8370 C   0  0  0  0  0  0  0  0  0  0  0  0
  -25.8080  -10.3150   21.7840 C   0  0  0  0  0  3  0  0  0  0  0  0
  -24.8600   -9.2800   21.9390 C   0  0  0  0  0  3  0  0  0  0  0  0
  -23.6900   -9.2650   21.1440 C   0  0  0  0  0  0  0  0  0  0  0  0
  -23.4970  -10.2760   20.1870 C   0  0  0  0  0  3  0  0  0  0  0  0
  -24.4440  -11.3040   20.0310 C   0  0  0  0  0  3  0  0  0  0  0  0
  -22.7330   -8.2810   21.1990 O   0  0  0  0  0  0  0  0  0  0  0  0
  -22.3860   -7.6800   22.3820 C   0  0  0  0  0  0  0  0  0  0  0  0
  -21.9280   -8.4250   23.4900 C   0  0  0  0  0  3  0  0  0  0  0  0
  -21.5160   -7.7640   24.6620 C   0  0  0  0  0  3  0  0  0  0  0  0
  -21.5550   -6.3580   24.7300 C   0  0  0  0  0  0  0  0  0  0  0  0
  -22.0080   -5.6130   23.6260 C   0  0  0  0  0  3  0  0  0  0  0  0
  -22.4200   -6.2740   22.4560 C   0  0  0  0  0  0  0  0  0  0  0  0
  -22.8350   -5.5490   21.3880 F   0  0  0  0  0  0  0  0  0  0  0  0
  -21.1530   -5.7200   25.8540 F   0  0  0  0  0  0  0  0  0  0  0  0
  -25.1380  -14.5910   21.1730 C   0  0  0  0  0  0  0  0  0  0  0  0
  -24.3370  -14.0270   22.0700 N   0  0  0  0  0  0  0  0  0  0  0  0
  -24.8830  -15.6980   20.7050 O   0  0  0  0  0  0  0  0  0  0  0  0
  -24.5590  -13.1310   22.4770 H   0  0  0  0  0  0  0  0  0  0  0  0
  -23.4950  -14.5070   22.3580 H   0  0  0  0  0  0  0  0  0  0  0  0
  -28.0150  -15.7230   20.3040 N   0  0  0  0  0  0  0  0  0  0  0  0
  -27.3980  -16.5060   20.4890 H   0  0  0  0  0  0  0  0  0  0  0  0
  -28.9270  -16.0080   19.9700 H   0  0  0  0  0  0  0  0  0  0  0  0
  1 47  1  0
  1  2  1  0
  1 48  1  0
  2  3  2  0
  4  5  1  0
  4  2  1  0
  5  7  1  0
  6 17  2  0
  7 12  1  0
  8 16  1  0
  8 18  1  0
  9 15  1  0
  9 11  1  0
 10 16  1  0
 11 10  1  0
 12 11  2  0
 13 14  1  0
 13  7  2  0
 14  9  2  0
 15  8  1  0
 16  6  1  0
 18 20  2  0
 19 18  1  0
 21 19  1  0
 22 31  2  0
 22 27  1  0
 23 19  1  0
 23 27  1  0
 24 23  1  0
 25 26  1  0
 25 24  1  0
 26 22  1  0
 27 28  2  0
 28 29  1  0
 30 29  2  0
 31 30  1  0
 32  6  1  0
 32 37  1  0
 32 33  1  0
 33 36  1  1
 33 34  1  0
 35 33  1  0
 37 40  1  0
 38 42  1  0
 38 37  1  0
 39 38  2  0
 42 41  1  0
 44 42  1  0
 44 45  1  0
 44 43  1  0
 47 46  1  0
 49 48  1  0
 50 51  1  0
 50 49  1  0
 52 51  1  0
 52 53  1  0
 54 55  1  0
 54 53  1  0
 56 62  1  0
 56 55  1  0
 57 62  1  0
 58 59  1  0
 58 57  1  0
 60 59  1  0
 60 67  1  0
 60 61  1  0
 62 61  1  0
 63 56  2  0
 64 65  2  0
 65 84  1  0
 66 65  1  0
 66 69  1  0
 67 68  1  0
 67 64  1  0
 68 66  2  0
 69 70  1  0
 70 71  2  0
 72 75  1  0
 72 71  1  0
 73 72  2  0
 74 73  1  0
 74 69  2  0
 75 76  1  0
 76 81  2  0
 76 77  1  0
 77 78  2  0
 78 79  1  0
 79 83  1  0
 80 79  2  0
 81 80  1  0
 82 81  1  0
 84 85  1  0
 85 88  1  0
 85 87  1  0
 86 84  2  0
 89 64  1  0
 89 90  1  0
 91 89  1  0
M  ISO  4   4 101   5 101  55 100  56 100
M  END
>  <TORSDO>  (97) 
F 27

>  <SCORE>  (97) 
-7.980

>  <name>  (97) 
97

>  <ligand_id>  (97) 
97

>  <original_smiles>  (97) 
[H]c1c([H])c([H])c2c(c1[H])C([H])([H])C([H])([H])C([H])([H])C2([H])N([H])C(=O)C1([H])N(C(=O)C([H])(N([H])C(=O)C([H])(N([H])C([H])([H])[H])C([H])([H])[H])C(C([H])([H])[H])(C([H])([H])[H])C([H])([H])[H])C([H])([H])c2c([H])c(OC([H])([H])C(=O)C([H])(C([H])([H])C([H])([H])[H])C([H])([H])C([H])([H])C([H])([H])C([H])([H])C([H])([H])C([H])([H])C([H])([H])C([H])([H])C(=O)N3C([H])([H])C([H])([H])C([H])([H])C([H])(n4nc(-c5c([H])c([H])c(Oc6c([H])c([H])c(F)c([H])c6F)c([H])c5[H])c(C(=O)N([H])[H])c4N([H])[H])C3([H])[H])c([H])c([H])c2C1([H])[H]

>  <smiles>  (97) 
[H]c1c([H])c([H])c2c(c1[H])C([H])([H])C([H])([H])C([H])([H])C2([H])N([H])C(=O)C1([H])N(C(=O)C([H])(N([H])C(=O)C([H])(N([H])C([H])([H])[H])C([H])([H])[H])C(C([H])([H])[H])(C([H])([H])[H])C([H])([H])[H])C([H])([H])c2c([H])c(OC([H])([H])C(=O)C([H])(C([H])([H])C([H])([H])[H])C([H])([H])C([H])([H])C([H])([H])C([H])([H])C([H])([H])C([H])([H])C([H])([H])C([H])([H])C(=O)N3C([H])([H])C([H])([H])C([H])([H])C([H])(n4nc(-c5c([H])c([H])c(Oc6c([H])c([H])c(F)c([H])c6F)c([H])c5[H])c(C(=O)N([H])[H])c4N([H])[H])C3([H])[H])c([H])c([H])c2C1([H])[H]

$$$$
98:0:0
     RDKit          3D

 95103  0  0  1  0  0  0  0  0999 V2000
  -32.4800  -24.6260   20.2100 C   0  0  0  0  0  3  0  0  0  0  0  0
  -32.2870  -26.1850   18.3400 C   0  0  0  0  0  3  0  0  0  0  0  0
  -31.9520  -25.5990   21.0770 C   0  0  0  0  0  3  0  0  0  0  0  0
  -31.7280  -27.1450   19.2020 C   0  0  0  0  0  3  0  0  0  0  0  0
  -32.6050  -24.9020   18.8320 C   0  0  0  0  0  0  0  0  0  0  0  0
  -31.5170  -26.8390   20.5630 C   0  0  0  0  0  0  0  0  0  0  0  0
  -33.0260  -23.8360   17.8980 C   0  0  0  0  0  0  0  0  0  0  0  0
  -33.9830  -23.9290   17.1260 O   0  0  0  0  0  0  0  0  0  0  0  0
  -32.1110  -22.6110   17.8700 C   0  0  0  0  0  2  0  0  0  0  0  0
  -32.5840  -21.4420   18.7540 C   0  0  0  0  0  2  0  0  0  0  0  0
  -31.4150  -20.7340   19.4700 C   0  0  0  0  0  2  0  0  0  0  0  0
  -31.8410  -19.3660   20.0190 C   0  0  0  0  0  2  0  0  0  0  0  0
  -30.7110  -18.4790   20.5940 C   0  0  0  0  0  2  0  0  0  0  0  0
  -31.2250  -17.0320   20.6470 C   0  0  0  0  0  2  0  0  0  0  0  0
  -30.2650  -15.8690   21.0370 C   0  0  0  0  0  2  0  0  0  0  0  0
  -30.8710  -14.5230   20.5720 C   0  0  0  0  0  0  0  0  0  0  0  0
  -30.4710  -12.4120   19.3950 C   0  0  0  0  0  2  0  0  0  0  0  0
  -29.5780  -12.6920   18.1710 C   0  0  0  0  0  2  0  0  0  0  0  0
  -28.0950  -12.5730   18.5640 C   0  0  0  0  0  2  0  0  0  0  0  0
  -27.7430  -13.3920   19.8360 C   0  0  0  0  0  3  0  0  0  0  0  0
  -28.7750  -13.1780   20.9660 C   0  0  0  0  0  2  0  0  0  0  0  0
  -30.1200  -13.4020   20.4250 N   0  0  0  0  0  0  0  0  0  0  0  0
  -32.0380  -14.5540   20.1790 O   0  0  0  0  0  0  0  0  0  0  0  0
  -25.3300  -13.9930   20.4920 C   0  0  0  0  0  0  0  0  0  0  0  0
  -24.2520  -13.2190   20.8330 C   0  0  0  0  0  0  0  0  0  0  0  0
  -24.7150  -11.8680   20.8160 C   0  0  0  0  0  0  0  0  0  0  0  0
  -26.3800  -13.1120   20.2870 N   0  0  0  0  0  0  0  0  0  0  0  0
  -26.0130  -11.8300   20.5420 N   0  0  0  0  0  0  0  0  0  0  0  0
  -23.9840  -10.6050   20.9870 C   0  0  0  0  0  0  0  0  0  0  0  0
  -24.3760   -9.6480   21.9490 C   0  0  0  0  0  3  0  0  0  0  0  0
  -23.6470   -8.4500   22.1070 C   0  0  0  0  0  3  0  0  0  0  0  0
  -22.5100   -8.2000   21.3020 C   0  0  0  0  0  0  0  0  0  0  0  0
  -22.1370   -9.1460   20.3290 C   0  0  0  0  0  3  0  0  0  0  0  0
  -22.8680  -10.3340   20.1700 C   0  0  0  0  0  3  0  0  0  0  0  0
  -21.7550   -7.0540   21.3670 O   0  0  0  0  0  0  0  0  0  0  0  0
  -21.6430   -6.3310   22.5280 C   0  0  0  0  0  0  0  0  0  0  0  0
  -21.1200   -6.8970   23.7100 C   0  0  0  0  0  3  0  0  0  0  0  0
  -20.9580   -6.0990   24.8620 C   0  0  0  0  0  3  0  0  0  0  0  0
  -21.3070   -4.7370   24.8280 C   0  0  0  0  0  0  0  0  0  0  0  0
  -21.8220   -4.1690   23.6490 C   0  0  0  0  0  3  0  0  0  0  0  0
  -21.9860   -4.9640   22.5010 C   0  0  0  0  0  0  0  0  0  0  0  0
  -22.4630   -4.4070   21.3620 F   0  0  0  0  0  0  0  0  0  0  0  0
  -21.1440   -3.9680   25.9310 F   0  0  0  0  0  0  0  0  0  0  0  0
  -22.8470  -13.6960   21.0660 C   0  0  0  0  0  0  0  0  0  0  0  0
  -22.0930  -12.9940   21.9050 N   0  0  0  0  0  0  0  0  0  0  0  0
  -22.4270  -14.7270   20.5430 O   0  0  0  0  0  0  0  0  0  0  0  0
  -22.4430  -12.1600   22.3510 H   0  0  0  0  0  0  0  0  0  0  0  0
  -21.1490  -13.2950   22.1030 H   0  0  0  0  0  0  0  0  0  0  0  0
  -25.4990  -15.3620   20.3180 N   0  0  0  0  0  0  0  0  0  0  0  0
  -24.7340  -16.0230   20.4140 H   0  0  0  0  0  0  0  0  0  0  0  0
  -26.3650  -15.8010   20.0320 H   0  0  0  0  0  0  0  0  0  0  0  0
  -30.7500  -27.8020   21.4520 C   0  0  0  0  0  2  0  0  0  0  0  0
  -29.5070  -27.1680   22.1150 C   0  0  0  0  0  2  0  0  0  0  0  0
  -28.6390  -26.2710   21.1990 C   0  0  0  0  0  2  0  0  0  0  0  0
  -28.2760  -26.8690   19.9540 O   0  0  0  0  0  0  0  0  0  0  0  0
  -24.5030  -31.9280   23.1890 C   0  0  0  0  0  0  0  0  0  0  0  0
  -27.1160  -27.5930   19.9950 C   0  0  0  0  0  0  0  0  0  0  0  0
  -23.2710  -30.5540   21.5360 C   0  0  0  0  0  3  0  0  0  0  0  0
  -24.7070  -29.0480   20.0600 C   0  0  0  0  0  0  0  0  0  0  0  0
  -25.7850  -30.9360   21.3040 C   0  0  0  0  0  2  0  0  0  0  0  0
  -25.8650  -29.5820   20.6400 C   0  0  0  0  0  0  0  0  0  0  0  0
  -27.0730  -28.8620   20.6020 C   0  0  0  0  0  3  0  0  0  0  0  0
  -25.9510  -27.0630   19.4040 C   0  0  0  0  0  3  0  0  0  0  0  0
  -24.7410  -27.7850   19.4410 C   0  0  0  0  0  3  0  0  0  0  0  0
  -23.4580  -29.8960   20.1420 C   0  0  0  0  0  2  0  0  0  0  0  0
  -24.5390  -31.1510   22.0690 N   0  0  0  0  0  0  0  0  0  0  0  0
  -23.4320  -32.1880   23.7530 O   0  0  0  0  0  0  0  0  0  0  0  0
  -22.6400  -29.5140   22.4890 C   0  0  0  0  0  0  0  0  0  0  0  0
  -21.3160  -29.3230   22.3680 N   0  0  0  0  0  0  0  0  0  0  0  0
  -23.3360  -28.8830   23.2890 O   0  0  0  0  0  0  0  0  0  0  0  0
  -20.8200  -29.8870   21.6920 H   0  0  0  0  0  0  0  0  0  0  0  0
  -17.9520  -28.1100   22.8790 C   0  0  0  0  0  0  0  0  0  0  0  0
  -20.5110  -28.3690   23.1290 C   0  0  0  0  0  3  0  0  0  0  0  0
  -20.6110  -26.9490   22.5240 C   0  0  0  0  0  2  0  0  0  0  0  0
  -19.4990  -26.6440   21.5150 C   0  0  0  0  0  2  0  0  0  0  0  0
  -18.1240  -26.7740   22.1770 C   0  0  0  0  0  2  0  0  0  0  0  0
  -19.0740  -28.8660   23.3100 C   0  0  0  0  0  0  0  0  0  0  0  0
  -18.8610  -30.1180   23.9260 C   0  0  0  0  0  3  0  0  0  0  0  0
  -17.5580  -30.6150   24.1160 C   0  0  0  0  0  3  0  0  0  0  0  0
  -16.4510  -29.8560   23.7010 C   0  0  0  0  0  3  0  0  0  0  0  0
  -16.6480  -28.6050   23.0890 C   0  0  0  0  0  3  0  0  0  0  0  0
  -25.8030  -32.5440   23.8000 C   0  0  0  0  0  3  0  0  0  0  0  0
  -26.3230  -31.7600   25.0670 C   0  0  1  0  0  0  0  0  0  0  0  0
  -25.2370  -31.5260   26.1430 C   0  0  0  0  0  1  0  0  0  0  0  0
  -26.8890  -30.3800   24.6560 C   0  0  0  0  0  1  0  0  0  0  0  0
  -27.4840  -32.5380   25.7310 C   0  0  0  0  0  1  0  0  0  0  0  0
  -25.5080  -33.9440   24.1350 N   0  0  0  0  0  0  0  0  0  0  0  0
  -25.8670  -34.9950   23.3850 C   0  0  0  0  0  0  0  0  0  0  0  0
  -26.5490  -34.8880   22.3620 O   0  0  0  0  0  0  0  0  0  0  0  0
  -24.9000  -34.1030   24.9240 H   0  0  0  0  0  0  0  0  0  0  0  0
  -24.1860  -36.8230   22.9930 C   0  0  0  0  0  1  0  0  0  0  0  0
  -25.3910  -36.3870   23.8400 C   0  0  0  0  0  3  0  0  0  0  0  0
  -27.5110  -37.2200   24.7560 C   0  0  0  0  0  1  0  0  0  0  0  0
  -26.4470  -37.4200   23.7750 N   0  0  0  0  0  0  0  0  0  0  0  0
  -26.0530  -38.3460   23.9170 H   0  0  0  0  0  0  0  0  0  0  0  0
  1  3  1  0
  2  5  1  0
  2  4  2  0
  4  6  1  0
  5  1  2  0
  6  3  2  0
  6 52  1  0
  7  5  1  0
  8  7  2  0
  9  7  1  0
  9 10  1  0
 10 11  1  0
 11 12  1  0
 12 13  1  0
 13 14  1  0
 14 15  1  0
 16 15  1  0
 17 22  1  0
 18 19  1  0
 18 17  1  0
 20 19  1  0
 20 27  1  0
 20 21  1  0
 22 16  1  0
 22 21  1  0
 23 16  2  0
 24 25  2  0
 25 44  1  0
 26 25  1  0
 26 29  1  0
 27 24  1  0
 27 28  1  0
 28 26  2  0
 29 30  1  0
 30 31  2  0
 32 35  1  0
 32 31  1  0
 33 32  2  0
 34 33  1  0
 34 29  2  0
 35 36  1  0
 36 37  1  0
 37 38  2  0
 39 38  1  0
 39 43  1  0
 40 39  2  0
 41 36  2  0
 41 40  1  0
 42 41  1  0
 44 45  1  0
 45 48  1  0
 45 47  1  0
 46 44  2  0
 49 50  1  0
 49 24  1  0
 51 49  1  0
 52 53  1  0
 54 53  1  0
 55 57  1  0
 55 54  1  0
 56 67  2  0
 57 62  1  0
 58 66  1  0
 58 68  1  0
 59 65  1  0
 59 61  1  0
 60 66  1  0
 61 60  1  0
 62 61  2  0
 63 64  1  0
 63 57  2  0
 64 59  2  0
 65 58  1  0
 66 56  1  0
 68 70  2  0
 69 68  1  0
 71 69  1  0
 72 81  2  0
 72 77  1  0
 73 69  1  0
 73 77  1  0
 74 73  1  0
 75 76  1  0
 75 74  1  0
 76 72  1  0
 77 78  2  0
 78 79  1  0
 80 79  2  0
 81 80  1  0
 82 56  1  0
 82 87  1  0
 82 83  1  0
 83 86  1  1
 83 84  1  0
 85 83  1  0
 87 90  1  0
 88 92  1  0
 88 87  1  0
 89 88  2  0
 92 91  1  0
 94 92  1  0
 94 95  1  0
 94 93  1  0
M  ISO  4  15 100  16 100  54 101  55 101
M  END
>  <TORSDO>  (98) 
F 27

>  <SCORE>  (98) 
-11.432

>  <name>  (98) 
98

>  <ligand_id>  (98) 
98

>  <original_smiles>  (98) 
[H]c1c([H])c([H])c2c(c1[H])C([H])([H])C([H])([H])C([H])([H])C2([H])N([H])C(=O)C1([H])N(C(=O)C([H])(N([H])C(=O)C([H])(N([H])C([H])([H])[H])C([H])([H])[H])C(C([H])([H])[H])(C([H])([H])[H])C([H])([H])[H])C([H])([H])c2c([H])c(OC([H])([H])C([H])([H])C([H])([H])c3c([H])c([H])c(C(=O)C([H])([H])C([H])([H])C([H])([H])C([H])([H])C([H])([H])C([H])([H])C([H])([H])C(=O)N4C([H])([H])C([H])([H])C([H])([H])C([H])(n5nc(-c6c([H])c([H])c(Oc7c([H])c([H])c(F)c([H])c7F)c([H])c6[H])c(C(=O)N([H])[H])c5N([H])[H])C4([H])[H])c([H])c3[H])c([H])c([H])c2C1([H])[H]

>  <smiles>  (98) 
[H]c1c([H])c([H])c2c(c1[H])C([H])([H])C([H])([H])C([H])([H])C2([H])N([H])C(=O)C1([H])N(C(=O)C([H])(N([H])C(=O)C([H])(N([H])C([H])([H])[H])C([H])([H])[H])C(C([H])([H])[H])(C([H])([H])[H])C([H])([H])[H])C([H])([H])c2c([H])c(OC([H])([H])C([H])([H])C([H])([H])c3c([H])c([H])c(C(=O)C([H])([H])C([H])([H])C([H])([H])C([H])([H])C([H])([H])C([H])([H])C([H])([H])C(=O)N4C([H])([H])C([H])([H])C([H])([H])C([H])(n5nc(-c6c([H])c([H])c(Oc7c([H])c([H])c(F)c([H])c7F)c([H])c6[H])c(C(=O)N([H])[H])c5N([H])[H])C4([H])[H])c([H])c3[H])c([H])c([H])c2C1([H])[H]

$$$$
